0
                    3D
 Structure written by MMmdl.
162170  0  0  1  0            999 V2000
  -30.7293  -14.5149   20.6370 C   0  0  0  0  0  0
  -30.4197  -12.3680   19.4303 C   0  0  0  0  0  0
  -29.4939  -12.5412   18.2100 C   0  0  0  0  0  0
  -28.0193  -12.3795   18.6232 C   0  0  0  0  0  0
  -27.6587  -13.2201   19.8765 C   0  0  2  0  0  0
  -28.7003  -13.0268   21.0024 C   0  0  0  0  0  0
  -25.2521  -13.8118   20.5591 C   0  0  0  0  0  0
  -24.1821  -13.0406   20.9160 C   0  0  0  0  0  0
  -24.6406  -11.6877   20.8727 C   0  0  0  0  0  0
  -23.9070  -10.4268   21.0396 C   0  0  0  0  0  0
  -24.3629   -9.4188   21.9177 C   0  0  0  0  0  0
  -23.6304   -8.2225   22.0761 C   0  0  0  0  0  0
  -22.4281   -8.0264   21.3559 C   0  0  0  0  0  0
  -21.9910   -9.0230   20.4658 C   0  0  0  0  0  0
  -22.7232  -10.2109   20.3053 C   0  0  0  0  0  0
  -21.6842   -6.0726   22.5273 C   0  0  0  0  0  0
  -21.4003   -6.5631   23.8204 C   0  0  0  0  0  0
  -21.3662   -5.6789   24.9167 C   0  0  0  0  0  0
  -21.6051   -4.3051   24.7225 C   0  0  0  0  0  0
  -21.8815   -3.8143   23.4343 C   0  0  0  0  0  0
  -21.9179   -4.6957   22.3395 C   0  0  0  0  0  0
  -22.7857  -13.5205   21.1861 C   0  0  0  0  0  0
  -22.1645   -4.2146   21.0976 F   0  0  0  0  0  0
  -21.5652   -3.4526   25.7734 F   0  0  0  0  0  0
  -30.0240  -13.3560   20.4552 N   0  0  0  0  0  0
  -26.3015  -12.9353   20.3362 N   0  0  0  0  0  0
  -25.9354  -11.6498   20.5787 N   0  0  0  0  0  0
  -22.0499  -12.8218   22.0425 N   0  0  0  0  0  0
  -25.4140  -15.1799   20.3840 N   0  0  0  0  0  0
  -31.7932  -14.7203   20.0494 O   0  0  0  0  0  0
  -21.6639   -6.8868   21.4242 O   0  0  0  0  0  0
  -22.3554  -14.5534   20.6723 O   0  0  0  0  0  0
  -24.6183  -31.8611   23.2001 C   0  0  0  0  0  0
  -25.9051  -32.4778   23.8312 C   0  0  1  0  0  0
  -27.2516  -27.3922   20.1168 C   0  0  0  0  0  0
  -25.5872  -33.8570   24.2260 N   0  0  0  0  0  0
  -23.4107  -30.4794   21.5408 C   0  0  2  0  0  0
  -24.8616  -28.9266   20.1208 C   0  0  0  0  0  0
  -22.7432  -29.4623   22.4938 C   0  0  0  0  0  0
  -18.0273  -28.1395   22.8479 C   0  0  0  0  0  0
  -24.1488  -36.7319   23.2638 C   0  0  0  0  0  0
  -25.9400  -30.8139   21.3578 C   0  0  0  0  0  0
  -26.0210  -29.4407   20.7151 C   0  0  0  0  0  0
  -27.2182  -28.6836   20.7033 C   0  0  0  0  0  0
  -26.0763  -26.8949   19.5175 C   0  0  0  0  0  0
  -24.8862  -27.6542   19.5178 C   0  0  0  0  0  0
  -23.6244  -29.7988   20.1606 C   0  0  0  0  0  0
  -25.4099  -36.3074   24.0330 C   0  0  1  0  0  0
  -20.5870  -28.3677   23.1306 C   0  0  2  0  0  0
  -20.6749  -26.9411   22.5413 C   0  0  0  0  0  0
  -19.5732  -26.6403   21.5199 C   0  0  0  0  0  0
  -18.1920  -26.7927   22.1626 C   0  0  0  0  0  0
  -19.1529  -28.8850   23.2882 C   0  0  0  0  0  0
  -18.9453  -30.1450   23.8912 C   0  0  0  0  0  0
  -17.6461  -30.6596   24.0586 C   0  0  0  0  0  0
  -25.9018  -34.9447   23.5094 C   0  0  0  0  0  0
  -16.5346  -29.9102   23.6348 C   0  0  0  0  0  0
  -16.7262  -28.6537   23.0339 C   0  0  0  0  0  0
  -26.4464  -31.6559   25.0656 C   0  0  0  0  0  0
  -25.3755  -31.3675   26.1430 C   0  0  0  0  0  0
  -27.0275  -30.2987   24.6030 C   0  0  0  0  0  0
  -27.6027  -32.4274   25.7454 C   0  0  0  0  0  0
  -27.5572  -37.1814   24.8454 C   0  0  0  0  0  0
  -21.4147  -29.3043   22.3707 N   0  0  0  0  0  0
  -26.4278  -37.3763   23.9405 N   0  0  0  0  0  0
  -24.6751  -31.0669   22.0922 N   0  0  0  0  0  0
  -23.4188  -28.8187   23.3009 O   0  0  0  0  0  0
  -28.4301  -26.6572   20.0817 O   0  0  0  0  0  0
  -26.5590  -34.8917   22.4666 O   0  0  0  0  0  0
  -23.5365  -32.1361   23.7368 O   0  0  0  0  0  0
  -30.0925  -17.8717   21.1440 C   0  0  0  0  0  0
  -28.1369  -16.5379   21.6660 C   0  0  0  0  0  0
  -29.3228  -19.0814   21.1440 C   0  0  0  0  0  0
  -27.9291  -18.9760   21.4165 C   0  0  0  0  0  0
  -29.5157  -16.5868   21.3877 C   0  0  0  0  0  0
  -27.3583  -17.7097   21.6757 C   0  0  0  0  0  0
  -27.8997  -25.5775   22.2770 C   0  0  0  0  0  0
  -29.2853  -22.8795   20.9751 C   0  0  0  0  0  0
  -27.0109  -20.1868   21.4943 C   0  0  0  0  0  0
  -26.6111  -24.7928   22.4964 C   0  0  0  0  0  0
  -30.0580  -20.4459   20.9657 C   0  0  0  0  0  0
  -28.5499  -24.0423   20.2249 C   0  0  0  0  0  0
  -28.6225  -25.4633   20.9134 C   0  0  1  0  0  0
  -30.3236  -15.4049   21.5765 N   0  0  0  0  0  0
  -29.3298  -21.6351   20.4284 N   0  0  0  0  0  0
  -28.3351  -26.3158   23.1640 O   0  0  0  0  0  0
  -29.8255  -23.1085   22.0585 O   0  0  0  0  0  0
  -26.0434  -17.6138   21.9864 F   0  0  0  0  0  0
  -31.4626  -12.4705   19.1269 H   0  0  0  0  0  0
  -30.3328  -11.3565   19.8304 H   0  0  0  0  0  0
  -29.7467  -11.8139   17.4376 H   0  0  0  0  0  0
  -29.6485  -13.5274   17.7661 H   0  0  0  0  0  0
  -27.8422  -11.3229   18.8259 H   0  0  0  0  0  0
  -27.3656  -12.6454   17.7915 H   0  0  0  0  0  0
  -27.6936  -14.2674   19.5778 H   0  0  0  0  0  0
  -28.6932  -11.9932   21.3502 H   0  0  0  0  0  0
  -28.4550  -13.6180   21.8816 H   0  0  0  0  0  0
  -25.2773   -9.5669   22.4748 H   0  0  0  0  0  0
  -24.0007   -7.4617   22.7487 H   0  0  0  0  0  0
  -21.0830   -8.8734   19.8988 H   0  0  0  0  0  0
  -22.3670  -10.9645   19.6171 H   0  0  0  0  0  0
  -21.1991   -7.6140   23.9694 H   0  0  0  0  0  0
  -21.1500   -6.0534   25.9067 H   0  0  0  0  0  0
  -22.0602   -2.7611   23.2838 H   0  0  0  0  0  0
  -22.4075  -11.9878   22.4848 H   0  0  0  0  0  0
  -21.1091  -13.1247   22.2519 H   0  0  0  0  0  0
  -24.6715  -15.8418   20.5737 H   0  0  0  0  0  0
  -26.2768  -15.6310   20.1105 H   0  0  0  0  0  0
  -26.7141  -32.5468   23.1088 H   0  0  0  0  0  0
  -25.0033  -33.9701   25.0411 H   0  0  0  0  0  0
  -22.7047  -31.2978   21.3933 H   0  0  0  0  0  0
  -23.3714  -35.9685   23.3291 H   0  0  0  0  0  0
  -24.3598  -36.8925   22.2051 H   0  0  0  0  0  0
  -23.7290  -37.6549   23.6659 H   0  0  0  0  0  0
  -26.0493  -31.5715   20.5800 H   0  0  0  0  0  0
  -26.8297  -30.8734   21.9743 H   0  0  0  0  0  0
  -28.1163  -29.0806   21.1573 H   0  0  0  0  0  0
  -26.0840  -25.9218   19.0466 H   0  0  0  0  0  0
  -23.9955  -27.2535   19.0535 H   0  0  0  0  0  0
  -23.7409  -30.5683   19.3965 H   0  0  0  0  0  0
  -22.7480  -29.2179   19.8660 H   0  0  0  0  0  0
  -25.1299  -36.1918   25.0825 H   0  0  0  0  0  0
  -20.9962  -28.3227   24.1424 H   0  0  0  0  0  0
  -20.5589  -26.2322   23.3625 H   0  0  0  0  0  0
  -21.6633  -26.7424   22.1240 H   0  0  0  0  0  0
  -19.6909  -25.6321   21.1213 H   0  0  0  0  0  0
  -19.6638  -27.3243   20.6751 H   0  0  0  0  0  0
  -17.4181  -26.6654   21.4040 H   0  0  0  0  0  0
  -18.0333  -26.0095   22.9047 H   0  0  0  0  0  0
  -19.7946  -30.7253   24.2288 H   0  0  0  0  0  0
  -17.5029  -31.6274   24.5210 H   0  0  0  0  0  0
  -15.5353  -30.3012   23.7697 H   0  0  0  0  0  0
  -15.8650  -28.0886   22.7031 H   0  0  0  0  0  0
  -24.5942  -30.6982   25.7817 H   0  0  0  0  0  0
  -24.8939  -32.2827   26.4881 H   0  0  0  0  0  0
  -25.8144  -30.8888   27.0192 H   0  0  0  0  0  0
  -26.2805  -29.6768   24.1079 H   0  0  0  0  0  0
  -27.4042  -29.7192   25.4469 H   0  0  0  0  0  0
  -27.8639  -30.4294   23.9161 H   0  0  0  0  0  0
  -27.2627  -33.3562   26.2060 H   0  0  0  0  0  0
  -28.3854  -32.6835   25.0301 H   0  0  0  0  0  0
  -28.0680  -31.8366   26.5364 H   0  0  0  0  0  0
  -28.2591  -38.0111   24.7493 H   0  0  0  0  0  0
  -28.1072  -36.2642   24.6289 H   0  0  0  0  0  0
  -27.2297  -37.1477   25.8858 H   0  0  0  0  0  0
  -20.9298  -29.8812   21.6979 H   0  0  0  0  0  0
  -26.0148  -38.2837   24.1385 H   0  0  0  0  0  0
  -31.1613  -17.9411   20.9958 H   0  0  0  0  0  0
  -27.6559  -15.6127   21.9369 H   0  0  0  0  0  0
  -26.8104  -20.5773   20.4958 H   0  0  0  0  0  0
  -27.4492  -20.9713   22.1075 H   0  0  0  0  0  0
  -26.0495  -19.9515   21.9498 H   0  0  0  0  0  0
  -26.7699  -23.7231   22.3633 H   0  0  0  0  0  0
  -25.8446  -25.1271   21.7979 H   0  0  0  0  0  0
  -26.2475  -24.9591   23.5098 H   0  0  0  0  0  0
  -30.9203  -20.2791   20.3177 H   0  0  0  0  0  0
  -30.4891  -20.6889   21.9388 H   0  0  0  0  0  0
  -27.5148  -23.7619   20.0348 H   0  0  0  0  0  0
  -29.0204  -24.1237   19.2460 H   0  0  0  0  0  0
  -29.6742  -25.5635   21.1828 H   0  0  0  0  0  0
  -31.1734  -15.6834   22.0442 H   0  0  0  0  0  0
  -28.8698  -21.5061   19.5377 H   0  0  0  0  0  0
  1 25  1  0  0  0
  1 30  2  0  0  0
  1 84  1  0  0  0
  2  3  1  0  0  0
  2 25  1  0  0  0
  2 89  1  0  0  0
  2 90  1  0  0  0
  3  4  1  0  0  0
  3 91  1  0  0  0
  3 92  1  0  0  0
  4  5  1  0  0  0
  4 93  1  0  0  0
  4 94  1  0  0  0
  5  6  1  0  0  0
  5 26  1  0  0  0
  5 95  1  0  0  0
  6 25  1  0  0  0
  6 96  1  0  0  0
  6 97  1  0  0  0
  7  8  2  0  0  0
  7 26  1  0  0  0
  7 29  1  0  0  0
  8  9  1  0  0  0
  8 22  1  0  0  0
  9 10  1  0  0  0
  9 27  2  0  0  0
 10 11  2  0  0  0
 10 15  1  0  0  0
 11 12  1  0  0  0
 11 98  1  0  0  0
 12 13  2  0  0  0
 12 99  1  0  0  0
 13 14  1  0  0  0
 13 31  1  0  0  0
 14 15  2  0  0  0
 14100  1  0  0  0
 15101  1  0  0  0
 16 17  2  0  0  0
 16 21  1  0  0  0
 16 31  1  0  0  0
 17 18  1  0  0  0
 17102  1  0  0  0
 18 19  2  0  0  0
 18103  1  0  0  0
 19 20  1  0  0  0
 19 24  1  0  0  0
 20 21  2  0  0  0
 20104  1  0  0  0
 21 23  1  0  0  0
 22 28  1  0  0  0
 22 32  2  0  0  0
 26 27  1  0  0  0
 28105  1  0  0  0
 28106  1  0  0  0
 29107  1  0  0  0
 29108  1  0  0  0
 33 34  1  0  0  0
 33 66  1  0  0  0
 33 70  2  0  0  0
 34 36  1  0  0  0
 34 59  1  0  0  0
 34109  1  0  0  0
 35 44  2  0  0  0
 35 45  1  0  0  0
 35 68  1  0  0  0
 36 56  1  0  0  0
 36110  1  0  0  0
 37 39  1  0  0  0
 37 47  1  0  0  0
 37 66  1  0  0  0
 37111  1  0  0  0
 38 43  2  0  0  0
 38 46  1  0  0  0
 38 47  1  0  0  0
 39 64  1  0  0  0
 39 67  2  0  0  0
 40 52  1  0  0  0
 40 53  2  0  0  0
 40 58  1  0  0  0
 41112  1  0  0  0
 41113  1  0  0  0
 41114  1  0  0  0
 41 48  1  0  0  0
 42 43  1  0  0  0
 42 66  1  0  0  0
 42115  1  0  0  0
 42116  1  0  0  0
 43 44  1  0  0  0
 44117  1  0  0  0
 45 46  2  0  0  0
 45118  1  0  0  0
 46119  1  0  0  0
 47120  1  0  0  0
 47121  1  0  0  0
 48 56  1  0  0  0
 48 65  1  0  0  0
 48122  1  0  0  0
 49 50  1  0  0  0
 49 53  1  0  0  0
 49 64  1  0  0  0
 49123  1  0  0  0
 50 51  1  0  0  0
 50124  1  0  0  0
 50125  1  0  0  0
 51 52  1  0  0  0
 51126  1  0  0  0
 51127  1  0  0  0
 52128  1  0  0  0
 52129  1  0  0  0
 53 54  1  0  0  0
 54 55  2  0  0  0
 54130  1  0  0  0
 55 57  1  0  0  0
 55131  1  0  0  0
 56 69  2  0  0  0
 57 58  2  0  0  0
 57132  1  0  0  0
 58133  1  0  0  0
 59 60  1  0  0  0
 59 61  1  0  0  0
 59 62  1  0  0  0
 60134  1  0  0  0
 60135  1  0  0  0
 60136  1  0  0  0
 61137  1  0  0  0
 61138  1  0  0  0
 61139  1  0  0  0
 62140  1  0  0  0
 62141  1  0  0  0
 62142  1  0  0  0
 63 65  1  0  0  0
 63143  1  0  0  0
 63144  1  0  0  0
 63145  1  0  0  0
 64146  1  0  0  0
 65147  1  0  0  0
 68 83  1  0  0  0
 71 73  2  0  0  0
 71 75  1  0  0  0
 71148  1  0  0  0
 72 75  2  0  0  0
 72 76  1  0  0  0
 72149  1  0  0  0
 73 74  1  0  0  0
 73 81  1  0  0  0
 74 76  2  0  0  0
 74 79  1  0  0  0
 75 84  1  0  0  0
 76 88  1  0  0  0
 77 80  1  0  0  0
 77 83  1  0  0  0
 77 86  2  0  0  0
 78 82  1  0  0  0
 78 85  1  0  0  0
 78 87  2  0  0  0
 79150  1  0  0  0
 79151  1  0  0  0
 79152  1  0  0  0
 80153  1  0  0  0
 80154  1  0  0  0
 80155  1  0  0  0
 81 85  1  0  0  0
 81156  1  0  0  0
 81157  1  0  0  0
 82158  1  0  0  0
 82159  1  0  0  0
 82 83  1  0  0  0
 83160  1  0  0  0
 84161  1  0  0  0
 85162  1  0  0  0
M  ISO  4   1 100  68 101  83 101  84 100
M  END
> <chiral flag>
0

> <version>
0

> <s_m_source_file>
/data/baiqing/PycharmProjects/Reinvent-master-3.2/result/LINK_invent/BTK/process_docking_weight1_custom_product_contain_oxygen_bond_distance_aromatic_linkinvent_7_9_3/rearranged_h_0164.sdf

> <i_m_source_file_index>
1

> <r_mmod_Potential_Energy-OPLS-2005>
-51.0209617614746

> <r_mmod_Stretch_Energy-OPLS-2005>
60.2375984191895

> <r_mmod_Bend_Energy-OPLS-2005>
154.1826171875

> <r_mmod_Torsional_Energy-OPLS-2005>
294.710693359375

> <r_mmod_Improper_Torsional_Energy-OPLS-2005>
9.72044658660889

> <r_mmod_Van_der_Waal_Energy-OPLS-2005>
142.346313476562

> <r_mmod_Electrostatic_Energy-OPLS-2005>
-493.887786865234

> <r_mmod_Solvation_Energy-OPLS-2005>
-236.383941650391

> <b_mmod_Minimization_Converged-OPLS-2005>
0

> <r_mmod_RMS_Derivative-OPLS-2005>
3.0173237323761

$$$$
1
                    3D
 Structure written by MMmdl.
161169  0  0  1  0            999 V2000
  -30.6314  -14.5434   20.5293 C   0  0  0  0  0  0
  -30.4317  -12.3389   19.4389 C   0  0  0  0  0  0
  -29.5035  -12.4941   18.2124 C   0  0  0  0  0  0
  -28.0168  -12.3750   18.6085 C   0  0  0  0  0  0
  -27.6557  -13.2088   19.8650 C   0  0  2  0  0  0
  -28.6927  -13.0010   20.9917 C   0  0  0  0  0  0
  -25.2595  -13.8181   20.5661 C   0  0  0  0  0  0
  -24.1840  -13.0460   20.9187 C   0  0  0  0  0  0
  -24.6372  -11.6918   20.8708 C   0  0  0  0  0  0
  -23.9031  -10.4314   21.0341 C   0  0  0  0  0  0
  -24.3596   -9.4249   21.9127 C   0  0  0  0  0  0
  -23.6303   -8.2267   22.0711 C   0  0  0  0  0  0
  -22.4282   -8.0273   21.3519 C   0  0  0  0  0  0
  -21.9909   -9.0231   20.4613 C   0  0  0  0  0  0
  -22.7198  -10.2137   20.3006 C   0  0  0  0  0  0
  -21.6873   -6.0737   22.5266 C   0  0  0  0  0  0
  -21.4016   -6.5630   23.8197 C   0  0  0  0  0  0
  -21.3663   -5.6778   24.9154 C   0  0  0  0  0  0
  -21.6041   -4.3043   24.7217 C   0  0  0  0  0  0
  -21.8828   -3.8144   23.4336 C   0  0  0  0  0  0
  -21.9209   -4.6959   22.3391 C   0  0  0  0  0  0
  -22.7874  -13.5258   21.1842 C   0  0  0  0  0  0
  -22.1672   -4.2142   21.0970 F   0  0  0  0  0  0
  -21.5639   -3.4521   25.7722 F   0  0  0  0  0  0
  -30.0185  -13.3289   20.4507 N   0  0  0  0  0  0
  -26.2986  -12.9332   20.3282 N   0  0  0  0  0  0
  -25.9293  -11.6499   20.5720 N   0  0  0  0  0  0
  -22.0489  -12.8261   22.0378 N   0  0  0  0  0  0
  -25.4474  -15.1874   20.4096 N   0  0  0  0  0  0
  -31.7809  -14.7251   20.1143 O   0  0  0  0  0  0
  -21.6656   -6.8868   21.4213 O   0  0  0  0  0  0
  -22.3553  -14.5539   20.6627 O   0  0  0  0  0  0
  -24.6212  -31.8622   23.2046 C   0  0  0  0  0  0
  -25.9082  -32.4791   23.8380 C   0  0  1  0  0  0
  -27.2555  -27.4028   20.1017 C   0  0  0  0  0  0
  -25.5936  -33.8594   24.2319 N   0  0  0  0  0  0
  -23.4122  -30.4845   21.5419 C   0  0  2  0  0  0
  -24.8623  -28.9386   20.1148 C   0  0  0  0  0  0
  -22.7449  -29.4650   22.4937 C   0  0  0  0  0  0
  -18.0292  -28.1426   22.8442 C   0  0  0  0  0  0
  -24.1497  -36.7281   23.2639 C   0  0  0  0  0  0
  -25.9434  -30.8197   21.3600 C   0  0  0  0  0  0
  -26.0206  -29.4489   20.7112 C   0  0  0  0  0  0
  -27.2137  -28.6881   20.6979 C   0  0  0  0  0  0
  -26.0749  -26.9064   19.5013 C   0  0  0  0  0  0
  -24.8845  -27.6669   19.5108 C   0  0  0  0  0  0
  -23.6264  -29.8123   20.1589 C   0  0  0  0  0  0
  -25.4114  -36.3070   24.0337 C   0  0  1  0  0  0
  -20.5875  -28.3722   23.1265 C   0  0  2  0  0  0
  -20.6786  -26.9441   22.5406 C   0  0  0  0  0  0
  -19.5781  -26.6396   21.5202 C   0  0  0  0  0  0
  -18.1948  -26.7964   22.1587 C   0  0  0  0  0  0
  -19.1533  -28.8895   23.2855 C   0  0  0  0  0  0
  -18.9455  -30.1484   23.8899 C   0  0  0  0  0  0
  -17.6454  -30.6612   24.0562 C   0  0  0  0  0  0
  -25.9040  -34.9445   23.5120 C   0  0  0  0  0  0
  -16.5344  -29.9110   23.6332 C   0  0  0  0  0  0
  -16.7273  -28.6538   23.0323 C   0  0  0  0  0  0
  -26.4523  -31.6563   25.0709 C   0  0  0  0  0  0
  -25.3781  -31.3621   26.1440 C   0  0  0  0  0  0
  -27.0369  -30.3018   24.6069 C   0  0  0  0  0  0
  -27.6136  -32.4256   25.7456 C   0  0  0  0  0  0
  -27.5575  -37.1777   24.8465 C   0  0  0  0  0  0
  -21.4165  -29.3052   22.3646 N   0  0  0  0  0  0
  -26.4287  -37.3767   23.9414 N   0  0  0  0  0  0
  -24.6768  -31.0720   22.0940 N   0  0  0  0  0  0
  -23.4194  -28.8196   23.3013 O   0  0  0  0  0  0
  -28.4480  -26.6959   20.1649 O   0  0  0  0  0  0
  -26.5580  -34.8899   22.4664 O   0  0  0  0  0  0
  -23.5387  -32.1381   23.7427 O   0  0  0  0  0  0
  -29.3624  -18.0223   18.1638 C   0  0  0  0  0  0
  -29.5710  -16.8251   18.8657 C   0  0  0  0  0  0
  -29.2231  -19.2132   18.8875 C   0  0  0  0  0  0
  -29.6625  -16.8319   20.2751 C   0  0  0  0  0  0
  -29.2824  -19.1775   20.2913 C   0  0  0  0  0  0
  -29.2879  -22.9403   20.2725 C   0  0  0  0  0  0
  -28.3322  -24.1681   20.3310 C   0  0  0  0  0  0
  -31.5579  -22.2539   19.7994 C   0  0  0  0  0  0
  -34.1406  -22.0738   19.4979 C   0  0  0  0  0  0
  -28.5257  -21.5809   20.5113 C   0  0  0  0  0  0
  -28.6726  -25.4342   19.4833 C   0  0  0  0  0  0
  -32.9023  -22.9805   19.6421 C   0  0  0  0  0  0
  -29.4822  -18.0062   20.9614 N   0  0  0  0  0  0
  -30.5339  -23.1693   20.0133 N   0  0  0  0  0  0
  -29.8442  -15.5716   20.9430 N   0  0  0  0  0  0
  -29.1861  -20.3648   21.0533 N   0  0  0  0  0  0
  -27.2915  -24.1657   21.0001 O   0  0  0  0  0  0
  -31.5275  -21.0330   19.6893 O   0  0  0  0  0  0
  -31.4714  -12.4719   19.1344 H   0  0  0  0  0  0
  -30.3722  -11.3297   19.8481 H   0  0  0  0  0  0
  -29.7511  -11.7426   17.4611 H   0  0  0  0  0  0
  -29.6791  -13.4615   17.7420 H   0  0  0  0  0  0
  -27.7954  -11.3232   18.7810 H   0  0  0  0  0  0
  -27.3849  -12.6731   17.7717 H   0  0  0  0  0  0
  -27.6925  -14.2542   19.5598 H   0  0  0  0  0  0
  -28.6784  -11.9647   21.3307 H   0  0  0  0  0  0
  -28.4455  -13.6035   21.8665 H   0  0  0  0  0  0
  -25.2711   -9.5772   22.4722 H   0  0  0  0  0  0
  -24.0014   -7.4680   22.7428 H   0  0  0  0  0  0
  -21.0836   -8.8742   19.8930 H   0  0  0  0  0  0
  -22.3594  -10.9681   19.6135 H   0  0  0  0  0  0
  -21.1979   -7.6139   23.9694 H   0  0  0  0  0  0
  -21.1478   -6.0503   25.9056 H   0  0  0  0  0  0
  -22.0605   -2.7600   23.2831 H   0  0  0  0  0  0
  -22.4088  -11.9961   22.4864 H   0  0  0  0  0  0
  -21.1068  -13.1264   22.2464 H   0  0  0  0  0  0
  -24.7026  -15.8672   20.5244 H   0  0  0  0  0  0
  -26.3055  -15.5998   20.0664 H   0  0  0  0  0  0
  -26.7164  -32.5488   23.1145 H   0  0  0  0  0  0
  -25.0120  -33.9776   25.0484 H   0  0  0  0  0  0
  -22.7011  -31.3003   21.3975 H   0  0  0  0  0  0
  -23.3766  -35.9607   23.3289 H   0  0  0  0  0  0
  -24.3611  -36.8909   22.2058 H   0  0  0  0  0  0
  -23.7234  -37.6478   23.6661 H   0  0  0  0  0  0
  -26.0601  -31.5830   20.5886 H   0  0  0  0  0  0
  -26.8307  -30.8768   21.9791 H   0  0  0  0  0  0
  -28.1109  -29.0823   21.1548 H   0  0  0  0  0  0
  -26.0544  -25.9293   19.0411 H   0  0  0  0  0  0
  -23.9880  -27.2653   19.0569 H   0  0  0  0  0  0
  -23.7479  -30.5875   19.4015 H   0  0  0  0  0  0
  -22.7490  -29.2397   19.8546 H   0  0  0  0  0  0
  -25.1284  -36.1929   25.0830 H   0  0  0  0  0  0
  -20.9995  -28.3337   24.1373 H   0  0  0  0  0  0
  -20.5719  -26.2328   23.3607 H   0  0  0  0  0  0
  -21.6648  -26.7483   22.1173 H   0  0  0  0  0  0
  -19.6943  -25.6297   21.1263 H   0  0  0  0  0  0
  -19.6766  -27.3174   20.6710 H   0  0  0  0  0  0
  -17.4214  -26.6696   21.3992 H   0  0  0  0  0  0
  -18.0349  -26.0135   22.9013 H   0  0  0  0  0  0
  -19.7930  -30.7299   24.2272 H   0  0  0  0  0  0
  -17.5007  -31.6302   24.5146 H   0  0  0  0  0  0
  -15.5343  -30.3021   23.7676 H   0  0  0  0  0  0
  -15.8657  -28.0891   22.7015 H   0  0  0  0  0  0
  -24.6008  -30.6936   25.7719 H   0  0  0  0  0  0
  -24.8919  -32.2747   26.4901 H   0  0  0  0  0  0
  -25.8139  -30.8764   27.0180 H   0  0  0  0  0  0
  -26.2897  -29.6724   24.1227 H   0  0  0  0  0  0
  -27.4275  -29.7309   25.4500 H   0  0  0  0  0  0
  -27.8672  -30.4366   23.9132 H   0  0  0  0  0  0
  -27.2833  -33.3569   26.2074 H   0  0  0  0  0  0
  -28.3933  -32.6777   25.0247 H   0  0  0  0  0  0
  -28.0828  -31.8329   26.5324 H   0  0  0  0  0  0
  -28.2559  -38.0099   24.7518 H   0  0  0  0  0  0
  -28.1099  -36.2624   24.6277 H   0  0  0  0  0  0
  -27.2299  -37.1396   25.8870 H   0  0  0  0  0  0
  -20.9356  -29.8751   21.6819 H   0  0  0  0  0  0
  -26.0167  -38.2833   24.1470 H   0  0  0  0  0  0
  -29.3197  -18.0361   17.0846 H   0  0  0  0  0  0
  -29.6575  -15.9119   18.2940 H   0  0  0  0  0  0
  -29.1151  -20.1370   18.3375 H   0  0  0  0  0  0
  -35.0448  -22.6800   19.4086 H   0  0  0  0  0  0
  -34.0890  -21.4426   18.6115 H   0  0  0  0  0  0
  -34.2656  -21.4278   20.3667 H   0  0  0  0  0  0
  -27.9600  -21.3512   19.6114 H   0  0  0  0  0  0
  -27.7452  -21.7815   21.2468 H   0  0  0  0  0  0
  -28.1544  -25.4082   18.5256 H   0  0  0  0  0  0
  -29.7352  -25.4084   19.2393 H   0  0  0  0  0  0
  -33.0485  -23.6185   20.5135 H   0  0  0  0  0  0
  -32.8369  -23.6400   18.7749 H   0  0  0  0  0  0
  -29.0655  -15.2994   21.5204 H   0  0  0  0  0  0
  -29.1958  -20.2742   22.0614 H   0  0  0  0  0  0
  1 25  1  0  0  0
  1 30  2  0  0  0
  1 85  1  0  0  0
  2  3  1  0  0  0
  2 25  1  0  0  0
  2 89  1  0  0  0
  2 90  1  0  0  0
  3  4  1  0  0  0
  3 91  1  0  0  0
  3 92  1  0  0  0
  4  5  1  0  0  0
  4 93  1  0  0  0
  4 94  1  0  0  0
  5  6  1  0  0  0
  5 26  1  0  0  0
  5 95  1  0  0  0
  6 25  1  0  0  0
  6 96  1  0  0  0
  6 97  1  0  0  0
  7  8  2  0  0  0
  7 26  1  0  0  0
  7 29  1  0  0  0
  8  9  1  0  0  0
  8 22  1  0  0  0
  9 10  1  0  0  0
  9 27  2  0  0  0
 10 11  2  0  0  0
 10 15  1  0  0  0
 11 12  1  0  0  0
 11 98  1  0  0  0
 12 13  2  0  0  0
 12 99  1  0  0  0
 13 14  1  0  0  0
 13 31  1  0  0  0
 14 15  2  0  0  0
 14100  1  0  0  0
 15101  1  0  0  0
 16 17  2  0  0  0
 16 21  1  0  0  0
 16 31  1  0  0  0
 17 18  1  0  0  0
 17102  1  0  0  0
 18 19  2  0  0  0
 18103  1  0  0  0
 19 20  1  0  0  0
 19 24  1  0  0  0
 20 21  2  0  0  0
 20104  1  0  0  0
 21 23  1  0  0  0
 22 28  1  0  0  0
 22 32  2  0  0  0
 26 27  1  0  0  0
 28105  1  0  0  0
 28106  1  0  0  0
 29107  1  0  0  0
 29108  1  0  0  0
 33 34  1  0  0  0
 33 66  1  0  0  0
 33 70  2  0  0  0
 34 36  1  0  0  0
 34 59  1  0  0  0
 34109  1  0  0  0
 35 44  2  0  0  0
 35 45  1  0  0  0
 35 68  1  0  0  0
 36 56  1  0  0  0
 36110  1  0  0  0
 37 39  1  0  0  0
 37 47  1  0  0  0
 37 66  1  0  0  0
 37111  1  0  0  0
 38 43  2  0  0  0
 38 46  1  0  0  0
 38 47  1  0  0  0
 39 64  1  0  0  0
 39 67  2  0  0  0
 40 52  1  0  0  0
 40 53  2  0  0  0
 40 58  1  0  0  0
 41112  1  0  0  0
 41113  1  0  0  0
 41114  1  0  0  0
 41 48  1  0  0  0
 42 43  1  0  0  0
 42 66  1  0  0  0
 42115  1  0  0  0
 42116  1  0  0  0
 43 44  1  0  0  0
 44117  1  0  0  0
 45 46  2  0  0  0
 45118  1  0  0  0
 46119  1  0  0  0
 47120  1  0  0  0
 47121  1  0  0  0
 48 56  1  0  0  0
 48 65  1  0  0  0
 48122  1  0  0  0
 49 50  1  0  0  0
 49 53  1  0  0  0
 49 64  1  0  0  0
 49123  1  0  0  0
 50 51  1  0  0  0
 50124  1  0  0  0
 50125  1  0  0  0
 51 52  1  0  0  0
 51126  1  0  0  0
 51127  1  0  0  0
 52128  1  0  0  0
 52129  1  0  0  0
 53 54  1  0  0  0
 54 55  2  0  0  0
 54130  1  0  0  0
 55 57  1  0  0  0
 55131  1  0  0  0
 56 69  2  0  0  0
 57 58  2  0  0  0
 57132  1  0  0  0
 58133  1  0  0  0
 59 60  1  0  0  0
 59 61  1  0  0  0
 59 62  1  0  0  0
 60134  1  0  0  0
 60135  1  0  0  0
 60136  1  0  0  0
 61137  1  0  0  0
 61138  1  0  0  0
 61139  1  0  0  0
 62140  1  0  0  0
 62141  1  0  0  0
 62142  1  0  0  0
 63 65  1  0  0  0
 63143  1  0  0  0
 63144  1  0  0  0
 63145  1  0  0  0
 64146  1  0  0  0
 65147  1  0  0  0
 68 81  1  0  0  0
 71 72  2  0  0  0
 71 73  1  0  0  0
 71148  1  0  0  0
 72 74  1  0  0  0
 72149  1  0  0  0
 73 75  2  0  0  0
 73150  1  0  0  0
 74 83  2  0  0  0
 74 85  1  0  0  0
 75 83  1  0  0  0
 75 86  1  0  0  0
 76 77  1  0  0  0
 76 80  1  0  0  0
 76 84  2  0  0  0
 77 81  1  0  0  0
 77 87  2  0  0  0
 78 82  1  0  0  0
 78 84  1  0  0  0
 78 88  2  0  0  0
 79 82  1  0  0  0
 79151  1  0  0  0
 79152  1  0  0  0
 79153  1  0  0  0
 80 86  1  0  0  0
 80154  1  0  0  0
 80155  1  0  0  0
 81156  1  0  0  0
 81157  1  0  0  0
 82158  1  0  0  0
 82159  1  0  0  0
 85160  1  0  0  0
 86161  1  0  0  0
M  ISO  4   1 100  68 101  81 101  85 100
M  END
> <chiral flag>
0

> <version>
0

> <s_m_source_file>
/data/baiqing/PycharmProjects/Reinvent-master-3.2/result/LINK_invent/BTK/process_docking_weight1_custom_product_contain_oxygen_bond_distance_aromatic_linkinvent_7_9_3/rearranged_h_0164.sdf

> <i_m_source_file_index>
2

> <r_mmod_Potential_Energy-OPLS-2005>
-147.110382080078

> <r_mmod_Stretch_Energy-OPLS-2005>
59.8635482788086

> <r_mmod_Bend_Energy-OPLS-2005>
186.173721313477

> <r_mmod_Torsional_Energy-OPLS-2005>
238.970275878906

> <r_mmod_Improper_Torsional_Energy-OPLS-2005>
7.64256620407104

> <r_mmod_Van_der_Waal_Energy-OPLS-2005>
161.747436523438

> <r_mmod_Electrostatic_Energy-OPLS-2005>
-570.028381347656

> <r_mmod_Solvation_Energy-OPLS-2005>
-253.987670898438

> <b_mmod_Minimization_Converged-OPLS-2005>
0

> <r_mmod_RMS_Derivative-OPLS-2005>
4.84794807434082

$$$$
2
                    3D
 Structure written by MMmdl.
158166  0  0  1  0            999 V2000
  -30.6030  -14.4608   20.5072 C   0  0  0  0  0  0
  -30.4349  -12.2713   19.4196 C   0  0  0  0  0  0
  -29.4958  -12.4790   18.2077 C   0  0  0  0  0  0
  -28.0098  -12.3451   18.6115 C   0  0  0  0  0  0
  -27.6581  -13.1687   19.8727 C   0  0  2  0  0  0
  -28.6937  -12.9163   20.9905 C   0  0  0  0  0  0
  -25.2556  -13.8020   20.5642 C   0  0  0  0  0  0
  -24.1781  -13.0357   20.9146 C   0  0  0  0  0  0
  -24.6307  -11.6800   20.8708 C   0  0  0  0  0  0
  -23.8977  -10.4165   21.0443 C   0  0  0  0  0  0
  -24.3528   -9.4064   21.9201 C   0  0  0  0  0  0
  -23.6181   -8.2110   22.0740 C   0  0  0  0  0  0
  -22.4173   -8.0183   21.3527 C   0  0  0  0  0  0
  -21.9860   -9.0152   20.4627 C   0  0  0  0  0  0
  -22.7198  -10.2028   20.3065 C   0  0  0  0  0  0
  -21.6784   -6.0659   22.5304 C   0  0  0  0  0  0
  -21.3952   -6.5581   23.8232 C   0  0  0  0  0  0
  -21.3690   -5.6754   24.9212 C   0  0  0  0  0  0
  -21.6081   -4.3016   24.7275 C   0  0  0  0  0  0
  -21.8789   -3.8101   23.4394 C   0  0  0  0  0  0
  -21.9133   -4.6899   22.3439 C   0  0  0  0  0  0
  -22.7832  -13.5208   21.1760 C   0  0  0  0  0  0
  -22.1610   -4.2097   21.1007 F   0  0  0  0  0  0
  -21.5690   -3.4518   25.7779 F   0  0  0  0  0  0
  -30.0242  -13.2369   20.4554 N   0  0  0  0  0  0
  -26.2947  -12.9123   20.3277 N   0  0  0  0  0  0
  -25.9208  -11.6312   20.5702 N   0  0  0  0  0  0
  -22.0416  -12.8228   22.0377 N   0  0  0  0  0  0
  -25.4351  -15.1673   20.4065 N   0  0  0  0  0  0
  -31.7208  -14.7026   20.0326 O   0  0  0  0  0  0
  -21.6552   -6.8789   21.4233 O   0  0  0  0  0  0
  -22.3590  -14.5559   20.6636 O   0  0  0  0  0  0
  -24.6120  -31.8651   23.2097 C   0  0  0  0  0  0
  -25.8984  -32.4813   23.8389 C   0  0  1  0  0  0
  -27.2371  -27.4369   20.1243 C   0  0  0  0  0  0
  -25.5881  -33.8634   24.2333 N   0  0  0  0  0  0
  -23.3984  -30.4776   21.5500 C   0  0  2  0  0  0
  -24.8507  -28.9459   20.1247 C   0  0  0  0  0  0
  -22.7332  -29.4634   22.5058 C   0  0  0  0  0  0
  -18.0241  -28.1386   22.8497 C   0  0  0  0  0  0
  -24.1497  -36.7315   23.2634 C   0  0  0  0  0  0
  -25.9236  -30.8432   21.3584 C   0  0  0  0  0  0
  -26.0036  -29.4671   20.7272 C   0  0  0  0  0  0
  -27.1979  -28.7126   20.7296 C   0  0  0  0  0  0
  -26.0821  -26.9524   19.4841 C   0  0  0  0  0  0
  -24.8784  -27.6832   19.5076 C   0  0  0  0  0  0
  -23.6093  -29.8111   20.1615 C   0  0  0  0  0  0
  -25.4115  -36.3112   24.0342 C   0  0  1  0  0  0
  -20.5759  -28.3586   23.1283 C   0  0  2  0  0  0
  -20.6603  -26.9286   22.5394 C   0  0  0  0  0  0
  -19.5648  -26.6410   21.5121 C   0  0  0  0  0  0
  -18.1845  -26.7999   22.1560 C   0  0  0  0  0  0
  -19.1531  -28.8817   23.2870 C   0  0  0  0  0  0
  -18.9604  -30.1507   23.8828 C   0  0  0  0  0  0
  -17.6605  -30.6667   24.0502 C   0  0  0  0  0  0
  -25.9021  -34.9487   23.5118 C   0  0  0  0  0  0
  -16.5516  -29.9096   23.6434 C   0  0  0  0  0  0
  -16.7276  -28.6529   23.0471 C   0  0  0  0  0  0
  -26.4458  -31.6588   25.0707 C   0  0  0  0  0  0
  -25.3700  -31.3690   26.1426 C   0  0  0  0  0  0
  -27.0291  -30.3042   24.6067 C   0  0  0  0  0  0
  -27.6042  -32.4291   25.7465 C   0  0  0  0  0  0
  -27.5591  -37.1800   24.8461 C   0  0  0  0  0  0
  -21.4104  -29.2952   22.3675 N   0  0  0  0  0  0
  -26.4302  -37.3800   23.9384 N   0  0  0  0  0  0
  -24.6577  -31.0808   22.0941 N   0  0  0  0  0  0
  -23.4059  -28.8290   23.3204 O   0  0  0  0  0  0
  -28.4315  -26.7650   20.0249 O   0  0  0  0  0  0
  -26.5613  -34.8929   22.4704 O   0  0  0  0  0  0
  -23.5317  -32.1396   23.7472 O   0  0  0  0  0  0
  -28.6701  -17.7253   20.5234 C   0  0  0  0  0  0
  -27.4219  -17.9942   19.9977 C   0  0  0  0  0  0
  -28.2825  -19.7735   21.5083 C   0  0  0  0  0  0
  -28.7592  -25.6098   20.7091 C   0  0  0  0  0  0
  -28.1460  -22.0628   21.5724 C   0  0  0  0  0  0
  -27.9793  -24.6339   21.2264 C   0  0  0  0  0  0
  -28.6467  -23.4641   21.8697 C   0  0  0  0  0  0
  -30.6115  -18.2956   18.3841 C   0  0  0  0  0  0
  -29.6422  -16.6799   20.0048 C   0  0  2  0  0  0
  -29.1142  -18.7274   21.4059 N   0  0  0  0  0  0
  -28.6023  -20.9703   22.0716 N   0  0  0  0  0  0
  -26.7341  -17.3247   18.9919 N   0  0  0  0  0  0
  -29.7636  -15.4596   20.8253 N   0  0  0  0  0  0
  -30.8486  -17.3943   19.5416 N   0  3  0  0  0  0
  -29.6462  -23.6204   22.5876 O   0  0  0  0  0  0
  -26.6359  -24.6565   21.2196 O   0  0  0  0  0  0
  -26.7465  -19.4550   20.6626 S   0  0  0  0  0  0
  -31.4668  -12.4241   19.1021 H   0  0  0  0  0  0
  -30.3881  -11.2494   19.8003 H   0  0  0  0  0  0
  -29.7311  -11.7669   17.4154 H   0  0  0  0  0  0
  -29.6624  -13.4718   17.7815 H   0  0  0  0  0  0
  -27.7916  -11.2883   18.7802 H   0  0  0  0  0  0
  -27.3832  -12.6523   17.7801 H   0  0  0  0  0  0
  -27.7036  -14.2167   19.5743 H   0  0  0  0  0  0
  -28.6665  -11.8740   21.3110 H   0  0  0  0  0  0
  -28.4618  -13.4924   21.8840 H   0  0  0  0  0  0
  -25.2639   -9.5500   22.4860 H   0  0  0  0  0  0
  -23.9855   -7.4449   22.7442 H   0  0  0  0  0  0
  -21.0821   -8.8725   19.8860 H   0  0  0  0  0  0
  -22.3691  -10.9612   19.6228 H   0  0  0  0  0  0
  -21.1898   -7.6092   23.9765 H   0  0  0  0  0  0
  -21.1590   -6.0473   25.9142 H   0  0  0  0  0  0
  -22.0539   -2.7564   23.2939 H   0  0  0  0  0  0
  -22.3950  -11.9930   22.4830 H   0  0  0  0  0  0
  -21.1083  -13.1350   22.2610 H   0  0  0  0  0  0
  -24.6790  -15.8323   20.5198 H   0  0  0  0  0  0
  -26.2440  -15.6122   19.9674 H   0  0  0  0  0  0
  -26.7067  -32.5553   23.1164 H   0  0  0  0  0  0
  -25.0022  -33.9785   25.0469 H   0  0  0  0  0  0
  -22.6798  -31.2904   21.4000 H   0  0  0  0  0  0
  -23.3751  -35.9642   23.3294 H   0  0  0  0  0  0
  -24.3566  -36.8934   22.2038 H   0  0  0  0  0  0
  -23.7257  -37.6526   23.6656 H   0  0  0  0  0  0
  -26.0319  -31.6066   20.5883 H   0  0  0  0  0  0
  -26.8140  -30.8976   21.9792 H   0  0  0  0  0  0
  -28.0931  -29.1123   21.1806 H   0  0  0  0  0  0
  -26.1213  -26.0066   18.9665 H   0  0  0  0  0  0
  -23.9959  -27.2766   19.0251 H   0  0  0  0  0  0
  -23.7266  -30.5778   19.3956 H   0  0  0  0  0  0
  -22.7432  -29.2245   19.8665 H   0  0  0  0  0  0
  -25.1283  -36.1967   25.0847 H   0  0  0  0  0  0
  -20.9732  -28.3246   24.1429 H   0  0  0  0  0  0
  -20.5365  -26.2229   23.3606 H   0  0  0  0  0  0
  -21.6518  -26.7193   22.1349 H   0  0  0  0  0  0
  -19.6480  -27.3284   20.6774 H   0  0  0  0  0  0
  -19.6837  -25.6300   21.1080 H   0  0  0  0  0  0
  -17.3976  -26.6696   21.4048 H   0  0  0  0  0  0
  -18.0240  -26.0165   22.8889 H   0  0  0  0  0  0
  -19.8157  -30.7204   24.2195 H   0  0  0  0  0  0
  -17.5237  -31.6392   24.5009 H   0  0  0  0  0  0
  -15.5572  -30.3019   23.7728 H   0  0  0  0  0  0
  -15.8634  -28.0881   22.7180 H   0  0  0  0  0  0
  -24.5886  -30.7043   25.7754 H   0  0  0  0  0  0
  -24.8902  -32.2863   26.4875 H   0  0  0  0  0  0
  -25.8045  -30.8851   27.0194 H   0  0  0  0  0  0
  -26.2887  -29.6784   24.1129 H   0  0  0  0  0  0
  -27.4069  -29.7278   25.4525 H   0  0  0  0  0  0
  -27.8685  -30.4335   23.9230 H   0  0  0  0  0  0
  -27.2675  -33.3578   26.2092 H   0  0  0  0  0  0
  -28.3860  -32.6866   25.0302 H   0  0  0  0  0  0
  -28.0715  -31.8369   26.5353 H   0  0  0  0  0  0
  -28.2606  -38.0118   24.7516 H   0  0  0  0  0  0
  -28.1093  -36.2626   24.6268 H   0  0  0  0  0  0
  -27.2279  -37.1440   25.8868 H   0  0  0  0  0  0
  -20.9356  -29.8344   21.6576 H   0  0  0  0  0  0
  -26.0180  -38.2872   24.1411 H   0  0  0  0  0  0
  -29.8325  -25.5458   20.7702 H   0  0  0  0  0  0
  -27.3340  -22.0392   20.8333 H   0  0  0  0  0  0
  -30.1718  -17.7333   17.5597 H   0  0  0  0  0  0
  -31.5468  -18.7316   18.0435 H   0  0  0  0  0  0
  -29.9255  -19.1171   18.5975 H   0  0  0  0  0  0
  -29.2118  -16.2684   19.0910 H   0  0  0  0  0  0
  -26.8665  -17.7032   18.0597 H   0  0  0  0  0  0
  -25.7298  -17.3962   19.1293 H   0  0  0  0  0  0
  -28.9047  -15.1792   21.2746 H   0  0  0  0  0  0
  -31.2150  -17.9155   20.3228 H   0  0  0  0  0  0
  -31.5383  -16.7016   19.2899 H   0  0  0  0  0  0
  -26.3406  -24.0693   21.9106 H   0  0  0  0  0  0
  1 25  1  0  0  0
  1 30  2  0  0  0
  1 83  1  0  0  0
  2  3  1  0  0  0
  2 25  1  0  0  0
  2 88  1  0  0  0
  2 89  1  0  0  0
  3  4  1  0  0  0
  3 90  1  0  0  0
  3 91  1  0  0  0
  4  5  1  0  0  0
  4 92  1  0  0  0
  4 93  1  0  0  0
  5  6  1  0  0  0
  5 26  1  0  0  0
  5 94  1  0  0  0
  6 25  1  0  0  0
  6 95  1  0  0  0
  6 96  1  0  0  0
  7  8  2  0  0  0
  7 26  1  0  0  0
  7 29  1  0  0  0
  8  9  1  0  0  0
  8 22  1  0  0  0
  9 10  1  0  0  0
  9 27  2  0  0  0
 10 11  2  0  0  0
 10 15  1  0  0  0
 11 12  1  0  0  0
 11 97  1  0  0  0
 12 13  2  0  0  0
 12 98  1  0  0  0
 13 14  1  0  0  0
 13 31  1  0  0  0
 14 15  2  0  0  0
 14 99  1  0  0  0
 15100  1  0  0  0
 16 17  2  0  0  0
 16 21  1  0  0  0
 16 31  1  0  0  0
 17 18  1  0  0  0
 17101  1  0  0  0
 18 19  2  0  0  0
 18102  1  0  0  0
 19 20  1  0  0  0
 19 24  1  0  0  0
 20 21  2  0  0  0
 20103  1  0  0  0
 21 23  1  0  0  0
 22 28  1  0  0  0
 22 32  2  0  0  0
 26 27  1  0  0  0
 28104  1  0  0  0
 28105  1  0  0  0
 29106  1  0  0  0
 29107  1  0  0  0
 33 34  1  0  0  0
 33 66  1  0  0  0
 33 70  2  0  0  0
 34 36  1  0  0  0
 34 59  1  0  0  0
 34108  1  0  0  0
 35 44  2  0  0  0
 35 45  1  0  0  0
 35 68  1  0  0  0
 36 56  1  0  0  0
 36109  1  0  0  0
 37 39  1  0  0  0
 37 47  1  0  0  0
 37 66  1  0  0  0
 37110  1  0  0  0
 38 43  2  0  0  0
 38 46  1  0  0  0
 38 47  1  0  0  0
 39 64  1  0  0  0
 39 67  2  0  0  0
 40 52  1  0  0  0
 40 53  2  0  0  0
 40 58  1  0  0  0
 41111  1  0  0  0
 41112  1  0  0  0
 41113  1  0  0  0
 41 48  1  0  0  0
 42 43  1  0  0  0
 42 66  1  0  0  0
 42114  1  0  0  0
 42115  1  0  0  0
 43 44  1  0  0  0
 44116  1  0  0  0
 45 46  2  0  0  0
 45117  1  0  0  0
 46118  1  0  0  0
 47119  1  0  0  0
 47120  1  0  0  0
 48 56  1  0  0  0
 48 65  1  0  0  0
 48121  1  0  0  0
 49 50  1  0  0  0
 49 53  1  0  0  0
 49 64  1  0  0  0
 49122  1  0  0  0
 50 51  1  0  0  0
 50123  1  0  0  0
 50124  1  0  0  0
 51 52  1  0  0  0
 51125  1  0  0  0
 51126  1  0  0  0
 52127  1  0  0  0
 52128  1  0  0  0
 53 54  1  0  0  0
 54 55  2  0  0  0
 54129  1  0  0  0
 55 57  1  0  0  0
 55130  1  0  0  0
 56 69  2  0  0  0
 57 58  2  0  0  0
 57131  1  0  0  0
 58132  1  0  0  0
 59 60  1  0  0  0
 59 61  1  0  0  0
 59 62  1  0  0  0
 60133  1  0  0  0
 60134  1  0  0  0
 60135  1  0  0  0
 61136  1  0  0  0
 61137  1  0  0  0
 61138  1  0  0  0
 62139  1  0  0  0
 62140  1  0  0  0
 62141  1  0  0  0
 63 65  1  0  0  0
 63142  1  0  0  0
 63143  1  0  0  0
 63144  1  0  0  0
 64145  1  0  0  0
 65146  1  0  0  0
 68 74  1  0  0  0
 71 72  2  0  0  0
 71 79  1  0  0  0
 71 80  1  0  0  0
 72 82  1  0  0  0
 72 87  1  0  0  0
 73 80  2  0  0  0
 73 81  1  0  0  0
 73 87  1  0  0  0
 74 76  2  0  0  0
 74147  1  0  0  0
 75 77  1  0  0  0
 75 81  2  0  0  0
 75148  1  0  0  0
 76 77  1  0  0  0
 76 86  1  0  0  0
 77 85  2  0  0  0
 78 84  1  0  0  0
 78149  1  0  0  0
 78150  1  0  0  0
 78151  1  0  0  0
 79 83  1  0  0  0
 79 84  1  0  0  0
 79152  1  0  0  0
 82153  1  0  0  0
 82154  1  0  0  0
 83155  1  0  0  0
 84156  1  0  0  0
 84157  1  0  0  0
 86158  1  0  0  0
M  CHG  1  84   1
M  ISO  4   1 100  68 101  74 101  83 100
M  END
> <chiral flag>
0

> <version>
0

> <s_m_source_file>
/data/baiqing/PycharmProjects/Reinvent-master-3.2/result/LINK_invent/BTK/process_docking_weight1_custom_product_contain_oxygen_bond_distance_aromatic_linkinvent_7_9_3/rearranged_h_0164.sdf

> <i_m_source_file_index>
3

> <r_mmod_Potential_Energy-OPLS-2005>
-207.303024291992

> <r_mmod_Stretch_Energy-OPLS-2005>
37.5485916137695

> <r_mmod_Bend_Energy-OPLS-2005>
134.49089050293

> <r_mmod_Torsional_Energy-OPLS-2005>
285.257171630859

> <r_mmod_Improper_Torsional_Energy-OPLS-2005>
21.495885848999

> <r_mmod_Van_der_Waal_Energy-OPLS-2005>
149.559860229492

> <r_mmod_Electrostatic_Energy-OPLS-2005>
-387.988220214844

> <r_mmod_Solvation_Energy-OPLS-2005>
-462.748168945312

> <b_mmod_Minimization_Converged-OPLS-2005>
0

> <r_mmod_RMS_Derivative-OPLS-2005>
13.0788812637329

$$$$
3
                    3D
 Structure written by MMmdl.
163172  0  0  1  0            999 V2000
  -30.6647  -14.5449   20.5227 C   0  0  0  0  0  0
  -30.4293  -12.3400   19.4254 C   0  0  0  0  0  0
  -29.4900  -12.4671   18.2079 C   0  0  0  0  0  0
  -28.0211  -12.3042   18.6375 C   0  0  0  0  0  0
  -27.6504  -13.1952   19.8494 C   0  0  2  0  0  0
  -28.6953  -13.0449   20.9772 C   0  0  0  0  0  0
  -25.2580  -13.8126   20.5652 C   0  0  0  0  0  0
  -24.1828  -13.0423   20.9175 C   0  0  0  0  0  0
  -24.6354  -11.6882   20.8721 C   0  0  0  0  0  0
  -23.8999  -10.4285   21.0396 C   0  0  0  0  0  0
  -24.3556   -9.4216   21.9178 C   0  0  0  0  0  0
  -23.6264   -8.2223   22.0732 C   0  0  0  0  0  0
  -22.4248   -8.0248   21.3524 C   0  0  0  0  0  0
  -21.9862   -9.0225   20.4635 C   0  0  0  0  0  0
  -22.7167  -10.2120   20.3064 C   0  0  0  0  0  0
  -21.6858   -6.0715   22.5274 C   0  0  0  0  0  0
  -21.4018   -6.5619   23.8205 C   0  0  0  0  0  0
  -21.3655   -5.6778   24.9165 C   0  0  0  0  0  0
  -21.6047   -4.3043   24.7219 C   0  0  0  0  0  0
  -21.8832   -3.8124   23.4346 C   0  0  0  0  0  0
  -21.9187   -4.6937   22.3395 C   0  0  0  0  0  0
  -22.7867  -13.5247   21.1860 C   0  0  0  0  0  0
  -22.1670   -4.2135   21.0979 F   0  0  0  0  0  0
  -21.5623   -3.4523   25.7730 F   0  0  0  0  0  0
  -30.0156  -13.3534   20.4079 N   0  0  0  0  0  0
  -26.2964  -12.9255   20.3245 N   0  0  0  0  0  0
  -25.9268  -11.6432   20.5723 N   0  0  0  0  0  0
  -22.0511  -12.8256   22.0415 N   0  0  0  0  0  0
  -25.4366  -15.1835   20.4040 N   0  0  0  0  0  0
  -31.8405  -14.6954   20.1829 O   0  0  0  0  0  0
  -21.6622   -6.8850   21.4235 O   0  0  0  0  0  0
  -22.3578  -14.5585   20.6757 O   0  0  0  0  0  0
  -24.6168  -31.8630   23.2086 C   0  0  0  0  0  0
  -25.9046  -32.4792   23.8389 C   0  0  1  0  0  0
  -27.2374  -27.3967   20.0990 C   0  0  0  0  0  0
  -25.5882  -33.8600   24.2320 N   0  0  0  0  0  0
  -23.4065  -30.4873   21.5478 C   0  0  2  0  0  0
  -24.8540  -28.9499   20.1096 C   0  0  0  0  0  0
  -22.7424  -29.4615   22.4958 C   0  0  0  0  0  0
  -18.0271  -28.1358   22.8464 C   0  0  0  0  0  0
  -24.1482  -36.7323   23.2627 C   0  0  0  0  0  0
  -25.9383  -30.8182   21.3668 C   0  0  0  0  0  0
  -26.0135  -29.4500   20.7100 C   0  0  0  0  0  0
  -27.2033  -28.6808   20.7006 C   0  0  0  0  0  0
  -26.0493  -26.9135   19.5003 C   0  0  0  0  0  0
  -24.8690  -27.6830   19.4990 C   0  0  0  0  0  0
  -23.6163  -29.8192   20.1605 C   0  0  0  0  0  0
  -25.4094  -36.3099   24.0332 C   0  0  1  0  0  0
  -20.5858  -28.3637   23.1302 C   0  0  2  0  0  0
  -20.6729  -26.9354   22.5433 C   0  0  0  0  0  0
  -19.5730  -26.6356   21.5195 C   0  0  0  0  0  0
  -18.1904  -26.7906   22.1579 C   0  0  0  0  0  0
  -19.1517  -28.8821   23.2882 C   0  0  0  0  0  0
  -18.9446  -30.1423   23.8900 C   0  0  0  0  0  0
  -17.6443  -30.6554   24.0551 C   0  0  0  0  0  0
  -25.9019  -34.9460   23.5127 C   0  0  0  0  0  0
  -16.5338  -29.9047   23.6308 C   0  0  0  0  0  0
  -16.7260  -28.6469   23.0329 C   0  0  0  0  0  0
  -26.4457  -31.6591   25.0745 C   0  0  0  0  0  0
  -25.3735  -31.3796   26.1531 C   0  0  0  0  0  0
  -27.0200  -30.2977   24.6178 C   0  0  0  0  0  0
  -27.6064  -32.4289   25.7476 C   0  0  0  0  0  0
  -27.5596  -37.1787   24.8431 C   0  0  0  0  0  0
  -21.4144  -29.3009   22.3720 N   0  0  0  0  0  0
  -26.4283  -37.3785   23.9421 N   0  0  0  0  0  0
  -24.6718  -31.0719   22.0989 N   0  0  0  0  0  0
  -23.4200  -28.8119   23.2975 O   0  0  0  0  0  0
  -28.4164  -26.6656   20.1505 O   0  0  0  0  0  0
  -26.5579  -34.8915   22.4698 O   0  0  0  0  0  0
  -23.5351  -32.1383   23.7471 O   0  0  0  0  0  0
  -30.9998  -19.4267   21.9600 C   0  0  0  0  0  0
  -30.9756  -17.1439   22.2967 C   0  0  0  0  0  0
  -30.2809  -19.2873   20.7485 C   0  0  0  0  0  0
  -30.2513  -16.9452   21.0961 C   0  0  0  0  0  0
  -30.0213  -20.1927   18.3172 C   0  0  0  0  0  0
  -28.6449  -24.1424   20.2039 C   0  0  0  0  0  0
  -28.6260  -19.7774   17.8746 C   0  0  0  0  0  0
  -27.5565  -20.7625   18.3851 C   0  0  0  0  0  0
  -27.7295  -21.1076   19.8818 C   0  0  0  0  0  0
  -30.1383  -20.5334   19.8116 C   0  0  1  0  0  0
  -29.4262  -22.9436   19.5899 C   0  0  0  0  0  0
  -28.6049  -25.4578   19.3685 C   0  0  0  0  0  0
  -31.3358  -18.3717   22.7382 N   0  0  0  0  0  0
  -29.8797  -18.0339   20.3440 N   0  0  0  0  0  0
  -30.9895  -20.3002   17.5055 N   0  0  0  0  0  0
  -29.8607  -15.6060   20.7833 N   0  0  0  0  0  0
  -29.1115  -21.5838   20.1831 N   0  3  1  0  0  0
  -28.0986  -24.0515   21.3103 O   0  0  0  0  0  0
  -31.4678  -12.4575   19.1133 H   0  0  0  0  0  0
  -30.3548  -11.3466   19.8675 H   0  0  0  0  0  0
  -29.7397  -11.7133   17.4596 H   0  0  0  0  0  0
  -29.6294  -13.4339   17.7265 H   0  0  0  0  0  0
  -27.8748  -11.2558   18.8985 H   0  0  0  0  0  0
  -27.3532  -12.5017   17.7980 H   0  0  0  0  0  0
  -27.6766  -14.2226   19.4906 H   0  0  0  0  0  0
  -28.6892  -12.0292   21.3741 H   0  0  0  0  0  0
  -28.4519  -13.6959   21.8192 H   0  0  0  0  0  0
  -25.2694   -9.5722   22.4746 H   0  0  0  0  0  0
  -23.9988   -7.4620   22.7452 H   0  0  0  0  0  0
  -21.0777   -8.8730   19.8941 H   0  0  0  0  0  0
  -22.3589  -10.9645   19.6186 H   0  0  0  0  0  0
  -21.2016   -7.6125   23.9705 H   0  0  0  0  0  0
  -21.1481   -6.0503   25.9069 H   0  0  0  0  0  0
  -22.0612   -2.7589   23.2857 H   0  0  0  0  0  0
  -22.4076  -11.9869   22.4763 H   0  0  0  0  0  0
  -21.1160  -13.1344   22.2655 H   0  0  0  0  0  0
  -24.6747  -15.8445   20.5056 H   0  0  0  0  0  0
  -26.2783  -15.6048   20.0342 H   0  0  0  0  0  0
  -26.7118  -32.5491   23.1145 H   0  0  0  0  0  0
  -25.0038  -33.9750   25.0469 H   0  0  0  0  0  0
  -22.6961  -31.3046   21.4083 H   0  0  0  0  0  0
  -23.3740  -35.9653   23.3249 H   0  0  0  0  0  0
  -24.3586  -36.8991   22.2053 H   0  0  0  0  0  0
  -23.7230  -37.6518   23.6676 H   0  0  0  0  0  0
  -26.0617  -31.5864   20.6014 H   0  0  0  0  0  0
  -26.8216  -30.8660   21.9927 H   0  0  0  0  0  0
  -28.0985  -29.0674   21.1669 H   0  0  0  0  0  0
  -25.9979  -25.9340   19.0493 H   0  0  0  0  0  0
  -23.9745  -27.2917   19.0355 H   0  0  0  0  0  0
  -23.7211  -30.5942   19.3997 H   0  0  0  0  0  0
  -22.7396  -29.2385   19.8663 H   0  0  0  0  0  0
  -25.1258  -36.1958   25.0824 H   0  0  0  0  0  0
  -20.9952  -28.3202   24.1422 H   0  0  0  0  0  0
  -20.5521  -26.2256   23.3623 H   0  0  0  0  0  0
  -21.6617  -26.7305   22.1303 H   0  0  0  0  0  0
  -19.6871  -25.6262   21.1222 H   0  0  0  0  0  0
  -19.6696  -27.3163   20.6715 H   0  0  0  0  0  0
  -17.4180  -26.6675   21.3979 H   0  0  0  0  0  0
  -18.0280  -26.0051   22.8967 H   0  0  0  0  0  0
  -19.7925  -30.7227   24.2281 H   0  0  0  0  0  0
  -17.4995  -31.6242   24.5142 H   0  0  0  0  0  0
  -15.5330  -30.2939   23.7636 H   0  0  0  0  0  0
  -15.8668  -28.0785   22.7035 H   0  0  0  0  0  0
  -24.5950  -30.7027   25.8001 H   0  0  0  0  0  0
  -24.8862  -32.2973   26.4840 H   0  0  0  0  0  0
  -25.8128  -30.9166   27.0376 H   0  0  0  0  0  0
  -26.2718  -29.6826   24.1164 H   0  0  0  0  0  0
  -27.3788  -29.7167   25.4687 H   0  0  0  0  0  0
  -27.8665  -30.4193   23.9416 H   0  0  0  0  0  0
  -27.2703  -33.3581   26.2093 H   0  0  0  0  0  0
  -28.3842  -32.6856   25.0271 H   0  0  0  0  0  0
  -28.0756  -31.8383   26.5357 H   0  0  0  0  0  0
  -28.2587  -38.0110   24.7504 H   0  0  0  0  0  0
  -28.1115  -36.2649   24.6172 H   0  0  0  0  0  0
  -27.2347  -37.1359   25.8841 H   0  0  0  0  0  0
  -20.9292  -29.8823   21.7028 H   0  0  0  0  0  0
  -26.0173  -38.2859   24.1460 H   0  0  0  0  0  0
  -31.3479  -20.3940   22.2917 H   0  0  0  0  0  0
  -31.2388  -16.3107   22.9347 H   0  0  0  0  0  0
  -28.4199  -18.7781   18.2532 H   0  0  0  0  0  0
  -28.5791  -19.7028   16.7887 H   0  0  0  0  0  0
  -26.5656  -20.3386   18.2236 H   0  0  0  0  0  0
  -27.5776  -21.6759   17.7894 H   0  0  0  0  0  0
  -27.5182  -20.2251   20.4850 H   0  0  0  0  0  0
  -26.9850  -21.8460   20.1790 H   0  0  0  0  0  0
  -31.1051  -21.0280   19.9277 H   0  0  0  0  0  0
  -30.4808  -23.1626   19.7541 H   0  0  0  0  0  0
  -29.2813  -22.9480   18.5109 H   0  0  0  0  0  0
  -27.8845  -25.3581   18.5592 H   0  0  0  0  0  0
  -29.5730  -25.5517   18.8774 H   0  0  0  0  0  0
  -30.7229  -20.0539   16.5577 H   0  0  0  0  0  0
  -28.8765  -15.4063   20.8458 H   0  0  0  0  0  0
  -29.1669  -21.7147   21.1814 H   0  0  0  0  0  0
  1 25  1  0  0  0
  1 30  2  0  0  0
  1 86  1  0  0  0
  2  3  1  0  0  0
  2 25  1  0  0  0
  2 89  1  0  0  0
  2 90  1  0  0  0
  3  4  1  0  0  0
  3 91  1  0  0  0
  3 92  1  0  0  0
  4  5  1  0  0  0
  4 93  1  0  0  0
  4 94  1  0  0  0
  5  6  1  0  0  0
  5 26  1  0  0  0
  5 95  1  0  0  0
  6 25  1  0  0  0
  6 96  1  0  0  0
  6 97  1  0  0  0
  7  8  2  0  0  0
  7 26  1  0  0  0
  7 29  1  0  0  0
  8  9  1  0  0  0
  8 22  1  0  0  0
  9 10  1  0  0  0
  9 27  2  0  0  0
 10 11  2  0  0  0
 10 15  1  0  0  0
 11 12  1  0  0  0
 11 98  1  0  0  0
 12 13  2  0  0  0
 12 99  1  0  0  0
 13 14  1  0  0  0
 13 31  1  0  0  0
 14 15  2  0  0  0
 14100  1  0  0  0
 15101  1  0  0  0
 16 17  2  0  0  0
 16 21  1  0  0  0
 16 31  1  0  0  0
 17 18  1  0  0  0
 17102  1  0  0  0
 18 19  2  0  0  0
 18103  1  0  0  0
 19 20  1  0  0  0
 19 24  1  0  0  0
 20 21  2  0  0  0
 20104  1  0  0  0
 21 23  1  0  0  0
 22 28  1  0  0  0
 22 32  2  0  0  0
 26 27  1  0  0  0
 28105  1  0  0  0
 28106  1  0  0  0
 29107  1  0  0  0
 29108  1  0  0  0
 33 34  1  0  0  0
 33 66  1  0  0  0
 33 70  2  0  0  0
 34 36  1  0  0  0
 34 59  1  0  0  0
 34109  1  0  0  0
 35 44  2  0  0  0
 35 45  1  0  0  0
 35 68  1  0  0  0
 36 56  1  0  0  0
 36110  1  0  0  0
 37 39  1  0  0  0
 37 47  1  0  0  0
 37 66  1  0  0  0
 37111  1  0  0  0
 38 43  2  0  0  0
 38 46  1  0  0  0
 38 47  1  0  0  0
 39 64  1  0  0  0
 39 67  2  0  0  0
 40 52  1  0  0  0
 40 53  2  0  0  0
 40 58  1  0  0  0
 41112  1  0  0  0
 41113  1  0  0  0
 41114  1  0  0  0
 41 48  1  0  0  0
 42 43  1  0  0  0
 42 66  1  0  0  0
 42115  1  0  0  0
 42116  1  0  0  0
 43 44  1  0  0  0
 44117  1  0  0  0
 45 46  2  0  0  0
 45118  1  0  0  0
 46119  1  0  0  0
 47120  1  0  0  0
 47121  1  0  0  0
 48 56  1  0  0  0
 48 65  1  0  0  0
 48122  1  0  0  0
 49 50  1  0  0  0
 49 53  1  0  0  0
 49 64  1  0  0  0
 49123  1  0  0  0
 50 51  1  0  0  0
 50124  1  0  0  0
 50125  1  0  0  0
 51 52  1  0  0  0
 51126  1  0  0  0
 51127  1  0  0  0
 52128  1  0  0  0
 52129  1  0  0  0
 53 54  1  0  0  0
 54 55  2  0  0  0
 54130  1  0  0  0
 55 57  1  0  0  0
 55131  1  0  0  0
 56 69  2  0  0  0
 57 58  2  0  0  0
 57132  1  0  0  0
 58133  1  0  0  0
 59 60  1  0  0  0
 59 61  1  0  0  0
 59 62  1  0  0  0
 60134  1  0  0  0
 60135  1  0  0  0
 60136  1  0  0  0
 61137  1  0  0  0
 61138  1  0  0  0
 61139  1  0  0  0
 62140  1  0  0  0
 62141  1  0  0  0
 62142  1  0  0  0
 63 65  1  0  0  0
 63143  1  0  0  0
 63144  1  0  0  0
 63145  1  0  0  0
 64146  1  0  0  0
 65147  1  0  0  0
 68 82  1  0  0  0
 71 73  2  0  0  0
 71 83  1  0  0  0
 71148  1  0  0  0
 72 74  1  0  0  0
 72 83  2  0  0  0
 72149  1  0  0  0
 73 84  1  0  0  0
 73 80  1  0  0  0
 74 84  2  0  0  0
 74 86  1  0  0  0
 75 77  1  0  0  0
 75 80  1  0  0  0
 75 85  2  0  0  0
 76 81  1  0  0  0
 76 82  1  0  0  0
 76 88  2  0  0  0
 77 78  1  0  0  0
 77150  1  0  0  0
 77151  1  0  0  0
 78 79  1  0  0  0
 78152  1  0  0  0
 78153  1  0  0  0
 79 87  1  0  0  0
 79154  1  0  0  0
 79155  1  0  0  0
 80 87  1  0  0  0
 80156  1  0  0  0
 81157  1  0  0  0
 81158  1  0  0  0
 81 87  1  0  0  0
 82159  1  0  0  0
 82160  1  0  0  0
 85161  1  0  0  0
 86162  1  0  0  0
 87163  1  0  0  0
M  CHG  1  87   1
M  ISO  4   1 100  68 101  82 101  86 100
M  END
> <chiral flag>
0

> <version>
0

> <s_m_source_file>
/data/baiqing/PycharmProjects/Reinvent-master-3.2/result/LINK_invent/BTK/process_docking_weight1_custom_product_contain_oxygen_bond_distance_aromatic_linkinvent_7_9_3/rearranged_h_0164.sdf

> <i_m_source_file_index>
4

> <r_mmod_Potential_Energy-OPLS-2005>
-190.962539672852

> <r_mmod_Stretch_Energy-OPLS-2005>
58.9947319030762

> <r_mmod_Bend_Energy-OPLS-2005>
126.226081848145

> <r_mmod_Torsional_Energy-OPLS-2005>
258.9638671875

> <r_mmod_Improper_Torsional_Energy-OPLS-2005>
7.31075239181519

> <r_mmod_Van_der_Waal_Energy-OPLS-2005>
161.704772949219

> <r_mmod_Electrostatic_Energy-OPLS-2005>
-326.389862060547

> <r_mmod_Solvation_Energy-OPLS-2005>
-503.986846923828

> <b_mmod_Minimization_Converged-OPLS-2005>
0

> <r_mmod_RMS_Derivative-OPLS-2005>
3.20203900337219

$$$$
4
                    3D
 Structure written by MMmdl.
159167  0  0  1  0            999 V2000
  -30.7055  -14.4395   20.5456 C   0  0  0  0  0  0
  -30.4206  -12.2689   19.4367 C   0  0  0  0  0  0
  -29.4999  -12.4787   18.2159 C   0  0  0  0  0  0
  -28.0172  -12.3631   18.6225 C   0  0  0  0  0  0
  -27.6649  -13.2045   19.8799 C   0  0  2  0  0  0
  -28.7038  -12.9778   21.0029 C   0  0  0  0  0  0
  -25.2588  -13.8172   20.5714 C   0  0  0  0  0  0
  -24.1821  -13.0451   20.9180 C   0  0  0  0  0  0
  -24.6373  -11.6915   20.8733 C   0  0  0  0  0  0
  -23.9047  -10.4296   21.0395 C   0  0  0  0  0  0
  -24.3603   -9.4213   21.9179 C   0  0  0  0  0  0
  -23.6274   -8.2245   22.0751 C   0  0  0  0  0  0
  -22.4258   -8.0283   21.3548 C   0  0  0  0  0  0
  -21.9886   -9.0261   20.4661 C   0  0  0  0  0  0
  -22.7211  -10.2137   20.3066 C   0  0  0  0  0  0
  -21.6847   -6.0744   22.5280 C   0  0  0  0  0  0
  -21.4017   -6.5645   23.8226 C   0  0  0  0  0  0
  -21.3661   -5.6796   24.9178 C   0  0  0  0  0  0
  -21.6036   -4.3055   24.7216 C   0  0  0  0  0  0
  -21.8820   -3.8154   23.4340 C   0  0  0  0  0  0
  -21.9187   -4.6973   22.3406 C   0  0  0  0  0  0
  -22.7846  -13.5268   21.1820 C   0  0  0  0  0  0
  -22.1650   -4.2173   21.0976 F   0  0  0  0  0  0
  -21.5618   -3.4538   25.7723 F   0  0  0  0  0  0
  -30.0399  -13.2589   20.4531 N   0  0  0  0  0  0
  -26.3033  -12.9341   20.3403 N   0  0  0  0  0  0
  -25.9308  -11.6505   20.5773 N   0  0  0  0  0  0
  -22.0465  -12.8311   22.0390 N   0  0  0  0  0  0
  -25.4308  -15.1891   20.4145 N   0  0  0  0  0  0
  -31.8372  -14.6148   20.0826 O   0  0  0  0  0  0
  -21.6626   -6.8875   21.4240 O   0  0  0  0  0  0
  -22.3567  -14.5574   20.6648 O   0  0  0  0  0  0
  -24.6119  -31.8687   23.2112 C   0  0  0  0  0  0
  -25.9016  -32.4827   23.8402 C   0  0  1  0  0  0
  -27.2406  -27.4584   20.0706 C   0  0  0  0  0  0
  -25.5875  -33.8624   24.2332 N   0  0  0  0  0  0
  -23.3993  -30.4918   21.5512 C   0  0  2  0  0  0
  -24.8454  -28.9606   20.1144 C   0  0  0  0  0  0
  -22.7391  -29.4659   22.4993 C   0  0  0  0  0  0
  -18.0268  -28.1382   22.8487 C   0  0  0  0  0  0
  -24.1481  -36.7322   23.2639 C   0  0  0  0  0  0
  -25.9251  -30.8374   21.3626 C   0  0  0  0  0  0
  -26.0025  -29.4726   20.7134 C   0  0  0  0  0  0
  -27.1979  -28.7209   20.7017 C   0  0  0  0  0  0
  -26.0576  -26.9468   19.4875 C   0  0  0  0  0  0
  -24.8652  -27.6942   19.5064 C   0  0  0  0  0  0
  -23.6071  -29.8245   20.1651 C   0  0  0  0  0  0
  -25.4101  -36.3110   24.0336 C   0  0  1  0  0  0
  -20.5857  -28.3661   23.1328 C   0  0  2  0  0  0
  -20.6748  -26.9399   22.5428 C   0  0  0  0  0  0
  -19.5738  -26.6389   21.5206 C   0  0  0  0  0  0
  -18.1919  -26.7930   22.1615 C   0  0  0  0  0  0
  -19.1521  -28.8840   23.2908 C   0  0  0  0  0  0
  -18.9452  -30.1441   23.8921 C   0  0  0  0  0  0
  -17.6457  -30.6585   24.0575 C   0  0  0  0  0  0
  -25.9031  -34.9478   23.5135 C   0  0  0  0  0  0
  -16.5350  -29.9095   23.6325 C   0  0  0  0  0  0
  -16.7267  -28.6511   23.0341 C   0  0  0  0  0  0
  -26.4471  -31.6594   25.0715 C   0  0  0  0  0  0
  -25.3761  -31.3691   26.1481 C   0  0  0  0  0  0
  -27.0289  -30.3041   24.6056 C   0  0  0  0  0  0
  -27.6056  -32.4313   25.7461 C   0  0  0  0  0  0
  -27.5579  -37.1811   24.8467 C   0  0  0  0  0  0
  -21.4123  -29.3034   22.3734 N   0  0  0  0  0  0
  -26.4290  -37.3795   23.9417 N   0  0  0  0  0  0
  -24.6639  -31.0796   22.1010 N   0  0  0  0  0  0
  -23.4171  -28.8200   23.3033 O   0  0  0  0  0  0
  -28.4241  -26.7534   20.0931 O   0  0  0  0  0  0
  -26.5596  -34.8928   22.4701 O   0  0  0  0  0  0
  -23.5316  -32.1443   23.7502 O   0  0  0  0  0  0
  -30.4128  -17.9148   21.4778 C   0  0  0  0  0  0
  -30.0443  -17.2420   19.3425 C   0  0  0  0  0  0
  -30.1490  -16.8063   20.6323 C   0  0  0  0  0  0
  -30.5047  -19.0207   20.6702 C   0  0  0  0  0  0
  -30.8489  -20.3978   20.9554 C   0  0  0  0  0  0
  -30.3142  -22.8159   20.6775 C   0  0  0  0  0  0
  -30.3232  -19.4361   18.1568 C   0  0  0  0  0  0
  -29.2409  -23.7588   20.1235 C   0  0  0  0  0  0
  -29.8410  -24.9461   19.3370 C   0  0  0  0  0  0
  -28.7958  -25.9996   18.9384 C   0  0  0  0  0  0
  -30.2814  -18.6084   19.3525 N   0  0  0  0  0  0
  -30.0021  -15.4620   21.0589 N   0  0  0  0  0  0
  -30.0462  -21.4111   20.5412 N   0  0  0  0  0  0
  -31.9809  -20.5939   21.6513 N   0  3  0  0  0  0
  -31.3530  -23.2374   21.2041 O   0  0  0  0  0  0
  -31.4698  -12.3486   19.1448 H   0  0  0  0  0  0
  -30.3024  -11.2611   19.8413 H   0  0  0  0  0  0
  -29.7307  -11.7406   17.4463 H   0  0  0  0  0  0
  -29.6886  -13.4565   17.7706 H   0  0  0  0  0  0
  -27.8126  -11.3096   18.8174 H   0  0  0  0  0  0
  -27.3745  -12.6472   17.7887 H   0  0  0  0  0  0
  -27.7150  -14.2530   19.5837 H   0  0  0  0  0  0
  -28.6637  -11.9463   21.3574 H   0  0  0  0  0  0
  -28.4751  -13.5871   21.8776 H   0  0  0  0  0  0
  -25.2743   -9.5693   22.4760 H   0  0  0  0  0  0
  -23.9986   -7.4645   22.7485 H   0  0  0  0  0  0
  -21.0808   -8.8797   19.8984 H   0  0  0  0  0  0
  -22.3663  -10.9684   19.6195 H   0  0  0  0  0  0
  -21.2024   -7.6157   23.9734 H   0  0  0  0  0  0
  -21.1472   -6.0517   25.9087 H   0  0  0  0  0  0
  -22.0589   -2.7616   23.2826 H   0  0  0  0  0  0
  -22.4041  -11.9996   22.4853 H   0  0  0  0  0  0
  -21.1109  -13.1404   22.2577 H   0  0  0  0  0  0
  -24.6663  -15.8431   20.5404 H   0  0  0  0  0  0
  -26.2879  -15.6321   20.1087 H   0  0  0  0  0  0
  -26.7078  -32.5546   23.1159 H   0  0  0  0  0  0
  -24.9985  -33.9783   25.0440 H   0  0  0  0  0  0
  -22.6891  -31.3094   21.4116 H   0  0  0  0  0  0
  -23.3727  -35.9671   23.3316 H   0  0  0  0  0  0
  -24.3575  -36.8925   22.2053 H   0  0  0  0  0  0
  -23.7249  -37.6537   23.6648 H   0  0  0  0  0  0
  -26.0298  -31.6025   20.5920 H   0  0  0  0  0  0
  -26.8153  -30.8955   21.9770 H   0  0  0  0  0  0
  -28.0924  -29.1107   21.1674 H   0  0  0  0  0  0
  -26.0241  -25.9672   19.0343 H   0  0  0  0  0  0
  -23.9696  -27.2891   19.0557 H   0  0  0  0  0  0
  -23.7155  -30.5976   19.4037 H   0  0  0  0  0  0
  -22.7322  -29.2426   19.8703 H   0  0  0  0  0  0
  -25.1271  -36.1980   25.0826 H   0  0  0  0  0  0
  -20.9952  -28.3226   24.1449 H   0  0  0  0  0  0
  -20.5624  -26.2273   23.3612 H   0  0  0  0  0  0
  -21.6628  -26.7429   22.1248 H   0  0  0  0  0  0
  -19.6902  -25.6304   21.1228 H   0  0  0  0  0  0
  -19.6685  -27.3205   20.6744 H   0  0  0  0  0  0
  -17.4187  -26.6685   21.4017 H   0  0  0  0  0  0
  -18.0326  -26.0067   22.9010 H   0  0  0  0  0  0
  -19.7933  -30.7249   24.2302 H   0  0  0  0  0  0
  -17.5023  -31.6268   24.5171 H   0  0  0  0  0  0
  -15.5355  -30.3018   23.7627 H   0  0  0  0  0  0
  -15.8659  -28.0850   22.7040 H   0  0  0  0  0  0
  -24.5909  -30.7062   25.7828 H   0  0  0  0  0  0
  -24.8979  -32.2844   26.4985 H   0  0  0  0  0  0
  -25.8136  -30.8824   27.0206 H   0  0  0  0  0  0
  -26.2811  -29.6806   24.1141 H   0  0  0  0  0  0
  -27.4105  -29.7274   25.4492 H   0  0  0  0  0  0
  -27.8633  -30.4367   23.9163 H   0  0  0  0  0  0
  -27.2670  -33.3578   26.2117 H   0  0  0  0  0  0
  -28.3816  -32.6938   25.0255 H   0  0  0  0  0  0
  -28.0788  -31.8398   26.5310 H   0  0  0  0  0  0
  -28.2606  -38.0098   24.7494 H   0  0  0  0  0  0
  -28.1060  -36.2629   24.6303 H   0  0  0  0  0  0
  -27.2303  -37.1486   25.8872 H   0  0  0  0  0  0
  -20.9271  -29.8789   21.6988 H   0  0  0  0  0  0
  -26.0176  -38.2873   24.1420 H   0  0  0  0  0  0
  -30.5561  -17.9069   22.5494 H   0  0  0  0  0  0
  -29.8514  -16.7097   18.4178 H   0  0  0  0  0  0
  -30.5839  -18.8312   17.2869 H   0  0  0  0  0  0
  -31.0738  -20.2201   18.2589 H   0  0  0  0  0  0
  -29.3484  -19.8939   17.9830 H   0  0  0  0  0  0
  -28.6644  -24.1287   20.9708 H   0  0  0  0  0  0
  -28.5445  -23.2062   19.4919 H   0  0  0  0  0  0
  -30.3132  -24.5632   18.4306 H   0  0  0  0  0  0
  -30.6360  -25.4285   19.9085 H   0  0  0  0  0  0
  -27.9703  -25.5018   18.4356 H   0  0  0  0  0  0
  -29.2311  -26.6895   18.2146 H   0  0  0  0  0  0
  -29.1429  -15.2222   21.5325 H   0  0  0  0  0  0
  -29.1921  -21.0821   20.1218 H   0  0  0  0  0  0
  -32.5669  -19.8155   21.9116 H   0  0  0  0  0  0
  -32.2819  -21.5365   21.8638 H   0  0  0  0  0  0
  1 25  1  0  0  0
  1 30  2  0  0  0
  1 82  1  0  0  0
  2  3  1  0  0  0
  2 25  1  0  0  0
  2 86  1  0  0  0
  2 87  1  0  0  0
  3  4  1  0  0  0
  3 88  1  0  0  0
  3 89  1  0  0  0
  4  5  1  0  0  0
  4 90  1  0  0  0
  4 91  1  0  0  0
  5  6  1  0  0  0
  5 26  1  0  0  0
  5 92  1  0  0  0
  6 25  1  0  0  0
  6 93  1  0  0  0
  6 94  1  0  0  0
  7  8  2  0  0  0
  7 26  1  0  0  0
  7 29  1  0  0  0
  8  9  1  0  0  0
  8 22  1  0  0  0
  9 10  1  0  0  0
  9 27  2  0  0  0
 10 11  2  0  0  0
 10 15  1  0  0  0
 11 12  1  0  0  0
 11 95  1  0  0  0
 12 13  2  0  0  0
 12 96  1  0  0  0
 13 14  1  0  0  0
 13 31  1  0  0  0
 14 15  2  0  0  0
 14 97  1  0  0  0
 15 98  1  0  0  0
 16 17  2  0  0  0
 16 21  1  0  0  0
 16 31  1  0  0  0
 17 18  1  0  0  0
 17 99  1  0  0  0
 18 19  2  0  0  0
 18100  1  0  0  0
 19 20  1  0  0  0
 19 24  1  0  0  0
 20 21  2  0  0  0
 20101  1  0  0  0
 21 23  1  0  0  0
 22 28  1  0  0  0
 22 32  2  0  0  0
 26 27  1  0  0  0
 28102  1  0  0  0
 28103  1  0  0  0
 29104  1  0  0  0
 29105  1  0  0  0
 33 34  1  0  0  0
 33 66  1  0  0  0
 33 70  2  0  0  0
 34 36  1  0  0  0
 34 59  1  0  0  0
 34106  1  0  0  0
 35 44  2  0  0  0
 35 45  1  0  0  0
 35 68  1  0  0  0
 36 56  1  0  0  0
 36107  1  0  0  0
 37 39  1  0  0  0
 37 47  1  0  0  0
 37 66  1  0  0  0
 37108  1  0  0  0
 38 43  2  0  0  0
 38 46  1  0  0  0
 38 47  1  0  0  0
 39 64  1  0  0  0
 39 67  2  0  0  0
 40 52  1  0  0  0
 40 53  2  0  0  0
 40 58  1  0  0  0
 41109  1  0  0  0
 41110  1  0  0  0
 41111  1  0  0  0
 41 48  1  0  0  0
 42 43  1  0  0  0
 42 66  1  0  0  0
 42112  1  0  0  0
 42113  1  0  0  0
 43 44  1  0  0  0
 44114  1  0  0  0
 45 46  2  0  0  0
 45115  1  0  0  0
 46116  1  0  0  0
 47117  1  0  0  0
 47118  1  0  0  0
 48 56  1  0  0  0
 48 65  1  0  0  0
 48119  1  0  0  0
 49 50  1  0  0  0
 49 53  1  0  0  0
 49 64  1  0  0  0
 49120  1  0  0  0
 50 51  1  0  0  0
 50121  1  0  0  0
 50122  1  0  0  0
 51 52  1  0  0  0
 51123  1  0  0  0
 51124  1  0  0  0
 52125  1  0  0  0
 52126  1  0  0  0
 53 54  1  0  0  0
 54 55  2  0  0  0
 54127  1  0  0  0
 55 57  1  0  0  0
 55128  1  0  0  0
 56 69  2  0  0  0
 57 58  2  0  0  0
 57129  1  0  0  0
 58130  1  0  0  0
 59 60  1  0  0  0
 59 61  1  0  0  0
 59 62  1  0  0  0
 60131  1  0  0  0
 60132  1  0  0  0
 60133  1  0  0  0
 61134  1  0  0  0
 61135  1  0  0  0
 61136  1  0  0  0
 62137  1  0  0  0
 62138  1  0  0  0
 62139  1  0  0  0
 63 65  1  0  0  0
 63140  1  0  0  0
 63141  1  0  0  0
 63142  1  0  0  0
 64143  1  0  0  0
 65144  1  0  0  0
 68 80  1  0  0  0
 71 73  1  0  0  0
 71 74  2  0  0  0
 71145  1  0  0  0
 72 73  2  0  0  0
 72 81  1  0  0  0
 72146  1  0  0  0
 73 82  1  0  0  0
 74 75  1  0  0  0
 74 81  1  0  0  0
 75 83  1  0  0  0
 75 84  2  0  0  0
 76 78  1  0  0  0
 76 83  1  0  0  0
 76 85  2  0  0  0
 77 81  1  0  0  0
 77147  1  0  0  0
 77148  1  0  0  0
 77149  1  0  0  0
 78 79  1  0  0  0
 78150  1  0  0  0
 78151  1  0  0  0
 79 80  1  0  0  0
 79152  1  0  0  0
 79153  1  0  0  0
 80154  1  0  0  0
 80155  1  0  0  0
 82156  1  0  0  0
 83157  1  0  0  0
 84158  1  0  0  0
 84159  1  0  0  0
M  CHG  1  84   1
M  ISO  4   1 100  68 101  80 101  82 100
M  END
> <chiral flag>
0

> <version>
0

> <s_m_source_file>
/data/baiqing/PycharmProjects/Reinvent-master-3.2/result/LINK_invent/BTK/process_docking_weight1_custom_product_contain_oxygen_bond_distance_aromatic_linkinvent_7_9_3/rearranged_h_0164.sdf

> <i_m_source_file_index>
5

> <r_mmod_Potential_Energy-OPLS-2005>
-261.947570800781

> <r_mmod_Stretch_Energy-OPLS-2005>
32.7266807556152

> <r_mmod_Bend_Energy-OPLS-2005>
111.264831542969

> <r_mmod_Torsional_Energy-OPLS-2005>
257.787200927734

> <r_mmod_Improper_Torsional_Energy-OPLS-2005>
4.47504997253418

> <r_mmod_Van_der_Waal_Energy-OPLS-2005>
139.257995605469

> <r_mmod_Electrostatic_Energy-OPLS-2005>
-342.318878173828

> <r_mmod_Solvation_Energy-OPLS-2005>
-476.629455566406

> <b_mmod_Minimization_Converged-OPLS-2005>
0

> <r_mmod_RMS_Derivative-OPLS-2005>
2.51336550712585

$$$$
5
                    3D
 Structure written by MMmdl.
176184  0  0  1  0            999 V2000
  -30.7435  -14.3955   20.5477 C   0  0  0  0  0  0
  -30.4132  -12.2533   19.4032 C   0  0  0  0  0  0
  -29.4842  -12.4744   18.1919 C   0  0  0  0  0  0
  -28.0076  -12.3543   18.6141 C   0  0  0  0  0  0
  -27.6682  -13.1980   19.8734 C   0  0  2  0  0  0
  -28.7141  -12.9645   20.9905 C   0  0  0  0  0  0
  -25.2645  -13.8157   20.5671 C   0  0  0  0  0  0
  -24.1877  -13.0437   20.9176 C   0  0  0  0  0  0
  -24.6418  -11.6906   20.8756 C   0  0  0  0  0  0
  -23.9078  -10.4294   21.0423 C   0  0  0  0  0  0
  -24.3621   -9.4203   21.9198 C   0  0  0  0  0  0
  -23.6286   -8.2247   22.0768 C   0  0  0  0  0  0
  -22.4278   -8.0293   21.3548 C   0  0  0  0  0  0
  -21.9918   -9.0273   20.4655 C   0  0  0  0  0  0
  -22.7257  -10.2148   20.3067 C   0  0  0  0  0  0
  -21.6843   -6.0743   22.5278 C   0  0  0  0  0  0
  -21.4011   -6.5644   23.8214 C   0  0  0  0  0  0
  -21.3647   -5.6787   24.9174 C   0  0  0  0  0  0
  -21.6048   -4.3052   24.7221 C   0  0  0  0  0  0
  -21.8818   -3.8154   23.4336 C   0  0  0  0  0  0
  -21.9193   -4.6975   22.3398 C   0  0  0  0  0  0
  -22.7912  -13.5259   21.1812 C   0  0  0  0  0  0
  -22.1659   -4.2164   21.0969 F   0  0  0  0  0  0
  -21.5626   -3.4537   25.7732 F   0  0  0  0  0  0
  -30.0485  -13.2365   20.4306 N   0  0  0  0  0  0
  -26.3067  -12.9302   20.3368 N   0  0  0  0  0  0
  -25.9339  -11.6473   20.5793 N   0  0  0  0  0  0
  -22.0519  -12.8276   22.0365 N   0  0  0  0  0  0
  -25.4377  -15.1866   20.4057 N   0  0  0  0  0  0
  -31.8560  -14.5721   20.0458 O   0  0  0  0  0  0
  -21.6630   -6.8899   21.4247 O   0  0  0  0  0  0
  -22.3615  -14.5542   20.6627 O   0  0  0  0  0  0
  -24.6105  -31.8747   23.2096 C   0  0  0  0  0  0
  -25.9007  -32.4846   23.8403 C   0  0  1  0  0  0
  -27.2315  -27.4846   20.1021 C   0  0  0  0  0  0
  -25.5874  -33.8650   24.2322 N   0  0  0  0  0  0
  -23.3940  -30.4925   21.5535 C   0  0  2  0  0  0
  -24.8387  -28.9811   20.0943 C   0  0  0  0  0  0
  -22.7422  -29.4661   22.5072 C   0  0  0  0  0  0
  -18.0243  -28.1360   22.8467 C   0  0  0  0  0  0
  -24.1513  -36.7347   23.2631 C   0  0  0  0  0  0
  -25.9139  -30.8756   21.3370 C   0  0  0  0  0  0
  -25.9978  -29.5195   20.6663 C   0  0  0  0  0  0
  -27.2019  -28.7929   20.6298 C   0  0  0  0  0  0
  -26.0682  -26.9697   19.4910 C   0  0  0  0  0  0
  -24.8703  -27.7095   19.4914 C   0  0  0  0  0  0
  -23.5906  -29.8272   20.1648 C   0  0  0  0  0  0
  -25.4145  -36.3128   24.0316 C   0  0  1  0  0  0
  -20.5860  -28.3636   23.1364 C   0  0  2  0  0  0
  -20.6761  -26.9383   22.5437 C   0  0  0  0  0  0
  -19.5749  -26.6377   21.5228 C   0  0  0  0  0  0
  -18.1903  -26.7895   22.1627 C   0  0  0  0  0  0
  -19.1507  -28.8816   23.2866 C   0  0  0  0  0  0
  -18.9469  -30.1410   23.8861 C   0  0  0  0  0  0
  -17.6489  -30.6556   24.0565 C   0  0  0  0  0  0
  -25.9084  -34.9495   23.5142 C   0  0  0  0  0  0
  -16.5352  -29.9073   23.6344 C   0  0  0  0  0  0
  -16.7253  -28.6514   23.0322 C   0  0  0  0  0  0
  -26.4445  -31.6592   25.0707 C   0  0  0  0  0  0
  -25.3704  -31.3698   26.1458 C   0  0  0  0  0  0
  -27.0286  -30.3031   24.6039 C   0  0  0  0  0  0
  -27.6012  -32.4337   25.7484 C   0  0  0  0  0  0
  -27.5601  -37.1806   24.8446 C   0  0  0  0  0  0
  -21.4166  -29.2976   22.3773 N   0  0  0  0  0  0
  -26.4340  -37.3786   23.9369 N   0  0  0  0  0  0
  -24.6580  -31.0901   22.0972 N   0  0  0  0  0  0
  -23.4191  -28.8207   23.3093 O   0  0  0  0  0  0
  -28.3418  -26.6781   20.2456 O   0  0  0  0  0  0
  -26.5686  -34.8939   22.4718 O   0  0  0  0  0  0
  -23.5311  -32.1498   23.7533 O   0  0  0  0  0  0
  -28.9703  -24.1625   24.6954 C   0  0  0  0  0  0
  -30.0849  -22.4673   23.3420 C   0  0  0  0  0  0
  -28.3496  -23.1640   25.4733 C   0  0  0  0  0  0
  -29.7961  -23.8279   23.5987 C   0  0  0  0  0  0
  -29.5532  -21.4609   24.1844 C   0  0  0  0  0  0
  -28.6752  -21.8130   25.2312 C   0  0  0  0  0  0
  -27.3679  -23.5414   26.5171 C   0  0  0  0  0  0
  -25.9776  -22.9561   26.2928 C   0  0  0  0  0  0
  -30.8547  -18.0310   23.1759 C   0  0  0  0  0  0
  -24.9682  -23.1070   27.4243 C   0  0  0  0  0  0
  -27.2178  -25.2106   21.8421 C   0  0  0  0  0  0
  -28.6791  -27.1610   22.6309 C   0  0  0  0  0  0
  -30.6240  -19.5311   22.9505 C   0  0  0  0  0  0
  -30.5026  -16.8123   20.9597 C   0  0  0  0  0  0
  -29.7377  -25.1232   21.5030 C   0  0  0  0  0  0
  -31.5192  -17.2566   22.0382 C   0  0  2  0  0  0
  -28.4866  -26.0567   21.5540 C   0  0  0  0  0  0
  -27.6881  -24.3095   27.4751 N   0  0  0  0  0  0
  -29.8660  -20.1009   24.0583 N   0  0  0  0  0  0
  -30.3484  -24.8506   22.8124 N   0  0  0  0  0  0
  -30.0691  -15.4166   21.0844 N   0  0  0  0  0  0
  -25.6351  -22.3854   25.2519 O   0  0  0  0  0  0
  -30.4907  -17.4756   24.2228 O   0  0  0  0  0  0
  -28.1657  -20.8307   26.0205 F   0  0  0  0  0  0
  -32.2087  -16.2174   22.5252 F   0  0  0  0  0  0
  -31.4591  -12.3231   19.0969 H   0  0  0  0  0  0
  -30.2927  -11.2424   19.7952 H   0  0  0  0  0  0
  -29.7064  -11.7422   17.4132 H   0  0  0  0  0  0
  -29.6660  -13.4554   17.7501 H   0  0  0  0  0  0
  -27.8112  -11.3001   18.8126 H   0  0  0  0  0  0
  -27.3554  -12.6309   17.7851 H   0  0  0  0  0  0
  -27.7180  -14.2451   19.5743 H   0  0  0  0  0  0
  -28.6734  -11.9286   21.3321 H   0  0  0  0  0  0
  -28.4930  -13.5720   21.8686 H   0  0  0  0  0  0
  -25.2762   -9.5672   22.4783 H   0  0  0  0  0  0
  -23.9982   -7.4642   22.7497 H   0  0  0  0  0  0
  -21.0847   -8.8809   19.8961 H   0  0  0  0  0  0
  -22.3725  -10.9698   19.6183 H   0  0  0  0  0  0
  -21.2000   -7.6155   23.9726 H   0  0  0  0  0  0
  -21.1469   -6.0516   25.9075 H   0  0  0  0  0  0
  -22.0610   -2.7622   23.2830 H   0  0  0  0  0  0
  -22.4107  -11.9941   22.4767 H   0  0  0  0  0  0
  -21.1150  -13.1363   22.2532 H   0  0  0  0  0  0
  -24.6680  -15.8409   20.4973 H   0  0  0  0  0  0
  -26.2886  -15.6221   20.0693 H   0  0  0  0  0  0
  -26.7096  -32.5601   23.1208 H   0  0  0  0  0  0
  -24.9827  -33.9815   25.0331 H   0  0  0  0  0  0
  -22.6793  -31.3061   21.4185 H   0  0  0  0  0  0
  -23.3773  -35.9677   23.3321 H   0  0  0  0  0  0
  -24.3548  -36.8994   22.2030 H   0  0  0  0  0  0
  -23.7331  -37.6562   23.6695 H   0  0  0  0  0  0
  -26.0072  -31.6655   20.5867 H   0  0  0  0  0  0
  -26.8079  -30.9299   21.9466 H   0  0  0  0  0  0
  -28.0951  -29.2162   21.0653 H   0  0  0  0  0  0
  -26.0811  -25.9768   19.0666 H   0  0  0  0  0  0
  -23.9755  -27.2923   19.0488 H   0  0  0  0  0  0
  -23.6653  -30.6069   19.4077 H   0  0  0  0  0  0
  -22.7203  -29.2291   19.8858 H   0  0  0  0  0  0
  -25.1317  -36.2002   25.0812 H   0  0  0  0  0  0
  -20.9867  -28.3226   24.1541 H   0  0  0  0  0  0
  -20.5741  -26.2256   23.3632 H   0  0  0  0  0  0
  -21.6633  -26.7501   22.1197 H   0  0  0  0  0  0
  -19.6972  -25.6303   21.1257 H   0  0  0  0  0  0
  -19.6700  -27.3217   20.6783 H   0  0  0  0  0  0
  -17.4197  -26.6644   21.3982 H   0  0  0  0  0  0
  -18.0216  -26.0032   22.9029 H   0  0  0  0  0  0
  -19.7965  -30.7151   24.2269 H   0  0  0  0  0  0
  -17.5085  -31.6255   24.5143 H   0  0  0  0  0  0
  -15.5357  -30.2958   23.7713 H   0  0  0  0  0  0
  -15.8664  -28.0833   22.7034 H   0  0  0  0  0  0
  -24.5892  -30.7039   25.7780 H   0  0  0  0  0  0
  -24.8848  -32.2828   26.4895 H   0  0  0  0  0  0
  -25.8032  -30.8876   27.0238 H   0  0  0  0  0  0
  -26.2814  -29.6755   24.1166 H   0  0  0  0  0  0
  -27.4142  -29.7288   25.4474 H   0  0  0  0  0  0
  -27.8594  -30.4319   23.9112 H   0  0  0  0  0  0
  -27.2585  -33.3626   26.2078 H   0  0  0  0  0  0
  -28.3789  -32.6959   25.0290 H   0  0  0  0  0  0
  -28.0719  -31.8482   26.5393 H   0  0  0  0  0  0
  -28.2596  -38.0118   24.7486 H   0  0  0  0  0  0
  -28.1133  -36.2650   24.6307 H   0  0  0  0  0  0
  -27.2279  -37.1461   25.8833 H   0  0  0  0  0  0
  -20.9404  -29.8624   21.6904 H   0  0  0  0  0  0
  -26.0272  -38.2881   24.1359 H   0  0  0  0  0  0
  -28.7538  -25.1910   24.9318 H   0  0  0  0  0  0
  -30.7584  -22.2160   22.5353 H   0  0  0  0  0  0
  -25.2683  -22.4950   28.2746 H   0  0  0  0  0  0
  -23.9799  -22.7871   27.0926 H   0  0  0  0  0  0
  -24.9063  -24.1462   27.7456 H   0  0  0  0  0  0
  -27.3384  -24.5167   22.6644 H   0  0  0  0  0  0
  -26.9365  -24.6145   20.9755 H   0  0  0  0  0  0
  -26.3628  -25.8417   22.0979 H   0  0  0  0  0  0
  -28.9592  -26.7974   23.6112 H   0  0  0  0  0  0
  -27.7551  -27.7035   22.8235 H   0  0  0  0  0  0
  -29.4482  -27.8737   22.3226 H   0  0  0  0  0  0
  -30.0842  -19.6674   22.0113 H   0  0  0  0  0  0
  -31.5966  -20.0159   22.8499 H   0  0  0  0  0  0
  -30.9394  -16.9780   19.9728 H   0  0  0  0  0  0
  -29.6130  -17.4451   20.9739 H   0  0  0  0  0  0
  -30.5065  -25.6283   20.9151 H   0  0  0  0  0  0
  -29.5157  -24.1983   20.9715 H   0  0  0  0  0  0
  -32.2594  -17.9185   21.5908 H   0  0  0  0  0  0
  -28.6632  -24.5796   27.4217 H   0  0  0  0  0  0
  -29.5105  -19.4360   24.7443 H   0  0  0  0  0  0
  -30.4274  -25.7214   23.3278 H   0  0  0  0  0  0
  -29.1515  -15.2277   21.4600 H   0  0  0  0  0  0
  1 25  1  0  0  0
  1 30  2  0  0  0
  1 91  1  0  0  0
  2  3  1  0  0  0
  2 25  1  0  0  0
  2 96  1  0  0  0
  2 97  1  0  0  0
  3  4  1  0  0  0
  3 98  1  0  0  0
  3 99  1  0  0  0
  4  5  1  0  0  0
  4100  1  0  0  0
  4101  1  0  0  0
  5  6  1  0  0  0
  5 26  1  0  0  0
  5102  1  0  0  0
  6 25  1  0  0  0
  6103  1  0  0  0
  6104  1  0  0  0
  7  8  2  0  0  0
  7 26  1  0  0  0
  7 29  1  0  0  0
  8  9  1  0  0  0
  8 22  1  0  0  0
  9 10  1  0  0  0
  9 27  2  0  0  0
 10 11  2  0  0  0
 10 15  1  0  0  0
 11 12  1  0  0  0
 11105  1  0  0  0
 12 13  2  0  0  0
 12106  1  0  0  0
 13 14  1  0  0  0
 13 31  1  0  0  0
 14 15  2  0  0  0
 14107  1  0  0  0
 15108  1  0  0  0
 16 17  2  0  0  0
 16 21  1  0  0  0
 16 31  1  0  0  0
 17 18  1  0  0  0
 17109  1  0  0  0
 18 19  2  0  0  0
 18110  1  0  0  0
 19 20  1  0  0  0
 19 24  1  0  0  0
 20 21  2  0  0  0
 20111  1  0  0  0
 21 23  1  0  0  0
 22 28  1  0  0  0
 22 32  2  0  0  0
 26 27  1  0  0  0
 28112  1  0  0  0
 28113  1  0  0  0
 29114  1  0  0  0
 29115  1  0  0  0
 33 34  1  0  0  0
 33 66  1  0  0  0
 33 70  2  0  0  0
 34 36  1  0  0  0
 34 59  1  0  0  0
 34116  1  0  0  0
 35 44  2  0  0  0
 35 45  1  0  0  0
 35 68  1  0  0  0
 36 56  1  0  0  0
 36117  1  0  0  0
 37 39  1  0  0  0
 37 47  1  0  0  0
 37 66  1  0  0  0
 37118  1  0  0  0
 38 43  2  0  0  0
 38 46  1  0  0  0
 38 47  1  0  0  0
 39 64  1  0  0  0
 39 67  2  0  0  0
 40 52  1  0  0  0
 40 53  2  0  0  0
 40 58  1  0  0  0
 41119  1  0  0  0
 41120  1  0  0  0
 41121  1  0  0  0
 41 48  1  0  0  0
 42 43  1  0  0  0
 42 66  1  0  0  0
 42122  1  0  0  0
 42123  1  0  0  0
 43 44  1  0  0  0
 44124  1  0  0  0
 45 46  2  0  0  0
 45125  1  0  0  0
 46126  1  0  0  0
 47127  1  0  0  0
 47128  1  0  0  0
 48 56  1  0  0  0
 48 65  1  0  0  0
 48129  1  0  0  0
 49 50  1  0  0  0
 49 53  1  0  0  0
 49 64  1  0  0  0
 49130  1  0  0  0
 50 51  1  0  0  0
 50131  1  0  0  0
 50132  1  0  0  0
 51 52  1  0  0  0
 51133  1  0  0  0
 51134  1  0  0  0
 52135  1  0  0  0
 52136  1  0  0  0
 53 54  1  0  0  0
 54 55  2  0  0  0
 54137  1  0  0  0
 55 57  1  0  0  0
 55138  1  0  0  0
 56 69  2  0  0  0
 57 58  2  0  0  0
 57139  1  0  0  0
 58140  1  0  0  0
 59 60  1  0  0  0
 59 61  1  0  0  0
 59 62  1  0  0  0
 60141  1  0  0  0
 60142  1  0  0  0
 60143  1  0  0  0
 61144  1  0  0  0
 61145  1  0  0  0
 61146  1  0  0  0
 62147  1  0  0  0
 62148  1  0  0  0
 62149  1  0  0  0
 63 65  1  0  0  0
 63150  1  0  0  0
 63151  1  0  0  0
 63152  1  0  0  0
 64153  1  0  0  0
 65154  1  0  0  0
 68 87  1  0  0  0
 71 73  2  0  0  0
 71 74  1  0  0  0
 71155  1  0  0  0
 72 74  2  0  0  0
 72 75  1  0  0  0
 72156  1  0  0  0
 73 76  1  0  0  0
 73 77  1  0  0  0
 74 90  1  0  0  0
 75 76  2  0  0  0
 75 89  1  0  0  0
 76 94  1  0  0  0
 77 78  1  0  0  0
 77 88  2  0  0  0
 78 80  1  0  0  0
 78 92  2  0  0  0
 79 83  1  0  0  0
 79 86  1  0  0  0
 79 93  2  0  0  0
 80157  1  0  0  0
 80158  1  0  0  0
 80159  1  0  0  0
 81160  1  0  0  0
 81161  1  0  0  0
 81162  1  0  0  0
 81 87  1  0  0  0
 82 87  1  0  0  0
 82163  1  0  0  0
 82164  1  0  0  0
 82165  1  0  0  0
 83 89  1  0  0  0
 83166  1  0  0  0
 83167  1  0  0  0
 84 86  1  0  0  0
 84 91  1  0  0  0
 84168  1  0  0  0
 84169  1  0  0  0
 85 87  1  0  0  0
 85 90  1  0  0  0
 85170  1  0  0  0
 85171  1  0  0  0
 86 95  1  0  0  0
 86172  1  0  0  0
 88173  1  0  0  0
 89174  1  0  0  0
 90175  1  0  0  0
 91176  1  0  0  0
M  ISO  4   1 100  68 101  87 101  91 100
M  END
> <chiral flag>
0

> <version>
0

> <s_m_source_file>
/data/baiqing/PycharmProjects/Reinvent-master-3.2/result/LINK_invent/BTK/process_docking_weight1_custom_product_contain_oxygen_bond_distance_aromatic_linkinvent_7_9_3/rearranged_h_0164.sdf

> <i_m_source_file_index>
6

> <r_mmod_Potential_Energy-OPLS-2005>
21.4015617370605

> <r_mmod_Stretch_Energy-OPLS-2005>
40.8109703063965

> <r_mmod_Bend_Energy-OPLS-2005>
113.592018127441

> <r_mmod_Torsional_Energy-OPLS-2005>
271.013061523438

> <r_mmod_Improper_Torsional_Energy-OPLS-2005>
10.260048866272

> <r_mmod_Van_der_Waal_Energy-OPLS-2005>
179.865051269531

> <r_mmod_Electrostatic_Energy-OPLS-2005>
-349.405609130859

> <r_mmod_Solvation_Energy-OPLS-2005>
-261.661529541016

> <b_mmod_Minimization_Converged-OPLS-2005>
0

> <r_mmod_RMS_Derivative-OPLS-2005>
5.04181003570557

$$$$
6
                    3D
 Structure written by MMmdl.
156165  0  0  1  0            999 V2000
  -30.6899  -14.4700   20.5534 C   0  0  0  0  0  0
  -30.4233  -12.2949   19.4251 C   0  0  0  0  0  0
  -29.5021  -12.5044   18.2045 C   0  0  0  0  0  0
  -28.0201  -12.3660   18.6104 C   0  0  0  0  0  0
  -27.6616  -13.2065   19.8668 C   0  0  2  0  0  0
  -28.7023  -12.9833   20.9900 C   0  0  0  0  0  0
  -25.2611  -13.8168   20.5641 C   0  0  0  0  0  0
  -24.1869  -13.0440   20.9171 C   0  0  0  0  0  0
  -24.6420  -11.6900   20.8719 C   0  0  0  0  0  0
  -23.9084  -10.4298   21.0392 C   0  0  0  0  0  0
  -24.3645   -9.4212   21.9160 C   0  0  0  0  0  0
  -23.6334   -8.2241   22.0726 C   0  0  0  0  0  0
  -22.4312   -8.0277   21.3530 C   0  0  0  0  0  0
  -21.9924   -9.0251   20.4645 C   0  0  0  0  0  0
  -22.7246  -10.2133   20.3057 C   0  0  0  0  0  0
  -21.6874   -6.0734   22.5266 C   0  0  0  0  0  0
  -21.4022   -6.5634   23.8204 C   0  0  0  0  0  0
  -21.3656   -5.6779   24.9161 C   0  0  0  0  0  0
  -21.6050   -4.3045   24.7207 C   0  0  0  0  0  0
  -21.8840   -3.8139   23.4333 C   0  0  0  0  0  0
  -21.9212   -4.6959   22.3389 C   0  0  0  0  0  0
  -22.7878  -13.5209   21.1816 C   0  0  0  0  0  0
  -22.1671   -4.2142   21.0968 F   0  0  0  0  0  0
  -21.5639   -3.4528   25.7722 F   0  0  0  0  0  0
  -30.0346  -13.2828   20.4437 N   0  0  0  0  0  0
  -26.3032  -12.9322   20.3302 N   0  0  0  0  0  0
  -25.9334  -11.6487   20.5709 N   0  0  0  0  0  0
  -22.0550  -12.8205   22.0410 N   0  0  0  0  0  0
  -25.4317  -15.1893   20.4030 N   0  0  0  0  0  0
  -31.8287  -14.6316   20.1062 O   0  0  0  0  0  0
  -21.6684   -6.8866   21.4225 O   0  0  0  0  0  0
  -22.3517  -14.5451   20.6577 O   0  0  0  0  0  0
  -24.6146  -31.8682   23.2058 C   0  0  0  0  0  0
  -25.9024  -32.4836   23.8366 C   0  0  1  0  0  0
  -27.2315  -27.4335   20.0959 C   0  0  0  0  0  0
  -25.5877  -33.8631   24.2296 N   0  0  0  0  0  0
  -23.4002  -30.4906   21.5497 C   0  0  2  0  0  0
  -24.8430  -28.9526   20.1120 C   0  0  0  0  0  0
  -22.7396  -29.4668   22.4999 C   0  0  0  0  0  0
  -18.0265  -28.1377   22.8509 C   0  0  0  0  0  0
  -24.1459  -36.7307   23.2645 C   0  0  0  0  0  0
  -25.9261  -30.8370   21.3516 C   0  0  0  0  0  0
  -26.0010  -29.4675   20.7062 C   0  0  0  0  0  0
  -27.1948  -28.7132   20.6966 C   0  0  0  0  0  0
  -26.0515  -26.9254   19.5061 C   0  0  0  0  0  0
  -24.8622  -27.6807   19.5123 C   0  0  0  0  0  0
  -23.6051  -29.8208   20.1628 C   0  0  0  0  0  0
  -25.4089  -36.3128   24.0341 C   0  0  1  0  0  0
  -20.5852  -28.3649   23.1334 C   0  0  2  0  0  0
  -20.6736  -26.9386   22.5424 C   0  0  0  0  0  0
  -19.5713  -26.6377   21.5208 C   0  0  0  0  0  0
  -18.1899  -26.7925   22.1633 C   0  0  0  0  0  0
  -19.1517  -28.8828   23.2921 C   0  0  0  0  0  0
  -18.9456  -30.1439   23.8922 C   0  0  0  0  0  0
  -17.6460  -30.6592   24.0571 C   0  0  0  0  0  0
  -25.9027  -34.9497   23.5118 C   0  0  0  0  0  0
  -16.5347  -29.9104   23.6336 C   0  0  0  0  0  0
  -16.7257  -28.6518   23.0364 C   0  0  0  0  0  0
  -26.4418  -31.6626   25.0716 C   0  0  0  0  0  0
  -25.3659  -31.3766   26.1449 C   0  0  0  0  0  0
  -27.0218  -30.3068   24.6075 C   0  0  0  0  0  0
  -27.5980  -32.4351   25.7513 C   0  0  0  0  0  0
  -27.5568  -37.1809   24.8483 C   0  0  0  0  0  0
  -21.4121  -29.3021   22.3738 N   0  0  0  0  0  0
  -26.4274  -37.3820   23.9435 N   0  0  0  0  0  0
  -24.6662  -31.0789   22.0958 N   0  0  0  0  0  0
  -23.4166  -28.8228   23.3048 O   0  0  0  0  0  0
  -28.4123  -26.7222   20.1446 O   0  0  0  0  0  0
  -26.5608  -34.8956   22.4686 O   0  0  0  0  0  0
  -23.5338  -32.1430   23.7453 O   0  0  0  0  0  0
  -31.2869  -18.9218   20.1975 C   0  0  0  0  0  0
  -31.2380  -17.5248   20.3685 C   0  0  0  0  0  0
  -28.9917  -17.7234   21.2790 C   0  0  0  0  0  0
  -30.1892  -19.7261   20.5572 C   0  0  0  0  0  0
  -29.0416  -19.1315   21.1056 C   0  0  0  0  0  0
  -30.0823  -16.8981   20.9005 C   0  0  0  0  0  0
  -27.8106  -21.3816   20.7951 C   0  0  0  0  0  0
  -28.5255  -25.4832   19.5586 C   0  0  0  0  0  0
  -28.6538  -24.3351   20.2647 C   0  0  0  0  0  0
  -28.9410  -23.0767   19.5475 C   0  0  0  0  0  0
  -27.8911  -20.0299   21.5466 C   0  0  0  0  0  0
  -30.2516  -21.2384   20.3977 C   0  0  0  0  0  0
  -28.9521  -21.9414   20.2999 N   0  0  0  0  0  0
  -29.9539  -15.4780   21.0745 N   0  0  0  0  0  0
  -26.6928  -21.9036   20.6844 O   0  0  0  0  0  0
  -29.3150  -23.0504   18.3693 O   0  0  0  0  0  0
  -28.5854  -24.3615   21.6075 O   0  0  0  0  0  0
  -31.4698  -12.3804   19.1288 H   0  0  0  0  0  0
  -30.3109  -11.2829   19.8172 H   0  0  0  0  0  0
  -29.7444  -11.7879   17.4199 H   0  0  0  0  0  0
  -29.6777  -13.4911   17.7742 H   0  0  0  0  0  0
  -27.8297  -11.3105   18.8054 H   0  0  0  0  0  0
  -27.3758  -12.6407   17.7758 H   0  0  0  0  0  0
  -27.7039  -14.2536   19.5663 H   0  0  0  0  0  0
  -28.6779  -11.9468   21.3306 H   0  0  0  0  0  0
  -28.4636  -13.5785   21.8717 H   0  0  0  0  0  0
  -25.2790   -9.5712   22.4720 H   0  0  0  0  0  0
  -24.0065   -7.4636   22.7434 H   0  0  0  0  0  0
  -21.0845   -8.8802   19.8962 H   0  0  0  0  0  0
  -22.3698  -10.9691   19.6197 H   0  0  0  0  0  0
  -21.2009   -7.6138   23.9706 H   0  0  0  0  0  0
  -21.1446   -6.0491   25.9068 H   0  0  0  0  0  0
  -22.0624   -2.7600   23.2823 H   0  0  0  0  0  0
  -21.1077  -13.1044   22.2431 H   0  0  0  0  0  0
  -22.4284  -12.0032   22.4982 H   0  0  0  0  0  0
  -24.6520  -15.8332   20.4855 H   0  0  0  0  0  0
  -26.2699  -15.6296   20.0438 H   0  0  0  0  0  0
  -26.7113  -32.5530   23.1151 H   0  0  0  0  0  0
  -25.0016  -33.9791   25.0431 H   0  0  0  0  0  0
  -22.6904  -31.3086   21.4121 H   0  0  0  0  0  0
  -23.3736  -35.9631   23.3337 H   0  0  0  0  0  0
  -24.3546  -36.8884   22.2056 H   0  0  0  0  0  0
  -23.7176  -37.6510   23.6630 H   0  0  0  0  0  0
  -26.0217  -31.5961   20.5741 H   0  0  0  0  0  0
  -26.8223  -30.9018   21.9591 H   0  0  0  0  0  0
  -28.0897  -29.1076   21.1576 H   0  0  0  0  0  0
  -26.0309  -25.9421   19.0584 H   0  0  0  0  0  0
  -23.9666  -27.2730   19.0613 H   0  0  0  0  0  0
  -23.7133  -30.5964   19.4039 H   0  0  0  0  0  0
  -22.7281  -29.2412   19.8668 H   0  0  0  0  0  0
  -25.1258  -36.1993   25.0837 H   0  0  0  0  0  0
  -20.9951  -28.3194   24.1444 H   0  0  0  0  0  0
  -20.5612  -26.2252   23.3604 H   0  0  0  0  0  0
  -21.6613  -26.7402   22.1222 H   0  0  0  0  0  0
  -19.6864  -25.6287   21.1230 H   0  0  0  0  0  0
  -19.6659  -27.3201   20.6744 H   0  0  0  0  0  0
  -17.4162  -26.6686   21.4045 H   0  0  0  0  0  0
  -18.0312  -26.0060   22.9023 H   0  0  0  0  0  0
  -19.7936  -30.7251   24.2296 H   0  0  0  0  0  0
  -17.5027  -31.6285   24.5149 H   0  0  0  0  0  0
  -15.5355  -30.3027   23.7632 H   0  0  0  0  0  0
  -15.8649  -28.0841   22.7074 H   0  0  0  0  0  0
  -24.5821  -30.7126   25.7786 H   0  0  0  0  0  0
  -24.8849  -32.2940   26.4861 H   0  0  0  0  0  0
  -25.7977  -30.8955   27.0218 H   0  0  0  0  0  0
  -26.2721  -29.6886   24.1130 H   0  0  0  0  0  0
  -27.3972  -29.7277   25.4515 H   0  0  0  0  0  0
  -27.8567  -30.4390   23.9195 H   0  0  0  0  0  0
  -27.2554  -33.3619   26.2113 H   0  0  0  0  0  0
  -28.3790  -32.6944   25.0367 H   0  0  0  0  0  0
  -28.0625  -31.8451   26.5420 H   0  0  0  0  0  0
  -28.2628  -38.0070   24.7528 H   0  0  0  0  0  0
  -28.1008  -36.2608   24.6296 H   0  0  0  0  0  0
  -27.2296  -37.1459   25.8890 H   0  0  0  0  0  0
  -20.9265  -29.8735   21.6967 H   0  0  0  0  0  0
  -26.0168  -38.2899   24.1450 H   0  0  0  0  0  0
  -32.1826  -19.3735   19.7940 H   0  0  0  0  0  0
  -32.1141  -16.9647   20.0815 H   0  0  0  0  0  0
  -28.1057  -17.2716   21.7066 H   0  0  0  0  0  0
  -28.5543  -25.5450   18.4788 H   0  0  0  0  0  0
  -27.9938  -20.2372   22.6105 H   0  0  0  0  0  0
  -26.9496  -19.4964   21.4188 H   0  0  0  0  0  0
  -30.8939  -21.4497   19.5400 H   0  0  0  0  0  0
  -30.7799  -21.6404   21.2628 H   0  0  0  0  0  0
  -29.0760  -15.1675   21.4606 H   0  0  0  0  0  0
  -28.8368  -23.5033   21.9211 H   0  0  0  0  0  0
  1 25  1  0  0  0
  1 30  2  0  0  0
  1 84  1  0  0  0
  2  3  1  0  0  0
  2 25  1  0  0  0
  2 88  1  0  0  0
  2 89  1  0  0  0
  3  4  1  0  0  0
  3 90  1  0  0  0
  3 91  1  0  0  0
  4  5  1  0  0  0
  4 92  1  0  0  0
  4 93  1  0  0  0
  5  6  1  0  0  0
  5 26  1  0  0  0
  5 94  1  0  0  0
  6 25  1  0  0  0
  6 95  1  0  0  0
  6 96  1  0  0  0
  7  8  2  0  0  0
  7 26  1  0  0  0
  7 29  1  0  0  0
  8  9  1  0  0  0
  8 22  1  0  0  0
  9 10  1  0  0  0
  9 27  2  0  0  0
 10 11  2  0  0  0
 10 15  1  0  0  0
 11 12  1  0  0  0
 11 97  1  0  0  0
 12 13  2  0  0  0
 12 98  1  0  0  0
 13 14  1  0  0  0
 13 31  1  0  0  0
 14 15  2  0  0  0
 14 99  1  0  0  0
 15100  1  0  0  0
 16 17  2  0  0  0
 16 21  1  0  0  0
 16 31  1  0  0  0
 17 18  1  0  0  0
 17101  1  0  0  0
 18 19  2  0  0  0
 18102  1  0  0  0
 19 20  1  0  0  0
 19 24  1  0  0  0
 20 21  2  0  0  0
 20103  1  0  0  0
 21 23  1  0  0  0
 22 28  1  0  0  0
 22 32  2  0  0  0
 26 27  1  0  0  0
 28104  1  0  0  0
 28105  1  0  0  0
 29106  1  0  0  0
 29107  1  0  0  0
 33 34  1  0  0  0
 33 66  1  0  0  0
 33 70  2  0  0  0
 34 36  1  0  0  0
 34 59  1  0  0  0
 34108  1  0  0  0
 35 44  2  0  0  0
 35 45  1  0  0  0
 35 68  1  0  0  0
 36 56  1  0  0  0
 36109  1  0  0  0
 37 39  1  0  0  0
 37 47  1  0  0  0
 37 66  1  0  0  0
 37110  1  0  0  0
 38 43  2  0  0  0
 38 46  1  0  0  0
 38 47  1  0  0  0
 39 64  1  0  0  0
 39 67  2  0  0  0
 40 52  1  0  0  0
 40 53  2  0  0  0
 40 58  1  0  0  0
 41111  1  0  0  0
 41112  1  0  0  0
 41113  1  0  0  0
 41 48  1  0  0  0
 42 43  1  0  0  0
 42 66  1  0  0  0
 42114  1  0  0  0
 42115  1  0  0  0
 43 44  1  0  0  0
 44116  1  0  0  0
 45 46  2  0  0  0
 45117  1  0  0  0
 46118  1  0  0  0
 47119  1  0  0  0
 47120  1  0  0  0
 48 56  1  0  0  0
 48 65  1  0  0  0
 48121  1  0  0  0
 49 50  1  0  0  0
 49 53  1  0  0  0
 49 64  1  0  0  0
 49122  1  0  0  0
 50 51  1  0  0  0
 50123  1  0  0  0
 50124  1  0  0  0
 51 52  1  0  0  0
 51125  1  0  0  0
 51126  1  0  0  0
 52127  1  0  0  0
 52128  1  0  0  0
 53 54  1  0  0  0
 54 55  2  0  0  0
 54129  1  0  0  0
 55 57  1  0  0  0
 55130  1  0  0  0
 56 69  2  0  0  0
 57 58  2  0  0  0
 57131  1  0  0  0
 58132  1  0  0  0
 59 60  1  0  0  0
 59 61  1  0  0  0
 59 62  1  0  0  0
 60133  1  0  0  0
 60134  1  0  0  0
 60135  1  0  0  0
 61136  1  0  0  0
 61137  1  0  0  0
 61138  1  0  0  0
 62139  1  0  0  0
 62140  1  0  0  0
 62141  1  0  0  0
 63 65  1  0  0  0
 63142  1  0  0  0
 63143  1  0  0  0
 63144  1  0  0  0
 64145  1  0  0  0
 65146  1  0  0  0
 68 78  1  0  0  0
 71 72  2  0  0  0
 71 74  1  0  0  0
 71147  1  0  0  0
 72 76  1  0  0  0
 72148  1  0  0  0
 73 75  1  0  0  0
 73 76  2  0  0  0
 73149  1  0  0  0
 74 75  2  0  0  0
 74 82  1  0  0  0
 75 81  1  0  0  0
 76 84  1  0  0  0
 77 81  1  0  0  0
 77 83  1  0  0  0
 77 85  2  0  0  0
 78 79  2  0  0  0
 78150  1  0  0  0
 79 80  1  0  0  0
 79 87  1  0  0  0
 80 83  1  0  0  0
 80 86  2  0  0  0
 81151  1  0  0  0
 81152  1  0  0  0
 82 83  1  0  0  0
 82153  1  0  0  0
 82154  1  0  0  0
 84155  1  0  0  0
 87156  1  0  0  0
M  ISO  4   1 100  68 101  78 101  84 100
M  END
> <chiral flag>
0

> <version>
0

> <s_m_source_file>
/data/baiqing/PycharmProjects/Reinvent-master-3.2/result/LINK_invent/BTK/process_docking_weight1_custom_product_contain_oxygen_bond_distance_aromatic_linkinvent_7_9_3/rearranged_h_0164.sdf

> <i_m_source_file_index>
7

> <r_mmod_Potential_Energy-OPLS-2005>
-16.1194229125977

> <r_mmod_Stretch_Energy-OPLS-2005>
43.6168441772461

> <r_mmod_Bend_Energy-OPLS-2005>
109.540649414062

> <r_mmod_Torsional_Energy-OPLS-2005>
285.864715576172

> <r_mmod_Improper_Torsional_Energy-OPLS-2005>
6.79718732833862

> <r_mmod_Van_der_Waal_Energy-OPLS-2005>
181.001327514648

> <r_mmod_Electrostatic_Energy-OPLS-2005>
-418.014068603516

> <r_mmod_Solvation_Energy-OPLS-2005>
-239.00862121582

> <b_mmod_Minimization_Converged-OPLS-2005>
0

> <r_mmod_RMS_Derivative-OPLS-2005>
2.99469137191772

$$$$
7
                    3D
 Structure written by MMmdl.
154162  0  0  1  0            999 V2000
  -30.7185  -14.4447   20.6453 C   0  0  0  0  0  0
  -30.4261  -12.3170   19.4078 C   0  0  0  0  0  0
  -29.4902  -12.5158   18.1992 C   0  0  0  0  0  0
  -28.0140  -12.3681   18.6171 C   0  0  0  0  0  0
  -27.6632  -13.2037   19.8765 C   0  0  2  0  0  0
  -28.7054  -12.9714   20.9935 C   0  0  0  0  0  0
  -25.2595  -13.8152   20.5672 C   0  0  0  0  0  0
  -24.1840  -13.0436   20.9171 C   0  0  0  0  0  0
  -24.6390  -11.6902   20.8732 C   0  0  0  0  0  0
  -23.9060  -10.4291   21.0406 C   0  0  0  0  0  0
  -24.3614   -9.4206   21.9184 C   0  0  0  0  0  0
  -23.6289   -8.2242   22.0756 C   0  0  0  0  0  0
  -22.4272   -8.0278   21.3546 C   0  0  0  0  0  0
  -21.9906   -9.0253   20.4649 C   0  0  0  0  0  0
  -22.7235  -10.2132   20.3055 C   0  0  0  0  0  0
  -21.6855   -6.0732   22.5280 C   0  0  0  0  0  0
  -21.4012   -6.5639   23.8212 C   0  0  0  0  0  0
  -21.3658   -5.6792   24.9176 C   0  0  0  0  0  0
  -21.6043   -4.3055   24.7228 C   0  0  0  0  0  0
  -21.8819   -3.8147   23.4350 C   0  0  0  0  0  0
  -21.9192   -4.6960   22.3405 C   0  0  0  0  0  0
  -22.7865  -13.5240   21.1843 C   0  0  0  0  0  0
  -22.1660   -4.2145   21.0983 F   0  0  0  0  0  0
  -21.5633   -3.4540   25.7741 F   0  0  0  0  0  0
  -30.0361  -13.2844   20.4447 N   0  0  0  0  0  0
  -26.3029  -12.9315   20.3367 N   0  0  0  0  0  0
  -25.9317  -11.6482   20.5768 N   0  0  0  0  0  0
  -22.0508  -12.8225   22.0396 N   0  0  0  0  0  0
  -25.4337  -15.1868   20.4069 N   0  0  0  0  0  0
  -31.7891  -14.6845   20.0784 O   0  0  0  0  0  0
  -21.6638   -6.8874   21.4240 O   0  0  0  0  0  0
  -22.3550  -14.5550   20.6703 O   0  0  0  0  0  0
  -24.6158  -31.8671   23.2094 C   0  0  0  0  0  0
  -25.9048  -32.4818   23.8390 C   0  0  1  0  0  0
  -27.2368  -27.4232   20.0852 C   0  0  0  0  0  0
  -25.5909  -33.8617   24.2325 N   0  0  0  0  0  0
  -23.4031  -30.4911   21.5502 C   0  0  2  0  0  0
  -24.8469  -28.9536   20.1172 C   0  0  0  0  0  0
  -22.7413  -29.4658   22.4991 C   0  0  0  0  0  0
  -18.0272  -28.1372   22.8500 C   0  0  0  0  0  0
  -24.1489  -36.7305   23.2639 C   0  0  0  0  0  0
  -25.9334  -30.8282   21.3638 C   0  0  0  0  0  0
  -26.0078  -29.4610   20.7114 C   0  0  0  0  0  0
  -27.2007  -28.7012   20.6947 C   0  0  0  0  0  0
  -26.0461  -26.9245   19.5046 C   0  0  0  0  0  0
  -24.8609  -27.6844   19.5157 C   0  0  0  0  0  0
  -23.6111  -29.8233   20.1650 C   0  0  0  0  0  0
  -25.4109  -36.3105   24.0340 C   0  0  1  0  0  0
  -20.5865  -28.3658   23.1325 C   0  0  2  0  0  0
  -20.6763  -26.9397   22.5420 C   0  0  0  0  0  0
  -19.5743  -26.6383   21.5217 C   0  0  0  0  0  0
  -18.1918  -26.7921   22.1626 C   0  0  0  0  0  0
  -19.1523  -28.8832   23.2909 C   0  0  0  0  0  0
  -18.9449  -30.1442   23.8912 C   0  0  0  0  0  0
  -17.6452  -30.6581   24.0569 C   0  0  0  0  0  0
  -25.9037  -34.9473   23.5127 C   0  0  0  0  0  0
  -16.5343  -29.9083   23.6328 C   0  0  0  0  0  0
  -16.7261  -28.6498   23.0352 C   0  0  0  0  0  0
  -26.4474  -31.6596   25.0719 C   0  0  0  0  0  0
  -25.3745  -31.3698   26.1473 C   0  0  0  0  0  0
  -27.0300  -30.3040   24.6085 C   0  0  0  0  0  0
  -27.6052  -32.4312   25.7479 C   0  0  0  0  0  0
  -27.5581  -37.1810   24.8469 C   0  0  0  0  0  0
  -21.4140  -29.3029   22.3735 N   0  0  0  0  0  0
  -26.4294  -37.3789   23.9412 N   0  0  0  0  0  0
  -24.6692  -31.0771   22.0992 N   0  0  0  0  0  0
  -23.4187  -28.8202   23.3034 O   0  0  0  0  0  0
  -28.4350  -26.7293   20.0911 O   0  0  0  0  0  0
  -26.5596  -34.8927   22.4686 O   0  0  0  0  0  0
  -23.5350  -32.1423   23.7490 O   0  0  0  0  0  0
  -28.9647  -18.6477   18.5567 C   0  0  0  0  0  0
  -28.8117  -19.9983   18.9368 C   0  0  0  0  0  0
  -29.5243  -17.7107   19.4489 C   0  0  0  0  0  0
  -29.7649  -19.4867   21.1139 C   0  0  0  0  0  0
  -29.2070  -20.4365   20.2233 C   0  0  0  0  0  0
  -29.9320  -18.1336   20.7292 C   0  0  0  0  0  0
  -28.6183  -24.2598   20.3304 C   0  0  0  0  0  0
  -28.7452  -22.8600   19.6849 C   0  0  0  0  0  0
  -28.5770  -25.4796   19.3823 C   0  0  0  0  0  0
  -29.0532  -21.7771   20.6362 N   0  0  0  0  0  0
  -30.1172  -15.3891   21.4854 N   0  0  0  0  0  0
  -28.5768  -24.3870   21.5608 O   0  0  0  0  0  0
  -32.1274  -17.0409   21.7966 O   0  0  0  0  0  0
  -30.0530  -17.2734   23.2287 O   0  0  0  0  0  0
  -30.6602  -16.9797   21.9178 S   0  0  0  0  0  0
  -31.4678  -12.4286   19.1020 H   0  0  0  0  0  0
  -30.3387  -11.3012   19.7965 H   0  0  0  0  0  0
  -29.7289  -11.7964   17.4148 H   0  0  0  0  0  0
  -29.6520  -13.5044   17.7664 H   0  0  0  0  0  0
  -27.8286  -11.3112   18.8126 H   0  0  0  0  0  0
  -27.3587  -12.6418   17.7899 H   0  0  0  0  0  0
  -27.7115  -14.2535   19.5859 H   0  0  0  0  0  0
  -28.6836  -11.9299   21.3178 H   0  0  0  0  0  0
  -28.4555  -13.5519   21.8820 H   0  0  0  0  0  0
  -25.2762   -9.5681   22.4750 H   0  0  0  0  0  0
  -24.0003   -7.4633   22.7470 H   0  0  0  0  0  0
  -21.0840   -8.8771   19.8949 H   0  0  0  0  0  0
  -22.3700  -10.9669   19.6159 H   0  0  0  0  0  0
  -21.2000   -7.6148   23.9714 H   0  0  0  0  0  0
  -21.1480   -6.0525   25.9077 H   0  0  0  0  0  0
  -22.0597   -2.7608   23.2855 H   0  0  0  0  0  0
  -22.4124  -11.9876   22.4766 H   0  0  0  0  0  0
  -21.1131  -13.1252   22.2626 H   0  0  0  0  0  0
  -24.6662  -15.8423   20.5060 H   0  0  0  0  0  0
  -26.2816  -15.6218   20.0663 H   0  0  0  0  0  0
  -26.7120  -32.5521   23.1155 H   0  0  0  0  0  0
  -25.0101  -33.9781   25.0499 H   0  0  0  0  0  0
  -22.6922  -31.3080   21.4111 H   0  0  0  0  0  0
  -23.3750  -35.9640   23.3314 H   0  0  0  0  0  0
  -24.3583  -36.8899   22.2050 H   0  0  0  0  0  0
  -23.7240  -37.6516   23.6641 H   0  0  0  0  0  0
  -26.0486  -31.5940   20.5954 H   0  0  0  0  0  0
  -26.8209  -30.8793   21.9831 H   0  0  0  0  0  0
  -28.0993  -29.0944   21.1498 H   0  0  0  0  0  0
  -25.9927  -25.9502   19.0450 H   0  0  0  0  0  0
  -23.9640  -27.2830   19.0643 H   0  0  0  0  0  0
  -23.7223  -30.5978   19.4054 H   0  0  0  0  0  0
  -22.7340  -29.2455   19.8680 H   0  0  0  0  0  0
  -25.1283  -36.1970   25.0831 H   0  0  0  0  0  0
  -20.9954  -28.3211   24.1446 H   0  0  0  0  0  0
  -20.5670  -26.2258   23.3599 H   0  0  0  0  0  0
  -21.6634  -26.7441   22.1206 H   0  0  0  0  0  0
  -19.6904  -25.6298   21.1229 H   0  0  0  0  0  0
  -19.6685  -27.3212   20.6762 H   0  0  0  0  0  0
  -17.4193  -26.6688   21.4021 H   0  0  0  0  0  0
  -18.0308  -26.0049   22.9003 H   0  0  0  0  0  0
  -19.7928  -30.7260   24.2278 H   0  0  0  0  0  0
  -17.5007  -31.6263   24.5171 H   0  0  0  0  0  0
  -15.5345  -30.2996   23.7637 H   0  0  0  0  0  0
  -15.8659  -28.0826   22.7058 H   0  0  0  0  0  0
  -24.5929  -30.7024   25.7825 H   0  0  0  0  0  0
  -24.8925  -32.2849   26.4923 H   0  0  0  0  0  0
  -25.8110  -30.8883   27.0231 H   0  0  0  0  0  0
  -26.2835  -29.6809   24.1144 H   0  0  0  0  0  0
  -27.4083  -29.7266   25.4530 H   0  0  0  0  0  0
  -27.8668  -30.4367   23.9221 H   0  0  0  0  0  0
  -27.2676  -33.3608   26.2073 H   0  0  0  0  0  0
  -28.3854  -32.6872   25.0299 H   0  0  0  0  0  0
  -28.0726  -31.8421   26.5378 H   0  0  0  0  0  0
  -28.2609  -38.0100   24.7507 H   0  0  0  0  0  0
  -28.1063  -36.2628   24.6302 H   0  0  0  0  0  0
  -27.2299  -37.1468   25.8874 H   0  0  0  0  0  0
  -20.9292  -29.8758   21.6973 H   0  0  0  0  0  0
  -26.0182  -38.2869   24.1403 H   0  0  0  0  0  0
  -28.6523  -18.3309   17.5715 H   0  0  0  0  0  0
  -28.3777  -20.6820   18.2215 H   0  0  0  0  0  0
  -29.6471  -16.6832   19.1430 H   0  0  0  0  0  0
  -30.0807  -19.7826   22.1040 H   0  0  0  0  0  0
  -29.5208  -22.9038   18.9190 H   0  0  0  0  0  0
  -27.8045  -22.6475   19.1758 H   0  0  0  0  0  0
  -27.8419  -25.3260   18.5957 H   0  0  0  0  0  0
  -29.5376  -25.5138   18.8687 H   0  0  0  0  0  0
  -29.3710  -22.0756   21.5564 H   0  0  0  0  0  0
  -29.1841  -15.2132   21.8458 H   0  0  0  0  0  0
  1 25  1  0  0  0
  1 30  2  0  0  0
  1 81  1  0  0  0
  2  3  1  0  0  0
  2 25  1  0  0  0
  2 86  1  0  0  0
  2 87  1  0  0  0
  3  4  1  0  0  0
  3 88  1  0  0  0
  3 89  1  0  0  0
  4  5  1  0  0  0
  4 90  1  0  0  0
  4 91  1  0  0  0
  5  6  1  0  0  0
  5 26  1  0  0  0
  5 92  1  0  0  0
  6 25  1  0  0  0
  6 93  1  0  0  0
  6 94  1  0  0  0
  7  8  2  0  0  0
  7 26  1  0  0  0
  7 29  1  0  0  0
  8  9  1  0  0  0
  8 22  1  0  0  0
  9 10  1  0  0  0
  9 27  2  0  0  0
 10 11  2  0  0  0
 10 15  1  0  0  0
 11 12  1  0  0  0
 11 95  1  0  0  0
 12 13  2  0  0  0
 12 96  1  0  0  0
 13 14  1  0  0  0
 13 31  1  0  0  0
 14 15  2  0  0  0
 14 97  1  0  0  0
 15 98  1  0  0  0
 16 17  2  0  0  0
 16 21  1  0  0  0
 16 31  1  0  0  0
 17 18  1  0  0  0
 17 99  1  0  0  0
 18 19  2  0  0  0
 18100  1  0  0  0
 19 20  1  0  0  0
 19 24  1  0  0  0
 20 21  2  0  0  0
 20101  1  0  0  0
 21 23  1  0  0  0
 22 28  1  0  0  0
 22 32  2  0  0  0
 26 27  1  0  0  0
 28102  1  0  0  0
 28103  1  0  0  0
 29104  1  0  0  0
 29105  1  0  0  0
 33 34  1  0  0  0
 33 66  1  0  0  0
 33 70  2  0  0  0
 34 36  1  0  0  0
 34 59  1  0  0  0
 34106  1  0  0  0
 35 44  2  0  0  0
 35 45  1  0  0  0
 35 68  1  0  0  0
 36 56  1  0  0  0
 36107  1  0  0  0
 37 39  1  0  0  0
 37 47  1  0  0  0
 37 66  1  0  0  0
 37108  1  0  0  0
 38 43  2  0  0  0
 38 46  1  0  0  0
 38 47  1  0  0  0
 39 64  1  0  0  0
 39 67  2  0  0  0
 40 52  1  0  0  0
 40 53  2  0  0  0
 40 58  1  0  0  0
 41109  1  0  0  0
 41110  1  0  0  0
 41111  1  0  0  0
 41 48  1  0  0  0
 42 43  1  0  0  0
 42 66  1  0  0  0
 42112  1  0  0  0
 42113  1  0  0  0
 43 44  1  0  0  0
 44114  1  0  0  0
 45 46  2  0  0  0
 45115  1  0  0  0
 46116  1  0  0  0
 47117  1  0  0  0
 47118  1  0  0  0
 48 56  1  0  0  0
 48 65  1  0  0  0
 48119  1  0  0  0
 49 50  1  0  0  0
 49 53  1  0  0  0
 49 64  1  0  0  0
 49120  1  0  0  0
 50 51  1  0  0  0
 50121  1  0  0  0
 50122  1  0  0  0
 51 52  1  0  0  0
 51123  1  0  0  0
 51124  1  0  0  0
 52125  1  0  0  0
 52126  1  0  0  0
 53 54  1  0  0  0
 54 55  2  0  0  0
 54127  1  0  0  0
 55 57  1  0  0  0
 55128  1  0  0  0
 56 69  2  0  0  0
 57 58  2  0  0  0
 57129  1  0  0  0
 58130  1  0  0  0
 59 60  1  0  0  0
 59 61  1  0  0  0
 59 62  1  0  0  0
 60131  1  0  0  0
 60132  1  0  0  0
 60133  1  0  0  0
 61134  1  0  0  0
 61135  1  0  0  0
 61136  1  0  0  0
 62137  1  0  0  0
 62138  1  0  0  0
 62139  1  0  0  0
 63 65  1  0  0  0
 63140  1  0  0  0
 63141  1  0  0  0
 63142  1  0  0  0
 64143  1  0  0  0
 65144  1  0  0  0
 68 79  1  0  0  0
 71 72  2  0  0  0
 71 73  1  0  0  0
 71145  1  0  0  0
 72 75  1  0  0  0
 72146  1  0  0  0
 73 76  2  0  0  0
 73147  1  0  0  0
 74 75  2  0  0  0
 74 76  1  0  0  0
 74148  1  0  0  0
 75 80  1  0  0  0
 76 85  1  0  0  0
 77 78  1  0  0  0
 77 79  1  0  0  0
 77 82  2  0  0  0
 78 80  1  0  0  0
 78149  1  0  0  0
 78150  1  0  0  0
 79151  1  0  0  0
 79152  1  0  0  0
 80153  1  0  0  0
 81154  1  0  0  0
 81 85  1  0  0  0
 83 85  2  0  0  0
 84 85  2  0  0  0
M  ISO  4   1 100  68 101  79 101  81 100
M  END
> <chiral flag>
0

> <version>
0

> <s_m_source_file>
/data/baiqing/PycharmProjects/Reinvent-master-3.2/result/LINK_invent/BTK/process_docking_weight1_custom_product_contain_oxygen_bond_distance_aromatic_linkinvent_7_9_3/rearranged_h_0164.sdf

> <i_m_source_file_index>
8

> <r_mmod_Potential_Energy-OPLS-2005>
-271.999450683594

> <r_mmod_Stretch_Energy-OPLS-2005>
38.8246040344238

> <r_mmod_Bend_Energy-OPLS-2005>
118.631134033203

> <r_mmod_Torsional_Energy-OPLS-2005>
147.274200439453

> <r_mmod_Improper_Torsional_Energy-OPLS-2005>
2.64972710609436

> <r_mmod_Van_der_Waal_Energy-OPLS-2005>
144.192459106445

> <r_mmod_Electrostatic_Energy-OPLS-2005>
-442.722686767578

> <r_mmod_Solvation_Energy-OPLS-2005>
-291.666107177734

> <b_mmod_Minimization_Converged-OPLS-2005>
0

> <r_mmod_RMS_Derivative-OPLS-2005>
0.756384372711182

$$$$
8
                    3D
 Structure written by MMmdl.
173181  0  0  1  0            999 V2000
  -30.7418  -14.3763   20.6243 C   0  0  0  0  0  0
  -30.4103  -12.2660   19.3989 C   0  0  0  0  0  0
  -29.4835  -12.5248   18.1963 C   0  0  0  0  0  0
  -28.0069  -12.3853   18.6133 C   0  0  0  0  0  0
  -27.6704  -13.2030   19.8876 C   0  0  2  0  0  0
  -28.7094  -12.9342   21.0025 C   0  0  0  0  0  0
  -25.2613  -13.8140   20.5709 C   0  0  0  0  0  0
  -24.1863  -13.0422   20.9183 C   0  0  0  0  0  0
  -24.6426  -11.6882   20.8754 C   0  0  0  0  0  0
  -23.9080  -10.4281   21.0411 C   0  0  0  0  0  0
  -24.3632   -9.4180   21.9178 C   0  0  0  0  0  0
  -23.6303   -8.2220   22.0754 C   0  0  0  0  0  0
  -22.4277   -8.0267   21.3553 C   0  0  0  0  0  0
  -21.9930   -9.0240   20.4639 C   0  0  0  0  0  0
  -22.7268  -10.2118   20.3039 C   0  0  0  0  0  0
  -21.6850   -6.0729   22.5292 C   0  0  0  0  0  0
  -21.4018   -6.5631   23.8228 C   0  0  0  0  0  0
  -21.3669   -5.6790   24.9186 C   0  0  0  0  0  0
  -21.6048   -4.3053   24.7241 C   0  0  0  0  0  0
  -21.8825   -3.8143   23.4362 C   0  0  0  0  0  0
  -21.9207   -4.6958   22.3414 C   0  0  0  0  0  0
  -22.7885  -13.5196   21.1851 C   0  0  0  0  0  0
  -22.1663   -4.2136   21.0996 F   0  0  0  0  0  0
  -21.5621   -3.4537   25.7759 F   0  0  0  0  0  0
  -30.0537  -13.2161   20.4641 N   0  0  0  0  0  0
  -26.3081  -12.9332   20.3449 N   0  0  0  0  0  0
  -25.9353  -11.6483   20.5814 N   0  0  0  0  0  0
  -22.0549  -12.8162   22.0404 N   0  0  0  0  0  0
  -25.4332  -15.1866   20.4115 N   0  0  0  0  0  0
  -31.7920  -14.6342   20.0270 O   0  0  0  0  0  0
  -21.6634   -6.8862   21.4249 O   0  0  0  0  0  0
  -22.3558  -14.5532   20.6755 O   0  0  0  0  0  0
  -24.6110  -31.8733   23.2173 C   0  0  0  0  0  0
  -25.9009  -32.4844   23.8460 C   0  0  1  0  0  0
  -27.2257  -27.4606   20.0965 C   0  0  0  0  0  0
  -25.5866  -33.8664   24.2349 N   0  0  0  0  0  0
  -23.3965  -30.5042   21.5539 C   0  0  2  0  0  0
  -24.8388  -28.9771   20.1170 C   0  0  0  0  0  0
  -22.7401  -29.4706   22.4960 C   0  0  0  0  0  0
  -18.0273  -28.1413   22.8484 C   0  0  0  0  0  0
  -24.1461  -36.7369   23.2633 C   0  0  0  0  0  0
  -25.9276  -30.8396   21.3735 C   0  0  0  0  0  0
  -25.9999  -29.4816   20.7183 C   0  0  0  0  0  0
  -27.1967  -28.7338   20.7010 C   0  0  0  0  0  0
  -26.0457  -26.9733   19.4922 C   0  0  0  0  0  0
  -24.8559  -27.7172   19.5000 C   0  0  0  0  0  0
  -23.6054  -29.8478   20.1640 C   0  0  0  0  0  0
  -25.4089  -36.3154   24.0332 C   0  0  1  0  0  0
  -20.5862  -28.3711   23.1326 C   0  0  2  0  0  0
  -20.6748  -26.9455   22.5420 C   0  0  0  0  0  0
  -19.5719  -26.6406   21.5220 C   0  0  0  0  0  0
  -18.1909  -26.7939   22.1638 C   0  0  0  0  0  0
  -19.1532  -28.8879   23.2897 C   0  0  0  0  0  0
  -18.9458  -30.1471   23.8915 C   0  0  0  0  0  0
  -17.6471  -30.6610   24.0590 C   0  0  0  0  0  0
  -25.9029  -34.9514   23.5163 C   0  0  0  0  0  0
  -16.5358  -29.9123   23.6337 C   0  0  0  0  0  0
  -16.7270  -28.6563   23.0315 C   0  0  0  0  0  0
  -26.4444  -31.6650   25.0818 C   0  0  0  0  0  0
  -25.3729  -31.3764   26.1594 C   0  0  0  0  0  0
  -27.0278  -30.3069   24.6255 C   0  0  0  0  0  0
  -27.5987  -32.4429   25.7594 C   0  0  0  0  0  0
  -27.5578  -37.1851   24.8468 C   0  0  0  0  0  0
  -21.4138  -29.3090   22.3743 N   0  0  0  0  0  0
  -26.4273  -37.3844   23.9434 N   0  0  0  0  0  0
  -24.6625  -31.0884   22.1048 N   0  0  0  0  0  0
  -23.4235  -28.8216   23.2931 O   0  0  0  0  0  0
  -28.4044  -26.7461   20.1050 O   0  0  0  0  0  0
  -26.5638  -34.8949   22.4741 O   0  0  0  0  0  0
  -23.5299  -32.1481   23.7563 O   0  0  0  0  0  0
  -30.2009  -19.4531   20.8798 C   0  0  0  0  0  0
  -29.8242  -17.2057   20.0278 C   0  0  0  0  0  0
  -30.5695  -17.5245   22.3319 C   0  0  0  0  0  0
  -29.8189  -18.5986   19.8214 C   0  0  0  0  0  0
  -30.5827  -18.9236   22.1301 C   0  0  0  0  0  0
  -30.2092  -16.6613   21.2752 C   0  0  0  0  0  0
  -29.4602  -21.4664   17.5888 C   0  0  0  0  0  0
  -28.3950  -24.7867   18.6261 C   0  0  0  0  0  0
  -25.3957  -23.5228   18.7397 C   0  0  0  0  0  0
  -26.3292  -24.0446   16.4486 C   0  0  0  0  0  0
  -26.2526  -21.7040   17.3052 C   0  0  0  0  0  0
  -29.4260  -19.1393   18.4530 C   0  0  0  0  0  0
  -28.3019  -25.3156   20.0653 C   0  0  0  0  0  0
  -27.9494  -23.3271   18.3633 C   0  0  1  0  0  0
  -31.0036  -19.8818   23.2341 C   0  0  0  0  0  0
  -26.5122  -23.1731   17.7173 C   0  0  0  0  0  0
  -30.1931  -15.2569   21.4724 N   0  0  0  0  0  0
  -29.0073  -22.7326   17.5299 N   0  0  0  0  0  0
  -28.9973  -20.5412   18.4534 N   0  3  0  0  0  0
  -28.8563  -25.5058   17.7319 O   0  0  0  0  0  0
  -29.9601  -20.6285   23.5914 F   0  0  0  0  0  0
  -31.4589  -19.2396   24.3101 F   0  0  0  0  0  0
  -31.9673  -20.6912   22.7901 F   0  0  0  0  0  0
  -31.4544  -12.3516   19.0924 H   0  0  0  0  0  0
  -30.2867  -11.2413   19.7537 H   0  0  0  0  0  0
  -29.7128  -11.8295   17.3886 H   0  0  0  0  0  0
  -29.6648  -13.5253   17.7994 H   0  0  0  0  0  0
  -27.8085  -11.3289   18.7925 H   0  0  0  0  0  0
  -27.3511  -12.6818   17.7935 H   0  0  0  0  0  0
  -27.7309  -14.2592   19.6216 H   0  0  0  0  0  0
  -28.6566  -11.8910   21.3155 H   0  0  0  0  0  0
  -28.4701  -13.5105   21.8966 H   0  0  0  0  0  0
  -25.2777   -9.5633   22.4746 H   0  0  0  0  0  0
  -24.0005   -7.4601   22.7473 H   0  0  0  0  0  0
  -21.0856   -8.8764   19.8935 H   0  0  0  0  0  0
  -22.3740  -10.9651   19.6133 H   0  0  0  0  0  0
  -21.1995   -7.6138   23.9726 H   0  0  0  0  0  0
  -21.1490   -6.0517   25.9096 H   0  0  0  0  0  0
  -22.0603   -2.7605   23.2884 H   0  0  0  0  0  0
  -22.4191  -11.9779   22.4698 H   0  0  0  0  0  0
  -21.1177  -13.1163   22.2665 H   0  0  0  0  0  0
  -24.6676  -15.8419   20.5175 H   0  0  0  0  0  0
  -26.2950  -15.6305   20.1229 H   0  0  0  0  0  0
  -26.7076  -32.5528   23.1207 H   0  0  0  0  0  0
  -24.9938  -33.9863   25.0443 H   0  0  0  0  0  0
  -22.6844  -31.3224   21.4253 H   0  0  0  0  0  0
  -23.3707  -35.9717   23.3315 H   0  0  0  0  0  0
  -24.3519  -36.8987   22.2041 H   0  0  0  0  0  0
  -23.7246  -37.6584   23.6667 H   0  0  0  0  0  0
  -26.0534  -31.5997   20.6034 H   0  0  0  0  0  0
  -26.8123  -30.8813   21.9976 H   0  0  0  0  0  0
  -28.0955  -29.1252   21.1569 H   0  0  0  0  0  0
  -26.0341  -26.0297   18.9838 H   0  0  0  0  0  0
  -23.9686  -27.3199   19.0231 H   0  0  0  0  0  0
  -23.7203  -30.6324   19.4149 H   0  0  0  0  0  0
  -22.7263  -29.2808   19.8552 H   0  0  0  0  0  0
  -25.1238  -36.1994   25.0814 H   0  0  0  0  0  0
  -20.9936  -28.3239   24.1456 H   0  0  0  0  0  0
  -20.5639  -26.2347   23.3616 H   0  0  0  0  0  0
  -21.6627  -26.7483   22.1249 H   0  0  0  0  0  0
  -19.6878  -25.6312   21.1269 H   0  0  0  0  0  0
  -19.6607  -27.3204   20.6735 H   0  0  0  0  0  0
  -17.4175  -26.6671   21.4044 H   0  0  0  0  0  0
  -18.0325  -26.0073   22.9039 H   0  0  0  0  0  0
  -19.7941  -30.7273   24.2297 H   0  0  0  0  0  0
  -17.5041  -31.6282   24.5209 H   0  0  0  0  0  0
  -15.5371  -30.3043   23.7677 H   0  0  0  0  0  0
  -15.8654  -28.0923   22.6975 H   0  0  0  0  0  0
  -24.5823  -30.7180   25.7974 H   0  0  0  0  0  0
  -24.9001  -32.2913   26.5178 H   0  0  0  0  0  0
  -25.8080  -30.8847   27.0302 H   0  0  0  0  0  0
  -26.2851  -29.6861   24.1209 H   0  0  0  0  0  0
  -27.3887  -29.7284   25.4780 H   0  0  0  0  0  0
  -27.8770  -30.4378   23.9537 H   0  0  0  0  0  0
  -27.2537  -33.3672   26.2257 H   0  0  0  0  0  0
  -28.3742  -32.7115   25.0413 H   0  0  0  0  0  0
  -28.0730  -31.8543   26.5452 H   0  0  0  0  0  0
  -28.2612  -38.0135   24.7513 H   0  0  0  0  0  0
  -28.1042  -36.2679   24.6245 H   0  0  0  0  0  0
  -27.2325  -37.1471   25.8877 H   0  0  0  0  0  0
  -20.9281  -29.8865   21.7023 H   0  0  0  0  0  0
  -26.0134  -38.2922   24.1396 H   0  0  0  0  0  0
  -30.2180  -20.5257   20.7503 H   0  0  0  0  0  0
  -29.5403  -16.5511   19.2141 H   0  0  0  0  0  0
  -30.8637  -17.1196   23.2892 H   0  0  0  0  0  0
  -30.2581  -21.1906   16.9071 H   0  0  0  0  0  0
  -24.6827  -22.7062   18.8660 H   0  0  0  0  0  0
  -24.7973  -24.3753   18.4209 H   0  0  0  0  0  0
  -25.7794  -23.7305   19.7385 H   0  0  0  0  0  0
  -25.3536  -23.8744   15.9885 H   0  0  0  0  0  0
  -27.0820  -23.8177   15.6916 H   0  0  0  0  0  0
  -26.3928  -25.1137   16.6614 H   0  0  0  0  0  0
  -25.2528  -21.5761   16.8863 H   0  0  0  0  0  0
  -26.3188  -21.0340   18.1630 H   0  0  0  0  0  0
  -26.9453  -21.3498   16.5406 H   0  0  0  0  0  0
  -28.6120  -18.5366   18.0519 H   0  0  0  0  0  0
  -30.2614  -19.0111   17.7671 H   0  0  0  0  0  0
  -29.1306  -24.8929   20.6344 H   0  0  0  0  0  0
  -27.3905  -24.9700   20.5522 H   0  0  0  0  0  0
  -27.9592  -22.8036   19.3193 H   0  0  0  0  0  0
  -29.4769  -14.8921   22.0846 H   0  0  0  0  0  0
  -29.4901  -23.3843   16.9218 H   0  0  0  0  0  0
  -28.2616  -20.7702   19.1043 H   0  0  0  0  0  0
  1 25  1  0  0  0
  1 30  2  0  0  0
  1 87  1  0  0  0
  2  3  1  0  0  0
  2 25  1  0  0  0
  2 94  1  0  0  0
  2 95  1  0  0  0
  3  4  1  0  0  0
  3 96  1  0  0  0
  3 97  1  0  0  0
  4  5  1  0  0  0
  4 98  1  0  0  0
  4 99  1  0  0  0
  5  6  1  0  0  0
  5 26  1  0  0  0
  5100  1  0  0  0
  6 25  1  0  0  0
  6101  1  0  0  0
  6102  1  0  0  0
  7  8  2  0  0  0
  7 26  1  0  0  0
  7 29  1  0  0  0
  8  9  1  0  0  0
  8 22  1  0  0  0
  9 10  1  0  0  0
  9 27  2  0  0  0
 10 11  2  0  0  0
 10 15  1  0  0  0
 11 12  1  0  0  0
 11103  1  0  0  0
 12 13  2  0  0  0
 12104  1  0  0  0
 13 14  1  0  0  0
 13 31  1  0  0  0
 14 15  2  0  0  0
 14105  1  0  0  0
 15106  1  0  0  0
 16 17  2  0  0  0
 16 21  1  0  0  0
 16 31  1  0  0  0
 17 18  1  0  0  0
 17107  1  0  0  0
 18 19  2  0  0  0
 18108  1  0  0  0
 19 20  1  0  0  0
 19 24  1  0  0  0
 20 21  2  0  0  0
 20109  1  0  0  0
 21 23  1  0  0  0
 22 28  1  0  0  0
 22 32  2  0  0  0
 26 27  1  0  0  0
 28110  1  0  0  0
 28111  1  0  0  0
 29112  1  0  0  0
 29113  1  0  0  0
 33 34  1  0  0  0
 33 66  1  0  0  0
 33 70  2  0  0  0
 34 36  1  0  0  0
 34 59  1  0  0  0
 34114  1  0  0  0
 35 44  2  0  0  0
 35 45  1  0  0  0
 35 68  1  0  0  0
 36 56  1  0  0  0
 36115  1  0  0  0
 37 39  1  0  0  0
 37 47  1  0  0  0
 37 66  1  0  0  0
 37116  1  0  0  0
 38 43  2  0  0  0
 38 46  1  0  0  0
 38 47  1  0  0  0
 39 64  1  0  0  0
 39 67  2  0  0  0
 40 52  1  0  0  0
 40 53  2  0  0  0
 40 58  1  0  0  0
 41117  1  0  0  0
 41118  1  0  0  0
 41119  1  0  0  0
 41 48  1  0  0  0
 42 43  1  0  0  0
 42 66  1  0  0  0
 42120  1  0  0  0
 42121  1  0  0  0
 43 44  1  0  0  0
 44122  1  0  0  0
 45 46  2  0  0  0
 45123  1  0  0  0
 46124  1  0  0  0
 47125  1  0  0  0
 47126  1  0  0  0
 48 56  1  0  0  0
 48 65  1  0  0  0
 48127  1  0  0  0
 49 50  1  0  0  0
 49 53  1  0  0  0
 49 64  1  0  0  0
 49128  1  0  0  0
 50 51  1  0  0  0
 50129  1  0  0  0
 50130  1  0  0  0
 51 52  1  0  0  0
 51131  1  0  0  0
 51132  1  0  0  0
 52133  1  0  0  0
 52134  1  0  0  0
 53 54  1  0  0  0
 54 55  2  0  0  0
 54135  1  0  0  0
 55 57  1  0  0  0
 55136  1  0  0  0
 56 69  2  0  0  0
 57 58  2  0  0  0
 57137  1  0  0  0
 58138  1  0  0  0
 59 60  1  0  0  0
 59 61  1  0  0  0
 59 62  1  0  0  0
 60139  1  0  0  0
 60140  1  0  0  0
 60141  1  0  0  0
 61142  1  0  0  0
 61143  1  0  0  0
 61144  1  0  0  0
 62145  1  0  0  0
 62146  1  0  0  0
 62147  1  0  0  0
 63 65  1  0  0  0
 63148  1  0  0  0
 63149  1  0  0  0
 63150  1  0  0  0
 64151  1  0  0  0
 65152  1  0  0  0
 68 83  1  0  0  0
 71 74  2  0  0  0
 71 75  1  0  0  0
 71153  1  0  0  0
 72 74  1  0  0  0
 72 76  2  0  0  0
 72154  1  0  0  0
 73 75  2  0  0  0
 73 76  1  0  0  0
 73155  1  0  0  0
 74 82  1  0  0  0
 75 85  1  0  0  0
 76 87  1  0  0  0
 77 88  1  0  0  0
 77 89  2  0  0  0
 77156  1  0  0  0
 78 83  1  0  0  0
 78 84  1  0  0  0
 78 90  2  0  0  0
 79157  1  0  0  0
 79158  1  0  0  0
 79159  1  0  0  0
 79 86  1  0  0  0
 80 86  1  0  0  0
 80160  1  0  0  0
 80161  1  0  0  0
 80162  1  0  0  0
 81 86  1  0  0  0
 81163  1  0  0  0
 81164  1  0  0  0
 81165  1  0  0  0
 82 89  1  0  0  0
 82166  1  0  0  0
 82167  1  0  0  0
 83168  1  0  0  0
 83169  1  0  0  0
 84 86  1  0  0  0
 84 88  1  0  0  0
 84170  1  0  0  0
 85 91  1  0  0  0
 85 92  1  0  0  0
 85 93  1  0  0  0
 87171  1  0  0  0
 88172  1  0  0  0
 89173  1  0  0  0
M  CHG  1  89   1
M  ISO  4   1 100  68 101  83 101  87 100
M  END
> <chiral flag>
0

> <version>
0

> <s_m_source_file>
/data/baiqing/PycharmProjects/Reinvent-master-3.2/result/LINK_invent/BTK/process_docking_weight1_custom_product_contain_oxygen_bond_distance_aromatic_linkinvent_7_9_3/rearranged_h_0164.sdf

> <i_m_source_file_index>
9

> <r_mmod_Potential_Energy-OPLS-2005>
-115.850929260254

> <r_mmod_Stretch_Energy-OPLS-2005>
38.6696929931641

> <r_mmod_Bend_Energy-OPLS-2005>
103.670776367188

> <r_mmod_Torsional_Energy-OPLS-2005>
253.296829223633

> <r_mmod_Improper_Torsional_Energy-OPLS-2005>
3.61871743202209

> <r_mmod_Van_der_Waal_Energy-OPLS-2005>
167.350250244141

> <r_mmod_Electrostatic_Energy-OPLS-2005>
-215.749923706055

> <r_mmod_Solvation_Energy-OPLS-2005>
-475.144256591797

> <b_mmod_Minimization_Converged-OPLS-2005>
0

> <r_mmod_RMS_Derivative-OPLS-2005>
3.89589762687683

$$$$
9
                    3D
 Structure written by MMmdl.
151159  0  0  1  0            999 V2000
  -30.5864  -14.6455   20.5446 C   0  0  0  0  0  0
  -30.4566  -12.4076   19.4421 C   0  0  0  0  0  0
  -29.5139  -12.5268   18.2208 C   0  0  0  0  0  0
  -28.0350  -12.3590   18.6297 C   0  0  0  0  0  0
  -27.6617  -13.2089   19.8723 C   0  0  2  0  0  0
  -28.7066  -13.0132   20.9946 C   0  0  0  0  0  0
  -25.2605  -13.8159   20.5684 C   0  0  0  0  0  0
  -24.1851  -13.0440   20.9172 C   0  0  0  0  0  0
  -24.6403  -11.6905   20.8715 C   0  0  0  0  0  0
  -23.9063  -10.4297   21.0393 C   0  0  0  0  0  0
  -24.3615   -9.4216   21.9172 C   0  0  0  0  0  0
  -23.6292   -8.2252   22.0748 C   0  0  0  0  0  0
  -22.4274   -8.0286   21.3541 C   0  0  0  0  0  0
  -21.9906   -9.0261   20.4644 C   0  0  0  0  0  0
  -22.7234  -10.2140   20.3046 C   0  0  0  0  0  0
  -21.6856   -6.0738   22.5277 C   0  0  0  0  0  0
  -21.4022   -6.5641   23.8211 C   0  0  0  0  0  0
  -21.3657   -5.6789   24.9169 C   0  0  0  0  0  0
  -21.6042   -4.3052   24.7220 C   0  0  0  0  0  0
  -21.8823   -3.8146   23.4339 C   0  0  0  0  0  0
  -21.9198   -4.6964   22.3397 C   0  0  0  0  0  0
  -22.7875  -13.5248   21.1838 C   0  0  0  0  0  0
  -22.1665   -4.2150   21.0975 F   0  0  0  0  0  0
  -21.5623   -3.4536   25.7731 F   0  0  0  0  0  0
  -30.0244  -13.3958   20.4505 N   0  0  0  0  0  0
  -26.3033  -12.9321   20.3343 N   0  0  0  0  0  0
  -25.9333  -11.6483   20.5742 N   0  0  0  0  0  0
  -22.0504  -12.8250   22.0391 N   0  0  0  0  0  0
  -25.4348  -15.1880   20.4115 N   0  0  0  0  0  0
  -31.7069  -14.8911   20.0827 O   0  0  0  0  0  0
  -21.6640   -6.8882   21.4239 O   0  0  0  0  0  0
  -22.3566  -14.5555   20.6683 O   0  0  0  0  0  0
  -24.6254  -31.8591   23.2009 C   0  0  0  0  0  0
  -25.9099  -32.4778   23.8342 C   0  0  1  0  0  0
  -27.2356  -27.3190   20.1169 C   0  0  0  0  0  0
  -25.5909  -33.8579   24.2269 N   0  0  0  0  0  0
  -23.4198  -30.4806   21.5439 C   0  0  2  0  0  0
  -24.8664  -28.9281   20.1162 C   0  0  0  0  0  0
  -22.7467  -29.4621   22.4939 C   0  0  0  0  0  0
  -18.0285  -28.1391   22.8490 C   0  0  0  0  0  0
  -24.1484  -36.7296   23.2641 C   0  0  0  0  0  0
  -25.9594  -30.7907   21.3689 C   0  0  0  0  0  0
  -26.0343  -29.4156   20.7145 C   0  0  0  0  0  0
  -27.2193  -28.6235   20.7013 C   0  0  0  0  0  0
  -26.0393  -26.8739   19.5101 C   0  0  0  0  0  0
  -24.8704  -27.6621   19.5073 C   0  0  0  0  0  0
  -23.6346  -29.8098   20.1612 C   0  0  0  0  0  0
  -25.4112  -36.3085   24.0329 C   0  0  1  0  0  0
  -20.5884  -28.3691   23.1289 C   0  0  2  0  0  0
  -20.6775  -26.9415   22.5416 C   0  0  0  0  0  0
  -19.5747  -26.6388   21.5221 C   0  0  0  0  0  0
  -18.1929  -26.7934   22.1633 C   0  0  0  0  0  0
  -19.1537  -28.8857   23.2888 C   0  0  0  0  0  0
  -18.9461  -30.1462   23.8898 C   0  0  0  0  0  0
  -17.6460  -30.6591   24.0568 C   0  0  0  0  0  0
  -25.9048  -34.9454   23.5102 C   0  0  0  0  0  0
  -16.5354  -29.9093   23.6328 C   0  0  0  0  0  0
  -16.7273  -28.6514   23.0345 C   0  0  0  0  0  0
  -26.4484  -31.6588   25.0713 C   0  0  0  0  0  0
  -25.3717  -31.3732   26.1440 C   0  0  0  0  0  0
  -27.0323  -30.3010   24.6164 C   0  0  0  0  0  0
  -27.6042  -32.4320   25.7484 C   0  0  0  0  0  0
  -27.5577  -37.1803   24.8466 C   0  0  0  0  0  0
  -21.4182  -29.3044   22.3681 N   0  0  0  0  0  0
  -26.4288  -37.3779   23.9410 N   0  0  0  0  0  0
  -24.6875  -31.0595   22.0958 N   0  0  0  0  0  0
  -23.4190  -28.8169   23.3027 O   0  0  0  0  0  0
  -28.3947  -26.5274   20.1295 O   0  0  0  0  0  0
  -26.5629  -34.8923   22.4677 O   0  0  0  0  0  0
  -23.5415  -32.1388   23.7332 O   0  0  0  0  0  0
  -28.3582  -18.8450   21.3868 C   0  0  0  0  0  0
  -28.3880  -17.4378   21.6252 C   0  0  0  0  0  0
  -29.4855  -19.1531   20.6720 C   0  0  0  0  0  0
  -29.5230  -16.9370   21.0437 C   0  0  0  0  0  0
  -30.1151  -22.8450   19.8622 C   0  0  0  0  0  0
  -29.7437  -24.3849   19.7436 C   0  0  0  0  0  0
  -29.2114  -21.6575   20.3317 C   0  0  0  0  0  0
  -28.3518  -25.0363   20.0655 C   0  0  0  0  0  0
  -31.3115  -22.5369   19.5284 N   0  0  0  0  0  0
  -30.6401  -25.1993   19.3358 N   0  0  0  0  0  0
  -29.8551  -20.4332   20.2776 N   0  0  0  0  0  0
  -29.7727  -15.5734   21.1324 N   0  0  0  0  0  0
  -28.0429  -21.8217   20.6976 O   0  0  0  0  0  0
  -30.2363  -17.9787   20.4429 O   0  0  0  0  0  0
  -31.4921  -12.5659   19.1362 H   0  0  0  0  0  0
  -30.4198  -11.4003   19.8604 H   0  0  0  0  0  0
  -29.7794  -11.7842   17.4672 H   0  0  0  0  0  0
  -29.6509  -13.5011   17.7481 H   0  0  0  0  0  0
  -27.8677  -11.3026   18.8429 H   0  0  0  0  0  0
  -27.3808  -12.6065   17.7924 H   0  0  0  0  0  0
  -27.6940  -14.2527   19.5584 H   0  0  0  0  0  0
  -28.7260  -11.9703   21.3145 H   0  0  0  0  0  0
  -28.4359  -13.5768   21.8882 H   0  0  0  0  0  0
  -25.2761   -9.5700   22.4744 H   0  0  0  0  0  0
  -24.0001   -7.4651   22.7479 H   0  0  0  0  0  0
  -21.0826   -8.8782   19.8964 H   0  0  0  0  0  0
  -22.3686  -10.9676   19.6154 H   0  0  0  0  0  0
  -21.2020   -7.6150   23.9715 H   0  0  0  0  0  0
  -21.1471   -6.0516   25.9071 H   0  0  0  0  0  0
  -22.0603   -2.7609   23.2835 H   0  0  0  0  0  0
  -22.4106  -11.9913   22.4795 H   0  0  0  0  0  0
  -21.1125  -13.1295   22.2586 H   0  0  0  0  0  0
  -24.6679  -15.8438   20.5150 H   0  0  0  0  0  0
  -26.2842  -15.6239   20.0753 H   0  0  0  0  0  0
  -26.7172  -32.5445   23.1096 H   0  0  0  0  0  0
  -25.0028  -33.9727   25.0393 H   0  0  0  0  0  0
  -22.7140  -31.3012   21.3994 H   0  0  0  0  0  0
  -23.3742  -35.9632   23.3306 H   0  0  0  0  0  0
  -24.3576  -36.8915   22.2055 H   0  0  0  0  0  0
  -23.7238  -37.6500   23.6660 H   0  0  0  0  0  0
  -26.0856  -31.5518   20.5973 H   0  0  0  0  0  0
  -26.8421  -30.8442   21.9951 H   0  0  0  0  0  0
  -28.1197  -29.0002   21.1661 H   0  0  0  0  0  0
  -25.9809  -25.9122   19.0253 H   0  0  0  0  0  0
  -23.9734  -27.2814   19.0379 H   0  0  0  0  0  0
  -23.7552  -30.5844   19.4033 H   0  0  0  0  0  0
  -22.7540  -29.2398   19.8593 H   0  0  0  0  0  0
  -25.1289  -36.1939   25.0821 H   0  0  0  0  0  0
  -20.9988  -28.3272   24.1404 H   0  0  0  0  0  0
  -20.5687  -26.2303   23.3618 H   0  0  0  0  0  0
  -21.6643  -26.7452   22.1203 H   0  0  0  0  0  0
  -19.6910  -25.6300   21.1246 H   0  0  0  0  0  0
  -19.6682  -27.3203   20.6754 H   0  0  0  0  0  0
  -17.4199  -26.6680   21.4035 H   0  0  0  0  0  0
  -18.0328  -26.0082   22.9034 H   0  0  0  0  0  0
  -19.7936  -30.7282   24.2263 H   0  0  0  0  0  0
  -17.5014  -31.6270   24.5174 H   0  0  0  0  0  0
  -15.5352  -30.2998   23.7647 H   0  0  0  0  0  0
  -15.8676  -28.0841   22.7043 H   0  0  0  0  0  0
  -24.5885  -30.7093   25.7761 H   0  0  0  0  0  0
  -24.8922  -32.2908   26.4860 H   0  0  0  0  0  0
  -25.8038  -30.8905   27.0215 H   0  0  0  0  0  0
  -26.2900  -29.6767   24.1178 H   0  0  0  0  0  0
  -27.4010  -29.7257   25.4667 H   0  0  0  0  0  0
  -27.8769  -30.4294   23.9390 H   0  0  0  0  0  0
  -27.2649  -33.3614   26.2070 H   0  0  0  0  0  0
  -28.3845  -32.6893   25.0310 H   0  0  0  0  0  0
  -28.0717  -31.8444   26.5395 H   0  0  0  0  0  0
  -28.2595  -38.0097   24.7507 H   0  0  0  0  0  0
  -28.1068  -36.2628   24.6292 H   0  0  0  0  0  0
  -27.2298  -37.1457   25.8870 H   0  0  0  0  0  0
  -20.9355  -29.8761   21.6889 H   0  0  0  0  0  0
  -26.0167  -38.2852   24.1415 H   0  0  0  0  0  0
  -27.5984  -19.5370   21.7197 H   0  0  0  0  0  0
  -27.6475  -16.8654   22.1671 H   0  0  0  0  0  0
  -27.9887  -24.6507   21.0182 H   0  0  0  0  0  0
  -27.6640  -24.6896   19.2972 H   0  0  0  0  0  0
  -31.8312  -23.3512   19.2353 H   0  0  0  0  0  0
  -31.5171  -24.7415   19.1330 H   0  0  0  0  0  0
  -30.7914  -20.5405   19.9022 H   0  0  0  0  0  0
  -29.0189  -15.0896   21.5947 H   0  0  0  0  0  0
  1 25  1  0  0  0
  1 30  2  0  0  0
  1 82  1  0  0  0
  2  3  1  0  0  0
  2 25  1  0  0  0
  2 85  1  0  0  0
  2 86  1  0  0  0
  3  4  1  0  0  0
  3 87  1  0  0  0
  3 88  1  0  0  0
  4  5  1  0  0  0
  4 89  1  0  0  0
  4 90  1  0  0  0
  5  6  1  0  0  0
  5 26  1  0  0  0
  5 91  1  0  0  0
  6 25  1  0  0  0
  6 92  1  0  0  0
  6 93  1  0  0  0
  7  8  2  0  0  0
  7 26  1  0  0  0
  7 29  1  0  0  0
  8  9  1  0  0  0
  8 22  1  0  0  0
  9 10  1  0  0  0
  9 27  2  0  0  0
 10 11  2  0  0  0
 10 15  1  0  0  0
 11 12  1  0  0  0
 11 94  1  0  0  0
 12 13  2  0  0  0
 12 95  1  0  0  0
 13 14  1  0  0  0
 13 31  1  0  0  0
 14 15  2  0  0  0
 14 96  1  0  0  0
 15 97  1  0  0  0
 16 17  2  0  0  0
 16 21  1  0  0  0
 16 31  1  0  0  0
 17 18  1  0  0  0
 17 98  1  0  0  0
 18 19  2  0  0  0
 18 99  1  0  0  0
 19 20  1  0  0  0
 19 24  1  0  0  0
 20 21  2  0  0  0
 20100  1  0  0  0
 21 23  1  0  0  0
 22 28  1  0  0  0
 22 32  2  0  0  0
 26 27  1  0  0  0
 28101  1  0  0  0
 28102  1  0  0  0
 29103  1  0  0  0
 29104  1  0  0  0
 33 34  1  0  0  0
 33 66  1  0  0  0
 33 70  2  0  0  0
 34 36  1  0  0  0
 34 59  1  0  0  0
 34105  1  0  0  0
 35 44  2  0  0  0
 35 45  1  0  0  0
 35 68  1  0  0  0
 36 56  1  0  0  0
 36106  1  0  0  0
 37 39  1  0  0  0
 37 47  1  0  0  0
 37 66  1  0  0  0
 37107  1  0  0  0
 38 43  2  0  0  0
 38 46  1  0  0  0
 38 47  1  0  0  0
 39 64  1  0  0  0
 39 67  2  0  0  0
 40 52  1  0  0  0
 40 53  2  0  0  0
 40 58  1  0  0  0
 41108  1  0  0  0
 41109  1  0  0  0
 41110  1  0  0  0
 41 48  1  0  0  0
 42 43  1  0  0  0
 42 66  1  0  0  0
 42111  1  0  0  0
 42112  1  0  0  0
 43 44  1  0  0  0
 44113  1  0  0  0
 45 46  2  0  0  0
 45114  1  0  0  0
 46115  1  0  0  0
 47116  1  0  0  0
 47117  1  0  0  0
 48 56  1  0  0  0
 48 65  1  0  0  0
 48118  1  0  0  0
 49 50  1  0  0  0
 49 53  1  0  0  0
 49 64  1  0  0  0
 49119  1  0  0  0
 50 51  1  0  0  0
 50120  1  0  0  0
 50121  1  0  0  0
 51 52  1  0  0  0
 51122  1  0  0  0
 51123  1  0  0  0
 52124  1  0  0  0
 52125  1  0  0  0
 53 54  1  0  0  0
 54 55  2  0  0  0
 54126  1  0  0  0
 55 57  1  0  0  0
 55127  1  0  0  0
 56 69  2  0  0  0
 57 58  2  0  0  0
 57128  1  0  0  0
 58129  1  0  0  0
 59 60  1  0  0  0
 59 61  1  0  0  0
 59 62  1  0  0  0
 60130  1  0  0  0
 60131  1  0  0  0
 60132  1  0  0  0
 61133  1  0  0  0
 61134  1  0  0  0
 61135  1  0  0  0
 62136  1  0  0  0
 62137  1  0  0  0
 62138  1  0  0  0
 63 65  1  0  0  0
 63139  1  0  0  0
 63140  1  0  0  0
 63141  1  0  0  0
 64142  1  0  0  0
 65143  1  0  0  0
 68 78  1  0  0  0
 71 72  1  0  0  0
 71 73  2  0  0  0
 71144  1  0  0  0
 72 74  2  0  0  0
 72145  1  0  0  0
 73 81  1  0  0  0
 73 84  1  0  0  0
 74 82  1  0  0  0
 74 84  1  0  0  0
 75 76  1  0  0  0
 75 77  1  0  0  0
 75 79  2  0  0  0
 76 78  1  0  0  0
 76 80  2  0  0  0
 77 81  1  0  0  0
 77 83  2  0  0  0
 78146  1  0  0  0
 78147  1  0  0  0
 79148  1  0  0  0
 80149  1  0  0  0
 81150  1  0  0  0
 82151  1  0  0  0
M  ISO  4   1 100  68 101  78 101  82 100
M  END
> <chiral flag>
0

> <version>
0

> <s_m_source_file>
/data/baiqing/PycharmProjects/Reinvent-master-3.2/result/LINK_invent/BTK/process_docking_weight1_custom_product_contain_oxygen_bond_distance_aromatic_linkinvent_7_9_3/rearranged_h_0164.sdf

> <i_m_source_file_index>
10

> <r_mmod_Potential_Energy-OPLS-2005>
99.158561706543

> <r_mmod_Stretch_Energy-OPLS-2005>
94.7883377075195

> <r_mmod_Bend_Energy-OPLS-2005>
207.021224975586

> <r_mmod_Torsional_Energy-OPLS-2005>
208.929306030273

> <r_mmod_Improper_Torsional_Energy-OPLS-2005>
3.2819185256958

> <r_mmod_Van_der_Waal_Energy-OPLS-2005>
139.065307617188

> <r_mmod_Electrostatic_Energy-OPLS-2005>
-347.821105957031

> <r_mmod_Solvation_Energy-OPLS-2005>
-252.826599121094

> <b_mmod_Minimization_Converged-OPLS-2005>
0

> <r_mmod_RMS_Derivative-OPLS-2005>
0.786470353603363

$$$$
10
                    3D
 Structure written by MMmdl.
163172  0  0  1  0            999 V2000
  -30.6581  -14.5191   20.5857 C   0  0  0  0  0  0
  -30.4427  -12.3401   19.4231 C   0  0  0  0  0  0
  -29.5032  -12.5174   18.2087 C   0  0  0  0  0  0
  -28.0240  -12.3661   18.6197 C   0  0  0  0  0  0
  -27.6665  -13.2018   19.8773 C   0  0  2  0  0  0
  -28.7087  -12.9677   20.9954 C   0  0  0  0  0  0
  -25.2617  -13.8143   20.5646 C   0  0  0  0  0  0
  -24.1861  -13.0442   20.9172 C   0  0  0  0  0  0
  -24.6400  -11.6904   20.8741 C   0  0  0  0  0  0
  -23.9056  -10.4296   21.0419 C   0  0  0  0  0  0
  -24.3609   -9.4205   21.9189 C   0  0  0  0  0  0
  -23.6287   -8.2240   22.0755 C   0  0  0  0  0  0
  -22.4271   -8.0276   21.3545 C   0  0  0  0  0  0
  -21.9908   -9.0256   20.4654 C   0  0  0  0  0  0
  -22.7228  -10.2138   20.3070 C   0  0  0  0  0  0
  -21.6848   -6.0728   22.5275 C   0  0  0  0  0  0
  -21.4009   -6.5636   23.8206 C   0  0  0  0  0  0
  -21.3659   -5.6789   24.9170 C   0  0  0  0  0  0
  -21.6047   -4.3053   24.7223 C   0  0  0  0  0  0
  -21.8822   -3.8142   23.4347 C   0  0  0  0  0  0
  -21.9192   -4.6956   22.3401 C   0  0  0  0  0  0
  -22.7886  -13.5256   21.1834 C   0  0  0  0  0  0
  -22.1654   -4.2142   21.0980 F   0  0  0  0  0  0
  -21.5640   -3.4540   25.7734 F   0  0  0  0  0  0
  -30.0405  -13.3085   20.4568 N   0  0  0  0  0  0
  -26.3052  -12.9299   20.3359 N   0  0  0  0  0  0
  -25.9327  -11.6470   20.5768 N   0  0  0  0  0  0
  -22.0524  -12.8256   22.0395 N   0  0  0  0  0  0
  -25.4354  -15.1851   20.3980 N   0  0  0  0  0  0
  -31.7563  -14.7708   20.0806 O   0  0  0  0  0  0
  -21.6642   -6.8868   21.4236 O   0  0  0  0  0  0
  -22.3581  -14.5564   20.6679 O   0  0  0  0  0  0
  -24.6213  -31.8651   23.2098 C   0  0  0  0  0  0
  -25.9087  -32.4804   23.8395 C   0  0  1  0  0  0
  -27.2237  -27.3757   20.0757 C   0  0  0  0  0  0
  -25.5928  -33.8606   24.2316 N   0  0  0  0  0  0
  -23.4104  -30.4947   21.5528 C   0  0  2  0  0  0
  -24.8509  -28.9635   20.1135 C   0  0  0  0  0  0
  -22.7443  -29.4660   22.4965 C   0  0  0  0  0  0
  -18.0285  -28.1375   22.8490 C   0  0  0  0  0  0
  -24.1490  -36.7310   23.2636 C   0  0  0  0  0  0
  -25.9498  -30.8090   21.3766 C   0  0  0  0  0  0
  -26.0195  -29.4434   20.7147 C   0  0  0  0  0  0
  -27.2027  -28.6559   20.6983 C   0  0  0  0  0  0
  -26.0178  -26.9338   19.4724 C   0  0  0  0  0  0
  -24.8480  -27.7085   19.4946 C   0  0  0  0  0  0
  -23.6201  -29.8394   20.1646 C   0  0  0  0  0  0
  -25.4114  -36.3098   24.0328 C   0  0  1  0  0  0
  -20.5881  -28.3677   23.1288 C   0  0  2  0  0  0
  -20.6773  -26.9404   22.5405 C   0  0  0  0  0  0
  -19.5749  -26.6382   21.5205 C   0  0  0  0  0  0
  -18.1932  -26.7918   22.1626 C   0  0  0  0  0  0
  -19.1535  -28.8844   23.2887 C   0  0  0  0  0  0
  -18.9460  -30.1448   23.8899 C   0  0  0  0  0  0
  -17.6461  -30.6579   24.0565 C   0  0  0  0  0  0
  -25.9045  -34.9464   23.5115 C   0  0  0  0  0  0
  -16.5353  -29.9080   23.6326 C   0  0  0  0  0  0
  -16.7275  -28.6498   23.0348 C   0  0  0  0  0  0
  -26.4487  -31.6598   25.0745 C   0  0  0  0  0  0
  -25.3742  -31.3749   26.1495 C   0  0  0  0  0  0
  -27.0305  -30.3018   24.6173 C   0  0  0  0  0  0
  -27.6065  -32.4319   25.7496 C   0  0  0  0  0  0
  -27.5582  -37.1810   24.8465 C   0  0  0  0  0  0
  -21.4166  -29.3044   22.3694 N   0  0  0  0  0  0
  -26.4299  -37.3783   23.9400 N   0  0  0  0  0  0
  -24.6796  -31.0711   22.1035 N   0  0  0  0  0  0
  -23.4191  -28.8188   23.3017 O   0  0  0  0  0  0
  -28.3845  -26.5973   20.1163 O   0  0  0  0  0  0
  -26.5600  -34.8917   22.4670 O   0  0  0  0  0  0
  -23.5390  -32.1435   23.7452 O   0  0  0  0  0  0
  -28.5784  -17.4623   21.4182 C   0  0  0  0  0  0
  -30.7815  -17.7252   20.4890 C   0  0  0  0  0  0
  -29.7978  -16.8628   21.0394 C   0  0  0  0  0  0
  -28.3588  -18.8361   21.1906 C   0  0  0  0  0  0
  -29.3802  -19.6116   20.5969 C   0  0  0  0  0  0
  -29.7711  -21.6611   19.0041 C   0  0  0  0  0  0
  -29.3782  -22.1239   21.4221 C   0  0  0  0  0  0
  -29.2238  -23.0691   18.6426 C   0  0  0  0  0  0
  -28.7976  -23.5346   21.0827 C   0  0  0  0  0  0
  -29.1121  -21.1120   20.2842 C   0  0  2  0  0  0
  -29.3364  -24.1585   19.7590 C   0  0  2  0  0  0
  -31.1720  -25.4853   20.6667 C   0  0  0  0  0  0
  -28.5293  -25.4247   19.2599 C   0  0  0  0  0  0
  -30.5892  -19.0634   20.2931 N   0  0  0  0  0  0
  -29.9337  -15.4427   21.2548 N   0  0  0  0  0  0
  -30.7439  -24.4078   19.8404 O   0  0  0  0  0  0
  -27.1702  -19.3922   21.5315 F   0  0  0  0  0  0
  -31.4836  -12.4707   19.1207 H   0  0  0  0  0  0
  -30.3725  -11.3249   19.8163 H   0  0  0  0  0  0
  -29.7504  -11.7909   17.4334 H   0  0  0  0  0  0
  -29.6593  -13.5014   17.7637 H   0  0  0  0  0  0
  -27.8409  -11.3086   18.8133 H   0  0  0  0  0  0
  -27.3712  -12.6369   17.7885 H   0  0  0  0  0  0
  -27.7139  -14.2517   19.5873 H   0  0  0  0  0  0
  -28.6983  -11.9210   21.3037 H   0  0  0  0  0  0
  -28.4509  -13.5282   21.8947 H   0  0  0  0  0  0
  -25.2756   -9.5675   22.4757 H   0  0  0  0  0  0
  -24.0000   -7.4628   22.7468 H   0  0  0  0  0  0
  -21.0840   -8.8771   19.8957 H   0  0  0  0  0  0
  -22.3684  -10.9680   19.6187 H   0  0  0  0  0  0
  -21.1990   -7.6140   23.9707 H   0  0  0  0  0  0
  -21.1483   -6.0519   25.9072 H   0  0  0  0  0  0
  -22.0601   -2.7605   23.2849 H   0  0  0  0  0  0
  -22.4142  -11.9929   22.4800 H   0  0  0  0  0  0
  -21.1147  -13.1295   22.2598 H   0  0  0  0  0  0
  -24.6618  -15.8350   20.4772 H   0  0  0  0  0  0
  -26.2645  -15.6059   19.9987 H   0  0  0  0  0  0
  -26.7156  -32.5480   23.1148 H   0  0  0  0  0  0
  -25.0094  -33.9764   25.0472 H   0  0  0  0  0  0
  -22.7022  -31.3146   21.4174 H   0  0  0  0  0  0
  -23.3734  -35.9662   23.3323 H   0  0  0  0  0  0
  -24.3577  -36.8901   22.2045 H   0  0  0  0  0  0
  -23.7265  -37.6533   23.6633 H   0  0  0  0  0  0
  -26.0791  -31.5773   20.6128 H   0  0  0  0  0  0
  -26.8316  -30.8497   22.0044 H   0  0  0  0  0  0
  -28.1013  -29.0237   21.1733 H   0  0  0  0  0  0
  -25.8972  -25.9844   18.9817 H   0  0  0  0  0  0
  -23.9472  -27.3288   19.0321 H   0  0  0  0  0  0
  -23.7387  -30.6211   19.4134 H   0  0  0  0  0  0
  -22.7401  -29.2702   19.8603 H   0  0  0  0  0  0
  -25.1294  -36.1961   25.0823 H   0  0  0  0  0  0
  -20.9979  -28.3243   24.1406 H   0  0  0  0  0  0
  -20.5671  -26.2287   23.3601 H   0  0  0  0  0  0
  -21.6641  -26.7432   22.1198 H   0  0  0  0  0  0
  -19.6909  -25.6291   21.1236 H   0  0  0  0  0  0
  -19.6692  -27.3194   20.6736 H   0  0  0  0  0  0
  -17.4199  -26.6662   21.4031 H   0  0  0  0  0  0
  -18.0348  -26.0058   22.9025 H   0  0  0  0  0  0
  -19.7938  -30.7262   24.2269 H   0  0  0  0  0  0
  -17.5016  -31.6257   24.5169 H   0  0  0  0  0  0
  -15.5353  -30.2983   23.7642 H   0  0  0  0  0  0
  -15.8678  -28.0818   22.7053 H   0  0  0  0  0  0
  -24.5885  -30.7126   25.7845 H   0  0  0  0  0  0
  -24.8975  -32.2930   26.4942 H   0  0  0  0  0  0
  -25.8081  -30.8913   27.0256 H   0  0  0  0  0  0
  -26.2859  -29.6788   24.1202 H   0  0  0  0  0  0
  -27.4012  -29.7256   25.4660 H   0  0  0  0  0  0
  -27.8733  -30.4302   23.9377 H   0  0  0  0  0  0
  -27.2690  -33.3625   26.2070 H   0  0  0  0  0  0
  -28.3869  -32.6865   25.0314 H   0  0  0  0  0  0
  -28.0731  -31.8443   26.5412 H   0  0  0  0  0  0
  -28.2616  -38.0089   24.7473 H   0  0  0  0  0  0
  -28.1056  -36.2616   24.6335 H   0  0  0  0  0  0
  -27.2291  -37.1514   25.8867 H   0  0  0  0  0  0
  -20.9325  -29.8791   21.6936 H   0  0  0  0  0  0
  -26.0185  -38.2863   24.1386 H   0  0  0  0  0  0
  -27.7919  -16.8697   21.8631 H   0  0  0  0  0  0
  -31.7511  -17.3503   20.1998 H   0  0  0  0  0  0
  -30.8538  -21.6987   19.1293 H   0  0  0  0  0  0
  -29.5797  -20.9800   18.1743 H   0  0  0  0  0  0
  -28.9121  -21.7637   22.3398 H   0  0  0  0  0  0
  -30.4483  -22.1890   21.6232 H   0  0  0  0  0  0
  -28.1759  -22.9444   18.3649 H   0  0  0  0  0  0
  -29.7186  -23.4225   17.7369 H   0  0  0  0  0  0
  -28.9557  -24.2118   21.9209 H   0  0  0  0  0  0
  -27.7132  -23.4433   21.0013 H   0  0  0  0  0  0
  -28.0388  -21.1461   20.0924 H   0  0  0  0  0  0
  -32.2611  -25.4926   20.7044 H   0  0  0  0  0  0
  -30.8141  -25.3966   21.6915 H   0  0  0  0  0  0
  -30.8651  -26.4506   20.2658 H   0  0  0  0  0  0
  -27.5732  -25.0034   18.9858 H   0  0  0  0  0  0
  -28.9619  -25.7739   18.3215 H   0  0  0  0  0  0
  -29.1508  -15.0189   21.7305 H   0  0  0  0  0  0
  1 25  1  0  0  0
  1 30  2  0  0  0
  1 85  1  0  0  0
  2  3  1  0  0  0
  2 25  1  0  0  0
  2 88  1  0  0  0
  2 89  1  0  0  0
  3  4  1  0  0  0
  3 90  1  0  0  0
  3 91  1  0  0  0
  4  5  1  0  0  0
  4 92  1  0  0  0
  4 93  1  0  0  0
  5  6  1  0  0  0
  5 26  1  0  0  0
  5 94  1  0  0  0
  6 25  1  0  0  0
  6 95  1  0  0  0
  6 96  1  0  0  0
  7  8  2  0  0  0
  7 26  1  0  0  0
  7 29  1  0  0  0
  8  9  1  0  0  0
  8 22  1  0  0  0
  9 10  1  0  0  0
  9 27  2  0  0  0
 10 11  2  0  0  0
 10 15  1  0  0  0
 11 12  1  0  0  0
 11 97  1  0  0  0
 12 13  2  0  0  0
 12 98  1  0  0  0
 13 14  1  0  0  0
 13 31  1  0  0  0
 14 15  2  0  0  0
 14 99  1  0  0  0
 15100  1  0  0  0
 16 17  2  0  0  0
 16 21  1  0  0  0
 16 31  1  0  0  0
 17 18  1  0  0  0
 17101  1  0  0  0
 18 19  2  0  0  0
 18102  1  0  0  0
 19 20  1  0  0  0
 19 24  1  0  0  0
 20 21  2  0  0  0
 20103  1  0  0  0
 21 23  1  0  0  0
 22 28  1  0  0  0
 22 32  2  0  0  0
 26 27  1  0  0  0
 28104  1  0  0  0
 28105  1  0  0  0
 29106  1  0  0  0
 29107  1  0  0  0
 33 34  1  0  0  0
 33 66  1  0  0  0
 33 70  2  0  0  0
 34 36  1  0  0  0
 34 59  1  0  0  0
 34108  1  0  0  0
 35 44  2  0  0  0
 35 45  1  0  0  0
 35 68  1  0  0  0
 36 56  1  0  0  0
 36109  1  0  0  0
 37 39  1  0  0  0
 37 47  1  0  0  0
 37 66  1  0  0  0
 37110  1  0  0  0
 38 43  2  0  0  0
 38 46  1  0  0  0
 38 47  1  0  0  0
 39 64  1  0  0  0
 39 67  2  0  0  0
 40 52  1  0  0  0
 40 53  2  0  0  0
 40 58  1  0  0  0
 41111  1  0  0  0
 41112  1  0  0  0
 41113  1  0  0  0
 41 48  1  0  0  0
 42 43  1  0  0  0
 42 66  1  0  0  0
 42114  1  0  0  0
 42115  1  0  0  0
 43 44  1  0  0  0
 44116  1  0  0  0
 45 46  2  0  0  0
 45117  1  0  0  0
 46118  1  0  0  0
 47119  1  0  0  0
 47120  1  0  0  0
 48 56  1  0  0  0
 48 65  1  0  0  0
 48121  1  0  0  0
 49 50  1  0  0  0
 49 53  1  0  0  0
 49 64  1  0  0  0
 49122  1  0  0  0
 50 51  1  0  0  0
 50123  1  0  0  0
 50124  1  0  0  0
 51 52  1  0  0  0
 51125  1  0  0  0
 51126  1  0  0  0
 52127  1  0  0  0
 52128  1  0  0  0
 53 54  1  0  0  0
 54 55  2  0  0  0
 54129  1  0  0  0
 55 57  1  0  0  0
 55130  1  0  0  0
 56 69  2  0  0  0
 57 58  2  0  0  0
 57131  1  0  0  0
 58132  1  0  0  0
 59 60  1  0  0  0
 59 61  1  0  0  0
 59 62  1  0  0  0
 60133  1  0  0  0
 60134  1  0  0  0
 60135  1  0  0  0
 61136  1  0  0  0
 61137  1  0  0  0
 61138  1  0  0  0
 62139  1  0  0  0
 62140  1  0  0  0
 62141  1  0  0  0
 63 65  1  0  0  0
 63142  1  0  0  0
 63143  1  0  0  0
 63144  1  0  0  0
 64145  1  0  0  0
 65146  1  0  0  0
 68 83  1  0  0  0
 71 73  2  0  0  0
 71 74  1  0  0  0
 71147  1  0  0  0
 72 73  1  0  0  0
 72 84  2  0  0  0
 72148  1  0  0  0
 73 85  1  0  0  0
 74 75  2  0  0  0
 74 87  1  0  0  0
 75 84  1  0  0  0
 75 80  1  0  0  0
 76 78  1  0  0  0
 76 80  1  0  0  0
 76149  1  0  0  0
 76150  1  0  0  0
 77 79  1  0  0  0
 77 80  1  0  0  0
 77151  1  0  0  0
 77152  1  0  0  0
 78 81  1  0  0  0
 78153  1  0  0  0
 78154  1  0  0  0
 79 81  1  0  0  0
 79155  1  0  0  0
 79156  1  0  0  0
 80157  1  0  0  0
 81 83  1  0  0  0
 81 86  1  0  0  0
 82 86  1  0  0  0
 82158  1  0  0  0
 82159  1  0  0  0
 82160  1  0  0  0
 83161  1  0  0  0
 83162  1  0  0  0
 85163  1  0  0  0
M  ISO  4   1 100  68 101  83 101  85 100
M  END
> <chiral flag>
0

> <version>
0

> <s_m_source_file>
/data/baiqing/PycharmProjects/Reinvent-master-3.2/result/LINK_invent/BTK/process_docking_weight1_custom_product_contain_oxygen_bond_distance_aromatic_linkinvent_7_9_3/rearranged_h_0164.sdf

> <i_m_source_file_index>
11

> <r_mmod_Potential_Energy-OPLS-2005>
-65.5529708862305

> <r_mmod_Stretch_Energy-OPLS-2005>
56.0373001098633

> <r_mmod_Bend_Energy-OPLS-2005>
145.482681274414

> <r_mmod_Torsional_Energy-OPLS-2005>
230.266403198242

> <r_mmod_Improper_Torsional_Energy-OPLS-2005>
4.23094367980957

> <r_mmod_Van_der_Waal_Energy-OPLS-2005>
161.623992919922

> <r_mmod_Electrostatic_Energy-OPLS-2005>
-469.355133056641

> <r_mmod_Solvation_Energy-OPLS-2005>
-215.976669311523

> <b_mmod_Minimization_Converged-OPLS-2005>
0

> <r_mmod_RMS_Derivative-OPLS-2005>
1.05749428272247

$$$$
11
                    3D
 Structure written by MMmdl.
157165  0  0  1  0            999 V2000
  -30.6257  -14.4768   20.5391 C   0  0  0  0  0  0
  -30.4206  -12.2852   19.4223 C   0  0  0  0  0  0
  -29.4990  -12.5167   18.2060 C   0  0  0  0  0  0
  -28.0132  -12.3839   18.6088 C   0  0  0  0  0  0
  -27.6639  -13.1913   19.8884 C   0  0  2  0  0  0
  -28.7032  -12.9194   21.0030 C   0  0  0  0  0  0
  -25.2612  -13.8121   20.5677 C   0  0  0  0  0  0
  -24.1841  -13.0402   20.9186 C   0  0  0  0  0  0
  -24.6366  -11.6874   20.8719 C   0  0  0  0  0  0
  -23.9015  -10.4272   21.0382 C   0  0  0  0  0  0
  -24.3587   -9.4209   21.9155 C   0  0  0  0  0  0
  -23.6295   -8.2230   22.0731 C   0  0  0  0  0  0
  -22.4277   -8.0254   21.3530 C   0  0  0  0  0  0
  -21.9876   -9.0218   20.4639 C   0  0  0  0  0  0
  -22.7173  -10.2118   20.3056 C   0  0  0  0  0  0
  -21.6858   -6.0723   22.5282 C   0  0  0  0  0  0
  -21.4013   -6.5631   23.8208 C   0  0  0  0  0  0
  -21.3672   -5.6786   24.9172 C   0  0  0  0  0  0
  -21.6059   -4.3049   24.7226 C   0  0  0  0  0  0
  -21.8820   -3.8135   23.4351 C   0  0  0  0  0  0
  -21.9204   -4.6948   22.3407 C   0  0  0  0  0  0
  -22.7882  -13.5242   21.1869 C   0  0  0  0  0  0
  -22.1667   -4.2142   21.0973 F   0  0  0  0  0  0
  -21.5642   -3.4530   25.7735 F   0  0  0  0  0  0
  -30.0331  -13.2521   20.4643 N   0  0  0  0  0  0
  -26.3012  -12.9242   20.3402 N   0  0  0  0  0  0
  -25.9280  -11.6409   20.5743 N   0  0  0  0  0  0
  -22.0516  -12.8213   22.0424 N   0  0  0  0  0  0
  -25.4313  -15.1828   20.4057 N   0  0  0  0  0  0
  -31.7269  -14.7237   20.0375 O   0  0  0  0  0  0
  -21.6649   -6.8856   21.4241 O   0  0  0  0  0  0
  -22.3553  -14.5535   20.6715 O   0  0  0  0  0  0
  -24.6193  -31.8659   23.1974 C   0  0  0  0  0  0
  -25.9053  -32.4791   23.8319 C   0  0  1  0  0  0
  -27.2511  -27.4122   20.0767 C   0  0  0  0  0  0
  -25.5896  -33.8599   24.2258 N   0  0  0  0  0  0
  -23.4088  -30.4836   21.5420 C   0  0  2  0  0  0
  -24.8546  -28.9253   20.1265 C   0  0  0  0  0  0
  -22.7406  -29.4670   22.4965 C   0  0  0  0  0  0
  -18.0298  -28.1369   22.8456 C   0  0  0  0  0  0
  -24.1501  -36.7304   23.2626 C   0  0  0  0  0  0
  -25.9410  -30.8157   21.3581 C   0  0  0  0  0  0
  -26.0175  -29.4444   20.7092 C   0  0  0  0  0  0
  -27.2207  -28.6969   20.6741 C   0  0  0  0  0  0
  -26.0675  -26.8995   19.5088 C   0  0  0  0  0  0
  -24.8723  -27.6494   19.5318 C   0  0  0  0  0  0
  -23.6202  -29.8014   20.1642 C   0  0  0  0  0  0
  -25.4121  -36.3100   24.0324 C   0  0  1  0  0  0
  -20.5883  -28.3683   23.1269 C   0  0  2  0  0  0
  -20.6797  -26.9423   22.5387 C   0  0  0  0  0  0
  -19.5783  -26.6396   21.5176 C   0  0  0  0  0  0
  -18.1959  -26.7920   22.1599 C   0  0  0  0  0  0
  -19.1537  -28.8842   23.2861 C   0  0  0  0  0  0
  -18.9484  -30.1448   23.8889 C   0  0  0  0  0  0
  -17.6488  -30.6576   24.0563 C   0  0  0  0  0  0
  -25.9065  -34.9457   23.5100 C   0  0  0  0  0  0
  -16.5384  -29.9085   23.6313 C   0  0  0  0  0  0
  -16.7286  -28.6496   23.0331 C   0  0  0  0  0  0
  -26.4443  -31.6565   25.0653 C   0  0  0  0  0  0
  -25.3655  -31.3697   26.1359 C   0  0  0  0  0  0
  -27.0247  -30.2999   24.6028 C   0  0  0  0  0  0
  -27.6031  -32.4267   25.7405 C   0  0  0  0  0  0
  -27.5607  -37.1788   24.8455 C   0  0  0  0  0  0
  -21.4134  -29.3049   22.3665 N   0  0  0  0  0  0
  -26.4307  -37.3788   23.9416 N   0  0  0  0  0  0
  -24.6747  -31.0698   22.0916 N   0  0  0  0  0  0
  -23.4134  -28.8232   23.3055 O   0  0  0  0  0  0
  -28.4395  -26.7213   19.9380 O   0  0  0  0  0  0
  -26.5636  -34.8918   22.4678 O   0  0  0  0  0  0
  -23.5377  -32.1462   23.7322 O   0  0  0  0  0  0
  -31.3204  -18.0915   21.2482 C   0  0  0  0  0  0
  -29.3233  -19.2257   20.4096 C   0  0  0  0  0  0
  -31.1721  -20.5262   21.2742 C   0  0  0  0  0  0
  -30.0414  -18.0189   20.6637 C   0  0  0  0  0  0
  -31.8959  -19.3445   21.5371 C   0  0  0  0  0  0
  -29.8713  -20.5068   20.7111 C   0  0  0  0  0  0
  -29.4370  -23.0187   20.6229 C   0  0  0  0  0  0
  -29.4842  -16.6649   20.2014 C   0  0  0  0  0  0
  -28.6179  -24.1564   19.9330 C   0  0  0  0  0  0
  -28.6476  -25.5221   20.7059 C   0  0  0  0  0  0
  -33.3240  -19.4521   22.0589 C   0  0  0  0  0  0
  -29.1389  -21.7155   20.3635 N   0  0  0  0  0  0
  -29.8082  -15.4543   20.9833 N   0  0  0  0  0  0
  -30.3342  -23.3395   21.4078 O   0  0  0  0  0  0
  -33.7745  -18.2987   22.5545 F   0  0  0  0  0  0
  -34.1249  -19.8171   21.0576 F   0  0  0  0  0  0
  -33.3978  -20.3745   23.0202 F   0  0  0  0  0  0
  -31.4715  -12.3671   19.1364 H   0  0  0  0  0  0
  -30.2944  -11.2647   19.7895 H   0  0  0  0  0  0
  -29.7358  -11.8071   17.4126 H   0  0  0  0  0  0
  -29.6842  -13.5071   17.7858 H   0  0  0  0  0  0
  -27.8083  -11.3236   18.7751 H   0  0  0  0  0  0
  -27.3717  -12.6961   17.7859 H   0  0  0  0  0  0
  -27.7135  -14.2444   19.6183 H   0  0  0  0  0  0
  -28.6793  -11.8635   21.2829 H   0  0  0  0  0  0
  -28.4678  -13.4646   21.9179 H   0  0  0  0  0  0
  -25.2741   -9.5728   22.4694 H   0  0  0  0  0  0
  -24.0059   -7.4622   22.7415 H   0  0  0  0  0  0
  -21.0831   -8.8707   19.8925 H   0  0  0  0  0  0
  -22.3600  -10.9658   19.6176 H   0  0  0  0  0  0
  -21.1976   -7.6129   23.9712 H   0  0  0  0  0  0
  -21.1506   -6.0507   25.9084 H   0  0  0  0  0  0
  -22.0587   -2.7600   23.2841 H   0  0  0  0  0  0
  -22.4146  -11.9921   22.4869 H   0  0  0  0  0  0
  -21.1118  -13.1214   22.2571 H   0  0  0  0  0  0
  -24.6602  -15.8348   20.5042 H   0  0  0  0  0  0
  -26.2766  -15.6216   20.0634 H   0  0  0  0  0  0
  -26.7104  -32.5473   23.1065 H   0  0  0  0  0  0
  -25.0038  -33.9756   25.0394 H   0  0  0  0  0  0
  -22.7021  -31.3021   21.3914 H   0  0  0  0  0  0
  -23.3777  -35.9626   23.3264 H   0  0  0  0  0  0
  -24.3609  -36.8940   22.2053 H   0  0  0  0  0  0
  -23.7222  -37.6496   23.6655 H   0  0  0  0  0  0
  -26.0632  -31.5747   20.5850 H   0  0  0  0  0  0
  -26.8242  -30.8667   21.9854 H   0  0  0  0  0  0
  -28.1311  -29.1100   21.0877 H   0  0  0  0  0  0
  -26.0766  -25.9369   19.0177 H   0  0  0  0  0  0
  -23.9778  -27.2405   19.0842 H   0  0  0  0  0  0
  -23.7344  -30.5708   19.3976 H   0  0  0  0  0  0
  -22.7412  -29.2241   19.8722 H   0  0  0  0  0  0
  -25.1293  -36.1975   25.0821 H   0  0  0  0  0  0
  -20.9988  -28.3291   24.1383 H   0  0  0  0  0  0
  -20.5694  -26.2320   23.3592 H   0  0  0  0  0  0
  -21.6673  -26.7482   22.1196 H   0  0  0  0  0  0
  -19.6968  -25.6304   21.1218 H   0  0  0  0  0  0
  -19.6717  -27.3191   20.6693 H   0  0  0  0  0  0
  -17.4235  -26.6641   21.4005 H   0  0  0  0  0  0
  -18.0385  -26.0051   22.8997 H   0  0  0  0  0  0
  -19.7979  -30.7240   24.2256 H   0  0  0  0  0  0
  -17.5067  -31.6249   24.5179 H   0  0  0  0  0  0
  -15.5377  -30.3006   23.7626 H   0  0  0  0  0  0
  -15.8688  -28.0819   22.7051 H   0  0  0  0  0  0
  -24.5896  -30.6962   25.7685 H   0  0  0  0  0  0
  -24.8738  -32.2847   26.4699 H   0  0  0  0  0  0
  -25.7949  -30.8969   27.0196 H   0  0  0  0  0  0
  -26.2813  -29.6820   24.0986 H   0  0  0  0  0  0
  -27.3922  -29.7164   25.4480 H   0  0  0  0  0  0
  -27.8672  -30.4306   23.9218 H   0  0  0  0  0  0
  -27.2715  -33.3630   26.1915 H   0  0  0  0  0  0
  -28.3868  -32.6727   25.0211 H   0  0  0  0  0  0
  -28.0648  -31.8402   26.5375 H   0  0  0  0  0  0
  -28.2588  -38.0132   24.7604 H   0  0  0  0  0  0
  -28.1142  -36.2676   24.6159 H   0  0  0  0  0  0
  -27.2323  -37.1263   25.8849 H   0  0  0  0  0  0
  -20.9315  -29.8728   21.6839 H   0  0  0  0  0  0
  -26.0202  -38.2865   24.1447 H   0  0  0  0  0  0
  -31.8864  -17.1885   21.4264 H   0  0  0  0  0  0
  -28.3499  -19.1607   19.9411 H   0  0  0  0  0  0
  -31.6877  -21.4470   21.4811 H   0  0  0  0  0  0
  -29.8044  -16.5183   19.1653 H   0  0  0  0  0  0
  -28.3968  -16.7323   20.1527 H   0  0  0  0  0  0
  -27.5891  -23.8443   19.7468 H   0  0  0  0  0  0
  -29.0553  -24.3009   18.9424 H   0  0  0  0  0  0
  -29.6499  -25.6737   21.1078 H   0  0  0  0  0  0
  -27.9932  -25.4876   21.5755 H   0  0  0  0  0  0
  -28.3028  -21.5788   19.8104 H   0  0  0  0  0  0
  -29.0282  -15.1048   21.5206 H   0  0  0  0  0  0
  1 25  1  0  0  0
  1 30  2  0  0  0
  1 83  1  0  0  0
  2  3  1  0  0  0
  2 25  1  0  0  0
  2 88  1  0  0  0
  2 89  1  0  0  0
  3  4  1  0  0  0
  3 90  1  0  0  0
  3 91  1  0  0  0
  4  5  1  0  0  0
  4 92  1  0  0  0
  4 93  1  0  0  0
  5  6  1  0  0  0
  5 26  1  0  0  0
  5 94  1  0  0  0
  6 25  1  0  0  0
  6 95  1  0  0  0
  6 96  1  0  0  0
  7  8  2  0  0  0
  7 26  1  0  0  0
  7 29  1  0  0  0
  8  9  1  0  0  0
  8 22  1  0  0  0
  9 10  1  0  0  0
  9 27  2  0  0  0
 10 11  2  0  0  0
 10 15  1  0  0  0
 11 12  1  0  0  0
 11 97  1  0  0  0
 12 13  2  0  0  0
 12 98  1  0  0  0
 13 14  1  0  0  0
 13 31  1  0  0  0
 14 15  2  0  0  0
 14 99  1  0  0  0
 15100  1  0  0  0
 16 17  2  0  0  0
 16 21  1  0  0  0
 16 31  1  0  0  0
 17 18  1  0  0  0
 17101  1  0  0  0
 18 19  2  0  0  0
 18102  1  0  0  0
 19 20  1  0  0  0
 19 24  1  0  0  0
 20 21  2  0  0  0
 20103  1  0  0  0
 21 23  1  0  0  0
 22 28  1  0  0  0
 22 32  2  0  0  0
 26 27  1  0  0  0
 28104  1  0  0  0
 28105  1  0  0  0
 29106  1  0  0  0
 29107  1  0  0  0
 33 34  1  0  0  0
 33 66  1  0  0  0
 33 70  2  0  0  0
 34 36  1  0  0  0
 34 59  1  0  0  0
 34108  1  0  0  0
 35 44  2  0  0  0
 35 45  1  0  0  0
 35 68  1  0  0  0
 36 56  1  0  0  0
 36109  1  0  0  0
 37 39  1  0  0  0
 37 47  1  0  0  0
 37 66  1  0  0  0
 37110  1  0  0  0
 38 43  2  0  0  0
 38 46  1  0  0  0
 38 47  1  0  0  0
 39 64  1  0  0  0
 39 67  2  0  0  0
 40 52  1  0  0  0
 40 53  2  0  0  0
 40 58  1  0  0  0
 41111  1  0  0  0
 41112  1  0  0  0
 41113  1  0  0  0
 41 48  1  0  0  0
 42 43  1  0  0  0
 42 66  1  0  0  0
 42114  1  0  0  0
 42115  1  0  0  0
 43 44  1  0  0  0
 44116  1  0  0  0
 45 46  2  0  0  0
 45117  1  0  0  0
 46118  1  0  0  0
 47119  1  0  0  0
 47120  1  0  0  0
 48 56  1  0  0  0
 48 65  1  0  0  0
 48121  1  0  0  0
 49 50  1  0  0  0
 49 53  1  0  0  0
 49 64  1  0  0  0
 49122  1  0  0  0
 50 51  1  0  0  0
 50123  1  0  0  0
 50124  1  0  0  0
 51 52  1  0  0  0
 51125  1  0  0  0
 51126  1  0  0  0
 52127  1  0  0  0
 52128  1  0  0  0
 53 54  1  0  0  0
 54 55  2  0  0  0
 54129  1  0  0  0
 55 57  1  0  0  0
 55130  1  0  0  0
 56 69  2  0  0  0
 57 58  2  0  0  0
 57131  1  0  0  0
 58132  1  0  0  0
 59 60  1  0  0  0
 59 61  1  0  0  0
 59 62  1  0  0  0
 60133  1  0  0  0
 60134  1  0  0  0
 60135  1  0  0  0
 61136  1  0  0  0
 61137  1  0  0  0
 61138  1  0  0  0
 62139  1  0  0  0
 62140  1  0  0  0
 62141  1  0  0  0
 63 65  1  0  0  0
 63142  1  0  0  0
 63143  1  0  0  0
 63144  1  0  0  0
 64145  1  0  0  0
 65146  1  0  0  0
 68 80  1  0  0  0
 71 74  2  0  0  0
 71 75  1  0  0  0
 71147  1  0  0  0
 72 74  1  0  0  0
 72 76  2  0  0  0
 72148  1  0  0  0
 73 75  2  0  0  0
 73 76  1  0  0  0
 73149  1  0  0  0
 74 78  1  0  0  0
 75 81  1  0  0  0
 76 82  1  0  0  0
 77 79  1  0  0  0
 77 82  1  0  0  0
 77 84  2  0  0  0
 78 83  1  0  0  0
 78150  1  0  0  0
 78151  1  0  0  0
 79 80  1  0  0  0
 79152  1  0  0  0
 79153  1  0  0  0
 80154  1  0  0  0
 80155  1  0  0  0
 81 85  1  0  0  0
 81 86  1  0  0  0
 81 87  1  0  0  0
 82156  1  0  0  0
 83157  1  0  0  0
M  ISO  4   1 100  68 101  80 101  83 100
M  END
> <chiral flag>
0

> <version>
0

> <s_m_source_file>
/data/baiqing/PycharmProjects/Reinvent-master-3.2/result/LINK_invent/BTK/process_docking_weight1_custom_product_contain_oxygen_bond_distance_aromatic_linkinvent_7_9_3/rearranged_h_0164.sdf

> <i_m_source_file_index>
12

> <r_mmod_Potential_Energy-OPLS-2005>
-72.0825576782227

> <r_mmod_Stretch_Energy-OPLS-2005>
48.0793418884277

> <r_mmod_Bend_Energy-OPLS-2005>
112.849739074707

> <r_mmod_Torsional_Energy-OPLS-2005>
257.154907226562

> <r_mmod_Improper_Torsional_Energy-OPLS-2005>
10.1760683059692

> <r_mmod_Van_der_Waal_Energy-OPLS-2005>
154.65673828125

> <r_mmod_Electrostatic_Energy-OPLS-2005>
-431.827972412109

> <r_mmod_Solvation_Energy-OPLS-2005>
-239.585876464844

> <b_mmod_Minimization_Converged-OPLS-2005>
0

> <r_mmod_RMS_Derivative-OPLS-2005>
5.20929765701294

$$$$
12
                    3D
 Structure written by MMmdl.
158166  0  0  1  0            999 V2000
  -30.4235  -15.0376   20.4379 C   0  0  0  0  0  0
  -30.4598  -12.6469   19.5025 C   0  0  0  0  0  0
  -29.5361  -12.5613   18.2626 C   0  0  0  0  0  0
  -28.0682  -12.3275   18.6747 C   0  0  0  0  0  0
  -27.6360  -13.2444   19.8474 C   0  0  2  0  0  0
  -28.6761  -13.2437   20.9861 C   0  0  0  0  0  0
  -25.2492  -13.8179   20.5715 C   0  0  0  0  0  0
  -24.1793  -13.0426   20.9193 C   0  0  0  0  0  0
  -24.6398  -11.6902   20.8734 C   0  0  0  0  0  0
  -23.9068  -10.4290   21.0389 C   0  0  0  0  0  0
  -24.3619   -9.4218   21.9175 C   0  0  0  0  0  0
  -23.6302   -8.2247   22.0755 C   0  0  0  0  0  0
  -22.4279   -8.0266   21.3536 C   0  0  0  0  0  0
  -21.9905   -9.0247   20.4643 C   0  0  0  0  0  0
  -22.7232  -10.2127   20.3048 C   0  0  0  0  0  0
  -21.6857   -6.0732   22.5269 C   0  0  0  0  0  0
  -21.4030   -6.5637   23.8204 C   0  0  0  0  0  0
  -21.3663   -5.6784   24.9163 C   0  0  0  0  0  0
  -21.6031   -4.3045   24.7208 C   0  0  0  0  0  0
  -21.8828   -3.8142   23.4331 C   0  0  0  0  0  0
  -21.9202   -4.6963   22.3388 C   0  0  0  0  0  0
  -22.7821  -13.5216   21.1867 C   0  0  0  0  0  0
  -22.1669   -4.2143   21.0967 F   0  0  0  0  0  0
  -21.5621   -3.4529   25.7728 F   0  0  0  0  0  0
  -29.9411  -13.7193   20.4061 N   0  0  0  0  0  0
  -26.2921  -12.9408   20.3252 N   0  0  0  0  0  0
  -25.9330  -11.6537   20.5711 N   0  0  0  0  0  0
  -22.0464  -12.8231   22.0424 N   0  0  0  0  0  0
  -25.4196  -15.1914   20.4184 N   0  0  0  0  0  0
  -31.5736  -15.1921   20.0176 O   0  0  0  0  0  0
  -21.6642   -6.8864   21.4221 O   0  0  0  0  0  0
  -22.3522  -14.5521   20.6698 O   0  0  0  0  0  0
  -24.6476  -31.8376   23.1808 C   0  0  0  0  0  0
  -25.9212  -32.4672   23.8243 C   0  0  1  0  0  0
  -27.2192  -27.0749   20.1439 C   0  0  0  0  0  0
  -25.5937  -33.8480   24.2170 N   0  0  0  0  0  0
  -23.4551  -30.4540   21.5257 C   0  0  2  0  0  0
  -24.9053  -28.8658   20.1030 C   0  0  0  0  0  0
  -22.7581  -29.4517   22.4794 C   0  0  0  0  0  0
  -18.0305  -28.1408   22.8479 C   0  0  0  0  0  0
  -24.1474  -36.7237   23.2650 C   0  0  0  0  0  0
  -26.0132  -30.6874   21.3887 C   0  0  0  0  0  0
  -26.0810  -29.2915   20.7319 C   0  0  0  0  0  0
  -27.2305  -28.4086   20.7427 C   0  0  0  0  0  0
  -26.0193  -26.7640   19.4711 C   0  0  0  0  0  0
  -24.8909  -27.6189   19.4587 C   0  0  0  0  0  0
  -23.6834  -29.7742   20.1470 C   0  0  0  0  0  0
  -25.4117  -36.3035   24.0325 C   0  0  1  0  0  0
  -20.5926  -28.3750   23.1191 C   0  0  2  0  0  0
  -20.6782  -26.9440   22.5399 C   0  0  0  0  0  0
  -19.5761  -26.6385   21.5201 C   0  0  0  0  0  0
  -18.1943  -26.7947   22.1614 C   0  0  0  0  0  0
  -19.1573  -28.8892   23.2832 C   0  0  0  0  0  0
  -18.9493  -30.1473   23.8880 C   0  0  0  0  0  0
  -17.6496  -30.6601   24.0571 C   0  0  0  0  0  0
  -25.9069  -34.9402   23.5068 C   0  0  0  0  0  0
  -16.5379  -29.9102   23.6343 C   0  0  0  0  0  0
  -16.7291  -28.6514   23.0372 C   0  0  0  0  0  0
  -26.4523  -31.6572   25.0711 C   0  0  0  0  0  0
  -25.3684  -31.3776   26.1390 C   0  0  0  0  0  0
  -27.0421  -30.2982   24.6336 C   0  0  0  0  0  0
  -27.6067  -32.4335   25.7491 C   0  0  0  0  0  0
  -27.5569  -37.1782   24.8473 C   0  0  0  0  0  0
  -21.4268  -29.3052   22.3546 N   0  0  0  0  0  0
  -26.4282  -37.3756   23.9414 N   0  0  0  0  0  0
  -24.7262  -31.0170   22.0866 N   0  0  0  0  0  0
  -23.4206  -28.8071   23.2968 O   0  0  0  0  0  0
  -28.2656  -26.0727   20.2676 O   0  0  0  0  0  0
  -26.5668  -34.8917   22.4655 O   0  0  0  0  0  0
  -23.5570  -32.1261   23.6987 O   0  0  0  0  0  0
  -29.0569  -21.7370   20.1164 C   0  0  0  0  0  0
  -28.6331  -20.3841   20.3114 C   0  0  0  0  0  0
  -28.2995  -23.1610   20.4374 C   0  0  0  0  0  0
  -29.2083  -17.4437   20.9089 C   0  0  0  0  0  0
  -30.4997  -21.8999   19.6527 C   0  0  0  0  0  0
  -31.1791  -20.5777   19.1774 C   0  0  0  0  0  0
  -29.4805  -18.9325   20.1034 C   0  0  2  0  0  0
  -30.9699  -19.3387   20.0961 C   0  0  2  0  0  0
  -28.1984  -17.7336   22.0109 C   0  0  0  0  0  0
  -31.5316  -19.5766   21.5113 C   0  0  0  0  0  0
  -28.3638  -24.6301   19.6181 C   0  0  0  0  0  0
  -29.5140  -16.0947   20.9586 N   0  0  0  0  0  0
  -27.5574  -23.1920   21.4223 O   0  0  0  0  0  0
  -27.3571  -20.1493   20.6504 O   0  0  0  0  0  0
  -31.4858  -12.8442   19.1896 H   0  0  0  0  0  0
  -30.4924  -11.6891   20.0222 H   0  0  0  0  0  0
  -29.8734  -11.7686   17.5926 H   0  0  0  0  0  0
  -29.6138  -13.4905   17.6974 H   0  0  0  0  0  0
  -27.9689  -11.2841   18.9773 H   0  0  0  0  0  0
  -27.4085  -12.4607   17.8157 H   0  0  0  0  0  0
  -27.6097  -14.2557   19.4401 H   0  0  0  0  0  0
  -28.7871  -12.2494   21.4242 H   0  0  0  0  0  0
  -28.3543  -13.8938   21.8003 H   0  0  0  0  0  0
  -25.2752   -9.5703   22.4765 H   0  0  0  0  0  0
  -23.9995   -7.4645   22.7490 H   0  0  0  0  0  0
  -21.0833   -8.8772   19.8970 H   0  0  0  0  0  0
  -22.3675  -10.9669   19.6171 H   0  0  0  0  0  0
  -21.2041   -7.6149   23.9713 H   0  0  0  0  0  0
  -21.1469   -6.0510   25.9066 H   0  0  0  0  0  0
  -22.0611   -2.7603   23.2832 H   0  0  0  0  0  0
  -22.4069  -11.9886   22.4810 H   0  0  0  0  0  0
  -21.1085  -13.1271   22.2601 H   0  0  0  0  0  0
  -24.6595  -15.8504   20.5451 H   0  0  0  0  0  0
  -26.2912  -15.6258   20.1441 H   0  0  0  0  0  0
  -26.7280  -32.5255   23.0969 H   0  0  0  0  0  0
  -25.0083  -33.9594   25.0319 H   0  0  0  0  0  0
  -22.7629  -31.2832   21.3645 H   0  0  0  0  0  0
  -23.3759  -35.9546   23.3303 H   0  0  0  0  0  0
  -24.3560  -36.8872   22.2070 H   0  0  0  0  0  0
  -23.7206  -37.6421   23.6678 H   0  0  0  0  0  0
  -26.1711  -31.4339   20.6091 H   0  0  0  0  0  0
  -26.8811  -30.7469   22.0331 H   0  0  0  0  0  0
  -28.1178  -28.7202   21.2740 H   0  0  0  0  0  0
  -25.9097  -25.8064   18.9858 H   0  0  0  0  0  0
  -23.9924  -27.2852   18.9585 H   0  0  0  0  0  0
  -23.8208  -30.5419   19.3852 H   0  0  0  0  0  0
  -22.7965  -29.2172   19.8395 H   0  0  0  0  0  0
  -25.1310  -36.1877   25.0823 H   0  0  0  0  0  0
  -21.0037  -28.3360   24.1304 H   0  0  0  0  0  0
  -20.5653  -26.2372   23.3643 H   0  0  0  0  0  0
  -21.6653  -26.7425   22.1224 H   0  0  0  0  0  0
  -19.6931  -25.6284   21.1261 H   0  0  0  0  0  0
  -19.6695  -27.3166   20.6710 H   0  0  0  0  0  0
  -17.4217  -26.6683   21.4015 H   0  0  0  0  0  0
  -18.0353  -26.0096   22.9019 H   0  0  0  0  0  0
  -19.7969  -30.7280   24.2254 H   0  0  0  0  0  0
  -17.5051  -31.6280   24.5172 H   0  0  0  0  0  0
  -15.5382  -30.3011   23.7649 H   0  0  0  0  0  0
  -15.8688  -28.0808   22.7121 H   0  0  0  0  0  0
  -24.5881  -30.7118   25.7681 H   0  0  0  0  0  0
  -24.8843  -32.2956   26.4735 H   0  0  0  0  0  0
  -25.7929  -30.8998   27.0230 H   0  0  0  0  0  0
  -26.3070  -29.6680   24.1325 H   0  0  0  0  0  0
  -27.4006  -29.7324   25.4939 H   0  0  0  0  0  0
  -27.8976  -30.4234   23.9703 H   0  0  0  0  0  0
  -27.2707  -33.3683   26.1996 H   0  0  0  0  0  0
  -28.3918  -32.6814   25.0331 H   0  0  0  0  0  0
  -28.0693  -31.8501   26.5463 H   0  0  0  0  0  0
  -28.2602  -38.0064   24.7526 H   0  0  0  0  0  0
  -28.1050  -36.2603   24.6297 H   0  0  0  0  0  0
  -27.2287  -37.1437   25.8874 H   0  0  0  0  0  0
  -20.9469  -29.8784   21.6744 H   0  0  0  0  0  0
  -26.0148  -38.2825   24.1415 H   0  0  0  0  0  0
  -30.5244  -22.6200   18.8351 H   0  0  0  0  0  0
  -31.0724  -22.3340   20.4739 H   0  0  0  0  0  0
  -32.2426  -20.7631   19.0304 H   0  0  0  0  0  0
  -30.8041  -20.3250   18.1833 H   0  0  0  0  0  0
  -29.2450  -18.6839   19.0672 H   0  0  0  0  0  0
  -31.5301  -18.5122   19.6586 H   0  0  0  0  0  0
  -28.2400  -16.9892   22.8054 H   0  0  0  0  0  0
  -27.1847  -17.7262   21.6111 H   0  0  0  0  0  0
  -28.3935  -18.6966   22.4838 H   0  0  0  0  0  0
  -31.0009  -20.3739   22.0312 H   0  0  0  0  0  0
  -32.5863  -19.8507   21.4772 H   0  0  0  0  0  0
  -31.4567  -18.6816   22.1292 H   0  0  0  0  0  0
  -27.6375  -24.5684   18.8100 H   0  0  0  0  0  0
  -29.3271  -24.6235   19.1110 H   0  0  0  0  0  0
  -27.2176  -19.2129   20.6334 H   0  0  0  0  0  0
  1 25  1  0  0  0
  1 30  2  0  0  0
  1 82  1  0  0  0
  2  3  1  0  0  0
  2 25  1  0  0  0
  2 85  1  0  0  0
  2 86  1  0  0  0
  3  4  1  0  0  0
  3 87  1  0  0  0
  3 88  1  0  0  0
  4  5  1  0  0  0
  4 89  1  0  0  0
  4 90  1  0  0  0
  5  6  1  0  0  0
  5 26  1  0  0  0
  5 91  1  0  0  0
  6 25  1  0  0  0
  6 92  1  0  0  0
  6 93  1  0  0  0
  7  8  2  0  0  0
  7 26  1  0  0  0
  7 29  1  0  0  0
  8  9  1  0  0  0
  8 22  1  0  0  0
  9 10  1  0  0  0
  9 27  2  0  0  0
 10 11  2  0  0  0
 10 15  1  0  0  0
 11 12  1  0  0  0
 11 94  1  0  0  0
 12 13  2  0  0  0
 12 95  1  0  0  0
 13 14  1  0  0  0
 13 31  1  0  0  0
 14 15  2  0  0  0
 14 96  1  0  0  0
 15 97  1  0  0  0
 16 17  2  0  0  0
 16 21  1  0  0  0
 16 31  1  0  0  0
 17 18  1  0  0  0
 17 98  1  0  0  0
 18 19  2  0  0  0
 18 99  1  0  0  0
 19 20  1  0  0  0
 19 24  1  0  0  0
 20 21  2  0  0  0
 20100  1  0  0  0
 21 23  1  0  0  0
 22 28  1  0  0  0
 22 32  2  0  0  0
 26 27  1  0  0  0
 28101  1  0  0  0
 28102  1  0  0  0
 29103  1  0  0  0
 29104  1  0  0  0
 33 34  1  0  0  0
 33 66  1  0  0  0
 33 70  2  0  0  0
 34 36  1  0  0  0
 34 59  1  0  0  0
 34105  1  0  0  0
 35 44  2  0  0  0
 35 45  1  0  0  0
 35 68  1  0  0  0
 36 56  1  0  0  0
 36106  1  0  0  0
 37 39  1  0  0  0
 37 47  1  0  0  0
 37 66  1  0  0  0
 37107  1  0  0  0
 38 43  2  0  0  0
 38 46  1  0  0  0
 38 47  1  0  0  0
 39 64  1  0  0  0
 39 67  2  0  0  0
 40 52  1  0  0  0
 40 53  2  0  0  0
 40 58  1  0  0  0
 41108  1  0  0  0
 41109  1  0  0  0
 41110  1  0  0  0
 41 48  1  0  0  0
 42 43  1  0  0  0
 42 66  1  0  0  0
 42111  1  0  0  0
 42112  1  0  0  0
 43 44  1  0  0  0
 44113  1  0  0  0
 45 46  2  0  0  0
 45114  1  0  0  0
 46115  1  0  0  0
 47116  1  0  0  0
 47117  1  0  0  0
 48 56  1  0  0  0
 48 65  1  0  0  0
 48118  1  0  0  0
 49 50  1  0  0  0
 49 53  1  0  0  0
 49 64  1  0  0  0
 49119  1  0  0  0
 50 51  1  0  0  0
 50120  1  0  0  0
 50121  1  0  0  0
 51 52  1  0  0  0
 51122  1  0  0  0
 51123  1  0  0  0
 52124  1  0  0  0
 52125  1  0  0  0
 53 54  1  0  0  0
 54 55  2  0  0  0
 54126  1  0  0  0
 55 57  1  0  0  0
 55127  1  0  0  0
 56 69  2  0  0  0
 57 58  2  0  0  0
 57128  1  0  0  0
 58129  1  0  0  0
 59 60  1  0  0  0
 59 61  1  0  0  0
 59 62  1  0  0  0
 60130  1  0  0  0
 60131  1  0  0  0
 60132  1  0  0  0
 61133  1  0  0  0
 61134  1  0  0  0
 61135  1  0  0  0
 62136  1  0  0  0
 62137  1  0  0  0
 62138  1  0  0  0
 63 65  1  0  0  0
 63139  1  0  0  0
 63140  1  0  0  0
 63141  1  0  0  0
 64142  1  0  0  0
 65143  1  0  0  0
 68 81  1  0  0  0
 71 72  2  0  0  0
 71 73  1  0  0  0
 71 75  1  0  0  0
 72 77  1  0  0  0
 72 84  1  0  0  0
 73 81  1  0  0  0
 73 83  2  0  0  0
 74 79  1  0  0  0
 74 82  2  0  0  0
 74 77  1  0  0  0
 75 76  1  0  0  0
 75144  1  0  0  0
 75145  1  0  0  0
 76 78  1  0  0  0
 76146  1  0  0  0
 76147  1  0  0  0
 77 78  1  0  0  0
 77148  1  0  0  0
 78 80  1  0  0  0
 78149  1  0  0  0
 79150  1  0  0  0
 79151  1  0  0  0
 79152  1  0  0  0
 80153  1  0  0  0
 80154  1  0  0  0
 80155  1  0  0  0
 81156  1  0  0  0
 81157  1  0  0  0
 84158  1  0  0  0
M  ISO  4   1 100  68 101  81 101  82 100
M  END
> <chiral flag>
0

> <version>
0

> <s_m_source_file>
/data/baiqing/PycharmProjects/Reinvent-master-3.2/result/LINK_invent/BTK/process_docking_weight1_custom_product_contain_oxygen_bond_distance_aromatic_linkinvent_7_9_3/rearranged_h_0164.sdf

> <i_m_source_file_index>
13

> <r_mmod_Potential_Energy-OPLS-2005>
943.603759765625

> <r_mmod_Stretch_Energy-OPLS-2005>
364.794311523438

> <r_mmod_Bend_Energy-OPLS-2005>
446.256256103516

> <r_mmod_Torsional_Energy-OPLS-2005>
185.472595214844

> <r_mmod_Improper_Torsional_Energy-OPLS-2005>
2.07171320915222

> <r_mmod_Van_der_Waal_Energy-OPLS-2005>
119.65934753418

> <r_mmod_Electrostatic_Energy-OPLS-2005>
-226.280334472656

> <r_mmod_Solvation_Energy-OPLS-2005>
-209.954360961914

> <b_mmod_Minimization_Converged-OPLS-2005>
0

> <r_mmod_RMS_Derivative-OPLS-2005>
3.23273038864136

$$$$
13
                    3D
 Structure written by MMmdl.
170179  0  0  1  0            999 V2000
  -30.6457  -14.5276   20.5882 C   0  0  0  0  0  0
  -30.4425  -12.3443   19.4237 C   0  0  0  0  0  0
  -29.5034  -12.5241   18.2100 C   0  0  0  0  0  0
  -28.0234  -12.3704   18.6186 C   0  0  0  0  0  0
  -27.6647  -13.2020   19.8784 C   0  0  2  0  0  0
  -28.7056  -12.9618   20.9951 C   0  0  0  0  0  0
  -25.2604  -13.8146   20.5666 C   0  0  0  0  0  0
  -24.1845  -13.0437   20.9167 C   0  0  0  0  0  0
  -24.6387  -11.6900   20.8723 C   0  0  0  0  0  0
  -23.9045  -10.4292   21.0404 C   0  0  0  0  0  0
  -24.3604   -9.4212   21.9184 C   0  0  0  0  0  0
  -23.6286   -8.2243   22.0755 C   0  0  0  0  0  0
  -22.4268   -8.0277   21.3544 C   0  0  0  0  0  0
  -21.9895   -9.0248   20.4647 C   0  0  0  0  0  0
  -22.7216  -10.2132   20.3056 C   0  0  0  0  0  0
  -21.6847   -6.0732   22.5279 C   0  0  0  0  0  0
  -21.4009   -6.5636   23.8213 C   0  0  0  0  0  0
  -21.3662   -5.6788   24.9176 C   0  0  0  0  0  0
  -21.6047   -4.3052   24.7223 C   0  0  0  0  0  0
  -21.8819   -3.8143   23.4343 C   0  0  0  0  0  0
  -21.9191   -4.6959   22.3402 C   0  0  0  0  0  0
  -22.7870  -13.5249   21.1837 C   0  0  0  0  0  0
  -22.1664   -4.2146   21.0979 F   0  0  0  0  0  0
  -21.5633   -3.4536   25.7737 F   0  0  0  0  0  0
  -30.0370  -13.3106   20.4587 N   0  0  0  0  0  0
  -26.3034  -12.9302   20.3355 N   0  0  0  0  0  0
  -25.9312  -11.6470   20.5743 N   0  0  0  0  0  0
  -22.0496  -12.8258   22.0395 N   0  0  0  0  0  0
  -25.4343  -15.1861   20.4078 N   0  0  0  0  0  0
  -31.7434  -14.7770   20.0757 O   0  0  0  0  0  0
  -21.6636   -6.8874   21.4240 O   0  0  0  0  0  0
  -22.3567  -14.5559   20.6685 O   0  0  0  0  0  0
  -24.6175  -31.8650   23.2069 C   0  0  0  0  0  0
  -25.9053  -32.4808   23.8380 C   0  0  1  0  0  0
  -27.2367  -27.4018   20.1079 C   0  0  0  0  0  0
  -25.5895  -33.8606   24.2307 N   0  0  0  0  0  0
  -23.4088  -30.4863   21.5478 C   0  0  2  0  0  0
  -24.8589  -28.9442   20.1187 C   0  0  0  0  0  0
  -22.7428  -29.4640   22.4974 C   0  0  0  0  0  0
  -18.0274  -28.1379   22.8491 C   0  0  0  0  0  0
  -24.1486  -36.7312   23.2637 C   0  0  0  0  0  0
  -25.9413  -30.8193   21.3671 C   0  0  0  0  0  0
  -26.0211  -29.4497   20.7171 C   0  0  0  0  0  0
  -27.2168  -28.6869   20.7067 C   0  0  0  0  0  0
  -26.0596  -26.9159   19.5056 C   0  0  0  0  0  0
  -24.8744  -27.6770   19.5092 C   0  0  0  0  0  0
  -23.6213  -29.8149   20.1647 C   0  0  0  0  0  0
  -25.4109  -36.3105   24.0335 C   0  0  1  0  0  0
  -20.5866  -28.3671   23.1310 C   0  0  2  0  0  0
  -20.6765  -26.9404   22.5420 C   0  0  0  0  0  0
  -19.5748  -26.6383   21.5213 C   0  0  0  0  0  0
  -18.1922  -26.7928   22.1617 C   0  0  0  0  0  0
  -19.1523  -28.8841   23.2898 C   0  0  0  0  0  0
  -18.9450  -30.1445   23.8911 C   0  0  0  0  0  0
  -17.6454  -30.6587   24.0562 C   0  0  0  0  0  0
  -25.9038  -34.9469   23.5121 C   0  0  0  0  0  0
  -16.5344  -29.9089   23.6326 C   0  0  0  0  0  0
  -16.7262  -28.6504   23.0351 C   0  0  0  0  0  0
  -26.4470  -31.6597   25.0720 C   0  0  0  0  0  0
  -25.3724  -31.3724   26.1462 C   0  0  0  0  0  0
  -27.0299  -30.3028   24.6127 C   0  0  0  0  0  0
  -27.6046  -32.4318   25.7481 C   0  0  0  0  0  0
  -27.5587  -37.1804   24.8456 C   0  0  0  0  0  0
  -21.4150  -29.3033   22.3711 N   0  0  0  0  0  0
  -26.4292  -37.3793   23.9411 N   0  0  0  0  0  0
  -24.6739  -31.0719   22.0987 N   0  0  0  0  0  0
  -23.4180  -28.8182   23.3028 O   0  0  0  0  0  0
  -28.3740  -26.6172   20.0643 O   0  0  0  0  0  0
  -26.5606  -34.8925   22.4687 O   0  0  0  0  0  0
  -23.5358  -32.1418   23.7442 O   0  0  0  0  0  0
  -28.7830  -17.3643   22.0854 C   0  0  0  0  0  0
  -28.4958  -18.7454   22.0856 C   0  0  0  0  0  0
  -29.2393  -19.5827   21.2056 C   0  0  0  0  0  0
  -29.7778  -16.8465   21.2262 C   0  0  0  0  0  0
  -28.4558  -21.7351   19.8643 C   0  0  0  0  0  0
  -27.9785  -23.2111   20.0641 C   0  0  0  0  0  0
  -29.7130  -23.4791   21.8721 C   0  0  0  0  0  0
  -29.0227  -21.1331   21.1715 C   0  0  2  0  0  0
  -30.2052  -22.0185   21.6415 C   0  0  2  0  0  0
  -29.0583  -24.1771   20.6359 C   0  0  2  0  0  0
  -30.9012  -21.4746   22.9029 C   0  0  0  0  0  0
  -31.8962  -25.3174   18.4965 C   0  0  0  0  0  0
  -28.4485  -25.5750   21.0651 C   0  0  0  0  0  0
  -31.1919  -25.0715   19.8315 C   0  0  0  0  0  0
  -30.1880  -19.0317   20.3912 N   0  0  0  0  0  0
  -30.4495  -17.7031   20.4007 N   0  0  0  0  0  0
  -27.4982  -19.2171   22.9499 N   0  0  0  0  0  0
  -29.9282  -15.4216   21.3032 N   0  0  0  0  0  0
  -29.9993  -24.3402   19.5678 O   0  0  0  0  0  0
  -31.4824  -12.4784   19.1209 H   0  0  0  0  0  0
  -30.3764  -11.3270   19.8129 H   0  0  0  0  0  0
  -29.7525  -11.8015   17.4314 H   0  0  0  0  0  0
  -29.6586  -13.5104   17.7692 H   0  0  0  0  0  0
  -27.8391  -11.3126   18.8097 H   0  0  0  0  0  0
  -27.3730  -12.6459   17.7876 H   0  0  0  0  0  0
  -27.7127  -14.2530   19.5925 H   0  0  0  0  0  0
  -28.6974  -11.9127   21.2947 H   0  0  0  0  0  0
  -28.4425  -13.5123   21.8993 H   0  0  0  0  0  0
  -25.2753   -9.5691   22.4752 H   0  0  0  0  0  0
  -24.0000   -7.4634   22.7473 H   0  0  0  0  0  0
  -21.0824   -8.8755   19.8957 H   0  0  0  0  0  0
  -22.3668  -10.9665   19.6162 H   0  0  0  0  0  0
  -21.1994   -7.6142   23.9714 H   0  0  0  0  0  0
  -21.1492   -6.0520   25.9080 H   0  0  0  0  0  0
  -22.0596   -2.7603   23.2839 H   0  0  0  0  0  0
  -22.4092  -11.9923   22.4803 H   0  0  0  0  0  0
  -21.1117  -13.1307   22.2589 H   0  0  0  0  0  0
  -24.6673  -15.8412   20.5136 H   0  0  0  0  0  0
  -26.2838  -15.6225   20.0726 H   0  0  0  0  0  0
  -26.7123  -32.5514   23.1141 H   0  0  0  0  0  0
  -25.0030  -33.9763   25.0442 H   0  0  0  0  0  0
  -22.6995  -31.3040   21.4050 H   0  0  0  0  0  0
  -23.3752  -35.9641   23.3291 H   0  0  0  0  0  0
  -24.3581  -36.8938   22.2053 H   0  0  0  0  0  0
  -23.7231  -37.6511   23.6659 H   0  0  0  0  0  0
  -26.0599  -31.5829   20.5970 H   0  0  0  0  0  0
  -26.8264  -30.8724   21.9894 H   0  0  0  0  0  0
  -28.1166  -29.0757   21.1629 H   0  0  0  0  0  0
  -26.0639  -25.9431   19.0339 H   0  0  0  0  0  0
  -23.9824  -27.2824   19.0422 H   0  0  0  0  0  0
  -23.7315  -30.5881   19.4034 H   0  0  0  0  0  0
  -22.7451  -29.2348   19.8690 H   0  0  0  0  0  0
  -25.1286  -36.1965   25.0828 H   0  0  0  0  0  0
  -20.9959  -28.3241   24.1429 H   0  0  0  0  0  0
  -20.5663  -26.2279   23.3609 H   0  0  0  0  0  0
  -21.6637  -26.7443   22.1214 H   0  0  0  0  0  0
  -19.6912  -25.6294   21.1240 H   0  0  0  0  0  0
  -19.6698  -27.3196   20.6746 H   0  0  0  0  0  0
  -17.4200  -26.6681   21.4009 H   0  0  0  0  0  0
  -18.0319  -26.0061   22.9002 H   0  0  0  0  0  0
  -19.7928  -30.7252   24.2289 H   0  0  0  0  0  0
  -17.5013  -31.6271   24.5155 H   0  0  0  0  0  0
  -15.5346  -30.2998   23.7642 H   0  0  0  0  0  0
  -15.8659  -28.0826   22.7067 H   0  0  0  0  0  0
  -24.5891  -30.7078   25.7797 H   0  0  0  0  0  0
  -24.8923  -32.2889   26.4903 H   0  0  0  0  0  0
  -25.8060  -30.8891   27.0226 H   0  0  0  0  0  0
  -26.2856  -29.6795   24.1156 H   0  0  0  0  0  0
  -27.4020  -29.7259   25.4603 H   0  0  0  0  0  0
  -27.8713  -30.4324   23.9317 H   0  0  0  0  0  0
  -27.2664  -33.3603   26.2095 H   0  0  0  0  0  0
  -28.3837  -32.6905   25.0298 H   0  0  0  0  0  0
  -28.0740  -31.8425   26.5368 H   0  0  0  0  0  0
  -28.2594  -38.0113   24.7526 H   0  0  0  0  0  0
  -28.1092  -36.2647   24.6248 H   0  0  0  0  0  0
  -27.2310  -37.1413   25.8859 H   0  0  0  0  0  0
  -20.9313  -29.8748   21.6926 H   0  0  0  0  0  0
  -26.0182  -38.2868   24.1427 H   0  0  0  0  0  0
  -28.2360  -16.7011   22.7397 H   0  0  0  0  0  0
  -29.2059  -21.6823   19.0742 H   0  0  0  0  0  0
  -27.6118  -21.1334   19.5259 H   0  0  0  0  0  0
  -27.1233  -23.2000   20.7413 H   0  0  0  0  0  0
  -27.5962  -23.6043   19.1214 H   0  0  0  0  0  0
  -30.5305  -24.0861   22.2603 H   0  0  0  0  0  0
  -28.9802  -23.4660   22.6807 H   0  0  0  0  0  0
  -28.2427  -21.3206   21.9051 H   0  0  0  0  0  0
  -30.9549  -22.0285   20.8489 H   0  0  0  0  0  0
  -30.1986  -21.3687   23.7303 H   0  0  0  0  0  0
  -31.6999  -22.1413   23.2296 H   0  0  0  0  0  0
  -31.3548  -20.4991   22.7235 H   0  0  0  0  0  0
  -32.8268  -25.8665   18.6435 H   0  0  0  0  0  0
  -31.2670  -25.9006   17.8233 H   0  0  0  0  0  0
  -32.1393  -24.3774   18.0005 H   0  0  0  0  0  0
  -29.0714  -25.9960   21.8555 H   0  0  0  0  0  0
  -27.4793  -25.4133   21.5412 H   0  0  0  0  0  0
  -30.9821  -26.0263   20.3136 H   0  0  0  0  0  0
  -31.8525  -24.5053   20.4882 H   0  0  0  0  0  0
  -26.8387  -18.5559   23.3469 H   0  0  0  0  0  0
  -27.0820  -20.1237   22.7657 H   0  0  0  0  0  0
  -29.1904  -14.9734   21.8206 H   0  0  0  0  0  0
  1 25  1  0  0  0
  1 30  2  0  0  0
  1 88  1  0  0  0
  2  3  1  0  0  0
  2 25  1  0  0  0
  2 90  1  0  0  0
  2 91  1  0  0  0
  3  4  1  0  0  0
  3 92  1  0  0  0
  3 93  1  0  0  0
  4  5  1  0  0  0
  4 94  1  0  0  0
  4 95  1  0  0  0
  5  6  1  0  0  0
  5 26  1  0  0  0
  5 96  1  0  0  0
  6 25  1  0  0  0
  6 97  1  0  0  0
  6 98  1  0  0  0
  7  8  2  0  0  0
  7 26  1  0  0  0
  7 29  1  0  0  0
  8  9  1  0  0  0
  8 22  1  0  0  0
  9 10  1  0  0  0
  9 27  2  0  0  0
 10 11  2  0  0  0
 10 15  1  0  0  0
 11 12  1  0  0  0
 11 99  1  0  0  0
 12 13  2  0  0  0
 12100  1  0  0  0
 13 14  1  0  0  0
 13 31  1  0  0  0
 14 15  2  0  0  0
 14101  1  0  0  0
 15102  1  0  0  0
 16 17  2  0  0  0
 16 21  1  0  0  0
 16 31  1  0  0  0
 17 18  1  0  0  0
 17103  1  0  0  0
 18 19  2  0  0  0
 18104  1  0  0  0
 19 20  1  0  0  0
 19 24  1  0  0  0
 20 21  2  0  0  0
 20105  1  0  0  0
 21 23  1  0  0  0
 22 28  1  0  0  0
 22 32  2  0  0  0
 26 27  1  0  0  0
 28106  1  0  0  0
 28107  1  0  0  0
 29108  1  0  0  0
 29109  1  0  0  0
 33 34  1  0  0  0
 33 66  1  0  0  0
 33 70  2  0  0  0
 34 36  1  0  0  0
 34 59  1  0  0  0
 34110  1  0  0  0
 35 44  2  0  0  0
 35 45  1  0  0  0
 35 68  1  0  0  0
 36 56  1  0  0  0
 36111  1  0  0  0
 37 39  1  0  0  0
 37 47  1  0  0  0
 37 66  1  0  0  0
 37112  1  0  0  0
 38 43  2  0  0  0
 38 46  1  0  0  0
 38 47  1  0  0  0
 39 64  1  0  0  0
 39 67  2  0  0  0
 40 52  1  0  0  0
 40 53  2  0  0  0
 40 58  1  0  0  0
 41113  1  0  0  0
 41114  1  0  0  0
 41115  1  0  0  0
 41 48  1  0  0  0
 42 43  1  0  0  0
 42 66  1  0  0  0
 42116  1  0  0  0
 42117  1  0  0  0
 43 44  1  0  0  0
 44118  1  0  0  0
 45 46  2  0  0  0
 45119  1  0  0  0
 46120  1  0  0  0
 47121  1  0  0  0
 47122  1  0  0  0
 48 56  1  0  0  0
 48 65  1  0  0  0
 48123  1  0  0  0
 49 50  1  0  0  0
 49 53  1  0  0  0
 49 64  1  0  0  0
 49124  1  0  0  0
 50 51  1  0  0  0
 50125  1  0  0  0
 50126  1  0  0  0
 51 52  1  0  0  0
 51127  1  0  0  0
 51128  1  0  0  0
 52129  1  0  0  0
 52130  1  0  0  0
 53 54  1  0  0  0
 54 55  2  0  0  0
 54131  1  0  0  0
 55 57  1  0  0  0
 55132  1  0  0  0
 56 69  2  0  0  0
 57 58  2  0  0  0
 57133  1  0  0  0
 58134  1  0  0  0
 59 60  1  0  0  0
 59 61  1  0  0  0
 59 62  1  0  0  0
 60135  1  0  0  0
 60136  1  0  0  0
 60137  1  0  0  0
 61138  1  0  0  0
 61139  1  0  0  0
 61140  1  0  0  0
 62141  1  0  0  0
 62142  1  0  0  0
 62143  1  0  0  0
 63 65  1  0  0  0
 63144  1  0  0  0
 63145  1  0  0  0
 63146  1  0  0  0
 64147  1  0  0  0
 65148  1  0  0  0
 68 83  1  0  0  0
 71 72  2  0  0  0
 71 74  1  0  0  0
 71149  1  0  0  0
 72 73  1  0  0  0
 72 87  1  0  0  0
 73 85  2  0  0  0
 73 78  1  0  0  0
 74 86  2  0  0  0
 74 88  1  0  0  0
 75 76  1  0  0  0
 75 78  1  0  0  0
 75150  1  0  0  0
 75151  1  0  0  0
 76 80  1  0  0  0
 76152  1  0  0  0
 76153  1  0  0  0
 77 79  1  0  0  0
 77 80  1  0  0  0
 77154  1  0  0  0
 77155  1  0  0  0
 78 79  1  0  0  0
 78156  1  0  0  0
 79 81  1  0  0  0
 79157  1  0  0  0
 80 83  1  0  0  0
 80 89  1  0  0  0
 81158  1  0  0  0
 81159  1  0  0  0
 81160  1  0  0  0
 82 84  1  0  0  0
 82161  1  0  0  0
 82162  1  0  0  0
 82163  1  0  0  0
 83164  1  0  0  0
 83165  1  0  0  0
 84 89  1  0  0  0
 84166  1  0  0  0
 84167  1  0  0  0
 85 86  1  0  0  0
 87168  1  0  0  0
 87169  1  0  0  0
 88170  1  0  0  0
M  ISO  4   1 100  68 101  83 101  88 100
M  END
> <chiral flag>
0

> <version>
0

> <s_m_source_file>
/data/baiqing/PycharmProjects/Reinvent-master-3.2/result/LINK_invent/BTK/process_docking_weight1_custom_product_contain_oxygen_bond_distance_aromatic_linkinvent_7_9_3/rearranged_h_0164.sdf

> <i_m_source_file_index>
14

> <r_mmod_Potential_Energy-OPLS-2005>
88.3351821899414

> <r_mmod_Stretch_Energy-OPLS-2005>
57.2315292358398

> <r_mmod_Bend_Energy-OPLS-2005>
144.801345825195

> <r_mmod_Torsional_Energy-OPLS-2005>
254.307357788086

> <r_mmod_Improper_Torsional_Energy-OPLS-2005>
6.01442813873291

> <r_mmod_Van_der_Waal_Energy-OPLS-2005>
146.324844360352

> <r_mmod_Electrostatic_Energy-OPLS-2005>
-286.607116699219

> <r_mmod_Solvation_Energy-OPLS-2005>
-252.646713256836

> <b_mmod_Minimization_Converged-OPLS-2005>
0

> <r_mmod_RMS_Derivative-OPLS-2005>
0.763713777065277

$$$$
14
                    3D
 Structure written by MMmdl.
170178  0  0  1  0            999 V2000
  -30.6323  -14.7704   20.4825 C   0  0  0  0  0  0
  -30.4227  -12.4751   19.4915 C   0  0  0  0  0  0
  -29.5136  -12.5150   18.2468 C   0  0  0  0  0  0
  -28.0376  -12.3313   18.6530 C   0  0  0  0  0  0
  -27.6371  -13.2390   19.8454 C   0  0  2  0  0  0
  -28.6743  -13.2007   20.9867 C   0  0  0  0  0  0
  -25.2485  -13.8194   20.5712 C   0  0  0  0  0  0
  -24.1786  -13.0445   20.9244 C   0  0  0  0  0  0
  -24.6366  -11.6927   20.8731 C   0  0  0  0  0  0
  -23.9048  -10.4283   21.0367 C   0  0  0  0  0  0
  -24.3599   -9.4215   21.9156 C   0  0  0  0  0  0
  -23.6294   -8.2240   22.0742 C   0  0  0  0  0  0
  -22.4270   -8.0274   21.3545 C   0  0  0  0  0  0
  -21.9898   -9.0230   20.4644 C   0  0  0  0  0  0
  -22.7203  -10.2110   20.3044 C   0  0  0  0  0  0
  -21.6844   -6.0730   22.5297 C   0  0  0  0  0  0
  -21.4000   -6.5646   23.8224 C   0  0  0  0  0  0
  -21.3662   -5.6795   24.9183 C   0  0  0  0  0  0
  -21.6044   -4.3067   24.7221 C   0  0  0  0  0  0
  -21.8827   -3.8150   23.4346 C   0  0  0  0  0  0
  -21.9181   -4.6968   22.3389 C   0  0  0  0  0  0
  -22.7794  -13.5225   21.1889 C   0  0  0  0  0  0
  -22.1661   -4.2178   21.0965 F   0  0  0  0  0  0
  -21.5625   -3.4529   25.7716 F   0  0  0  0  0  0
  -29.9749  -13.5572   20.4080 N   0  0  0  0  0  0
  -26.2910  -12.9420   20.3253 N   0  0  0  0  0  0
  -25.9302  -11.6562   20.5714 N   0  0  0  0  0  0
  -22.0434  -12.8233   22.0445 N   0  0  0  0  0  0
  -25.4133  -15.1900   20.4174 N   0  0  0  0  0  0
  -31.8279  -14.7757   20.1736 O   0  0  0  0  0  0
  -21.6663   -6.8866   21.4249 O   0  0  0  0  0  0
  -22.3513  -14.5526   20.6725 O   0  0  0  0  0  0
  -24.6307  -31.8565   23.1992 C   0  0  0  0  0  0
  -25.9140  -32.4759   23.8348 C   0  0  1  0  0  0
  -27.2175  -27.2376   20.1573 C   0  0  0  0  0  0
  -25.5935  -33.8567   24.2255 N   0  0  0  0  0  0
  -23.4252  -30.4812   21.5408 C   0  0  2  0  0  0
  -24.8722  -28.9226   20.1161 C   0  0  0  0  0  0
  -22.7489  -29.4618   22.4906 C   0  0  0  0  0  0
  -18.0288  -28.1394   22.8489 C   0  0  0  0  0  0
  -24.1493  -36.7281   23.2651 C   0  0  0  0  0  0
  -25.9715  -30.7662   21.3781 C   0  0  0  0  0  0
  -26.0427  -29.3842   20.7265 C   0  0  0  0  0  0
  -27.2108  -28.5558   20.7341 C   0  0  0  0  0  0
  -26.0145  -26.8461   19.5269 C   0  0  0  0  0  0
  -24.8642  -27.6608   19.5068 C   0  0  0  0  0  0
  -23.6453  -29.8154   20.1564 C   0  0  0  0  0  0
  -25.4118  -36.3070   24.0334 C   0  0  1  0  0  0
  -20.5906  -28.3698   23.1267 C   0  0  2  0  0  0
  -20.6783  -26.9412   22.5418 C   0  0  0  0  0  0
  -19.5760  -26.6380   21.5219 C   0  0  0  0  0  0
  -18.1931  -26.7934   22.1625 C   0  0  0  0  0  0
  -19.1550  -28.8852   23.2878 C   0  0  0  0  0  0
  -18.9475  -30.1452   23.8891 C   0  0  0  0  0  0
  -17.6479  -30.6597   24.0547 C   0  0  0  0  0  0
  -25.9058  -34.9441   23.5097 C   0  0  0  0  0  0
  -16.5365  -29.9087   23.6343 C   0  0  0  0  0  0
  -16.7278  -28.6510   23.0359 C   0  0  0  0  0  0
  -26.4488  -31.6595   25.0761 C   0  0  0  0  0  0
  -25.3700  -31.3777   26.1483 C   0  0  0  0  0  0
  -27.0339  -30.3018   24.6272 C   0  0  0  0  0  0
  -27.6060  -32.4317   25.7526 C   0  0  0  0  0  0
  -27.5582  -37.1802   24.8465 C   0  0  0  0  0  0
  -21.4197  -29.3038   22.3651 N   0  0  0  0  0  0
  -26.4291  -37.3769   23.9409 N   0  0  0  0  0  0
  -24.6950  -31.0538   22.0957 N   0  0  0  0  0  0
  -23.4209  -28.8173   23.3003 O   0  0  0  0  0  0
  -28.3617  -26.3977   20.2436 O   0  0  0  0  0  0
  -26.5636  -34.8912   22.4673 O   0  0  0  0  0  0
  -23.5456  -32.1392   23.7283 O   0  0  0  0  0  0
  -31.0611  -20.1298   20.2248 C   0  0  0  0  0  0
  -31.5601  -17.7622   20.1624 C   0  0  0  0  0  0
  -31.9794  -19.0975   19.9995 C   0  0  0  0  0  0
  -29.7509  -19.8391   20.6500 C   0  0  0  0  0  0
  -30.2554  -17.4133   20.5834 C   0  0  0  0  0  0
  -34.2869  -18.9048   20.1160 C   0  0  0  0  0  0
  -28.8316  -21.0691   20.9930 C   0  0  0  0  0  0
  -35.7197  -19.1786   19.7533 C   0  0  0  0  0  0
  -36.7736  -18.3697   20.4976 C   0  0  0  0  0  0
  -27.2690  -23.7540   24.6308 C   0  0  0  0  0  0
  -27.7567  -24.3435   18.7219 C   0  0  0  0  0  0
  -28.3198  -23.5954   23.5230 C   0  0  0  0  0  0
  -28.5168  -24.9167   19.9237 C   0  0  2  0  0  0
  -28.7677  -23.7784   21.0619 C   0  0  2  0  0  0
  -29.3874  -18.4908   20.8298 N   0  0  0  0  0  0
  -33.2632  -19.4434   19.5713 N   0  0  0  0  0  0
  -29.9129  -15.9534   20.7213 N   0  0  0  0  0  0
  -29.1939  -22.3581   20.6128 N   0  0  0  0  0  0
  -27.7877  -23.9249   22.1738 N   0  3  0  0  0  0
  -27.7965  -20.8840   21.6407 O   0  0  0  0  0  0
  -36.0596  -20.0170   18.9105 O   0  0  0  0  0  0
  -31.4677  -12.5751   19.1970 H   0  0  0  0  0  0
  -30.3503  -11.5017   19.9810 H   0  0  0  0  0  0
  -29.8093  -11.7311   17.5476 H   0  0  0  0  0  0
  -29.6389  -13.4694   17.7282 H   0  0  0  0  0  0
  -27.8953  -11.2808   18.9127 H   0  0  0  0  0  0
  -27.3829  -12.5223   17.8027 H   0  0  0  0  0  0
  -27.6282  -14.2591   19.4581 H   0  0  0  0  0  0
  -28.7156  -12.2120   21.4443 H   0  0  0  0  0  0
  -28.3928  -13.8896   21.7820 H   0  0  0  0  0  0
  -25.2723   -9.5711   22.4752 H   0  0  0  0  0  0
  -24.0020   -7.4624   22.7451 H   0  0  0  0  0  0
  -21.0828   -8.8682   19.8946 H   0  0  0  0  0  0
  -22.3604  -10.9625   19.6167 H   0  0  0  0  0  0
  -21.1996   -7.6162   23.9738 H   0  0  0  0  0  0
  -21.1486   -6.0523   25.9091 H   0  0  0  0  0  0
  -22.0602   -2.7632   23.2815 H   0  0  0  0  0  0
  -22.4066  -11.9896   22.4788 H   0  0  0  0  0  0
  -21.1027  -13.1233   22.2621 H   0  0  0  0  0  0
  -24.6343  -15.8277   20.5314 H   0  0  0  0  0  0
  -26.2475  -15.6362   20.0565 H   0  0  0  0  0  0
  -26.7226  -32.5399   23.1096 H   0  0  0  0  0  0
  -25.0027  -33.9703   25.0371 H   0  0  0  0  0  0
  -22.7211  -31.3029   21.3948 H   0  0  0  0  0  0
  -23.3750  -35.9620   23.3301 H   0  0  0  0  0  0
  -24.3587  -36.8918   22.2072 H   0  0  0  0  0  0
  -23.7245  -37.6487   23.6664 H   0  0  0  0  0  0
  -26.1134  -31.5213   20.6021 H   0  0  0  0  0  0
  -26.8497  -30.8191   22.0113 H   0  0  0  0  0  0
  -28.1012  -28.9134   21.2316 H   0  0  0  0  0  0
  -25.9014  -25.8889   19.0578 H   0  0  0  0  0  0
  -23.9636  -27.2956   19.0302 H   0  0  0  0  0  0
  -23.7738  -30.5913   19.3995 H   0  0  0  0  0  0
  -22.7617  -29.2508   19.8517 H   0  0  0  0  0  0
  -25.1299  -36.1918   25.0828 H   0  0  0  0  0  0
  -21.0007  -28.3266   24.1390 H   0  0  0  0  0  0
  -20.5674  -26.2302   23.3626 H   0  0  0  0  0  0
  -21.6645  -26.7434   22.1214 H   0  0  0  0  0  0
  -19.6924  -25.6283   21.1256 H   0  0  0  0  0  0
  -19.6713  -27.3182   20.6735 H   0  0  0  0  0  0
  -17.4219  -26.6687   21.4009 H   0  0  0  0  0  0
  -18.0318  -26.0076   22.9014 H   0  0  0  0  0  0
  -19.7944  -30.7263   24.2275 H   0  0  0  0  0  0
  -17.5030  -31.6293   24.5133 H   0  0  0  0  0  0
  -15.5356  -30.2988   23.7681 H   0  0  0  0  0  0
  -15.8668  -28.0818   22.7085 H   0  0  0  0  0  0
  -24.5868  -30.7135   25.7796 H   0  0  0  0  0  0
  -24.8909  -32.2975   26.4867 H   0  0  0  0  0  0
  -25.8022  -30.8979   27.0280 H   0  0  0  0  0  0
  -26.2955  -29.6769   24.1258 H   0  0  0  0  0  0
  -27.3958  -29.7284   25.4805 H   0  0  0  0  0  0
  -27.8831  -30.4272   23.9563 H   0  0  0  0  0  0
  -27.2700  -33.3608   26.2126 H   0  0  0  0  0  0
  -28.3874  -32.6897   25.0369 H   0  0  0  0  0  0
  -28.0724  -31.8438   26.5437 H   0  0  0  0  0  0
  -28.2597  -38.0100   24.7500 H   0  0  0  0  0  0
  -28.1077  -36.2634   24.6277 H   0  0  0  0  0  0
  -27.2311  -37.1440   25.8874 H   0  0  0  0  0  0
  -20.9374  -29.8760   21.6866 H   0  0  0  0  0  0
  -26.0163  -38.2847   24.1401 H   0  0  0  0  0  0
  -31.3842  -21.1510   20.0931 H   0  0  0  0  0  0
  -32.2793  -16.9955   19.9426 H   0  0  0  0  0  0
  -34.1626  -18.1861   20.9293 H   0  0  0  0  0  0
  -36.7316  -18.5987   21.5626 H   0  0  0  0  0  0
  -37.7717  -18.5964   20.1183 H   0  0  0  0  0  0
  -36.5847  -17.3051   20.3756 H   0  0  0  0  0  0
  -27.6955  -23.5058   25.6040 H   0  0  0  0  0  0
  -26.4212  -23.0872   24.4769 H   0  0  0  0  0  0
  -26.9027  -24.7798   24.6807 H   0  0  0  0  0  0
  -28.2863  -23.4858   18.3079 H   0  0  0  0  0  0
  -27.6783  -25.0710   17.9158 H   0  0  0  0  0  0
  -26.7681  -23.9810   19.0014 H   0  0  0  0  0  0
  -28.6984  -22.5731   23.5414 H   0  0  0  0  0  0
  -29.1714  -24.2404   23.7490 H   0  0  0  0  0  0
  -29.5193  -24.9919   19.4984 H   0  0  0  0  0  0
  -29.6981  -24.1289   21.5096 H   0  0  0  0  0  0
  -28.9538  -15.7822   20.9722 H   0  0  0  0  0  0
  -30.0165  -22.3505   20.0257 H   0  0  0  0  0  0
  -27.5026  -24.8946   22.1966 H   0  0  0  0  0  0
  -26.9619  -23.3794   21.9861 H   0  0  0  0  0  0
  1 25  1  0  0  0
  1 30  2  0  0  0
  1 87  1  0  0  0
  2  3  1  0  0  0
  2 25  1  0  0  0
  2 92  1  0  0  0
  2 93  1  0  0  0
  3  4  1  0  0  0
  3 94  1  0  0  0
  3 95  1  0  0  0
  4  5  1  0  0  0
  4 96  1  0  0  0
  4 97  1  0  0  0
  5  6  1  0  0  0
  5 26  1  0  0  0
  5 98  1  0  0  0
  6 25  1  0  0  0
  6 99  1  0  0  0
  6100  1  0  0  0
  7  8  2  0  0  0
  7 26  1  0  0  0
  7 29  1  0  0  0
  8  9  1  0  0  0
  8 22  1  0  0  0
  9 10  1  0  0  0
  9 27  2  0  0  0
 10 11  2  0  0  0
 10 15  1  0  0  0
 11 12  1  0  0  0
 11101  1  0  0  0
 12 13  2  0  0  0
 12102  1  0  0  0
 13 14  1  0  0  0
 13 31  1  0  0  0
 14 15  2  0  0  0
 14103  1  0  0  0
 15104  1  0  0  0
 16 17  2  0  0  0
 16 21  1  0  0  0
 16 31  1  0  0  0
 17 18  1  0  0  0
 17105  1  0  0  0
 18 19  2  0  0  0
 18106  1  0  0  0
 19 20  1  0  0  0
 19 24  1  0  0  0
 20 21  2  0  0  0
 20107  1  0  0  0
 21 23  1  0  0  0
 22 28  1  0  0  0
 22 32  2  0  0  0
 26 27  1  0  0  0
 28108  1  0  0  0
 28109  1  0  0  0
 29110  1  0  0  0
 29111  1  0  0  0
 33 34  1  0  0  0
 33 66  1  0  0  0
 33 70  2  0  0  0
 34 36  1  0  0  0
 34 59  1  0  0  0
 34112  1  0  0  0
 35 44  2  0  0  0
 35 45  1  0  0  0
 35 68  1  0  0  0
 36 56  1  0  0  0
 36113  1  0  0  0
 37 39  1  0  0  0
 37 47  1  0  0  0
 37 66  1  0  0  0
 37114  1  0  0  0
 38 43  2  0  0  0
 38 46  1  0  0  0
 38 47  1  0  0  0
 39 64  1  0  0  0
 39 67  2  0  0  0
 40 52  1  0  0  0
 40 53  2  0  0  0
 40 58  1  0  0  0
 41115  1  0  0  0
 41116  1  0  0  0
 41117  1  0  0  0
 41 48  1  0  0  0
 42 43  1  0  0  0
 42 66  1  0  0  0
 42118  1  0  0  0
 42119  1  0  0  0
 43 44  1  0  0  0
 44120  1  0  0  0
 45 46  2  0  0  0
 45121  1  0  0  0
 46122  1  0  0  0
 47123  1  0  0  0
 47124  1  0  0  0
 48 56  1  0  0  0
 48 65  1  0  0  0
 48125  1  0  0  0
 49 50  1  0  0  0
 49 53  1  0  0  0
 49 64  1  0  0  0
 49126  1  0  0  0
 50 51  1  0  0  0
 50127  1  0  0  0
 50128  1  0  0  0
 51 52  1  0  0  0
 51129  1  0  0  0
 51130  1  0  0  0
 52131  1  0  0  0
 52132  1  0  0  0
 53 54  1  0  0  0
 54 55  2  0  0  0
 54133  1  0  0  0
 55 57  1  0  0  0
 55134  1  0  0  0
 56 69  2  0  0  0
 57 58  2  0  0  0
 57135  1  0  0  0
 58136  1  0  0  0
 59 60  1  0  0  0
 59 61  1  0  0  0
 59 62  1  0  0  0
 60137  1  0  0  0
 60138  1  0  0  0
 60139  1  0  0  0
 61140  1  0  0  0
 61141  1  0  0  0
 61142  1  0  0  0
 62143  1  0  0  0
 62144  1  0  0  0
 62145  1  0  0  0
 63 65  1  0  0  0
 63146  1  0  0  0
 63147  1  0  0  0
 63148  1  0  0  0
 64149  1  0  0  0
 65150  1  0  0  0
 68 83  1  0  0  0
 71 73  2  0  0  0
 71 74  1  0  0  0
 71151  1  0  0  0
 72 73  1  0  0  0
 72 75  2  0  0  0
 72152  1  0  0  0
 73 86  1  0  0  0
 74 77  1  0  0  0
 74 85  2  0  0  0
 75 85  1  0  0  0
 75 87  1  0  0  0
 76 78  1  0  0  0
 76 86  2  0  0  0
 76153  1  0  0  0
 77 88  1  0  0  0
 77 90  2  0  0  0
 78 79  1  0  0  0
 78 91  2  0  0  0
 79154  1  0  0  0
 79155  1  0  0  0
 79156  1  0  0  0
 80 82  1  0  0  0
 80157  1  0  0  0
 80158  1  0  0  0
 80159  1  0  0  0
 81160  1  0  0  0
 81161  1  0  0  0
 81162  1  0  0  0
 81 83  1  0  0  0
 82 89  1  0  0  0
 82163  1  0  0  0
 82164  1  0  0  0
 83 84  1  0  0  0
 83165  1  0  0  0
 84 88  1  0  0  0
 84 89  1  0  0  0
 84166  1  0  0  0
 87167  1  0  0  0
 88168  1  0  0  0
 89169  1  0  0  0
 89170  1  0  0  0
M  CHG  1  89   1
M  ISO  4   1 100  68 101  83 101  87 100
M  END
> <chiral flag>
0

> <version>
0

> <s_m_source_file>
/data/baiqing/PycharmProjects/Reinvent-master-3.2/result/LINK_invent/BTK/process_docking_weight1_custom_product_contain_oxygen_bond_distance_aromatic_linkinvent_7_9_3/rearranged_h_0164.sdf

> <i_m_source_file_index>
15

> <r_mmod_Potential_Energy-OPLS-2005>
-113.5634765625

> <r_mmod_Stretch_Energy-OPLS-2005>
154.356353759766

> <r_mmod_Bend_Energy-OPLS-2005>
244.967712402344

> <r_mmod_Torsional_Energy-OPLS-2005>
250.804000854492

> <r_mmod_Improper_Torsional_Energy-OPLS-2005>
4.71168994903564

> <r_mmod_Van_der_Waal_Energy-OPLS-2005>
152.720581054688

> <r_mmod_Electrostatic_Energy-OPLS-2005>
-531.931335449219

> <r_mmod_Solvation_Energy-OPLS-2005>
-482.335205078125

> <b_mmod_Minimization_Converged-OPLS-2005>
0

> <r_mmod_RMS_Derivative-OPLS-2005>
4.99300622940063

$$$$
15
                    3D
 Structure written by MMmdl.
166175  0  0  1  0            999 V2000
  -30.6810  -14.4755   20.5555 C   0  0  0  0  0  0
  -30.4226  -12.3005   19.4302 C   0  0  0  0  0  0
  -29.4982  -12.5195   18.2137 C   0  0  0  0  0  0
  -28.0171  -12.3816   18.6192 C   0  0  0  0  0  0
  -27.6651  -13.2087   19.8850 C   0  0  2  0  0  0
  -28.7045  -12.9742   21.0052 C   0  0  0  0  0  0
  -25.2591  -13.8167   20.5684 C   0  0  0  0  0  0
  -24.1853  -13.0432   20.9182 C   0  0  0  0  0  0
  -24.6415  -11.6903   20.8746 C   0  0  0  0  0  0
  -23.9090  -10.4286   21.0415 C   0  0  0  0  0  0
  -24.3635   -9.4199   21.9192 C   0  0  0  0  0  0
  -23.6305   -8.2238   22.0763 C   0  0  0  0  0  0
  -22.4284   -8.0288   21.3558 C   0  0  0  0  0  0
  -21.9928   -9.0264   20.4660 C   0  0  0  0  0  0
  -22.7265  -10.2134   20.3065 C   0  0  0  0  0  0
  -21.6851   -6.0745   22.5296 C   0  0  0  0  0  0
  -21.4010   -6.5646   23.8230 C   0  0  0  0  0  0
  -21.3661   -5.6796   24.9192 C   0  0  0  0  0  0
  -21.6041   -4.3060   24.7237 C   0  0  0  0  0  0
  -21.8817   -3.8160   23.4355 C   0  0  0  0  0  0
  -21.9192   -4.6978   22.3411 C   0  0  0  0  0  0
  -22.7863  -13.5225   21.1843 C   0  0  0  0  0  0
  -22.1658   -4.2167   21.0984 F   0  0  0  0  0  0
  -21.5640   -3.4541   25.7747 F   0  0  0  0  0  0
  -30.0398  -13.2792   20.4610 N   0  0  0  0  0  0
  -26.3048  -12.9342   20.3413 N   0  0  0  0  0  0
  -25.9346  -11.6495   20.5786 N   0  0  0  0  0  0
  -22.0522  -12.8217   22.0413 N   0  0  0  0  0  0
  -25.4290  -15.1890   20.4098 N   0  0  0  0  0  0
  -31.8009  -14.6728   20.0748 O   0  0  0  0  0  0
  -21.6642   -6.8892   21.4261 O   0  0  0  0  0  0
  -22.3548  -14.5533   20.6711 O   0  0  0  0  0  0
  -24.6166  -31.8693   23.2119 C   0  0  0  0  0  0
  -25.9042  -32.4838   23.8418 C   0  0  1  0  0  0
  -27.2258  -27.4159   20.0856 C   0  0  0  0  0  0
  -25.5893  -33.8638   24.2347 N   0  0  0  0  0  0
  -23.4048  -30.4969   21.5541 C   0  0  2  0  0  0
  -24.8482  -28.9680   20.1158 C   0  0  0  0  0  0
  -22.7420  -29.4659   22.4983 C   0  0  0  0  0  0
  -18.0275  -28.1377   22.8498 C   0  0  0  0  0  0
  -24.1481  -36.7315   23.2636 C   0  0  0  0  0  0
  -25.9393  -30.8265   21.3719 C   0  0  0  0  0  0
  -26.0136  -29.4626   20.7143 C   0  0  0  0  0  0
  -27.2043  -28.6937   20.6996 C   0  0  0  0  0  0
  -26.0308  -26.9486   19.4829 C   0  0  0  0  0  0
  -24.8524  -27.7092   19.4996 C   0  0  0  0  0  0
  -23.6143  -29.8376   20.1674 C   0  0  0  0  0  0
  -25.4103  -36.3119   24.0343 C   0  0  1  0  0  0
  -20.5870  -28.3668   23.1315 C   0  0  2  0  0  0
  -20.6764  -26.9403   22.5411 C   0  0  0  0  0  0
  -19.5731  -26.6385   21.5217 C   0  0  0  0  0  0
  -18.1918  -26.7924   22.1635 C   0  0  0  0  0  0
  -19.1525  -28.8837   23.2908 C   0  0  0  0  0  0
  -18.9453  -30.1446   23.8919 C   0  0  0  0  0  0
  -17.6454  -30.6586   24.0569 C   0  0  0  0  0  0
  -25.9028  -34.9488   23.5143 C   0  0  0  0  0  0
  -16.5346  -29.9091   23.6326 C   0  0  0  0  0  0
  -16.7264  -28.6503   23.0351 C   0  0  0  0  0  0
  -26.4460  -31.6607   25.0745 C   0  0  0  0  0  0
  -25.3729  -31.3717   26.1499 C   0  0  0  0  0  0
  -27.0284  -30.3042   24.6129 C   0  0  0  0  0  0
  -27.6029  -32.4327   25.7516 C   0  0  0  0  0  0
  -27.5591  -37.1801   24.8459 C   0  0  0  0  0  0
  -21.4144  -29.3044   22.3722 N   0  0  0  0  0  0
  -26.4291  -37.3805   23.9432 N   0  0  0  0  0  0
  -24.6723  -31.0776   22.1036 N   0  0  0  0  0  0
  -23.4196  -28.8189   23.3013 O   0  0  0  0  0  0
  -28.3820  -26.6472   20.0995 O   0  0  0  0  0  0
  -26.5595  -34.8935   22.4707 O   0  0  0  0  0  0
  -23.5347  -32.1449   23.7493 O   0  0  0  0  0  0
  -28.9177  -19.0805   21.0432 C   0  0  0  0  0  0
  -29.9153  -18.5362   18.9060 C   0  0  0  0  0  0
  -29.1939  -17.7699   21.5015 C   0  0  0  0  0  0
  -30.2097  -17.2347   19.3672 C   0  0  0  0  0  0
  -29.2470  -19.4780   19.7277 C   0  0  0  0  0  0
  -29.8298  -16.8219   20.6662 C   0  0  0  0  0  0
  -28.2487  -25.2984   19.8294 C   0  0  0  0  0  0
  -28.5070  -24.3020   20.7020 C   0  0  0  0  0  0
  -28.1014  -22.9391   20.3371 C   0  0  0  0  0  0
  -29.1250  -21.1669   17.7133 C   0  0  0  0  0  0
  -30.5859  -21.6382   17.5572 C   0  0  0  0  0  0
  -30.5198  -22.3360   19.9845 C   0  0  0  0  0  0
  -28.7536  -20.8414   19.1828 C   0  0  2  0  0  0
  -30.9473  -22.7525   18.5626 C   0  0  1  0  0  0
  -32.4373  -23.1078   18.5020 C   0  0  0  0  0  0
  -29.0775  -22.0517   19.9824 N   0  0  0  0  0  0
  -29.9682  -15.4699   21.1245 N   0  0  0  0  0  0
  -26.9047  -22.6346   20.3058 O   0  0  0  0  0  0
  -29.0333  -24.5551   21.9102 O   0  0  0  0  0  0
  -31.4698  -12.3917   19.1363 H   0  0  0  0  0  0
  -30.3098  -11.2864   19.8176 H   0  0  0  0  0  0
  -29.7372  -11.8076   17.4229 H   0  0  0  0  0  0
  -29.6744  -13.5111   17.7915 H   0  0  0  0  0  0
  -27.8179  -11.3238   18.7976 H   0  0  0  0  0  0
  -27.3729  -12.6736   17.7904 H   0  0  0  0  0  0
  -27.7124  -14.2618   19.6050 H   0  0  0  0  0  0
  -28.6748  -11.9336   21.3332 H   0  0  0  0  0  0
  -28.4659  -13.5643   21.8909 H   0  0  0  0  0  0
  -25.2787   -9.5658   22.4765 H   0  0  0  0  0  0
  -24.0026   -7.4614   22.7457 H   0  0  0  0  0  0
  -21.0874   -8.8785   19.8943 H   0  0  0  0  0  0
  -22.3757  -10.9673   19.6166 H   0  0  0  0  0  0
  -21.1991   -7.6156   23.9740 H   0  0  0  0  0  0
  -21.1490   -6.0529   25.9088 H   0  0  0  0  0  0
  -22.0595   -2.7623   23.2865 H   0  0  0  0  0  0
  -22.4138  -11.9853   22.4763 H   0  0  0  0  0  0
  -21.1142  -13.1237   22.2629 H   0  0  0  0  0  0
  -24.6608  -15.8434   20.5074 H   0  0  0  0  0  0
  -26.2888  -15.6318   20.1107 H   0  0  0  0  0  0
  -26.7115  -32.5529   23.1183 H   0  0  0  0  0  0
  -25.0027  -33.9813   25.0478 H   0  0  0  0  0  0
  -22.6945  -31.3150   21.4173 H   0  0  0  0  0  0
  -23.3764  -35.9622   23.3270 H   0  0  0  0  0  0
  -24.3569  -36.8951   22.2051 H   0  0  0  0  0  0
  -23.7209  -37.6500   23.6670 H   0  0  0  0  0  0
  -26.0596  -31.5913   20.6041 H   0  0  0  0  0  0
  -26.8243  -30.8753   21.9930 H   0  0  0  0  0  0
  -28.1032  -29.0694   21.1682 H   0  0  0  0  0  0
  -25.9703  -25.9887   18.9944 H   0  0  0  0  0  0
  -23.9547  -27.3198   19.0374 H   0  0  0  0  0  0
  -23.7280  -30.6161   19.4130 H   0  0  0  0  0  0
  -22.7366  -29.2642   19.8652 H   0  0  0  0  0  0
  -25.1273  -36.1979   25.0836 H   0  0  0  0  0  0
  -20.9972  -28.3227   24.1427 H   0  0  0  0  0  0
  -20.5672  -26.2273   23.3607 H   0  0  0  0  0  0
  -21.6634  -26.7433   22.1205 H   0  0  0  0  0  0
  -19.6895  -25.6296   21.1245 H   0  0  0  0  0  0
  -19.6676  -27.3199   20.6754 H   0  0  0  0  0  0
  -17.4188  -26.6679   21.4042 H   0  0  0  0  0  0
  -18.0308  -26.0067   22.9029 H   0  0  0  0  0  0
  -19.7926  -30.7255   24.2307 H   0  0  0  0  0  0
  -17.5008  -31.6273   24.5160 H   0  0  0  0  0  0
  -15.5351  -30.3007   23.7625 H   0  0  0  0  0  0
  -15.8665  -28.0837   22.7054 H   0  0  0  0  0  0
  -24.5873  -30.7102   25.7828 H   0  0  0  0  0  0
  -24.8968  -32.2877   26.5003 H   0  0  0  0  0  0
  -25.8069  -30.8829   27.0227 H   0  0  0  0  0  0
  -26.2824  -29.6823   24.1165 H   0  0  0  0  0  0
  -27.4014  -29.7255   25.4586 H   0  0  0  0  0  0
  -27.8682  -30.4350   23.9307 H   0  0  0  0  0  0
  -27.2637  -33.3601   26.2153 H   0  0  0  0  0  0
  -28.3818  -32.6933   25.0338 H   0  0  0  0  0  0
  -28.0741  -31.8427   26.5392 H   0  0  0  0  0  0
  -28.2573  -38.0133   24.7557 H   0  0  0  0  0  0
  -28.1120  -36.2668   24.6211 H   0  0  0  0  0  0
  -27.2312  -37.1351   25.8857 H   0  0  0  0  0  0
  -20.9291  -29.8805   21.6985 H   0  0  0  0  0  0
  -26.0176  -38.2870   24.1467 H   0  0  0  0  0  0
  -28.3949  -19.7680   21.6944 H   0  0  0  0  0  0
  -30.1807  -18.7721   17.8867 H   0  0  0  0  0  0
  -28.8846  -17.4925   22.5000 H   0  0  0  0  0  0
  -30.6852  -16.5485   18.6806 H   0  0  0  0  0  0
  -27.8688  -25.1159   18.8324 H   0  0  0  0  0  0
  -28.8975  -20.3357   17.0459 H   0  0  0  0  0  0
  -28.4783  -21.9780   17.3744 H   0  0  0  0  0  0
  -30.7478  -21.9895   16.5375 H   0  0  0  0  0  0
  -31.2595  -20.7921   17.6967 H   0  0  0  0  0  0
  -30.7970  -23.0977   20.7117 H   0  0  0  0  0  0
  -31.0632  -21.4413   20.2926 H   0  0  0  0  0  0
  -27.6732  -20.6906   19.1653 H   0  0  0  0  0  0
  -30.3893  -23.6489   18.2872 H   0  0  0  0  0  0
  -33.0585  -22.2726   18.8288 H   0  0  0  0  0  0
  -32.6615  -23.9629   19.1406 H   0  0  0  0  0  0
  -32.7378  -23.3728   17.4878 H   0  0  0  0  0  0
  -29.2276  -15.1491   21.7296 H   0  0  0  0  0  0
  -29.1793  -25.4915   21.9541 H   0  0  0  0  0  0
  1 25  1  0  0  0
  1 30  2  0  0  0
  1 87  1  0  0  0
  2  3  1  0  0  0
  2 25  1  0  0  0
  2 90  1  0  0  0
  2 91  1  0  0  0
  3  4  1  0  0  0
  3 92  1  0  0  0
  3 93  1  0  0  0
  4  5  1  0  0  0
  4 94  1  0  0  0
  4 95  1  0  0  0
  5  6  1  0  0  0
  5 26  1  0  0  0
  5 96  1  0  0  0
  6 25  1  0  0  0
  6 97  1  0  0  0
  6 98  1  0  0  0
  7  8  2  0  0  0
  7 26  1  0  0  0
  7 29  1  0  0  0
  8  9  1  0  0  0
  8 22  1  0  0  0
  9 10  1  0  0  0
  9 27  2  0  0  0
 10 11  2  0  0  0
 10 15  1  0  0  0
 11 12  1  0  0  0
 11 99  1  0  0  0
 12 13  2  0  0  0
 12100  1  0  0  0
 13 14  1  0  0  0
 13 31  1  0  0  0
 14 15  2  0  0  0
 14101  1  0  0  0
 15102  1  0  0  0
 16 17  2  0  0  0
 16 21  1  0  0  0
 16 31  1  0  0  0
 17 18  1  0  0  0
 17103  1  0  0  0
 18 19  2  0  0  0
 18104  1  0  0  0
 19 20  1  0  0  0
 19 24  1  0  0  0
 20 21  2  0  0  0
 20105  1  0  0  0
 21 23  1  0  0  0
 22 28  1  0  0  0
 22 32  2  0  0  0
 26 27  1  0  0  0
 28106  1  0  0  0
 28107  1  0  0  0
 29108  1  0  0  0
 29109  1  0  0  0
 33 34  1  0  0  0
 33 66  1  0  0  0
 33 70  2  0  0  0
 34 36  1  0  0  0
 34 59  1  0  0  0
 34110  1  0  0  0
 35 44  2  0  0  0
 35 45  1  0  0  0
 35 68  1  0  0  0
 36 56  1  0  0  0
 36111  1  0  0  0
 37 39  1  0  0  0
 37 47  1  0  0  0
 37 66  1  0  0  0
 37112  1  0  0  0
 38 43  2  0  0  0
 38 46  1  0  0  0
 38 47  1  0  0  0
 39 64  1  0  0  0
 39 67  2  0  0  0
 40 52  1  0  0  0
 40 53  2  0  0  0
 40 58  1  0  0  0
 41113  1  0  0  0
 41114  1  0  0  0
 41115  1  0  0  0
 41 48  1  0  0  0
 42 43  1  0  0  0
 42 66  1  0  0  0
 42116  1  0  0  0
 42117  1  0  0  0
 43 44  1  0  0  0
 44118  1  0  0  0
 45 46  2  0  0  0
 45119  1  0  0  0
 46120  1  0  0  0
 47121  1  0  0  0
 47122  1  0  0  0
 48 56  1  0  0  0
 48 65  1  0  0  0
 48123  1  0  0  0
 49 50  1  0  0  0
 49 53  1  0  0  0
 49 64  1  0  0  0
 49124  1  0  0  0
 50 51  1  0  0  0
 50125  1  0  0  0
 50126  1  0  0  0
 51 52  1  0  0  0
 51127  1  0  0  0
 51128  1  0  0  0
 52129  1  0  0  0
 52130  1  0  0  0
 53 54  1  0  0  0
 54 55  2  0  0  0
 54131  1  0  0  0
 55 57  1  0  0  0
 55132  1  0  0  0
 56 69  2  0  0  0
 57 58  2  0  0  0
 57133  1  0  0  0
 58134  1  0  0  0
 59 60  1  0  0  0
 59 61  1  0  0  0
 59 62  1  0  0  0
 60135  1  0  0  0
 60136  1  0  0  0
 60137  1  0  0  0
 61138  1  0  0  0
 61139  1  0  0  0
 61140  1  0  0  0
 62141  1  0  0  0
 62142  1  0  0  0
 62143  1  0  0  0
 63 65  1  0  0  0
 63144  1  0  0  0
 63145  1  0  0  0
 63146  1  0  0  0
 64147  1  0  0  0
 65148  1  0  0  0
 68 77  1  0  0  0
 71 73  2  0  0  0
 71 75  1  0  0  0
 71149  1  0  0  0
 72 74  1  0  0  0
 72 75  2  0  0  0
 72150  1  0  0  0
 73 76  1  0  0  0
 73151  1  0  0  0
 74 76  2  0  0  0
 74152  1  0  0  0
 75 83  1  0  0  0
 76 87  1  0  0  0
 77 78  2  0  0  0
 77153  1  0  0  0
 78 79  1  0  0  0
 78 89  1  0  0  0
 79 86  1  0  0  0
 79 88  2  0  0  0
 80 81  1  0  0  0
 80 83  1  0  0  0
 80154  1  0  0  0
 80155  1  0  0  0
 81 84  1  0  0  0
 81156  1  0  0  0
 81157  1  0  0  0
 82 84  1  0  0  0
 82 86  1  0  0  0
 82158  1  0  0  0
 82159  1  0  0  0
 83 86  1  0  0  0
 83160  1  0  0  0
 84 85  1  0  0  0
 84161  1  0  0  0
 85162  1  0  0  0
 85163  1  0  0  0
 85164  1  0  0  0
 87165  1  0  0  0
 89166  1  0  0  0
M  ISO  4   1 100  68 101  77 101  87 100
M  END
> <chiral flag>
0

> <version>
0

> <s_m_source_file>
/data/baiqing/PycharmProjects/Reinvent-master-3.2/result/LINK_invent/BTK/process_docking_weight1_custom_product_contain_oxygen_bond_distance_aromatic_linkinvent_7_9_3/rearranged_h_0164.sdf

> <i_m_source_file_index>
16

> <r_mmod_Potential_Energy-OPLS-2005>
107.723678588867

> <r_mmod_Stretch_Energy-OPLS-2005>
45.3689117431641

> <r_mmod_Bend_Energy-OPLS-2005>
115.771308898926

> <r_mmod_Torsional_Energy-OPLS-2005>
325.955413818359

> <r_mmod_Improper_Torsional_Energy-OPLS-2005>
6.8600001335144

> <r_mmod_Van_der_Waal_Energy-OPLS-2005>
172.296508789062

> <r_mmod_Electrostatic_Energy-OPLS-2005>
-359.359222412109

> <r_mmod_Solvation_Energy-OPLS-2005>
-213.601181030273

> <b_mmod_Minimization_Converged-OPLS-2005>
0

> <r_mmod_RMS_Derivative-OPLS-2005>
1.98549675941467

$$$$
16
                    3D
 Structure written by MMmdl.
153161  0  0  1  0            999 V2000
  -30.6940  -14.5978   20.5826 C   0  0  0  0  0  0
  -30.4326  -12.3715   19.4851 C   0  0  0  0  0  0
  -29.5235  -12.5030   18.2441 C   0  0  0  0  0  0
  -28.0428  -12.3497   18.6452 C   0  0  0  0  0  0
  -27.6512  -13.2274   19.8653 C   0  0  2  0  0  0
  -28.6859  -13.0756   21.0031 C   0  0  0  0  0  0
  -25.2462  -13.8188   20.5714 C   0  0  0  0  0  0
  -24.1726  -13.0458   20.9137 C   0  0  0  0  0  0
  -24.6287  -11.6908   20.8641 C   0  0  0  0  0  0
  -23.8967  -10.4276   21.0343 C   0  0  0  0  0  0
  -24.3510   -9.4211   21.9147 C   0  0  0  0  0  0
  -23.6194   -8.2239   22.0755 C   0  0  0  0  0  0
  -22.4186   -8.0242   21.3522 C   0  0  0  0  0  0
  -21.9774   -9.0221   20.4646 C   0  0  0  0  0  0
  -22.7111  -10.2115   20.3016 C   0  0  0  0  0  0
  -21.6851   -6.0672   22.5270 C   0  0  0  0  0  0
  -21.4028   -6.5559   23.8224 C   0  0  0  0  0  0
  -21.3664   -5.6710   24.9172 C   0  0  0  0  0  0
  -21.6048   -4.2972   24.7223 C   0  0  0  0  0  0
  -21.8837   -3.8069   23.4335 C   0  0  0  0  0  0
  -21.9187   -4.6888   22.3395 C   0  0  0  0  0  0
  -22.7718  -13.5271   21.1809 C   0  0  0  0  0  0
  -22.1651   -4.2067   21.0972 F   0  0  0  0  0  0
  -21.5614   -3.4459   25.7744 F   0  0  0  0  0  0
  -30.0150  -13.4044   20.4613 N   0  0  0  0  0  0
  -26.2912  -12.9417   20.3268 N   0  0  0  0  0  0
  -25.9219  -11.6543   20.5612 N   0  0  0  0  0  0
  -22.0284  -12.8373   22.0382 N   0  0  0  0  0  0
  -25.4169  -15.1938   20.4286 N   0  0  0  0  0  0
  -31.8479  -14.6897   20.1562 O   0  0  0  0  0  0
  -21.6588   -6.8804   21.4230 O   0  0  0  0  0  0
  -22.3442  -14.5562   20.6622 O   0  0  0  0  0  0
  -24.6214  -31.8649   23.1998 C   0  0  0  0  0  0
  -25.9068  -32.4834   23.8399 C   0  0  1  0  0  0
  -27.2666  -27.3339   20.1648 C   0  0  0  0  0  0
  -25.5938  -33.8628   24.2368 N   0  0  0  0  0  0
  -23.4223  -30.4754   21.5369 C   0  0  2  0  0  0
  -24.8863  -28.9160   20.1371 C   0  0  0  0  0  0
  -22.7488  -29.4599   22.4889 C   0  0  0  0  0  0
  -18.0330  -28.1389   22.8526 C   0  0  0  0  0  0
  -24.1476  -36.7261   23.2627 C   0  0  0  0  0  0
  -25.9551  -30.8009   21.3714 C   0  0  0  0  0  0
  -26.0446  -29.4160   20.7461 C   0  0  0  0  0  0
  -27.2361  -28.6300   20.7643 C   0  0  0  0  0  0
  -26.0951  -26.8823   19.5307 C   0  0  0  0  0  0
  -24.9086  -27.6483   19.5323 C   0  0  0  0  0  0
  -23.6535  -29.7950   20.1628 C   0  0  0  0  0  0
  -25.4121  -36.3136   24.0346 C   0  0  1  0  0  0
  -20.5919  -28.3728   23.1266 C   0  0  2  0  0  0
  -20.6800  -26.9429   22.5422 C   0  0  0  0  0  0
  -19.5741  -26.6409   21.5239 C   0  0  0  0  0  0
  -18.1939  -26.7943   22.1648 C   0  0  0  0  0  0
  -19.1567  -28.8875   23.2892 C   0  0  0  0  0  0
  -18.9477  -30.1478   23.8905 C   0  0  0  0  0  0
  -17.6466  -30.6592   24.0569 C   0  0  0  0  0  0
  -25.9035  -34.9480   23.5152 C   0  0  0  0  0  0
  -16.5364  -29.9102   23.6277 C   0  0  0  0  0  0
  -16.7316  -28.6493   23.0359 C   0  0  0  0  0  0
  -26.4460  -31.6640   25.0739 C   0  0  0  0  0  0
  -25.3690  -31.3778   26.1471 C   0  0  0  0  0  0
  -27.0310  -30.3105   24.6092 C   0  0  0  0  0  0
  -27.6079  -32.4351   25.7477 C   0  0  0  0  0  0
  -27.5585  -37.1782   24.8442 C   0  0  0  0  0  0
  -21.4201  -29.3066   22.3628 N   0  0  0  0  0  0
  -26.4304  -37.3839   23.9421 N   0  0  0  0  0  0
  -24.6823  -31.0687   22.0923 N   0  0  0  0  0  0
  -23.4158  -28.8194   23.3052 O   0  0  0  0  0  0
  -28.4002  -26.5190   20.0808 O   0  0  0  0  0  0
  -26.5601  -34.8919   22.4712 O   0  0  0  0  0  0
  -23.5365  -32.1466   23.7272 O   0  0  0  0  0  0
  -31.1701  -19.0529   20.4063 C   0  0  0  0  0  0
  -31.3217  -17.6340   20.2803 C   0  0  0  0  0  0
  -30.0710  -19.3122   21.1813 C   0  0  0  0  0  0
  -30.3056  -17.0499   20.9948 C   0  0  0  0  0  0
  -29.9790  -23.2725   21.5596 C   0  0  0  0  0  0
  -30.1814  -21.9213   21.7754 C   0  0  0  0  0  0
  -28.8605  -24.0727   20.9071 C   0  0  0  0  0  0
  -28.4671  -20.4677   22.7930 C   0  0  0  0  0  0
  -28.7723  -25.6360   21.2003 C   0  0  0  0  0  0
  -29.3272  -20.6396   21.5299 C   0  0  2  0  0  0
  -30.0159  -15.6894   21.0837 N   0  0  0  0  0  0
  -28.0243  -23.5433   20.1650 O   0  0  0  0  0  0
  -29.5261  -18.0707   21.5541 O   0  0  0  0  0  0
  -31.4831  -12.4570   19.2024 H   0  0  0  0  0  0
  -30.3322  -11.3742   19.9168 H   0  0  0  0  0  0
  -29.7870  -11.7517   17.4999 H   0  0  0  0  0  0
  -29.6888  -13.4722   17.7686 H   0  0  0  0  0  0
  -27.8704  -11.3005   18.8910 H   0  0  0  0  0  0
  -27.3997  -12.5683   17.7913 H   0  0  0  0  0  0
  -27.6810  -14.2611   19.5260 H   0  0  0  0  0  0
  -28.6750  -12.0491   21.3731 H   0  0  0  0  0  0
  -28.4184  -13.6970   21.8586 H   0  0  0  0  0  0
  -25.2680   -9.5688   22.4709 H   0  0  0  0  0  0
  -23.9883   -7.4635   22.7519 H   0  0  0  0  0  0
  -21.0670   -8.8756   19.8992 H   0  0  0  0  0  0
  -22.3555  -10.9625   19.6088 H   0  0  0  0  0  0
  -21.2055   -7.6071   23.9708 H   0  0  0  0  0  0
  -21.1459   -6.0419   25.9077 H   0  0  0  0  0  0
  -22.0613   -2.7511   23.2862 H   0  0  0  0  0  0
  -22.3727  -12.0092   22.4998 H   0  0  0  0  0  0
  -21.0932  -13.1595   22.2547 H   0  0  0  0  0  0
  -24.6519  -15.8513   20.5407 H   0  0  0  0  0  0
  -26.2806  -15.6373   20.1408 H   0  0  0  0  0  0
  -26.7153  -32.5545   23.1189 H   0  0  0  0  0  0
  -25.0223  -33.9798   25.0620 H   0  0  0  0  0  0
  -22.7120  -31.2915   21.3798 H   0  0  0  0  0  0
  -23.3788  -35.9532   23.3310 H   0  0  0  0  0  0
  -24.3528  -36.8848   22.2024 H   0  0  0  0  0  0
  -23.7142  -37.6443   23.6605 H   0  0  0  0  0  0
  -26.0583  -31.5482   20.5833 H   0  0  0  0  0  0
  -26.8412  -30.8829   21.9881 H   0  0  0  0  0  0
  -28.1253  -29.0172   21.2415 H   0  0  0  0  0  0
  -26.1074  -25.9152   19.0427 H   0  0  0  0  0  0
  -24.0209  -27.2428   19.0667 H   0  0  0  0  0  0
  -23.7837  -30.5607   19.4007 H   0  0  0  0  0  0
  -22.7788  -29.2202   19.8504 H   0  0  0  0  0  0
  -25.1267  -36.2012   25.0839 H   0  0  0  0  0  0
  -21.0043  -28.3366   24.1361 H   0  0  0  0  0  0
  -20.5719  -26.2343   23.3655 H   0  0  0  0  0  0
  -21.6670  -26.7468   22.1182 H   0  0  0  0  0  0
  -19.6878  -25.6327   21.1254 H   0  0  0  0  0  0
  -19.6658  -27.3240   20.6782 H   0  0  0  0  0  0
  -17.4220  -26.6779   21.4046 H   0  0  0  0  0  0
  -18.0285  -26.0081   22.9015 H   0  0  0  0  0  0
  -19.7947  -30.7322   24.2250 H   0  0  0  0  0  0
  -17.5000  -31.6222   24.5253 H   0  0  0  0  0  0
  -15.5338  -30.2994   23.7573 H   0  0  0  0  0  0
  -15.8741  -28.0785   22.7096 H   0  0  0  0  0  0
  -24.5844  -30.7170   25.7759 H   0  0  0  0  0  0
  -24.8884  -32.2943   26.4904 H   0  0  0  0  0  0
  -25.7988  -30.8924   27.0251 H   0  0  0  0  0  0
  -26.2897  -29.6892   24.1064 H   0  0  0  0  0  0
  -27.4056  -29.7277   25.4517 H   0  0  0  0  0  0
  -27.8716  -30.4473   23.9284 H   0  0  0  0  0  0
  -27.2794  -33.3673   26.2098 H   0  0  0  0  0  0
  -28.3865  -32.6933   25.0272 H   0  0  0  0  0  0
  -28.0807  -31.8458   26.5342 H   0  0  0  0  0  0
  -28.2605  -38.0081   24.7608 H   0  0  0  0  0  0
  -28.1092  -36.2646   24.6183 H   0  0  0  0  0  0
  -27.2264  -37.1309   25.8820 H   0  0  0  0  0  0
  -20.9372  -29.8794   21.6849 H   0  0  0  0  0  0
  -26.0177  -38.2884   24.1580 H   0  0  0  0  0  0
  -31.7776  -19.8115   19.9352 H   0  0  0  0  0  0
  -32.0707  -17.1295   19.6918 H   0  0  0  0  0  0
  -30.7737  -23.8994   21.9469 H   0  0  0  0  0  0
  -31.1057  -21.6858   22.2928 H   0  0  0  0  0  0
  -28.1054  -21.4364   23.1381 H   0  0  0  0  0  0
  -29.0481  -20.0304   23.6100 H   0  0  0  0  0  0
  -27.6046  -19.8308   22.6065 H   0  0  0  0  0  0
  -29.7667  -25.9566   21.5127 H   0  0  0  0  0  0
  -28.1190  -25.8038   22.0552 H   0  0  0  0  0  0
  -28.6838  -20.8820   20.6854 H   0  0  0  0  0  0
  -29.1169  -15.4723   21.4893 H   0  0  0  0  0  0
  1 25  1  0  0  0
  1 30  2  0  0  0
  1 81  1  0  0  0
  2  3  1  0  0  0
  2 25  1  0  0  0
  2 84  1  0  0  0
  2 85  1  0  0  0
  3  4  1  0  0  0
  3 86  1  0  0  0
  3 87  1  0  0  0
  4  5  1  0  0  0
  4 88  1  0  0  0
  4 89  1  0  0  0
  5  6  1  0  0  0
  5 26  1  0  0  0
  5 90  1  0  0  0
  6 25  1  0  0  0
  6 91  1  0  0  0
  6 92  1  0  0  0
  7  8  2  0  0  0
  7 26  1  0  0  0
  7 29  1  0  0  0
  8  9  1  0  0  0
  8 22  1  0  0  0
  9 10  1  0  0  0
  9 27  2  0  0  0
 10 11  2  0  0  0
 10 15  1  0  0  0
 11 12  1  0  0  0
 11 93  1  0  0  0
 12 13  2  0  0  0
 12 94  1  0  0  0
 13 14  1  0  0  0
 13 31  1  0  0  0
 14 15  2  0  0  0
 14 95  1  0  0  0
 15 96  1  0  0  0
 16 17  2  0  0  0
 16 21  1  0  0  0
 16 31  1  0  0  0
 17 18  1  0  0  0
 17 97  1  0  0  0
 18 19  2  0  0  0
 18 98  1  0  0  0
 19 20  1  0  0  0
 19 24  1  0  0  0
 20 21  2  0  0  0
 20 99  1  0  0  0
 21 23  1  0  0  0
 22 28  1  0  0  0
 22 32  2  0  0  0
 26 27  1  0  0  0
 28100  1  0  0  0
 28101  1  0  0  0
 29102  1  0  0  0
 29103  1  0  0  0
 33 34  1  0  0  0
 33 66  1  0  0  0
 33 70  2  0  0  0
 34 36  1  0  0  0
 34 59  1  0  0  0
 34104  1  0  0  0
 35 44  2  0  0  0
 35 45  1  0  0  0
 35 68  1  0  0  0
 36 56  1  0  0  0
 36105  1  0  0  0
 37 39  1  0  0  0
 37 47  1  0  0  0
 37 66  1  0  0  0
 37106  1  0  0  0
 38 43  2  0  0  0
 38 46  1  0  0  0
 38 47  1  0  0  0
 39 64  1  0  0  0
 39 67  2  0  0  0
 40 52  1  0  0  0
 40 53  2  0  0  0
 40 58  1  0  0  0
 41107  1  0  0  0
 41108  1  0  0  0
 41109  1  0  0  0
 41 48  1  0  0  0
 42 43  1  0  0  0
 42 66  1  0  0  0
 42110  1  0  0  0
 42111  1  0  0  0
 43 44  1  0  0  0
 44112  1  0  0  0
 45 46  2  0  0  0
 45113  1  0  0  0
 46114  1  0  0  0
 47115  1  0  0  0
 47116  1  0  0  0
 48 56  1  0  0  0
 48 65  1  0  0  0
 48117  1  0  0  0
 49 50  1  0  0  0
 49 53  1  0  0  0
 49 64  1  0  0  0
 49118  1  0  0  0
 50 51  1  0  0  0
 50119  1  0  0  0
 50120  1  0  0  0
 51 52  1  0  0  0
 51121  1  0  0  0
 51122  1  0  0  0
 52123  1  0  0  0
 52124  1  0  0  0
 53 54  1  0  0  0
 54 55  2  0  0  0
 54125  1  0  0  0
 55 57  1  0  0  0
 55126  1  0  0  0
 56 69  2  0  0  0
 57 58  2  0  0  0
 57127  1  0  0  0
 58128  1  0  0  0
 59 60  1  0  0  0
 59 61  1  0  0  0
 59 62  1  0  0  0
 60129  1  0  0  0
 60130  1  0  0  0
 60131  1  0  0  0
 61132  1  0  0  0
 61133  1  0  0  0
 61134  1  0  0  0
 62135  1  0  0  0
 62136  1  0  0  0
 62137  1  0  0  0
 63 65  1  0  0  0
 63138  1  0  0  0
 63139  1  0  0  0
 63140  1  0  0  0
 64141  1  0  0  0
 65142  1  0  0  0
 68 79  1  0  0  0
 71 72  1  0  0  0
 71 73  2  0  0  0
 71143  1  0  0  0
 72 74  2  0  0  0
 72144  1  0  0  0
 73 80  1  0  0  0
 73 83  1  0  0  0
 74 81  1  0  0  0
 74 83  1  0  0  0
 75 76  2  0  0  0
 75 77  1  0  0  0
 75145  1  0  0  0
 76 80  1  0  0  0
 76146  1  0  0  0
 77 79  1  0  0  0
 77 82  2  0  0  0
 78147  1  0  0  0
 78148  1  0  0  0
 78149  1  0  0  0
 78 80  1  0  0  0
 79150  1  0  0  0
 79151  1  0  0  0
 80152  1  0  0  0
 81153  1  0  0  0
M  ISO  4   1 100  68 101  79 101  81 100
M  END
> <chiral flag>
0

> <version>
0

> <s_m_source_file>
/data/baiqing/PycharmProjects/Reinvent-master-3.2/result/LINK_invent/BTK/process_docking_weight1_custom_product_contain_oxygen_bond_distance_aromatic_linkinvent_7_9_3/rearranged_h_0164.sdf

> <i_m_source_file_index>
17

> <r_mmod_Potential_Energy-OPLS-2005>
56.8438835144043

> <r_mmod_Stretch_Energy-OPLS-2005>
84.7262268066406

> <r_mmod_Bend_Energy-OPLS-2005>
170.767501831055

> <r_mmod_Torsional_Energy-OPLS-2005>
250.132614135742

> <r_mmod_Improper_Torsional_Energy-OPLS-2005>
3.98056817054749

> <r_mmod_Van_der_Waal_Energy-OPLS-2005>
115.892196655273

> <r_mmod_Electrostatic_Energy-OPLS-2005>
-386.138427734375

> <r_mmod_Solvation_Energy-OPLS-2005>
-220.705841064453

> <b_mmod_Minimization_Converged-OPLS-2005>
0

> <r_mmod_RMS_Derivative-OPLS-2005>
9.70294952392578

$$$$
17
                    3D
 Structure written by MMmdl.
156164  0  0  1  0            999 V2000
  -30.6763  -14.5779   20.4565 C   0  0  0  0  0  0
  -30.4181  -12.3412   19.4607 C   0  0  0  0  0  0
  -29.5025  -12.4575   18.2245 C   0  0  0  0  0  0
  -28.0229  -12.3186   18.6335 C   0  0  0  0  0  0
  -27.6432  -13.2162   19.8421 C   0  0  2  0  0  0
  -28.6847  -13.1119   20.9775 C   0  0  0  0  0  0
  -25.2516  -13.8177   20.5648 C   0  0  0  0  0  0
  -24.1791  -13.0442   20.9181 C   0  0  0  0  0  0
  -24.6361  -11.6918   20.8733 C   0  0  0  0  0  0
  -23.9047  -10.4297   21.0407 C   0  0  0  0  0  0
  -24.3615   -9.4206   21.9172 C   0  0  0  0  0  0
  -23.6300   -8.2235   22.0740 C   0  0  0  0  0  0
  -22.4282   -8.0274   21.3530 C   0  0  0  0  0  0
  -21.9906   -9.0248   20.4643 C   0  0  0  0  0  0
  -22.7222  -10.2134   20.3047 C   0  0  0  0  0  0
  -21.6854   -6.0736   22.5280 C   0  0  0  0  0  0
  -21.4023   -6.5646   23.8213 C   0  0  0  0  0  0
  -21.3653   -5.6795   24.9173 C   0  0  0  0  0  0
  -21.6043   -4.3057   24.7214 C   0  0  0  0  0  0
  -21.8821   -3.8141   23.4337 C   0  0  0  0  0  0
  -21.9193   -4.6963   22.3396 C   0  0  0  0  0  0
  -22.7821  -13.5239   21.1848 C   0  0  0  0  0  0
  -22.1652   -4.2141   21.0968 F   0  0  0  0  0  0
  -21.5621   -3.4539   25.7723 F   0  0  0  0  0  0
  -30.0040  -13.3941   20.4020 N   0  0  0  0  0  0
  -26.2924  -12.9363   20.3217 N   0  0  0  0  0  0
  -25.9279  -11.6526   20.5723 N   0  0  0  0  0  0
  -22.0467  -12.8240   22.0418 N   0  0  0  0  0  0
  -25.4242  -15.1894   20.4057 N   0  0  0  0  0  0
  -31.8913  -14.6120   20.2831 O   0  0  0  0  0  0
  -21.6641   -6.8873   21.4241 O   0  0  0  0  0  0
  -22.3503  -14.5539   20.6684 O   0  0  0  0  0  0
  -24.6194  -31.8649   23.2065 C   0  0  0  0  0  0
  -25.9072  -32.4809   23.8370 C   0  0  1  0  0  0
  -27.2232  -27.3747   20.1199 C   0  0  0  0  0  0
  -25.5909  -33.8602   24.2313 N   0  0  0  0  0  0
  -23.4098  -30.4880   21.5482 C   0  0  2  0  0  0
  -24.8563  -28.9386   20.1234 C   0  0  0  0  0  0
  -22.7427  -29.4661   22.4977 C   0  0  0  0  0  0
  -18.0279  -28.1380   22.8489 C   0  0  0  0  0  0
  -24.1488  -36.7306   23.2643 C   0  0  0  0  0  0
  -25.9441  -30.8097   21.3698 C   0  0  0  0  0  0
  -26.0193  -29.4354   20.7276 C   0  0  0  0  0  0
  -27.2097  -28.6608   20.7238 C   0  0  0  0  0  0
  -26.0469  -26.9047   19.5068 C   0  0  0  0  0  0
  -24.8667  -27.6731   19.5110 C   0  0  0  0  0  0
  -23.6226  -29.8153   20.1656 C   0  0  0  0  0  0
  -25.4107  -36.3096   24.0346 C   0  0  1  0  0  0
  -20.5871  -28.3679   23.1304 C   0  0  2  0  0  0
  -20.6762  -26.9409   22.5418 C   0  0  0  0  0  0
  -19.5747  -26.6387   21.5210 C   0  0  0  0  0  0
  -18.1925  -26.7927   22.1617 C   0  0  0  0  0  0
  -19.1526  -28.8845   23.2899 C   0  0  0  0  0  0
  -18.9455  -30.1443   23.8922 C   0  0  0  0  0  0
  -17.6456  -30.6588   24.0569 C   0  0  0  0  0  0
  -25.9035  -34.9467   23.5127 C   0  0  0  0  0  0
  -16.5350  -29.9092   23.6322 C   0  0  0  0  0  0
  -16.7267  -28.6509   23.0349 C   0  0  0  0  0  0
  -26.4477  -31.6600   25.0719 C   0  0  0  0  0  0
  -25.3735  -31.3724   26.1470 C   0  0  0  0  0  0
  -27.0324  -30.3038   24.6137 C   0  0  0  0  0  0
  -27.6053  -32.4324   25.7471 C   0  0  0  0  0  0
  -27.5590  -37.1797   24.8458 C   0  0  0  0  0  0
  -21.4153  -29.3049   22.3711 N   0  0  0  0  0  0
  -26.4289  -37.3790   23.9421 N   0  0  0  0  0  0
  -24.6764  -31.0701   22.0990 N   0  0  0  0  0  0
  -23.4182  -28.8215   23.3043 O   0  0  0  0  0  0
  -28.3656  -26.6012   20.0085 O   0  0  0  0  0  0
  -26.5595  -34.8933   22.4689 O   0  0  0  0  0  0
  -23.5377  -32.1426   23.7438 O   0  0  0  0  0  0
  -30.8391  -19.7452   19.2353 C   0  0  0  0  0  0
  -31.6610  -18.6792   18.8451 C   0  0  0  0  0  0
  -29.6644  -19.5127   19.9803 C   0  0  0  0  0  0
  -30.2490  -17.0678   20.0610 C   0  0  0  0  0  0
  -31.3476  -17.3576   19.1979 C   0  0  0  0  0  0
  -29.3943  -18.1681   20.4152 C   0  0  0  0  0  0
  -28.7367  -20.6824   20.1045 C   0  0  0  0  0  0
  -28.1129  -24.1874   20.9090 C   0  0  0  0  0  0
  -28.6475  -23.2758   19.7852 C   0  0  0  0  0  0
  -28.6629  -25.6406   21.0521 C   0  0  0  0  0  0
  -27.2707  -23.7266   21.7347 N   0  0  0  0  0  0
  -29.9184  -15.7117   20.4990 N   0  0  0  0  0  0
  -29.2034  -21.9532   20.2467 N   0  0  0  0  0  0
  -27.4280  -20.5064   19.9222 N   0  3  0  0  0  0
  -32.0876  -16.3957   18.6015 F   0  0  0  0  0  0
  -28.2714  -17.9094   21.1327 F   0  0  0  0  0  0
  -31.4646  -12.4283   19.1644 H   0  0  0  0  0  0
  -30.3198  -11.3609   19.9272 H   0  0  0  0  0  0
  -29.7632  -11.6867   17.4980 H   0  0  0  0  0  0
  -29.6628  -13.4163   17.7288 H   0  0  0  0  0  0
  -27.8529  -11.2720   18.8870 H   0  0  0  0  0  0
  -27.3732  -12.5297   17.7834 H   0  0  0  0  0  0
  -27.6530  -14.2417   19.4725 H   0  0  0  0  0  0
  -28.6741  -12.1161   21.4216 H   0  0  0  0  0  0
  -28.4470  -13.8109   21.7815 H   0  0  0  0  0  0
  -25.2762   -9.5693   22.4746 H   0  0  0  0  0  0
  -24.0013   -7.4634   22.7468 H   0  0  0  0  0  0
  -21.0822   -8.8776   19.8975 H   0  0  0  0  0  0
  -22.3672  -10.9675   19.6159 H   0  0  0  0  0  0
  -21.2040   -7.6162   23.9715 H   0  0  0  0  0  0
  -21.1465   -6.0519   25.9074 H   0  0  0  0  0  0
  -22.0609   -2.7602   23.2832 H   0  0  0  0  0  0
  -22.4091  -11.9939   22.4873 H   0  0  0  0  0  0
  -21.1080  -13.1251   22.2627 H   0  0  0  0  0  0
  -24.6634  -15.8472   20.5352 H   0  0  0  0  0  0
  -26.2758  -15.6305   20.0842 H   0  0  0  0  0  0
  -26.7148  -32.5506   23.1129 H   0  0  0  0  0  0
  -25.0071  -33.9743   25.0469 H   0  0  0  0  0  0
  -22.7025  -31.3079   21.4041 H   0  0  0  0  0  0
  -23.3752  -35.9633   23.3283 H   0  0  0  0  0  0
  -24.3599  -36.8939   22.2063 H   0  0  0  0  0  0
  -23.7223  -37.6505   23.6662 H   0  0  0  0  0  0
  -26.0639  -31.5670   20.5938 H   0  0  0  0  0  0
  -26.8297  -30.8666   21.9906 H   0  0  0  0  0  0
  -28.1130  -29.0476   21.1758 H   0  0  0  0  0  0
  -26.0468  -25.9411   19.0165 H   0  0  0  0  0  0
  -23.9745  -27.2857   19.0388 H   0  0  0  0  0  0
  -23.7392  -30.5862   19.4032 H   0  0  0  0  0  0
  -22.7426  -29.2410   19.8693 H   0  0  0  0  0  0
  -25.1277  -36.1959   25.0837 H   0  0  0  0  0  0
  -20.9971  -28.3250   24.1422 H   0  0  0  0  0  0
  -20.5641  -26.2299   23.3619 H   0  0  0  0  0  0
  -21.6638  -26.7432   22.1231 H   0  0  0  0  0  0
  -19.6902  -25.6298   21.1245 H   0  0  0  0  0  0
  -19.6687  -27.3193   20.6740 H   0  0  0  0  0  0
  -17.4197  -26.6688   21.4017 H   0  0  0  0  0  0
  -18.0316  -26.0065   22.9009 H   0  0  0  0  0  0
  -19.7933  -30.7238   24.2320 H   0  0  0  0  0  0
  -17.5018  -31.6268   24.5167 H   0  0  0  0  0  0
  -15.5354  -30.3002   23.7625 H   0  0  0  0  0  0
  -15.8672  -28.0829   22.7053 H   0  0  0  0  0  0
  -24.5888  -30.7095   25.7807 H   0  0  0  0  0  0
  -24.8947  -32.2889   26.4929 H   0  0  0  0  0  0
  -25.8079  -30.8879   27.0223 H   0  0  0  0  0  0
  -26.2887  -29.6779   24.1193 H   0  0  0  0  0  0
  -27.4085  -29.7303   25.4618 H   0  0  0  0  0  0
  -27.8721  -30.4356   23.9309 H   0  0  0  0  0  0
  -27.2673  -33.3608   26.2087 H   0  0  0  0  0  0
  -28.3827  -32.6917   25.0270 H   0  0  0  0  0  0
  -28.0762  -31.8429   26.5349 H   0  0  0  0  0  0
  -28.2586  -38.0119   24.7543 H   0  0  0  0  0  0
  -28.1107  -36.2652   24.6215 H   0  0  0  0  0  0
  -27.2326  -37.1369   25.8866 H   0  0  0  0  0  0
  -20.9320  -29.8794   21.6947 H   0  0  0  0  0  0
  -26.0176  -38.2870   24.1432 H   0  0  0  0  0  0
  -31.0789  -20.7361   18.8732 H   0  0  0  0  0  0
  -32.5135  -18.8619   18.2065 H   0  0  0  0  0  0
  -29.4311  -23.8102   19.2471 H   0  0  0  0  0  0
  -27.8531  -23.1144   19.0551 H   0  0  0  0  0  0
  -29.7496  -25.5637   21.1035 H   0  0  0  0  0  0
  -28.3579  -26.0490   22.0170 H   0  0  0  0  0  0
  -27.0656  -22.7554   21.5313 H   0  0  0  0  0  0
  -28.9609  -15.5831   20.7859 H   0  0  0  0  0  0
  -30.1464  -22.0222   20.6107 H   0  0  0  0  0  0
  -27.0745  -19.5639   19.8430 H   0  0  0  0  0  0
  -26.7695  -21.2634   19.8778 H   0  0  0  0  0  0
  1 25  1  0  0  0
  1 30  2  0  0  0
  1 82  1  0  0  0
  2  3  1  0  0  0
  2 25  1  0  0  0
  2 87  1  0  0  0
  2 88  1  0  0  0
  3  4  1  0  0  0
  3 89  1  0  0  0
  3 90  1  0  0  0
  4  5  1  0  0  0
  4 91  1  0  0  0
  4 92  1  0  0  0
  5  6  1  0  0  0
  5 26  1  0  0  0
  5 93  1  0  0  0
  6 25  1  0  0  0
  6 94  1  0  0  0
  6 95  1  0  0  0
  7  8  2  0  0  0
  7 26  1  0  0  0
  7 29  1  0  0  0
  8  9  1  0  0  0
  8 22  1  0  0  0
  9 10  1  0  0  0
  9 27  2  0  0  0
 10 11  2  0  0  0
 10 15  1  0  0  0
 11 12  1  0  0  0
 11 96  1  0  0  0
 12 13  2  0  0  0
 12 97  1  0  0  0
 13 14  1  0  0  0
 13 31  1  0  0  0
 14 15  2  0  0  0
 14 98  1  0  0  0
 15 99  1  0  0  0
 16 17  2  0  0  0
 16 21  1  0  0  0
 16 31  1  0  0  0
 17 18  1  0  0  0
 17100  1  0  0  0
 18 19  2  0  0  0
 18101  1  0  0  0
 19 20  1  0  0  0
 19 24  1  0  0  0
 20 21  2  0  0  0
 20102  1  0  0  0
 21 23  1  0  0  0
 22 28  1  0  0  0
 22 32  2  0  0  0
 26 27  1  0  0  0
 28103  1  0  0  0
 28104  1  0  0  0
 29105  1  0  0  0
 29106  1  0  0  0
 33 34  1  0  0  0
 33 66  1  0  0  0
 33 70  2  0  0  0
 34 36  1  0  0  0
 34 59  1  0  0  0
 34107  1  0  0  0
 35 44  2  0  0  0
 35 45  1  0  0  0
 35 68  1  0  0  0
 36 56  1  0  0  0
 36108  1  0  0  0
 37 39  1  0  0  0
 37 47  1  0  0  0
 37 66  1  0  0  0
 37109  1  0  0  0
 38 43  2  0  0  0
 38 46  1  0  0  0
 38 47  1  0  0  0
 39 64  1  0  0  0
 39 67  2  0  0  0
 40 52  1  0  0  0
 40 53  2  0  0  0
 40 58  1  0  0  0
 41110  1  0  0  0
 41111  1  0  0  0
 41112  1  0  0  0
 41 48  1  0  0  0
 42 43  1  0  0  0
 42 66  1  0  0  0
 42113  1  0  0  0
 42114  1  0  0  0
 43 44  1  0  0  0
 44115  1  0  0  0
 45 46  2  0  0  0
 45116  1  0  0  0
 46117  1  0  0  0
 47118  1  0  0  0
 47119  1  0  0  0
 48 56  1  0  0  0
 48 65  1  0  0  0
 48120  1  0  0  0
 49 50  1  0  0  0
 49 53  1  0  0  0
 49 64  1  0  0  0
 49121  1  0  0  0
 50 51  1  0  0  0
 50122  1  0  0  0
 50123  1  0  0  0
 51 52  1  0  0  0
 51124  1  0  0  0
 51125  1  0  0  0
 52126  1  0  0  0
 52127  1  0  0  0
 53 54  1  0  0  0
 54 55  2  0  0  0
 54128  1  0  0  0
 55 57  1  0  0  0
 55129  1  0  0  0
 56 69  2  0  0  0
 57 58  2  0  0  0
 57130  1  0  0  0
 58131  1  0  0  0
 59 60  1  0  0  0
 59 61  1  0  0  0
 59 62  1  0  0  0
 60132  1  0  0  0
 60133  1  0  0  0
 60134  1  0  0  0
 61135  1  0  0  0
 61136  1  0  0  0
 61137  1  0  0  0
 62138  1  0  0  0
 62139  1  0  0  0
 62140  1  0  0  0
 63 65  1  0  0  0
 63141  1  0  0  0
 63142  1  0  0  0
 63143  1  0  0  0
 64144  1  0  0  0
 65145  1  0  0  0
 68 80  1  0  0  0
 71 72  2  0  0  0
 71 73  1  0  0  0
 71146  1  0  0  0
 72 75  1  0  0  0
 72147  1  0  0  0
 73 76  2  0  0  0
 73 77  1  0  0  0
 74 75  2  0  0  0
 74 76  1  0  0  0
 74 82  1  0  0  0
 75 85  1  0  0  0
 76 86  1  0  0  0
 77 83  1  0  0  0
 77 84  2  0  0  0
 78 79  1  0  0  0
 78 80  1  0  0  0
 78 81  2  0  0  0
 79 83  1  0  0  0
 79148  1  0  0  0
 79149  1  0  0  0
 80150  1  0  0  0
 80151  1  0  0  0
 81152  1  0  0  0
 82153  1  0  0  0
 83154  1  0  0  0
 84155  1  0  0  0
 84156  1  0  0  0
M  CHG  1  84   1
M  ISO  4   1 100  68 101  80 101  82 100
M  END
> <chiral flag>
0

> <version>
0

> <s_m_source_file>
/data/baiqing/PycharmProjects/Reinvent-master-3.2/result/LINK_invent/BTK/process_docking_weight1_custom_product_contain_oxygen_bond_distance_aromatic_linkinvent_7_9_3/rearranged_h_0164.sdf

> <i_m_source_file_index>
18

> <r_mmod_Potential_Energy-OPLS-2005>
-262.623901367188

> <r_mmod_Stretch_Energy-OPLS-2005>
58.7024917602539

> <r_mmod_Bend_Energy-OPLS-2005>
125.760101318359

> <r_mmod_Torsional_Energy-OPLS-2005>
271.50927734375

> <r_mmod_Improper_Torsional_Energy-OPLS-2005>
8.04696178436279

> <r_mmod_Van_der_Waal_Energy-OPLS-2005>
150.816635131836

> <r_mmod_Electrostatic_Energy-OPLS-2005>
-448.127258300781

> <r_mmod_Solvation_Energy-OPLS-2005>
-467.903289794922

> <b_mmod_Minimization_Converged-OPLS-2005>
0

> <r_mmod_RMS_Derivative-OPLS-2005>
2.26132893562317

$$$$
18
                    3D
 Structure written by MMmdl.
156164  0  0  1  0            999 V2000
  -30.7175  -14.4674   20.5820 C   0  0  0  0  0  0
  -30.4130  -12.3123   19.4179 C   0  0  0  0  0  0
  -29.4913  -12.5170   18.2007 C   0  0  0  0  0  0
  -28.0137  -12.3753   18.6141 C   0  0  0  0  0  0
  -27.6591  -13.2123   19.8731 C   0  0  2  0  0  0
  -28.7000  -13.0001   20.9941 C   0  0  0  0  0  0
  -25.2573  -13.8178   20.5677 C   0  0  0  0  0  0
  -24.1828  -13.0453   20.9175 C   0  0  0  0  0  0
  -24.6387  -11.6918   20.8721 C   0  0  0  0  0  0
  -23.9050  -10.4294   21.0397 C   0  0  0  0  0  0
  -24.3604   -9.4212   21.9173 C   0  0  0  0  0  0
  -23.6288   -8.2243   22.0747 C   0  0  0  0  0  0
  -22.4270   -8.0283   21.3547 C   0  0  0  0  0  0
  -21.9897   -9.0255   20.4649 C   0  0  0  0  0  0
  -22.7223  -10.2132   20.3052 C   0  0  0  0  0  0
  -21.6852   -6.0735   22.5282 C   0  0  0  0  0  0
  -21.4017   -6.5631   23.8213 C   0  0  0  0  0  0
  -21.3659   -5.6787   24.9175 C   0  0  0  0  0  0
  -21.6043   -4.3049   24.7228 C   0  0  0  0  0  0
  -21.8818   -3.8142   23.4350 C   0  0  0  0  0  0
  -21.9197   -4.6959   22.3405 C   0  0  0  0  0  0
  -22.7848  -13.5248   21.1844 C   0  0  0  0  0  0
  -22.1666   -4.2146   21.0982 F   0  0  0  0  0  0
  -21.5626   -3.4533   25.7737 F   0  0  0  0  0  0
  -30.0283  -13.3013   20.4384 N   0  0  0  0  0  0
  -26.3013  -12.9353   20.3356 N   0  0  0  0  0  0
  -25.9317  -11.6509   20.5738 N   0  0  0  0  0  0
  -22.0476  -12.8250   22.0398 N   0  0  0  0  0  0
  -25.4293  -15.1891   20.4076 N   0  0  0  0  0  0
  -31.8374  -14.6342   20.0933 O   0  0  0  0  0  0
  -21.6638   -6.8875   21.4246 O   0  0  0  0  0  0
  -22.3539  -14.5561   20.6703 O   0  0  0  0  0  0
  -24.6161  -31.8680   23.2094 C   0  0  0  0  0  0
  -25.9055  -32.4817   23.8393 C   0  0  1  0  0  0
  -27.2261  -27.4245   20.1019 C   0  0  0  0  0  0
  -25.5906  -33.8614   24.2330 N   0  0  0  0  0  0
  -23.4038  -30.4924   21.5498 C   0  0  2  0  0  0
  -24.8508  -28.9587   20.1116 C   0  0  0  0  0  0
  -22.7428  -29.4660   22.4981 C   0  0  0  0  0  0
  -18.0282  -28.1375   22.8485 C   0  0  0  0  0  0
  -24.1489  -36.7306   23.2634 C   0  0  0  0  0  0
  -25.9342  -30.8334   21.3624 C   0  0  0  0  0  0
  -26.0128  -29.4677   20.7068 C   0  0  0  0  0  0
  -27.2082  -28.7095   20.6940 C   0  0  0  0  0  0
  -26.0517  -26.9348   19.4946 C   0  0  0  0  0  0
  -24.8663  -27.6934   19.4992 C   0  0  0  0  0  0
  -23.6126  -29.8260   20.1636 C   0  0  0  0  0  0
  -25.4105  -36.3102   24.0342 C   0  0  1  0  0  0
  -20.5870  -28.3663   23.1317 C   0  0  2  0  0  0
  -20.6767  -26.9397   22.5424 C   0  0  0  0  0  0
  -19.5752  -26.6384   21.5207 C   0  0  0  0  0  0
  -18.1924  -26.7930   22.1605 C   0  0  0  0  0  0
  -19.1530  -28.8836   23.2897 C   0  0  0  0  0  0
  -18.9457  -30.1445   23.8904 C   0  0  0  0  0  0
  -17.6456  -30.6581   24.0557 C   0  0  0  0  0  0
  -25.9032  -34.9471   23.5129 C   0  0  0  0  0  0
  -16.5347  -29.9079   23.6320 C   0  0  0  0  0  0
  -16.7269  -28.6494   23.0341 C   0  0  0  0  0  0
  -26.4474  -31.6590   25.0720 C   0  0  0  0  0  0
  -25.3737  -31.3744   26.1480 C   0  0  0  0  0  0
  -27.0264  -30.3013   24.6106 C   0  0  0  0  0  0
  -27.6092  -32.4273   25.7449 C   0  0  0  0  0  0
  -27.5592  -37.1794   24.8454 C   0  0  0  0  0  0
  -21.4153  -29.3030   22.3725 N   0  0  0  0  0  0
  -26.4289  -37.3789   23.9420 N   0  0  0  0  0  0
  -24.6694  -31.0787   22.0987 N   0  0  0  0  0  0
  -23.4201  -28.8191   23.3014 O   0  0  0  0  0  0
  -28.3595  -26.6402   20.1198 O   0  0  0  0  0  0
  -26.5590  -34.8923   22.4688 O   0  0  0  0  0  0
  -23.5347  -32.1426   23.7490 O   0  0  0  0  0  0
  -28.3168  -19.7862   21.5172 C   0  0  0  0  0  0
  -28.6844  -18.4520   21.9157 C   0  0  0  0  0  0
  -29.8485  -18.0161   21.3069 C   0  0  0  0  0  0
  -29.1840  -20.3653   20.6262 C   0  0  0  0  0  0
  -27.9182  -17.6584   22.8842 C   0  0  0  0  0  0
  -28.7015  -24.1577   20.0740 C   0  0  0  0  0  0
  -26.8328  -18.3960   23.6620 C   0  0  0  0  0  0
  -30.6868  -16.7731   21.5479 C   0  0  0  0  0  0
  -28.5042  -22.7744   20.7494 C   0  0  0  0  0  0
  -28.1889  -25.3977   20.8420 C   0  0  0  0  0  0
  -29.1700  -21.6518   20.0653 N   0  0  0  0  0  0
  -30.0795  -15.4747   21.2092 N   0  0  0  0  0  0
  -28.0907  -16.4607   23.1246 O   0  0  0  0  0  0
  -29.2588  -24.2532   18.9733 O   0  0  0  0  0  0
  -30.4482  -19.2398   20.2001 S   0  0  0  0  0  0
  -31.4583  -12.3983   19.1169 H   0  0  0  0  0  0
  -30.3022  -11.3012   19.8133 H   0  0  0  0  0  0
  -29.7337  -11.8003   17.4157 H   0  0  0  0  0  0
  -29.6637  -13.5059   17.7730 H   0  0  0  0  0  0
  -27.8237  -11.3195   18.8079 H   0  0  0  0  0  0
  -27.3633  -12.6534   17.7834 H   0  0  0  0  0  0
  -27.7030  -14.2603   19.5770 H   0  0  0  0  0  0
  -28.6755  -11.9660   21.3418 H   0  0  0  0  0  0
  -28.4622  -13.6072   21.8674 H   0  0  0  0  0  0
  -25.2749   -9.5696   22.4747 H   0  0  0  0  0  0
  -24.0011   -7.4631   22.7455 H   0  0  0  0  0  0
  -21.0828   -8.8763   19.8953 H   0  0  0  0  0  0
  -22.3675  -10.9665   19.6154 H   0  0  0  0  0  0
  -21.2003   -7.6141   23.9718 H   0  0  0  0  0  0
  -21.1479   -6.0512   25.9079 H   0  0  0  0  0  0
  -22.0595   -2.7611   23.2853 H   0  0  0  0  0  0
  -22.4064  -11.9916   22.4811 H   0  0  0  0  0  0
  -21.1087  -13.1289   22.2570 H   0  0  0  0  0  0
  -24.6646  -15.8466   20.5073 H   0  0  0  0  0  0
  -26.2875  -15.6226   20.0900 H   0  0  0  0  0  0
  -26.7133  -32.5531   23.1160 H   0  0  0  0  0  0
  -25.0075  -33.9772   25.0490 H   0  0  0  0  0  0
  -22.6918  -31.3096   21.4121 H   0  0  0  0  0  0
  -23.3767  -35.9620   23.3265 H   0  0  0  0  0  0
  -24.3599  -36.8949   22.2054 H   0  0  0  0  0  0
  -23.7221  -37.6492   23.6671 H   0  0  0  0  0  0
  -26.0514  -31.6027   20.5977 H   0  0  0  0  0  0
  -26.8190  -30.8835   21.9851 H   0  0  0  0  0  0
  -28.1051  -29.0968   21.1575 H   0  0  0  0  0  0
  -26.0516  -25.9611   19.0248 H   0  0  0  0  0  0
  -23.9738  -27.2987   19.0341 H   0  0  0  0  0  0
  -23.7226  -30.6012   19.4040 H   0  0  0  0  0  0
  -22.7359  -29.2467   19.8683 H   0  0  0  0  0  0
  -25.1273  -36.1954   25.0827 H   0  0  0  0  0  0
  -20.9967  -28.3234   24.1434 H   0  0  0  0  0  0
  -20.5665  -26.2268   23.3609 H   0  0  0  0  0  0
  -21.6648  -26.7438   22.1229 H   0  0  0  0  0  0
  -19.6915  -25.6293   21.1240 H   0  0  0  0  0  0
  -19.6694  -27.3195   20.6738 H   0  0  0  0  0  0
  -17.4202  -26.6703   21.3989 H   0  0  0  0  0  0
  -18.0302  -26.0059   22.8983 H   0  0  0  0  0  0
  -19.7931  -30.7265   24.2277 H   0  0  0  0  0  0
  -17.5008  -31.6263   24.5153 H   0  0  0  0  0  0
  -15.5348  -30.2975   23.7639 H   0  0  0  0  0  0
  -15.8671  -28.0811   22.7048 H   0  0  0  0  0  0
  -24.5866  -30.7134   25.7835 H   0  0  0  0  0  0
  -24.8966  -32.2914   26.4945 H   0  0  0  0  0  0
  -25.8066  -30.8895   27.0234 H   0  0  0  0  0  0
  -26.2781  -29.6800   24.1165 H   0  0  0  0  0  0
  -27.4014  -29.7243   25.4570 H   0  0  0  0  0  0
  -27.8645  -30.4306   23.9251 H   0  0  0  0  0  0
  -27.2784  -33.3606   26.2020 H   0  0  0  0  0  0
  -28.3888  -32.6762   25.0237 H   0  0  0  0  0  0
  -28.0766  -31.8376   26.5346 H   0  0  0  0  0  0
  -28.2596  -38.0107   24.7525 H   0  0  0  0  0  0
  -28.1090  -36.2636   24.6216 H   0  0  0  0  0  0
  -27.2325  -37.1395   25.8861 H   0  0  0  0  0  0
  -20.9312  -29.8741   21.6936 H   0  0  0  0  0  0
  -26.0174  -38.2867   24.1424 H   0  0  0  0  0  0
  -27.4400  -20.2819   21.9084 H   0  0  0  0  0  0
  -27.2137  -19.3403   24.0504 H   0  0  0  0  0  0
  -26.4981  -17.7962   24.5075 H   0  0  0  0  0  0
  -25.9735  -18.5956   23.0227 H   0  0  0  0  0  0
  -30.9539  -16.7287   22.6041 H   0  0  0  0  0  0
  -31.6408  -16.8988   21.0324 H   0  0  0  0  0  0
  -27.4334  -22.5759   20.8122 H   0  0  0  0  0  0
  -28.8733  -22.8421   21.7738 H   0  0  0  0  0  0
  -28.7437  -25.4688   21.7776 H   0  0  0  0  0  0
  -27.1476  -25.2243   21.1178 H   0  0  0  0  0  0
  -29.8945  -21.9379   19.4095 H   0  0  0  0  0  0
  -29.1591  -15.2892   21.5835 H   0  0  0  0  0  0
  1 25  1  0  0  0
  1 30  2  0  0  0
  1 82  1  0  0  0
  2  3  1  0  0  0
  2 25  1  0  0  0
  2 86  1  0  0  0
  2 87  1  0  0  0
  3  4  1  0  0  0
  3 88  1  0  0  0
  3 89  1  0  0  0
  4  5  1  0  0  0
  4 90  1  0  0  0
  4 91  1  0  0  0
  5  6  1  0  0  0
  5 26  1  0  0  0
  5 92  1  0  0  0
  6 25  1  0  0  0
  6 93  1  0  0  0
  6 94  1  0  0  0
  7  8  2  0  0  0
  7 26  1  0  0  0
  7 29  1  0  0  0
  8  9  1  0  0  0
  8 22  1  0  0  0
  9 10  1  0  0  0
  9 27  2  0  0  0
 10 11  2  0  0  0
 10 15  1  0  0  0
 11 12  1  0  0  0
 11 95  1  0  0  0
 12 13  2  0  0  0
 12 96  1  0  0  0
 13 14  1  0  0  0
 13 31  1  0  0  0
 14 15  2  0  0  0
 14 97  1  0  0  0
 15 98  1  0  0  0
 16 17  2  0  0  0
 16 21  1  0  0  0
 16 31  1  0  0  0
 17 18  1  0  0  0
 17 99  1  0  0  0
 18 19  2  0  0  0
 18100  1  0  0  0
 19 20  1  0  0  0
 19 24  1  0  0  0
 20 21  2  0  0  0
 20101  1  0  0  0
 21 23  1  0  0  0
 22 28  1  0  0  0
 22 32  2  0  0  0
 26 27  1  0  0  0
 28102  1  0  0  0
 28103  1  0  0  0
 29104  1  0  0  0
 29105  1  0  0  0
 33 34  1  0  0  0
 33 66  1  0  0  0
 33 70  2  0  0  0
 34 36  1  0  0  0
 34 59  1  0  0  0
 34106  1  0  0  0
 35 44  2  0  0  0
 35 45  1  0  0  0
 35 68  1  0  0  0
 36 56  1  0  0  0
 36107  1  0  0  0
 37 39  1  0  0  0
 37 47  1  0  0  0
 37 66  1  0  0  0
 37108  1  0  0  0
 38 43  2  0  0  0
 38 46  1  0  0  0
 38 47  1  0  0  0
 39 64  1  0  0  0
 39 67  2  0  0  0
 40 52  1  0  0  0
 40 53  2  0  0  0
 40 58  1  0  0  0
 41109  1  0  0  0
 41110  1  0  0  0
 41111  1  0  0  0
 41 48  1  0  0  0
 42 43  1  0  0  0
 42 66  1  0  0  0
 42112  1  0  0  0
 42113  1  0  0  0
 43 44  1  0  0  0
 44114  1  0  0  0
 45 46  2  0  0  0
 45115  1  0  0  0
 46116  1  0  0  0
 47117  1  0  0  0
 47118  1  0  0  0
 48 56  1  0  0  0
 48 65  1  0  0  0
 48119  1  0  0  0
 49 50  1  0  0  0
 49 53  1  0  0  0
 49 64  1  0  0  0
 49120  1  0  0  0
 50 51  1  0  0  0
 50121  1  0  0  0
 50122  1  0  0  0
 51 52  1  0  0  0
 51123  1  0  0  0
 51124  1  0  0  0
 52125  1  0  0  0
 52126  1  0  0  0
 53 54  1  0  0  0
 54 55  2  0  0  0
 54127  1  0  0  0
 55 57  1  0  0  0
 55128  1  0  0  0
 56 69  2  0  0  0
 57 58  2  0  0  0
 57129  1  0  0  0
 58130  1  0  0  0
 59 60  1  0  0  0
 59 61  1  0  0  0
 59 62  1  0  0  0
 60131  1  0  0  0
 60132  1  0  0  0
 60133  1  0  0  0
 61134  1  0  0  0
 61135  1  0  0  0
 61136  1  0  0  0
 62137  1  0  0  0
 62138  1  0  0  0
 62139  1  0  0  0
 63 65  1  0  0  0
 63140  1  0  0  0
 63141  1  0  0  0
 63142  1  0  0  0
 64143  1  0  0  0
 65144  1  0  0  0
 68 80  1  0  0  0
 71 72  1  0  0  0
 71 74  2  0  0  0
 71145  1  0  0  0
 72 73  2  0  0  0
 72 75  1  0  0  0
 73 78  1  0  0  0
 73 85  1  0  0  0
 74 81  1  0  0  0
 74 85  1  0  0  0
 75 77  1  0  0  0
 75 83  2  0  0  0
 76 79  1  0  0  0
 76 80  1  0  0  0
 76 84  2  0  0  0
 77146  1  0  0  0
 77147  1  0  0  0
 77148  1  0  0  0
 78 82  1  0  0  0
 78149  1  0  0  0
 78150  1  0  0  0
 79 81  1  0  0  0
 79151  1  0  0  0
 79152  1  0  0  0
 80153  1  0  0  0
 80154  1  0  0  0
 81155  1  0  0  0
 82156  1  0  0  0
M  ISO  4   1 100  68 101  80 101  82 100
M  END
> <chiral flag>
0

> <version>
0

> <s_m_source_file>
/data/baiqing/PycharmProjects/Reinvent-master-3.2/result/LINK_invent/BTK/process_docking_weight1_custom_product_contain_oxygen_bond_distance_aromatic_linkinvent_7_9_3/rearranged_h_0164.sdf

> <i_m_source_file_index>
19

> <r_mmod_Potential_Energy-OPLS-2005>
-118.079811096191

> <r_mmod_Stretch_Energy-OPLS-2005>
39.325870513916

> <r_mmod_Bend_Energy-OPLS-2005>
99.2453460693359

> <r_mmod_Torsional_Energy-OPLS-2005>
239.744445800781

> <r_mmod_Improper_Torsional_Energy-OPLS-2005>
4.30885124206543

> <r_mmod_Van_der_Waal_Energy-OPLS-2005>
127.713668823242

> <r_mmod_Electrostatic_Energy-OPLS-2005>
-397.651489257812

> <r_mmod_Solvation_Energy-OPLS-2005>
-244.960021972656

> <b_mmod_Minimization_Converged-OPLS-2005>
0

> <r_mmod_RMS_Derivative-OPLS-2005>
1.75670611858368

$$$$
19
                    3D
 Structure written by MMmdl.
168176  0  0  1  0            999 V2000
  -30.7510  -14.4212   20.6473 C   0  0  0  0  0  0
  -30.4194  -12.3035   19.4217 C   0  0  0  0  0  0
  -29.4891  -12.4960   18.2079 C   0  0  0  0  0  0
  -28.0138  -12.3496   18.6253 C   0  0  0  0  0  0
  -27.6604  -13.2010   19.8726 C   0  0  2  0  0  0
  -28.6979  -12.9890   20.9972 C   0  0  0  0  0  0
  -25.2588  -13.8159   20.5655 C   0  0  0  0  0  0
  -24.1836  -13.0450   20.9168 C   0  0  0  0  0  0
  -24.6377  -11.6911   20.8730 C   0  0  0  0  0  0
  -23.9045  -10.4303   21.0409 C   0  0  0  0  0  0
  -24.3608   -9.4229   21.9193 C   0  0  0  0  0  0
  -23.6289   -8.2255   22.0765 C   0  0  0  0  0  0
  -22.4269   -8.0284   21.3548 C   0  0  0  0  0  0
  -21.9911   -9.0248   20.4646 C   0  0  0  0  0  0
  -22.7229  -10.2143   20.3050 C   0  0  0  0  0  0
  -21.6846   -6.0725   22.5278 C   0  0  0  0  0  0
  -21.4013   -6.5634   23.8212 C   0  0  0  0  0  0
  -21.3660   -5.6791   24.9173 C   0  0  0  0  0  0
  -21.6045   -4.3050   24.7225 C   0  0  0  0  0  0
  -21.8816   -3.8145   23.4351 C   0  0  0  0  0  0
  -21.9195   -4.6962   22.3405 C   0  0  0  0  0  0
  -22.7861  -13.5251   21.1842 C   0  0  0  0  0  0
  -22.1659   -4.2146   21.0980 F   0  0  0  0  0  0
  -21.5634   -3.4531   25.7747 F   0  0  0  0  0  0
  -30.0340  -13.2832   20.4488 N   0  0  0  0  0  0
  -26.2999  -12.9312   20.3344 N   0  0  0  0  0  0
  -25.9298  -11.6474   20.5758 N   0  0  0  0  0  0
  -22.0493  -12.8233   22.0368 N   0  0  0  0  0  0
  -25.4373  -15.1872   20.4062 N   0  0  0  0  0  0
  -31.8367  -14.6326   20.0961 O   0  0  0  0  0  0
  -21.6637   -6.8878   21.4243 O   0  0  0  0  0  0
  -22.3560  -14.5577   20.6713 O   0  0  0  0  0  0
  -24.6114  -31.8673   23.2073 C   0  0  0  0  0  0
  -25.8990  -32.4817   23.8375 C   0  0  1  0  0  0
  -27.2232  -27.4163   20.1162 C   0  0  0  0  0  0
  -25.5861  -33.8620   24.2271 N   0  0  0  0  0  0
  -23.4020  -30.4886   21.5498 C   0  0  2  0  0  0
  -24.8504  -28.9545   20.1140 C   0  0  0  0  0  0
  -22.7397  -29.4657   22.5002 C   0  0  0  0  0  0
  -18.0260  -28.1371   22.8494 C   0  0  0  0  0  0
  -24.1501  -36.7325   23.2643 C   0  0  0  0  0  0
  -25.9348  -30.8264   21.3683 C   0  0  0  0  0  0
  -26.0128  -29.4628   20.7088 C   0  0  0  0  0  0
  -27.2067  -28.7024   20.7025 C   0  0  0  0  0  0
  -26.0472  -26.9233   19.5153 C   0  0  0  0  0  0
  -24.8619  -27.6836   19.5129 C   0  0  0  0  0  0
  -23.6119  -29.8181   20.1651 C   0  0  0  0  0  0
  -25.4135  -36.3117   24.0328 C   0  0  1  0  0  0
  -20.5837  -28.3678   23.1296 C   0  0  2  0  0  0
  -20.6762  -26.9417   22.5426 C   0  0  0  0  0  0
  -19.5751  -26.6402   21.5215 C   0  0  0  0  0  0
  -18.1908  -26.7921   22.1602 C   0  0  0  0  0  0
  -19.1510  -28.8837   23.2896 C   0  0  0  0  0  0
  -18.9469  -30.1439   23.8916 C   0  0  0  0  0  0
  -17.6473  -30.6593   24.0571 C   0  0  0  0  0  0
  -25.9071  -34.9472   23.5111 C   0  0  0  0  0  0
  -16.5359  -29.9102   23.6329 C   0  0  0  0  0  0
  -16.7257  -28.6515   23.0351 C   0  0  0  0  0  0
  -26.4442  -31.6622   25.0705 C   0  0  0  0  0  0
  -25.3699  -31.3741   26.1435 C   0  0  0  0  0  0
  -27.0287  -30.3062   24.6108 C   0  0  0  0  0  0
  -27.5968  -32.4398   25.7477 C   0  0  0  0  0  0
  -27.5607  -37.1803   24.8461 C   0  0  0  0  0  0
  -21.4128  -29.3026   22.3709 N   0  0  0  0  0  0
  -26.4328  -37.3790   23.9400 N   0  0  0  0  0  0
  -24.6667  -31.0755   22.0989 N   0  0  0  0  0  0
  -23.4162  -28.8192   23.3067 O   0  0  0  0  0  0
  -28.3681  -26.6500   20.1349 O   0  0  0  0  0  0
  -26.5675  -34.8909   22.4711 O   0  0  0  0  0  0
  -23.5296  -32.1464   23.7447 O   0  0  0  0  0  0
  -30.2726  -17.7974   21.7272 C   0  0  0  0  0  0
  -31.9899  -16.3828   22.7151 C   0  0  0  0  0  0
  -32.0764  -18.8094   23.0499 C   0  0  0  0  0  0
  -30.8158  -16.5109   21.9455 C   0  0  0  0  0  0
  -30.9162  -18.9564   22.2403 C   0  0  0  0  0  0
  -32.6177  -17.5147   23.2633 C   0  0  0  0  0  0
  -28.1780  -24.1635   19.9337 C   0  0  0  0  0  0
  -30.0088  -20.7469   20.7739 C   0  0  0  0  0  0
  -33.7961  -20.6721   22.7504 C   0  0  0  0  0  0
  -27.5533  -22.6480   21.9272 C   0  0  0  0  0  0
  -27.4067  -21.7961   19.5868 C   0  0  0  0  0  0
  -32.7568  -20.0273   23.6759 C   0  0  0  0  0  0
  -28.2597  -25.4003   20.8613 C   0  0  0  0  0  0
  -29.7202  -22.2635   20.6575 C   0  0  0  0  0  0
  -28.2245  -22.7186   20.5376 C   0  0  0  0  0  0
  -30.4170  -20.2699   21.9664 N   0  0  0  0  0  0
  -30.1730  -15.3520   21.4271 N   0  0  0  0  0  0
  -28.1096  -24.3194   18.7103 O   0  0  0  0  0  0
  -29.9109  -20.0354   19.7702 O   0  0  0  0  0  0
  -34.0678  -17.2704   24.1760 Cl  0  0  0  0  0  0
  -31.4638  -12.4014   19.1165 H   0  0  0  0  0  0
  -30.3267  -11.2944   19.8227 H   0  0  0  0  0  0
  -29.7270  -11.7642   17.4347 H   0  0  0  0  0  0
  -29.6515  -13.4793   17.7642 H   0  0  0  0  0  0
  -27.8353  -11.2940   18.8364 H   0  0  0  0  0  0
  -27.3598  -12.6034   17.7906 H   0  0  0  0  0  0
  -27.7048  -14.2460   19.5646 H   0  0  0  0  0  0
  -28.6702  -11.9562   21.3467 H   0  0  0  0  0  0
  -28.4440  -13.5925   21.8694 H   0  0  0  0  0  0
  -25.2741   -9.5705   22.4775 H   0  0  0  0  0  0
  -23.9990   -7.4649   22.7487 H   0  0  0  0  0  0
  -21.0849   -8.8770   19.8938 H   0  0  0  0  0  0
  -22.3693  -10.9680   19.6160 H   0  0  0  0  0  0
  -21.1998   -7.6139   23.9719 H   0  0  0  0  0  0
  -21.1480   -6.0515   25.9080 H   0  0  0  0  0  0
  -22.0595   -2.7602   23.2849 H   0  0  0  0  0  0
  -22.4090  -11.9864   22.4713 H   0  0  0  0  0  0
  -21.1123  -13.1285   22.2597 H   0  0  0  0  0  0
  -24.6789  -15.8526   20.5076 H   0  0  0  0  0  0
  -26.2952  -15.6139   20.0799 H   0  0  0  0  0  0
  -26.7043  -32.5539   23.1127 H   0  0  0  0  0  0
  -24.9844  -33.9795   25.0293 H   0  0  0  0  0  0
  -22.6948  -31.3074   21.4055 H   0  0  0  0  0  0
  -23.3756  -35.9662   23.3335 H   0  0  0  0  0  0
  -24.3552  -36.8955   22.2048 H   0  0  0  0  0  0
  -23.7265  -37.6532   23.6685 H   0  0  0  0  0  0
  -26.0564  -31.5976   20.6071 H   0  0  0  0  0  0
  -26.8150  -30.8687   21.9992 H   0  0  0  0  0  0
  -28.1005  -29.0794   21.1772 H   0  0  0  0  0  0
  -26.0400  -25.9508   19.0434 H   0  0  0  0  0  0
  -23.9681  -27.2859   19.0501 H   0  0  0  0  0  0
  -23.7236  -30.5923   19.4079 H   0  0  0  0  0  0
  -22.7358  -29.2403   19.8632 H   0  0  0  0  0  0
  -25.1309  -36.1990   25.0825 H   0  0  0  0  0  0
  -20.9916  -28.3309   24.1412 H   0  0  0  0  0  0
  -20.5710  -26.2287   23.3629 H   0  0  0  0  0  0
  -21.6629  -26.7523   22.1190 H   0  0  0  0  0  0
  -19.6986  -25.6334   21.1226 H   0  0  0  0  0  0
  -19.6691  -27.3191   20.6727 H   0  0  0  0  0  0
  -17.4180  -26.6648   21.4003 H   0  0  0  0  0  0
  -18.0365  -26.0069   22.9013 H   0  0  0  0  0  0
  -19.7970  -30.7229   24.2310 H   0  0  0  0  0  0
  -17.5049  -31.6273   24.5176 H   0  0  0  0  0  0
  -15.5356  -30.3001   23.7686 H   0  0  0  0  0  0
  -15.8657  -28.0847   22.7049 H   0  0  0  0  0  0
  -24.5845  -30.7140   25.7768 H   0  0  0  0  0  0
  -24.8902  -32.2890   26.4925 H   0  0  0  0  0  0
  -25.8002  -30.8880   27.0191 H   0  0  0  0  0  0
  -26.2839  -29.6816   24.1157 H   0  0  0  0  0  0
  -27.4044  -29.7314   25.4588 H   0  0  0  0  0  0
  -27.8687  -30.4390   23.9267 H   0  0  0  0  0  0
  -27.2541  -33.3694   26.2049 H   0  0  0  0  0  0
  -28.3767  -32.7004   25.0307 H   0  0  0  0  0  0
  -28.0649  -31.8549   26.5421 H   0  0  0  0  0  0
  -28.2593  -38.0110   24.7536 H   0  0  0  0  0  0
  -28.1117  -36.2654   24.6282 H   0  0  0  0  0  0
  -27.2299  -37.1447   25.8838 H   0  0  0  0  0  0
  -20.9322  -29.8734   21.6889 H   0  0  0  0  0  0
  -26.0238  -38.2886   24.1350 H   0  0  0  0  0  0
  -29.3691  -17.8968   21.1412 H   0  0  0  0  0  0
  -32.4188  -15.4082   22.8973 H   0  0  0  0  0  0
  -34.3274  -21.4718   23.2671 H   0  0  0  0  0  0
  -33.3275  -21.1027   21.8654 H   0  0  0  0  0  0
  -34.5355  -19.9423   22.4196 H   0  0  0  0  0  0
  -26.5054  -22.9463   21.8929 H   0  0  0  0  0  0
  -28.0637  -23.2701   22.6595 H   0  0  0  0  0  0
  -27.5761  -21.6319   22.3225 H   0  0  0  0  0  0
  -26.4042  -22.1891   19.4161 H   0  0  0  0  0  0
  -27.2790  -20.7933   19.9987 H   0  0  0  0  0  0
  -27.8791  -21.6866   18.6095 H   0  0  0  0  0  0
  -33.2263  -19.7446   24.6171 H   0  0  0  0  0  0
  -32.0132  -20.7685   23.9671 H   0  0  0  0  0  0
  -29.1419  -25.2983   21.4948 H   0  0  0  0  0  0
  -27.3932  -25.4115   21.5254 H   0  0  0  0  0  0
  -30.2732  -22.5948   19.7783 H   0  0  0  0  0  0
  -30.1944  -22.7792   21.4946 H   0  0  0  0  0  0
  -30.5553  -20.9594   22.6921 H   0  0  0  0  0  0
  -29.2124  -15.1943   21.6943 H   0  0  0  0  0  0
  1 25  1  0  0  0
  1 30  2  0  0  0
  1 87  1  0  0  0
  2  3  1  0  0  0
  2 25  1  0  0  0
  2 91  1  0  0  0
  2 92  1  0  0  0
  3  4  1  0  0  0
  3 93  1  0  0  0
  3 94  1  0  0  0
  4  5  1  0  0  0
  4 95  1  0  0  0
  4 96  1  0  0  0
  5  6  1  0  0  0
  5 26  1  0  0  0
  5 97  1  0  0  0
  6 25  1  0  0  0
  6 98  1  0  0  0
  6 99  1  0  0  0
  7  8  2  0  0  0
  7 26  1  0  0  0
  7 29  1  0  0  0
  8  9  1  0  0  0
  8 22  1  0  0  0
  9 10  1  0  0  0
  9 27  2  0  0  0
 10 11  2  0  0  0
 10 15  1  0  0  0
 11 12  1  0  0  0
 11100  1  0  0  0
 12 13  2  0  0  0
 12101  1  0  0  0
 13 14  1  0  0  0
 13 31  1  0  0  0
 14 15  2  0  0  0
 14102  1  0  0  0
 15103  1  0  0  0
 16 17  2  0  0  0
 16 21  1  0  0  0
 16 31  1  0  0  0
 17 18  1  0  0  0
 17104  1  0  0  0
 18 19  2  0  0  0
 18105  1  0  0  0
 19 20  1  0  0  0
 19 24  1  0  0  0
 20 21  2  0  0  0
 20106  1  0  0  0
 21 23  1  0  0  0
 22 28  1  0  0  0
 22 32  2  0  0  0
 26 27  1  0  0  0
 28107  1  0  0  0
 28108  1  0  0  0
 29109  1  0  0  0
 29110  1  0  0  0
 33 34  1  0  0  0
 33 66  1  0  0  0
 33 70  2  0  0  0
 34 36  1  0  0  0
 34 59  1  0  0  0
 34111  1  0  0  0
 35 44  2  0  0  0
 35 45  1  0  0  0
 35 68  1  0  0  0
 36 56  1  0  0  0
 36112  1  0  0  0
 37 39  1  0  0  0
 37 47  1  0  0  0
 37 66  1  0  0  0
 37113  1  0  0  0
 38 43  2  0  0  0
 38 46  1  0  0  0
 38 47  1  0  0  0
 39 64  1  0  0  0
 39 67  2  0  0  0
 40 52  1  0  0  0
 40 53  2  0  0  0
 40 58  1  0  0  0
 41114  1  0  0  0
 41115  1  0  0  0
 41116  1  0  0  0
 41 48  1  0  0  0
 42 43  1  0  0  0
 42 66  1  0  0  0
 42117  1  0  0  0
 42118  1  0  0  0
 43 44  1  0  0  0
 44119  1  0  0  0
 45 46  2  0  0  0
 45120  1  0  0  0
 46121  1  0  0  0
 47122  1  0  0  0
 47123  1  0  0  0
 48 56  1  0  0  0
 48 65  1  0  0  0
 48124  1  0  0  0
 49 50  1  0  0  0
 49 53  1  0  0  0
 49 64  1  0  0  0
 49125  1  0  0  0
 50 51  1  0  0  0
 50126  1  0  0  0
 50127  1  0  0  0
 51 52  1  0  0  0
 51128  1  0  0  0
 51129  1  0  0  0
 52130  1  0  0  0
 52131  1  0  0  0
 53 54  1  0  0  0
 54 55  2  0  0  0
 54132  1  0  0  0
 55 57  1  0  0  0
 55133  1  0  0  0
 56 69  2  0  0  0
 57 58  2  0  0  0
 57134  1  0  0  0
 58135  1  0  0  0
 59 60  1  0  0  0
 59 61  1  0  0  0
 59 62  1  0  0  0
 60136  1  0  0  0
 60137  1  0  0  0
 60138  1  0  0  0
 61139  1  0  0  0
 61140  1  0  0  0
 61141  1  0  0  0
 62142  1  0  0  0
 62143  1  0  0  0
 62144  1  0  0  0
 63 65  1  0  0  0
 63145  1  0  0  0
 63146  1  0  0  0
 63147  1  0  0  0
 64148  1  0  0  0
 65149  1  0  0  0
 68 83  1  0  0  0
 71 74  2  0  0  0
 71 75  1  0  0  0
 71150  1  0  0  0
 72 74  1  0  0  0
 72 76  2  0  0  0
 72151  1  0  0  0
 73 75  2  0  0  0
 73 76  1  0  0  0
 73 82  1  0  0  0
 74 87  1  0  0  0
 75 86  1  0  0  0
 76 90  1  0  0  0
 77 83  1  0  0  0
 77 85  1  0  0  0
 77 88  2  0  0  0
 78 84  1  0  0  0
 78 86  1  0  0  0
 78 89  2  0  0  0
 79 82  1  0  0  0
 79152  1  0  0  0
 79153  1  0  0  0
 79154  1  0  0  0
 80155  1  0  0  0
 80156  1  0  0  0
 80157  1  0  0  0
 80 85  1  0  0  0
 81 85  1  0  0  0
 81158  1  0  0  0
 81159  1  0  0  0
 81160  1  0  0  0
 82161  1  0  0  0
 82162  1  0  0  0
 83163  1  0  0  0
 83164  1  0  0  0
 84 85  1  0  0  0
 84165  1  0  0  0
 84166  1  0  0  0
 86167  1  0  0  0
 87168  1  0  0  0
M  ISO  4   1 100  68 101  83 101  87 100
M  END
> <chiral flag>
0

> <version>
0

> <s_m_source_file>
/data/baiqing/PycharmProjects/Reinvent-master-3.2/result/LINK_invent/BTK/process_docking_weight1_custom_product_contain_oxygen_bond_distance_aromatic_linkinvent_7_9_3/rearranged_h_0164.sdf

> <i_m_source_file_index>
20

> <r_mmod_Potential_Energy-OPLS-2005>
15.9931783676147

> <r_mmod_Stretch_Energy-OPLS-2005>
44.7365913391113

> <r_mmod_Bend_Energy-OPLS-2005>
100.017486572266

> <r_mmod_Torsional_Energy-OPLS-2005>
268.22021484375

> <r_mmod_Improper_Torsional_Energy-OPLS-2005>
2.83153009414673

> <r_mmod_Van_der_Waal_Energy-OPLS-2005>
160.617721557617

> <r_mmod_Electrostatic_Energy-OPLS-2005>
-325.5234375

> <r_mmod_Solvation_Energy-OPLS-2005>
-247.56037902832

> <b_mmod_Minimization_Converged-OPLS-2005>
0

> <r_mmod_RMS_Derivative-OPLS-2005>
4.02636909484863

$$$$
20
                    3D
 Structure written by MMmdl.
164172  0  0  1  0            999 V2000
  -30.6732  -14.4832   20.5735 C   0  0  0  0  0  0
  -30.4308  -12.3129   19.4211 C   0  0  0  0  0  0
  -29.4971  -12.5089   18.2073 C   0  0  0  0  0  0
  -28.0175  -12.3674   18.6186 C   0  0  0  0  0  0
  -27.6637  -13.2019   19.8786 C   0  0  2  0  0  0
  -28.7041  -12.9648   20.9965 C   0  0  0  0  0  0
  -25.2595  -13.8147   20.5671 C   0  0  0  0  0  0
  -24.1839  -13.0432   20.9162 C   0  0  0  0  0  0
  -24.6387  -11.6897   20.8728 C   0  0  0  0  0  0
  -23.9052  -10.4288   21.0402 C   0  0  0  0  0  0
  -24.3607   -9.4206   21.9181 C   0  0  0  0  0  0
  -23.6284   -8.2241   22.0754 C   0  0  0  0  0  0
  -22.4268   -8.0277   21.3544 C   0  0  0  0  0  0
  -21.9899   -9.0250   20.4647 C   0  0  0  0  0  0
  -22.7225  -10.2129   20.3054 C   0  0  0  0  0  0
  -21.6851   -6.0732   22.5277 C   0  0  0  0  0  0
  -21.4013   -6.5636   23.8211 C   0  0  0  0  0  0
  -21.3659   -5.6791   24.9172 C   0  0  0  0  0  0
  -21.6044   -4.3053   24.7225 C   0  0  0  0  0  0
  -21.8820   -3.8143   23.4346 C   0  0  0  0  0  0
  -21.9193   -4.6960   22.3400 C   0  0  0  0  0  0
  -22.7864  -13.5238   21.1832 C   0  0  0  0  0  0
  -22.1661   -4.2146   21.0979 F   0  0  0  0  0  0
  -21.5630   -3.4538   25.7737 F   0  0  0  0  0  0
  -30.0361  -13.2861   20.4516 N   0  0  0  0  0  0
  -26.3032  -12.9308   20.3376 N   0  0  0  0  0  0
  -25.9314  -11.6472   20.5766 N   0  0  0  0  0  0
  -22.0507  -12.8235   22.0395 N   0  0  0  0  0  0
  -25.4329  -15.1861   20.4080 N   0  0  0  0  0  0
  -31.7924  -14.6918   20.0958 O   0  0  0  0  0  0
  -21.6636   -6.8873   21.4239 O   0  0  0  0  0  0
  -22.3549  -14.5548   20.6686 O   0  0  0  0  0  0
  -24.6140  -31.8677   23.2084 C   0  0  0  0  0  0
  -25.9034  -32.4821   23.8382 C   0  0  1  0  0  0
  -27.2429  -27.4314   20.0837 C   0  0  0  0  0  0
  -25.5896  -33.8618   24.2317 N   0  0  0  0  0  0
  -23.4020  -30.4899   21.5489 C   0  0  2  0  0  0
  -24.8474  -28.9496   20.1169 C   0  0  0  0  0  0
  -22.7405  -29.4658   22.4986 C   0  0  0  0  0  0
  -18.0270  -28.1378   22.8495 C   0  0  0  0  0  0
  -24.1491  -36.7312   23.2639 C   0  0  0  0  0  0
  -25.9303  -30.8293   21.3616 C   0  0  0  0  0  0
  -26.0062  -29.4613   20.7122 C   0  0  0  0  0  0
  -27.2000  -28.7057   20.6981 C   0  0  0  0  0  0
  -26.0548  -26.9209   19.5135 C   0  0  0  0  0  0
  -24.8660  -27.6767   19.5198 C   0  0  0  0  0  0
  -23.6106  -29.8187   20.1647 C   0  0  0  0  0  0
  -25.4111  -36.3110   24.0338 C   0  0  1  0  0  0
  -20.5861  -28.3663   23.1321 C   0  0  2  0  0  0
  -20.6764  -26.9400   22.5417 C   0  0  0  0  0  0
  -19.5746  -26.6384   21.5214 C   0  0  0  0  0  0
  -18.1922  -26.7924   22.1624 C   0  0  0  0  0  0
  -19.1520  -28.8835   23.2908 C   0  0  0  0  0  0
  -18.9453  -30.1442   23.8917 C   0  0  0  0  0  0
  -17.6457  -30.6586   24.0568 C   0  0  0  0  0  0
  -25.9036  -34.9476   23.5125 C   0  0  0  0  0  0
  -16.5347  -29.9094   23.6326 C   0  0  0  0  0  0
  -16.7261  -28.6509   23.0347 C   0  0  0  0  0  0
  -26.4461  -31.6604   25.0712 C   0  0  0  0  0  0
  -25.3727  -31.3720   26.1465 C   0  0  0  0  0  0
  -27.0286  -30.3049   24.6078 C   0  0  0  0  0  0
  -27.6041  -32.4320   25.7475 C   0  0  0  0  0  0
  -27.5583  -37.1811   24.8466 C   0  0  0  0  0  0
  -21.4132  -29.3034   22.3729 N   0  0  0  0  0  0
  -26.4297  -37.3792   23.9410 N   0  0  0  0  0  0
  -24.6672  -31.0772   22.0984 N   0  0  0  0  0  0
  -23.4178  -28.8207   23.3030 O   0  0  0  0  0  0
  -28.4453  -26.7457   20.0940 O   0  0  0  0  0  0
  -26.5597  -34.8927   22.4687 O   0  0  0  0  0  0
  -23.5334  -32.1431   23.7479 O   0  0  0  0  0  0
  -30.9619  -19.0258   20.4009 C   0  0  0  0  0  0
  -30.9622  -17.6119   20.3641 C   0  0  0  0  0  0
  -30.0474  -19.7548   21.2057 C   0  0  0  0  0  0
  -30.0278  -16.8737   21.1280 C   0  0  0  0  0  0
  -29.0808  -19.0099   21.9340 C   0  0  0  0  0  0
  -29.0777  -17.5924   21.8855 C   0  0  0  0  0  0
  -31.6291  -21.7749   21.2641 C   0  0  0  0  0  0
  -28.4984  -26.1503   17.6701 C   0  0  0  0  0  0
  -28.3579  -24.2699   19.4803 C   0  0  0  0  0  0
  -29.3629  -23.5236   20.4082 C   0  0  0  0  0  0
  -30.1586  -21.2967   21.3320 C   0  0  1  0  0  0
  -28.7815  -25.7315   19.1277 C   0  0  2  0  0  0
  -28.1100  -19.6384   22.7203 N   0  0  0  0  0  0
  -29.9411  -15.4428   21.1743 N   0  0  0  0  0  0
  -29.2561  -22.0299   20.3927 N   0  3  0  0  0  0
  -28.1485  -16.9067   22.5982 F   0  0  0  0  0  0
  -31.4738  -12.4258   19.1193 H   0  0  0  0  0  0
  -30.3441  -11.2982   19.8126 H   0  0  0  0  0  0
  -29.7378  -11.7855   17.4272 H   0  0  0  0  0  0
  -29.6627  -13.4949   17.7702 H   0  0  0  0  0  0
  -27.8271  -11.3108   18.8106 H   0  0  0  0  0  0
  -27.3671  -12.6457   17.7886 H   0  0  0  0  0  0
  -27.7123  -14.2521   19.5897 H   0  0  0  0  0  0
  -28.6837  -11.9216   21.3150 H   0  0  0  0  0  0
  -28.4577  -13.5393   21.8903 H   0  0  0  0  0  0
  -25.2755   -9.5682   22.4751 H   0  0  0  0  0  0
  -23.9996   -7.4634   22.7473 H   0  0  0  0  0  0
  -21.0830   -8.8766   19.8954 H   0  0  0  0  0  0
  -22.3684  -10.9666   19.6161 H   0  0  0  0  0  0
  -21.2004   -7.6146   23.9712 H   0  0  0  0  0  0
  -21.1481   -6.0521   25.9076 H   0  0  0  0  0  0
  -22.0600   -2.7606   23.2846 H   0  0  0  0  0  0
  -22.4118  -11.9889   22.4776 H   0  0  0  0  0  0
  -21.1131  -13.1269   22.2611 H   0  0  0  0  0  0
  -24.6740  -15.8465   20.5345 H   0  0  0  0  0  0
  -26.2986  -15.6279   20.1261 H   0  0  0  0  0  0
  -26.7103  -32.5528   23.1144 H   0  0  0  0  0  0
  -25.0061  -33.9789   25.0471 H   0  0  0  0  0  0
  -22.6906  -31.3061   21.4083 H   0  0  0  0  0  0
  -23.3752  -35.9648   23.3310 H   0  0  0  0  0  0
  -24.3585  -36.8911   22.2051 H   0  0  0  0  0  0
  -23.7244  -37.6522   23.6642 H   0  0  0  0  0  0
  -26.0400  -31.5927   20.5899 H   0  0  0  0  0  0
  -26.8198  -30.8865   21.9774 H   0  0  0  0  0  0
  -28.0972  -29.1024   21.1526 H   0  0  0  0  0  0
  -26.0280  -25.9377   19.0694 H   0  0  0  0  0  0
  -23.9699  -27.2691   19.0715 H   0  0  0  0  0  0
  -23.7206  -30.5923   19.4040 H   0  0  0  0  0  0
  -22.7339  -29.2392   19.8695 H   0  0  0  0  0  0
  -25.1287  -36.1973   25.0829 H   0  0  0  0  0  0
  -20.9956  -28.3225   24.1441 H   0  0  0  0  0  0
  -20.5671  -26.2272   23.3605 H   0  0  0  0  0  0
  -21.6636  -26.7448   22.1208 H   0  0  0  0  0  0
  -19.6916  -25.6300   21.1233 H   0  0  0  0  0  0
  -19.6689  -27.3203   20.6753 H   0  0  0  0  0  0
  -17.4196  -26.6673   21.4021 H   0  0  0  0  0  0
  -18.0323  -26.0057   22.9011 H   0  0  0  0  0  0
  -19.7930  -30.7247   24.2297 H   0  0  0  0  0  0
  -17.5018  -31.6269   24.5165 H   0  0  0  0  0  0
  -15.5352  -30.3010   23.7635 H   0  0  0  0  0  0
  -15.8658  -28.0838   22.7056 H   0  0  0  0  0  0
  -24.5895  -30.7068   25.7805 H   0  0  0  0  0  0
  -24.8923  -32.2884   26.4908 H   0  0  0  0  0  0
  -25.8078  -30.8894   27.0225 H   0  0  0  0  0  0
  -26.2826  -29.6820   24.1125 H   0  0  0  0  0  0
  -27.4063  -29.7270   25.4522 H   0  0  0  0  0  0
  -27.8656  -30.4376   23.9216 H   0  0  0  0  0  0
  -27.2664  -33.3616   26.2071 H   0  0  0  0  0  0
  -28.3842  -32.6885   25.0294 H   0  0  0  0  0  0
  -28.0716  -31.8430   26.5375 H   0  0  0  0  0  0
  -28.2603  -38.0106   24.7511 H   0  0  0  0  0  0
  -28.1076  -36.2637   24.6291 H   0  0  0  0  0  0
  -27.2302  -37.1454   25.8870 H   0  0  0  0  0  0
  -20.9291  -29.8761   21.6957 H   0  0  0  0  0  0
  -26.0187  -38.2872   24.1408 H   0  0  0  0  0  0
  -31.7071  -19.5413   19.8130 H   0  0  0  0  0  0
  -31.6955  -17.1176   19.7444 H   0  0  0  0  0  0
  -32.2577  -21.1787   21.9262 H   0  0  0  0  0  0
  -31.7375  -22.8072   21.5956 H   0  0  0  0  0  0
  -32.0425  -21.7066   20.2582 H   0  0  0  0  0  0
  -29.0238  -25.4957   16.9745 H   0  0  0  0  0  0
  -28.8513  -27.1651   17.4833 H   0  0  0  0  0  0
  -27.4450  -26.1098   17.4023 H   0  0  0  0  0  0
  -27.3561  -24.2472   19.9081 H   0  0  0  0  0  0
  -28.2933  -23.7107   18.5464 H   0  0  0  0  0  0
  -29.2587  -23.8947   21.4289 H   0  0  0  0  0  0
  -30.3707  -23.7829   20.0855 H   0  0  0  0  0  0
  -29.8219  -21.5571   22.3359 H   0  0  0  0  0  0
  -29.8711  -25.7396   19.1661 H   0  0  0  0  0  0
  -28.4508  -20.3263   23.3823 H   0  0  0  0  0  0
  -27.5272  -18.9683   23.2151 H   0  0  0  0  0  0
  -29.1058  -15.1017   21.6267 H   0  0  0  0  0  0
  -29.4320  -21.6944   19.4602 H   0  0  0  0  0  0
  -28.3139  -21.7647   20.6350 H   0  0  0  0  0  0
  1 25  1  0  0  0
  1 30  2  0  0  0
  1 84  1  0  0  0
  2  3  1  0  0  0
  2 25  1  0  0  0
  2 87  1  0  0  0
  2 88  1  0  0  0
  3  4  1  0  0  0
  3 89  1  0  0  0
  3 90  1  0  0  0
  4  5  1  0  0  0
  4 91  1  0  0  0
  4 92  1  0  0  0
  5  6  1  0  0  0
  5 26  1  0  0  0
  5 93  1  0  0  0
  6 25  1  0  0  0
  6 94  1  0  0  0
  6 95  1  0  0  0
  7  8  2  0  0  0
  7 26  1  0  0  0
  7 29  1  0  0  0
  8  9  1  0  0  0
  8 22  1  0  0  0
  9 10  1  0  0  0
  9 27  2  0  0  0
 10 11  2  0  0  0
 10 15  1  0  0  0
 11 12  1  0  0  0
 11 96  1  0  0  0
 12 13  2  0  0  0
 12 97  1  0  0  0
 13 14  1  0  0  0
 13 31  1  0  0  0
 14 15  2  0  0  0
 14 98  1  0  0  0
 15 99  1  0  0  0
 16 17  2  0  0  0
 16 21  1  0  0  0
 16 31  1  0  0  0
 17 18  1  0  0  0
 17100  1  0  0  0
 18 19  2  0  0  0
 18101  1  0  0  0
 19 20  1  0  0  0
 19 24  1  0  0  0
 20 21  2  0  0  0
 20102  1  0  0  0
 21 23  1  0  0  0
 22 28  1  0  0  0
 22 32  2  0  0  0
 26 27  1  0  0  0
 28103  1  0  0  0
 28104  1  0  0  0
 29105  1  0  0  0
 29106  1  0  0  0
 33 34  1  0  0  0
 33 66  1  0  0  0
 33 70  2  0  0  0
 34 36  1  0  0  0
 34 59  1  0  0  0
 34107  1  0  0  0
 35 44  2  0  0  0
 35 45  1  0  0  0
 35 68  1  0  0  0
 36 56  1  0  0  0
 36108  1  0  0  0
 37 39  1  0  0  0
 37 47  1  0  0  0
 37 66  1  0  0  0
 37109  1  0  0  0
 38 43  2  0  0  0
 38 46  1  0  0  0
 38 47  1  0  0  0
 39 64  1  0  0  0
 39 67  2  0  0  0
 40 52  1  0  0  0
 40 53  2  0  0  0
 40 58  1  0  0  0
 41110  1  0  0  0
 41111  1  0  0  0
 41112  1  0  0  0
 41 48  1  0  0  0
 42 43  1  0  0  0
 42 66  1  0  0  0
 42113  1  0  0  0
 42114  1  0  0  0
 43 44  1  0  0  0
 44115  1  0  0  0
 45 46  2  0  0  0
 45116  1  0  0  0
 46117  1  0  0  0
 47118  1  0  0  0
 47119  1  0  0  0
 48 56  1  0  0  0
 48 65  1  0  0  0
 48120  1  0  0  0
 49 50  1  0  0  0
 49 53  1  0  0  0
 49 64  1  0  0  0
 49121  1  0  0  0
 50 51  1  0  0  0
 50122  1  0  0  0
 50123  1  0  0  0
 51 52  1  0  0  0
 51124  1  0  0  0
 51125  1  0  0  0
 52126  1  0  0  0
 52127  1  0  0  0
 53 54  1  0  0  0
 54 55  2  0  0  0
 54128  1  0  0  0
 55 57  1  0  0  0
 55129  1  0  0  0
 56 69  2  0  0  0
 57 58  2  0  0  0
 57130  1  0  0  0
 58131  1  0  0  0
 59 60  1  0  0  0
 59 61  1  0  0  0
 59 62  1  0  0  0
 60132  1  0  0  0
 60133  1  0  0  0
 60134  1  0  0  0
 61135  1  0  0  0
 61136  1  0  0  0
 61137  1  0  0  0
 62138  1  0  0  0
 62139  1  0  0  0
 62140  1  0  0  0
 63 65  1  0  0  0
 63141  1  0  0  0
 63142  1  0  0  0
 63143  1  0  0  0
 64144  1  0  0  0
 65145  1  0  0  0
 68 82  1  0  0  0
 71 72  2  0  0  0
 71 73  1  0  0  0
 71146  1  0  0  0
 72 74  1  0  0  0
 72147  1  0  0  0
 73 75  2  0  0  0
 73 81  1  0  0  0
 74 76  2  0  0  0
 74 84  1  0  0  0
 75 76  1  0  0  0
 75 83  1  0  0  0
 76 86  1  0  0  0
 77148  1  0  0  0
 77149  1  0  0  0
 77150  1  0  0  0
 77 81  1  0  0  0
 78151  1  0  0  0
 78152  1  0  0  0
 78153  1  0  0  0
 78 82  1  0  0  0
 79 80  1  0  0  0
 79 82  1  0  0  0
 79154  1  0  0  0
 79155  1  0  0  0
 80 85  1  0  0  0
 80156  1  0  0  0
 80157  1  0  0  0
 81 85  1  0  0  0
 81158  1  0  0  0
 82159  1  0  0  0
 83160  1  0  0  0
 83161  1  0  0  0
 84162  1  0  0  0
 85163  1  0  0  0
 85164  1  0  0  0
M  CHG  1  85   1
M  ISO  4   1 100  68 101  82 101  84 100
M  END
> <chiral flag>
0

> <version>
0

> <s_m_source_file>
/data/baiqing/PycharmProjects/Reinvent-master-3.2/result/LINK_invent/BTK/process_docking_weight1_custom_product_contain_oxygen_bond_distance_aromatic_linkinvent_7_9_3/rearranged_h_0164.sdf

> <i_m_source_file_index>
21

> <r_mmod_Potential_Energy-OPLS-2005>
-188.7939453125

> <r_mmod_Stretch_Energy-OPLS-2005>
43.886474609375

> <r_mmod_Bend_Energy-OPLS-2005>
129.671691894531

> <r_mmod_Torsional_Energy-OPLS-2005>
216.151062011719

> <r_mmod_Improper_Torsional_Energy-OPLS-2005>
8.40796184539795

> <r_mmod_Van_der_Waal_Energy-OPLS-2005>
161.580596923828

> <r_mmod_Electrostatic_Energy-OPLS-2005>
-307.359649658203

> <r_mmod_Solvation_Energy-OPLS-2005>
-454.217620849609

> <b_mmod_Minimization_Converged-OPLS-2005>
0

> <r_mmod_RMS_Derivative-OPLS-2005>
0.608178794384003

$$$$
21
                    3D
 Structure written by MMmdl.
164173  0  0  1  0            999 V2000
  -30.6952  -14.4832   20.5933 C   0  0  0  0  0  0
  -30.4304  -12.3196   19.4225 C   0  0  0  0  0  0
  -29.4986  -12.5186   18.2086 C   0  0  0  0  0  0
  -28.0191  -12.3800   18.6174 C   0  0  0  0  0  0
  -27.6664  -13.2087   19.8809 C   0  0  2  0  0  0
  -28.7075  -12.9765   20.9996 C   0  0  0  0  0  0
  -25.2616  -13.8169   20.5697 C   0  0  0  0  0  0
  -24.1856  -13.0447   20.9171 C   0  0  0  0  0  0
  -24.6405  -11.6912   20.8719 C   0  0  0  0  0  0
  -23.9067  -10.4298   21.0392 C   0  0  0  0  0  0
  -24.3612   -9.4217   21.9175 C   0  0  0  0  0  0
  -23.6288   -8.2257   22.0756 C   0  0  0  0  0  0
  -22.4269   -8.0290   21.3550 C   0  0  0  0  0  0
  -21.9901   -9.0264   20.4651 C   0  0  0  0  0  0
  -22.7237  -10.2141   20.3051 C   0  0  0  0  0  0
  -21.6856   -6.0731   22.5276 C   0  0  0  0  0  0
  -21.4019   -6.5632   23.8209 C   0  0  0  0  0  0
  -21.3662   -5.6788   24.9171 C   0  0  0  0  0  0
  -21.6044   -4.3051   24.7225 C   0  0  0  0  0  0
  -21.8820   -3.8143   23.4346 C   0  0  0  0  0  0
  -21.9196   -4.6958   22.3400 C   0  0  0  0  0  0
  -22.7880  -13.5254   21.1828 C   0  0  0  0  0  0
  -22.1665   -4.2145   21.0977 F   0  0  0  0  0  0
  -21.5626   -3.4537   25.7739 F   0  0  0  0  0  0
  -30.0439  -13.2924   20.4582 N   0  0  0  0  0  0
  -26.3053  -12.9338   20.3386 N   0  0  0  0  0  0
  -25.9334  -11.6497   20.5750 N   0  0  0  0  0  0
  -22.0505  -12.8261   22.0379 N   0  0  0  0  0  0
  -25.4359  -15.1884   20.4127 N   0  0  0  0  0  0
  -31.7937  -14.7033   20.0743 O   0  0  0  0  0  0
  -21.6646   -6.8879   21.4240 O   0  0  0  0  0  0
  -22.3575  -14.5564   20.6673 O   0  0  0  0  0  0
  -24.6185  -31.8677   23.2125 C   0  0  0  0  0  0
  -25.9077  -32.4812   23.8408 C   0  0  1  0  0  0
  -27.2230  -27.3944   20.0753 C   0  0  0  0  0  0
  -25.5922  -33.8613   24.2331 N   0  0  0  0  0  0
  -23.4065  -30.4971   21.5547 C   0  0  2  0  0  0
  -24.8487  -28.9708   20.1112 C   0  0  0  0  0  0
  -22.7429  -29.4659   22.4973 C   0  0  0  0  0  0
  -18.0274  -28.1380   22.8485 C   0  0  0  0  0  0
  -24.1487  -36.7309   23.2631 C   0  0  0  0  0  0
  -25.9447  -30.8134   21.3812 C   0  0  0  0  0  0
  -26.0150  -29.4493   20.7207 C   0  0  0  0  0  0
  -27.1994  -28.6654   20.7107 C   0  0  0  0  0  0
  -26.0312  -26.9672   19.4330 C   0  0  0  0  0  0
  -24.8542  -27.7282   19.4676 C   0  0  0  0  0  0
  -23.6162  -29.8441   20.1653 C   0  0  0  0  0  0
  -25.4104  -36.3099   24.0333 C   0  0  1  0  0  0
  -20.5868  -28.3671   23.1304 C   0  0  2  0  0  0
  -20.6767  -26.9406   22.5408 C   0  0  0  0  0  0
  -19.5740  -26.6383   21.5208 C   0  0  0  0  0  0
  -18.1921  -26.7924   22.1623 C   0  0  0  0  0  0
  -19.1526  -28.8843   23.2890 C   0  0  0  0  0  0
  -18.9457  -30.1449   23.8897 C   0  0  0  0  0  0
  -17.6459  -30.6583   24.0562 C   0  0  0  0  0  0
  -25.9041  -34.9469   23.5126 C   0  0  0  0  0  0
  -16.5349  -29.9084   23.6325 C   0  0  0  0  0  0
  -16.7264  -28.6505   23.0340 C   0  0  0  0  0  0
  -26.4492  -31.6587   25.0742 C   0  0  0  0  0  0
  -25.3754  -31.3707   26.1485 C   0  0  0  0  0  0
  -27.0320  -30.3008   24.6163 C   0  0  0  0  0  0
  -27.6057  -32.4311   25.7508 C   0  0  0  0  0  0
  -27.5582  -37.1801   24.8456 C   0  0  0  0  0  0
  -21.4154  -29.3041   22.3713 N   0  0  0  0  0  0
  -26.4281  -37.3790   23.9417 N   0  0  0  0  0  0
  -24.6746  -31.0746   22.1058 N   0  0  0  0  0  0
  -23.4192  -28.8176   23.3004 O   0  0  0  0  0  0
  -28.3752  -26.6060   20.1091 O   0  0  0  0  0  0
  -26.5602  -34.8923   22.4687 O   0  0  0  0  0  0
  -23.5370  -32.1464   23.7490 O   0  0  0  0  0  0
  -28.5942  -18.8751   21.3020 C   0  0  0  0  0  0
  -28.7723  -17.4897   21.4986 C   0  0  0  0  0  0
  -31.0047  -17.6453   20.5707 C   0  0  0  0  0  0
  -29.6039  -19.6741   20.7164 C   0  0  0  0  0  0
  -29.9639  -16.8431   21.1069 C   0  0  0  0  0  0
  -30.8304  -19.0420   20.3816 C   0  0  0  0  0  0
  -29.7073  -21.6671   19.0279 C   0  0  0  0  0  0
  -29.7628  -22.1907   21.4594 C   0  0  0  0  0  0
  -29.0451  -23.0316   18.7271 C   0  0  0  0  0  0
  -29.1146  -23.5830   21.2001 C   0  0  0  0  0  0
  -29.2845  -21.1588   20.4174 C   0  0  2  0  0  0
  -29.3331  -24.1607   19.7647 C   0  0  2  0  0  0
  -31.2933  -25.5273   20.2754 C   0  0  0  0  0  0
  -28.3376  -25.3282   19.4200 C   0  0  0  0  0  0
  -30.0201  -15.4193   21.2920 N   0  0  0  0  0  0
  -30.7003  -24.4916   19.5014 O   0  0  0  0  0  0
  -31.8510  -19.7628   19.8599 F   0  0  0  0  0  0
  -31.4732  -12.4281   19.1183 H   0  0  0  0  0  0
  -30.3401  -11.3044   19.8117 H   0  0  0  0  0  0
  -29.7355  -11.7957   17.4271 H   0  0  0  0  0  0
  -29.6689  -13.5049   17.7733 H   0  0  0  0  0  0
  -27.8206  -11.3230   18.7999 H   0  0  0  0  0  0
  -27.3737  -12.6704   17.7877 H   0  0  0  0  0  0
  -27.7144  -14.2597   19.5941 H   0  0  0  0  0  0
  -28.6852  -11.9359   21.3258 H   0  0  0  0  0  0
  -28.4548  -13.5565   21.8881 H   0  0  0  0  0  0
  -25.2750   -9.5698   22.4761 H   0  0  0  0  0  0
  -23.9996   -7.4648   22.7475 H   0  0  0  0  0  0
  -21.0832   -8.8785   19.8958 H   0  0  0  0  0  0
  -22.3689  -10.9681   19.6165 H   0  0  0  0  0  0
  -21.2013   -7.6141   23.9708 H   0  0  0  0  0  0
  -21.1481   -6.0519   25.9073 H   0  0  0  0  0  0
  -22.0596   -2.7604   23.2850 H   0  0  0  0  0  0
  -22.4098  -11.9918   22.4781 H   0  0  0  0  0  0
  -21.1126  -13.1306   22.2564 H   0  0  0  0  0  0
  -24.6714  -15.8466   20.5180 H   0  0  0  0  0  0
  -26.2900  -15.6231   20.0872 H   0  0  0  0  0  0
  -26.7137  -32.5502   23.1154 H   0  0  0  0  0  0
  -25.0069  -33.9777   25.0472 H   0  0  0  0  0  0
  -22.6963  -31.3160   21.4219 H   0  0  0  0  0  0
  -23.3747  -35.9642   23.3283 H   0  0  0  0  0  0
  -24.3589  -36.8941   22.2050 H   0  0  0  0  0  0
  -23.7245  -37.6510   23.6660 H   0  0  0  0  0  0
  -26.0767  -31.5820   20.6182 H   0  0  0  0  0  0
  -26.8258  -30.8537   22.0096 H   0  0  0  0  0  0
  -28.0930  -29.0284   21.1991 H   0  0  0  0  0  0
  -25.9529  -26.0469   18.8773 H   0  0  0  0  0  0
  -23.9634  -27.3605   18.9759 H   0  0  0  0  0  0
  -23.7336  -30.6275   19.4153 H   0  0  0  0  0  0
  -22.7365  -29.2748   19.8596 H   0  0  0  0  0  0
  -25.1273  -36.1956   25.0821 H   0  0  0  0  0  0
  -20.9953  -28.3237   24.1427 H   0  0  0  0  0  0
  -20.5677  -26.2278   23.3596 H   0  0  0  0  0  0
  -21.6639  -26.7455   22.1198 H   0  0  0  0  0  0
  -19.6904  -25.6297   21.1229 H   0  0  0  0  0  0
  -19.6669  -27.3200   20.6742 H   0  0  0  0  0  0
  -17.4188  -26.6666   21.4026 H   0  0  0  0  0  0
  -18.0324  -26.0065   22.9020 H   0  0  0  0  0  0
  -19.7936  -30.7264   24.2259 H   0  0  0  0  0  0
  -17.5018  -31.6265   24.5163 H   0  0  0  0  0  0
  -15.5351  -30.2991   23.7646 H   0  0  0  0  0  0
  -15.8662  -28.0829   22.7045 H   0  0  0  0  0  0
  -24.5918  -30.7062   25.7831 H   0  0  0  0  0  0
  -24.8965  -32.2871   26.4943 H   0  0  0  0  0  0
  -25.8106  -30.8868   27.0238 H   0  0  0  0  0  0
  -26.2879  -29.6767   24.1199 H   0  0  0  0  0  0
  -27.4035  -29.7247   25.4649 H   0  0  0  0  0  0
  -27.8749  -30.4286   23.9367 H   0  0  0  0  0  0
  -27.2661  -33.3599   26.2102 H   0  0  0  0  0  0
  -28.3861  -32.6884   25.0336 H   0  0  0  0  0  0
  -28.0729  -31.8429   26.5416 H   0  0  0  0  0  0
  -28.2569  -38.0127   24.7544 H   0  0  0  0  0  0
  -28.1107  -36.2664   24.6212 H   0  0  0  0  0  0
  -27.2316  -37.1375   25.8861 H   0  0  0  0  0  0
  -20.9310  -29.8792   21.6962 H   0  0  0  0  0  0
  -26.0163  -38.2859   24.1438 H   0  0  0  0  0  0
  -27.6493  -19.3182   21.5843 H   0  0  0  0  0  0
  -27.9615  -16.9193   21.9311 H   0  0  0  0  0  0
  -31.9490  -17.2055   20.2872 H   0  0  0  0  0  0
  -30.7913  -21.7591   18.9590 H   0  0  0  0  0  0
  -29.4060  -20.9504   18.2639 H   0  0  0  0  0  0
  -29.4882  -21.8548   22.4598 H   0  0  0  0  0  0
  -30.8505  -22.2681   21.4447 H   0  0  0  0  0  0
  -27.9686  -22.8657   18.6571 H   0  0  0  0  0  0
  -29.3484  -23.3620   17.7322 H   0  0  0  0  0  0
  -29.4328  -24.2944   21.9604 H   0  0  0  0  0  0
  -28.0417  -23.4730   21.3629 H   0  0  0  0  0  0
  -28.1939  -21.1999   20.4241 H   0  0  0  0  0  0
  -32.3360  -25.6351   19.9764 H   0  0  0  0  0  0
  -31.2892  -25.3054   21.3415 H   0  0  0  0  0  0
  -30.8176  -26.4922   20.1106 H   0  0  0  0  0  0
  -27.3786  -24.8555   19.6194 H   0  0  0  0  0  0
  -28.3761  -25.5375   18.3493 H   0  0  0  0  0  0
  -29.2205  -15.0303   21.7677 H   0  0  0  0  0  0
  1 25  1  0  0  0
  1 30  2  0  0  0
  1 85  1  0  0  0
  2  3  1  0  0  0
  2 25  1  0  0  0
  2 88  1  0  0  0
  2 89  1  0  0  0
  3  4  1  0  0  0
  3 90  1  0  0  0
  3 91  1  0  0  0
  4  5  1  0  0  0
  4 92  1  0  0  0
  4 93  1  0  0  0
  5  6  1  0  0  0
  5 26  1  0  0  0
  5 94  1  0  0  0
  6 25  1  0  0  0
  6 95  1  0  0  0
  6 96  1  0  0  0
  7  8  2  0  0  0
  7 26  1  0  0  0
  7 29  1  0  0  0
  8  9  1  0  0  0
  8 22  1  0  0  0
  9 10  1  0  0  0
  9 27  2  0  0  0
 10 11  2  0  0  0
 10 15  1  0  0  0
 11 12  1  0  0  0
 11 97  1  0  0  0
 12 13  2  0  0  0
 12 98  1  0  0  0
 13 14  1  0  0  0
 13 31  1  0  0  0
 14 15  2  0  0  0
 14 99  1  0  0  0
 15100  1  0  0  0
 16 17  2  0  0  0
 16 21  1  0  0  0
 16 31  1  0  0  0
 17 18  1  0  0  0
 17101  1  0  0  0
 18 19  2  0  0  0
 18102  1  0  0  0
 19 20  1  0  0  0
 19 24  1  0  0  0
 20 21  2  0  0  0
 20103  1  0  0  0
 21 23  1  0  0  0
 22 28  1  0  0  0
 22 32  2  0  0  0
 26 27  1  0  0  0
 28104  1  0  0  0
 28105  1  0  0  0
 29106  1  0  0  0
 29107  1  0  0  0
 33 34  1  0  0  0
 33 66  1  0  0  0
 33 70  2  0  0  0
 34 36  1  0  0  0
 34 59  1  0  0  0
 34108  1  0  0  0
 35 44  2  0  0  0
 35 45  1  0  0  0
 35 68  1  0  0  0
 36 56  1  0  0  0
 36109  1  0  0  0
 37 39  1  0  0  0
 37 47  1  0  0  0
 37 66  1  0  0  0
 37110  1  0  0  0
 38 43  2  0  0  0
 38 46  1  0  0  0
 38 47  1  0  0  0
 39 64  1  0  0  0
 39 67  2  0  0  0
 40 52  1  0  0  0
 40 53  2  0  0  0
 40 58  1  0  0  0
 41111  1  0  0  0
 41112  1  0  0  0
 41113  1  0  0  0
 41 48  1  0  0  0
 42 43  1  0  0  0
 42 66  1  0  0  0
 42114  1  0  0  0
 42115  1  0  0  0
 43 44  1  0  0  0
 44116  1  0  0  0
 45 46  2  0  0  0
 45117  1  0  0  0
 46118  1  0  0  0
 47119  1  0  0  0
 47120  1  0  0  0
 48 56  1  0  0  0
 48 65  1  0  0  0
 48121  1  0  0  0
 49 50  1  0  0  0
 49 53  1  0  0  0
 49 64  1  0  0  0
 49122  1  0  0  0
 50 51  1  0  0  0
 50123  1  0  0  0
 50124  1  0  0  0
 51 52  1  0  0  0
 51125  1  0  0  0
 51126  1  0  0  0
 52127  1  0  0  0
 52128  1  0  0  0
 53 54  1  0  0  0
 54 55  2  0  0  0
 54129  1  0  0  0
 55 57  1  0  0  0
 55130  1  0  0  0
 56 69  2  0  0  0
 57 58  2  0  0  0
 57131  1  0  0  0
 58132  1  0  0  0
 59 60  1  0  0  0
 59 61  1  0  0  0
 59 62  1  0  0  0
 60133  1  0  0  0
 60134  1  0  0  0
 60135  1  0  0  0
 61136  1  0  0  0
 61137  1  0  0  0
 61138  1  0  0  0
 62139  1  0  0  0
 62140  1  0  0  0
 62141  1  0  0  0
 63 65  1  0  0  0
 63142  1  0  0  0
 63143  1  0  0  0
 63144  1  0  0  0
 64145  1  0  0  0
 65146  1  0  0  0
 68 84  1  0  0  0
 71 72  2  0  0  0
 71 74  1  0  0  0
 71147  1  0  0  0
 72 75  1  0  0  0
 72148  1  0  0  0
 73 75  2  0  0  0
 73 76  1  0  0  0
 73149  1  0  0  0
 74 76  2  0  0  0
 74 81  1  0  0  0
 75 85  1  0  0  0
 76 87  1  0  0  0
 77 79  1  0  0  0
 77 81  1  0  0  0
 77150  1  0  0  0
 77151  1  0  0  0
 78 80  1  0  0  0
 78 81  1  0  0  0
 78152  1  0  0  0
 78153  1  0  0  0
 79 82  1  0  0  0
 79154  1  0  0  0
 79155  1  0  0  0
 80 82  1  0  0  0
 80156  1  0  0  0
 80157  1  0  0  0
 81158  1  0  0  0
 82 84  1  0  0  0
 82 86  1  0  0  0
 83 86  1  0  0  0
 83159  1  0  0  0
 83160  1  0  0  0
 83161  1  0  0  0
 84162  1  0  0  0
 84163  1  0  0  0
 85164  1  0  0  0
M  ISO  4   1 100  68 101  84 101  85 100
M  END
> <chiral flag>
0

> <version>
0

> <s_m_source_file>
/data/baiqing/PycharmProjects/Reinvent-master-3.2/result/LINK_invent/BTK/process_docking_weight1_custom_product_contain_oxygen_bond_distance_aromatic_linkinvent_7_9_3/rearranged_h_0164.sdf

> <i_m_source_file_index>
22

> <r_mmod_Potential_Energy-OPLS-2005>
52.601634979248

> <r_mmod_Stretch_Energy-OPLS-2005>
49.4307098388672

> <r_mmod_Bend_Energy-OPLS-2005>
141.908050537109

> <r_mmod_Torsional_Energy-OPLS-2005>
234.243011474609

> <r_mmod_Improper_Torsional_Energy-OPLS-2005>
3.71322011947632

> <r_mmod_Van_der_Waal_Energy-OPLS-2005>
166.439392089844

> <r_mmod_Electrostatic_Energy-OPLS-2005>
-355.059204101562

> <r_mmod_Solvation_Energy-OPLS-2005>
-205.71240234375

> <b_mmod_Minimization_Converged-OPLS-2005>
0

> <r_mmod_RMS_Derivative-OPLS-2005>
1.1044088602066

$$$$
22
                    3D
 Structure written by MMmdl.
156164  0  0  1  0            999 V2000
  -30.7165  -14.4185   20.6591 C   0  0  0  0  0  0
  -30.4354  -12.3050   19.4072 C   0  0  0  0  0  0
  -29.4983  -12.5322   18.2034 C   0  0  0  0  0  0
  -28.0197  -12.3858   18.6134 C   0  0  0  0  0  0
  -27.6730  -13.2005   19.8862 C   0  0  2  0  0  0
  -28.7103  -12.9309   20.9994 C   0  0  0  0  0  0
  -25.2633  -13.8149   20.5681 C   0  0  0  0  0  0
  -24.1863  -13.0443   20.9167 C   0  0  0  0  0  0
  -24.6402  -11.6907   20.8723 C   0  0  0  0  0  0
  -23.9054  -10.4300   21.0394 C   0  0  0  0  0  0
  -24.3608   -9.4216   21.9177 C   0  0  0  0  0  0
  -23.6281   -8.2254   22.0759 C   0  0  0  0  0  0
  -22.4268   -8.0287   21.3550 C   0  0  0  0  0  0
  -21.9895   -9.0259   20.4658 C   0  0  0  0  0  0
  -22.7221  -10.2136   20.3053 C   0  0  0  0  0  0
  -21.6853   -6.0733   22.5282 C   0  0  0  0  0  0
  -21.4017   -6.5635   23.8214 C   0  0  0  0  0  0
  -21.3662   -5.6788   24.9177 C   0  0  0  0  0  0
  -21.6040   -4.3049   24.7227 C   0  0  0  0  0  0
  -21.8816   -3.8140   23.4348 C   0  0  0  0  0  0
  -21.9191   -4.6959   22.3402 C   0  0  0  0  0  0
  -22.7877  -13.5255   21.1815 C   0  0  0  0  0  0
  -22.1659   -4.2144   21.0976 F   0  0  0  0  0  0
  -21.5631   -3.4529   25.7738 F   0  0  0  0  0  0
  -30.0565  -13.2441   20.4740 N   0  0  0  0  0  0
  -26.3081  -12.9310   20.3394 N   0  0  0  0  0  0
  -25.9331  -11.6477   20.5760 N   0  0  0  0  0  0
  -22.0498  -12.8281   22.0384 N   0  0  0  0  0  0
  -25.4357  -15.1868   20.4117 N   0  0  0  0  0  0
  -31.7394  -14.7332   20.0447 O   0  0  0  0  0  0
  -21.6636   -6.8878   21.4248 O   0  0  0  0  0  0
  -22.3567  -14.5553   20.6646 O   0  0  0  0  0  0
  -24.6140  -31.8680   23.2088 C   0  0  0  0  0  0
  -25.9042  -32.4823   23.8377 C   0  0  1  0  0  0
  -27.2328  -27.4391   20.1042 C   0  0  0  0  0  0
  -25.5887  -33.8616   24.2304 N   0  0  0  0  0  0
  -23.4019  -30.4906   21.5498 C   0  0  2  0  0  0
  -24.8510  -28.9576   20.1141 C   0  0  0  0  0  0
  -22.7405  -29.4656   22.4990 C   0  0  0  0  0  0
  -18.0269  -28.1380   22.8502 C   0  0  0  0  0  0
  -24.1495  -36.7321   23.2634 C   0  0  0  0  0  0
  -25.9304  -30.8356   21.3628 C   0  0  0  0  0  0
  -26.0103  -29.4710   20.7105 C   0  0  0  0  0  0
  -27.2076  -28.7195   20.7013 C   0  0  0  0  0  0
  -26.0622  -26.9406   19.4957 C   0  0  0  0  0  0
  -24.8722  -27.6918   19.5008 C   0  0  0  0  0  0
  -23.6108  -29.8211   20.1652 C   0  0  0  0  0  0
  -25.4116  -36.3109   24.0327 C   0  0  1  0  0  0
  -20.5856  -28.3655   23.1325 C   0  0  2  0  0  0
  -20.6751  -26.9390   22.5421 C   0  0  0  0  0  0
  -19.5729  -26.6385   21.5214 C   0  0  0  0  0  0
  -18.1913  -26.7923   22.1632 C   0  0  0  0  0  0
  -19.1519  -28.8833   23.2917 C   0  0  0  0  0  0
  -18.9449  -30.1440   23.8926 C   0  0  0  0  0  0
  -17.6453  -30.6586   24.0569 C   0  0  0  0  0  0
  -25.9040  -34.9472   23.5117 C   0  0  0  0  0  0
  -16.5346  -29.9089   23.6329 C   0  0  0  0  0  0
  -16.7261  -28.6506   23.0355 C   0  0  0  0  0  0
  -26.4478  -31.6600   25.0705 C   0  0  0  0  0  0
  -25.3745  -31.3740   26.1462 C   0  0  0  0  0  0
  -27.0287  -30.3031   24.6087 C   0  0  0  0  0  0
  -27.6083  -32.4295   25.7445 C   0  0  0  0  0  0
  -27.5592  -37.1799   24.8448 C   0  0  0  0  0  0
  -21.4132  -29.3020   22.3731 N   0  0  0  0  0  0
  -26.4307  -37.3786   23.9395 N   0  0  0  0  0  0
  -24.6670  -31.0789   22.0988 N   0  0  0  0  0  0
  -23.4186  -28.8210   23.3031 O   0  0  0  0  0  0
  -28.3719  -26.6646   20.1159 O   0  0  0  0  0  0
  -26.5607  -34.8916   22.4686 O   0  0  0  0  0  0
  -23.5330  -32.1430   23.7479 O   0  0  0  0  0  0
  -28.7422  -17.0448   22.2423 C   0  0  0  0  0  0
  -30.4691  -17.5125   20.6168 C   0  0  0  0  0  0
  -29.8324  -16.5829   21.4786 C   0  0  0  0  0  0
  -28.2982  -18.3676   22.0812 C   0  0  0  0  0  0
  -28.9722  -19.2034   21.1723 C   0  0  0  0  0  0
  -28.6264  -22.9294   21.0746 C   0  0  0  0  0  0
  -29.0006  -25.9329   22.3067 C   0  0  0  0  0  0
  -28.9111  -24.2561   20.3378 C   0  0  0  0  0  0
  -29.2408  -21.6253   20.5324 C   0  0  0  0  0  0
  -28.2991  -25.5264   20.9976 C   0  0  2  0  0  0
  -30.0504  -18.7977   20.4643 N   0  0  0  0  0  0
  -30.1839  -15.2053   21.6068 N   0  0  0  0  0  0
  -28.4406  -20.4786   20.9608 N   0  0  0  0  0  0
  -27.8913  -22.8853   22.0687 O   0  0  0  0  0  0
  -27.2209  -18.8238   22.7671 F   0  0  0  0  0  0
  -31.4773  -12.4222   19.1056 H   0  0  0  0  0  0
  -30.3480  -11.2811   19.7736 H   0  0  0  0  0  0
  -29.7348  -11.8304   17.4027 H   0  0  0  0  0  0
  -29.6660  -13.5284   17.7925 H   0  0  0  0  0  0
  -27.8255  -11.3271   18.7874 H   0  0  0  0  0  0
  -27.3694  -12.6815   17.7885 H   0  0  0  0  0  0
  -27.7331  -14.2575   19.6238 H   0  0  0  0  0  0
  -28.6777  -11.8810   21.2965 H   0  0  0  0  0  0
  -28.4471  -13.4837   21.9011 H   0  0  0  0  0  0
  -25.2762   -9.5689   22.4739 H   0  0  0  0  0  0
  -23.9995   -7.4645   22.7478 H   0  0  0  0  0  0
  -21.0822   -8.8778   19.8961 H   0  0  0  0  0  0
  -22.3686  -10.9674   19.6156 H   0  0  0  0  0  0
  -21.2014   -7.6143   23.9721 H   0  0  0  0  0  0
  -21.1487   -6.0515   25.9081 H   0  0  0  0  0  0
  -22.0591   -2.7603   23.2845 H   0  0  0  0  0  0
  -22.4102  -11.9962   22.4817 H   0  0  0  0  0  0
  -21.1121  -13.1333   22.2566 H   0  0  0  0  0  0
  -24.6682  -15.8411   20.5204 H   0  0  0  0  0  0
  -26.2878  -15.6267   20.0887 H   0  0  0  0  0  0
  -26.7111  -32.5539   23.1144 H   0  0  0  0  0  0
  -24.9986  -33.9769   25.0413 H   0  0  0  0  0  0
  -22.6906  -31.3069   21.4105 H   0  0  0  0  0  0
  -23.3740  -35.9670   23.3292 H   0  0  0  0  0  0
  -24.3585  -36.8943   22.2049 H   0  0  0  0  0  0
  -23.7260  -37.6530   23.6658 H   0  0  0  0  0  0
  -26.0421  -31.5996   20.5926 H   0  0  0  0  0  0
  -26.8201  -30.8892   21.9784 H   0  0  0  0  0  0
  -28.1025  -29.1064   21.1675 H   0  0  0  0  0  0
  -26.0716  -25.9670   19.0243 H   0  0  0  0  0  0
  -23.9823  -27.2919   19.0341 H   0  0  0  0  0  0
  -23.7137  -30.5936   19.4033 H   0  0  0  0  0  0
  -22.7366  -29.2361   19.8747 H   0  0  0  0  0  0
  -25.1295  -36.1966   25.0818 H   0  0  0  0  0  0
  -20.9967  -28.3209   24.1436 H   0  0  0  0  0  0
  -20.5640  -26.2254   23.3602 H   0  0  0  0  0  0
  -21.6628  -26.7420   22.1224 H   0  0  0  0  0  0
  -19.6889  -25.6301   21.1226 H   0  0  0  0  0  0
  -19.6673  -27.3210   20.6758 H   0  0  0  0  0  0
  -17.4181  -26.6667   21.4037 H   0  0  0  0  0  0
  -18.0328  -26.0063   22.9028 H   0  0  0  0  0  0
  -19.7930  -30.7245   24.2309 H   0  0  0  0  0  0
  -17.5014  -31.6268   24.5162 H   0  0  0  0  0  0
  -15.5350  -30.3006   23.7631 H   0  0  0  0  0  0
  -15.8658  -28.0831   22.7064 H   0  0  0  0  0  0
  -24.5838  -30.7180   25.7789 H   0  0  0  0  0  0
  -24.9036  -32.2934   26.4973 H   0  0  0  0  0  0
  -25.8065  -30.8815   27.0182 H   0  0  0  0  0  0
  -26.2838  -29.6827   24.1088 H   0  0  0  0  0  0
  -27.4001  -29.7235   25.4556 H   0  0  0  0  0  0
  -27.8705  -30.4348   23.9282 H   0  0  0  0  0  0
  -27.2756  -33.3630   26.1994 H   0  0  0  0  0  0
  -28.3908  -32.6800   25.0264 H   0  0  0  0  0  0
  -28.0717  -31.8422   26.5382 H   0  0  0  0  0  0
  -28.2610  -38.0094   24.7510 H   0  0  0  0  0  0
  -28.1088  -36.2634   24.6262 H   0  0  0  0  0  0
  -27.2304  -37.1437   25.8844 H   0  0  0  0  0  0
  -20.9283  -29.8748   21.6968 H   0  0  0  0  0  0
  -26.0192  -38.2867   24.1367 H   0  0  0  0  0  0
  -28.2204  -16.3864   22.9216 H   0  0  0  0  0  0
  -31.3206  -17.2337   20.0142 H   0  0  0  0  0  0
  -28.5598  -26.8389   22.7228 H   0  0  0  0  0  0
  -30.0600  -26.1267   22.1407 H   0  0  0  0  0  0
  -28.9178  -25.1594   23.0702 H   0  0  0  0  0  0
  -28.5016  -24.1463   19.3350 H   0  0  0  0  0  0
  -29.9883  -24.3689   20.2175 H   0  0  0  0  0  0
  -30.2646  -21.5307   20.8949 H   0  0  0  0  0  0
  -29.2766  -21.6639   19.4430 H   0  0  0  0  0  0
  -27.2566  -25.3046   21.2390 H   0  0  0  0  0  0
  -29.5816  -14.6842   22.2271 H   0  0  0  0  0  0
  -27.6948  -20.7287   21.6055 H   0  0  0  0  0  0
  1 25  1  0  0  0
  1 30  2  0  0  0
  1 82  1  0  0  0
  2  3  1  0  0  0
  2 25  1  0  0  0
  2 86  1  0  0  0
  2 87  1  0  0  0
  3  4  1  0  0  0
  3 88  1  0  0  0
  3 89  1  0  0  0
  4  5  1  0  0  0
  4 90  1  0  0  0
  4 91  1  0  0  0
  5  6  1  0  0  0
  5 26  1  0  0  0
  5 92  1  0  0  0
  6 25  1  0  0  0
  6 93  1  0  0  0
  6 94  1  0  0  0
  7  8  2  0  0  0
  7 26  1  0  0  0
  7 29  1  0  0  0
  8  9  1  0  0  0
  8 22  1  0  0  0
  9 10  1  0  0  0
  9 27  2  0  0  0
 10 11  2  0  0  0
 10 15  1  0  0  0
 11 12  1  0  0  0
 11 95  1  0  0  0
 12 13  2  0  0  0
 12 96  1  0  0  0
 13 14  1  0  0  0
 13 31  1  0  0  0
 14 15  2  0  0  0
 14 97  1  0  0  0
 15 98  1  0  0  0
 16 17  2  0  0  0
 16 21  1  0  0  0
 16 31  1  0  0  0
 17 18  1  0  0  0
 17 99  1  0  0  0
 18 19  2  0  0  0
 18100  1  0  0  0
 19 20  1  0  0  0
 19 24  1  0  0  0
 20 21  2  0  0  0
 20101  1  0  0  0
 21 23  1  0  0  0
 22 28  1  0  0  0
 22 32  2  0  0  0
 26 27  1  0  0  0
 28102  1  0  0  0
 28103  1  0  0  0
 29104  1  0  0  0
 29105  1  0  0  0
 33 34  1  0  0  0
 33 66  1  0  0  0
 33 70  2  0  0  0
 34 36  1  0  0  0
 34 59  1  0  0  0
 34106  1  0  0  0
 35 44  2  0  0  0
 35 45  1  0  0  0
 35 68  1  0  0  0
 36 56  1  0  0  0
 36107  1  0  0  0
 37 39  1  0  0  0
 37 47  1  0  0  0
 37 66  1  0  0  0
 37108  1  0  0  0
 38 43  2  0  0  0
 38 46  1  0  0  0
 38 47  1  0  0  0
 39 64  1  0  0  0
 39 67  2  0  0  0
 40 52  1  0  0  0
 40 53  2  0  0  0
 40 58  1  0  0  0
 41109  1  0  0  0
 41110  1  0  0  0
 41111  1  0  0  0
 41 48  1  0  0  0
 42 43  1  0  0  0
 42 66  1  0  0  0
 42112  1  0  0  0
 42113  1  0  0  0
 43 44  1  0  0  0
 44114  1  0  0  0
 45 46  2  0  0  0
 45115  1  0  0  0
 46116  1  0  0  0
 47117  1  0  0  0
 47118  1  0  0  0
 48 56  1  0  0  0
 48 65  1  0  0  0
 48119  1  0  0  0
 49 50  1  0  0  0
 49 53  1  0  0  0
 49 64  1  0  0  0
 49120  1  0  0  0
 50 51  1  0  0  0
 50121  1  0  0  0
 50122  1  0  0  0
 51 52  1  0  0  0
 51123  1  0  0  0
 51124  1  0  0  0
 52125  1  0  0  0
 52126  1  0  0  0
 53 54  1  0  0  0
 54 55  2  0  0  0
 54127  1  0  0  0
 55 57  1  0  0  0
 55128  1  0  0  0
 56 69  2  0  0  0
 57 58  2  0  0  0
 57129  1  0  0  0
 58130  1  0  0  0
 59 60  1  0  0  0
 59 61  1  0  0  0
 59 62  1  0  0  0
 60131  1  0  0  0
 60132  1  0  0  0
 60133  1  0  0  0
 61134  1  0  0  0
 61135  1  0  0  0
 61136  1  0  0  0
 62137  1  0  0  0
 62138  1  0  0  0
 62139  1  0  0  0
 63 65  1  0  0  0
 63140  1  0  0  0
 63141  1  0  0  0
 63142  1  0  0  0
 64143  1  0  0  0
 65144  1  0  0  0
 68 80  1  0  0  0
 71 73  2  0  0  0
 71 74  1  0  0  0
 71145  1  0  0  0
 72 73  1  0  0  0
 72 81  2  0  0  0
 72146  1  0  0  0
 73 82  1  0  0  0
 74 75  2  0  0  0
 74 85  1  0  0  0
 75 81  1  0  0  0
 75 83  1  0  0  0
 76 78  1  0  0  0
 76 79  1  0  0  0
 76 84  2  0  0  0
 77147  1  0  0  0
 77148  1  0  0  0
 77149  1  0  0  0
 77 80  1  0  0  0
 78 80  1  0  0  0
 78150  1  0  0  0
 78151  1  0  0  0
 79 83  1  0  0  0
 79152  1  0  0  0
 79153  1  0  0  0
 80154  1  0  0  0
 82155  1  0  0  0
 83156  1  0  0  0
M  ISO  4   1 100  68 101  80 101  82 100
M  END
> <chiral flag>
0

> <version>
0

> <s_m_source_file>
/data/baiqing/PycharmProjects/Reinvent-master-3.2/result/LINK_invent/BTK/process_docking_weight1_custom_product_contain_oxygen_bond_distance_aromatic_linkinvent_7_9_3/rearranged_h_0164.sdf

> <i_m_source_file_index>
23

> <r_mmod_Potential_Energy-OPLS-2005>
-288.263977050781

> <r_mmod_Stretch_Energy-OPLS-2005>
36.8408432006836

> <r_mmod_Bend_Energy-OPLS-2005>
104.86946105957

> <r_mmod_Torsional_Energy-OPLS-2005>
231.86393737793

> <r_mmod_Improper_Torsional_Energy-OPLS-2005>
7.6743335723877

> <r_mmod_Van_der_Waal_Energy-OPLS-2005>
154.509368896484

> <r_mmod_Electrostatic_Energy-OPLS-2005>
-604.561706542969

> <r_mmod_Solvation_Energy-OPLS-2005>
-229.754959106445

> <b_mmod_Minimization_Converged-OPLS-2005>
0

> <r_mmod_RMS_Derivative-OPLS-2005>
1.87271809577942

$$$$
23
                    3D
 Structure written by MMmdl.
174182  0  0  1  0            999 V2000
  -30.8031  -14.3719   20.7140 C   0  0  0  0  0  0
  -30.4247  -12.3077   19.4137 C   0  0  0  0  0  0
  -29.4981  -12.5403   18.2081 C   0  0  0  0  0  0
  -28.0265  -12.3691   18.6242 C   0  0  0  0  0  0
  -27.6727  -13.2070   19.8826 C   0  0  2  0  0  0
  -28.7092  -12.9898   21.0099 C   0  0  0  0  0  0
  -25.2660  -13.8154   20.5683 C   0  0  0  0  0  0
  -24.1894  -13.0426   20.9168 C   0  0  0  0  0  0
  -24.6451  -11.6910   20.8747 C   0  0  0  0  0  0
  -23.9084  -10.4284   21.0367 C   0  0  0  0  0  0
  -24.3639   -9.4190   21.9137 C   0  0  0  0  0  0
  -23.6307   -8.2242   22.0736 C   0  0  0  0  0  0
  -22.4283   -8.0289   21.3533 C   0  0  0  0  0  0
  -21.9921   -9.0255   20.4628 C   0  0  0  0  0  0
  -22.7259  -10.2114   20.3009 C   0  0  0  0  0  0
  -21.6869   -6.0732   22.5279 C   0  0  0  0  0  0
  -21.4019   -6.5633   23.8211 C   0  0  0  0  0  0
  -21.3662   -5.6772   24.9180 C   0  0  0  0  0  0
  -21.6044   -4.3037   24.7215 C   0  0  0  0  0  0
  -21.8825   -3.8143   23.4341 C   0  0  0  0  0  0
  -21.9194   -4.6961   22.3403 C   0  0  0  0  0  0
  -22.7916  -13.5232   21.1807 C   0  0  0  0  0  0
  -22.1659   -4.2162   21.0965 F   0  0  0  0  0  0
  -21.5631   -3.4507   25.7725 F   0  0  0  0  0  0
  -30.0603  -13.2579   20.4794 N   0  0  0  0  0  0
  -26.3111  -12.9340   20.3382 N   0  0  0  0  0  0
  -25.9383  -11.6476   20.5779 N   0  0  0  0  0  0
  -22.0536  -12.8251   22.0362 N   0  0  0  0  0  0
  -25.4368  -15.1875   20.4106 N   0  0  0  0  0  0
  -31.7738  -14.6845   20.0184 O   0  0  0  0  0  0
  -21.6646   -6.8887   21.4244 O   0  0  0  0  0  0
  -22.3589  -14.5519   20.6647 O   0  0  0  0  0  0
  -24.6163  -31.8663   23.2117 C   0  0  0  0  0  0
  -25.9037  -32.4796   23.8446 C   0  0  1  0  0  0
  -27.2290  -27.4338   20.1026 C   0  0  0  0  0  0
  -25.5853  -33.8595   24.2373 N   0  0  0  0  0  0
  -23.4036  -30.4875   21.5565 C   0  0  2  0  0  0
  -24.8462  -28.9521   20.1217 C   0  0  0  0  0  0
  -22.7408  -29.4623   22.5047 C   0  0  0  0  0  0
  -18.0250  -28.1368   22.8498 C   0  0  0  0  0  0
  -24.1452  -36.7319   23.2647 C   0  0  0  0  0  0
  -25.9340  -30.8325   21.3627 C   0  0  0  0  0  0
  -26.0092  -29.4689   20.7087 C   0  0  0  0  0  0
  -27.2062  -28.7192   20.6893 C   0  0  0  0  0  0
  -26.0479  -26.9276   19.5156 C   0  0  0  0  0  0
  -24.8608  -27.6807   19.5209 C   0  0  0  0  0  0
  -23.6072  -29.8153   20.1725 C   0  0  0  0  0  0
  -25.4068  -36.3091   24.0350 C   0  0  1  0  0  0
  -20.5850  -28.3617   23.1348 C   0  0  2  0  0  0
  -20.6742  -26.9355   22.5452 C   0  0  0  0  0  0
  -19.5721  -26.6368   21.5246 C   0  0  0  0  0  0
  -18.1889  -26.7916   22.1648 C   0  0  0  0  0  0
  -19.1506  -28.8814   23.2919 C   0  0  0  0  0  0
  -18.9441  -30.1431   23.8915 C   0  0  0  0  0  0
  -17.6441  -30.6577   24.0559 C   0  0  0  0  0  0
  -25.8987  -34.9449   23.5158 C   0  0  0  0  0  0
  -16.5329  -29.9091   23.6318 C   0  0  0  0  0  0
  -16.7243  -28.6498   23.0350 C   0  0  0  0  0  0
  -26.4389  -31.6565   25.0804 C   0  0  0  0  0  0
  -25.3639  -31.3671   26.1542 C   0  0  0  0  0  0
  -27.0229  -30.3006   24.6192 C   0  0  0  0  0  0
  -27.5944  -32.4252   25.7618 C   0  0  0  0  0  0
  -27.5571  -37.1784   24.8444 C   0  0  0  0  0  0
  -21.4142  -29.3002   22.3779 N   0  0  0  0  0  0
  -26.4272  -37.3756   23.9402 N   0  0  0  0  0  0
  -24.6708  -31.0743   22.1033 N   0  0  0  0  0  0
  -23.4167  -28.8155   23.3082 O   0  0  0  0  0  0
  -28.3907  -26.6903   20.1105 O   0  0  0  0  0  0
  -26.5585  -34.8889   22.4735 O   0  0  0  0  0  0
  -23.5364  -32.1414   23.7505 O   0  0  0  0  0  0
  -29.2999  -17.7455   21.9392 C   0  0  0  0  0  0
  -28.6876  -19.0173   21.9281 C   0  0  0  0  0  0
  -30.7570  -20.0079   22.7103 C   0  0  0  0  0  0
  -30.6510  -17.5816   22.3348 C   0  0  0  0  0  0
  -31.3922  -18.7441   22.7114 C   0  0  0  0  0  0
  -29.4084  -20.1573   22.3370 C   0  0  0  0  0  0
  -29.7921  -23.1069   20.8540 C   0  0  0  0  0  0
  -29.5655  -24.5492   20.2827 C   0  0  0  0  0  0
  -28.1153  -25.4819   22.1894 C   0  0  0  0  0  0
  -33.8943  -20.4219   24.6909 C   0  0  0  0  0  0
  -32.0295  -18.9835   25.5430 C   0  0  0  0  0  0
  -34.2638  -17.9847   25.0785 C   0  0  0  0  0  0
  -32.8784  -18.7244   23.0959 C   0  0  0  0  0  0
  -31.2816  -16.1768   22.3842 C   0  0  0  0  0  0
  -28.5977  -22.1904   21.2198 C   0  0  0  0  0  0
  -28.2920  -25.3540   20.6564 C   0  0  2  0  0  0
  -33.2411  -19.0283   24.5882 C   0  0  0  0  0  0
  -28.7954  -21.4136   22.4561 N   0  0  0  0  0  0
  -30.4954  -15.0639   21.8250 N   0  0  0  0  0  0
  -30.9497  -22.7000   21.0285 O   0  0  0  0  0  0
  -30.4175  -25.0356   19.5202 O   0  0  0  0  0  0
  -31.4692  -12.4004   19.1090 H   0  0  0  0  0  0
  -30.3202  -11.2856   19.7854 H   0  0  0  0  0  0
  -29.7507  -11.8453   17.4061 H   0  0  0  0  0  0
  -29.6599  -13.5440   17.8110 H   0  0  0  0  0  0
  -27.8665  -11.3080   18.8260 H   0  0  0  0  0  0
  -27.3675  -12.6260   17.7962 H   0  0  0  0  0  0
  -27.7216  -14.2555   19.5898 H   0  0  0  0  0  0
  -28.6661  -11.9631   21.3783 H   0  0  0  0  0  0
  -28.4511  -13.6179   21.8627 H   0  0  0  0  0  0
  -25.2782   -9.5686   22.4701 H   0  0  0  0  0  0
  -24.0019   -7.4632   22.7460 H   0  0  0  0  0  0
  -21.0847   -8.8764   19.8944 H   0  0  0  0  0  0
  -22.3700  -10.9652   19.6118 H   0  0  0  0  0  0
  -21.2003   -7.6138   23.9737 H   0  0  0  0  0  0
  -21.1485   -6.0489   25.9079 H   0  0  0  0  0  0
  -22.0606   -2.7609   23.2828 H   0  0  0  0  0  0
  -22.4152  -11.9957   22.4829 H   0  0  0  0  0  0
  -21.1127  -13.1272   22.2487 H   0  0  0  0  0  0
  -24.6733  -15.8454   20.5274 H   0  0  0  0  0  0
  -26.3003  -15.6315   20.1235 H   0  0  0  0  0  0
  -26.7145  -32.5484   23.1251 H   0  0  0  0  0  0
  -24.9925  -33.9743   25.0456 H   0  0  0  0  0  0
  -22.6923  -31.3023   21.4182 H   0  0  0  0  0  0
  -23.3704  -35.9663   23.3306 H   0  0  0  0  0  0
  -24.3547  -36.8944   22.2060 H   0  0  0  0  0  0
  -23.7232  -37.6536   23.6669 H   0  0  0  0  0  0
  -26.0408  -31.6024   20.5960 H   0  0  0  0  0  0
  -26.8254  -30.8877   21.9776 H   0  0  0  0  0  0
  -28.1070  -29.1115   21.1373 H   0  0  0  0  0  0
  -26.0357  -25.9507   19.0538 H   0  0  0  0  0  0
  -23.9646  -27.2740   19.0729 H   0  0  0  0  0  0
  -23.7028  -30.5823   19.4025 H   0  0  0  0  0  0
  -22.7356  -29.2213   19.8897 H   0  0  0  0  0  0
  -25.1265  -36.1974   25.0863 H   0  0  0  0  0  0
  -20.9915  -28.3164   24.1481 H   0  0  0  0  0  0
  -20.5618  -26.2228   23.3622 H   0  0  0  0  0  0
  -21.6602  -26.7386   22.1250 H   0  0  0  0  0  0
  -19.6855  -25.6282   21.1252 H   0  0  0  0  0  0
  -19.6668  -27.3197   20.6778 H   0  0  0  0  0  0
  -17.4171  -26.6667   21.4038 H   0  0  0  0  0  0
  -18.0262  -26.0068   22.9048 H   0  0  0  0  0  0
  -19.7918  -30.7247   24.2289 H   0  0  0  0  0  0
  -17.4995  -31.6256   24.5158 H   0  0  0  0  0  0
  -15.5327  -30.3004   23.7628 H   0  0  0  0  0  0
  -15.8630  -28.0826   22.7064 H   0  0  0  0  0  0
  -24.5655  -30.7296   25.7758 H   0  0  0  0  0  0
  -24.9028  -32.2869   26.5197 H   0  0  0  0  0  0
  -25.7867  -30.8540   27.0203 H   0  0  0  0  0  0
  -26.2711  -29.6664   24.1468 H   0  0  0  0  0  0
  -27.4208  -29.7321   25.4614 H   0  0  0  0  0  0
  -27.8452  -30.4301   23.9144 H   0  0  0  0  0  0
  -27.2531  -33.3478   26.2318 H   0  0  0  0  0  0
  -28.3768  -32.6899   25.0501 H   0  0  0  0  0  0
  -28.0591  -31.8278   26.5470 H   0  0  0  0  0  0
  -28.2585  -38.0086   24.7504 H   0  0  0  0  0  0
  -28.1074  -36.2622   24.6251 H   0  0  0  0  0  0
  -27.2296  -37.1420   25.8849 H   0  0  0  0  0  0
  -20.9284  -29.8736   21.7020 H   0  0  0  0  0  0
  -26.0164  -38.2837   24.1431 H   0  0  0  0  0  0
  -28.7019  -16.8900   21.6584 H   0  0  0  0  0  0
  -27.6458  -19.1011   21.6460 H   0  0  0  0  0  0
  -31.3239  -20.8742   23.0167 H   0  0  0  0  0  0
  -28.9927  -25.9421   22.6476 H   0  0  0  0  0  0
  -27.9563  -24.5167   22.6726 H   0  0  0  0  0  0
  -27.2520  -26.0938   22.4533 H   0  0  0  0  0  0
  -34.1348  -20.6787   25.7240 H   0  0  0  0  0  0
  -33.2424  -21.2069   24.3074 H   0  0  0  0  0  0
  -34.8242  -20.4759   24.1196 H   0  0  0  0  0  0
  -32.3488  -19.0536   26.5840 H   0  0  0  0  0  0
  -31.4680  -18.0551   25.4338 H   0  0  0  0  0  0
  -31.3419  -19.8123   25.3734 H   0  0  0  0  0  0
  -34.5773  -18.1723   26.1063 H   0  0  0  0  0  0
  -35.1648  -17.9951   24.4624 H   0  0  0  0  0  0
  -33.8508  -16.9758   25.0443 H   0  0  0  0  0  0
  -33.3798  -19.4466   22.4495 H   0  0  0  0  0  0
  -33.3293  -17.7829   22.7976 H   0  0  0  0  0  0
  -31.4847  -15.9369   23.4283 H   0  0  0  0  0  0
  -32.2538  -16.2047   21.8936 H   0  0  0  0  0  0
  -28.4322  -21.5061   20.3872 H   0  0  0  0  0  0
  -27.6836  -22.7771   21.3135 H   0  0  0  0  0  0
  -27.4408  -24.8278   20.2216 H   0  0  0  0  0  0
  -29.2599  -21.9909   23.1526 H   0  0  0  0  0  0
  -29.7589  -14.6851   22.4009 H   0  0  0  0  0  0
  1 25  1  0  0  0
  1 30  2  0  0  0
  1 89  1  0  0  0
  2  3  1  0  0  0
  2 25  1  0  0  0
  2 92  1  0  0  0
  2 93  1  0  0  0
  3  4  1  0  0  0
  3 94  1  0  0  0
  3 95  1  0  0  0
  4  5  1  0  0  0
  4 96  1  0  0  0
  4 97  1  0  0  0
  5  6  1  0  0  0
  5 26  1  0  0  0
  5 98  1  0  0  0
  6 25  1  0  0  0
  6 99  1  0  0  0
  6100  1  0  0  0
  7  8  2  0  0  0
  7 26  1  0  0  0
  7 29  1  0  0  0
  8  9  1  0  0  0
  8 22  1  0  0  0
  9 10  1  0  0  0
  9 27  2  0  0  0
 10 11  2  0  0  0
 10 15  1  0  0  0
 11 12  1  0  0  0
 11101  1  0  0  0
 12 13  2  0  0  0
 12102  1  0  0  0
 13 14  1  0  0  0
 13 31  1  0  0  0
 14 15  2  0  0  0
 14103  1  0  0  0
 15104  1  0  0  0
 16 17  2  0  0  0
 16 21  1  0  0  0
 16 31  1  0  0  0
 17 18  1  0  0  0
 17105  1  0  0  0
 18 19  2  0  0  0
 18106  1  0  0  0
 19 20  1  0  0  0
 19 24  1  0  0  0
 20 21  2  0  0  0
 20107  1  0  0  0
 21 23  1  0  0  0
 22 28  1  0  0  0
 22 32  2  0  0  0
 26 27  1  0  0  0
 28108  1  0  0  0
 28109  1  0  0  0
 29110  1  0  0  0
 29111  1  0  0  0
 33 34  1  0  0  0
 33 66  1  0  0  0
 33 70  2  0  0  0
 34 36  1  0  0  0
 34 59  1  0  0  0
 34112  1  0  0  0
 35 44  2  0  0  0
 35 45  1  0  0  0
 35 68  1  0  0  0
 36 56  1  0  0  0
 36113  1  0  0  0
 37 39  1  0  0  0
 37 47  1  0  0  0
 37 66  1  0  0  0
 37114  1  0  0  0
 38 43  2  0  0  0
 38 46  1  0  0  0
 38 47  1  0  0  0
 39 64  1  0  0  0
 39 67  2  0  0  0
 40 52  1  0  0  0
 40 53  2  0  0  0
 40 58  1  0  0  0
 41115  1  0  0  0
 41116  1  0  0  0
 41117  1  0  0  0
 41 48  1  0  0  0
 42 43  1  0  0  0
 42 66  1  0  0  0
 42118  1  0  0  0
 42119  1  0  0  0
 43 44  1  0  0  0
 44120  1  0  0  0
 45 46  2  0  0  0
 45121  1  0  0  0
 46122  1  0  0  0
 47123  1  0  0  0
 47124  1  0  0  0
 48 56  1  0  0  0
 48 65  1  0  0  0
 48125  1  0  0  0
 49 50  1  0  0  0
 49 53  1  0  0  0
 49 64  1  0  0  0
 49126  1  0  0  0
 50 51  1  0  0  0
 50127  1  0  0  0
 50128  1  0  0  0
 51 52  1  0  0  0
 51129  1  0  0  0
 51130  1  0  0  0
 52131  1  0  0  0
 52132  1  0  0  0
 53 54  1  0  0  0
 54 55  2  0  0  0
 54133  1  0  0  0
 55 57  1  0  0  0
 55134  1  0  0  0
 56 69  2  0  0  0
 57 58  2  0  0  0
 57135  1  0  0  0
 58136  1  0  0  0
 59 60  1  0  0  0
 59 61  1  0  0  0
 59 62  1  0  0  0
 60137  1  0  0  0
 60138  1  0  0  0
 60139  1  0  0  0
 61140  1  0  0  0
 61141  1  0  0  0
 61142  1  0  0  0
 62143  1  0  0  0
 62144  1  0  0  0
 62145  1  0  0  0
 63 65  1  0  0  0
 63146  1  0  0  0
 63147  1  0  0  0
 63148  1  0  0  0
 64149  1  0  0  0
 65150  1  0  0  0
 68 86  1  0  0  0
 71 72  2  0  0  0
 71 74  1  0  0  0
 71151  1  0  0  0
 72 76  1  0  0  0
 72152  1  0  0  0
 73 75  1  0  0  0
 73 76  2  0  0  0
 73153  1  0  0  0
 74 75  2  0  0  0
 74 84  1  0  0  0
 75 83  1  0  0  0
 76 88  1  0  0  0
 77 78  1  0  0  0
 77 85  1  0  0  0
 77 90  2  0  0  0
 78 86  1  0  0  0
 78 91  2  0  0  0
 79154  1  0  0  0
 79155  1  0  0  0
 79156  1  0  0  0
 79 86  1  0  0  0
 80157  1  0  0  0
 80158  1  0  0  0
 80159  1  0  0  0
 80 87  1  0  0  0
 81 87  1  0  0  0
 81160  1  0  0  0
 81161  1  0  0  0
 81162  1  0  0  0
 82 87  1  0  0  0
 82163  1  0  0  0
 82164  1  0  0  0
 82165  1  0  0  0
 83 87  1  0  0  0
 83166  1  0  0  0
 83167  1  0  0  0
 84 89  1  0  0  0
 84168  1  0  0  0
 84169  1  0  0  0
 85 88  1  0  0  0
 85170  1  0  0  0
 85171  1  0  0  0
 86172  1  0  0  0
 88173  1  0  0  0
 89174  1  0  0  0
M  ISO  4   1 100  68 101  86 101  89 100
M  END
> <chiral flag>
0

> <version>
0

> <s_m_source_file>
/data/baiqing/PycharmProjects/Reinvent-master-3.2/result/LINK_invent/BTK/process_docking_weight1_custom_product_contain_oxygen_bond_distance_aromatic_linkinvent_7_9_3/rearranged_h_0164.sdf

> <i_m_source_file_index>
24

> <r_mmod_Potential_Energy-OPLS-2005>
34.0008201599121

> <r_mmod_Stretch_Energy-OPLS-2005>
47.0609588623047

> <r_mmod_Bend_Energy-OPLS-2005>
109.495414733887

> <r_mmod_Torsional_Energy-OPLS-2005>
234.677597045898

> <r_mmod_Improper_Torsional_Energy-OPLS-2005>
8.21200180053711

> <r_mmod_Van_der_Waal_Energy-OPLS-2005>
156.462692260742

> <r_mmod_Electrostatic_Energy-OPLS-2005>
-279.324920654297

> <r_mmod_Solvation_Energy-OPLS-2005>
-252.655258178711

> <b_mmod_Minimization_Converged-OPLS-2005>
0

> <r_mmod_RMS_Derivative-OPLS-2005>
4.53946828842163

$$$$
24
                    3D
 Structure written by MMmdl.
172180  0  0  1  0            999 V2000
  -30.6106  -14.5751   20.5139 C   0  0  0  0  0  0
  -30.4447  -12.3566   19.4172 C   0  0  0  0  0  0
  -29.4982  -12.4943   18.2027 C   0  0  0  0  0  0
  -28.0197  -12.3406   18.6206 C   0  0  0  0  0  0
  -27.6536  -13.1970   19.8613 C   0  0  2  0  0  0
  -28.7036  -13.0077   20.9807 C   0  0  0  0  0  0
  -25.2574  -13.8124   20.5669 C   0  0  0  0  0  0
  -24.1827  -13.0414   20.9193 C   0  0  0  0  0  0
  -24.6369  -11.6879   20.8746 C   0  0  0  0  0  0
  -23.9034  -10.4276   21.0407 C   0  0  0  0  0  0
  -24.3598   -9.4195   21.9182 C   0  0  0  0  0  0
  -23.6283   -8.2231   22.0752 C   0  0  0  0  0  0
  -22.4263   -8.0269   21.3545 C   0  0  0  0  0  0
  -21.9889   -9.0235   20.4646 C   0  0  0  0  0  0
  -22.7212  -10.2117   20.3054 C   0  0  0  0  0  0
  -21.6848   -6.0720   22.5275 C   0  0  0  0  0  0
  -21.4008   -6.5629   23.8204 C   0  0  0  0  0  0
  -21.3658   -5.6787   24.9170 C   0  0  0  0  0  0
  -21.6045   -4.3051   24.7226 C   0  0  0  0  0  0
  -21.8823   -3.8138   23.4350 C   0  0  0  0  0  0
  -21.9192   -4.6949   22.3403 C   0  0  0  0  0  0
  -22.7855  -13.5223   21.1870 C   0  0  0  0  0  0
  -22.1663   -4.2135   21.0980 F   0  0  0  0  0  0
  -21.5634   -3.4535   25.7740 F   0  0  0  0  0  0
  -30.0207  -13.3493   20.4161 N   0  0  0  0  0  0
  -26.2983  -12.9264   20.3311 N   0  0  0  0  0  0
  -25.9286  -11.6443   20.5755 N   0  0  0  0  0  0
  -22.0500  -12.8213   22.0424 N   0  0  0  0  0  0
  -25.4279  -15.1846   20.4068 N   0  0  0  0  0  0
  -31.7860  -14.7819   20.1952 O   0  0  0  0  0  0
  -21.6636   -6.8859   21.4237 O   0  0  0  0  0  0
  -22.3546  -14.5531   20.6716 O   0  0  0  0  0  0
  -24.6194  -31.8621   23.2042 C   0  0  0  0  0  0
  -25.9064  -32.4798   23.8354 C   0  0  1  0  0  0
  -27.2248  -27.3729   20.1033 C   0  0  0  0  0  0
  -25.5898  -33.8596   24.2281 N   0  0  0  0  0  0
  -23.4104  -30.4879   21.5447 C   0  0  2  0  0  0
  -24.8537  -28.9431   20.1126 C   0  0  0  0  0  0
  -22.7440  -29.4635   22.4930 C   0  0  0  0  0  0
  -18.0291  -28.1391   22.8507 C   0  0  0  0  0  0
  -24.1483  -36.7293   23.2649 C   0  0  0  0  0  0
  -25.9441  -30.8106   21.3635 C   0  0  0  0  0  0
  -26.0181  -29.4411   20.7088 C   0  0  0  0  0  0
  -27.2073  -28.6672   20.6919 C   0  0  0  0  0  0
  -26.0373  -26.9000   19.5032 C   0  0  0  0  0  0
  -24.8613  -27.6766   19.5036 C   0  0  0  0  0  0
  -23.6215  -29.8213   20.1595 C   0  0  0  0  0  0
  -25.4106  -36.3082   24.0335 C   0  0  1  0  0  0
  -20.5885  -28.3681   23.1294 C   0  0  2  0  0  0
  -20.6774  -26.9404   22.5404 C   0  0  0  0  0  0
  -19.5748  -26.6372   21.5217 C   0  0  0  0  0  0
  -18.1931  -26.7927   22.1635 C   0  0  0  0  0  0
  -19.1541  -28.8847   23.2905 C   0  0  0  0  0  0
  -18.9480  -30.1463   23.8908 C   0  0  0  0  0  0
  -17.6481  -30.6592   24.0580 C   0  0  0  0  0  0
  -25.9044  -34.9465   23.5101 C   0  0  0  0  0  0
  -16.5369  -29.9107   23.6336 C   0  0  0  0  0  0
  -16.7281  -28.6527   23.0350 C   0  0  0  0  0  0
  -26.4473  -31.6607   25.0714 C   0  0  0  0  0  0
  -25.3729  -31.3738   26.1461 C   0  0  0  0  0  0
  -27.0315  -30.3046   24.6107 C   0  0  0  0  0  0
  -27.6025  -32.4343   25.7481 C   0  0  0  0  0  0
  -27.5571  -37.1799   24.8474 C   0  0  0  0  0  0
  -21.4157  -29.3043   22.3682 N   0  0  0  0  0  0
  -26.4283  -37.3774   23.9427 N   0  0  0  0  0  0
  -24.6771  -31.0688   22.0964 N   0  0  0  0  0  0
  -23.4192  -28.8176   23.2985 O   0  0  0  0  0  0
  -28.3833  -26.6081   20.1245 O   0  0  0  0  0  0
  -26.5615  -34.8932   22.4675 O   0  0  0  0  0  0
  -23.5361  -32.1379   23.7404 O   0  0  0  0  0  0
  -29.7801  -17.1655   22.5228 C   0  0  0  0  0  0
  -29.4194  -19.5555   22.1587 C   0  0  0  0  0  0
  -29.6710  -18.0572   20.2589 C   0  0  0  0  0  0
  -29.5706  -18.4633   23.0479 C   0  0  0  0  0  0
  -29.8219  -16.9371   21.1335 C   0  0  0  0  0  0
  -29.4694  -19.3843   20.7581 C   0  0  0  0  0  0
  -29.4004  -18.6449   24.5143 C   0  0  0  0  0  0
  -29.9511  -22.9543   20.2848 C   0  0  0  0  0  0
  -29.6685  -24.4898   20.3287 C   0  0  0  0  0  0
  -31.6614  -21.1265   26.5630 C   0  0  0  0  0  0
  -32.2186  -18.8248   25.7655 C   0  0  0  0  0  0
  -30.4944  -19.1739   27.5742 C   0  0  0  0  0  0
  -29.9705  -19.9128   25.1660 C   0  0  0  0  0  0
  -28.8404  -21.8677   20.2439 C   0  0  0  0  0  0
  -28.2869  -25.1475   20.0440 C   0  0  0  0  0  0
  -31.0722  -19.7341   26.2569 C   0  0  0  0  0  0
  -28.7876  -17.7859   25.2153 N   0  0  0  0  0  0
  -31.1523  -22.5386   20.3166 N   0  0  0  0  0  0
  -29.7068  -15.5758   20.6791 N   0  0  0  0  0  0
  -29.2784  -20.4821   19.8717 N   0  0  0  0  0  0
  -30.6168  -25.2485   20.5779 O   0  0  0  0  0  0
  -31.4803  -12.5050   19.1071 H   0  0  0  0  0  0
  -30.3951  -11.3511   19.8375 H   0  0  0  0  0  0
  -29.7486  -11.7499   17.4452 H   0  0  0  0  0  0
  -29.6434  -13.4678   17.7313 H   0  0  0  0  0  0
  -27.8433  -11.2855   18.8364 H   0  0  0  0  0  0
  -27.3639  -12.5918   17.7850 H   0  0  0  0  0  0
  -27.6766  -14.2353   19.5325 H   0  0  0  0  0  0
  -28.7066  -11.9748   21.3320 H   0  0  0  0  0  0
  -28.4648  -13.6157   21.8554 H   0  0  0  0  0  0
  -25.2740   -9.5673   22.4757 H   0  0  0  0  0  0
  -23.9990   -7.4615   22.7463 H   0  0  0  0  0  0
  -21.0820   -8.8745   19.8955 H   0  0  0  0  0  0
  -22.3664  -10.9652   19.6165 H   0  0  0  0  0  0
  -21.1996   -7.6138   23.9702 H   0  0  0  0  0  0
  -21.1479   -6.0520   25.9072 H   0  0  0  0  0  0
  -22.0606   -2.7599   23.2854 H   0  0  0  0  0  0
  -22.4120  -11.9864   22.4793 H   0  0  0  0  0  0
  -21.1122  -13.1233   22.2649 H   0  0  0  0  0  0
  -24.6557  -15.8325   20.5182 H   0  0  0  0  0  0
  -26.2638  -15.6296   20.0510 H   0  0  0  0  0  0
  -26.7128  -32.5483   23.1101 H   0  0  0  0  0  0
  -25.0063  -33.9758   25.0421 H   0  0  0  0  0  0
  -22.7014  -31.3067   21.4026 H   0  0  0  0  0  0
  -23.3745  -35.9628   23.3324 H   0  0  0  0  0  0
  -24.3563  -36.8879   22.2055 H   0  0  0  0  0  0
  -23.7227  -37.6500   23.6656 H   0  0  0  0  0  0
  -26.0627  -31.5726   20.5914 H   0  0  0  0  0  0
  -26.8312  -30.8606   21.9857 H   0  0  0  0  0  0
  -28.1080  -29.0499   21.1496 H   0  0  0  0  0  0
  -26.0010  -25.9323   19.0262 H   0  0  0  0  0  0
  -23.9658  -27.2891   19.0380 H   0  0  0  0  0  0
  -23.7414  -30.5985   19.4035 H   0  0  0  0  0  0
  -22.7419  -29.2498   19.8590 H   0  0  0  0  0  0
  -25.1274  -36.1931   25.0821 H   0  0  0  0  0  0
  -21.0007  -28.3255   24.1402 H   0  0  0  0  0  0
  -20.5671  -26.2296   23.3604 H   0  0  0  0  0  0
  -21.6651  -26.7420   22.1207 H   0  0  0  0  0  0
  -19.6922  -25.6280   21.1257 H   0  0  0  0  0  0
  -19.6710  -27.3193   20.6759 H   0  0  0  0  0  0
  -17.4200  -26.6695   21.4032 H   0  0  0  0  0  0
  -18.0336  -26.0060   22.9016 H   0  0  0  0  0  0
  -19.7961  -30.7278   24.2261 H   0  0  0  0  0  0
  -17.5050  -31.6278   24.5178 H   0  0  0  0  0  0
  -15.5380  -30.3033   23.7642 H   0  0  0  0  0  0
  -15.8673  -28.0861   22.7047 H   0  0  0  0  0  0
  -24.5907  -30.7079   25.7814 H   0  0  0  0  0  0
  -24.8945  -32.2922   26.4884 H   0  0  0  0  0  0
  -25.8075  -30.8936   27.0233 H   0  0  0  0  0  0
  -26.2875  -29.6813   24.1143 H   0  0  0  0  0  0
  -27.4072  -29.7273   25.4561 H   0  0  0  0  0  0
  -27.8709  -30.4375   23.9272 H   0  0  0  0  0  0
  -27.2623  -33.3639   26.2055 H   0  0  0  0  0  0
  -28.3850  -32.6899   25.0328 H   0  0  0  0  0  0
  -28.0690  -31.8480   26.5408 H   0  0  0  0  0  0
  -28.2583  -38.0093   24.7495 H   0  0  0  0  0  0
  -28.1046  -36.2620   24.6307 H   0  0  0  0  0  0
  -27.2293  -37.1450   25.8874 H   0  0  0  0  0  0
  -20.9301  -29.8774   21.6922 H   0  0  0  0  0  0
  -26.0160  -38.2840   24.1444 H   0  0  0  0  0  0
  -29.8417  -16.3216   23.1975 H   0  0  0  0  0  0
  -29.2311  -20.5355   22.5668 H   0  0  0  0  0  0
  -29.6458  -17.8819   19.1928 H   0  0  0  0  0  0
  -32.4315  -21.0773   27.3339 H   0  0  0  0  0  0
  -30.8930  -21.8168   26.9142 H   0  0  0  0  0  0
  -32.1201  -21.5718   25.6786 H   0  0  0  0  0  0
  -33.0333  -18.7860   26.4903 H   0  0  0  0  0  0
  -32.6359  -19.1817   24.8233 H   0  0  0  0  0  0
  -31.8847  -17.7983   25.6085 H   0  0  0  0  0  0
  -31.2331  -19.2024   28.3761 H   0  0  0  0  0  0
  -30.1780  -18.1354   27.4744 H   0  0  0  0  0  0
  -29.6299  -19.7491   27.9080 H   0  0  0  0  0  0
  -29.1341  -20.4810   25.5763 H   0  0  0  0  0  0
  -30.3897  -20.5501   24.3886 H   0  0  0  0  0  0
  -28.0992  -22.1801   19.5073 H   0  0  0  0  0  0
  -28.3076  -21.8715   21.1948 H   0  0  0  0  0  0
  -27.5618  -24.7799   20.7710 H   0  0  0  0  0  0
  -27.9551  -24.8447   19.0503 H   0  0  0  0  0  0
  -28.4556  -17.0112   24.6519 H   0  0  0  0  0  0
  -31.7665  -23.3462   20.3623 H   0  0  0  0  0  0
  -28.7705  -15.2075   20.7398 H   0  0  0  0  0  0
  -29.5838  -20.3694   18.9092 H   0  0  0  0  0  0
  1 25  1  0  0  0
  1 30  2  0  0  0
  1 89  1  0  0  0
  2  3  1  0  0  0
  2 25  1  0  0  0
  2 92  1  0  0  0
  2 93  1  0  0  0
  3  4  1  0  0  0
  3 94  1  0  0  0
  3 95  1  0  0  0
  4  5  1  0  0  0
  4 96  1  0  0  0
  4 97  1  0  0  0
  5  6  1  0  0  0
  5 26  1  0  0  0
  5 98  1  0  0  0
  6 25  1  0  0  0
  6 99  1  0  0  0
  6100  1  0  0  0
  7  8  2  0  0  0
  7 26  1  0  0  0
  7 29  1  0  0  0
  8  9  1  0  0  0
  8 22  1  0  0  0
  9 10  1  0  0  0
  9 27  2  0  0  0
 10 11  2  0  0  0
 10 15  1  0  0  0
 11 12  1  0  0  0
 11101  1  0  0  0
 12 13  2  0  0  0
 12102  1  0  0  0
 13 14  1  0  0  0
 13 31  1  0  0  0
 14 15  2  0  0  0
 14103  1  0  0  0
 15104  1  0  0  0
 16 17  2  0  0  0
 16 21  1  0  0  0
 16 31  1  0  0  0
 17 18  1  0  0  0
 17105  1  0  0  0
 18 19  2  0  0  0
 18106  1  0  0  0
 19 20  1  0  0  0
 19 24  1  0  0  0
 20 21  2  0  0  0
 20107  1  0  0  0
 21 23  1  0  0  0
 22 28  1  0  0  0
 22 32  2  0  0  0
 26 27  1  0  0  0
 28108  1  0  0  0
 28109  1  0  0  0
 29110  1  0  0  0
 29111  1  0  0  0
 33 34  1  0  0  0
 33 66  1  0  0  0
 33 70  2  0  0  0
 34 36  1  0  0  0
 34 59  1  0  0  0
 34112  1  0  0  0
 35 44  2  0  0  0
 35 45  1  0  0  0
 35 68  1  0  0  0
 36 56  1  0  0  0
 36113  1  0  0  0
 37 39  1  0  0  0
 37 47  1  0  0  0
 37 66  1  0  0  0
 37114  1  0  0  0
 38 43  2  0  0  0
 38 46  1  0  0  0
 38 47  1  0  0  0
 39 64  1  0  0  0
 39 67  2  0  0  0
 40 52  1  0  0  0
 40 53  2  0  0  0
 40 58  1  0  0  0
 41115  1  0  0  0
 41116  1  0  0  0
 41117  1  0  0  0
 41 48  1  0  0  0
 42 43  1  0  0  0
 42 66  1  0  0  0
 42118  1  0  0  0
 42119  1  0  0  0
 43 44  1  0  0  0
 44120  1  0  0  0
 45 46  2  0  0  0
 45121  1  0  0  0
 46122  1  0  0  0
 47123  1  0  0  0
 47124  1  0  0  0
 48 56  1  0  0  0
 48 65  1  0  0  0
 48125  1  0  0  0
 49 50  1  0  0  0
 49 53  1  0  0  0
 49 64  1  0  0  0
 49126  1  0  0  0
 50 51  1  0  0  0
 50127  1  0  0  0
 50128  1  0  0  0
 51 52  1  0  0  0
 51129  1  0  0  0
 51130  1  0  0  0
 52131  1  0  0  0
 52132  1  0  0  0
 53 54  1  0  0  0
 54 55  2  0  0  0
 54133  1  0  0  0
 55 57  1  0  0  0
 55134  1  0  0  0
 56 69  2  0  0  0
 57 58  2  0  0  0
 57135  1  0  0  0
 58136  1  0  0  0
 59 60  1  0  0  0
 59 61  1  0  0  0
 59 62  1  0  0  0
 60137  1  0  0  0
 60138  1  0  0  0
 60139  1  0  0  0
 61140  1  0  0  0
 61141  1  0  0  0
 61142  1  0  0  0
 62143  1  0  0  0
 62144  1  0  0  0
 62145  1  0  0  0
 63 65  1  0  0  0
 63146  1  0  0  0
 63147  1  0  0  0
 63148  1  0  0  0
 64149  1  0  0  0
 65150  1  0  0  0
 68 85  1  0  0  0
 71 74  2  0  0  0
 71 75  1  0  0  0
 71151  1  0  0  0
 72 74  1  0  0  0
 72 76  2  0  0  0
 72152  1  0  0  0
 73 75  2  0  0  0
 73 76  1  0  0  0
 73153  1  0  0  0
 74 77  1  0  0  0
 75 89  1  0  0  0
 76 90  1  0  0  0
 77 83  1  0  0  0
 77 87  2  0  0  0
 78 79  1  0  0  0
 78 84  1  0  0  0
 78 88  2  0  0  0
 79 85  1  0  0  0
 79 91  2  0  0  0
 80154  1  0  0  0
 80155  1  0  0  0
 80156  1  0  0  0
 80 86  1  0  0  0
 81 86  1  0  0  0
 81157  1  0  0  0
 81158  1  0  0  0
 81159  1  0  0  0
 82 86  1  0  0  0
 82160  1  0  0  0
 82161  1  0  0  0
 82162  1  0  0  0
 83 86  1  0  0  0
 83163  1  0  0  0
 83164  1  0  0  0
 84 90  1  0  0  0
 84165  1  0  0  0
 84166  1  0  0  0
 85167  1  0  0  0
 85168  1  0  0  0
 87169  1  0  0  0
 88170  1  0  0  0
 89171  1  0  0  0
 90172  1  0  0  0
M  ISO  4   1 100  68 101  85 101  89 100
M  END
> <chiral flag>
0

> <version>
0

> <s_m_source_file>
/data/baiqing/PycharmProjects/Reinvent-master-3.2/result/LINK_invent/BTK/process_docking_weight1_custom_product_contain_oxygen_bond_distance_aromatic_linkinvent_7_9_3/rearranged_h_0164.sdf

> <i_m_source_file_index>
25

> <r_mmod_Potential_Energy-OPLS-2005>
142.731903076172

> <r_mmod_Stretch_Energy-OPLS-2005>
64.0026321411133

> <r_mmod_Bend_Energy-OPLS-2005>
155.163681030273

> <r_mmod_Torsional_Energy-OPLS-2005>
250.105255126953

> <r_mmod_Improper_Torsional_Energy-OPLS-2005>
11.745623588562

> <r_mmod_Van_der_Waal_Energy-OPLS-2005>
156.769393920898

> <r_mmod_Electrostatic_Energy-OPLS-2005>
-259.880432128906

> <r_mmod_Solvation_Energy-OPLS-2005>
-265.853668212891

> <b_mmod_Minimization_Converged-OPLS-2005>
0

> <r_mmod_RMS_Derivative-OPLS-2005>
2.02189922332764

$$$$
25
                    3D
 Structure written by MMmdl.
157165  0  0  1  0            999 V2000
  -30.6672  -14.5612   20.4972 C   0  0  0  0  0  0
  -30.4116  -12.3265   19.4729 C   0  0  0  0  0  0
  -29.5114  -12.5153   18.2341 C   0  0  0  0  0  0
  -28.0253  -12.3874   18.6208 C   0  0  0  0  0  0
  -27.6547  -13.2266   19.8756 C   0  0  2  0  0  0
  -28.6928  -13.0501   21.0105 C   0  0  0  0  0  0
  -25.2525  -13.8189   20.5645 C   0  0  0  0  0  0
  -24.1812  -13.0443   20.9160 C   0  0  0  0  0  0
  -24.6403  -11.6938   20.8721 C   0  0  0  0  0  0
  -23.9063  -10.4321   21.0410 C   0  0  0  0  0  0
  -24.3614   -9.4234   21.9193 C   0  0  0  0  0  0
  -23.6297   -8.2263   22.0768 C   0  0  0  0  0  0
  -22.4283   -8.0309   21.3550 C   0  0  0  0  0  0
  -21.9907   -9.0274   20.4643 C   0  0  0  0  0  0
  -22.7229  -10.2150   20.3061 C   0  0  0  0  0  0
  -21.6878   -6.0743   22.5279 C   0  0  0  0  0  0
  -21.4021   -6.5638   23.8212 C   0  0  0  0  0  0
  -21.3671   -5.6781   24.9170 C   0  0  0  0  0  0
  -21.6042   -4.3042   24.7223 C   0  0  0  0  0  0
  -21.8818   -3.8145   23.4340 C   0  0  0  0  0  0
  -21.9203   -4.6966   22.3395 C   0  0  0  0  0  0
  -22.7826  -13.5225   21.1870 C   0  0  0  0  0  0
  -22.1666   -4.2147   21.0971 F   0  0  0  0  0  0
  -21.5642   -3.4531   25.7735 F   0  0  0  0  0  0
  -30.0197  -13.3563   20.4552 N   0  0  0  0  0  0
  -26.2987  -12.9399   20.3323 N   0  0  0  0  0  0
  -25.9327  -11.6548   20.5710 N   0  0  0  0  0  0
  -22.0505  -12.8195   22.0425 N   0  0  0  0  0  0
  -25.4176  -15.1932   20.4083 N   0  0  0  0  0  0
  -31.8250  -14.6891   20.0965 O   0  0  0  0  0  0
  -21.6667   -6.8897   21.4246 O   0  0  0  0  0  0
  -22.3496  -14.5540   20.6741 O   0  0  0  0  0  0
  -24.6256  -31.8595   23.2062 C   0  0  0  0  0  0
  -25.9111  -32.4791   23.8380 C   0  0  1  0  0  0
  -27.2193  -27.3457   20.0816 C   0  0  0  0  0  0
  -25.5909  -33.8592   24.2294 N   0  0  0  0  0  0
  -23.4184  -30.4878   21.5481 C   0  0  2  0  0  0
  -24.8596  -28.9476   20.1126 C   0  0  0  0  0  0
  -22.7447  -29.4644   22.4917 C   0  0  0  0  0  0
  -18.0273  -28.1369   22.8513 C   0  0  0  0  0  0
  -24.1482  -36.7299   23.2650 C   0  0  0  0  0  0
  -25.9596  -30.7933   21.3794 C   0  0  0  0  0  0
  -26.0325  -29.4286   20.7107 C   0  0  0  0  0  0
  -27.2160  -28.6353   20.6921 C   0  0  0  0  0  0
  -26.0163  -26.9026   19.4837 C   0  0  0  0  0  0
  -24.8498  -27.6868   19.4994 C   0  0  0  0  0  0
  -23.6309  -29.8309   20.1627 C   0  0  0  0  0  0
  -25.4113  -36.3108   24.0339 C   0  0  1  0  0  0
  -20.5875  -28.3676   23.1263 C   0  0  2  0  0  0
  -20.6748  -26.9378   22.5418 C   0  0  0  0  0  0
  -19.5735  -26.6359   21.5211 C   0  0  0  0  0  0
  -18.1914  -26.7913   22.1610 C   0  0  0  0  0  0
  -19.1529  -28.8835   23.2891 C   0  0  0  0  0  0
  -18.9454  -30.1432   23.8916 C   0  0  0  0  0  0
  -17.6467  -30.6584   24.0565 C   0  0  0  0  0  0
  -25.9046  -34.9465   23.5111 C   0  0  0  0  0  0
  -16.5356  -29.9086   23.6335 C   0  0  0  0  0  0
  -16.7258  -28.6488   23.0384 C   0  0  0  0  0  0
  -26.4478  -31.6628   25.0767 C   0  0  0  0  0  0
  -25.3707  -31.3765   26.1494 C   0  0  0  0  0  0
  -27.0342  -30.3053   24.6249 C   0  0  0  0  0  0
  -27.6007  -32.4382   25.7545 C   0  0  0  0  0  0
  -27.5580  -37.1811   24.8449 C   0  0  0  0  0  0
  -21.4167  -29.3059   22.3666 N   0  0  0  0  0  0
  -26.4289  -37.3800   23.9412 N   0  0  0  0  0  0
  -24.6877  -31.0635   22.1013 N   0  0  0  0  0  0
  -23.4183  -28.8139   23.2936 O   0  0  0  0  0  0
  -28.3203  -26.4843   20.1266 O   0  0  0  0  0  0
  -26.5622  -34.8924   22.4681 O   0  0  0  0  0  0
  -23.5411  -32.1380   23.7388 O   0  0  0  0  0  0
  -30.2410  -19.7078   22.7395 C   0  0  0  0  0  0
  -30.2876  -18.4578   22.0874 C   0  0  0  0  0  0
  -29.7717  -20.8596   22.0750 C   0  0  0  0  0  0
  -29.8534  -18.3290   20.7525 C   0  0  0  0  0  0
  -29.3333  -20.7936   20.7355 C   0  0  0  0  0  0
  -29.3590  -19.5120   20.0922 C   0  0  0  0  0  0
  -28.5067  -25.5727   19.0868 C   0  0  0  0  0  0
  -28.7485  -24.2154   19.0869 C   0  0  0  0  0  0
  -28.8733  -23.3032   20.2611 C   0  0  0  0  0  0
  -30.0662  -16.9669   20.0231 C   0  0  0  0  0  0
  -28.9119  -19.4632   18.7688 N   0  0  0  0  0  0
  -28.9468  -21.9631   19.9566 N   0  0  0  0  0  0
  -29.8962  -15.6586   20.7338 N   0  0  0  0  0  0
  -28.9280  -23.6557   17.7211 N   0  3  0  0  0  0
  -28.8958  -23.7067   21.4254 O   0  0  0  0  0  0
  -31.4649  -12.3851   19.1944 H   0  0  0  0  0  0
  -30.2734  -11.3270   19.8930 H   0  0  0  0  0  0
  -29.7627  -11.7882   17.4606 H   0  0  0  0  0  0
  -29.6986  -13.5017   17.8077 H   0  0  0  0  0  0
  -27.8157  -11.3311   18.7949 H   0  0  0  0  0  0
  -27.4005  -12.6825   17.7771 H   0  0  0  0  0  0
  -27.6808  -14.2727   19.5717 H   0  0  0  0  0  0
  -28.6711  -12.0209   21.3767 H   0  0  0  0  0  0
  -28.4494  -13.6785   21.8686 H   0  0  0  0  0  0
  -25.2772   -9.5701   22.4753 H   0  0  0  0  0  0
  -24.0019   -7.4648   22.7478 H   0  0  0  0  0  0
  -21.0850   -8.8775   19.8930 H   0  0  0  0  0  0
  -22.3705  -10.9688   19.6162 H   0  0  0  0  0  0
  -21.2006   -7.6146   23.9697 H   0  0  0  0  0  0
  -21.1501   -6.0527   25.9059 H   0  0  0  0  0  0
  -22.0594   -2.7618   23.2839 H   0  0  0  0  0  0
  -22.4107  -11.9807   22.4711 H   0  0  0  0  0  0
  -21.1138  -13.1222   22.2716 H   0  0  0  0  0  0
  -24.6415  -15.8377   20.5088 H   0  0  0  0  0  0
  -26.2623  -15.6475   20.0852 H   0  0  0  0  0  0
  -26.7162  -32.5444   23.1118 H   0  0  0  0  0  0
  -25.0068  -33.9752   25.0439 H   0  0  0  0  0  0
  -22.7139  -31.3114   21.4088 H   0  0  0  0  0  0
  -23.3762  -35.9616   23.3306 H   0  0  0  0  0  0
  -24.3564  -36.8925   22.2067 H   0  0  0  0  0  0
  -23.7207  -37.6480   23.6670 H   0  0  0  0  0  0
  -26.1051  -31.5647   20.6227 H   0  0  0  0  0  0
  -26.8340  -30.8240   22.0184 H   0  0  0  0  0  0
  -28.1165  -28.9993   21.1634 H   0  0  0  0  0  0
  -25.9554  -25.9288   19.0188 H   0  0  0  0  0  0
  -23.9427  -27.3065   19.0498 H   0  0  0  0  0  0
  -23.7626  -30.6134   19.4113 H   0  0  0  0  0  0
  -22.7481  -29.2721   19.8492 H   0  0  0  0  0  0
  -25.1295  -36.1978   25.0834 H   0  0  0  0  0  0
  -20.9984  -28.3264   24.1378 H   0  0  0  0  0  0
  -20.5574  -26.2310   23.3633 H   0  0  0  0  0  0
  -21.6621  -26.7350   22.1271 H   0  0  0  0  0  0
  -19.6888  -25.6266   21.1266 H   0  0  0  0  0  0
  -19.6694  -27.3153   20.6726 H   0  0  0  0  0  0
  -17.4184  -26.6699   21.3994 H   0  0  0  0  0  0
  -18.0280  -26.0032   22.8964 H   0  0  0  0  0  0
  -19.7931  -30.7233   24.2312 H   0  0  0  0  0  0
  -17.5019  -31.6263   24.5137 H   0  0  0  0  0  0
  -15.5363  -30.3001   23.7620 H   0  0  0  0  0  0
  -15.8653  -28.0791   22.7125 H   0  0  0  0  0  0
  -24.5857  -30.7148   25.7796 H   0  0  0  0  0  0
  -24.8950  -32.2952   26.4938 H   0  0  0  0  0  0
  -25.8040  -30.8903   27.0248 H   0  0  0  0  0  0
  -26.2949  -29.6819   24.1206 H   0  0  0  0  0  0
  -27.3935  -29.7295   25.4786 H   0  0  0  0  0  0
  -27.8854  -30.4328   23.9567 H   0  0  0  0  0  0
  -27.2562  -33.3621   26.2195 H   0  0  0  0  0  0
  -28.3788  -32.7062   25.0385 H   0  0  0  0  0  0
  -28.0731  -31.8504   26.5418 H   0  0  0  0  0  0
  -28.2589  -38.0120   24.7533 H   0  0  0  0  0  0
  -28.1101  -36.2653   24.6248 H   0  0  0  0  0  0
  -27.2304  -37.1420   25.8854 H   0  0  0  0  0  0
  -20.9303  -29.8852   21.6962 H   0  0  0  0  0  0
  -26.0184  -38.2875   24.1426 H   0  0  0  0  0  0
  -30.6016  -19.7955   23.7579 H   0  0  0  0  0  0
  -30.7023  -17.6071   22.6092 H   0  0  0  0  0  0
  -29.7841  -21.7942   22.6107 H   0  0  0  0  0  0
  -28.4403  -26.1053   18.1482 H   0  0  0  0  0  0
  -31.0753  -17.0296   19.6089 H   0  0  0  0  0  0
  -29.4025  -16.9221   19.1600 H   0  0  0  0  0  0
  -28.9460  -18.5505   18.3299 H   0  0  0  0  0  0
  -27.9838  -19.8493   18.6305 H   0  0  0  0  0  0
  -28.7655  -21.6886   19.0047 H   0  0  0  0  0  0
  -28.9772  -15.4691   21.1031 H   0  0  0  0  0  0
  -28.9175  -24.3828   17.0300 H   0  0  0  0  0  0
  -28.1947  -23.0141   17.4821 H   0  0  0  0  0  0
  -29.8127  -23.1863   17.6431 H   0  0  0  0  0  0
  1 25  1  0  0  0
  1 30  2  0  0  0
  1 83  1  0  0  0
  2  3  1  0  0  0
  2 25  1  0  0  0
  2 86  1  0  0  0
  2 87  1  0  0  0
  3  4  1  0  0  0
  3 88  1  0  0  0
  3 89  1  0  0  0
  4  5  1  0  0  0
  4 90  1  0  0  0
  4 91  1  0  0  0
  5  6  1  0  0  0
  5 26  1  0  0  0
  5 92  1  0  0  0
  6 25  1  0  0  0
  6 93  1  0  0  0
  6 94  1  0  0  0
  7  8  2  0  0  0
  7 26  1  0  0  0
  7 29  1  0  0  0
  8  9  1  0  0  0
  8 22  1  0  0  0
  9 10  1  0  0  0
  9 27  2  0  0  0
 10 11  2  0  0  0
 10 15  1  0  0  0
 11 12  1  0  0  0
 11 95  1  0  0  0
 12 13  2  0  0  0
 12 96  1  0  0  0
 13 14  1  0  0  0
 13 31  1  0  0  0
 14 15  2  0  0  0
 14 97  1  0  0  0
 15 98  1  0  0  0
 16 17  2  0  0  0
 16 21  1  0  0  0
 16 31  1  0  0  0
 17 18  1  0  0  0
 17 99  1  0  0  0
 18 19  2  0  0  0
 18100  1  0  0  0
 19 20  1  0  0  0
 19 24  1  0  0  0
 20 21  2  0  0  0
 20101  1  0  0  0
 21 23  1  0  0  0
 22 28  1  0  0  0
 22 32  2  0  0  0
 26 27  1  0  0  0
 28102  1  0  0  0
 28103  1  0  0  0
 29104  1  0  0  0
 29105  1  0  0  0
 33 34  1  0  0  0
 33 66  1  0  0  0
 33 70  2  0  0  0
 34 36  1  0  0  0
 34 59  1  0  0  0
 34106  1  0  0  0
 35 44  2  0  0  0
 35 45  1  0  0  0
 35 68  1  0  0  0
 36 56  1  0  0  0
 36107  1  0  0  0
 37 39  1  0  0  0
 37 47  1  0  0  0
 37 66  1  0  0  0
 37108  1  0  0  0
 38 43  2  0  0  0
 38 46  1  0  0  0
 38 47  1  0  0  0
 39 64  1  0  0  0
 39 67  2  0  0  0
 40 52  1  0  0  0
 40 53  2  0  0  0
 40 58  1  0  0  0
 41109  1  0  0  0
 41110  1  0  0  0
 41111  1  0  0  0
 41 48  1  0  0  0
 42 43  1  0  0  0
 42 66  1  0  0  0
 42112  1  0  0  0
 42113  1  0  0  0
 43 44  1  0  0  0
 44114  1  0  0  0
 45 46  2  0  0  0
 45115  1  0  0  0
 46116  1  0  0  0
 47117  1  0  0  0
 47118  1  0  0  0
 48 56  1  0  0  0
 48 65  1  0  0  0
 48119  1  0  0  0
 49 50  1  0  0  0
 49 53  1  0  0  0
 49 64  1  0  0  0
 49120  1  0  0  0
 50 51  1  0  0  0
 50121  1  0  0  0
 50122  1  0  0  0
 51 52  1  0  0  0
 51123  1  0  0  0
 51124  1  0  0  0
 52125  1  0  0  0
 52126  1  0  0  0
 53 54  1  0  0  0
 54 55  2  0  0  0
 54127  1  0  0  0
 55 57  1  0  0  0
 55128  1  0  0  0
 56 69  2  0  0  0
 57 58  2  0  0  0
 57129  1  0  0  0
 58130  1  0  0  0
 59 60  1  0  0  0
 59 61  1  0  0  0
 59 62  1  0  0  0
 60131  1  0  0  0
 60132  1  0  0  0
 60133  1  0  0  0
 61134  1  0  0  0
 61135  1  0  0  0
 61136  1  0  0  0
 62137  1  0  0  0
 62138  1  0  0  0
 62139  1  0  0  0
 63 65  1  0  0  0
 63140  1  0  0  0
 63141  1  0  0  0
 63142  1  0  0  0
 64143  1  0  0  0
 65144  1  0  0  0
 68 77  1  0  0  0
 71 72  2  0  0  0
 71 73  1  0  0  0
 71145  1  0  0  0
 72 74  1  0  0  0
 72146  1  0  0  0
 73 75  2  0  0  0
 73147  1  0  0  0
 74 76  2  0  0  0
 74 80  1  0  0  0
 75 76  1  0  0  0
 75 82  1  0  0  0
 76 81  1  0  0  0
 77 78  2  0  0  0
 77148  1  0  0  0
 78 79  1  0  0  0
 78 84  1  0  0  0
 79 82  1  0  0  0
 79 85  2  0  0  0
 80 83  1  0  0  0
 80149  1  0  0  0
 80150  1  0  0  0
 81151  1  0  0  0
 81152  1  0  0  0
 82153  1  0  0  0
 83154  1  0  0  0
 84155  1  0  0  0
 84156  1  0  0  0
 84157  1  0  0  0
M  CHG  1  84   1
M  ISO  4   1 100  68 101  77 101  83 100
M  END
> <chiral flag>
0

> <version>
0

> <s_m_source_file>
/data/baiqing/PycharmProjects/Reinvent-master-3.2/result/LINK_invent/BTK/process_docking_weight1_custom_product_contain_oxygen_bond_distance_aromatic_linkinvent_7_9_3/rearranged_h_0164.sdf

> <i_m_source_file_index>
26

> <r_mmod_Potential_Energy-OPLS-2005>
-448.744445800781

> <r_mmod_Stretch_Energy-OPLS-2005>
68.3474807739258

> <r_mmod_Bend_Energy-OPLS-2005>
143.327392578125

> <r_mmod_Torsional_Energy-OPLS-2005>
237.569396972656

> <r_mmod_Improper_Torsional_Energy-OPLS-2005>
14.6465492248535

> <r_mmod_Van_der_Waal_Energy-OPLS-2005>
158.444580078125

> <r_mmod_Electrostatic_Energy-OPLS-2005>
-522.961181640625

> <r_mmod_Solvation_Energy-OPLS-2005>
-583.531066894531

> <b_mmod_Minimization_Converged-OPLS-2005>
0

> <r_mmod_RMS_Derivative-OPLS-2005>
4.61205339431763

$$$$
26
                    3D
 Structure written by MMmdl.
168177  0  0  1  0            999 V2000
  -30.6285  -14.6499   20.5763 C   0  0  0  0  0  0
  -30.4555  -12.4592   19.4009 C   0  0  0  0  0  0
  -29.4968  -12.5385   18.1893 C   0  0  0  0  0  0
  -28.0168  -12.3583   18.6002 C   0  0  0  0  0  0
  -27.6554  -13.1921   19.8576 C   0  0  2  0  0  0
  -28.7202  -12.9220   20.9399 C   0  0  0  0  0  0
  -25.2502  -13.8071   20.5375 C   0  0  0  0  0  0
  -24.1832  -13.0383   20.9148 C   0  0  0  0  0  0
  -24.6395  -11.6852   20.8764 C   0  0  0  0  0  0
  -23.9069  -10.4261   21.0408 C   0  0  0  0  0  0
  -24.3616   -9.4210   21.9189 C   0  0  0  0  0  0
  -23.6300   -8.2242   22.0767 C   0  0  0  0  0  0
  -22.4284   -8.0269   21.3567 C   0  0  0  0  0  0
  -21.9925   -9.0230   20.4646 C   0  0  0  0  0  0
  -22.7254  -10.2104   20.3058 C   0  0  0  0  0  0
  -21.6845   -6.0725   22.5294 C   0  0  0  0  0  0
  -21.3996   -6.5629   23.8229 C   0  0  0  0  0  0
  -21.3647   -5.6768   24.9166 C   0  0  0  0  0  0
  -21.6035   -4.3042   24.7215 C   0  0  0  0  0  0
  -21.8833   -3.8139   23.4354 C   0  0  0  0  0  0
  -21.9195   -4.6948   22.3402 C   0  0  0  0  0  0
  -22.7891  -13.5249   21.1922 C   0  0  0  0  0  0
  -22.1665   -4.2141   21.0977 F   0  0  0  0  0  0
  -21.5622   -3.4536   25.7741 F   0  0  0  0  0  0
  -29.9880  -13.4352   20.4152 N   0  0  0  0  0  0
  -26.2964  -12.9231   20.3221 N   0  0  0  0  0  0
  -25.9318  -11.6433   20.5787 N   0  0  0  0  0  0
  -22.0551  -12.8204   22.0449 N   0  0  0  0  0  0
  -25.4034  -15.1695   20.3319 N   0  0  0  0  0  0
  -31.7931  -14.7541   20.1865 O   0  0  0  0  0  0
  -21.6637   -6.8872   21.4273 O   0  0  0  0  0  0
  -22.3620  -14.5690   20.6988 O   0  0  0  0  0  0
  -24.6399  -31.8707   23.2154 C   0  0  0  0  0  0
  -25.9229  -32.4823   23.8478 C   0  0  1  0  0  0
  -27.2202  -27.3560   20.0957 C   0  0  0  0  0  0
  -25.6055  -33.8616   24.2405 N   0  0  0  0  0  0
  -23.4444  -30.4980   21.5695 C   0  0  2  0  0  0
  -24.8641  -28.9503   20.1197 C   0  0  0  0  0  0
  -22.7771  -29.4823   22.5221 C   0  0  0  0  0  0
  -17.9922  -28.1229   22.8681 C   0  0  0  0  0  0
  -24.1482  -36.7299   23.2618 C   0  0  0  0  0  0
  -25.9692  -30.8055   21.3769 C   0  0  0  0  0  0
  -26.0332  -29.4336   20.7206 C   0  0  0  0  0  0
  -27.2158  -28.6439   20.7044 C   0  0  0  0  0  0
  -26.0325  -26.9233   19.4643 C   0  0  0  0  0  0
  -24.8590  -27.6981   19.4881 C   0  0  0  0  0  0
  -23.6368  -29.8337   20.1799 C   0  0  0  0  0  0
  -25.4100  -36.3107   24.0327 C   0  0  1  0  0  0
  -20.4801  -28.4570   22.7758 C   0  0  2  0  0  0
  -20.6890  -26.9584   22.5275 C   0  0  0  0  0  0
  -19.5505  -26.4604   21.6109 C   0  0  0  0  0  0
  -18.1528  -26.7538   22.2010 C   0  0  0  0  0  0
  -19.1155  -28.8977   23.2467 C   0  0  0  0  0  0
  -18.9383  -30.1456   23.8755 C   0  0  0  0  0  0
  -17.6424  -30.6510   24.0797 C   0  0  0  0  0  0
  -25.9064  -34.9461   23.5144 C   0  0  0  0  0  0
  -16.5221  -29.9009   23.6782 C   0  0  0  0  0  0
  -16.6975  -28.6345   23.0902 C   0  0  0  0  0  0
  -26.4555  -31.6567   25.0839 C   0  0  0  0  0  0
  -25.3755  -31.3683   26.1543 C   0  0  0  0  0  0
  -27.0360  -30.2975   24.6220 C   0  0  0  0  0  0
  -27.6100  -32.4254   25.7705 C   0  0  0  0  0  0
  -27.5589  -37.1810   24.8482 C   0  0  0  0  0  0
  -21.4574  -29.4406   22.3897 N   0  0  0  0  0  0
  -26.4302  -37.3784   23.9418 N   0  0  0  0  0  0
  -24.7065  -31.0735   22.1133 N   0  0  0  0  0  0
  -23.4190  -28.7650   23.2902 O   0  0  0  0  0  0
  -28.3490  -26.5354   20.0848 O   0  0  0  0  0  0
  -26.5548  -34.8905   22.4657 O   0  0  0  0  0  0
  -23.5534  -32.1548   23.7440 O   0  0  0  0  0  0
  -29.1147  -18.9912   20.8945 C   0  0  0  0  0  0
  -28.0237  -20.6929   22.2779 C   0  0  0  0  0  0
  -28.5421  -17.9327   21.6945 C   0  0  0  0  0  0
  -27.4315  -19.6951   23.0481 C   0  0  0  0  0  0
  -27.6349  -18.3418   22.7215 C   0  0  0  0  0  0
  -28.8371  -20.3828   21.1679 C   0  0  0  0  0  0
  -26.3128  -15.2097   24.3407 C   0  0  0  0  0  0
  -29.3845  -22.7981   20.7469 C   0  0  0  0  0  0
  -28.0890  -15.5198   22.5452 C   0  0  0  0  0  0
  -28.6972  -16.3808   21.4057 C   0  0  2  0  0  0
  -27.4143  -16.1503   23.7658 C   0  0  1  0  0  0
  -26.5491  -20.1142   24.2141 C   0  0  0  0  0  0
  -29.0682  -24.0203   19.8226 C   0  0  0  0  0  0
  -28.1606  -25.1322   20.4884 C   0  0  0  0  0  0
  -26.7526  -13.9048   25.0414 C   0  0  0  0  0  0
  -26.8418  -17.4284   23.4045 N   0  0  0  0  0  0
  -29.2121  -21.5048   20.3227 N   0  0  0  0  0  0
  -30.0423  -15.8252   21.0209 N   0  0  0  0  0  0
  -25.1086  -15.4976   24.2572 O   0  0  0  0  0  0
  -29.8416  -23.0364   21.8655 O   0  0  0  0  0  0
  -27.4677  -13.1327   24.2204 F   0  0  0  0  0  0
  -27.4927  -14.1852   26.1138 F   0  0  0  0  0  0
  -25.6847  -13.2115   25.4435 F   0  0  0  0  0  0
  -31.4734  -12.6554   19.0597 H   0  0  0  0  0  0
  -30.4814  -11.4421   19.8004 H   0  0  0  0  0  0
  -29.7709  -11.7855   17.4537 H   0  0  0  0  0  0
  -29.6231  -13.5033   17.6979 H   0  0  0  0  0  0
  -27.8537  -11.2970   18.8014 H   0  0  0  0  0  0
  -27.3519  -12.6114   17.7725 H   0  0  0  0  0  0
  -27.7008  -14.2374   19.5627 H   0  0  0  0  0  0
  -28.7968  -11.8415   21.0757 H   0  0  0  0  0  0
  -28.4804  -13.2087   21.9442 H   0  0  0  0  0  0
  -25.2732   -9.5662   22.4804 H   0  0  0  0  0  0
  -23.9949   -7.4601   22.7499 H   0  0  0  0  0  0
  -21.0871   -8.8771   19.8934 H   0  0  0  0  0  0
  -22.3726  -10.9629   19.6159 H   0  0  0  0  0  0
  -21.2022   -7.6143   23.9731 H   0  0  0  0  0  0
  -21.1419   -6.0494   25.9063 H   0  0  0  0  0  0
  -22.0635   -2.7621   23.2854 H   0  0  0  0  0  0
  -22.3955  -11.9557   22.4431 H   0  0  0  0  0  0
  -21.1344  -13.1498   22.3002 H   0  0  0  0  0  0
  -24.5986  -15.7833   20.3588 H   0  0  0  0  0  0
  -26.2002  -15.5771   19.8622 H   0  0  0  0  0  0
  -26.7334  -32.5478   23.1247 H   0  0  0  0  0  0
  -25.0328  -33.9810   25.0630 H   0  0  0  0  0  0
  -22.7541  -31.3325   21.4222 H   0  0  0  0  0  0
  -23.3753  -35.9648   23.3287 H   0  0  0  0  0  0
  -24.3617  -36.8883   22.2057 H   0  0  0  0  0  0
  -23.7267  -37.6498   23.6625 H   0  0  0  0  0  0
  -26.0833  -31.5675   20.6016 H   0  0  0  0  0  0
  -26.8587  -30.8595   21.9927 H   0  0  0  0  0  0
  -28.1169  -29.0058   21.1796 H   0  0  0  0  0  0
  -25.9995  -25.9819   18.9348 H   0  0  0  0  0  0
  -23.9619  -27.3327   19.0085 H   0  0  0  0  0  0
  -23.7572  -30.6083   19.4206 H   0  0  0  0  0  0
  -22.7480  -29.2700   19.8860 H   0  0  0  0  0  0
  -25.1269  -36.1965   25.0828 H   0  0  0  0  0  0
  -20.1675  -28.6768   21.7538 H   0  0  0  0  0  0
  -20.6751  -26.4231   23.4765 H   0  0  0  0  0  0
  -21.6579  -26.7613   22.0640 H   0  0  0  0  0  0
  -19.6538  -25.3907   21.4258 H   0  0  0  0  0  0
  -19.6362  -26.9325   20.6269 H   0  0  0  0  0  0
  -17.3972  -26.6363   21.4235 H   0  0  0  0  0  0
  -17.9240  -26.0096   22.9634 H   0  0  0  0  0  0
  -19.7981  -30.7446   24.1545 H   0  0  0  0  0  0
  -17.5084  -31.6235   24.5382 H   0  0  0  0  0  0
  -15.5262  -30.2915   23.8343 H   0  0  0  0  0  0
  -15.8327  -28.0562   22.8018 H   0  0  0  0  0  0
  -24.5740  -30.7332   25.7756 H   0  0  0  0  0  0
  -24.9219  -32.2876   26.5257 H   0  0  0  0  0  0
  -25.7997  -30.8506   27.0159 H   0  0  0  0  0  0
  -26.2864  -29.6701   24.1371 H   0  0  0  0  0  0
  -27.4180  -29.7262   25.4690 H   0  0  0  0  0  0
  -27.8709  -30.4227   23.9321 H   0  0  0  0  0  0
  -27.2745  -33.3671   26.2053 H   0  0  0  0  0  0
  -28.4103  -32.6546   25.0675 H   0  0  0  0  0  0
  -28.0483  -31.8458   26.5836 H   0  0  0  0  0  0
  -28.2578  -38.0112   24.7496 H   0  0  0  0  0  0
  -28.1086  -36.2642   24.6320 H   0  0  0  0  0  0
  -27.2313  -37.1474   25.8879 H   0  0  0  0  0  0
  -21.0820  -30.1547   21.7809 H   0  0  0  0  0  0
  -26.0166  -38.2846   24.1438 H   0  0  0  0  0  0
  -29.7252  -18.7313   20.0422 H   0  0  0  0  0  0
  -27.7892  -21.7198   22.5244 H   0  0  0  0  0  0
  -28.8828  -14.9091   22.9754 H   0  0  0  0  0  0
  -27.3414  -14.8879   22.0762 H   0  0  0  0  0  0
  -28.0670  -16.2569   20.5228 H   0  0  0  0  0  0
  -28.1597  -16.3161   24.5455 H   0  0  0  0  0  0
  -26.7420  -21.1480   24.4991 H   0  0  0  0  0  0
  -26.7717  -19.4998   25.0837 H   0  0  0  0  0  0
  -25.4904  -20.0168   23.9703 H   0  0  0  0  0  0
  -28.6030  -23.6680   18.9031 H   0  0  0  0  0  0
  -30.0229  -24.4557   19.5325 H   0  0  0  0  0  0
  -28.2934  -25.1087   21.5694 H   0  0  0  0  0  0
  -27.1337  -24.8020   20.3493 H   0  0  0  0  0  0
  -26.1078  -17.7798   24.0127 H   0  0  0  0  0  0
  -29.1112  -21.3658   19.3243 H   0  0  0  0  0  0
  -30.7345  -16.5591   21.0205 H   0  0  0  0  0  0
  1 25  1  0  0  0
  1 30  2  0  0  0
  1 88  1  0  0  0
  2  3  1  0  0  0
  2 25  1  0  0  0
  2 94  1  0  0  0
  2 95  1  0  0  0
  3  4  1  0  0  0
  3 96  1  0  0  0
  3 97  1  0  0  0
  4  5  1  0  0  0
  4 98  1  0  0  0
  4 99  1  0  0  0
  5  6  1  0  0  0
  5 26  1  0  0  0
  5100  1  0  0  0
  6 25  1  0  0  0
  6101  1  0  0  0
  6102  1  0  0  0
  7  8  2  0  0  0
  7 26  1  0  0  0
  7 29  1  0  0  0
  8  9  1  0  0  0
  8 22  1  0  0  0
  9 10  1  0  0  0
  9 27  2  0  0  0
 10 11  2  0  0  0
 10 15  1  0  0  0
 11 12  1  0  0  0
 11103  1  0  0  0
 12 13  2  0  0  0
 12104  1  0  0  0
 13 14  1  0  0  0
 13 31  1  0  0  0
 14 15  2  0  0  0
 14105  1  0  0  0
 15106  1  0  0  0
 16 17  2  0  0  0
 16 21  1  0  0  0
 16 31  1  0  0  0
 17 18  1  0  0  0
 17107  1  0  0  0
 18 19  2  0  0  0
 18108  1  0  0  0
 19 20  1  0  0  0
 19 24  1  0  0  0
 20 21  2  0  0  0
 20109  1  0  0  0
 21 23  1  0  0  0
 22 28  1  0  0  0
 22 32  2  0  0  0
 26 27  1  0  0  0
 28110  1  0  0  0
 28111  1  0  0  0
 29112  1  0  0  0
 29113  1  0  0  0
 33 34  1  0  0  0
 33 66  1  0  0  0
 33 70  2  0  0  0
 34 36  1  0  0  0
 34 59  1  0  0  0
 34114  1  0  0  0
 35 44  2  0  0  0
 35 45  1  0  0  0
 35 68  1  0  0  0
 36 56  1  0  0  0
 36115  1  0  0  0
 37 39  1  0  0  0
 37 47  1  0  0  0
 37 66  1  0  0  0
 37116  1  0  0  0
 38 43  2  0  0  0
 38 46  1  0  0  0
 38 47  1  0  0  0
 39 64  1  0  0  0
 39 67  2  0  0  0
 40 52  1  0  0  0
 40 53  2  0  0  0
 40 58  1  0  0  0
 41117  1  0  0  0
 41118  1  0  0  0
 41119  1  0  0  0
 41 48  1  0  0  0
 42 43  1  0  0  0
 42 66  1  0  0  0
 42120  1  0  0  0
 42121  1  0  0  0
 43 44  1  0  0  0
 44122  1  0  0  0
 45 46  2  0  0  0
 45123  1  0  0  0
 46124  1  0  0  0
 47125  1  0  0  0
 47126  1  0  0  0
 48 56  1  0  0  0
 48 65  1  0  0  0
 48127  1  0  0  0
 49 50  1  0  0  0
 49 53  1  0  0  0
 49 64  1  0  0  0
 49128  1  0  0  0
 50 51  1  0  0  0
 50129  1  0  0  0
 50130  1  0  0  0
 51 52  1  0  0  0
 51131  1  0  0  0
 51132  1  0  0  0
 52133  1  0  0  0
 52134  1  0  0  0
 53 54  1  0  0  0
 54 55  2  0  0  0
 54135  1  0  0  0
 55 57  1  0  0  0
 55136  1  0  0  0
 56 69  2  0  0  0
 57 58  2  0  0  0
 57137  1  0  0  0
 58138  1  0  0  0
 59 60  1  0  0  0
 59 61  1  0  0  0
 59 62  1  0  0  0
 60139  1  0  0  0
 60140  1  0  0  0
 60141  1  0  0  0
 61142  1  0  0  0
 61143  1  0  0  0
 61144  1  0  0  0
 62145  1  0  0  0
 62146  1  0  0  0
 62147  1  0  0  0
 63 65  1  0  0  0
 63148  1  0  0  0
 63149  1  0  0  0
 63150  1  0  0  0
 64151  1  0  0  0
 65152  1  0  0  0
 68 84  1  0  0  0
 71 73  2  0  0  0
 71 76  1  0  0  0
 71153  1  0  0  0
 72 74  1  0  0  0
 72 76  2  0  0  0
 72154  1  0  0  0
 73 75  1  0  0  0
 73 80  1  0  0  0
 74 75  2  0  0  0
 74 82  1  0  0  0
 75 86  1  0  0  0
 76 87  1  0  0  0
 77 85  1  0  0  0
 77 89  2  0  0  0
 77 81  1  0  0  0
 78 83  1  0  0  0
 78 87  1  0  0  0
 78 90  2  0  0  0
 79 80  1  0  0  0
 79 81  1  0  0  0
 79155  1  0  0  0
 79156  1  0  0  0
 80 88  1  0  0  0
 80157  1  0  0  0
 81 86  1  0  0  0
 81158  1  0  0  0
 82159  1  0  0  0
 82160  1  0  0  0
 82161  1  0  0  0
 83 84  1  0  0  0
 83162  1  0  0  0
 83163  1  0  0  0
 84164  1  0  0  0
 84165  1  0  0  0
 85 91  1  0  0  0
 85 92  1  0  0  0
 85 93  1  0  0  0
 86166  1  0  0  0
 87167  1  0  0  0
 88168  1  0  0  0
M  ISO  4   1 100  68 101  84 101  88 100
M  END
> <chiral flag>
0

> <version>
0

> <s_m_source_file>
/data/baiqing/PycharmProjects/Reinvent-master-3.2/result/LINK_invent/BTK/process_docking_weight1_custom_product_contain_oxygen_bond_distance_aromatic_linkinvent_7_9_3/rearranged_h_0164.sdf

> <i_m_source_file_index>
27

> <r_mmod_Potential_Energy-OPLS-2005>
397.578338623047

> <r_mmod_Stretch_Energy-OPLS-2005>
83.4621658325195

> <r_mmod_Bend_Energy-OPLS-2005>
320.025665283203

> <r_mmod_Torsional_Energy-OPLS-2005>
331.659729003906

> <r_mmod_Improper_Torsional_Energy-OPLS-2005>
9.39642810821533

> <r_mmod_Van_der_Waal_Energy-OPLS-2005>
178.040924072266

> <r_mmod_Electrostatic_Energy-OPLS-2005>
-344.550689697266

> <r_mmod_Solvation_Energy-OPLS-2005>
-243.409149169922

> <b_mmod_Minimization_Converged-OPLS-2005>
0

> <r_mmod_RMS_Derivative-OPLS-2005>
7.09842014312744

$$$$
27
                    3D
 Structure written by MMmdl.
162170  0  0  1  0            999 V2000
  -30.7106  -14.4094   20.5710 C   0  0  0  0  0  0
  -30.4176  -12.2619   19.4264 C   0  0  0  0  0  0
  -29.4948  -12.4932   18.2112 C   0  0  0  0  0  0
  -28.0153  -12.3610   18.6204 C   0  0  0  0  0  0
  -27.6650  -13.2019   19.8786 C   0  0  2  0  0  0
  -28.6991  -12.9567   21.0027 C   0  0  0  0  0  0
  -25.2600  -13.8215   20.5665 C   0  0  0  0  0  0
  -24.1836  -13.0474   20.9183 C   0  0  0  0  0  0
  -24.6400  -11.6947   20.8760 C   0  0  0  0  0  0
  -23.9087  -10.4317   21.0440 C   0  0  0  0  0  0
  -24.3639   -9.4228   21.9207 C   0  0  0  0  0  0
  -23.6310   -8.2262   22.0765 C   0  0  0  0  0  0
  -22.4284   -8.0322   21.3560 C   0  0  0  0  0  0
  -21.9935   -9.0305   20.4660 C   0  0  0  0  0  0
  -22.7275  -10.2175   20.3080 C   0  0  0  0  0  0
  -21.6858   -6.0776   22.5295 C   0  0  0  0  0  0
  -21.4009   -6.5664   23.8237 C   0  0  0  0  0  0
  -21.3649   -5.6811   24.9185 C   0  0  0  0  0  0
  -21.6030   -4.3074   24.7227 C   0  0  0  0  0  0
  -21.8814   -3.8175   23.4341 C   0  0  0  0  0  0
  -21.9183   -4.6999   22.3404 C   0  0  0  0  0  0
  -22.7859  -13.5287   21.1862 C   0  0  0  0  0  0
  -22.1655   -4.2194   21.0977 F   0  0  0  0  0  0
  -21.5620   -3.4543   25.7725 F   0  0  0  0  0  0
  -30.0430  -13.2329   20.4663 N   0  0  0  0  0  0
  -26.3023  -12.9352   20.3350 N   0  0  0  0  0  0
  -25.9309  -11.6525   20.5757 N   0  0  0  0  0  0
  -22.0472  -12.8275   22.0409 N   0  0  0  0  0  0
  -25.4349  -15.1924   20.4059 N   0  0  0  0  0  0
  -31.8118  -14.6081   20.0484 O   0  0  0  0  0  0
  -21.6643   -6.8921   21.4257 O   0  0  0  0  0  0
  -22.3545  -14.5599   20.6731 O   0  0  0  0  0  0
  -24.6208  -31.8720   23.2072 C   0  0  0  0  0  0
  -25.9085  -32.4854   23.8388 C   0  0  1  0  0  0
  -27.2187  -27.4354   20.1002 C   0  0  0  0  0  0
  -25.5937  -33.8636   24.2361 N   0  0  0  0  0  0
  -23.4091  -30.5011   21.5465 C   0  0  2  0  0  0
  -24.8492  -28.9812   20.1021 C   0  0  0  0  0  0
  -22.7443  -29.4730   22.4925 C   0  0  0  0  0  0
  -18.0325  -28.1355   22.8461 C   0  0  0  0  0  0
  -24.1504  -36.7345   23.2635 C   0  0  0  0  0  0
  -25.9363  -30.8402   21.3604 C   0  0  0  0  0  0
  -26.0079  -29.4759   20.7118 C   0  0  0  0  0  0
  -27.1921  -28.7048   20.7236 C   0  0  0  0  0  0
  -26.0476  -26.9869   19.4415 C   0  0  0  0  0  0
  -24.8611  -27.7310   19.4706 C   0  0  0  0  0  0
  -23.6158  -29.8468   20.1541 C   0  0  0  0  0  0
  -25.4104  -36.3147   24.0366 C   0  0  1  0  0  0
  -20.5930  -28.3676   23.1289 C   0  0  2  0  0  0
  -20.6816  -26.9470   22.5246 C   0  0  0  0  0  0
  -19.5795  -26.6619   21.5020 C   0  0  0  0  0  0
  -18.1967  -26.7989   22.1442 C   0  0  0  0  0  0
  -19.1568  -28.8799   23.2939 C   0  0  0  0  0  0
  -18.9470  -30.1359   23.9051 C   0  0  0  0  0  0
  -17.6464  -30.6511   24.0637 C   0  0  0  0  0  0
  -25.9029  -34.9500   23.5155 C   0  0  0  0  0  0
  -16.5375  -29.9028   23.6293 C   0  0  0  0  0  0
  -16.7309  -28.6467   23.0282 C   0  0  0  0  0  0
  -26.4470  -31.6598   25.0707 C   0  0  0  0  0  0
  -25.3734  -31.3697   26.1459 C   0  0  0  0  0  0
  -27.0308  -30.3067   24.6051 C   0  0  0  0  0  0
  -27.6091  -32.4234   25.7454 C   0  0  0  0  0  0
  -27.5592  -37.1824   24.8466 C   0  0  0  0  0  0
  -21.4156  -29.3148   22.3725 N   0  0  0  0  0  0
  -26.4310  -37.3824   23.9409 N   0  0  0  0  0  0
  -24.6747  -31.0832   22.0975 N   0  0  0  0  0  0
  -23.4209  -28.8238   23.2949 O   0  0  0  0  0  0
  -28.3621  -26.6598   20.1738 O   0  0  0  0  0  0
  -26.5548  -34.8958   22.4686 O   0  0  0  0  0  0
  -23.5377  -32.1459   23.7447 O   0  0  0  0  0  0
  -30.0955  -18.4349   18.9634 C   0  0  0  0  0  0
  -30.2029  -17.0994   19.3905 C   0  0  0  0  0  0
  -29.7664  -17.7954   21.6812 C   0  0  0  0  0  0
  -29.8015  -19.4649   19.8852 C   0  0  0  0  0  0
  -30.0294  -16.7596   20.7548 C   0  0  0  0  0  0
  -29.6750  -19.1406   21.2580 C   0  0  0  0  0  0
  -29.5563  -20.8177   19.3644 C   0  0  0  0  0  0
  -28.2987  -23.4536   21.6517 C   0  0  0  0  0  0
  -30.2539  -24.9971   21.3703 C   0  0  0  0  0  0
  -29.7425  -23.3245   19.5266 C   0  0  0  0  0  0
  -28.1802  -25.2589   19.9020 C   0  0  0  0  0  0
  -29.1344  -24.2566   20.6189 C   0  0  0  0  0  0
  -28.8503  -20.9340   18.2340 N   0  0  0  0  0  0
  -30.0533  -15.4012   21.1925 N   0  0  0  0  0  0
  -30.0029  -21.9367   19.9702 N   0  3  0  0  0  0
  -29.4432  -20.1080   22.1802 F   0  0  0  0  0  0
  -31.4643  -12.3478   19.1254 H   0  0  0  0  0  0
  -30.3049  -11.2442   19.8066 H   0  0  0  0  0  0
  -29.7270  -11.7792   17.4199 H   0  0  0  0  0  0
  -29.6760  -13.4848   17.7922 H   0  0  0  0  0  0
  -27.8191  -11.3046   18.8134 H   0  0  0  0  0  0
  -27.3670  -12.6413   17.7895 H   0  0  0  0  0  0
  -27.7226  -14.2506   19.5858 H   0  0  0  0  0  0
  -28.6432  -11.9184   21.3345 H   0  0  0  0  0  0
  -28.4695  -13.5522   21.8866 H   0  0  0  0  0  0
  -25.2795   -9.5678   22.4781 H   0  0  0  0  0  0
  -24.0019   -7.4637   22.7468 H   0  0  0  0  0  0
  -21.0882   -8.8856   19.8954 H   0  0  0  0  0  0
  -22.3783  -10.9728   19.6190 H   0  0  0  0  0  0
  -21.2014   -7.6172   23.9762 H   0  0  0  0  0  0
  -21.1462   -6.0524   25.9093 H   0  0  0  0  0  0
  -22.0590   -2.7638   23.2828 H   0  0  0  0  0  0
  -22.4043  -11.9935   22.4831 H   0  0  0  0  0  0
  -21.1092  -13.1323   22.2593 H   0  0  0  0  0  0
  -24.6818  -15.8595   20.5361 H   0  0  0  0  0  0
  -26.2918  -15.6238   20.0832 H   0  0  0  0  0  0
  -26.7200  -32.5608   23.1191 H   0  0  0  0  0  0
  -25.0151  -33.9791   25.0552 H   0  0  0  0  0  0
  -22.7094  -31.3273   21.4097 H   0  0  0  0  0  0
  -23.3791  -35.9665   23.3310 H   0  0  0  0  0  0
  -24.3658  -36.8908   22.2058 H   0  0  0  0  0  0
  -23.7227  -37.6556   23.6600 H   0  0  0  0  0  0
  -26.0373  -31.6026   20.5880 H   0  0  0  0  0  0
  -26.8318  -30.9058   21.9648 H   0  0  0  0  0  0
  -28.0709  -29.0710   21.2356 H   0  0  0  0  0  0
  -26.0107  -26.0596   18.8926 H   0  0  0  0  0  0
  -23.9737  -27.3410   18.9909 H   0  0  0  0  0  0
  -23.7244  -30.6280   19.4000 H   0  0  0  0  0  0
  -22.7478  -29.2634   19.8427 H   0  0  0  0  0  0
  -25.1269  -36.2048   25.0871 H   0  0  0  0  0  0
  -21.0090  -28.3114   24.1380 H   0  0  0  0  0  0
  -20.5724  -26.2256   23.3362 H   0  0  0  0  0  0
  -21.6655  -26.7562   22.0949 H   0  0  0  0  0  0
  -19.6972  -25.6675   21.0723 H   0  0  0  0  0  0
  -19.6668  -27.3731   20.6766 H   0  0  0  0  0  0
  -17.4279  -26.6839   21.3770 H   0  0  0  0  0  0
  -18.0357  -25.9971   22.8637 H   0  0  0  0  0  0
  -19.7924  -30.7143   24.2551 H   0  0  0  0  0  0
  -17.4999  -31.6152   24.5279 H   0  0  0  0  0  0
  -15.5375  -30.2933   23.7563 H   0  0  0  0  0  0
  -15.8736  -28.0801   22.6888 H   0  0  0  0  0  0
  -24.5914  -30.7026   25.7819 H   0  0  0  0  0  0
  -24.8902  -32.2847   26.4909 H   0  0  0  0  0  0
  -25.8107  -30.8875   27.0221 H   0  0  0  0  0  0
  -26.2855  -29.6811   24.1123 H   0  0  0  0  0  0
  -27.4175  -29.7300   25.4472 H   0  0  0  0  0  0
  -27.8651  -30.4477   23.9163 H   0  0  0  0  0  0
  -27.2798  -33.3528   26.2121 H   0  0  0  0  0  0
  -28.3865  -32.6764   25.0227 H   0  0  0  0  0  0
  -28.0804  -31.8250   26.5264 H   0  0  0  0  0  0
  -28.2618  -38.0110   24.7511 H   0  0  0  0  0  0
  -28.1063  -36.2638   24.6280 H   0  0  0  0  0  0
  -27.2322  -37.1492   25.8873 H   0  0  0  0  0  0
  -20.9246  -29.9050   21.7149 H   0  0  0  0  0  0
  -26.0225  -38.2941   24.1345 H   0  0  0  0  0  0
  -30.2190  -18.6616   17.9132 H   0  0  0  0  0  0
  -30.3968  -16.3438   18.6433 H   0  0  0  0  0  0
  -29.6292  -17.5719   22.7280 H   0  0  0  0  0  0
  -28.9147  -22.8080   22.2771 H   0  0  0  0  0  0
  -27.5535  -22.8192   21.1698 H   0  0  0  0  0  0
  -27.7639  -24.1225   22.3270 H   0  0  0  0  0  0
  -30.9588  -24.2997   21.8217 H   0  0  0  0  0  0
  -29.8485  -25.6231   22.1676 H   0  0  0  0  0  0
  -30.8116  -25.6540   20.7018 H   0  0  0  0  0  0
  -30.6709  -23.7576   19.1490 H   0  0  0  0  0  0
  -29.0871  -23.3021   18.6585 H   0  0  0  0  0  0
  -27.1828  -24.9426   20.2088 H   0  0  0  0  0  0
  -28.1969  -25.1474   18.8161 H   0  0  0  0  0  0
  -28.4892  -20.1077   17.7832 H   0  0  0  0  0  0
  -28.6573  -21.8198   17.8013 H   0  0  0  0  0  0
  -29.3352  -15.1231   21.8439 H   0  0  0  0  0  0
  -30.5333  -21.8130   20.8249 H   0  0  0  0  0  0
  1 25  1  0  0  0
  1 30  2  0  0  0
  1 84  1  0  0  0
  2  3  1  0  0  0
  2 25  1  0  0  0
  2 87  1  0  0  0
  2 88  1  0  0  0
  3  4  1  0  0  0
  3 89  1  0  0  0
  3 90  1  0  0  0
  4  5  1  0  0  0
  4 91  1  0  0  0
  4 92  1  0  0  0
  5  6  1  0  0  0
  5 26  1  0  0  0
  5 93  1  0  0  0
  6 25  1  0  0  0
  6 94  1  0  0  0
  6 95  1  0  0  0
  7  8  2  0  0  0
  7 26  1  0  0  0
  7 29  1  0  0  0
  8  9  1  0  0  0
  8 22  1  0  0  0
  9 10  1  0  0  0
  9 27  2  0  0  0
 10 11  2  0  0  0
 10 15  1  0  0  0
 11 12  1  0  0  0
 11 96  1  0  0  0
 12 13  2  0  0  0
 12 97  1  0  0  0
 13 14  1  0  0  0
 13 31  1  0  0  0
 14 15  2  0  0  0
 14 98  1  0  0  0
 15 99  1  0  0  0
 16 17  2  0  0  0
 16 21  1  0  0  0
 16 31  1  0  0  0
 17 18  1  0  0  0
 17100  1  0  0  0
 18 19  2  0  0  0
 18101  1  0  0  0
 19 20  1  0  0  0
 19 24  1  0  0  0
 20 21  2  0  0  0
 20102  1  0  0  0
 21 23  1  0  0  0
 22 28  1  0  0  0
 22 32  2  0  0  0
 26 27  1  0  0  0
 28103  1  0  0  0
 28104  1  0  0  0
 29105  1  0  0  0
 29106  1  0  0  0
 33 34  1  0  0  0
 33 66  1  0  0  0
 33 70  2  0  0  0
 34 36  1  0  0  0
 34 59  1  0  0  0
 34107  1  0  0  0
 35 44  2  0  0  0
 35 45  1  0  0  0
 35 68  1  0  0  0
 36 56  1  0  0  0
 36108  1  0  0  0
 37 39  1  0  0  0
 37 47  1  0  0  0
 37 66  1  0  0  0
 37109  1  0  0  0
 38 43  2  0  0  0
 38 46  1  0  0  0
 38 47  1  0  0  0
 39 64  1  0  0  0
 39 67  2  0  0  0
 40 52  1  0  0  0
 40 53  2  0  0  0
 40 58  1  0  0  0
 41110  1  0  0  0
 41111  1  0  0  0
 41112  1  0  0  0
 41 48  1  0  0  0
 42 43  1  0  0  0
 42 66  1  0  0  0
 42113  1  0  0  0
 42114  1  0  0  0
 43 44  1  0  0  0
 44115  1  0  0  0
 45 46  2  0  0  0
 45116  1  0  0  0
 46117  1  0  0  0
 47118  1  0  0  0
 47119  1  0  0  0
 48 56  1  0  0  0
 48 65  1  0  0  0
 48120  1  0  0  0
 49 50  1  0  0  0
 49 53  1  0  0  0
 49 64  1  0  0  0
 49121  1  0  0  0
 50 51  1  0  0  0
 50122  1  0  0  0
 50123  1  0  0  0
 51 52  1  0  0  0
 51124  1  0  0  0
 51125  1  0  0  0
 52126  1  0  0  0
 52127  1  0  0  0
 53 54  1  0  0  0
 54 55  2  0  0  0
 54128  1  0  0  0
 55 57  1  0  0  0
 55129  1  0  0  0
 56 69  2  0  0  0
 57 58  2  0  0  0
 57130  1  0  0  0
 58131  1  0  0  0
 59 60  1  0  0  0
 59 61  1  0  0  0
 59 62  1  0  0  0
 60132  1  0  0  0
 60133  1  0  0  0
 60134  1  0  0  0
 61135  1  0  0  0
 61136  1  0  0  0
 61137  1  0  0  0
 62138  1  0  0  0
 62139  1  0  0  0
 62140  1  0  0  0
 63 65  1  0  0  0
 63141  1  0  0  0
 63142  1  0  0  0
 63143  1  0  0  0
 64144  1  0  0  0
 65145  1  0  0  0
 68 81  1  0  0  0
 71 72  2  0  0  0
 71 74  1  0  0  0
 71146  1  0  0  0
 72 75  1  0  0  0
 72147  1  0  0  0
 73 75  2  0  0  0
 73 76  1  0  0  0
 73148  1  0  0  0
 74 76  2  0  0  0
 74 77  1  0  0  0
 75 84  1  0  0  0
 76 86  1  0  0  0
 77 83  1  0  0  0
 77 85  2  0  0  0
 78149  1  0  0  0
 78150  1  0  0  0
 78151  1  0  0  0
 78 82  1  0  0  0
 79 82  1  0  0  0
 79152  1  0  0  0
 79153  1  0  0  0
 79154  1  0  0  0
 80 82  1  0  0  0
 80 85  1  0  0  0
 80155  1  0  0  0
 80156  1  0  0  0
 81 82  1  0  0  0
 81157  1  0  0  0
 81158  1  0  0  0
 83159  1  0  0  0
 83160  1  0  0  0
 84161  1  0  0  0
 85162  1  0  0  0
M  CHG  1  85   1
M  ISO  4   1 100  68 101  81 101  84 100
M  END
> <chiral flag>
0

> <version>
0

> <s_m_source_file>
/data/baiqing/PycharmProjects/Reinvent-master-3.2/result/LINK_invent/BTK/process_docking_weight1_custom_product_contain_oxygen_bond_distance_aromatic_linkinvent_7_9_3/rearranged_h_0164.sdf

> <i_m_source_file_index>
28

> <r_mmod_Potential_Energy-OPLS-2005>
-150.743118286133

> <r_mmod_Stretch_Energy-OPLS-2005>
37.7916107177734

> <r_mmod_Bend_Energy-OPLS-2005>
102.111747741699

> <r_mmod_Torsional_Energy-OPLS-2005>
274.615905761719

> <r_mmod_Improper_Torsional_Energy-OPLS-2005>
3.94543075561523

> <r_mmod_Van_der_Waal_Energy-OPLS-2005>
190.041320800781

> <r_mmod_Electrostatic_Energy-OPLS-2005>
-357.101806640625

> <r_mmod_Solvation_Energy-OPLS-2005>
-416.465148925781

> <b_mmod_Minimization_Converged-OPLS-2005>
0

> <r_mmod_RMS_Derivative-OPLS-2005>
4.64685392379761

$$$$
28
                    3D
 Structure written by MMmdl.
157165  0  0  1  0            999 V2000
  -30.7679  -14.3795   20.6312 C   0  0  0  0  0  0
  -30.4099  -12.2763   19.4039 C   0  0  0  0  0  0
  -29.4817  -12.5080   18.1967 C   0  0  0  0  0  0
  -28.0064  -12.3721   18.6158 C   0  0  0  0  0  0
  -27.6653  -13.2045   19.8795 C   0  0  2  0  0  0
  -28.7062  -12.9672   20.9972 C   0  0  0  0  0  0
  -25.2611  -13.8170   20.5690 C   0  0  0  0  0  0
  -24.1852  -13.0447   20.9178 C   0  0  0  0  0  0
  -24.6404  -11.6916   20.8745 C   0  0  0  0  0  0
  -23.9070  -10.4301   21.0415 C   0  0  0  0  0  0
  -24.3623   -9.4213   21.9193 C   0  0  0  0  0  0
  -23.6295   -8.2249   22.0759 C   0  0  0  0  0  0
  -22.4282   -8.0290   21.3542 C   0  0  0  0  0  0
  -21.9917   -9.0269   20.4651 C   0  0  0  0  0  0
  -22.7247  -10.2146   20.3062 C   0  0  0  0  0  0
  -21.6849   -6.0743   22.5277 C   0  0  0  0  0  0
  -21.4016   -6.5649   23.8216 C   0  0  0  0  0  0
  -21.3656   -5.6798   24.9178 C   0  0  0  0  0  0
  -21.6042   -4.3064   24.7226 C   0  0  0  0  0  0
  -21.8819   -3.8156   23.4347 C   0  0  0  0  0  0
  -21.9197   -4.6972   22.3401 C   0  0  0  0  0  0
  -22.7872  -13.5248   21.1844 C   0  0  0  0  0  0
  -22.1661   -4.2162   21.0976 F   0  0  0  0  0  0
  -21.5631   -3.4544   25.7739 F   0  0  0  0  0  0
  -30.0444  -13.2456   20.4474 N   0  0  0  0  0  0
  -26.3045  -12.9338   20.3405 N   0  0  0  0  0  0
  -25.9332  -11.6502   20.5785 N   0  0  0  0  0  0
  -22.0513  -12.8230   22.0395 N   0  0  0  0  0  0
  -25.4362  -15.1886   20.4118 N   0  0  0  0  0  0
  -31.8418  -14.5893   20.0570 O   0  0  0  0  0  0
  -21.6641   -6.8888   21.4242 O   0  0  0  0  0  0
  -22.3560  -14.5561   20.6708 O   0  0  0  0  0  0
  -24.6113  -31.8689   23.2115 C   0  0  0  0  0  0
  -25.9022  -32.4831   23.8388 C   0  0  1  0  0  0
  -27.2315  -27.4515   20.0976 C   0  0  0  0  0  0
  -25.5882  -33.8622   24.2312 N   0  0  0  0  0  0
  -23.3965  -30.4928   21.5530 C   0  0  2  0  0  0
  -24.8405  -28.9580   20.1177 C   0  0  0  0  0  0
  -22.7390  -29.4650   22.5012 C   0  0  0  0  0  0
  -18.0256  -28.1364   22.8481 C   0  0  0  0  0  0
  -24.1486  -36.7328   23.2632 C   0  0  0  0  0  0
  -25.9213  -30.8412   21.3599 C   0  0  0  0  0  0
  -25.9982  -29.4750   20.7111 C   0  0  0  0  0  0
  -27.1960  -28.7297   20.6955 C   0  0  0  0  0  0
  -26.0560  -26.9458   19.4942 C   0  0  0  0  0  0
  -24.8634  -27.6928   19.5062 C   0  0  0  0  0  0
  -23.6026  -29.8239   20.1669 C   0  0  0  0  0  0
  -25.4104  -36.3117   24.0330 C   0  0  1  0  0  0
  -20.5844  -28.3637   23.1335 C   0  0  2  0  0  0
  -20.6745  -26.9387   22.5414 C   0  0  0  0  0  0
  -19.5736  -26.6375   21.5200 C   0  0  0  0  0  0
  -18.1905  -26.7906   22.1609 C   0  0  0  0  0  0
  -19.1505  -28.8818   23.2900 C   0  0  0  0  0  0
  -18.9446  -30.1427   23.8915 C   0  0  0  0  0  0
  -17.6454  -30.6586   24.0557 C   0  0  0  0  0  0
  -25.9029  -34.9481   23.5118 C   0  0  0  0  0  0
  -16.5343  -29.9091   23.6327 C   0  0  0  0  0  0
  -16.7249  -28.6504   23.0347 C   0  0  0  0  0  0
  -26.4448  -31.6606   25.0706 C   0  0  0  0  0  0
  -25.3732  -31.3706   26.1473 C   0  0  0  0  0  0
  -27.0254  -30.3051   24.6042 C   0  0  0  0  0  0
  -27.6029  -32.4296   25.7469 C   0  0  0  0  0  0
  -27.5580  -37.1812   24.8456 C   0  0  0  0  0  0
  -21.4120  -29.3016   22.3764 N   0  0  0  0  0  0
  -26.4290  -37.3799   23.9401 N   0  0  0  0  0  0
  -24.6616  -31.0803   22.1012 N   0  0  0  0  0  0
  -23.4189  -28.8188   23.3030 O   0  0  0  0  0  0
  -28.4280  -26.7700   20.0831 O   0  0  0  0  0  0
  -26.5606  -34.8937   22.4686 O   0  0  0  0  0  0
  -23.5325  -32.1425   23.7538 O   0  0  0  0  0  0
  -32.5116  -18.1629   22.1656 C   0  0  0  0  0  0
  -31.7734  -19.2256   21.6101 C   0  0  0  0  0  0
  -31.9881  -16.8572   22.1442 C   0  0  0  0  0  0
  -30.4951  -18.9939   21.0529 C   0  0  0  0  0  0
  -30.7280  -16.6120   21.5558 C   0  0  0  0  0  0
  -29.9707  -17.6813   21.0345 C   0  0  0  0  0  0
  -28.7904  -23.4487   22.0592 C   0  0  0  0  0  0
  -28.5796  -24.9496   21.7165 C   0  0  0  0  0  0
  -29.7266  -20.1508   20.4331 C   0  0  0  0  0  0
  -28.8820  -22.4371   20.9089 C   0  0  0  0  0  0
  -28.4083  -25.3436   20.2390 C   0  0  0  0  0  0
  -30.2287  -15.2930   21.4474 N   0  0  0  0  0  0
  -29.2791  -21.1188   21.4535 N   0  3  0  0  0  0
  -28.8995  -23.0819   23.2385 O   0  0  0  0  0  0
  -28.5646  -25.8001   22.6191 O   0  0  0  0  0  0
  -28.7583  -17.4337   20.4803 F   0  0  0  0  0  0
  -31.4553  -12.3541   19.0992 H   0  0  0  0  0  0
  -30.2915  -11.2616   19.7873 H   0  0  0  0  0  0
  -29.7107  -11.7948   17.4041 H   0  0  0  0  0  0
  -29.6561  -13.5002   17.7759 H   0  0  0  0  0  0
  -27.8137  -11.3156   18.8049 H   0  0  0  0  0  0
  -27.3528  -12.6557   17.7904 H   0  0  0  0  0  0
  -27.7171  -14.2557   19.5935 H   0  0  0  0  0  0
  -28.6688  -11.9308   21.3339 H   0  0  0  0  0  0
  -28.4687  -13.5637   21.8781 H   0  0  0  0  0  0
  -25.2768   -9.5691   22.4769 H   0  0  0  0  0  0
  -24.0014   -7.4636   22.7471 H   0  0  0  0  0  0
  -21.0852   -8.8791   19.8944 H   0  0  0  0  0  0
  -22.3714  -10.9695   19.6175 H   0  0  0  0  0  0
  -21.2004   -7.6160   23.9722 H   0  0  0  0  0  0
  -21.1476   -6.0529   25.9078 H   0  0  0  0  0  0
  -22.0601   -2.7619   23.2842 H   0  0  0  0  0  0
  -22.4125  -11.9873   22.4750 H   0  0  0  0  0  0
  -21.1132  -13.1256   22.2617 H   0  0  0  0  0  0
  -24.6761  -15.8495   20.5275 H   0  0  0  0  0  0
  -26.3031  -15.6276   20.1256 H   0  0  0  0  0  0
  -26.7097  -32.5558   23.1164 H   0  0  0  0  0  0
  -25.0017  -33.9778   25.0448 H   0  0  0  0  0  0
  -22.6837  -31.3083   21.4154 H   0  0  0  0  0  0
  -23.3735  -35.9674   23.3296 H   0  0  0  0  0  0
  -24.3590  -36.8948   22.2045 H   0  0  0  0  0  0
  -23.7250  -37.6534   23.6660 H   0  0  0  0  0  0
  -26.0165  -31.6052   20.5869 H   0  0  0  0  0  0
  -26.8157  -30.9043   21.9682 H   0  0  0  0  0  0
  -28.0927  -29.1263   21.1495 H   0  0  0  0  0  0
  -26.0432  -25.9949   18.9830 H   0  0  0  0  0  0
  -23.9771  -27.2945   19.0315 H   0  0  0  0  0  0
  -23.7075  -30.5989   19.4060 H   0  0  0  0  0  0
  -22.7280  -29.2405   19.8738 H   0  0  0  0  0  0
  -25.1273  -36.1981   25.0820 H   0  0  0  0  0  0
  -20.9904  -28.3214   24.1471 H   0  0  0  0  0  0
  -20.5646  -26.2258   23.3593 H   0  0  0  0  0  0
  -21.6624  -26.7444   22.1211 H   0  0  0  0  0  0
  -19.6918  -25.6291   21.1226 H   0  0  0  0  0  0
  -19.6690  -27.3194   20.6731 H   0  0  0  0  0  0
  -17.4167  -26.6635   21.4019 H   0  0  0  0  0  0
  -18.0322  -26.0051   22.9013 H   0  0  0  0  0  0
  -19.7941  -30.7205   24.2320 H   0  0  0  0  0  0
  -17.5027  -31.6276   24.5130 H   0  0  0  0  0  0
  -15.5349  -30.2998   23.7648 H   0  0  0  0  0  0
  -15.8637  -28.0833   22.7057 H   0  0  0  0  0  0
  -24.5885  -30.7073   25.7813 H   0  0  0  0  0  0
  -24.8946  -32.2875   26.4948 H   0  0  0  0  0  0
  -25.8087  -30.8857   27.0222 H   0  0  0  0  0  0
  -26.2773  -29.6848   24.1097 H   0  0  0  0  0  0
  -27.4035  -29.7251   25.4465 H   0  0  0  0  0  0
  -27.8612  -30.4351   23.9151 H   0  0  0  0  0  0
  -27.2649  -33.3585   26.2069 H   0  0  0  0  0  0
  -28.3847  -32.6865   25.0307 H   0  0  0  0  0  0
  -28.0694  -31.8404   26.5379 H   0  0  0  0  0  0
  -28.2576  -38.0127   24.7523 H   0  0  0  0  0  0
  -28.1088  -36.2659   24.6248 H   0  0  0  0  0  0
  -27.2303  -37.1425   25.8860 H   0  0  0  0  0  0
  -20.9279  -29.8766   21.7013 H   0  0  0  0  0  0
  -26.0187  -38.2870   24.1443 H   0  0  0  0  0  0
  -33.4886  -18.3450   22.5915 H   0  0  0  0  0  0
  -32.2017  -20.2190   21.6103 H   0  0  0  0  0  0
  -32.5683  -16.0421   22.5524 H   0  0  0  0  0  0
  -28.8680  -19.7923   19.8636 H   0  0  0  0  0  0
  -30.3875  -20.6383   19.7148 H   0  0  0  0  0  0
  -29.6293  -22.7831   20.1949 H   0  0  0  0  0  0
  -27.9261  -22.3648   20.3900 H   0  0  0  0  0  0
  -27.5097  -24.8715   19.8485 H   0  0  0  0  0  0
  -29.2439  -24.9402   19.6674 H   0  0  0  0  0  0
  -29.2876  -15.1203   21.7636 H   0  0  0  0  0  0
  -30.0297  -21.2848   22.1035 H   0  0  0  0  0  0
  -28.5157  -20.7332   21.9857 H   0  0  0  0  0  0
  1 25  1  0  0  0
  1 30  2  0  0  0
  1 82  1  0  0  0
  2  3  1  0  0  0
  2 25  1  0  0  0
  2 87  1  0  0  0
  2 88  1  0  0  0
  3  4  1  0  0  0
  3 89  1  0  0  0
  3 90  1  0  0  0
  4  5  1  0  0  0
  4 91  1  0  0  0
  4 92  1  0  0  0
  5  6  1  0  0  0
  5 26  1  0  0  0
  5 93  1  0  0  0
  6 25  1  0  0  0
  6 94  1  0  0  0
  6 95  1  0  0  0
  7  8  2  0  0  0
  7 26  1  0  0  0
  7 29  1  0  0  0
  8  9  1  0  0  0
  8 22  1  0  0  0
  9 10  1  0  0  0
  9 27  2  0  0  0
 10 11  2  0  0  0
 10 15  1  0  0  0
 11 12  1  0  0  0
 11 96  1  0  0  0
 12 13  2  0  0  0
 12 97  1  0  0  0
 13 14  1  0  0  0
 13 31  1  0  0  0
 14 15  2  0  0  0
 14 98  1  0  0  0
 15 99  1  0  0  0
 16 17  2  0  0  0
 16 21  1  0  0  0
 16 31  1  0  0  0
 17 18  1  0  0  0
 17100  1  0  0  0
 18 19  2  0  0  0
 18101  1  0  0  0
 19 20  1  0  0  0
 19 24  1  0  0  0
 20 21  2  0  0  0
 20102  1  0  0  0
 21 23  1  0  0  0
 22 28  1  0  0  0
 22 32  2  0  0  0
 26 27  1  0  0  0
 28103  1  0  0  0
 28104  1  0  0  0
 29105  1  0  0  0
 29106  1  0  0  0
 33 34  1  0  0  0
 33 66  1  0  0  0
 33 70  2  0  0  0
 34 36  1  0  0  0
 34 59  1  0  0  0
 34107  1  0  0  0
 35 44  2  0  0  0
 35 45  1  0  0  0
 35 68  1  0  0  0
 36 56  1  0  0  0
 36108  1  0  0  0
 37 39  1  0  0  0
 37 47  1  0  0  0
 37 66  1  0  0  0
 37109  1  0  0  0
 38 43  2  0  0  0
 38 46  1  0  0  0
 38 47  1  0  0  0
 39 64  1  0  0  0
 39 67  2  0  0  0
 40 52  1  0  0  0
 40 53  2  0  0  0
 40 58  1  0  0  0
 41110  1  0  0  0
 41111  1  0  0  0
 41112  1  0  0  0
 41 48  1  0  0  0
 42 43  1  0  0  0
 42 66  1  0  0  0
 42113  1  0  0  0
 42114  1  0  0  0
 43 44  1  0  0  0
 44115  1  0  0  0
 45 46  2  0  0  0
 45116  1  0  0  0
 46117  1  0  0  0
 47118  1  0  0  0
 47119  1  0  0  0
 48 56  1  0  0  0
 48 65  1  0  0  0
 48120  1  0  0  0
 49 50  1  0  0  0
 49 53  1  0  0  0
 49 64  1  0  0  0
 49121  1  0  0  0
 50 51  1  0  0  0
 50122  1  0  0  0
 50123  1  0  0  0
 51 52  1  0  0  0
 51124  1  0  0  0
 51125  1  0  0  0
 52126  1  0  0  0
 52127  1  0  0  0
 53 54  1  0  0  0
 54 55  2  0  0  0
 54128  1  0  0  0
 55 57  1  0  0  0
 55129  1  0  0  0
 56 69  2  0  0  0
 57 58  2  0  0  0
 57130  1  0  0  0
 58131  1  0  0  0
 59 60  1  0  0  0
 59 61  1  0  0  0
 59 62  1  0  0  0
 60132  1  0  0  0
 60133  1  0  0  0
 60134  1  0  0  0
 61135  1  0  0  0
 61136  1  0  0  0
 61137  1  0  0  0
 62138  1  0  0  0
 62139  1  0  0  0
 62140  1  0  0  0
 63 65  1  0  0  0
 63141  1  0  0  0
 63142  1  0  0  0
 63143  1  0  0  0
 64144  1  0  0  0
 65145  1  0  0  0
 68 81  1  0  0  0
 71 72  2  0  0  0
 71 73  1  0  0  0
 71146  1  0  0  0
 72 74  1  0  0  0
 72147  1  0  0  0
 73 75  2  0  0  0
 73148  1  0  0  0
 74 76  2  0  0  0
 74 79  1  0  0  0
 75 76  1  0  0  0
 75 82  1  0  0  0
 76 86  1  0  0  0
 77 78  1  0  0  0
 77 80  1  0  0  0
 77 84  2  0  0  0
 78 81  1  0  0  0
 78 85  2  0  0  0
 79 83  1  0  0  0
 79149  1  0  0  0
 79150  1  0  0  0
 80 83  1  0  0  0
 80151  1  0  0  0
 80152  1  0  0  0
 81153  1  0  0  0
 81154  1  0  0  0
 82155  1  0  0  0
 83156  1  0  0  0
 83157  1  0  0  0
M  CHG  1  83   1
M  ISO  4   1 100  68 101  81 101  82 100
M  END
> <chiral flag>
0

> <version>
0

> <s_m_source_file>
/data/baiqing/PycharmProjects/Reinvent-master-3.2/result/LINK_invent/BTK/process_docking_weight1_custom_product_contain_oxygen_bond_distance_aromatic_linkinvent_7_9_3/rearranged_h_0164.sdf

> <i_m_source_file_index>
29

> <r_mmod_Potential_Energy-OPLS-2005>
-380.444213867188

> <r_mmod_Stretch_Energy-OPLS-2005>
33.4712448120117

> <r_mmod_Bend_Energy-OPLS-2005>
89.7180328369141

> <r_mmod_Torsional_Energy-OPLS-2005>
227.050369262695

> <r_mmod_Improper_Torsional_Energy-OPLS-2005>
2.87307262420654

> <r_mmod_Van_der_Waal_Energy-OPLS-2005>
158.603500366211

> <r_mmod_Electrostatic_Energy-OPLS-2005>
-355.453460693359

> <r_mmod_Solvation_Energy-OPLS-2005>
-545.246704101562

> <b_mmod_Minimization_Converged-OPLS-2005>
0

> <r_mmod_RMS_Derivative-OPLS-2005>
1.90596866607666

$$$$
29
                    3D
 Structure written by MMmdl.
166175  0  0  1  0            999 V2000
  -30.6277  -14.6055   20.5109 C   0  0  0  0  0  0
  -30.4585  -12.3890   19.4414 C   0  0  0  0  0  0
  -29.5190  -12.5198   18.2214 C   0  0  0  0  0  0
  -28.0391  -12.3645   18.6282 C   0  0  0  0  0  0
  -27.6658  -13.2070   19.8773 C   0  0  2  0  0  0
  -28.7106  -13.0243   21.0003 C   0  0  0  0  0  0
  -25.2641  -13.8132   20.5773 C   0  0  0  0  0  0
  -24.1838  -13.0389   20.9151 C   0  0  0  0  0  0
  -24.6375  -11.6888   20.8653 C   0  0  0  0  0  0
  -23.8982  -10.4300   21.0350 C   0  0  0  0  0  0
  -24.3552   -9.4240   21.9142 C   0  0  0  0  0  0
  -23.6255   -8.2262   22.0743 C   0  0  0  0  0  0
  -22.4234   -8.0284   21.3533 C   0  0  0  0  0  0
  -21.9837   -9.0229   20.4621 C   0  0  0  0  0  0
  -22.7135  -10.2127   20.3033 C   0  0  0  0  0  0
  -21.6860   -6.0716   22.5263 C   0  0  0  0  0  0
  -21.4034   -6.5623   23.8188 C   0  0  0  0  0  0
  -21.3661   -5.6767   24.9146 C   0  0  0  0  0  0
  -21.6043   -4.3031   24.7196 C   0  0  0  0  0  0
  -21.8824   -3.8138   23.4325 C   0  0  0  0  0  0
  -21.9202   -4.6951   22.3381 C   0  0  0  0  0  0
  -22.7878  -13.5257   21.1763 C   0  0  0  0  0  0
  -22.1679   -4.2154   21.0948 F   0  0  0  0  0  0
  -21.5618   -3.4500   25.7698 F   0  0  0  0  0  0
  -30.0345  -13.3780   20.4451 N   0  0  0  0  0  0
  -26.3044  -12.9288   20.3331 N   0  0  0  0  0  0
  -25.9305  -11.6446   20.5671 N   0  0  0  0  0  0
  -22.0482  -12.8306   22.0367 N   0  0  0  0  0  0
  -25.4344  -15.1872   20.4503 N   0  0  0  0  0  0
  -31.7614  -14.8203   20.0691 O   0  0  0  0  0  0
  -21.6633   -6.8870   21.4236 O   0  0  0  0  0  0
  -22.3571  -14.5520   20.6553 O   0  0  0  0  0  0
  -24.6222  -31.8604   23.1983 C   0  0  0  0  0  0
  -25.9116  -32.4742   23.8274 C   0  0  1  0  0  0
  -27.2221  -27.3299   20.1191 C   0  0  0  0  0  0
  -25.5942  -33.8527   24.2219 N   0  0  0  0  0  0
  -23.4139  -30.4824   21.5449 C   0  0  2  0  0  0
  -24.8600  -28.9268   20.1214 C   0  0  0  0  0  0
  -22.7417  -29.4678   22.4948 C   0  0  0  0  0  0
  -18.0283  -28.1430   22.8432 C   0  0  0  0  0  0
  -24.1506  -36.7295   23.2628 C   0  0  0  0  0  0
  -25.9496  -30.7945   21.3678 C   0  0  0  0  0  0
  -26.0264  -29.4166   20.7209 C   0  0  0  0  0  0
  -27.2134  -28.6277   20.7128 C   0  0  0  0  0  0
  -26.0401  -26.8821   19.4973 C   0  0  0  0  0  0
  -24.8666  -27.6614   19.5114 C   0  0  0  0  0  0
  -23.6282  -29.8090   20.1649 C   0  0  0  0  0  0
  -25.4121  -36.3026   24.0298 C   0  0  1  0  0  0
  -20.5860  -28.3784   23.1313 C   0  0  2  0  0  0
  -20.6859  -26.9562   22.5273 C   0  0  0  0  0  0
  -19.5795  -26.6572   21.5088 C   0  0  0  0  0  0
  -18.1995  -26.7975   22.1572 C   0  0  0  0  0  0
  -19.1504  -28.8896   23.2893 C   0  0  0  0  0  0
  -18.9371  -30.1506   23.8904 C   0  0  0  0  0  0
  -17.6369  -30.6579   24.0606 C   0  0  0  0  0  0
  -25.9072  -34.9398   23.5058 C   0  0  0  0  0  0
  -16.5269  -29.9096   23.6321 C   0  0  0  0  0  0
  -16.7226  -28.6569   23.0253 C   0  0  0  0  0  0
  -26.4532  -31.6526   25.0622 C   0  0  0  0  0  0
  -25.3790  -31.3726   26.1382 C   0  0  0  0  0  0
  -27.0321  -30.2912   24.6040 C   0  0  0  0  0  0
  -27.6033  -32.4277   25.7445 C   0  0  0  0  0  0
  -27.5590  -37.1776   24.8453 C   0  0  0  0  0  0
  -21.4126  -29.3187   22.3733 N   0  0  0  0  0  0
  -26.4286  -37.3729   23.9412 N   0  0  0  0  0  0
  -24.6786  -31.0633   22.0931 N   0  0  0  0  0  0
  -23.4141  -28.8196   23.3023 O   0  0  0  0  0  0
  -28.3399  -26.4942   20.0962 O   0  0  0  0  0  0
  -26.5660  -34.8855   22.4631 O   0  0  0  0  0  0
  -23.5416  -32.1384   23.7373 O   0  0  0  0  0  0
  -30.0017  -19.1869   19.6690 C   0  0  0  0  0  0
  -30.4113  -17.8349   19.8985 C   0  0  0  0  0  0
  -28.5865  -17.5943   21.4420 C   0  0  0  0  0  0
  -28.8687  -19.7793   20.3032 C   0  0  0  0  0  0
  -29.6611  -16.9931   20.7625 C   0  0  0  0  0  0
  -28.2247  -18.9488   21.2597 C   0  0  0  0  0  0
  -25.7809  -20.6780   19.5549 C   0  0  0  0  0  0
  -26.9884  -20.6910   18.9577 C   0  0  0  0  0  0
  -28.2782  -23.8661   19.9420 C   0  0  0  0  0  0
  -25.5541  -21.4097   20.8732 C   0  0  0  0  0  0
  -28.2283  -21.1209   19.7454 C   0  0  1  0  0  0
  -27.9283  -22.4394   20.6304 C   0  0  2  0  0  0
  -24.6485  -19.7912   19.0377 C   0  0  0  0  0  0
  -27.2260  -20.0483   17.6025 C   0  0  0  0  0  0
  -28.2417  -25.1974   20.8016 C   0  0  0  0  0  0
  -29.8285  -15.5762   21.0125 N   0  0  0  0  0  0
  -26.4846  -22.5665   21.0334 N   0  3  0  0  0  0
  -28.5817  -23.9611   18.7468 O   0  0  0  0  0  0
  -27.1962  -19.4083   21.9923 F   0  0  0  0  0  0
  -31.4922  -12.5540   19.1258 H   0  0  0  0  0  0
  -30.4292  -11.3882   19.8680 H   0  0  0  0  0  0
  -29.7891  -11.7750   17.4705 H   0  0  0  0  0  0
  -29.6616  -13.4983   17.7601 H   0  0  0  0  0  0
  -27.8559  -11.3082   18.8194 H   0  0  0  0  0  0
  -27.3918  -12.6332   17.7941 H   0  0  0  0  0  0
  -27.6935  -14.2510   19.5671 H   0  0  0  0  0  0
  -28.7210  -11.9930   21.3598 H   0  0  0  0  0  0
  -28.4389  -13.6263   21.8723 H   0  0  0  0  0  0
  -25.2704   -9.5717   22.4707 H   0  0  0  0  0  0
  -23.9967   -7.4659   22.7475 H   0  0  0  0  0  0
  -21.0769   -8.8692   19.8949 H   0  0  0  0  0  0
  -22.3539  -10.9639   19.6169 H   0  0  0  0  0  0
  -21.2078   -7.6140   23.9668 H   0  0  0  0  0  0
  -21.1462   -6.0517   25.9020 H   0  0  0  0  0  0
  -22.0614   -2.7611   23.2795 H   0  0  0  0  0  0
  -22.4079  -12.0033   22.4855 H   0  0  0  0  0  0
  -21.1093  -13.1384   22.2465 H   0  0  0  0  0  0
  -24.6723  -15.8234   20.6582 H   0  0  0  0  0  0
  -26.3013  -15.6604   20.2239 H   0  0  0  0  0  0
  -26.7169  -32.5425   23.0998 H   0  0  0  0  0  0
  -24.9958  -33.9641   25.0279 H   0  0  0  0  0  0
  -22.7092  -31.3017   21.3958 H   0  0  0  0  0  0
  -23.3712  -35.9694   23.3259 H   0  0  0  0  0  0
  -24.3617  -36.8974   22.2067 H   0  0  0  0  0  0
  -23.7326  -37.6493   23.6702 H   0  0  0  0  0  0
  -26.0758  -31.5557   20.5963 H   0  0  0  0  0  0
  -26.8345  -30.8477   21.9917 H   0  0  0  0  0  0
  -28.1072  -29.0004   21.1932 H   0  0  0  0  0  0
  -26.0222  -25.9227   19.0013 H   0  0  0  0  0  0
  -23.9717  -27.2761   19.0502 H   0  0  0  0  0  0
  -22.7463  -29.2362   19.8690 H   0  0  0  0  0  0
  -23.7502  -30.5756   19.3972 H   0  0  0  0  0  0
  -25.1312  -36.1823   25.0791 H   0  0  0  0  0  0
  -20.9930  -28.3362   24.1453 H   0  0  0  0  0  0
  -20.6097  -26.2312   23.3405 H   0  0  0  0  0  0
  -21.6716  -26.7866   22.0901 H   0  0  0  0  0  0
  -19.7025  -25.6605   21.0825 H   0  0  0  0  0  0
  -19.6637  -27.3603   20.6782 H   0  0  0  0  0  0
  -17.4281  -26.6811   21.3952 H   0  0  0  0  0  0
  -18.0362  -26.0038   22.8902 H   0  0  0  0  0  0
  -19.7823  -30.7373   24.2265 H   0  0  0  0  0  0
  -17.4847  -31.6213   24.5284 H   0  0  0  0  0  0
  -15.5264  -30.2956   23.7656 H   0  0  0  0  0  0
  -15.8621  -28.0967   22.6874 H   0  0  0  0  0  0
  -24.5885  -30.7161   25.7750 H   0  0  0  0  0  0
  -24.9100  -32.2960   26.4790 H   0  0  0  0  0  0
  -25.8131  -30.8894   27.0142 H   0  0  0  0  0  0
  -26.2850  -29.6689   24.1084 H   0  0  0  0  0  0
  -27.4052  -29.7121   25.4500 H   0  0  0  0  0  0
  -27.8726  -30.4160   23.9190 H   0  0  0  0  0  0
  -27.2535  -33.3514   26.2056 H   0  0  0  0  0  0
  -28.3846  -32.6950   25.0325 H   0  0  0  0  0  0
  -28.0684  -31.8385   26.5363 H   0  0  0  0  0  0
  -28.2541  -38.0120   24.7482 H   0  0  0  0  0  0
  -28.1118  -36.2632   24.6256 H   0  0  0  0  0  0
  -27.2295  -37.1406   25.8842 H   0  0  0  0  0  0
  -20.9292  -29.8917   21.6923 H   0  0  0  0  0  0
  -26.0125  -38.2786   24.1385 H   0  0  0  0  0  0
  -30.5399  -19.7529   18.9253 H   0  0  0  0  0  0
  -31.2620  -17.4471   19.3598 H   0  0  0  0  0  0
  -27.9923  -16.9815   22.1015 H   0  0  0  0  0  0
  -25.5432  -20.7634   21.7460 H   0  0  0  0  0  0
  -24.5366  -21.7975   20.8577 H   0  0  0  0  0  0
  -28.9535  -21.4484   19.0050 H   0  0  0  0  0  0
  -28.5429  -22.3496   21.5256 H   0  0  0  0  0  0
  -24.8810  -18.7579   19.3027 H   0  0  0  0  0  0
  -24.5420  -19.8048   17.9545 H   0  0  0  0  0  0
  -23.6769  -20.0351   19.4666 H   0  0  0  0  0  0
  -27.4676  -18.9941   17.7267 H   0  0  0  0  0  0
  -28.0270  -20.5552   17.0698 H   0  0  0  0  0  0
  -26.3575  -20.1363   16.9502 H   0  0  0  0  0  0
  -29.1112  -25.1501   21.4575 H   0  0  0  0  0  0
  -27.3714  -25.1901   21.4518 H   0  0  0  0  0  0
  -29.0386  -15.1711   21.4951 H   0  0  0  0  0  0
  -26.4049  -22.9436   21.9650 H   0  0  0  0  0  0
  -26.1112  -23.2717   20.4161 H   0  0  0  0  0  0
  1 25  1  0  0  0
  1 30  2  0  0  0
  1 86  1  0  0  0
  2  3  1  0  0  0
  2 25  1  0  0  0
  2 90  1  0  0  0
  2 91  1  0  0  0
  3  4  1  0  0  0
  3 92  1  0  0  0
  3 93  1  0  0  0
  4  5  1  0  0  0
  4 94  1  0  0  0
  4 95  1  0  0  0
  5  6  1  0  0  0
  5 26  1  0  0  0
  5 96  1  0  0  0
  6 25  1  0  0  0
  6 97  1  0  0  0
  6 98  1  0  0  0
  7  8  2  0  0  0
  7 26  1  0  0  0
  7 29  1  0  0  0
  8  9  1  0  0  0
  8 22  1  0  0  0
  9 10  1  0  0  0
  9 27  2  0  0  0
 10 11  2  0  0  0
 10 15  1  0  0  0
 11 12  1  0  0  0
 11 99  1  0  0  0
 12 13  2  0  0  0
 12100  1  0  0  0
 13 14  1  0  0  0
 13 31  1  0  0  0
 14 15  2  0  0  0
 14101  1  0  0  0
 15102  1  0  0  0
 16 17  2  0  0  0
 16 21  1  0  0  0
 16 31  1  0  0  0
 17 18  1  0  0  0
 17103  1  0  0  0
 18 19  2  0  0  0
 18104  1  0  0  0
 19 20  1  0  0  0
 19 24  1  0  0  0
 20 21  2  0  0  0
 20105  1  0  0  0
 21 23  1  0  0  0
 22 28  1  0  0  0
 22 32  2  0  0  0
 26 27  1  0  0  0
 28106  1  0  0  0
 28107  1  0  0  0
 29108  1  0  0  0
 29109  1  0  0  0
 33 34  1  0  0  0
 33 66  1  0  0  0
 33 70  2  0  0  0
 34 36  1  0  0  0
 34 59  1  0  0  0
 34110  1  0  0  0
 35 44  2  0  0  0
 35 45  1  0  0  0
 35 68  1  0  0  0
 36 56  1  0  0  0
 36111  1  0  0  0
 37 39  1  0  0  0
 37 47  1  0  0  0
 37 66  1  0  0  0
 37112  1  0  0  0
 38 43  2  0  0  0
 38 46  1  0  0  0
 38 47  1  0  0  0
 39 64  1  0  0  0
 39 67  2  0  0  0
 40 52  1  0  0  0
 40 53  2  0  0  0
 40 58  1  0  0  0
 41113  1  0  0  0
 41114  1  0  0  0
 41115  1  0  0  0
 41 48  1  0  0  0
 42 43  1  0  0  0
 42 66  1  0  0  0
 42116  1  0  0  0
 42117  1  0  0  0
 43 44  1  0  0  0
 44118  1  0  0  0
 45 46  2  0  0  0
 45119  1  0  0  0
 46120  1  0  0  0
 47121  1  0  0  0
 47122  1  0  0  0
 48 56  1  0  0  0
 48 65  1  0  0  0
 48123  1  0  0  0
 49 50  1  0  0  0
 49 53  1  0  0  0
 49 64  1  0  0  0
 49124  1  0  0  0
 50 51  1  0  0  0
 50125  1  0  0  0
 50126  1  0  0  0
 51 52  1  0  0  0
 51127  1  0  0  0
 51128  1  0  0  0
 52129  1  0  0  0
 52130  1  0  0  0
 53 54  1  0  0  0
 54 55  2  0  0  0
 54131  1  0  0  0
 55 57  1  0  0  0
 55132  1  0  0  0
 56 69  2  0  0  0
 57 58  2  0  0  0
 57133  1  0  0  0
 58134  1  0  0  0
 59 60  1  0  0  0
 59 61  1  0  0  0
 59 62  1  0  0  0
 60135  1  0  0  0
 60136  1  0  0  0
 60137  1  0  0  0
 61138  1  0  0  0
 61139  1  0  0  0
 61140  1  0  0  0
 62141  1  0  0  0
 62142  1  0  0  0
 62143  1  0  0  0
 63 65  1  0  0  0
 63144  1  0  0  0
 63145  1  0  0  0
 63146  1  0  0  0
 64147  1  0  0  0
 65148  1  0  0  0
 68 85  1  0  0  0
 71 72  2  0  0  0
 71 74  1  0  0  0
 71149  1  0  0  0
 72 75  1  0  0  0
 72150  1  0  0  0
 73 75  2  0  0  0
 73 76  1  0  0  0
 73151  1  0  0  0
 74 76  2  0  0  0
 74 81  1  0  0  0
 75 86  1  0  0  0
 76 89  1  0  0  0
 77 78  2  0  0  0
 77 80  1  0  0  0
 77 83  1  0  0  0
 78 81  1  0  0  0
 78 84  1  0  0  0
 79 85  1  0  0  0
 79 88  2  0  0  0
 79 82  1  0  0  0
 80 87  1  0  0  0
 80152  1  0  0  0
 80153  1  0  0  0
 81 82  1  0  0  0
 81154  1  0  0  0
 82 87  1  0  0  0
 82155  1  0  0  0
 83156  1  0  0  0
 83157  1  0  0  0
 83158  1  0  0  0
 84159  1  0  0  0
 84160  1  0  0  0
 84161  1  0  0  0
 85162  1  0  0  0
 85163  1  0  0  0
 86164  1  0  0  0
 87165  1  0  0  0
 87166  1  0  0  0
M  CHG  1  87   1
M  ISO  4   1 100  68 101  85 101  86 100
M  END
> <chiral flag>
0

> <version>
0

> <s_m_source_file>
/data/baiqing/PycharmProjects/Reinvent-master-3.2/result/LINK_invent/BTK/process_docking_weight1_custom_product_contain_oxygen_bond_distance_aromatic_linkinvent_7_9_3/rearranged_h_0164.sdf

> <i_m_source_file_index>
30

> <r_mmod_Potential_Energy-OPLS-2005>
-47.5037803649902

> <r_mmod_Stretch_Energy-OPLS-2005>
87.0995025634766

> <r_mmod_Bend_Energy-OPLS-2005>
174.552719116211

> <r_mmod_Torsional_Energy-OPLS-2005>
311.609100341797

> <r_mmod_Improper_Torsional_Energy-OPLS-2005>
5.9379825592041

> <r_mmod_Van_der_Waal_Energy-OPLS-2005>
149.663513183594

> <r_mmod_Electrostatic_Energy-OPLS-2005>
-331.351196289062

> <r_mmod_Solvation_Energy-OPLS-2005>
-485.400787353516

> <b_mmod_Minimization_Converged-OPLS-2005>
0

> <r_mmod_RMS_Derivative-OPLS-2005>
8.6771183013916

$$$$
30
                    3D
 Structure written by MMmdl.
162170  0  0  1  0            999 V2000
  -30.6710  -14.5213   20.5594 C   0  0  0  0  0  0
  -30.4385  -12.3327   19.4378 C   0  0  0  0  0  0
  -29.5092  -12.5104   18.2178 C   0  0  0  0  0  0
  -28.0283  -12.3646   18.6239 C   0  0  0  0  0  0
  -27.6616  -13.1982   19.8800 C   0  0  2  0  0  0
  -28.7048  -12.9955   21.0035 C   0  0  0  0  0  0
  -25.2623  -13.8109   20.5689 C   0  0  0  0  0  0
  -24.1858  -13.0407   20.9161 C   0  0  0  0  0  0
  -24.6385  -11.6867   20.8731 C   0  0  0  0  0  0
  -23.9034  -10.4269   21.0409 C   0  0  0  0  0  0
  -24.3603   -9.4193   21.9166 C   0  0  0  0  0  0
  -23.6268   -8.2240   22.0747 C   0  0  0  0  0  0
  -22.4264   -8.0261   21.3531 C   0  0  0  0  0  0
  -21.9898   -9.0240   20.4649 C   0  0  0  0  0  0
  -22.7235  -10.2106   20.3041 C   0  0  0  0  0  0
  -21.6842   -6.0736   22.5278 C   0  0  0  0  0  0
  -21.4019   -6.5631   23.8217 C   0  0  0  0  0  0
  -21.3659   -5.6772   24.9171 C   0  0  0  0  0  0
  -21.6025   -4.3031   24.7220 C   0  0  0  0  0  0
  -21.8832   -3.8138   23.4338 C   0  0  0  0  0  0
  -21.9200   -4.6966   22.3402 C   0  0  0  0  0  0
  -22.7881  -13.5238   21.1815 C   0  0  0  0  0  0
  -22.1665   -4.2162   21.0980 F   0  0  0  0  0  0
  -21.5628   -3.4510   25.7731 F   0  0  0  0  0  0
  -30.0353  -13.3176   20.4596 N   0  0  0  0  0  0
  -26.3032  -12.9254   20.3398 N   0  0  0  0  0  0
  -25.9311  -11.6425   20.5752 N   0  0  0  0  0  0
  -22.0506  -12.8226   22.0361 N   0  0  0  0  0  0
  -25.4376  -15.1840   20.4160 N   0  0  0  0  0  0
  -31.7913  -14.7185   20.0849 O   0  0  0  0  0  0
  -21.6613   -6.8881   21.4237 O   0  0  0  0  0  0
  -22.3577  -14.5558   20.6668 O   0  0  0  0  0  0
  -24.6154  -31.8687   23.2060 C   0  0  0  0  0  0
  -25.9036  -32.4817   23.8385 C   0  0  1  0  0  0
  -27.2324  -27.4006   20.1311 C   0  0  0  0  0  0
  -25.5887  -33.8618   24.2324 N   0  0  0  0  0  0
  -23.4104  -30.4857   21.5461 C   0  0  2  0  0  0
  -24.8593  -28.9459   20.1181 C   0  0  0  0  0  0
  -22.7445  -29.4641   22.4953 C   0  0  0  0  0  0
  -18.0287  -28.1397   22.8499 C   0  0  0  0  0  0
  -24.1492  -36.7305   23.2635 C   0  0  0  0  0  0
  -25.9400  -30.8228   21.3708 C   0  0  0  0  0  0
  -26.0179  -29.4512   20.7248 C   0  0  0  0  0  0
  -27.2094  -28.6849   20.7270 C   0  0  0  0  0  0
  -26.0613  -26.9178   19.5149 C   0  0  0  0  0  0
  -24.8746  -27.6774   19.5125 C   0  0  0  0  0  0
  -23.6252  -29.8169   20.1610 C   0  0  0  0  0  0
  -25.4113  -36.3109   24.0328 C   0  0  1  0  0  0
  -20.5883  -28.3679   23.1315 C   0  0  2  0  0  0
  -20.6778  -26.9420   22.5427 C   0  0  0  0  0  0
  -19.5754  -26.6395   21.5231 C   0  0  0  0  0  0
  -18.1933  -26.7942   22.1635 C   0  0  0  0  0  0
  -19.1538  -28.8850   23.2905 C   0  0  0  0  0  0
  -18.9464  -30.1454   23.8922 C   0  0  0  0  0  0
  -17.6461  -30.6594   24.0564 C   0  0  0  0  0  0
  -25.9029  -34.9473   23.5112 C   0  0  0  0  0  0
  -16.5353  -29.9109   23.6327 C   0  0  0  0  0  0
  -16.7272  -28.6530   23.0353 C   0  0  0  0  0  0
  -26.4480  -31.6584   25.0706 C   0  0  0  0  0  0
  -25.3741  -31.3680   26.1451 C   0  0  0  0  0  0
  -27.0314  -30.3007   24.6098 C   0  0  0  0  0  0
  -27.6073  -32.4286   25.7476 C   0  0  0  0  0  0
  -27.5583  -37.1812   24.8468 C   0  0  0  0  0  0
  -21.4150  -29.3051   22.3692 N   0  0  0  0  0  0
  -26.4317  -37.3773   23.9386 N   0  0  0  0  0  0
  -24.6726  -31.0764   22.0994 N   0  0  0  0  0  0
  -23.4193  -28.8185   23.3014 O   0  0  0  0  0  0
  -28.3795  -26.6327   20.0818 O   0  0  0  0  0  0
  -26.5609  -34.8926   22.4697 O   0  0  0  0  0  0
  -23.5316  -32.1465   23.7421 O   0  0  0  0  0  0
  -29.0358  -16.7905   19.2064 C   0  0  0  0  0  0
  -29.9258  -18.0519   21.0857 C   0  0  0  0  0  0
  -28.6501  -17.9893   18.5744 C   0  0  0  0  0  0
  -28.9716  -19.2476   19.1604 C   0  0  0  0  0  0
  -29.6874  -16.7936   20.4575 C   0  0  0  0  0  0
  -29.5658  -19.2870   20.4592 C   0  0  0  0  0  0
  -27.8855  -17.8709   17.3249 C   0  0  0  0  0  0
  -29.2395  -23.0357   21.3094 C   0  0  0  0  0  0
  -28.3417  -24.1733   20.6738 C   0  0  0  0  0  0
  -28.7595  -20.5351   18.3565 C   0  0  0  0  0  0
  -28.7677  -21.5493   21.2637 C   0  0  0  0  0  0
  -28.5531  -25.6490   21.1348 C   0  0  0  0  0  0
  -28.3073  -17.0940   16.3295 N   0  0  0  0  0  0
  -29.9533  -15.5330   21.1024 N   0  0  0  0  0  0
  -29.8331  -20.5183   21.1199 N   0  0  0  0  0  0
  -26.7347  -18.5290   17.1808 N   0  3  0  0  0  0
  -30.3168  -23.3137   21.8494 O   0  0  0  0  0  0
  -27.4783  -23.8887   19.8332 O   0  0  0  0  0  0
  -31.4845  -12.4471   19.1402 H   0  0  0  0  0  0
  -30.3513  -11.3202   19.8359 H   0  0  0  0  0  0
  -29.7530  -11.7739   17.4505 H   0  0  0  0  0  0
  -29.6757  -13.4881   17.7627 H   0  0  0  0  0  0
  -27.8386  -11.3090   18.8145 H   0  0  0  0  0  0
  -27.3831  -12.6407   17.7893 H   0  0  0  0  0  0
  -27.6859  -14.2420   19.5828 H   0  0  0  0  0  0
  -28.6946  -11.9591   21.3459 H   0  0  0  0  0  0
  -28.4546  -13.5926   21.8798 H   0  0  0  0  0  0
  -25.2781   -9.5649   22.4698 H   0  0  0  0  0  0
  -23.9991   -7.4629   22.7460 H   0  0  0  0  0  0
  -21.0825   -8.8753   19.8929 H   0  0  0  0  0  0
  -22.3732  -10.9621   19.6108 H   0  0  0  0  0  0
  -21.2007   -7.6144   23.9732 H   0  0  0  0  0  0
  -21.1458   -6.0491   25.9075 H   0  0  0  0  0  0
  -22.0616   -2.7604   23.2824 H   0  0  0  0  0  0
  -22.4114  -11.9892   22.4778 H   0  0  0  0  0  0
  -21.1118  -13.1233   22.2559 H   0  0  0  0  0  0
  -24.6671  -15.8354   20.5336 H   0  0  0  0  0  0
  -26.2990  -15.6318   20.1335 H   0  0  0  0  0  0
  -26.7122  -32.5496   23.1167 H   0  0  0  0  0  0
  -25.0042  -33.9826   25.0466 H   0  0  0  0  0  0
  -22.6946  -31.2953   21.4007 H   0  0  0  0  0  0
  -23.3751  -35.9642   23.3329 H   0  0  0  0  0  0
  -24.3585  -36.8886   22.2043 H   0  0  0  0  0  0
  -23.7273  -37.6518   23.6645 H   0  0  0  0  0  0
  -26.0554  -31.5874   20.6005 H   0  0  0  0  0  0
  -26.8257  -30.8758   21.9930 H   0  0  0  0  0  0
  -28.1061  -29.0725   21.1913 H   0  0  0  0  0  0
  -26.0644  -25.9485   19.0411 H   0  0  0  0  0  0
  -23.9845  -27.2800   19.0458 H   0  0  0  0  0  0
  -23.7358  -30.5909   19.4008 H   0  0  0  0  0  0
  -22.7487  -29.2365   19.8642 H   0  0  0  0  0  0
  -25.1306  -36.1975   25.0822 H   0  0  0  0  0  0
  -20.9969  -28.3264   24.1429 H   0  0  0  0  0  0
  -20.5688  -26.2290   23.3618 H   0  0  0  0  0  0
  -21.6648  -26.7461   22.1200 H   0  0  0  0  0  0
  -19.6918  -25.6316   21.1251 H   0  0  0  0  0  0
  -19.6694  -27.3215   20.6766 H   0  0  0  0  0  0
  -17.4203  -26.6676   21.4053 H   0  0  0  0  0  0
  -18.0325  -26.0112   22.9041 H   0  0  0  0  0  0
  -19.7941  -30.7268   24.2298 H   0  0  0  0  0  0
  -17.5024  -31.6283   24.5173 H   0  0  0  0  0  0
  -15.5362  -30.3009   23.7646 H   0  0  0  0  0  0
  -15.8667  -28.0845   22.7044 H   0  0  0  0  0  0
  -24.5937  -30.7016   25.7762 H   0  0  0  0  0  0
  -24.8926  -32.2827   26.4903 H   0  0  0  0  0  0
  -25.8094  -30.8837   27.0203 H   0  0  0  0  0  0
  -26.2869  -29.6761   24.1156 H   0  0  0  0  0  0
  -27.4058  -29.7240   25.4565 H   0  0  0  0  0  0
  -27.8706  -30.4279   23.9260 H   0  0  0  0  0  0
  -27.2723  -33.3575   26.2097 H   0  0  0  0  0  0
  -28.3881  -32.6861   25.0309 H   0  0  0  0  0  0
  -28.0763  -31.8384   26.5363 H   0  0  0  0  0  0
  -28.2612  -38.0095   24.7486 H   0  0  0  0  0  0
  -28.1073  -36.2625   24.6350 H   0  0  0  0  0  0
  -27.2286  -37.1511   25.8868 H   0  0  0  0  0  0
  -20.9309  -29.8736   21.6899 H   0  0  0  0  0  0
  -26.0198  -38.2840   24.1402 H   0  0  0  0  0  0
  -28.8024  -15.8530   18.7198 H   0  0  0  0  0  0
  -30.3896  -18.0687   22.0626 H   0  0  0  0  0  0
  -28.9475  -20.3826   17.2941 H   0  0  0  0  0  0
  -29.4475  -21.3233   18.6605 H   0  0  0  0  0  0
  -27.7388  -20.9058   18.4569 H   0  0  0  0  0  0
  -27.9790  -21.4382   20.5241 H   0  0  0  0  0  0
  -28.2799  -21.3697   22.2232 H   0  0  0  0  0  0
  -29.5588  -25.7667   21.5393 H   0  0  0  0  0  0
  -27.8680  -25.8561   21.9592 H   0  0  0  0  0  0
  -29.2069  -16.6388   16.3914 H   0  0  0  0  0  0
  -27.8062  -17.0178   15.4578 H   0  0  0  0  0  0
  -29.1945  -15.2046   21.6825 H   0  0  0  0  0  0
  -30.4421  -20.4622   21.9339 H   0  0  0  0  0  0
  -26.3929  -19.0818   17.9524 H   0  0  0  0  0  0
  -26.1670  -18.4753   16.3516 H   0  0  0  0  0  0
  1 25  1  0  0  0
  1 30  2  0  0  0
  1 84  1  0  0  0
  2  3  1  0  0  0
  2 25  1  0  0  0
  2 89  1  0  0  0
  2 90  1  0  0  0
  3  4  1  0  0  0
  3 91  1  0  0  0
  3 92  1  0  0  0
  4  5  1  0  0  0
  4 93  1  0  0  0
  4 94  1  0  0  0
  5  6  1  0  0  0
  5 26  1  0  0  0
  5 95  1  0  0  0
  6 25  1  0  0  0
  6 96  1  0  0  0
  6 97  1  0  0  0
  7  8  2  0  0  0
  7 26  1  0  0  0
  7 29  1  0  0  0
  8  9  1  0  0  0
  8 22  1  0  0  0
  9 10  1  0  0  0
  9 27  2  0  0  0
 10 11  2  0  0  0
 10 15  1  0  0  0
 11 12  1  0  0  0
 11 98  1  0  0  0
 12 13  2  0  0  0
 12 99  1  0  0  0
 13 14  1  0  0  0
 13 31  1  0  0  0
 14 15  2  0  0  0
 14100  1  0  0  0
 15101  1  0  0  0
 16 17  2  0  0  0
 16 21  1  0  0  0
 16 31  1  0  0  0
 17 18  1  0  0  0
 17102  1  0  0  0
 18 19  2  0  0  0
 18103  1  0  0  0
 19 20  1  0  0  0
 19 24  1  0  0  0
 20 21  2  0  0  0
 20104  1  0  0  0
 21 23  1  0  0  0
 22 28  1  0  0  0
 22 32  2  0  0  0
 26 27  1  0  0  0
 28105  1  0  0  0
 28106  1  0  0  0
 29107  1  0  0  0
 29108  1  0  0  0
 33 34  1  0  0  0
 33 66  1  0  0  0
 33 70  2  0  0  0
 34 36  1  0  0  0
 34 59  1  0  0  0
 34109  1  0  0  0
 35 44  2  0  0  0
 35 45  1  0  0  0
 35 68  1  0  0  0
 36 56  1  0  0  0
 36110  1  0  0  0
 37 39  1  0  0  0
 37 47  1  0  0  0
 37 66  1  0  0  0
 37111  1  0  0  0
 38 43  2  0  0  0
 38 46  1  0  0  0
 38 47  1  0  0  0
 39 64  1  0  0  0
 39 67  2  0  0  0
 40 52  1  0  0  0
 40 53  2  0  0  0
 40 58  1  0  0  0
 41112  1  0  0  0
 41113  1  0  0  0
 41114  1  0  0  0
 41 48  1  0  0  0
 42 43  1  0  0  0
 42 66  1  0  0  0
 42115  1  0  0  0
 42116  1  0  0  0
 43 44  1  0  0  0
 44117  1  0  0  0
 45 46  2  0  0  0
 45118  1  0  0  0
 46119  1  0  0  0
 47120  1  0  0  0
 47121  1  0  0  0
 48 56  1  0  0  0
 48 65  1  0  0  0
 48122  1  0  0  0
 49 50  1  0  0  0
 49 53  1  0  0  0
 49 64  1  0  0  0
 49123  1  0  0  0
 50 51  1  0  0  0
 50124  1  0  0  0
 50125  1  0  0  0
 51 52  1  0  0  0
 51126  1  0  0  0
 51127  1  0  0  0
 52128  1  0  0  0
 52129  1  0  0  0
 53 54  1  0  0  0
 54 55  2  0  0  0
 54130  1  0  0  0
 55 57  1  0  0  0
 55131  1  0  0  0
 56 69  2  0  0  0
 57 58  2  0  0  0
 57132  1  0  0  0
 58133  1  0  0  0
 59 60  1  0  0  0
 59 61  1  0  0  0
 59 62  1  0  0  0
 60134  1  0  0  0
 60135  1  0  0  0
 60136  1  0  0  0
 61137  1  0  0  0
 61138  1  0  0  0
 61139  1  0  0  0
 62140  1  0  0  0
 62141  1  0  0  0
 62142  1  0  0  0
 63 65  1  0  0  0
 63143  1  0  0  0
 63144  1  0  0  0
 63145  1  0  0  0
 64146  1  0  0  0
 65147  1  0  0  0
 68 82  1  0  0  0
 71 73  2  0  0  0
 71 75  1  0  0  0
 71148  1  0  0  0
 72 75  2  0  0  0
 72 76  1  0  0  0
 72149  1  0  0  0
 73 74  1  0  0  0
 73 77  1  0  0  0
 74 76  2  0  0  0
 74 80  1  0  0  0
 75 84  1  0  0  0
 76 85  1  0  0  0
 77 83  1  0  0  0
 77 86  2  0  0  0
 78 79  1  0  0  0
 78 81  1  0  0  0
 78 87  2  0  0  0
 79 82  1  0  0  0
 79 88  2  0  0  0
 80150  1  0  0  0
 80151  1  0  0  0
 80152  1  0  0  0
 81 85  1  0  0  0
 81153  1  0  0  0
 81154  1  0  0  0
 82155  1  0  0  0
 82156  1  0  0  0
 83157  1  0  0  0
 83158  1  0  0  0
 84159  1  0  0  0
 85160  1  0  0  0
 86161  1  0  0  0
 86162  1  0  0  0
M  CHG  1  86   1
M  ISO  4   1 100  68 101  82 101  84 100
M  END
> <chiral flag>
0

> <version>
0

> <s_m_source_file>
/data/baiqing/PycharmProjects/Reinvent-master-3.2/result/LINK_invent/BTK/process_docking_weight1_custom_product_contain_oxygen_bond_distance_aromatic_linkinvent_7_9_3/rearranged_h_0164.sdf

> <i_m_source_file_index>
31

> <r_mmod_Potential_Energy-OPLS-2005>
-153.760635375977

> <r_mmod_Stretch_Energy-OPLS-2005>
56.346004486084

> <r_mmod_Bend_Energy-OPLS-2005>
110.228370666504

> <r_mmod_Torsional_Energy-OPLS-2005>
292.283660888672

> <r_mmod_Improper_Torsional_Energy-OPLS-2005>
9.66830921173096

> <r_mmod_Van_der_Waal_Energy-OPLS-2005>
146.95703125

> <r_mmod_Electrostatic_Energy-OPLS-2005>
-313.55224609375

> <r_mmod_Solvation_Energy-OPLS-2005>
-473.325897216797

> <b_mmod_Minimization_Converged-OPLS-2005>
0

> <r_mmod_RMS_Derivative-OPLS-2005>
4.85379648208618

$$$$
31
                    3D
 Structure written by MMmdl.
172181  0  0  1  0            999 V2000
  -30.6565  -14.5669   20.5065 C   0  0  0  0  0  0
  -30.4389  -12.3526   19.4286 C   0  0  0  0  0  0
  -29.4987  -12.4930   18.2116 C   0  0  0  0  0  0
  -28.0243  -12.3358   18.6333 C   0  0  0  0  0  0
  -27.6577  -13.1895   19.8751 C   0  0  2  0  0  0
  -28.7083  -13.0330   20.9971 C   0  0  0  0  0  0
  -25.2654  -13.8086   20.5743 C   0  0  0  0  0  0
  -24.1851  -13.0400   20.9177 C   0  0  0  0  0  0
  -24.6392  -11.6856   20.8776 C   0  0  0  0  0  0
  -23.9075  -10.4248   21.0466 C   0  0  0  0  0  0
  -24.3630   -9.4157   21.9242 C   0  0  0  0  0  0
  -23.6290   -8.2200   22.0772 C   0  0  0  0  0  0
  -22.4281   -8.0251   21.3538 C   0  0  0  0  0  0
  -21.9909   -9.0248   20.4668 C   0  0  0  0  0  0
  -22.7258  -10.2120   20.3103 C   0  0  0  0  0  0
  -21.6843   -6.0717   22.5284 C   0  0  0  0  0  0
  -21.3988   -6.5622   23.8208 C   0  0  0  0  0  0
  -21.3632   -5.6788   24.9165 C   0  0  0  0  0  0
  -21.6040   -4.3047   24.7243 C   0  0  0  0  0  0
  -21.8827   -3.8134   23.4363 C   0  0  0  0  0  0
  -21.9183   -4.6947   22.3415 C   0  0  0  0  0  0
  -22.7899  -13.5248   21.1826 C   0  0  0  0  0  0
  -22.1675   -4.2138   21.0992 F   0  0  0  0  0  0
  -21.5630   -3.4561   25.7762 F   0  0  0  0  0  0
  -30.0300  -13.3550   20.4322 N   0  0  0  0  0  0
  -26.3042  -12.9186   20.3418 N   0  0  0  0  0  0
  -25.9316  -11.6391   20.5819 N   0  0  0  0  0  0
  -22.0511  -12.8294   22.0401 N   0  0  0  0  0  0
  -25.4424  -15.1787   20.4174 N   0  0  0  0  0  0
  -31.7990  -14.7421   20.0760 O   0  0  0  0  0  0
  -21.6612   -6.8878   21.4255 O   0  0  0  0  0  0
  -22.3602  -14.5575   20.6680 O   0  0  0  0  0  0
  -24.6144  -31.8668   23.2081 C   0  0  0  0  0  0
  -25.9037  -32.4820   23.8374 C   0  0  1  0  0  0
  -27.2429  -27.4220   20.1043 C   0  0  0  0  0  0
  -25.5916  -33.8605   24.2354 N   0  0  0  0  0  0
  -23.4042  -30.4885   21.5486 C   0  0  2  0  0  0
  -24.8595  -28.9572   20.1081 C   0  0  0  0  0  0
  -22.7412  -29.4631   22.4970 C   0  0  0  0  0  0
  -18.0287  -28.1339   22.8483 C   0  0  0  0  0  0
  -24.1478  -36.7294   23.2629 C   0  0  0  0  0  0
  -25.9294  -30.8346   21.3570 C   0  0  0  0  0  0
  -26.0167  -29.4614   20.7143 C   0  0  0  0  0  0
  -27.2124  -28.7022   20.7103 C   0  0  0  0  0  0
  -26.0721  -26.9437   19.4737 C   0  0  0  0  0  0
  -24.8823  -27.6984   19.4822 C   0  0  0  0  0  0
  -23.6177  -29.8233   20.1616 C   0  0  0  0  0  0
  -25.4094  -36.3106   24.0354 C   0  0  1  0  0  0
  -20.5872  -28.3627   23.1319 C   0  0  2  0  0  0
  -20.6769  -26.9369   22.5408 C   0  0  0  0  0  0
  -19.5763  -26.6385   21.5178 C   0  0  0  0  0  0
  -18.1944  -26.7898   22.1593 C   0  0  0  0  0  0
  -19.1533  -28.8805   23.2906 C   0  0  0  0  0  0
  -18.9454  -30.1415   23.8910 C   0  0  0  0  0  0
  -17.6454  -30.6549   24.0561 C   0  0  0  0  0  0
  -25.9040  -34.9465   23.5166 C   0  0  0  0  0  0
  -16.5350  -29.9053   23.6303 C   0  0  0  0  0  0
  -16.7276  -28.6473   23.0319 C   0  0  0  0  0  0
  -26.4477  -31.6516   25.0641 C   0  0  0  0  0  0
  -25.3780  -31.3544   26.1407 C   0  0  0  0  0  0
  -27.0273  -30.2987   24.5899 C   0  0  0  0  0  0
  -27.6120  -32.4122   25.7400 C   0  0  0  0  0  0
  -27.5574  -37.1801   24.8477 C   0  0  0  0  0  0
  -21.4139  -29.3003   22.3714 N   0  0  0  0  0  0
  -26.4271  -37.3795   23.9427 N   0  0  0  0  0  0
  -24.6683  -31.0766   22.0976 N   0  0  0  0  0  0
  -23.4203  -28.8191   23.3022 O   0  0  0  0  0  0
  -28.3771  -26.6305   20.1327 O   0  0  0  0  0  0
  -26.5573  -34.8918   22.4710 O   0  0  0  0  0  0
  -23.5335  -32.1393   23.7474 O   0  0  0  0  0  0
  -28.4218  -17.9329   18.4607 C   0  0  0  0  0  0
  -28.8659  -16.7677   19.0995 C   0  0  0  0  0  0
  -30.0251  -18.1317   20.7513 C   0  0  0  0  0  0
  -28.7711  -19.2068   18.9468 C   0  0  0  0  0  0
  -29.6226  -19.3396   20.0819 C   0  0  0  0  0  0
  -29.6485  -16.8358   20.2683 C   0  0  0  0  0  0
  -26.8984  -20.6219   18.3907 C   0  0  0  0  0  0
  -28.1999  -20.3342   18.1888 C   0  0  0  0  0  0
  -29.0017  -24.1944   20.3225 C   0  0  0  0  0  0
  -26.1007  -21.6478   17.6097 C   0  0  0  0  0  0
  -28.9847  -21.0115   17.0664 C   0  0  0  0  0  0
  -26.7546  -21.9690   16.2612 C   0  0  0  0  0  0
  -28.2613  -22.2132   16.4188 C   0  0  0  0  0  0
  -30.2120  -20.7227   20.4930 C   0  0  0  0  0  0
  -28.4543  -22.7753   20.6292 C   0  0  0  0  0  0
  -28.1893  -25.3975   20.8716 C   0  0  0  0  0  0
  -29.3940  -21.7511   21.3618 C   0  0  1  0  0  0
  -29.9083  -15.6021   20.9690 N   0  0  0  0  0  0
  -28.7218  -21.1061   22.5108 N   0  3  0  0  0  0
  -30.0173  -24.3527   19.6403 O   0  0  0  0  0  0
  -31.4754  -12.4762   19.1067 H   0  0  0  0  0  0
  -30.3816  -11.3506   19.8509 H   0  0  0  0  0  0
  -29.7482  -11.7503   17.4523 H   0  0  0  0  0  0
  -29.6431  -13.4644   17.7404 H   0  0  0  0  0  0
  -27.8483  -11.2811   18.8537 H   0  0  0  0  0  0
  -27.3716  -12.5863   17.7956 H   0  0  0  0  0  0
  -27.6650  -14.2221   19.5516 H   0  0  0  0  0  0
  -28.7061  -12.0121   21.3835 H   0  0  0  0  0  0
  -28.4596  -13.6668   21.8483 H   0  0  0  0  0  0
  -25.2770   -9.5608   22.4829 H   0  0  0  0  0  0
  -23.9963   -7.4591   22.7516 H   0  0  0  0  0  0
  -21.0810   -8.8812   19.9021 H   0  0  0  0  0  0
  -22.3741  -10.9680   19.6226 H   0  0  0  0  0  0
  -21.1978   -7.6122   23.9704 H   0  0  0  0  0  0
  -21.1452   -6.0514   25.9059 H   0  0  0  0  0  0
  -22.0642   -2.7608   23.2898 H   0  0  0  0  0  0
  -22.4091  -11.9940   22.4800 H   0  0  0  0  0  0
  -21.1193  -13.1407   22.2681 H   0  0  0  0  0  0
  -24.6831  -15.8410   20.5178 H   0  0  0  0  0  0
  -26.3153  -15.6198   20.1530 H   0  0  0  0  0  0
  -26.7103  -32.5556   23.1130 H   0  0  0  0  0  0
  -25.0077  -33.9745   25.0519 H   0  0  0  0  0  0
  -22.6916  -31.3044   21.4093 H   0  0  0  0  0  0
  -23.3746  -35.9620   23.3282 H   0  0  0  0  0  0
  -24.3604  -36.8896   22.2051 H   0  0  0  0  0  0
  -23.7210  -37.6501   23.6617 H   0  0  0  0  0  0
  -26.0190  -31.5932   20.5771 H   0  0  0  0  0  0
  -26.8236  -30.9099   21.9613 H   0  0  0  0  0  0
  -28.1014  -29.0859   21.1877 H   0  0  0  0  0  0
  -26.0807  -25.9861   18.9744 H   0  0  0  0  0  0
  -24.0003  -27.3105   18.9931 H   0  0  0  0  0  0
  -23.7326  -30.5993   19.4044 H   0  0  0  0  0  0
  -22.7398  -29.2516   19.8593 H   0  0  0  0  0  0
  -25.1243  -36.1976   25.0840 H   0  0  0  0  0  0
  -20.9967  -28.3181   24.1438 H   0  0  0  0  0  0
  -20.5625  -26.2227   23.3574 H   0  0  0  0  0  0
  -21.6644  -26.7389   22.1229 H   0  0  0  0  0  0
  -19.6925  -25.6320   21.1158 H   0  0  0  0  0  0
  -19.6697  -27.3232   20.6736 H   0  0  0  0  0  0
  -17.4200  -26.6636   21.4012 H   0  0  0  0  0  0
  -18.0371  -26.0028   22.8979 H   0  0  0  0  0  0
  -19.7933  -30.7221   24.2296 H   0  0  0  0  0  0
  -17.5004  -31.6227   24.5158 H   0  0  0  0  0  0
  -15.5346  -30.2941   23.7616 H   0  0  0  0  0  0
  -15.8679  -28.0788   22.7007 H   0  0  0  0  0  0
  -24.6079  -30.6740   25.7756 H   0  0  0  0  0  0
  -24.8823  -32.2641   26.4790 H   0  0  0  0  0  0
  -25.8208  -30.8813   27.0184 H   0  0  0  0  0  0
  -26.2769  -29.6760   24.1028 H   0  0  0  0  0  0
  -27.4203  -29.7171   25.4241 H   0  0  0  0  0  0
  -27.8520  -30.4345   23.8904 H   0  0  0  0  0  0
  -27.2876  -33.3450   26.1992 H   0  0  0  0  0  0
  -28.3949  -32.6561   25.0213 H   0  0  0  0  0  0
  -28.0734  -31.8170   26.5281 H   0  0  0  0  0  0
  -28.2578  -38.0103   24.7521 H   0  0  0  0  0  0
  -28.1070  -36.2641   24.6274 H   0  0  0  0  0  0
  -27.2309  -37.1432   25.8882 H   0  0  0  0  0  0
  -20.9279  -29.8748   21.6965 H   0  0  0  0  0  0
  -26.0166  -38.2868   24.1443 H   0  0  0  0  0  0
  -27.8079  -17.8420   17.5747 H   0  0  0  0  0  0
  -28.5848  -15.8233   18.6684 H   0  0  0  0  0  0
  -30.6434  -18.1940   21.6354 H   0  0  0  0  0  0
  -26.3514  -20.0896   19.1564 H   0  0  0  0  0  0
  -25.9914  -22.5515   18.2110 H   0  0  0  0  0  0
  -25.0959  -21.2607   17.4384 H   0  0  0  0  0  0
  -29.1667  -20.2543   16.3041 H   0  0  0  0  0  0
  -29.9633  -21.3296   17.4229 H   0  0  0  0  0  0
  -26.2697  -22.8354   15.8088 H   0  0  0  0  0  0
  -26.5917  -21.1347   15.5767 H   0  0  0  0  0  0
  -28.7015  -22.4287   15.4427 H   0  0  0  0  0  0
  -28.4194  -23.1087   17.0207 H   0  0  0  0  0  0
  -30.5536  -21.2322   19.5931 H   0  0  0  0  0  0
  -31.1400  -20.5062   21.0268 H   0  0  0  0  0  0
  -28.1110  -22.3706   19.6883 H   0  0  0  0  0  0
  -27.5556  -22.9231   21.2266 H   0  0  0  0  0  0
  -28.4965  -25.5701   21.9032 H   0  0  0  0  0  0
  -27.1385  -25.1125   20.9087 H   0  0  0  0  0  0
  -30.1595  -22.3704   21.8341 H   0  0  0  0  0  0
  -29.0865  -15.2455   21.4303 H   0  0  0  0  0  0
  -28.0069  -20.4665   22.2124 H   0  0  0  0  0  0
  -28.2955  -21.7987   23.1018 H   0  0  0  0  0  0
  -29.3884  -20.6046   23.0699 H   0  0  0  0  0  0
  1 25  1  0  0  0
  1 30  2  0  0  0
  1 88  1  0  0  0
  2  3  1  0  0  0
  2 25  1  0  0  0
  2 91  1  0  0  0
  2 92  1  0  0  0
  3  4  1  0  0  0
  3 93  1  0  0  0
  3 94  1  0  0  0
  4  5  1  0  0  0
  4 95  1  0  0  0
  4 96  1  0  0  0
  5  6  1  0  0  0
  5 26  1  0  0  0
  5 97  1  0  0  0
  6 25  1  0  0  0
  6 98  1  0  0  0
  6 99  1  0  0  0
  7  8  2  0  0  0
  7 26  1  0  0  0
  7 29  1  0  0  0
  8  9  1  0  0  0
  8 22  1  0  0  0
  9 10  1  0  0  0
  9 27  2  0  0  0
 10 11  2  0  0  0
 10 15  1  0  0  0
 11 12  1  0  0  0
 11100  1  0  0  0
 12 13  2  0  0  0
 12101  1  0  0  0
 13 14  1  0  0  0
 13 31  1  0  0  0
 14 15  2  0  0  0
 14102  1  0  0  0
 15103  1  0  0  0
 16 17  2  0  0  0
 16 21  1  0  0  0
 16 31  1  0  0  0
 17 18  1  0  0  0
 17104  1  0  0  0
 18 19  2  0  0  0
 18105  1  0  0  0
 19 20  1  0  0  0
 19 24  1  0  0  0
 20 21  2  0  0  0
 20106  1  0  0  0
 21 23  1  0  0  0
 22 28  1  0  0  0
 22 32  2  0  0  0
 26 27  1  0  0  0
 28107  1  0  0  0
 28108  1  0  0  0
 29109  1  0  0  0
 29110  1  0  0  0
 33 34  1  0  0  0
 33 66  1  0  0  0
 33 70  2  0  0  0
 34 36  1  0  0  0
 34 59  1  0  0  0
 34111  1  0  0  0
 35 44  2  0  0  0
 35 45  1  0  0  0
 35 68  1  0  0  0
 36 56  1  0  0  0
 36112  1  0  0  0
 37 39  1  0  0  0
 37 47  1  0  0  0
 37 66  1  0  0  0
 37113  1  0  0  0
 38 43  2  0  0  0
 38 46  1  0  0  0
 38 47  1  0  0  0
 39 64  1  0  0  0
 39 67  2  0  0  0
 40 52  1  0  0  0
 40 53  2  0  0  0
 40 58  1  0  0  0
 41114  1  0  0  0
 41115  1  0  0  0
 41116  1  0  0  0
 41 48  1  0  0  0
 42 43  1  0  0  0
 42 66  1  0  0  0
 42117  1  0  0  0
 42118  1  0  0  0
 43 44  1  0  0  0
 44119  1  0  0  0
 45 46  2  0  0  0
 45120  1  0  0  0
 46121  1  0  0  0
 47122  1  0  0  0
 47123  1  0  0  0
 48 56  1  0  0  0
 48 65  1  0  0  0
 48124  1  0  0  0
 49 50  1  0  0  0
 49 53  1  0  0  0
 49 64  1  0  0  0
 49125  1  0  0  0
 50 51  1  0  0  0
 50126  1  0  0  0
 50127  1  0  0  0
 51 52  1  0  0  0
 51128  1  0  0  0
 51129  1  0  0  0
 52130  1  0  0  0
 52131  1  0  0  0
 53 54  1  0  0  0
 54 55  2  0  0  0
 54132  1  0  0  0
 55 57  1  0  0  0
 55133  1  0  0  0
 56 69  2  0  0  0
 57 58  2  0  0  0
 57134  1  0  0  0
 58135  1  0  0  0
 59 60  1  0  0  0
 59 61  1  0  0  0
 59 62  1  0  0  0
 60136  1  0  0  0
 60137  1  0  0  0
 60138  1  0  0  0
 61139  1  0  0  0
 61140  1  0  0  0
 61141  1  0  0  0
 62142  1  0  0  0
 62143  1  0  0  0
 62144  1  0  0  0
 63 65  1  0  0  0
 63145  1  0  0  0
 63146  1  0  0  0
 63147  1  0  0  0
 64148  1  0  0  0
 65149  1  0  0  0
 68 86  1  0  0  0
 71 72  2  0  0  0
 71 74  1  0  0  0
 71150  1  0  0  0
 72 76  1  0  0  0
 72151  1  0  0  0
 73 75  1  0  0  0
 73 76  2  0  0  0
 73152  1  0  0  0
 74 75  2  0  0  0
 74 78  1  0  0  0
 75 84  1  0  0  0
 76 88  1  0  0  0
 77 78  2  0  0  0
 77 80  1  0  0  0
 77153  1  0  0  0
 78 81  1  0  0  0
 79 85  1  0  0  0
 79 86  1  0  0  0
 79 90  2  0  0  0
 80 82  1  0  0  0
 80154  1  0  0  0
 80155  1  0  0  0
 81 83  1  0  0  0
 81156  1  0  0  0
 81157  1  0  0  0
 82 83  1  0  0  0
 82158  1  0  0  0
 82159  1  0  0  0
 83160  1  0  0  0
 83161  1  0  0  0
 84 87  1  0  0  0
 84162  1  0  0  0
 84163  1  0  0  0
 85 87  1  0  0  0
 85164  1  0  0  0
 85165  1  0  0  0
 86166  1  0  0  0
 86167  1  0  0  0
 87 89  1  0  0  0
 87168  1  0  0  0
 88169  1  0  0  0
 89170  1  0  0  0
 89171  1  0  0  0
 89172  1  0  0  0
M  CHG  1  89   1
M  ISO  4   1 100  68 101  86 101  88 100
M  END
> <chiral flag>
0

> <version>
0

> <s_m_source_file>
/data/baiqing/PycharmProjects/Reinvent-master-3.2/result/LINK_invent/BTK/process_docking_weight1_custom_product_contain_oxygen_bond_distance_aromatic_linkinvent_7_9_3/rearranged_h_0164.sdf

> <i_m_source_file_index>
32

> <r_mmod_Potential_Energy-OPLS-2005>
-168.680648803711

> <r_mmod_Stretch_Energy-OPLS-2005>
54.7651443481445

> <r_mmod_Bend_Energy-OPLS-2005>
131.763809204102

> <r_mmod_Torsional_Energy-OPLS-2005>
325.118408203125

> <r_mmod_Improper_Torsional_Energy-OPLS-2005>
7.62918376922607

> <r_mmod_Van_der_Waal_Energy-OPLS-2005>
136.43522644043

> <r_mmod_Electrostatic_Energy-OPLS-2005>
-313.3544921875

> <r_mmod_Solvation_Energy-OPLS-2005>
-534.61083984375

> <b_mmod_Minimization_Converged-OPLS-2005>
0

> <r_mmod_RMS_Derivative-OPLS-2005>
5.27923917770386

$$$$
32
                    3D
 Structure written by MMmdl.
157165  0  0  1  0            999 V2000
  -30.7108  -14.4873   20.5709 C   0  0  0  0  0  0
  -30.4198  -12.3169   19.4293 C   0  0  0  0  0  0
  -29.4949  -12.5010   18.2093 C   0  0  0  0  0  0
  -28.0173  -12.3573   18.6227 C   0  0  0  0  0  0
  -27.6587  -13.2090   19.8702 C   0  0  2  0  0  0
  -28.7006  -13.0156   20.9958 C   0  0  0  0  0  0
  -25.2581  -13.8161   20.5678 C   0  0  0  0  0  0
  -24.1838  -13.0442   20.9190 C   0  0  0  0  0  0
  -24.6393  -11.6907   20.8742 C   0  0  0  0  0  0
  -23.9057  -10.4292   21.0409 C   0  0  0  0  0  0
  -24.3611   -9.4210   21.9187 C   0  0  0  0  0  0
  -23.6290   -8.2243   22.0755 C   0  0  0  0  0  0
  -22.4271   -8.0280   21.3547 C   0  0  0  0  0  0
  -21.9908   -9.0251   20.4647 C   0  0  0  0  0  0
  -22.7232  -10.2135   20.3057 C   0  0  0  0  0  0
  -21.6854   -6.0737   22.5282 C   0  0  0  0  0  0
  -21.4009   -6.5639   23.8216 C   0  0  0  0  0  0
  -21.3656   -5.6792   24.9177 C   0  0  0  0  0  0
  -21.6044   -4.3055   24.7227 C   0  0  0  0  0  0
  -21.8819   -3.8148   23.4348 C   0  0  0  0  0  0
  -21.9192   -4.6964   22.3404 C   0  0  0  0  0  0
  -22.7862  -13.5243   21.1848 C   0  0  0  0  0  0
  -22.1663   -4.2150   21.0983 F   0  0  0  0  0  0
  -21.5628   -3.4538   25.7739 F   0  0  0  0  0  0
  -30.0288  -13.3159   20.4378 N   0  0  0  0  0  0
  -26.3011  -12.9334   20.3343 N   0  0  0  0  0  0
  -25.9319  -11.6495   20.5764 N   0  0  0  0  0  0
  -22.0491  -12.8236   22.0395 N   0  0  0  0  0  0
  -25.4303  -15.1878   20.4065 N   0  0  0  0  0  0
  -31.8421  -14.6424   20.1035 O   0  0  0  0  0  0
  -21.6640   -6.8878   21.4244 O   0  0  0  0  0  0
  -22.3556  -14.5553   20.6697 O   0  0  0  0  0  0
  -24.6161  -31.8669   23.2095 C   0  0  0  0  0  0
  -25.9049  -32.4817   23.8396 C   0  0  1  0  0  0
  -27.2285  -27.4226   20.1021 C   0  0  0  0  0  0
  -25.5899  -33.8613   24.2325 N   0  0  0  0  0  0
  -23.4054  -30.4914   21.5494 C   0  0  2  0  0  0
  -24.8535  -28.9597   20.1098 C   0  0  0  0  0  0
  -22.7425  -29.4653   22.4968 C   0  0  0  0  0  0
  -18.0274  -28.1382   22.8492 C   0  0  0  0  0  0
  -24.1482  -36.7308   23.2639 C   0  0  0  0  0  0
  -25.9363  -30.8311   21.3638 C   0  0  0  0  0  0
  -26.0155  -29.4662   20.7076 C   0  0  0  0  0  0
  -27.2105  -28.7064   20.6986 C   0  0  0  0  0  0
  -26.0553  -26.9408   19.4838 C   0  0  0  0  0  0
  -24.8696  -27.6977   19.4912 C   0  0  0  0  0  0
  -23.6151  -29.8260   20.1629 C   0  0  0  0  0  0
  -25.4103  -36.3104   24.0341 C   0  0  1  0  0  0
  -20.5870  -28.3667   23.1307 C   0  0  2  0  0  0
  -20.6762  -26.9400   22.5414 C   0  0  0  0  0  0
  -19.5737  -26.6387   21.5211 C   0  0  0  0  0  0
  -18.1919  -26.7929   22.1626 C   0  0  0  0  0  0
  -19.1527  -28.8841   23.2896 C   0  0  0  0  0  0
  -18.9455  -30.1448   23.8904 C   0  0  0  0  0  0
  -17.6457  -30.6585   24.0568 C   0  0  0  0  0  0
  -25.9033  -34.9471   23.5131 C   0  0  0  0  0  0
  -16.5346  -29.9085   23.6334 C   0  0  0  0  0  0
  -16.7264  -28.6505   23.0349 C   0  0  0  0  0  0
  -26.4475  -31.6592   25.0723 C   0  0  0  0  0  0
  -25.3743  -31.3700   26.1473 C   0  0  0  0  0  0
  -27.0304  -30.3036   24.6094 C   0  0  0  0  0  0
  -27.6052  -32.4307   25.7486 C   0  0  0  0  0  0
  -27.5577  -37.1807   24.8466 C   0  0  0  0  0  0
  -21.4150  -29.3032   22.3713 N   0  0  0  0  0  0
  -26.4287  -37.3789   23.9412 N   0  0  0  0  0  0
  -24.6711  -31.0768   22.0994 N   0  0  0  0  0  0
  -23.4195  -28.8190   23.3010 O   0  0  0  0  0  0
  -28.3460  -26.6150   20.1454 O   0  0  0  0  0  0
  -26.5593  -34.8922   22.4690 O   0  0  0  0  0  0
  -23.5351  -32.1417   23.7487 O   0  0  0  0  0  0
  -29.5249  -17.9556   21.1636 C   0  0  0  0  0  0
  -31.7973  -17.1996   21.5811 C   0  0  0  0  0  0
  -29.9042  -19.3176   21.3651 C   0  0  0  0  0  0
  -30.4556  -16.8860   21.2651 C   0  0  0  0  0  0
  -31.2710  -19.5944   21.6743 C   0  0  0  0  0  0
  -32.1961  -18.5332   21.7717 C   0  0  0  0  0  0
  -28.8581  -20.3768   21.2751 C   0  0  0  0  0  0
  -28.8444  -24.1617   20.4545 C   0  0  0  0  0  0
  -28.1987  -22.8088   20.8337 C   0  0  0  0  0  0
  -28.1266  -25.4363   20.9585 C   0  0  0  0  0  0
  -31.7803  -20.8817   21.9071 N   0  0  0  0  0  0
  -30.0162  -15.5247   21.0953 N   0  0  0  0  0  0
  -29.1177  -21.6334   20.8510 N   0  0  0  0  0  0
  -27.6064  -20.1000   21.6506 N   0  3  0  0  0  0
  -29.8979  -24.2067   19.8080 O   0  0  0  0  0  0
  -33.4903  -18.8064   22.0765 F   0  0  0  0  0  0
  -31.4650  -12.4081   19.1283 H   0  0  0  0  0  0
  -30.3171  -11.3110   19.8397 H   0  0  0  0  0  0
  -29.7398  -11.7706   17.4367 H   0  0  0  0  0  0
  -29.6603  -13.4835   17.7642 H   0  0  0  0  0  0
  -27.8348  -11.3024   18.8314 H   0  0  0  0  0  0
  -27.3645  -12.6170   17.7885 H   0  0  0  0  0  0
  -27.6957  -14.2523   19.5567 H   0  0  0  0  0  0
  -28.6805  -11.9878   21.3610 H   0  0  0  0  0  0
  -28.4610  -13.6375   21.8597 H   0  0  0  0  0  0
  -25.2758   -9.5689   22.4760 H   0  0  0  0  0  0
  -24.0003   -7.4636   22.7475 H   0  0  0  0  0  0
  -21.0840   -8.8766   19.8952 H   0  0  0  0  0  0
  -22.3689  -10.9671   19.6160 H   0  0  0  0  0  0
  -21.1998   -7.6147   23.9719 H   0  0  0  0  0  0
  -21.1477   -6.0522   25.9082 H   0  0  0  0  0  0
  -22.0597   -2.7609   23.2849 H   0  0  0  0  0  0
  -22.4096  -11.9893   22.4780 H   0  0  0  0  0  0
  -21.1110  -13.1269   22.2592 H   0  0  0  0  0  0
  -24.6570  -15.8381   20.4966 H   0  0  0  0  0  0
  -26.2696  -15.6199   20.0421 H   0  0  0  0  0  0
  -26.7122  -32.5528   23.1163 H   0  0  0  0  0  0
  -25.0063  -33.9775   25.0480 H   0  0  0  0  0  0
  -22.6948  -31.3090   21.4110 H   0  0  0  0  0  0
  -23.3742  -35.9643   23.3309 H   0  0  0  0  0  0
  -24.3575  -36.8909   22.2051 H   0  0  0  0  0  0
  -23.7235  -37.6517   23.6646 H   0  0  0  0  0  0
  -26.0506  -31.5985   20.5971 H   0  0  0  0  0  0
  -26.8237  -30.8835   21.9831 H   0  0  0  0  0  0
  -28.1048  -29.0866   21.1730 H   0  0  0  0  0  0
  -26.0525  -25.9702   19.0077 H   0  0  0  0  0  0
  -23.9777  -27.3053   19.0216 H   0  0  0  0  0  0
  -23.7239  -30.6021   19.4046 H   0  0  0  0  0  0
  -22.7388  -29.2471   19.8656 H   0  0  0  0  0  0
  -25.1279  -36.1970   25.0834 H   0  0  0  0  0  0
  -20.9970  -28.3229   24.1424 H   0  0  0  0  0  0
  -20.5663  -26.2272   23.3601 H   0  0  0  0  0  0
  -21.6632  -26.7438   22.1209 H   0  0  0  0  0  0
  -19.6894  -25.6301   21.1229 H   0  0  0  0  0  0
  -19.6677  -27.3209   20.6749 H   0  0  0  0  0  0
  -17.4192  -26.6682   21.4024 H   0  0  0  0  0  0
  -18.0317  -26.0068   22.9020 H   0  0  0  0  0  0
  -19.7931  -30.7265   24.2272 H   0  0  0  0  0  0
  -17.5014  -31.6266   24.5169 H   0  0  0  0  0  0
  -15.5347  -30.2990   23.7657 H   0  0  0  0  0  0
  -15.8664  -28.0832   22.7053 H   0  0  0  0  0  0
  -24.5909  -30.7051   25.7814 H   0  0  0  0  0  0
  -24.8942  -32.2854   26.4938 H   0  0  0  0  0  0
  -25.8101  -30.8858   27.0221 H   0  0  0  0  0  0
  -26.2846  -29.6795   24.1158 H   0  0  0  0  0  0
  -27.4086  -29.7270   25.4545 H   0  0  0  0  0  0
  -27.8676  -30.4357   23.9236 H   0  0  0  0  0  0
  -27.2682  -33.3601   26.2091 H   0  0  0  0  0  0
  -28.3856  -32.6873   25.0311 H   0  0  0  0  0  0
  -28.0730  -31.8411   26.5381 H   0  0  0  0  0  0
  -28.2603  -38.0097   24.7515 H   0  0  0  0  0  0
  -28.1063  -36.2628   24.6292 H   0  0  0  0  0  0
  -27.2297  -37.1464   25.8871 H   0  0  0  0  0  0
  -20.9311  -29.8760   21.6940 H   0  0  0  0  0  0
  -26.0174  -38.2865   24.1417 H   0  0  0  0  0  0
  -28.4974  -17.7243   20.9205 H   0  0  0  0  0  0
  -32.5429  -16.4284   21.6958 H   0  0  0  0  0  0
  -27.3848  -22.6188   20.1338 H   0  0  0  0  0  0
  -27.7459  -22.9210   21.8199 H   0  0  0  0  0  0
  -28.4830  -25.6475   21.9668 H   0  0  0  0  0  0
  -27.0659  -25.2022   21.0561 H   0  0  0  0  0  0
  -31.2605  -21.4408   22.5751 H   0  0  0  0  0  0
  -32.7582  -20.8572   22.1844 H   0  0  0  0  0  0
  -29.0524  -15.3250   21.3150 H   0  0  0  0  0  0
  -30.0939  -21.8308   20.6345 H   0  0  0  0  0  0
  -27.3999  -19.2016   22.0599 H   0  0  0  0  0  0
  -26.8530  -20.7587   21.5537 H   0  0  0  0  0  0
  1 25  1  0  0  0
  1 30  2  0  0  0
  1 82  1  0  0  0
  2  3  1  0  0  0
  2 25  1  0  0  0
  2 87  1  0  0  0
  2 88  1  0  0  0
  3  4  1  0  0  0
  3 89  1  0  0  0
  3 90  1  0  0  0
  4  5  1  0  0  0
  4 91  1  0  0  0
  4 92  1  0  0  0
  5  6  1  0  0  0
  5 26  1  0  0  0
  5 93  1  0  0  0
  6 25  1  0  0  0
  6 94  1  0  0  0
  6 95  1  0  0  0
  7  8  2  0  0  0
  7 26  1  0  0  0
  7 29  1  0  0  0
  8  9  1  0  0  0
  8 22  1  0  0  0
  9 10  1  0  0  0
  9 27  2  0  0  0
 10 11  2  0  0  0
 10 15  1  0  0  0
 11 12  1  0  0  0
 11 96  1  0  0  0
 12 13  2  0  0  0
 12 97  1  0  0  0
 13 14  1  0  0  0
 13 31  1  0  0  0
 14 15  2  0  0  0
 14 98  1  0  0  0
 15 99  1  0  0  0
 16 17  2  0  0  0
 16 21  1  0  0  0
 16 31  1  0  0  0
 17 18  1  0  0  0
 17100  1  0  0  0
 18 19  2  0  0  0
 18101  1  0  0  0
 19 20  1  0  0  0
 19 24  1  0  0  0
 20 21  2  0  0  0
 20102  1  0  0  0
 21 23  1  0  0  0
 22 28  1  0  0  0
 22 32  2  0  0  0
 26 27  1  0  0  0
 28103  1  0  0  0
 28104  1  0  0  0
 29105  1  0  0  0
 29106  1  0  0  0
 33 34  1  0  0  0
 33 66  1  0  0  0
 33 70  2  0  0  0
 34 36  1  0  0  0
 34 59  1  0  0  0
 34107  1  0  0  0
 35 44  2  0  0  0
 35 45  1  0  0  0
 35 68  1  0  0  0
 36 56  1  0  0  0
 36108  1  0  0  0
 37 39  1  0  0  0
 37 47  1  0  0  0
 37 66  1  0  0  0
 37109  1  0  0  0
 38 43  2  0  0  0
 38 46  1  0  0  0
 38 47  1  0  0  0
 39 64  1  0  0  0
 39 67  2  0  0  0
 40 52  1  0  0  0
 40 53  2  0  0  0
 40 58  1  0  0  0
 41110  1  0  0  0
 41111  1  0  0  0
 41112  1  0  0  0
 41 48  1  0  0  0
 42 43  1  0  0  0
 42 66  1  0  0  0
 42113  1  0  0  0
 42114  1  0  0  0
 43 44  1  0  0  0
 44115  1  0  0  0
 45 46  2  0  0  0
 45116  1  0  0  0
 46117  1  0  0  0
 47118  1  0  0  0
 47119  1  0  0  0
 48 56  1  0  0  0
 48 65  1  0  0  0
 48120  1  0  0  0
 49 50  1  0  0  0
 49 53  1  0  0  0
 49 64  1  0  0  0
 49121  1  0  0  0
 50 51  1  0  0  0
 50122  1  0  0  0
 50123  1  0  0  0
 51 52  1  0  0  0
 51124  1  0  0  0
 51125  1  0  0  0
 52126  1  0  0  0
 52127  1  0  0  0
 53 54  1  0  0  0
 54 55  2  0  0  0
 54128  1  0  0  0
 55 57  1  0  0  0
 55129  1  0  0  0
 56 69  2  0  0  0
 57 58  2  0  0  0
 57130  1  0  0  0
 58131  1  0  0  0
 59 60  1  0  0  0
 59 61  1  0  0  0
 59 62  1  0  0  0
 60132  1  0  0  0
 60133  1  0  0  0
 60134  1  0  0  0
 61135  1  0  0  0
 61136  1  0  0  0
 61137  1  0  0  0
 62138  1  0  0  0
 62139  1  0  0  0
 62140  1  0  0  0
 63 65  1  0  0  0
 63141  1  0  0  0
 63142  1  0  0  0
 63143  1  0  0  0
 64144  1  0  0  0
 65145  1  0  0  0
 68 80  1  0  0  0
 71 73  2  0  0  0
 71 74  1  0  0  0
 71146  1  0  0  0
 72 74  2  0  0  0
 72 76  1  0  0  0
 72147  1  0  0  0
 73 75  1  0  0  0
 73 77  1  0  0  0
 74 82  1  0  0  0
 75 76  2  0  0  0
 75 81  1  0  0  0
 76 86  1  0  0  0
 77 83  1  0  0  0
 77 84  2  0  0  0
 78 79  1  0  0  0
 78 80  1  0  0  0
 78 85  2  0  0  0
 79 83  1  0  0  0
 79148  1  0  0  0
 79149  1  0  0  0
 80150  1  0  0  0
 80151  1  0  0  0
 81152  1  0  0  0
 81153  1  0  0  0
 82154  1  0  0  0
 83155  1  0  0  0
 84156  1  0  0  0
 84157  1  0  0  0
M  CHG  1  84   1
M  ISO  4   1 100  68 101  80 101  82 100
M  END
> <chiral flag>
0

> <version>
0

> <s_m_source_file>
/data/baiqing/PycharmProjects/Reinvent-master-3.2/result/LINK_invent/BTK/process_docking_weight1_custom_product_contain_oxygen_bond_distance_aromatic_linkinvent_7_9_3/rearranged_h_0164.sdf

> <i_m_source_file_index>
33

> <r_mmod_Potential_Energy-OPLS-2005>
-191.804641723633

> <r_mmod_Stretch_Energy-OPLS-2005>
45.4518966674805

> <r_mmod_Bend_Energy-OPLS-2005>
99.5372924804688

> <r_mmod_Torsional_Energy-OPLS-2005>
243.902908325195

> <r_mmod_Improper_Torsional_Energy-OPLS-2005>
9.76146507263184

> <r_mmod_Van_der_Waal_Energy-OPLS-2005>
163.109924316406

> <r_mmod_Electrostatic_Energy-OPLS-2005>
-308.651275634766

> <r_mmod_Solvation_Energy-OPLS-2005>
-462.006622314453

> <b_mmod_Minimization_Converged-OPLS-2005>
0

> <r_mmod_RMS_Derivative-OPLS-2005>
0.679177105426788

$$$$
33
                    3D
 Structure written by MMmdl.
160168  0  0  1  0            999 V2000
  -30.6691  -14.5463   20.5125 C   0  0  0  0  0  0
  -30.4261  -12.3362   19.4420 C   0  0  0  0  0  0
  -29.4996  -12.4892   18.2162 C   0  0  0  0  0  0
  -28.0204  -12.3480   18.6273 C   0  0  0  0  0  0
  -27.6551  -13.2103   19.8652 C   0  0  2  0  0  0
  -28.6985  -13.0414   20.9939 C   0  0  0  0  0  0
  -25.2568  -13.8163   20.5679 C   0  0  0  0  0  0
  -24.1830  -13.0440   20.9190 C   0  0  0  0  0  0
  -24.6385  -11.6908   20.8737 C   0  0  0  0  0  0
  -23.9055  -10.4293   21.0408 C   0  0  0  0  0  0
  -24.3612   -9.4208   21.9182 C   0  0  0  0  0  0
  -23.6288   -8.2241   22.0752 C   0  0  0  0  0  0
  -22.4270   -8.0277   21.3543 C   0  0  0  0  0  0
  -21.9904   -9.0251   20.4646 C   0  0  0  0  0  0
  -22.7231  -10.2133   20.3055 C   0  0  0  0  0  0
  -21.6854   -6.0729   22.5278 C   0  0  0  0  0  0
  -21.4013   -6.5635   23.8211 C   0  0  0  0  0  0
  -21.3657   -5.6788   24.9170 C   0  0  0  0  0  0
  -21.6047   -4.3051   24.7224 C   0  0  0  0  0  0
  -21.8821   -3.8144   23.4344 C   0  0  0  0  0  0
  -21.9194   -4.6957   22.3401 C   0  0  0  0  0  0
  -22.7854  -13.5237   21.1852 C   0  0  0  0  0  0
  -22.1664   -4.2144   21.0976 F   0  0  0  0  0  0
  -21.5629   -3.4535   25.7735 F   0  0  0  0  0  0
  -30.0223  -13.3487   20.4327 N   0  0  0  0  0  0
  -26.2992  -12.9335   20.3325 N   0  0  0  0  0  0
  -25.9311  -11.6500   20.5763 N   0  0  0  0  0  0
  -22.0488  -12.8231   22.0404 N   0  0  0  0  0  0
  -25.4296  -15.1881   20.4072 N   0  0  0  0  0  0
  -31.8264  -14.6967   20.1143 O   0  0  0  0  0  0
  -21.6638   -6.8873   21.4239 O   0  0  0  0  0  0
  -22.3545  -14.5545   20.6698 O   0  0  0  0  0  0
  -24.6186  -31.8643   23.2046 C   0  0  0  0  0  0
  -25.9057  -32.4806   23.8363 C   0  0  1  0  0  0
  -27.2364  -27.3835   20.1023 C   0  0  0  0  0  0
  -25.5899  -33.8605   24.2293 N   0  0  0  0  0  0
  -23.4091  -30.4859   21.5464 C   0  0  2  0  0  0
  -24.8540  -28.9422   20.1144 C   0  0  0  0  0  0
  -22.7433  -29.4643   22.4970 C   0  0  0  0  0  0
  -18.0277  -28.1378   22.8500 C   0  0  0  0  0  0
  -24.1485  -36.7296   23.2644 C   0  0  0  0  0  0
  -25.9413  -30.8142   21.3635 C   0  0  0  0  0  0
  -26.0158  -29.4434   20.7118 C   0  0  0  0  0  0
  -27.2052  -28.6725   20.6996 C   0  0  0  0  0  0
  -26.0475  -26.9037   19.5050 C   0  0  0  0  0  0
  -24.8676  -27.6744   19.5089 C   0  0  0  0  0  0
  -23.6178  -29.8144   20.1626 C   0  0  0  0  0  0
  -25.4110  -36.3100   24.0338 C   0  0  1  0  0  0
  -20.5870  -28.3672   23.1310 C   0  0  2  0  0  0
  -20.6768  -26.9403   22.5420 C   0  0  0  0  0  0
  -19.5742  -26.6382   21.5223 C   0  0  0  0  0  0
  -18.1919  -26.7930   22.1631 C   0  0  0  0  0  0
  -19.1528  -28.8841   23.2903 C   0  0  0  0  0  0
  -18.9458  -30.1450   23.8906 C   0  0  0  0  0  0
  -17.6460  -30.6586   24.0573 C   0  0  0  0  0  0
  -25.9041  -34.9471   23.5118 C   0  0  0  0  0  0
  -16.5348  -29.9089   23.6332 C   0  0  0  0  0  0
  -16.7267  -28.6506   23.0353 C   0  0  0  0  0  0
  -26.4467  -31.6599   25.0712 C   0  0  0  0  0  0
  -25.3725  -31.3718   26.1460 C   0  0  0  0  0  0
  -27.0302  -30.3043   24.6103 C   0  0  0  0  0  0
  -27.6035  -32.4333   25.7471 C   0  0  0  0  0  0
  -27.5578  -37.1804   24.8472 C   0  0  0  0  0  0
  -21.4157  -29.3033   22.3712 N   0  0  0  0  0  0
  -26.4292  -37.3786   23.9415 N   0  0  0  0  0  0
  -24.6749  -31.0710   22.0958 N   0  0  0  0  0  0
  -23.4186  -28.8197   23.3039 O   0  0  0  0  0  0
  -28.4210  -26.6566   20.1343 O   0  0  0  0  0  0
  -26.5622  -34.8936   22.4689 O   0  0  0  0  0  0
  -23.5368  -32.1403   23.7422 O   0  0  0  0  0  0
  -28.8302  -20.0719   23.1558 C   0  0  0  0  0  0
  -29.4374  -19.4969   20.8832 C   0  0  0  0  0  0
  -29.0686  -18.7362   23.5328 C   0  0  0  0  0  0
  -29.0197  -20.4908   21.8214 C   0  0  0  0  0  0
  -29.6684  -18.1491   21.3140 C   0  0  0  0  0  0
  -28.4789  -24.1912   20.6988 C   0  0  0  0  0  0
  -31.4785  -23.2091   20.9086 C   0  0  0  0  0  0
  -30.1892  -17.0202   20.4027 C   0  0  0  0  0  0
  -28.5267  -25.3014   19.6038 C   0  0  0  0  0  0
  -30.4412  -22.6944   19.8948 C   0  0  0  0  0  0
  -28.9694  -22.7162   20.3830 C   0  0  1  0  0  0
  -29.4795  -17.8401   22.6140 N   0  3  0  0  0  0
  -28.7766  -21.8683   21.5768 N   0  0  0  0  0  0
  -29.8975  -15.6187   20.8174 N   0  0  0  0  0  0
  -28.0542  -24.4776   21.8252 O   0  0  0  0  0  0
  -31.4700  -12.4393   19.1403 H   0  0  0  0  0  0
  -30.3374  -11.3366   19.8701 H   0  0  0  0  0  0
  -29.7487  -11.7408   17.4627 H   0  0  0  0  0  0
  -29.6610  -13.4608   17.7462 H   0  0  0  0  0  0
  -27.8398  -11.2946   18.8449 H   0  0  0  0  0  0
  -27.3694  -12.5989   17.7886 H   0  0  0  0  0  0
  -27.6821  -14.2485   19.5346 H   0  0  0  0  0  0
  -28.6875  -12.0188   21.3738 H   0  0  0  0  0  0
  -28.4604  -13.6782   21.8468 H   0  0  0  0  0  0
  -25.2760   -9.5682   22.4752 H   0  0  0  0  0  0
  -23.9999   -7.4631   22.7472 H   0  0  0  0  0  0
  -21.0838   -8.8774   19.8950 H   0  0  0  0  0  0
  -22.3697  -10.9669   19.6160 H   0  0  0  0  0  0
  -21.2004   -7.6144   23.9712 H   0  0  0  0  0  0
  -21.1476   -6.0516   25.9074 H   0  0  0  0  0  0
  -22.0602   -2.7606   23.2846 H   0  0  0  0  0  0
  -22.4099  -11.9892   22.4798 H   0  0  0  0  0  0
  -21.1099  -13.1257   22.2592 H   0  0  0  0  0  0
  -24.6596  -15.8407   20.5083 H   0  0  0  0  0  0
  -26.2689  -15.6236   20.0475 H   0  0  0  0  0  0
  -26.7130  -32.5493   23.1124 H   0  0  0  0  0  0
  -25.0058  -33.9764   25.0445 H   0  0  0  0  0  0
  -22.6999  -31.3038   21.4039 H   0  0  0  0  0  0
  -23.3752  -35.9625   23.3321 H   0  0  0  0  0  0
  -24.3579  -36.8891   22.2055 H   0  0  0  0  0  0
  -23.7231  -37.6501   23.6653 H   0  0  0  0  0  0
  -26.0617  -31.5765   20.5923 H   0  0  0  0  0  0
  -26.8277  -30.8668   21.9845 H   0  0  0  0  0  0
  -28.1026  -29.0601   21.1619 H   0  0  0  0  0  0
  -25.9936  -25.9322   19.0396 H   0  0  0  0  0  0
  -23.9722  -27.2795   19.0486 H   0  0  0  0  0  0
  -23.7274  -30.5868   19.4003 H   0  0  0  0  0  0
  -22.7404  -29.2357   19.8681 H   0  0  0  0  0  0
  -25.1286  -36.1962   25.0832 H   0  0  0  0  0  0
  -20.9968  -28.3241   24.1429 H   0  0  0  0  0  0
  -20.5674  -26.2280   23.3612 H   0  0  0  0  0  0
  -21.6637  -26.7443   22.1205 H   0  0  0  0  0  0
  -19.6909  -25.6299   21.1238 H   0  0  0  0  0  0
  -19.6682  -27.3213   20.6773 H   0  0  0  0  0  0
  -17.4194  -26.6692   21.4023 H   0  0  0  0  0  0
  -18.0308  -26.0063   22.9013 H   0  0  0  0  0  0
  -19.7934  -30.7272   24.2262 H   0  0  0  0  0  0
  -17.5015  -31.6267   24.5179 H   0  0  0  0  0  0
  -15.5350  -30.3000   23.7647 H   0  0  0  0  0  0
  -15.8666  -28.0835   22.7054 H   0  0  0  0  0  0
  -24.5899  -30.7059   25.7801 H   0  0  0  0  0  0
  -24.8915  -32.2877   26.4902 H   0  0  0  0  0  0
  -25.8071  -30.8893   27.0221 H   0  0  0  0  0  0
  -26.2845  -29.6810   24.1153 H   0  0  0  0  0  0
  -27.4065  -29.7277   25.4561 H   0  0  0  0  0  0
  -27.8687  -30.4363   23.9263 H   0  0  0  0  0  0
  -27.2644  -33.3629   26.2051 H   0  0  0  0  0  0
  -28.3834  -32.6898   25.0291 H   0  0  0  0  0  0
  -28.0720  -31.8461   26.5378 H   0  0  0  0  0  0
  -28.2608  -38.0091   24.7517 H   0  0  0  0  0  0
  -28.1054  -36.2621   24.6293 H   0  0  0  0  0  0
  -27.2299  -37.1455   25.8877 H   0  0  0  0  0  0
  -20.9319  -29.8742   21.6920 H   0  0  0  0  0  0
  -26.0177  -38.2864   24.1412 H   0  0  0  0  0  0
  -28.5100  -20.7699   23.9152 H   0  0  0  0  0  0
  -29.5878  -19.7534   19.8465 H   0  0  0  0  0  0
  -28.9543  -18.3675   24.5431 H   0  0  0  0  0  0
  -31.4529  -22.6334   21.8344 H   0  0  0  0  0  0
  -31.3176  -24.2581   21.1584 H   0  0  0  0  0  0
  -32.4865  -23.1256   20.5010 H   0  0  0  0  0  0
  -31.2658  -17.1676   20.3023 H   0  0  0  0  0  0
  -29.7748  -17.1680   19.4046 H   0  0  0  0  0  0
  -27.8092  -25.0881   18.8154 H   0  0  0  0  0  0
  -29.5029  -25.2430   19.1255 H   0  0  0  0  0  0
  -30.7207  -21.6842   19.6014 H   0  0  0  0  0  0
  -30.5277  -23.2735   18.9747 H   0  0  0  0  0  0
  -28.3370  -22.3155   19.5894 H   0  0  0  0  0  0
  -29.6725  -16.8835   22.9182 H   0  0  0  0  0  0
  -28.4393  -22.4173   22.3632 H   0  0  0  0  0  0
  -28.9458  -15.4126   21.0788 H   0  0  0  0  0  0
  1 25  1  0  0  0
  1 30  2  0  0  0
  1 84  1  0  0  0
  2  3  1  0  0  0
  2 25  1  0  0  0
  2 86  1  0  0  0
  2 87  1  0  0  0
  3  4  1  0  0  0
  3 88  1  0  0  0
  3 89  1  0  0  0
  4  5  1  0  0  0
  4 90  1  0  0  0
  4 91  1  0  0  0
  5  6  1  0  0  0
  5 26  1  0  0  0
  5 92  1  0  0  0
  6 25  1  0  0  0
  6 93  1  0  0  0
  6 94  1  0  0  0
  7  8  2  0  0  0
  7 26  1  0  0  0
  7 29  1  0  0  0
  8  9  1  0  0  0
  8 22  1  0  0  0
  9 10  1  0  0  0
  9 27  2  0  0  0
 10 11  2  0  0  0
 10 15  1  0  0  0
 11 12  1  0  0  0
 11 95  1  0  0  0
 12 13  2  0  0  0
 12 96  1  0  0  0
 13 14  1  0  0  0
 13 31  1  0  0  0
 14 15  2  0  0  0
 14 97  1  0  0  0
 15 98  1  0  0  0
 16 17  2  0  0  0
 16 21  1  0  0  0
 16 31  1  0  0  0
 17 18  1  0  0  0
 17 99  1  0  0  0
 18 19  2  0  0  0
 18100  1  0  0  0
 19 20  1  0  0  0
 19 24  1  0  0  0
 20 21  2  0  0  0
 20101  1  0  0  0
 21 23  1  0  0  0
 22 28  1  0  0  0
 22 32  2  0  0  0
 26 27  1  0  0  0
 28102  1  0  0  0
 28103  1  0  0  0
 29104  1  0  0  0
 29105  1  0  0  0
 33 34  1  0  0  0
 33 66  1  0  0  0
 33 70  2  0  0  0
 34 36  1  0  0  0
 34 59  1  0  0  0
 34106  1  0  0  0
 35 44  2  0  0  0
 35 45  1  0  0  0
 35 68  1  0  0  0
 36 56  1  0  0  0
 36107  1  0  0  0
 37 39  1  0  0  0
 37 47  1  0  0  0
 37 66  1  0  0  0
 37108  1  0  0  0
 38 43  2  0  0  0
 38 46  1  0  0  0
 38 47  1  0  0  0
 39 64  1  0  0  0
 39 67  2  0  0  0
 40 52  1  0  0  0
 40 53  2  0  0  0
 40 58  1  0  0  0
 41109  1  0  0  0
 41110  1  0  0  0
 41111  1  0  0  0
 41 48  1  0  0  0
 42 43  1  0  0  0
 42 66  1  0  0  0
 42112  1  0  0  0
 42113  1  0  0  0
 43 44  1  0  0  0
 44114  1  0  0  0
 45 46  2  0  0  0
 45115  1  0  0  0
 46116  1  0  0  0
 47117  1  0  0  0
 47118  1  0  0  0
 48 56  1  0  0  0
 48 65  1  0  0  0
 48119  1  0  0  0
 49 50  1  0  0  0
 49 53  1  0  0  0
 49 64  1  0  0  0
 49120  1  0  0  0
 50 51  1  0  0  0
 50121  1  0  0  0
 50122  1  0  0  0
 51 52  1  0  0  0
 51123  1  0  0  0
 51124  1  0  0  0
 52125  1  0  0  0
 52126  1  0  0  0
 53 54  1  0  0  0
 54 55  2  0  0  0
 54127  1  0  0  0
 55 57  1  0  0  0
 55128  1  0  0  0
 56 69  2  0  0  0
 57 58  2  0  0  0
 57129  1  0  0  0
 58130  1  0  0  0
 59 60  1  0  0  0
 59 61  1  0  0  0
 59 62  1  0  0  0
 60131  1  0  0  0
 60132  1  0  0  0
 60133  1  0  0  0
 61134  1  0  0  0
 61135  1  0  0  0
 61136  1  0  0  0
 62137  1  0  0  0
 62138  1  0  0  0
 62139  1  0  0  0
 63 65  1  0  0  0
 63140  1  0  0  0
 63141  1  0  0  0
 63142  1  0  0  0
 64143  1  0  0  0
 65144  1  0  0  0
 68 79  1  0  0  0
 71 73  2  0  0  0
 71 74  1  0  0  0
 71145  1  0  0  0
 72 74  2  0  0  0
 72 75  1  0  0  0
 72146  1  0  0  0
 73 82  1  0  0  0
 73147  1  0  0  0
 74 83  1  0  0  0
 75 78  1  0  0  0
 75 82  2  0  0  0
 76 79  1  0  0  0
 76 81  1  0  0  0
 76 85  2  0  0  0
 77 80  1  0  0  0
 77148  1  0  0  0
 77149  1  0  0  0
 77150  1  0  0  0
 78 84  1  0  0  0
 78151  1  0  0  0
 78152  1  0  0  0
 79153  1  0  0  0
 79154  1  0  0  0
 80155  1  0  0  0
 80156  1  0  0  0
 80 81  1  0  0  0
 81 83  1  0  0  0
 81157  1  0  0  0
 82158  1  0  0  0
 83159  1  0  0  0
 84160  1  0  0  0
M  CHG  1  82   1
M  ISO  4   1 100  68 101  79 101  84 100
M  END
> <chiral flag>
0

> <version>
0

> <s_m_source_file>
/data/baiqing/PycharmProjects/Reinvent-master-3.2/result/LINK_invent/BTK/process_docking_weight1_custom_product_contain_oxygen_bond_distance_aromatic_linkinvent_7_9_3/rearranged_h_0164.sdf

> <i_m_source_file_index>
34

> <r_mmod_Potential_Energy-OPLS-2005>
-220.899871826172

> <r_mmod_Stretch_Energy-OPLS-2005>
54.4244003295898

> <r_mmod_Bend_Energy-OPLS-2005>
150.320175170898

> <r_mmod_Torsional_Energy-OPLS-2005>
189.565185546875

> <r_mmod_Improper_Torsional_Energy-OPLS-2005>
6.81587314605713

> <r_mmod_Van_der_Waal_Energy-OPLS-2005>
149.452697753906

> <r_mmod_Electrostatic_Energy-OPLS-2005>
-332.537353515625

> <r_mmod_Solvation_Energy-OPLS-2005>
-462.725616455078

> <b_mmod_Minimization_Converged-OPLS-2005>
0

> <r_mmod_RMS_Derivative-OPLS-2005>
1.14741766452789

$$$$
34
                    3D
 Structure written by MMmdl.
171180  0  0  1  0            999 V2000
  -30.7270  -14.4073   20.6497 C   0  0  0  0  0  0
  -30.4236  -12.2979   19.3987 C   0  0  0  0  0  0
  -29.4892  -12.5174   18.1929 C   0  0  0  0  0  0
  -28.0111  -12.3733   18.6087 C   0  0  0  0  0  0
  -27.6640  -13.1991   19.8762 C   0  0  2  0  0  0
  -28.7030  -12.9412   20.9891 C   0  0  0  0  0  0
  -25.2604  -13.8146   20.5667 C   0  0  0  0  0  0
  -24.1845  -13.0435   20.9167 C   0  0  0  0  0  0
  -24.6386  -11.6899   20.8723 C   0  0  0  0  0  0
  -23.9048  -10.4290   21.0400 C   0  0  0  0  0  0
  -24.3605   -9.4209   21.9181 C   0  0  0  0  0  0
  -23.6285   -8.2242   22.0752 C   0  0  0  0  0  0
  -22.4268   -8.0276   21.3544 C   0  0  0  0  0  0
  -21.9898   -9.0247   20.4644 C   0  0  0  0  0  0
  -22.7221  -10.2130   20.3051 C   0  0  0  0  0  0
  -21.6850   -6.0732   22.5283 C   0  0  0  0  0  0
  -21.4010   -6.5637   23.8215 C   0  0  0  0  0  0
  -21.3659   -5.6790   24.9178 C   0  0  0  0  0  0
  -21.6044   -4.3052   24.7225 C   0  0  0  0  0  0
  -21.8821   -3.8145   23.4347 C   0  0  0  0  0  0
  -21.9190   -4.6961   22.3403 C   0  0  0  0  0  0
  -22.7872  -13.5243   21.1835 C   0  0  0  0  0  0
  -22.1662   -4.2148   21.0980 F   0  0  0  0  0  0
  -21.5628   -3.4536   25.7737 F   0  0  0  0  0  0
  -30.0375  -13.2545   20.4453 N   0  0  0  0  0  0
  -26.3030  -12.9302   20.3354 N   0  0  0  0  0  0
  -25.9306  -11.6469   20.5743 N   0  0  0  0  0  0
  -22.0504  -12.8243   22.0393 N   0  0  0  0  0  0
  -25.4351  -15.1862   20.4079 N   0  0  0  0  0  0
  -31.8170  -14.6442   20.1179 O   0  0  0  0  0  0
  -21.6635   -6.8873   21.4242 O   0  0  0  0  0  0
  -22.3565  -14.5550   20.6682 O   0  0  0  0  0  0
  -24.6111  -31.8697   23.2121 C   0  0  0  0  0  0
  -25.9015  -32.4834   23.8408 C   0  0  1  0  0  0
  -27.2380  -27.4623   20.0974 C   0  0  0  0  0  0
  -25.5881  -33.8632   24.2340 N   0  0  0  0  0  0
  -23.3987  -30.4914   21.5515 C   0  0  2  0  0  0
  -24.8475  -28.9549   20.1204 C   0  0  0  0  0  0
  -22.7391  -29.4662   22.5010 C   0  0  0  0  0  0
  -18.0264  -28.1381   22.8500 C   0  0  0  0  0  0
  -24.1483  -36.7316   23.2639 C   0  0  0  0  0  0
  -25.9239  -30.8413   21.3633 C   0  0  0  0  0  0
  -26.0031  -29.4740   20.7192 C   0  0  0  0  0  0
  -27.2030  -28.7314   20.7121 C   0  0  0  0  0  0
  -26.0736  -26.9484   19.4947 C   0  0  0  0  0  0
  -24.8747  -27.6876   19.5090 C   0  0  0  0  0  0
  -23.6077  -29.8187   20.1673 C   0  0  0  0  0  0
  -25.4104  -36.3120   24.0342 C   0  0  1  0  0  0
  -20.5854  -28.3654   23.1330 C   0  0  2  0  0  0
  -20.6756  -26.9393   22.5423 C   0  0  0  0  0  0
  -19.5735  -26.6387   21.5217 C   0  0  0  0  0  0
  -18.1913  -26.7932   22.1624 C   0  0  0  0  0  0
  -19.1516  -28.8834   23.2912 C   0  0  0  0  0  0
  -18.9447  -30.1447   23.8912 C   0  0  0  0  0  0
  -17.6452  -30.6587   24.0568 C   0  0  0  0  0  0
  -25.9028  -34.9483   23.5138 C   0  0  0  0  0  0
  -16.5340  -29.9090   23.6335 C   0  0  0  0  0  0
  -16.7255  -28.6509   23.0350 C   0  0  0  0  0  0
  -26.4458  -31.6602   25.0720 C   0  0  0  0  0  0
  -25.3737  -31.3701   26.1479 C   0  0  0  0  0  0
  -27.0277  -30.3050   24.6065 C   0  0  0  0  0  0
  -27.6045  -32.4313   25.7473 C   0  0  0  0  0  0
  -27.5583  -37.1810   24.8465 C   0  0  0  0  0  0
  -21.4125  -29.3026   22.3743 N   0  0  0  0  0  0
  -26.4295  -37.3798   23.9408 N   0  0  0  0  0  0
  -24.6624  -31.0815   22.1014 N   0  0  0  0  0  0
  -23.4172  -28.8214   23.3051 O   0  0  0  0  0  0
  -28.4047  -26.7449   20.0312 O   0  0  0  0  0  0
  -26.5587  -34.8930   22.4700 O   0  0  0  0  0  0
  -23.5308  -32.1441   23.7528 O   0  0  0  0  0  0
  -31.8690  -16.6813   22.4196 C   0  0  0  0  0  0
  -29.6767  -17.6459   21.9884 C   0  0  0  0  0  0
  -32.2917  -17.8842   23.0270 C   0  0  0  0  0  0
  -31.3975  -18.9828   23.1059 C   0  0  0  0  0  0
  -30.5618  -16.5513   21.9059 C   0  0  0  0  0  0
  -30.0888  -18.8719   22.5586 C   0  0  0  0  0  0
  -33.6678  -17.9600   23.6445 C   0  0  0  0  0  0
  -28.1511  -22.0994   21.9169 C   0  0  0  0  0  0
  -29.2365  -21.0247   21.8223 C   0  0  0  0  0  0
  -31.8708  -20.2353   23.8340 C   0  0  0  0  0  0
  -33.3886  -20.4259   23.6940 C   0  0  0  0  0  0
  -35.4604  -19.3638   24.5608 C   0  0  0  0  0  0
  -28.0705  -19.7240   23.6353 C   0  0  0  0  0  0
  -28.6357  -23.5400   22.0840 C   0  0  0  0  0  0
  -28.1921  -24.4912   20.9509 C   0  0  0  0  0  0
  -28.6820  -25.9344   21.1697 C   0  0  0  0  0  0
  -26.9025  -21.8731   21.8531 N   0  0  0  0  0  0
  -34.1396  -19.1911   23.9512 N   0  0  0  0  0  0
  -30.0778  -15.3181   21.3950 N   0  0  0  0  0  0
  -29.1328  -19.9316   22.6410 N   0  0  0  0  0  0
  -34.3177  -16.9270   23.8402 O   0  0  0  0  0  0
  -30.1735  -21.1888   21.0310 O   0  0  0  0  0  0
  -31.4666  -12.4067   19.0954 H   0  0  0  0  0  0
  -30.3302  -11.2778   19.7744 H   0  0  0  0  0  0
  -29.7262  -11.8080   17.3989 H   0  0  0  0  0  0
  -29.6575  -13.5112   17.7747 H   0  0  0  0  0  0
  -27.8189  -11.3155   18.7926 H   0  0  0  0  0  0
  -27.3583  -12.6596   17.7833 H   0  0  0  0  0  0
  -27.7209  -14.2520   19.5989 H   0  0  0  0  0  0
  -28.6759  -11.8936   21.2926 H   0  0  0  0  0  0
  -28.4554  -13.5014   21.8914 H   0  0  0  0  0  0
  -25.2754   -9.5686   22.4747 H   0  0  0  0  0  0
  -23.9998   -7.4633   22.7470 H   0  0  0  0  0  0
  -21.0829   -8.8758   19.8953 H   0  0  0  0  0  0
  -22.3678  -10.9661   19.6152 H   0  0  0  0  0  0
  -21.2003   -7.6146   23.9717 H   0  0  0  0  0  0
  -21.1479   -6.0520   25.9080 H   0  0  0  0  0  0
  -22.0599   -2.7606   23.2845 H   0  0  0  0  0  0
  -22.4106  -11.9898   22.4781 H   0  0  0  0  0  0
  -21.1123  -13.1281   22.2591 H   0  0  0  0  0  0
  -24.6691  -15.8426   20.5119 H   0  0  0  0  0  0
  -26.2882  -15.6222   20.0811 H   0  0  0  0  0  0
  -26.7089  -32.5560   23.1179 H   0  0  0  0  0  0
  -25.0050  -33.9806   25.0497 H   0  0  0  0  0  0
  -22.6863  -31.3071   21.4114 H   0  0  0  0  0  0
  -23.3746  -35.9648   23.3315 H   0  0  0  0  0  0
  -24.3582  -36.8912   22.2050 H   0  0  0  0  0  0
  -23.7234  -37.6526   23.6642 H   0  0  0  0  0  0
  -26.0297  -31.6041   20.5904 H   0  0  0  0  0  0
  -26.8146  -30.9008   21.9767 H   0  0  0  0  0  0
  -28.0997  -29.1317   21.1651 H   0  0  0  0  0  0
  -26.0988  -25.9819   19.0112 H   0  0  0  0  0  0
  -23.9873  -27.2825   19.0421 H   0  0  0  0  0  0
  -23.7130  -30.5905   19.4038 H   0  0  0  0  0  0
  -22.7336  -29.2338   19.8751 H   0  0  0  0  0  0
  -25.1283  -36.1991   25.0836 H   0  0  0  0  0  0
  -20.9949  -28.3214   24.1448 H   0  0  0  0  0  0
  -20.5662  -26.2256   23.3605 H   0  0  0  0  0  0
  -21.6628  -26.7447   22.1210 H   0  0  0  0  0  0
  -19.6890  -25.6302   21.1234 H   0  0  0  0  0  0
  -19.6682  -27.3212   20.6759 H   0  0  0  0  0  0
  -17.4190  -26.6694   21.4016 H   0  0  0  0  0  0
  -18.0300  -26.0068   22.9012 H   0  0  0  0  0  0
  -19.7925  -30.7260   24.2279 H   0  0  0  0  0  0
  -17.5010  -31.6272   24.5165 H   0  0  0  0  0  0
  -15.5343  -30.2994   23.7658 H   0  0  0  0  0  0
  -15.8655  -28.0838   22.7047 H   0  0  0  0  0  0
  -24.5897  -30.7063   25.7819 H   0  0  0  0  0  0
  -24.8946  -32.2859   26.4954 H   0  0  0  0  0  0
  -25.8104  -30.8850   27.0219 H   0  0  0  0  0  0
  -26.2809  -29.6820   24.1133 H   0  0  0  0  0  0
  -27.4078  -29.7270   25.4496 H   0  0  0  0  0  0
  -27.8628  -30.4380   23.9183 H   0  0  0  0  0  0
  -27.2672  -33.3596   26.2098 H   0  0  0  0  0  0
  -28.3827  -32.6901   25.0280 H   0  0  0  0  0  0
  -28.0746  -31.8408   26.5348 H   0  0  0  0  0  0
  -28.2611  -38.0099   24.7509 H   0  0  0  0  0  0
  -28.1070  -36.2632   24.6296 H   0  0  0  0  0  0
  -27.2304  -37.1463   25.8870 H   0  0  0  0  0  0
  -20.9280  -29.8738   21.6962 H   0  0  0  0  0  0
  -26.0190  -38.2877   24.1410 H   0  0  0  0  0  0
  -32.5463  -15.8387   22.3879 H   0  0  0  0  0  0
  -28.6669  -17.5483   21.6142 H   0  0  0  0  0  0
  -31.6075  -20.1314   24.8875 H   0  0  0  0  0  0
  -31.3747  -21.1380   23.4852 H   0  0  0  0  0  0
  -33.7097  -21.2322   24.3546 H   0  0  0  0  0  0
  -33.6196  -20.7457   22.6768 H   0  0  0  0  0  0
  -36.2090  -18.7393   24.0709 H   0  0  0  0  0  0
  -35.4272  -19.0851   25.6148 H   0  0  0  0  0  0
  -35.8125  -20.3935   24.4951 H   0  0  0  0  0  0
  -28.3190  -18.9081   24.3156 H   0  0  0  0  0  0
  -27.1300  -19.4607   23.1507 H   0  0  0  0  0  0
  -27.9142  -20.6073   24.2561 H   0  0  0  0  0  0
  -29.7231  -23.5570   22.1665 H   0  0  0  0  0  0
  -28.2627  -23.9124   23.0385 H   0  0  0  0  0  0
  -27.1048  -24.4883   20.8670 H   0  0  0  0  0  0
  -28.5767  -24.1218   19.9994 H   0  0  0  0  0  0
  -29.7630  -25.9338   21.3134 H   0  0  0  0  0  0
  -28.2511  -26.3560   22.0803 H   0  0  0  0  0  0
  -26.7127  -20.8849   21.7298 H   0  0  0  0  0  0
  -29.1218  -15.0847   21.6152 H   0  0  0  0  0  0
  1 25  1  0  0  0
  1 30  2  0  0  0
  1 89  1  0  0  0
  2  3  1  0  0  0
  2 25  1  0  0  0
  2 93  1  0  0  0
  2 94  1  0  0  0
  3  4  1  0  0  0
  3 95  1  0  0  0
  3 96  1  0  0  0
  4  5  1  0  0  0
  4 97  1  0  0  0
  4 98  1  0  0  0
  5  6  1  0  0  0
  5 26  1  0  0  0
  5 99  1  0  0  0
  6 25  1  0  0  0
  6100  1  0  0  0
  6101  1  0  0  0
  7  8  2  0  0  0
  7 26  1  0  0  0
  7 29  1  0  0  0
  8  9  1  0  0  0
  8 22  1  0  0  0
  9 10  1  0  0  0
  9 27  2  0  0  0
 10 11  2  0  0  0
 10 15  1  0  0  0
 11 12  1  0  0  0
 11102  1  0  0  0
 12 13  2  0  0  0
 12103  1  0  0  0
 13 14  1  0  0  0
 13 31  1  0  0  0
 14 15  2  0  0  0
 14104  1  0  0  0
 15105  1  0  0  0
 16 17  2  0  0  0
 16 21  1  0  0  0
 16 31  1  0  0  0
 17 18  1  0  0  0
 17106  1  0  0  0
 18 19  2  0  0  0
 18107  1  0  0  0
 19 20  1  0  0  0
 19 24  1  0  0  0
 20 21  2  0  0  0
 20108  1  0  0  0
 21 23  1  0  0  0
 22 28  1  0  0  0
 22 32  2  0  0  0
 26 27  1  0  0  0
 28109  1  0  0  0
 28110  1  0  0  0
 29111  1  0  0  0
 29112  1  0  0  0
 33 34  1  0  0  0
 33 66  1  0  0  0
 33 70  2  0  0  0
 34 36  1  0  0  0
 34 59  1  0  0  0
 34113  1  0  0  0
 35 44  2  0  0  0
 35 45  1  0  0  0
 35 68  1  0  0  0
 36 56  1  0  0  0
 36114  1  0  0  0
 37 39  1  0  0  0
 37 47  1  0  0  0
 37 66  1  0  0  0
 37115  1  0  0  0
 38 43  2  0  0  0
 38 46  1  0  0  0
 38 47  1  0  0  0
 39 64  1  0  0  0
 39 67  2  0  0  0
 40 52  1  0  0  0
 40 53  2  0  0  0
 40 58  1  0  0  0
 41116  1  0  0  0
 41117  1  0  0  0
 41118  1  0  0  0
 41 48  1  0  0  0
 42 43  1  0  0  0
 42 66  1  0  0  0
 42119  1  0  0  0
 42120  1  0  0  0
 43 44  1  0  0  0
 44121  1  0  0  0
 45 46  2  0  0  0
 45122  1  0  0  0
 46123  1  0  0  0
 47124  1  0  0  0
 47125  1  0  0  0
 48 56  1  0  0  0
 48 65  1  0  0  0
 48126  1  0  0  0
 49 50  1  0  0  0
 49 53  1  0  0  0
 49 64  1  0  0  0
 49127  1  0  0  0
 50 51  1  0  0  0
 50128  1  0  0  0
 50129  1  0  0  0
 51 52  1  0  0  0
 51130  1  0  0  0
 51131  1  0  0  0
 52132  1  0  0  0
 52133  1  0  0  0
 53 54  1  0  0  0
 54 55  2  0  0  0
 54134  1  0  0  0
 55 57  1  0  0  0
 55135  1  0  0  0
 56 69  2  0  0  0
 57 58  2  0  0  0
 57136  1  0  0  0
 58137  1  0  0  0
 59 60  1  0  0  0
 59 61  1  0  0  0
 59 62  1  0  0  0
 60138  1  0  0  0
 60139  1  0  0  0
 60140  1  0  0  0
 61141  1  0  0  0
 61142  1  0  0  0
 61143  1  0  0  0
 62144  1  0  0  0
 62145  1  0  0  0
 62146  1  0  0  0
 63 65  1  0  0  0
 63147  1  0  0  0
 63148  1  0  0  0
 63149  1  0  0  0
 64150  1  0  0  0
 65151  1  0  0  0
 68 86  1  0  0  0
 71 73  2  0  0  0
 71 75  1  0  0  0
 71152  1  0  0  0
 72 75  2  0  0  0
 72 76  1  0  0  0
 72153  1  0  0  0
 73 74  1  0  0  0
 73 77  1  0  0  0
 74 76  2  0  0  0
 74 80  1  0  0  0
 75 89  1  0  0  0
 76 90  1  0  0  0
 77 88  1  0  0  0
 77 91  2  0  0  0
 78 79  1  0  0  0
 78 84  1  0  0  0
 78 87  2  0  0  0
 79 90  1  0  0  0
 79 92  2  0  0  0
 80 81  1  0  0  0
 80154  1  0  0  0
 80155  1  0  0  0
 81 88  1  0  0  0
 81156  1  0  0  0
 81157  1  0  0  0
 82 88  1  0  0  0
 82158  1  0  0  0
 82159  1  0  0  0
 82160  1  0  0  0
 83 90  1  0  0  0
 83161  1  0  0  0
 83162  1  0  0  0
 83163  1  0  0  0
 84 85  1  0  0  0
 84164  1  0  0  0
 84165  1  0  0  0
 85 86  1  0  0  0
 85166  1  0  0  0
 85167  1  0  0  0
 86168  1  0  0  0
 86169  1  0  0  0
 87170  1  0  0  0
 89171  1  0  0  0
M  ISO  4   1 100  68 101  86 101  89 100
M  END
> <chiral flag>
0

> <version>
0

> <s_m_source_file>
/data/baiqing/PycharmProjects/Reinvent-master-3.2/result/LINK_invent/BTK/process_docking_weight1_custom_product_contain_oxygen_bond_distance_aromatic_linkinvent_7_9_3/rearranged_h_0164.sdf

> <i_m_source_file_index>
35

> <r_mmod_Potential_Energy-OPLS-2005>
130.466491699219

> <r_mmod_Stretch_Energy-OPLS-2005>
42.2536010742188

> <r_mmod_Bend_Energy-OPLS-2005>
103.630836486816

> <r_mmod_Torsional_Energy-OPLS-2005>
349.883087158203

> <r_mmod_Improper_Torsional_Energy-OPLS-2005>
3.07400155067444

> <r_mmod_Van_der_Waal_Energy-OPLS-2005>
181.092422485352

> <r_mmod_Electrostatic_Energy-OPLS-2005>
-292.438049316406

> <r_mmod_Solvation_Energy-OPLS-2005>
-264.501739501953

> <b_mmod_Minimization_Converged-OPLS-2005>
0

> <r_mmod_RMS_Derivative-OPLS-2005>
0.744160592556

$$$$
35
                    3D
 Structure written by MMmdl.
158167  0  0  1  0            999 V2000
  -30.6780  -14.6111   20.5043 C   0  0  0  0  0  0
  -30.4198  -12.3770   19.4549 C   0  0  0  0  0  0
  -29.4996  -12.4974   18.2227 C   0  0  0  0  0  0
  -28.0237  -12.3429   18.6365 C   0  0  0  0  0  0
  -27.6483  -13.2238   19.8588 C   0  0  2  0  0  0
  -28.6934  -13.1069   20.9911 C   0  0  0  0  0  0
  -25.2534  -13.8190   20.5692 C   0  0  0  0  0  0
  -24.1813  -13.0443   20.9202 C   0  0  0  0  0  0
  -24.6393  -11.6918   20.8749 C   0  0  0  0  0  0
  -23.9068  -10.4295   21.0409 C   0  0  0  0  0  0
  -24.3619   -9.4209   21.9184 C   0  0  0  0  0  0
  -23.6295   -8.2244   22.0754 C   0  0  0  0  0  0
  -22.4277   -8.0282   21.3544 C   0  0  0  0  0  0
  -21.9912   -9.0256   20.4647 C   0  0  0  0  0  0
  -22.7240  -10.2136   20.3057 C   0  0  0  0  0  0
  -21.6854   -6.0736   22.5279 C   0  0  0  0  0  0
  -21.4015   -6.5640   23.8212 C   0  0  0  0  0  0
  -21.3659   -5.6793   24.9175 C   0  0  0  0  0  0
  -21.6044   -4.3056   24.7226 C   0  0  0  0  0  0
  -21.8819   -3.8147   23.4347 C   0  0  0  0  0  0
  -21.9193   -4.6963   22.3403 C   0  0  0  0  0  0
  -22.7834  -13.5228   21.1860 C   0  0  0  0  0  0
  -22.1662   -4.2149   21.0980 F   0  0  0  0  0  0
  -21.5628   -3.4539   25.7738 F   0  0  0  0  0  0
  -30.0075  -13.4207   20.4154 N   0  0  0  0  0  0
  -26.2966  -12.9387   20.3318 N   0  0  0  0  0  0
  -25.9323  -11.6534   20.5769 N   0  0  0  0  0  0
  -22.0480  -12.8218   22.0417 N   0  0  0  0  0  0
  -25.4227  -15.1913   20.4092 N   0  0  0  0  0  0
  -31.8486  -14.6934   20.1245 O   0  0  0  0  0  0
  -21.6641   -6.8879   21.4240 O   0  0  0  0  0  0
  -22.3519  -14.5534   20.6708 O   0  0  0  0  0  0
  -24.6228  -31.8617   23.2042 C   0  0  0  0  0  0
  -25.9087  -32.4790   23.8366 C   0  0  1  0  0  0
  -27.2245  -27.3549   20.1157 C   0  0  0  0  0  0
  -25.5914  -33.8591   24.2295 N   0  0  0  0  0  0
  -23.4163  -30.4844   21.5453 C   0  0  2  0  0  0
  -24.8660  -28.9441   20.1083 C   0  0  0  0  0  0
  -22.7463  -29.4628   22.4942 C   0  0  0  0  0  0
  -18.0283  -28.1383   22.8489 C   0  0  0  0  0  0
  -24.1489  -36.7301   23.2639 C   0  0  0  0  0  0
  -25.9537  -30.8038   21.3705 C   0  0  0  0  0  0
  -26.0319  -29.4337   20.7133 C   0  0  0  0  0  0
  -27.2192  -28.6483   20.7114 C   0  0  0  0  0  0
  -26.0457  -26.9064   19.4879 C   0  0  0  0  0  0
  -24.8724  -27.6841   19.4868 C   0  0  0  0  0  0
  -23.6304  -29.8185   20.1600 C   0  0  0  0  0  0
  -25.4112  -36.3092   24.0332 C   0  0  1  0  0  0
  -20.5882  -28.3683   23.1290 C   0  0  2  0  0  0
  -20.6773  -26.9409   22.5412 C   0  0  0  0  0  0
  -19.5749  -26.6384   21.5214 C   0  0  0  0  0  0
  -18.1929  -26.7927   22.1626 C   0  0  0  0  0  0
  -19.1536  -28.8850   23.2886 C   0  0  0  0  0  0
  -18.9460  -30.1454   23.8899 C   0  0  0  0  0  0
  -17.6460  -30.6587   24.0563 C   0  0  0  0  0  0
  -25.9043  -34.9458   23.5113 C   0  0  0  0  0  0
  -16.5351  -29.9086   23.6330 C   0  0  0  0  0  0
  -16.7271  -28.6503   23.0351 C   0  0  0  0  0  0
  -26.4485  -31.6589   25.0722 C   0  0  0  0  0  0
  -25.3731  -31.3721   26.1459 C   0  0  0  0  0  0
  -27.0320  -30.3016   24.6151 C   0  0  0  0  0  0
  -27.6054  -32.4315   25.7488 C   0  0  0  0  0  0
  -27.5580  -37.1806   24.8465 C   0  0  0  0  0  0
  -21.4178  -29.3039   22.3686 N   0  0  0  0  0  0
  -26.4294  -37.3782   23.9407 N   0  0  0  0  0  0
  -24.6828  -31.0656   22.0976 N   0  0  0  0  0  0
  -23.4199  -28.8169   23.3013 O   0  0  0  0  0  0
  -28.3029  -26.4753   20.1673 O   0  0  0  0  0  0
  -26.5611  -34.8921   22.4679 O   0  0  0  0  0  0
  -23.5398  -32.1399   23.7388 O   0  0  0  0  0  0
  -32.2017  -18.7263   21.4315 C   0  0  0  0  0  0
  -31.3475  -19.8164   21.1946 C   0  0  0  0  0  0
  -31.7367  -17.4057   21.3041 C   0  0  0  0  0  0
  -29.5387  -18.2605   20.6981 C   0  0  0  0  0  0
  -29.9990  -19.6219   20.8283 C   0  0  0  0  0  0
  -30.4037  -17.1257   20.9171 C   0  0  0  0  0  0
  -29.2291  -23.4439   19.8163 C   0  0  0  0  0  0
  -28.5265  -23.9266   20.8653 C   0  0  0  0  0  0
  -29.6261  -21.9548   19.6071 C   0  0  0  0  0  0
  -28.0572  -22.9315   21.9281 C   0  0  0  0  0  0
  -28.8931  -21.6238   22.0060 C   0  0  0  0  0  0
  -29.1007  -20.8991   20.6538 C   0  0  2  0  0  0
  -28.1193  -25.4117   21.1591 C   0  0  0  0  0  0
  -29.9509  -15.7361   20.8098 N   0  0  0  0  0  0
  -31.4647  -12.4691   19.1537 H   0  0  0  0  0  0
  -30.3290  -11.3891   19.9092 H   0  0  0  0  0  0
  -29.7607  -11.7414   17.4809 H   0  0  0  0  0  0
  -29.6492  -13.4650   17.7408 H   0  0  0  0  0  0
  -27.8592  -11.2914   18.8748 H   0  0  0  0  0  0
  -27.3691  -12.5681   17.7937 H   0  0  0  0  0  0
  -27.6602  -14.2549   19.5053 H   0  0  0  0  0  0
  -28.6983  -12.0999   21.4107 H   0  0  0  0  0  0
  -28.4485  -13.7770   21.8166 H   0  0  0  0  0  0
  -25.2764   -9.5685   22.4759 H   0  0  0  0  0  0
  -24.0005   -7.4635   22.7471 H   0  0  0  0  0  0
  -21.0844   -8.8775   19.8952 H   0  0  0  0  0  0
  -22.3699  -10.9675   19.6167 H   0  0  0  0  0  0
  -21.2007   -7.6149   23.9716 H   0  0  0  0  0  0
  -21.1481   -6.0524   25.9078 H   0  0  0  0  0  0
  -22.0598   -2.7609   23.2847 H   0  0  0  0  0  0
  -22.4100  -11.9882   22.4805 H   0  0  0  0  0  0
  -21.1097  -13.1240   22.2624 H   0  0  0  0  0  0
  -24.6527  -15.8431   20.5144 H   0  0  0  0  0  0
  -26.2664  -15.6305   20.0639 H   0  0  0  0  0  0
  -26.7158  -32.5477   23.1123 H   0  0  0  0  0  0
  -25.0064  -33.9741   25.0441 H   0  0  0  0  0  0
  -22.7086  -31.3037   21.4028 H   0  0  0  0  0  0
  -23.3749  -35.9636   23.3306 H   0  0  0  0  0  0
  -24.3581  -36.8914   22.2052 H   0  0  0  0  0  0
  -23.7244  -37.6507   23.6654 H   0  0  0  0  0  0
  -26.0794  -31.5687   20.6029 H   0  0  0  0  0  0
  -26.8361  -30.8544   21.9968 H   0  0  0  0  0  0
  -28.1130  -29.0127   21.1983 H   0  0  0  0  0  0
  -26.0279  -25.9299   19.0241 H   0  0  0  0  0  0
  -23.9781  -27.3019   19.0141 H   0  0  0  0  0  0
  -23.7441  -30.5947   19.4023 H   0  0  0  0  0  0
  -22.7524  -29.2433   19.8603 H   0  0  0  0  0  0
  -25.1292  -36.1949   25.0825 H   0  0  0  0  0  0
  -20.9977  -28.3255   24.1410 H   0  0  0  0  0  0
  -20.5678  -26.2291   23.3608 H   0  0  0  0  0  0
  -21.6642  -26.7444   22.1201 H   0  0  0  0  0  0
  -19.6910  -25.6296   21.1240 H   0  0  0  0  0  0
  -19.6686  -27.3197   20.6746 H   0  0  0  0  0  0
  -17.4198  -26.6674   21.4030 H   0  0  0  0  0  0
  -18.0331  -26.0070   22.9024 H   0  0  0  0  0  0
  -19.7936  -30.7270   24.2268 H   0  0  0  0  0  0
  -17.5015  -31.6268   24.5164 H   0  0  0  0  0  0
  -15.5351  -30.2989   23.7654 H   0  0  0  0  0  0
  -15.8670  -28.0824   22.7064 H   0  0  0  0  0  0
  -24.5891  -30.7088   25.7789 H   0  0  0  0  0  0
  -24.8941  -32.2889   26.4909 H   0  0  0  0  0  0
  -25.8063  -30.8876   27.0219 H   0  0  0  0  0  0
  -26.2882  -29.6774   24.1184 H   0  0  0  0  0  0
  -27.4037  -29.7261   25.4640 H   0  0  0  0  0  0
  -27.8744  -30.4310   23.9352 H   0  0  0  0  0  0
  -27.2674  -33.3618   26.2066 H   0  0  0  0  0  0
  -28.3863  -32.6869   25.0313 H   0  0  0  0  0  0
  -28.0721  -31.8436   26.5402 H   0  0  0  0  0  0
  -28.2602  -38.0098   24.7506 H   0  0  0  0  0  0
  -28.1071  -36.2629   24.6300 H   0  0  0  0  0  0
  -27.2297  -37.1464   25.8868 H   0  0  0  0  0  0
  -20.9350  -29.8762   21.6902 H   0  0  0  0  0  0
  -26.0179  -38.2860   24.1402 H   0  0  0  0  0  0
  -33.2262  -18.9048   21.7273 H   0  0  0  0  0  0
  -31.7370  -20.8173   21.3206 H   0  0  0  0  0  0
  -32.4339  -16.6110   21.5247 H   0  0  0  0  0  0
  -28.5057  -18.0886   20.4297 H   0  0  0  0  0  0
  -29.5741  -24.1358   19.0603 H   0  0  0  0  0  0
  -30.7155  -21.9564   19.6083 H   0  0  0  0  0  0
  -29.3384  -21.6445   18.6022 H   0  0  0  0  0  0
  -27.0104  -22.6961   21.7319 H   0  0  0  0  0  0
  -28.0838  -23.4178   22.9043 H   0  0  0  0  0  0
  -28.4274  -20.9406   22.7175 H   0  0  0  0  0  0
  -29.8662  -21.8741   22.4301 H   0  0  0  0  0  0
  -28.1194  -20.5631   20.3150 H   0  0  0  0  0  0
  -28.6691  -25.7202   22.0489 H   0  0  0  0  0  0
  -27.0750  -25.3713   21.4761 H   0  0  0  0  0  0
  -28.9627  -15.5798   20.9352 H   0  0  0  0  0  0
  1 25  1  0  0  0
  1 30  2  0  0  0
  1 84  1  0  0  0
  2  3  1  0  0  0
  2 25  1  0  0  0
  2 85  1  0  0  0
  2 86  1  0  0  0
  3  4  1  0  0  0
  3 87  1  0  0  0
  3 88  1  0  0  0
  4  5  1  0  0  0
  4 89  1  0  0  0
  4 90  1  0  0  0
  5  6  1  0  0  0
  5 26  1  0  0  0
  5 91  1  0  0  0
  6 25  1  0  0  0
  6 92  1  0  0  0
  6 93  1  0  0  0
  7  8  2  0  0  0
  7 26  1  0  0  0
  7 29  1  0  0  0
  8  9  1  0  0  0
  8 22  1  0  0  0
  9 10  1  0  0  0
  9 27  2  0  0  0
 10 11  2  0  0  0
 10 15  1  0  0  0
 11 12  1  0  0  0
 11 94  1  0  0  0
 12 13  2  0  0  0
 12 95  1  0  0  0
 13 14  1  0  0  0
 13 31  1  0  0  0
 14 15  2  0  0  0
 14 96  1  0  0  0
 15 97  1  0  0  0
 16 17  2  0  0  0
 16 21  1  0  0  0
 16 31  1  0  0  0
 17 18  1  0  0  0
 17 98  1  0  0  0
 18 19  2  0  0  0
 18 99  1  0  0  0
 19 20  1  0  0  0
 19 24  1  0  0  0
 20 21  2  0  0  0
 20100  1  0  0  0
 21 23  1  0  0  0
 22 28  1  0  0  0
 22 32  2  0  0  0
 26 27  1  0  0  0
 28101  1  0  0  0
 28102  1  0  0  0
 29103  1  0  0  0
 29104  1  0  0  0
 33 34  1  0  0  0
 33 66  1  0  0  0
 33 70  2  0  0  0
 34 36  1  0  0  0
 34 59  1  0  0  0
 34105  1  0  0  0
 35 44  2  0  0  0
 35 45  1  0  0  0
 35 68  1  0  0  0
 36 56  1  0  0  0
 36106  1  0  0  0
 37 39  1  0  0  0
 37 47  1  0  0  0
 37 66  1  0  0  0
 37107  1  0  0  0
 38 43  2  0  0  0
 38 46  1  0  0  0
 38 47  1  0  0  0
 39 64  1  0  0  0
 39 67  2  0  0  0
 40 52  1  0  0  0
 40 53  2  0  0  0
 40 58  1  0  0  0
 41108  1  0  0  0
 41109  1  0  0  0
 41110  1  0  0  0
 41 48  1  0  0  0
 42 43  1  0  0  0
 42 66  1  0  0  0
 42111  1  0  0  0
 42112  1  0  0  0
 43 44  1  0  0  0
 44113  1  0  0  0
 45 46  2  0  0  0
 45114  1  0  0  0
 46115  1  0  0  0
 47116  1  0  0  0
 47117  1  0  0  0
 48 56  1  0  0  0
 48 65  1  0  0  0
 48118  1  0  0  0
 49 50  1  0  0  0
 49 53  1  0  0  0
 49 64  1  0  0  0
 49119  1  0  0  0
 50 51  1  0  0  0
 50120  1  0  0  0
 50121  1  0  0  0
 51 52  1  0  0  0
 51122  1  0  0  0
 51123  1  0  0  0
 52124  1  0  0  0
 52125  1  0  0  0
 53 54  1  0  0  0
 54 55  2  0  0  0
 54126  1  0  0  0
 55 57  1  0  0  0
 55127  1  0  0  0
 56 69  2  0  0  0
 57 58  2  0  0  0
 57128  1  0  0  0
 58129  1  0  0  0
 59 60  1  0  0  0
 59 61  1  0  0  0
 59 62  1  0  0  0
 60130  1  0  0  0
 60131  1  0  0  0
 60132  1  0  0  0
 61133  1  0  0  0
 61134  1  0  0  0
 61135  1  0  0  0
 62136  1  0  0  0
 62137  1  0  0  0
 62138  1  0  0  0
 63 65  1  0  0  0
 63139  1  0  0  0
 63140  1  0  0  0
 63141  1  0  0  0
 64142  1  0  0  0
 65143  1  0  0  0
 68 83  1  0  0  0
 71 72  2  0  0  0
 71 73  1  0  0  0
 71144  1  0  0  0
 72 75  1  0  0  0
 72145  1  0  0  0
 73 76  2  0  0  0
 73146  1  0  0  0
 74 75  2  0  0  0
 74 76  1  0  0  0
 74147  1  0  0  0
 75 82  1  0  0  0
 76 84  1  0  0  0
 77 78  2  0  0  0
 77 79  1  0  0  0
 77148  1  0  0  0
 78 80  1  0  0  0
 78 83  1  0  0  0
 79 82  1  0  0  0
 79149  1  0  0  0
 79150  1  0  0  0
 80 81  1  0  0  0
 80151  1  0  0  0
 80152  1  0  0  0
 81 82  1  0  0  0
 81153  1  0  0  0
 81154  1  0  0  0
 82155  1  0  0  0
 83156  1  0  0  0
 83157  1  0  0  0
 84158  1  0  0  0
M  ISO  4   1 100  68 101  83 101  84 100
M  END
> <chiral flag>
0

> <version>
0

> <s_m_source_file>
/data/baiqing/PycharmProjects/Reinvent-master-3.2/result/LINK_invent/BTK/process_docking_weight1_custom_product_contain_oxygen_bond_distance_aromatic_linkinvent_7_9_3/rearranged_h_0164.sdf

> <i_m_source_file_index>
36

> <r_mmod_Potential_Energy-OPLS-2005>
89.2293014526367

> <r_mmod_Stretch_Energy-OPLS-2005>
71.842414855957

> <r_mmod_Bend_Energy-OPLS-2005>
127.955696105957

> <r_mmod_Torsional_Energy-OPLS-2005>
246.561233520508

> <r_mmod_Improper_Torsional_Energy-OPLS-2005>
5.12933158874512

> <r_mmod_Van_der_Waal_Energy-OPLS-2005>
151.450500488281

> <r_mmod_Electrostatic_Energy-OPLS-2005>
-359.854309082031

> <r_mmod_Solvation_Energy-OPLS-2005>
-196.629058837891

> <b_mmod_Minimization_Converged-OPLS-2005>
0

> <r_mmod_RMS_Derivative-OPLS-2005>
0.121373496949673

$$$$
36
                    3D
 Structure written by MMmdl.
155163  0  0  1  0            999 V2000
  -30.7136  -14.4842   20.5622 C   0  0  0  0  0  0
  -30.4168  -12.3121   19.4293 C   0  0  0  0  0  0
  -29.4932  -12.5015   18.2091 C   0  0  0  0  0  0
  -28.0149  -12.3616   18.6219 C   0  0  0  0  0  0
  -27.6583  -13.2118   19.8714 C   0  0  2  0  0  0
  -28.7010  -13.0167   20.9961 C   0  0  0  0  0  0
  -25.2573  -13.8176   20.5683 C   0  0  0  0  0  0
  -24.1830  -13.0441   20.9172 C   0  0  0  0  0  0
  -24.6393  -11.6912   20.8734 C   0  0  0  0  0  0
  -23.9065  -10.4294   21.0403 C   0  0  0  0  0  0
  -24.3617   -9.4210   21.9181 C   0  0  0  0  0  0
  -23.6292   -8.2245   22.0754 C   0  0  0  0  0  0
  -22.4273   -8.0282   21.3545 C   0  0  0  0  0  0
  -21.9910   -9.0255   20.4646 C   0  0  0  0  0  0
  -22.7238  -10.2133   20.3053 C   0  0  0  0  0  0
  -21.6853   -6.0738   22.5280 C   0  0  0  0  0  0
  -21.4012   -6.5640   23.8213 C   0  0  0  0  0  0
  -21.3658   -5.6792   24.9175 C   0  0  0  0  0  0
  -21.6044   -4.3056   24.7225 C   0  0  0  0  0  0
  -21.8820   -3.8149   23.4345 C   0  0  0  0  0  0
  -21.9192   -4.6966   22.3402 C   0  0  0  0  0  0
  -22.7853  -13.5236   21.1838 C   0  0  0  0  0  0
  -22.1661   -4.2150   21.0980 F   0  0  0  0  0  0
  -21.5629   -3.4539   25.7737 F   0  0  0  0  0  0
  -30.0301  -13.3128   20.4379 N   0  0  0  0  0  0
  -26.3011  -12.9355   20.3363 N   0  0  0  0  0  0
  -25.9323  -11.6511   20.5773 N   0  0  0  0  0  0
  -22.0497  -12.8226   22.0396 N   0  0  0  0  0  0
  -25.4290  -15.1898   20.4111 N   0  0  0  0  0  0
  -31.8451  -14.6305   20.0938 O   0  0  0  0  0  0
  -21.6639   -6.8878   21.4241 O   0  0  0  0  0  0
  -22.3536  -14.5545   20.6692 O   0  0  0  0  0  0
  -24.6160  -31.8673   23.2091 C   0  0  0  0  0  0
  -25.9051  -32.4818   23.8391 C   0  0  1  0  0  0
  -27.2277  -27.4256   20.1001 C   0  0  0  0  0  0
  -25.5907  -33.8616   24.2327 N   0  0  0  0  0  0
  -23.4044  -30.4910   21.5495 C   0  0  2  0  0  0
  -24.8518  -28.9585   20.1105 C   0  0  0  0  0  0
  -22.7418  -29.4657   22.4979 C   0  0  0  0  0  0
  -18.0275  -28.1381   22.8491 C   0  0  0  0  0  0
  -24.1486  -36.7307   23.2638 C   0  0  0  0  0  0
  -25.9345  -30.8323   21.3619 C   0  0  0  0  0  0
  -26.0136  -29.4670   20.7067 C   0  0  0  0  0  0
  -27.2094  -28.7089   20.6958 C   0  0  0  0  0  0
  -26.0539  -26.9380   19.4886 C   0  0  0  0  0  0
  -24.8677  -27.6947   19.4954 C   0  0  0  0  0  0
  -23.6128  -29.8248   20.1635 C   0  0  0  0  0  0
  -25.4106  -36.3107   24.0337 C   0  0  1  0  0  0
  -20.5867  -28.3667   23.1312 C   0  0  2  0  0  0
  -20.6767  -26.9402   22.5415 C   0  0  0  0  0  0
  -19.5744  -26.6390   21.5214 C   0  0  0  0  0  0
  -18.1922  -26.7929   22.1623 C   0  0  0  0  0  0
  -19.1525  -28.8840   23.2901 C   0  0  0  0  0  0
  -18.9453  -30.1448   23.8909 C   0  0  0  0  0  0
  -17.6455  -30.6587   24.0566 C   0  0  0  0  0  0
  -25.9035  -34.9472   23.5128 C   0  0  0  0  0  0
  -16.5345  -29.9088   23.6331 C   0  0  0  0  0  0
  -16.7263  -28.6506   23.0348 C   0  0  0  0  0  0
  -26.4474  -31.6589   25.0715 C   0  0  0  0  0  0
  -25.3740  -31.3702   26.1463 C   0  0  0  0  0  0
  -27.0294  -30.3029   24.6083 C   0  0  0  0  0  0
  -27.6059  -32.4295   25.7478 C   0  0  0  0  0  0
  -27.5577  -37.1807   24.8466 C   0  0  0  0  0  0
  -21.4143  -29.3034   22.3717 N   0  0  0  0  0  0
  -26.4292  -37.3790   23.9409 N   0  0  0  0  0  0
  -24.6700  -31.0773   22.0989 N   0  0  0  0  0  0
  -23.4186  -28.8198   23.3025 O   0  0  0  0  0  0
  -28.3496  -26.6258   20.1338 O   0  0  0  0  0  0
  -26.5596  -34.8924   22.4689 O   0  0  0  0  0  0
  -23.5350  -32.1422   23.7485 O   0  0  0  0  0  0
  -32.1057  -18.6680   21.3646 C   0  0  0  0  0  0
  -31.1047  -19.6555   21.3081 C   0  0  0  0  0  0
  -31.7672  -17.3052   21.2900 C   0  0  0  0  0  0
  -29.7450  -19.2959   21.1701 C   0  0  0  0  0  0
  -30.4173  -16.9045   21.1401 C   0  0  0  0  0  0
  -29.4130  -17.9081   21.0899 C   0  0  0  0  0  0
  -28.7233  -20.3732   21.1844 C   0  0  0  0  0  0
  -28.7499  -24.1557   20.3890 C   0  0  0  0  0  0
  -28.1077  -22.8319   20.8600 C   0  0  0  0  0  0
  -28.1622  -25.4622   20.9729 C   0  0  0  0  0  0
  -30.0245  -15.5223   21.0841 N   0  0  0  0  0  0
  -28.9846  -21.6299   20.7542 N   0  0  0  0  0  0
  -27.5118  -20.1329   21.6865 N   0  3  0  0  0  0
  -29.7106  -24.1510   19.6094 O   0  0  0  0  0  0
  -28.1181  -17.5127   20.9867 F   0  0  0  0  0  0
  -31.4627  -12.3976   19.1288 H   0  0  0  0  0  0
  -30.3091  -11.3068   19.8394 H   0  0  0  0  0  0
  -29.7357  -11.7714   17.4357 H   0  0  0  0  0  0
  -29.6608  -13.4845   17.7657 H   0  0  0  0  0  0
  -27.8292  -11.3066   18.8273 H   0  0  0  0  0  0
  -27.3639  -12.6263   17.7880 H   0  0  0  0  0  0
  -27.6949  -14.2562   19.5604 H   0  0  0  0  0  0
  -28.6784  -11.9886   21.3608 H   0  0  0  0  0  0
  -28.4640  -13.6385   21.8605 H   0  0  0  0  0  0
  -25.2763   -9.5685   22.4752 H   0  0  0  0  0  0
  -24.0002   -7.4637   22.7474 H   0  0  0  0  0  0
  -21.0842   -8.8770   19.8953 H   0  0  0  0  0  0
  -22.3697  -10.9668   19.6158 H   0  0  0  0  0  0
  -21.2002   -7.6148   23.9716 H   0  0  0  0  0  0
  -21.1479   -6.0523   25.9076 H   0  0  0  0  0  0
  -22.0599   -2.7611   23.2845 H   0  0  0  0  0  0
  -22.4108  -11.9878   22.4771 H   0  0  0  0  0  0
  -21.1114  -13.1250   22.2603 H   0  0  0  0  0  0
  -24.6624  -15.8437   20.5248 H   0  0  0  0  0  0
  -26.2883  -15.6379   20.1185 H   0  0  0  0  0  0
  -26.7123  -32.5527   23.1157 H   0  0  0  0  0  0
  -25.0066  -33.9781   25.0479 H   0  0  0  0  0  0
  -22.6931  -31.3078   21.4111 H   0  0  0  0  0  0
  -23.3745  -35.9644   23.3314 H   0  0  0  0  0  0
  -24.3579  -36.8904   22.2050 H   0  0  0  0  0  0
  -23.7242  -37.6519   23.6637 H   0  0  0  0  0  0
  -26.0469  -31.5994   20.5943 H   0  0  0  0  0  0
  -26.8226  -30.8858   21.9798 H   0  0  0  0  0  0
  -28.1045  -29.0923   21.1653 H   0  0  0  0  0  0
  -26.0522  -25.9648   19.0179 H   0  0  0  0  0  0
  -23.9748  -27.2989   19.0310 H   0  0  0  0  0  0
  -23.7183  -30.6005   19.4041 H   0  0  0  0  0  0
  -22.7369  -29.2439   19.8684 H   0  0  0  0  0  0
  -25.1287  -36.1967   25.0831 H   0  0  0  0  0  0
  -20.9964  -28.3232   24.1431 H   0  0  0  0  0  0
  -20.5677  -26.2276   23.3605 H   0  0  0  0  0  0
  -21.6636  -26.7450   22.1201 H   0  0  0  0  0  0
  -19.6908  -25.6309   21.1225 H   0  0  0  0  0  0
  -19.6685  -27.3215   20.6757 H   0  0  0  0  0  0
  -17.4197  -26.6683   21.4021 H   0  0  0  0  0  0
  -18.0318  -26.0069   22.9017 H   0  0  0  0  0  0
  -19.7929  -30.7263   24.2278 H   0  0  0  0  0  0
  -17.5011  -31.6267   24.5169 H   0  0  0  0  0  0
  -15.5346  -30.2994   23.7655 H   0  0  0  0  0  0
  -15.8661  -28.0833   22.7055 H   0  0  0  0  0  0
  -24.5910  -30.7053   25.7801 H   0  0  0  0  0  0
  -24.8938  -32.2862   26.4912 H   0  0  0  0  0  0
  -25.8094  -30.8866   27.0217 H   0  0  0  0  0  0
  -26.2831  -29.6800   24.1138 H   0  0  0  0  0  0
  -27.4069  -29.7254   25.4532 H   0  0  0  0  0  0
  -27.8666  -30.4351   23.9225 H   0  0  0  0  0  0
  -27.2696  -33.3604   26.2057 H   0  0  0  0  0  0
  -28.3871  -32.6833   25.0301 H   0  0  0  0  0  0
  -28.0714  -31.8405   26.5391 H   0  0  0  0  0  0
  -28.2603  -38.0096   24.7500 H   0  0  0  0  0  0
  -28.1064  -36.2626   24.6307 H   0  0  0  0  0  0
  -27.2293  -37.1470   25.8870 H   0  0  0  0  0  0
  -20.9302  -29.8751   21.6935 H   0  0  0  0  0  0
  -26.0180  -38.2868   24.1406 H   0  0  0  0  0  0
  -33.1415  -18.9556   21.4806 H   0  0  0  0  0  0
  -31.3951  -20.6930   21.3965 H   0  0  0  0  0  0
  -32.5647  -16.5817   21.3656 H   0  0  0  0  0  0
  -27.2027  -22.6725   20.2726 H   0  0  0  0  0  0
  -27.7934  -22.9595   21.8967 H   0  0  0  0  0  0
  -28.6493  -25.6530   21.9290 H   0  0  0  0  0  0
  -27.1089  -25.2897   21.1984 H   0  0  0  0  0  0
  -29.0636  -15.3325   21.3234 H   0  0  0  0  0  0
  -29.8684  -21.8048   20.2882 H   0  0  0  0  0  0
  -27.2830  -19.1765   21.9240 H   0  0  0  0  0  0
  -26.7842  -20.8246   21.7308 H   0  0  0  0  0  0
  1 25  1  0  0  0
  1 30  2  0  0  0
  1 81  1  0  0  0
  2  3  1  0  0  0
  2 25  1  0  0  0
  2 86  1  0  0  0
  2 87  1  0  0  0
  3  4  1  0  0  0
  3 88  1  0  0  0
  3 89  1  0  0  0
  4  5  1  0  0  0
  4 90  1  0  0  0
  4 91  1  0  0  0
  5  6  1  0  0  0
  5 26  1  0  0  0
  5 92  1  0  0  0
  6 25  1  0  0  0
  6 93  1  0  0  0
  6 94  1  0  0  0
  7  8  2  0  0  0
  7 26  1  0  0  0
  7 29  1  0  0  0
  8  9  1  0  0  0
  8 22  1  0  0  0
  9 10  1  0  0  0
  9 27  2  0  0  0
 10 11  2  0  0  0
 10 15  1  0  0  0
 11 12  1  0  0  0
 11 95  1  0  0  0
 12 13  2  0  0  0
 12 96  1  0  0  0
 13 14  1  0  0  0
 13 31  1  0  0  0
 14 15  2  0  0  0
 14 97  1  0  0  0
 15 98  1  0  0  0
 16 17  2  0  0  0
 16 21  1  0  0  0
 16 31  1  0  0  0
 17 18  1  0  0  0
 17 99  1  0  0  0
 18 19  2  0  0  0
 18100  1  0  0  0
 19 20  1  0  0  0
 19 24  1  0  0  0
 20 21  2  0  0  0
 20101  1  0  0  0
 21 23  1  0  0  0
 22 28  1  0  0  0
 22 32  2  0  0  0
 26 27  1  0  0  0
 28102  1  0  0  0
 28103  1  0  0  0
 29104  1  0  0  0
 29105  1  0  0  0
 33 34  1  0  0  0
 33 66  1  0  0  0
 33 70  2  0  0  0
 34 36  1  0  0  0
 34 59  1  0  0  0
 34106  1  0  0  0
 35 44  2  0  0  0
 35 45  1  0  0  0
 35 68  1  0  0  0
 36 56  1  0  0  0
 36107  1  0  0  0
 37 39  1  0  0  0
 37 47  1  0  0  0
 37 66  1  0  0  0
 37108  1  0  0  0
 38 43  2  0  0  0
 38 46  1  0  0  0
 38 47  1  0  0  0
 39 64  1  0  0  0
 39 67  2  0  0  0
 40 52  1  0  0  0
 40 53  2  0  0  0
 40 58  1  0  0  0
 41109  1  0  0  0
 41110  1  0  0  0
 41111  1  0  0  0
 41 48  1  0  0  0
 42 43  1  0  0  0
 42 66  1  0  0  0
 42112  1  0  0  0
 42113  1  0  0  0
 43 44  1  0  0  0
 44114  1  0  0  0
 45 46  2  0  0  0
 45115  1  0  0  0
 46116  1  0  0  0
 47117  1  0  0  0
 47118  1  0  0  0
 48 56  1  0  0  0
 48 65  1  0  0  0
 48119  1  0  0  0
 49 50  1  0  0  0
 49 53  1  0  0  0
 49 64  1  0  0  0
 49120  1  0  0  0
 50 51  1  0  0  0
 50121  1  0  0  0
 50122  1  0  0  0
 51 52  1  0  0  0
 51123  1  0  0  0
 51124  1  0  0  0
 52125  1  0  0  0
 52126  1  0  0  0
 53 54  1  0  0  0
 54 55  2  0  0  0
 54127  1  0  0  0
 55 57  1  0  0  0
 55128  1  0  0  0
 56 69  2  0  0  0
 57 58  2  0  0  0
 57129  1  0  0  0
 58130  1  0  0  0
 59 60  1  0  0  0
 59 61  1  0  0  0
 59 62  1  0  0  0
 60131  1  0  0  0
 60132  1  0  0  0
 60133  1  0  0  0
 61134  1  0  0  0
 61135  1  0  0  0
 61136  1  0  0  0
 62137  1  0  0  0
 62138  1  0  0  0
 62139  1  0  0  0
 63 65  1  0  0  0
 63140  1  0  0  0
 63141  1  0  0  0
 63142  1  0  0  0
 64143  1  0  0  0
 65144  1  0  0  0
 68 80  1  0  0  0
 71 72  2  0  0  0
 71 73  1  0  0  0
 71145  1  0  0  0
 72 74  1  0  0  0
 72146  1  0  0  0
 73 75  2  0  0  0
 73147  1  0  0  0
 74 76  2  0  0  0
 74 77  1  0  0  0
 75 76  1  0  0  0
 75 81  1  0  0  0
 76 85  1  0  0  0
 77 82  1  0  0  0
 77 83  2  0  0  0
 78 79  1  0  0  0
 78 80  1  0  0  0
 78 84  2  0  0  0
 79 82  1  0  0  0
 79148  1  0  0  0
 79149  1  0  0  0
 80150  1  0  0  0
 80151  1  0  0  0
 81152  1  0  0  0
 82153  1  0  0  0
 83154  1  0  0  0
 83155  1  0  0  0
M  CHG  1  83   1
M  ISO  4   1 100  68 101  80 101  81 100
M  END
> <chiral flag>
0

> <version>
0

> <s_m_source_file>
/data/baiqing/PycharmProjects/Reinvent-master-3.2/result/LINK_invent/BTK/process_docking_weight1_custom_product_contain_oxygen_bond_distance_aromatic_linkinvent_7_9_3/rearranged_h_0164.sdf

> <i_m_source_file_index>
37

> <r_mmod_Potential_Energy-OPLS-2005>
-307.141510009766

> <r_mmod_Stretch_Energy-OPLS-2005>
42.4182052612305

> <r_mmod_Bend_Energy-OPLS-2005>
95.3919906616211

> <r_mmod_Torsional_Energy-OPLS-2005>
233.270584106445

> <r_mmod_Improper_Torsional_Energy-OPLS-2005>
4.26513433456421

> <r_mmod_Van_der_Waal_Energy-OPLS-2005>
159.307357788086

> <r_mmod_Electrostatic_Energy-OPLS-2005>
-419.984497070312

> <r_mmod_Solvation_Energy-OPLS-2005>
-438.124328613281

> <b_mmod_Minimization_Converged-OPLS-2005>
0

> <r_mmod_RMS_Derivative-OPLS-2005>
0.565765142440796

$$$$
37
                    3D
 Structure written by MMmdl.
165173  0  0  1  0            999 V2000
  -30.7289  -14.4152   20.6052 C   0  0  0  0  0  0
  -30.4097  -12.2786   19.4143 C   0  0  0  0  0  0
  -29.4906  -12.5216   18.2010 C   0  0  0  0  0  0
  -28.0116  -12.3827   18.6103 C   0  0  0  0  0  0
  -27.6675  -13.2011   19.8826 C   0  0  2  0  0  0
  -28.7071  -12.9553   21.0001 C   0  0  0  0  0  0
  -25.2647  -13.8125   20.5701 C   0  0  0  0  0  0
  -24.1873  -13.0426   20.9172 C   0  0  0  0  0  0
  -24.6422  -11.6891   20.8760 C   0  0  0  0  0  0
  -23.9056  -10.4289   21.0428 C   0  0  0  0  0  0
  -24.3593   -9.4202   21.9207 C   0  0  0  0  0  0
  -23.6282   -8.2225   22.0766 C   0  0  0  0  0  0
  -22.4273   -8.0257   21.3546 C   0  0  0  0  0  0
  -21.9899   -9.0238   20.4662 C   0  0  0  0  0  0
  -22.7218  -10.2130   20.3094 C   0  0  0  0  0  0
  -21.6851   -6.0722   22.5270 C   0  0  0  0  0  0
  -21.4018   -6.5637   23.8201 C   0  0  0  0  0  0
  -21.3673   -5.6798   24.9174 C   0  0  0  0  0  0
  -21.6050   -4.3059   24.7221 C   0  0  0  0  0  0
  -21.8802   -3.8138   23.4345 C   0  0  0  0  0  0
  -21.9195   -4.6954   22.3406 C   0  0  0  0  0  0
  -22.7903  -13.5258   21.1841 C   0  0  0  0  0  0
  -22.1649   -4.2125   21.0989 F   0  0  0  0  0  0
  -21.5648   -3.4559   25.7747 F   0  0  0  0  0  0
  -30.0433  -13.2516   20.4556 N   0  0  0  0  0  0
  -26.3071  -12.9280   20.3407 N   0  0  0  0  0  0
  -25.9349  -11.6452   20.5759 N   0  0  0  0  0  0
  -22.0523  -12.8255   22.0381 N   0  0  0  0  0  0
  -25.4432  -15.1829   20.4086 N   0  0  0  0  0  0
  -31.8147  -14.6167   20.0518 O   0  0  0  0  0  0
  -21.6640   -6.8861   21.4227 O   0  0  0  0  0  0
  -22.3611  -14.5584   20.6723 O   0  0  0  0  0  0
  -24.6116  -31.8733   23.2143 C   0  0  0  0  0  0
  -25.9042  -32.4859   23.8423 C   0  0  1  0  0  0
  -27.2235  -27.4685   20.0995 C   0  0  0  0  0  0
  -25.5934  -33.8658   24.2363 N   0  0  0  0  0  0
  -23.3943  -30.4992   21.5560 C   0  0  2  0  0  0
  -24.8423  -28.9776   20.1058 C   0  0  0  0  0  0
  -22.7389  -29.4666   22.5005 C   0  0  0  0  0  0
  -18.0277  -28.1357   22.8507 C   0  0  0  0  0  0
  -24.1479  -36.7337   23.2626 C   0  0  0  0  0  0
  -25.9191  -30.8523   21.3584 C   0  0  0  0  0  0
  -25.9988  -29.4902   20.7071 C   0  0  0  0  0  0
  -27.1960  -28.7424   20.7021 C   0  0  0  0  0  0
  -26.0580  -26.9742   19.4750 C   0  0  0  0  0  0
  -24.8668  -27.7188   19.4811 C   0  0  0  0  0  0
  -23.5991  -29.8379   20.1653 C   0  0  0  0  0  0
  -25.4097  -36.3137   24.0334 C   0  0  1  0  0  0
  -20.5865  -28.3632   23.1338 C   0  0  2  0  0  0
  -20.6747  -26.9382   22.5447 C   0  0  0  0  0  0
  -19.5735  -26.6377   21.5215 C   0  0  0  0  0  0
  -18.1935  -26.7876   22.1686 C   0  0  0  0  0  0
  -19.1531  -28.8814   23.2915 C   0  0  0  0  0  0
  -18.9475  -30.1410   23.8946 C   0  0  0  0  0  0
  -17.6476  -30.6552   24.0614 C   0  0  0  0  0  0
  -25.9035  -34.9506   23.5133 C   0  0  0  0  0  0
  -16.5369  -29.9069   23.6354 C   0  0  0  0  0  0
  -16.7281  -28.6479   23.0358 C   0  0  0  0  0  0
  -26.4476  -31.6615   25.0739 C   0  0  0  0  0  0
  -25.3742  -31.3746   26.1493 C   0  0  0  0  0  0
  -27.0298  -30.3060   24.6085 C   0  0  0  0  0  0
  -27.6058  -32.4310   25.7503 C   0  0  0  0  0  0
  -27.5579  -37.1823   24.8458 C   0  0  0  0  0  0
  -21.4118  -29.3023   22.3759 N   0  0  0  0  0  0
  -26.4291  -37.3816   23.9412 N   0  0  0  0  0  0
  -24.6604  -31.0862   22.1039 N   0  0  0  0  0  0
  -23.4197  -28.8223   23.3020 O   0  0  0  0  0  0
  -28.3662  -26.7099   20.1500 O   0  0  0  0  0  0
  -26.5555  -34.8941   22.4677 O   0  0  0  0  0  0
  -23.5320  -32.1481   23.7575 O   0  0  0  0  0  0
  -31.9860  -18.6183   21.5526 C   0  0  0  0  0  0
  -30.9268  -19.4997   21.8353 C   0  0  0  0  0  0
  -31.7364  -17.2454   21.3851 C   0  0  0  0  0  0
  -29.3613  -17.6360   21.7720 C   0  0  0  0  0  0
  -29.6049  -19.0209   21.9554 C   0  0  0  0  0  0
  -30.4165  -16.7404   21.4783 C   0  0  0  0  0  0
  -27.7135  -22.9579   20.0733 C   0  0  0  0  0  0
  -28.5940  -22.1385   21.0109 C   0  0  0  0  0  0
  -25.7277  -23.2044   18.8702 C   0  0  0  0  0  0
  -24.2992  -23.3924   19.3684 C   0  0  0  0  0  0
  -27.2183  -19.3541   22.8941 C   0  0  0  0  0  0
  -28.3501  -24.3040   19.6506 C   0  0  0  0  0  0
  -28.1682  -25.4044   20.7120 C   0  0  0  0  0  0
  -28.4920  -20.0104   22.3304 C   0  0  2  0  0  0
  -26.5308  -22.5353   19.7737 N   0  0  0  0  0  0
  -30.0999  -15.3565   21.3361 N   0  0  0  0  0  0
  -28.1101  -20.9063   21.2411 N   0  0  0  0  0  0
  -29.6090  -22.5934   21.5465 O   0  0  0  0  0  0
  -26.0381  -23.6263   17.7550 O   0  0  0  0  0  0
  -31.4592  -12.3471   19.1246 H   0  0  0  0  0  0
  -30.2750  -11.2616   19.7903 H   0  0  0  0  0  0
  -29.7268  -11.8248   17.3965 H   0  0  0  0  0  0
  -29.6655  -13.5204   17.7988 H   0  0  0  0  0  0
  -27.8160  -11.3256   18.7884 H   0  0  0  0  0  0
  -27.3596  -12.6806   17.7864 H   0  0  0  0  0  0
  -27.7228  -14.2541   19.6048 H   0  0  0  0  0  0
  -28.6822  -11.9110   21.3171 H   0  0  0  0  0  0
  -28.4677  -13.5275   21.8968 H   0  0  0  0  0  0
  -25.2736   -9.5671   22.4785 H   0  0  0  0  0  0
  -23.9989   -7.4618   22.7489 H   0  0  0  0  0  0
  -21.0824   -8.8774   19.8965 H   0  0  0  0  0  0
  -22.3677  -10.9683   19.6215 H   0  0  0  0  0  0
  -21.1994   -7.6145   23.9704 H   0  0  0  0  0  0
  -21.1534   -6.0534   25.9082 H   0  0  0  0  0  0
  -22.0580   -2.7596   23.2857 H   0  0  0  0  0  0
  -22.4111  -11.9884   22.4733 H   0  0  0  0  0  0
  -21.1181  -13.1334   22.2669 H   0  0  0  0  0  0
  -24.6902  -15.8509   20.5274 H   0  0  0  0  0  0
  -26.2935  -15.6022   20.0541 H   0  0  0  0  0  0
  -26.7130  -32.5580   23.1208 H   0  0  0  0  0  0
  -25.0196  -33.9823   25.0575 H   0  0  0  0  0  0
  -22.6800  -31.3142   21.4252 H   0  0  0  0  0  0
  -23.3745  -35.9665   23.3290 H   0  0  0  0  0  0
  -24.3580  -36.8949   22.2041 H   0  0  0  0  0  0
  -23.7221  -37.6545   23.6625 H   0  0  0  0  0  0
  -26.0125  -31.6158   20.5858 H   0  0  0  0  0  0
  -26.8156  -30.9157   21.9646 H   0  0  0  0  0  0
  -28.0870  -29.1256   21.1805 H   0  0  0  0  0  0
  -26.0647  -26.0155   18.9833 H   0  0  0  0  0  0
  -23.9821  -27.3206   19.0047 H   0  0  0  0  0  0
  -23.7007  -30.6189   19.4114 H   0  0  0  0  0  0
  -22.7225  -29.2594   19.8695 H   0  0  0  0  0  0
  -25.1253  -36.2025   25.0823 H   0  0  0  0  0  0
  -20.9970  -28.3172   24.1451 H   0  0  0  0  0  0
  -20.5561  -26.2267   23.3643 H   0  0  0  0  0  0
  -21.6639  -26.7358   22.1333 H   0  0  0  0  0  0
  -19.6945  -25.6307   21.1201 H   0  0  0  0  0  0
  -19.6607  -27.3242   20.6791 H   0  0  0  0  0  0
  -17.4137  -26.6518   21.4175 H   0  0  0  0  0  0
  -18.0426  -26.0084   22.9162 H   0  0  0  0  0  0
  -19.7955  -30.7191   24.2343 H   0  0  0  0  0  0
  -17.5031  -31.6219   24.5259 H   0  0  0  0  0  0
  -15.5374  -30.2967   23.7683 H   0  0  0  0  0  0
  -15.8658  -28.0829   22.7060 H   0  0  0  0  0  0
  -24.5895  -30.7105   25.7863 H   0  0  0  0  0  0
  -24.8948  -32.2916   26.4926 H   0  0  0  0  0  0
  -25.8096  -30.8945   27.0263 H   0  0  0  0  0  0
  -26.2853  -29.6849   24.1094 H   0  0  0  0  0  0
  -27.4045  -29.7272   25.4539 H   0  0  0  0  0  0
  -27.8687  -30.4396   23.9248 H   0  0  0  0  0  0
  -27.2688  -33.3589   26.2129 H   0  0  0  0  0  0
  -28.3858  -32.6899   25.0336 H   0  0  0  0  0  0
  -28.0737  -31.8404   26.5386 H   0  0  0  0  0  0
  -28.2600  -38.0114   24.7503 H   0  0  0  0  0  0
  -28.1062  -36.2650   24.6269 H   0  0  0  0  0  0
  -27.2300  -37.1474   25.8860 H   0  0  0  0  0  0
  -20.9252  -29.8800   21.7033 H   0  0  0  0  0  0
  -26.0194  -38.2900   24.1419 H   0  0  0  0  0  0
  -32.9968  -18.9935   21.4748 H   0  0  0  0  0  0
  -31.1387  -20.5506   21.9809 H   0  0  0  0  0  0
  -32.5802  -16.5966   21.1999 H   0  0  0  0  0  0
  -28.3607  -17.2429   21.8654 H   0  0  0  0  0  0
  -24.2921  -23.8792   20.3435 H   0  0  0  0  0  0
  -23.7871  -22.4351   19.4580 H   0  0  0  0  0  0
  -23.7301  -24.0177   18.6787 H   0  0  0  0  0  0
  -27.4482  -18.7223   23.7514 H   0  0  0  0  0  0
  -26.7099  -18.7444   22.1468 H   0  0  0  0  0  0
  -26.5056  -20.1112   23.2262 H   0  0  0  0  0  0
  -27.9750  -24.6592   18.6967 H   0  0  0  0  0  0
  -29.4169  -24.1658   19.4695 H   0  0  0  0  0  0
  -28.8922  -25.2702   21.5170 H   0  0  0  0  0  0
  -27.1915  -25.3161   21.1967 H   0  0  0  0  0  0
  -28.8980  -20.6220   23.1400 H   0  0  0  0  0  0
  -29.2082  -15.0637   21.7079 H   0  0  0  0  0  0
  -27.2754  -20.6811   20.7123 H   0  0  0  0  0  0
  1 25  1  0  0  0
  1 30  2  0  0  0
  1 86  1  0  0  0
  2  3  1  0  0  0
  2 25  1  0  0  0
  2 90  1  0  0  0
  2 91  1  0  0  0
  3  4  1  0  0  0
  3 92  1  0  0  0
  3 93  1  0  0  0
  4  5  1  0  0  0
  4 94  1  0  0  0
  4 95  1  0  0  0
  5  6  1  0  0  0
  5 26  1  0  0  0
  5 96  1  0  0  0
  6 25  1  0  0  0
  6 97  1  0  0  0
  6 98  1  0  0  0
  7  8  2  0  0  0
  7 26  1  0  0  0
  7 29  1  0  0  0
  8  9  1  0  0  0
  8 22  1  0  0  0
  9 10  1  0  0  0
  9 27  2  0  0  0
 10 11  2  0  0  0
 10 15  1  0  0  0
 11 12  1  0  0  0
 11 99  1  0  0  0
 12 13  2  0  0  0
 12100  1  0  0  0
 13 14  1  0  0  0
 13 31  1  0  0  0
 14 15  2  0  0  0
 14101  1  0  0  0
 15102  1  0  0  0
 16 17  2  0  0  0
 16 21  1  0  0  0
 16 31  1  0  0  0
 17 18  1  0  0  0
 17103  1  0  0  0
 18 19  2  0  0  0
 18104  1  0  0  0
 19 20  1  0  0  0
 19 24  1  0  0  0
 20 21  2  0  0  0
 20105  1  0  0  0
 21 23  1  0  0  0
 22 28  1  0  0  0
 22 32  2  0  0  0
 26 27  1  0  0  0
 28106  1  0  0  0
 28107  1  0  0  0
 29108  1  0  0  0
 29109  1  0  0  0
 33 34  1  0  0  0
 33 66  1  0  0  0
 33 70  2  0  0  0
 34 36  1  0  0  0
 34 59  1  0  0  0
 34110  1  0  0  0
 35 44  2  0  0  0
 35 45  1  0  0  0
 35 68  1  0  0  0
 36 56  1  0  0  0
 36111  1  0  0  0
 37 39  1  0  0  0
 37 47  1  0  0  0
 37 66  1  0  0  0
 37112  1  0  0  0
 38 43  2  0  0  0
 38 46  1  0  0  0
 38 47  1  0  0  0
 39 64  1  0  0  0
 39 67  2  0  0  0
 40 52  1  0  0  0
 40 53  2  0  0  0
 40 58  1  0  0  0
 41113  1  0  0  0
 41114  1  0  0  0
 41115  1  0  0  0
 41 48  1  0  0  0
 42 43  1  0  0  0
 42 66  1  0  0  0
 42116  1  0  0  0
 42117  1  0  0  0
 43 44  1  0  0  0
 44118  1  0  0  0
 45 46  2  0  0  0
 45119  1  0  0  0
 46120  1  0  0  0
 47121  1  0  0  0
 47122  1  0  0  0
 48 56  1  0  0  0
 48 65  1  0  0  0
 48123  1  0  0  0
 49 50  1  0  0  0
 49 53  1  0  0  0
 49 64  1  0  0  0
 49124  1  0  0  0
 50 51  1  0  0  0
 50125  1  0  0  0
 50126  1  0  0  0
 51 52  1  0  0  0
 51127  1  0  0  0
 51128  1  0  0  0
 52129  1  0  0  0
 52130  1  0  0  0
 53 54  1  0  0  0
 54 55  2  0  0  0
 54131  1  0  0  0
 55 57  1  0  0  0
 55132  1  0  0  0
 56 69  2  0  0  0
 57 58  2  0  0  0
 57133  1  0  0  0
 58134  1  0  0  0
 59 60  1  0  0  0
 59 61  1  0  0  0
 59 62  1  0  0  0
 60135  1  0  0  0
 60136  1  0  0  0
 60137  1  0  0  0
 61138  1  0  0  0
 61139  1  0  0  0
 61140  1  0  0  0
 62141  1  0  0  0
 62142  1  0  0  0
 62143  1  0  0  0
 63 65  1  0  0  0
 63144  1  0  0  0
 63145  1  0  0  0
 63146  1  0  0  0
 64147  1  0  0  0
 65148  1  0  0  0
 68 83  1  0  0  0
 71 72  2  0  0  0
 71 73  1  0  0  0
 71149  1  0  0  0
 72 75  1  0  0  0
 72150  1  0  0  0
 73 76  2  0  0  0
 73151  1  0  0  0
 74 75  2  0  0  0
 74 76  1  0  0  0
 74152  1  0  0  0
 75 84  1  0  0  0
 76 86  1  0  0  0
 77 78  1  0  0  0
 77 82  1  0  0  0
 77 85  2  0  0  0
 78 87  1  0  0  0
 78 88  2  0  0  0
 79 80  1  0  0  0
 79 85  1  0  0  0
 79 89  2  0  0  0
 80153  1  0  0  0
 80154  1  0  0  0
 80155  1  0  0  0
 81156  1  0  0  0
 81157  1  0  0  0
 81158  1  0  0  0
 81 84  1  0  0  0
 82 83  1  0  0  0
 82159  1  0  0  0
 82160  1  0  0  0
 83161  1  0  0  0
 83162  1  0  0  0
 84 87  1  0  0  0
 84163  1  0  0  0
 86164  1  0  0  0
 87165  1  0  0  0
M  ISO  4   1 100  68 101  83 101  86 100
M  END
> <chiral flag>
0

> <version>
0

> <s_m_source_file>
/data/baiqing/PycharmProjects/Reinvent-master-3.2/result/LINK_invent/BTK/process_docking_weight1_custom_product_contain_oxygen_bond_distance_aromatic_linkinvent_7_9_3/rearranged_h_0164.sdf

> <i_m_source_file_index>
38

> <r_mmod_Potential_Energy-OPLS-2005>
-139.70654296875

> <r_mmod_Stretch_Energy-OPLS-2005>
39.7150497436523

> <r_mmod_Bend_Energy-OPLS-2005>
113.143218994141

> <r_mmod_Torsional_Energy-OPLS-2005>
250.4853515625

> <r_mmod_Improper_Torsional_Energy-OPLS-2005>
3.9070508480072

> <r_mmod_Van_der_Waal_Energy-OPLS-2005>
174.232727050781

> <r_mmod_Electrostatic_Energy-OPLS-2005>
-511.983764648438

> <r_mmod_Solvation_Energy-OPLS-2005>
-219.428863525391

> <b_mmod_Minimization_Converged-OPLS-2005>
0

> <r_mmod_RMS_Derivative-OPLS-2005>
3.7022533416748

$$$$
38
                    3D
 Structure written by MMmdl.
170178  0  0  1  0            999 V2000
  -30.7513  -14.3871   20.6832 C   0  0  0  0  0  0
  -30.4235  -12.3007   19.4047 C   0  0  0  0  0  0
  -29.4891  -12.5242   18.1978 C   0  0  0  0  0  0
  -28.0133  -12.3823   18.6094 C   0  0  0  0  0  0
  -27.6667  -13.2049   19.8779 C   0  0  2  0  0  0
  -28.7014  -12.9482   20.9960 C   0  0  0  0  0  0
  -25.2634  -13.8164   20.5714 C   0  0  0  0  0  0
  -24.1865  -13.0446   20.9196 C   0  0  0  0  0  0
  -24.6412  -11.6915   20.8732 C   0  0  0  0  0  0
  -23.9064  -10.4298   21.0400 C   0  0  0  0  0  0
  -24.3630   -9.4213   21.9185 C   0  0  0  0  0  0
  -23.6326   -8.2224   22.0748 C   0  0  0  0  0  0
  -22.4294   -8.0268   21.3532 C   0  0  0  0  0  0
  -21.9908   -9.0237   20.4622 C   0  0  0  0  0  0
  -22.7229  -10.2137   20.3040 C   0  0  0  0  0  0
  -21.6832   -6.0748   22.5292 C   0  0  0  0  0  0
  -21.3990   -6.5649   23.8226 C   0  0  0  0  0  0
  -21.3680   -5.6804   24.9202 C   0  0  0  0  0  0
  -21.6040   -4.3063   24.7240 C   0  0  0  0  0  0
  -21.8816   -3.8157   23.4355 C   0  0  0  0  0  0
  -21.9201   -4.6982   22.3417 C   0  0  0  0  0  0
  -22.7888  -13.5250   21.1873 C   0  0  0  0  0  0
  -22.1663   -4.2176   21.0988 F   0  0  0  0  0  0
  -21.5651   -3.4538   25.7744 F   0  0  0  0  0  0
  -30.0490  -13.2427   20.4702 N   0  0  0  0  0  0
  -26.3059  -12.9345   20.3351 N   0  0  0  0  0  0
  -25.9336  -11.6508   20.5721 N   0  0  0  0  0  0
  -22.0524  -12.8218   22.0418 N   0  0  0  0  0  0
  -25.4392  -15.1888   20.4168 N   0  0  0  0  0  0
  -31.7633  -14.6941   20.0459 O   0  0  0  0  0  0
  -21.6632   -6.8884   21.4252 O   0  0  0  0  0  0
  -22.3574  -14.5548   20.6710 O   0  0  0  0  0  0
  -24.6089  -31.8697   23.2136 C   0  0  0  0  0  0
  -25.9008  -32.4824   23.8436 C   0  0  1  0  0  0
  -27.2479  -27.4793   20.0790 C   0  0  0  0  0  0
  -25.5873  -33.8622   24.2363 N   0  0  0  0  0  0
  -23.3979  -30.4903   21.5496 C   0  0  2  0  0  0
  -24.8474  -28.9557   20.1218 C   0  0  0  0  0  0
  -22.7385  -29.4647   22.4979 C   0  0  0  0  0  0
  -18.0274  -28.1372   22.8502 C   0  0  0  0  0  0
  -24.1488  -36.7339   23.2634 C   0  0  0  0  0  0
  -25.9237  -30.8417   21.3680 C   0  0  0  0  0  0
  -26.0027  -29.4793   20.7153 C   0  0  0  0  0  0
  -27.2069  -28.7461   20.6957 C   0  0  0  0  0  0
  -26.0796  -26.9509   19.4928 C   0  0  0  0  0  0
  -24.8782  -27.6875   19.5139 C   0  0  0  0  0  0
  -23.6093  -29.8209   20.1649 C   0  0  0  0  0  0
  -25.4102  -36.3124   24.0337 C   0  0  1  0  0  0
  -20.5861  -28.3654   23.1328 C   0  0  2  0  0  0
  -20.6757  -26.9385   22.5424 C   0  0  0  0  0  0
  -19.5727  -26.6376   21.5217 C   0  0  0  0  0  0
  -18.1912  -26.7919   22.1638 C   0  0  0  0  0  0
  -19.1520  -28.8815   23.2917 C   0  0  0  0  0  0
  -18.9452  -30.1440   23.8901 C   0  0  0  0  0  0
  -17.6449  -30.6567   24.0567 C   0  0  0  0  0  0
  -25.9031  -34.9484   23.5149 C   0  0  0  0  0  0
  -16.5347  -29.9073   23.6318 C   0  0  0  0  0  0
  -16.7258  -28.6499   23.0320 C   0  0  0  0  0  0
  -26.4454  -31.6611   25.0766 C   0  0  0  0  0  0
  -25.3741  -31.3716   26.1525 C   0  0  0  0  0  0
  -27.0299  -30.3056   24.6170 C   0  0  0  0  0  0
  -27.6024  -32.4352   25.7506 C   0  0  0  0  0  0
  -27.5585  -37.1833   24.8460 C   0  0  0  0  0  0
  -21.4123  -29.3033   22.3750 N   0  0  0  0  0  0
  -26.4304  -37.3806   23.9398 N   0  0  0  0  0  0
  -24.6600  -31.0844   22.1014 N   0  0  0  0  0  0
  -23.4178  -28.8162   23.2965 O   0  0  0  0  0  0
  -28.4384  -26.8057   19.9888 O   0  0  0  0  0  0
  -26.5615  -34.8912   22.4729 O   0  0  0  0  0  0
  -23.5284  -32.1439   23.7528 O   0  0  0  0  0  0
  -31.3787  -17.1127   22.7078 C   0  0  0  0  0  0
  -29.7467  -17.4197   20.9567 C   0  0  0  0  0  0
  -31.4919  -18.5208   22.8044 C   0  0  0  0  0  0
  -30.4914  -16.5524   21.7727 C   0  0  0  0  0  0
  -30.6965  -19.2998   21.9259 C   0  0  0  0  0  0
  -29.4641  -22.7789   21.9091 C   0  0  0  0  0  0
  -28.3503  -24.3904   20.3026 C   0  0  0  0  0  0
  -31.9460  -20.0841   24.8355 C   0  0  0  0  0  0
  -33.7674  -19.6362   23.0953 C   0  0  0  0  0  0
  -27.5331  -21.9991   20.4231 C   0  0  0  0  0  0
  -27.0812  -23.5773   22.3400 C   0  0  0  0  0  0
  -29.6198  -21.3619   22.4756 C   0  0  0  0  0  0
  -28.6133  -25.7653   20.9401 C   0  0  0  0  0  0
  -32.5162  -19.0912   23.8027 C   0  0  0  0  0  0
  -28.1126  -23.1818   21.2513 C   0  0  0  0  0  0
  -29.8518  -18.7634   21.0243 N   0  0  0  0  0  0
  -30.3025  -15.1494   21.6919 N   0  0  0  0  0  0
  -30.7737  -20.6874   21.8770 N   0  0  0  0  0  0
  -30.4139  -23.5631   22.0171 O   0  0  0  0  0  0
  -28.3377  -24.2608   19.0707 O   0  0  0  0  0  0
  -31.4637  -12.4135   19.1003 H   0  0  0  0  0  0
  -30.3348  -11.2799   19.7730 H   0  0  0  0  0  0
  -29.7202  -11.8095   17.4060 H   0  0  0  0  0  0
  -29.6640  -13.5164   17.7760 H   0  0  0  0  0  0
  -27.8203  -11.3262   18.8031 H   0  0  0  0  0  0
  -27.3631  -12.6721   17.7838 H   0  0  0  0  0  0
  -27.7193  -14.2557   19.5969 H   0  0  0  0  0  0
  -28.6651  -11.9012   21.3042 H   0  0  0  0  0  0
  -28.4399  -13.5194   21.8888 H   0  0  0  0  0  0
  -25.2759   -9.5711   22.4787 H   0  0  0  0  0  0
  -24.0041   -7.4602   22.7438 H   0  0  0  0  0  0
  -21.0856   -8.8756   19.8905 H   0  0  0  0  0  0
  -22.3677  -10.9706   19.6158 H   0  0  0  0  0  0
  -21.1938   -7.6154   23.9750 H   0  0  0  0  0  0
  -21.1508   -6.0523   25.9119 H   0  0  0  0  0  0
  -22.0573   -2.7626   23.2843 H   0  0  0  0  0  0
  -22.4081  -11.9866   22.4855 H   0  0  0  0  0  0
  -21.1135  -13.1221   22.2572 H   0  0  0  0  0  0
  -24.6769  -15.8494   20.5198 H   0  0  0  0  0  0
  -26.2986  -15.6235   20.1008 H   0  0  0  0  0  0
  -26.7078  -32.5566   23.1197 H   0  0  0  0  0  0
  -24.9996  -33.9814   25.0475 H   0  0  0  0  0  0
  -22.6873  -31.3067   21.4081 H   0  0  0  0  0  0
  -23.3732  -35.9699   23.3306 H   0  0  0  0  0  0
  -24.3580  -36.8944   22.2054 H   0  0  0  0  0  0
  -23.7271  -37.6546   23.6660 H   0  0  0  0  0  0
  -26.0524  -31.6129   20.6062 H   0  0  0  0  0  0
  -26.8036  -30.8833   21.9985 H   0  0  0  0  0  0
  -28.1085  -29.1571   21.1344 H   0  0  0  0  0  0
  -26.1071  -25.9886   18.9991 H   0  0  0  0  0  0
  -23.9887  -27.2818   19.0483 H   0  0  0  0  0  0
  -23.7228  -30.5966   19.4058 H   0  0  0  0  0  0
  -22.7341  -29.2444   19.8651 H   0  0  0  0  0  0
  -25.1275  -36.2013   25.0839 H   0  0  0  0  0  0
  -20.9966  -28.3215   24.1447 H   0  0  0  0  0  0
  -20.5651  -26.2256   23.3617 H   0  0  0  0  0  0
  -21.6626  -26.7433   22.1218 H   0  0  0  0  0  0
  -19.6882  -25.6290   21.1224 H   0  0  0  0  0  0
  -19.6642  -27.3205   20.6758 H   0  0  0  0  0  0
  -17.4194  -26.6666   21.4047 H   0  0  0  0  0  0
  -18.0317  -26.0064   22.9031 H   0  0  0  0  0  0
  -19.7927  -30.7271   24.2243 H   0  0  0  0  0  0
  -17.5000  -31.6231   24.5201 H   0  0  0  0  0  0
  -15.5347  -30.2966   23.7610 H   0  0  0  0  0  0
  -15.8688  -28.0823   22.6986 H   0  0  0  0  0  0
  -24.5855  -30.7125   25.7880 H   0  0  0  0  0  0
  -24.8984  -32.2876   26.5065 H   0  0  0  0  0  0
  -25.8091  -30.8819   27.0242 H   0  0  0  0  0  0
  -26.2873  -29.6802   24.1193 H   0  0  0  0  0  0
  -27.4020  -29.7313   25.4658 H   0  0  0  0  0  0
  -27.8729  -30.4333   23.9358 H   0  0  0  0  0  0
  -27.2611  -33.3602   26.2148 H   0  0  0  0  0  0
  -28.3779  -32.6988   25.0319 H   0  0  0  0  0  0
  -28.0764  -31.8468   26.5360 H   0  0  0  0  0  0
  -28.2606  -38.0122   24.7497 H   0  0  0  0  0  0
  -28.1070  -36.2660   24.6292 H   0  0  0  0  0  0
  -27.2318  -37.1504   25.8864 H   0  0  0  0  0  0
  -20.9269  -29.8803   21.7025 H   0  0  0  0  0  0
  -26.0189  -38.2890   24.1365 H   0  0  0  0  0  0
  -31.9683  -16.4665   23.3412 H   0  0  0  0  0  0
  -29.0278  -17.0326   20.2466 H   0  0  0  0  0  0
  -31.0746  -19.6724   25.3436 H   0  0  0  0  0  0
  -31.6652  -21.0363   24.3936 H   0  0  0  0  0  0
  -32.6884  -20.3121   25.6052 H   0  0  0  0  0  0
  -34.2160  -18.8686   22.4660 H   0  0  0  0  0  0
  -34.5238  -19.9456   23.8187 H   0  0  0  0  0  0
  -33.5512  -20.4938   22.4572 H   0  0  0  0  0  0
  -28.3021  -21.4922   19.8367 H   0  0  0  0  0  0
  -26.7648  -22.3302   19.7251 H   0  0  0  0  0  0
  -27.0613  -21.2512   21.0577 H   0  0  0  0  0  0
  -27.5451  -24.1169   23.1716 H   0  0  0  0  0  0
  -26.5852  -22.7021   22.7607 H   0  0  0  0  0  0
  -26.2923  -24.2181   21.9334 H   0  0  0  0  0  0
  -28.7022  -20.7888   22.3541 H   0  0  0  0  0  0
  -29.7676  -21.4503   23.5517 H   0  0  0  0  0  0
  -27.9747  -25.9190   21.8074 H   0  0  0  0  0  0
  -29.6423  -25.8043   21.2912 H   0  0  0  0  0  0
  -32.8653  -18.2526   24.4073 H   0  0  0  0  0  0
  -29.5350  -14.7646   22.2242 H   0  0  0  0  0  0
  -30.8448  -20.9932   20.9142 H   0  0  0  0  0  0
  1 25  1  0  0  0
  1 30  2  0  0  0
  1 87  1  0  0  0
  2  3  1  0  0  0
  2 25  1  0  0  0
  2 91  1  0  0  0
  2 92  1  0  0  0
  3  4  1  0  0  0
  3 93  1  0  0  0
  3 94  1  0  0  0
  4  5  1  0  0  0
  4 95  1  0  0  0
  4 96  1  0  0  0
  5  6  1  0  0  0
  5 26  1  0  0  0
  5 97  1  0  0  0
  6 25  1  0  0  0
  6 98  1  0  0  0
  6 99  1  0  0  0
  7  8  2  0  0  0
  7 26  1  0  0  0
  7 29  1  0  0  0
  8  9  1  0  0  0
  8 22  1  0  0  0
  9 10  1  0  0  0
  9 27  2  0  0  0
 10 11  2  0  0  0
 10 15  1  0  0  0
 11 12  1  0  0  0
 11100  1  0  0  0
 12 13  2  0  0  0
 12101  1  0  0  0
 13 14  1  0  0  0
 13 31  1  0  0  0
 14 15  2  0  0  0
 14102  1  0  0  0
 15103  1  0  0  0
 16 17  2  0  0  0
 16 21  1  0  0  0
 16 31  1  0  0  0
 17 18  1  0  0  0
 17104  1  0  0  0
 18 19  2  0  0  0
 18105  1  0  0  0
 19 20  1  0  0  0
 19 24  1  0  0  0
 20 21  2  0  0  0
 20106  1  0  0  0
 21 23  1  0  0  0
 22 28  1  0  0  0
 22 32  2  0  0  0
 26 27  1  0  0  0
 28107  1  0  0  0
 28108  1  0  0  0
 29109  1  0  0  0
 29110  1  0  0  0
 33 34  1  0  0  0
 33 66  1  0  0  0
 33 70  2  0  0  0
 34 36  1  0  0  0
 34 59  1  0  0  0
 34111  1  0  0  0
 35 44  2  0  0  0
 35 45  1  0  0  0
 35 68  1  0  0  0
 36 56  1  0  0  0
 36112  1  0  0  0
 37 39  1  0  0  0
 37 47  1  0  0  0
 37 66  1  0  0  0
 37113  1  0  0  0
 38 43  2  0  0  0
 38 46  1  0  0  0
 38 47  1  0  0  0
 39 64  1  0  0  0
 39 67  2  0  0  0
 40 52  1  0  0  0
 40 53  2  0  0  0
 40 58  1  0  0  0
 41114  1  0  0  0
 41115  1  0  0  0
 41116  1  0  0  0
 41 48  1  0  0  0
 42 43  1  0  0  0
 42 66  1  0  0  0
 42117  1  0  0  0
 42118  1  0  0  0
 43 44  1  0  0  0
 44119  1  0  0  0
 45 46  2  0  0  0
 45120  1  0  0  0
 46121  1  0  0  0
 47122  1  0  0  0
 47123  1  0  0  0
 48 56  1  0  0  0
 48 65  1  0  0  0
 48124  1  0  0  0
 49 50  1  0  0  0
 49 53  1  0  0  0
 49 64  1  0  0  0
 49125  1  0  0  0
 50 51  1  0  0  0
 50126  1  0  0  0
 50127  1  0  0  0
 51 52  1  0  0  0
 51128  1  0  0  0
 51129  1  0  0  0
 52130  1  0  0  0
 52131  1  0  0  0
 53 54  1  0  0  0
 54 55  2  0  0  0
 54132  1  0  0  0
 55 57  1  0  0  0
 55133  1  0  0  0
 56 69  2  0  0  0
 57 58  2  0  0  0
 57134  1  0  0  0
 58135  1  0  0  0
 59 60  1  0  0  0
 59 61  1  0  0  0
 59 62  1  0  0  0
 60136  1  0  0  0
 60137  1  0  0  0
 60138  1  0  0  0
 61139  1  0  0  0
 61140  1  0  0  0
 61141  1  0  0  0
 62142  1  0  0  0
 62143  1  0  0  0
 62144  1  0  0  0
 63 65  1  0  0  0
 63145  1  0  0  0
 63146  1  0  0  0
 63147  1  0  0  0
 64148  1  0  0  0
 65149  1  0  0  0
 68 83  1  0  0  0
 71 73  2  0  0  0
 71 74  1  0  0  0
 71150  1  0  0  0
 72 74  2  0  0  0
 72 86  1  0  0  0
 72151  1  0  0  0
 73 75  1  0  0  0
 73 84  1  0  0  0
 74 87  1  0  0  0
 75 86  2  0  0  0
 75 88  1  0  0  0
 76 82  1  0  0  0
 76 85  1  0  0  0
 76 89  2  0  0  0
 77 83  1  0  0  0
 77 85  1  0  0  0
 77 90  2  0  0  0
 78152  1  0  0  0
 78153  1  0  0  0
 78154  1  0  0  0
 78 84  1  0  0  0
 79 84  1  0  0  0
 79155  1  0  0  0
 79156  1  0  0  0
 79157  1  0  0  0
 80158  1  0  0  0
 80159  1  0  0  0
 80160  1  0  0  0
 80 85  1  0  0  0
 81 85  1  0  0  0
 81161  1  0  0  0
 81162  1  0  0  0
 81163  1  0  0  0
 82 88  1  0  0  0
 82164  1  0  0  0
 82165  1  0  0  0
 83166  1  0  0  0
 83167  1  0  0  0
 84168  1  0  0  0
 87169  1  0  0  0
 88170  1  0  0  0
M  ISO  4   1 100  68 101  83 101  87 100
M  END
> <chiral flag>
0

> <version>
0

> <s_m_source_file>
/data/baiqing/PycharmProjects/Reinvent-master-3.2/result/LINK_invent/BTK/process_docking_weight1_custom_product_contain_oxygen_bond_distance_aromatic_linkinvent_7_9_3/rearranged_h_0164.sdf

> <i_m_source_file_index>
39

> <r_mmod_Potential_Energy-OPLS-2005>
-241.94352722168

> <r_mmod_Stretch_Energy-OPLS-2005>
38.3301010131836

> <r_mmod_Bend_Energy-OPLS-2005>
98.2106018066406

> <r_mmod_Torsional_Energy-OPLS-2005>
310.832427978516

> <r_mmod_Improper_Torsional_Energy-OPLS-2005>
9.86036205291748

> <r_mmod_Van_der_Waal_Energy-OPLS-2005>
163.8203125

> <r_mmod_Electrostatic_Energy-OPLS-2005>
-628.984558105469

> <r_mmod_Solvation_Energy-OPLS-2005>
-241.322067260742

> <b_mmod_Minimization_Converged-OPLS-2005>
0

> <r_mmod_RMS_Derivative-OPLS-2005>
4.98631048202515

$$$$
39
                    3D
 Structure written by MMmdl.
163172  0  0  1  0            999 V2000
  -30.6372  -14.6236   20.4680 C   0  0  0  0  0  0
  -30.4344  -12.3586   19.4755 C   0  0  0  0  0  0
  -29.5110  -12.4375   18.2397 C   0  0  0  0  0  0
  -28.0301  -12.3246   18.6440 C   0  0  0  0  0  0
  -27.6538  -13.2129   19.8590 C   0  0  2  0  0  0
  -28.6943  -13.0867   20.9938 C   0  0  0  0  0  0
  -25.2564  -13.8163   20.5669 C   0  0  0  0  0  0
  -24.1829  -13.0440   20.9206 C   0  0  0  0  0  0
  -24.6387  -11.6912   20.8754 C   0  0  0  0  0  0
  -23.9049  -10.4303   21.0397 C   0  0  0  0  0  0
  -24.3612   -9.4234   21.9176 C   0  0  0  0  0  0
  -23.6303   -8.2260   22.0751 C   0  0  0  0  0  0
  -22.4279   -8.0279   21.3557 C   0  0  0  0  0  0
  -21.9916   -9.0258   20.4653 C   0  0  0  0  0  0
  -22.7226  -10.2147   20.3046 C   0  0  0  0  0  0
  -21.6865   -6.0712   22.5286 C   0  0  0  0  0  0
  -21.4000   -6.5615   23.8211 C   0  0  0  0  0  0
  -21.3670   -5.6780   24.9188 C   0  0  0  0  0  0
  -21.6070   -4.3043   24.7241 C   0  0  0  0  0  0
  -21.8827   -3.8121   23.4364 C   0  0  0  0  0  0
  -21.9199   -4.6934   22.3409 C   0  0  0  0  0  0
  -22.7849  -13.5240   21.1883 C   0  0  0  0  0  0
  -22.1652   -4.2119   21.0982 F   0  0  0  0  0  0
  -21.5676   -3.4517   25.7750 F   0  0  0  0  0  0
  -30.0135  -13.4060   20.4272 N   0  0  0  0  0  0
  -26.2988  -12.9342   20.3303 N   0  0  0  0  0  0
  -25.9320  -11.6504   20.5786 N   0  0  0  0  0  0
  -22.0460  -12.8237   22.0413 N   0  0  0  0  0  0
  -25.4291  -15.1869   20.4079 N   0  0  0  0  0  0
  -31.8074  -14.7621   20.0992 O   0  0  0  0  0  0
  -21.6655   -6.8863   21.4249 O   0  0  0  0  0  0
  -22.3549  -14.5570   20.6764 O   0  0  0  0  0  0
  -24.6203  -31.8629   23.2048 C   0  0  0  0  0  0
  -25.9071  -32.4795   23.8365 C   0  0  1  0  0  0
  -27.2270  -27.3740   20.1260 C   0  0  0  0  0  0
  -25.5914  -33.8589   24.2302 N   0  0  0  0  0  0
  -23.4128  -30.4868   21.5432 C   0  0  2  0  0  0
  -24.8662  -28.9554   20.0992 C   0  0  0  0  0  0
  -22.7451  -29.4638   22.4922 C   0  0  0  0  0  0
  -18.0282  -28.1372   22.8480 C   0  0  0  0  0  0
  -24.1485  -36.7295   23.2640 C   0  0  0  0  0  0
  -25.9477  -30.8158   21.3670 C   0  0  0  0  0  0
  -26.0291  -29.4489   20.7073 C   0  0  0  0  0  0
  -27.2163  -28.6672   20.7166 C   0  0  0  0  0  0
  -26.0553  -26.9203   19.4864 C   0  0  0  0  0  0
  -24.8801  -27.6962   19.4753 C   0  0  0  0  0  0
  -23.6250  -29.8223   20.1560 C   0  0  0  0  0  0
  -25.4104  -36.3089   24.0336 C   0  0  1  0  0  0
  -20.5881  -28.3672   23.1280 C   0  0  2  0  0  0
  -20.6770  -26.9399   22.5407 C   0  0  0  0  0  0
  -19.5753  -26.6379   21.5197 C   0  0  0  0  0  0
  -18.1932  -26.7922   22.1607 C   0  0  0  0  0  0
  -19.1537  -28.8842   23.2879 C   0  0  0  0  0  0
  -18.9464  -30.1445   23.8887 C   0  0  0  0  0  0
  -17.6468  -30.6581   24.0560 C   0  0  0  0  0  0
  -25.9041  -34.9457   23.5119 C   0  0  0  0  0  0
  -16.5356  -29.9077   23.6332 C   0  0  0  0  0  0
  -16.7272  -28.6495   23.0351 C   0  0  0  0  0  0
  -26.4477  -31.6583   25.0710 C   0  0  0  0  0  0
  -25.3727  -31.3718   26.1449 C   0  0  0  0  0  0
  -27.0327  -30.3018   24.6137 C   0  0  0  0  0  0
  -27.6049  -32.4299   25.7476 C   0  0  0  0  0  0
  -27.5579  -37.1799   24.8459 C   0  0  0  0  0  0
  -21.4171  -29.3033   22.3673 N   0  0  0  0  0  0
  -26.4284  -37.3778   23.9419 N   0  0  0  0  0  0
  -24.6781  -31.0698   22.0961 N   0  0  0  0  0  0
  -23.4200  -28.8192   23.2987 O   0  0  0  0  0  0
  -28.2689  -26.4657   20.2746 O   0  0  0  0  0  0
  -26.5604  -34.8916   22.4680 O   0  0  0  0  0  0
  -23.5385  -32.1392   23.7424 O   0  0  0  0  0  0
  -29.5774  -18.5858   18.2589 C   0  0  0  0  0  0
  -29.6519  -19.7105   19.0894 C   0  0  0  0  0  0
  -29.9223  -18.2272   21.0091 C   0  0  0  0  0  0
  -29.6796  -17.2761   18.7759 C   0  0  0  0  0  0
  -29.8385  -19.5602   20.4700 C   0  0  0  0  0  0
  -29.8672  -17.0517   20.1790 C   0  0  0  0  0  0
  -28.3208  -24.2367   21.4824 C   0  0  0  0  0  0
  -28.0272  -25.5641   21.3111 C   0  0  0  0  0  0
  -29.6040  -16.2234   17.7395 C   0  0  0  0  0  0
  -27.8095  -23.5080   22.7040 C   0  0  0  0  0  0
  -29.0871  -23.1916   20.6415 C   0  0  0  0  0  0
  -28.5903  -22.1979   22.7555 C   0  0  0  0  0  0
  -28.2167  -15.9385   17.1816 C   0  0  0  0  0  0
  -30.0758  -20.8581   21.2881 C   0  0  0  0  0  0
  -29.8596  -15.7100   20.7712 N   0  0  0  0  0  0
  -28.9465  -21.8627   21.3582 N   0  3  2  0  0  0
  -30.5909  -15.6507   17.2743 O   0  0  0  0  0  0
  -31.4778  -12.4629   19.1748 H   0  0  0  0  0  0
  -30.3604  -11.3774   19.9464 H   0  0  0  0  0  0
  -29.7583  -11.6439   17.5336 H   0  0  0  0  0  0
  -29.6829  -13.3656   17.7055 H   0  0  0  0  0  0
  -27.8487  -11.2776   18.8876 H   0  0  0  0  0  0
  -27.3896  -12.5549   17.7917 H   0  0  0  0  0  0
  -27.6754  -14.2433   19.5056 H   0  0  0  0  0  0
  -28.6913  -12.0756   21.4020 H   0  0  0  0  0  0
  -28.4454  -13.7464   21.8259 H   0  0  0  0  0  0
  -25.2753   -9.5760   22.4756 H   0  0  0  0  0  0
  -24.0036   -7.4664   22.7461 H   0  0  0  0  0  0
  -21.0852   -8.8781   19.8957 H   0  0  0  0  0  0
  -22.3667  -10.9691   19.6165 H   0  0  0  0  0  0
  -21.1935   -7.6118   23.9700 H   0  0  0  0  0  0
  -21.1498   -6.0508   25.9097 H   0  0  0  0  0  0
  -22.0591   -2.7575   23.2883 H   0  0  0  0  0  0
  -22.4014  -11.9894   22.4844 H   0  0  0  0  0  0
  -21.1095  -13.1344   22.2563 H   0  0  0  0  0  0
  -24.6685  -15.8437   20.5425 H   0  0  0  0  0  0
  -26.2831  -15.6301   20.1005 H   0  0  0  0  0  0
  -26.7150  -32.5490   23.1132 H   0  0  0  0  0  0
  -25.0066  -33.9730   25.0457 H   0  0  0  0  0  0
  -22.7037  -31.3050   21.4036 H   0  0  0  0  0  0
  -23.3745  -35.9629   23.3297 H   0  0  0  0  0  0
  -24.3593  -36.8916   22.2058 H   0  0  0  0  0  0
  -23.7230  -37.6495   23.6657 H   0  0  0  0  0  0
  -26.0708  -31.5841   20.6021 H   0  0  0  0  0  0
  -26.8300  -30.8648   21.9929 H   0  0  0  0  0  0
  -28.1002  -29.0273   21.2245 H   0  0  0  0  0  0
  -26.0395  -25.9336   19.0455 H   0  0  0  0  0  0
  -23.9885  -27.3105   19.0003 H   0  0  0  0  0  0
  -23.7292  -30.5980   19.3964 H   0  0  0  0  0  0
  -22.7495  -29.2407   19.8608 H   0  0  0  0  0  0
  -25.1282  -36.1944   25.0829 H   0  0  0  0  0  0
  -20.9980  -28.3252   24.1396 H   0  0  0  0  0  0
  -20.5657  -26.2284   23.3605 H   0  0  0  0  0  0
  -21.6643  -26.7426   22.1219 H   0  0  0  0  0  0
  -19.6920  -25.6290   21.1227 H   0  0  0  0  0  0
  -19.6697  -27.3187   20.6725 H   0  0  0  0  0  0
  -17.4206  -26.6669   21.4004 H   0  0  0  0  0  0
  -18.0336  -26.0061   22.9000 H   0  0  0  0  0  0
  -19.7947  -30.7260   24.2251 H   0  0  0  0  0  0
  -17.5027  -31.6258   24.5168 H   0  0  0  0  0  0
  -15.5358  -30.2976   23.7665 H   0  0  0  0  0  0
  -15.8670  -28.0810   22.7067 H   0  0  0  0  0  0
  -24.5882  -30.7092   25.7781 H   0  0  0  0  0  0
  -24.8935  -32.2886   26.4886 H   0  0  0  0  0  0
  -25.8052  -30.8878   27.0215 H   0  0  0  0  0  0
  -26.2903  -29.6760   24.1173 H   0  0  0  0  0  0
  -27.4067  -29.7273   25.4625 H   0  0  0  0  0  0
  -27.8744  -30.4329   23.9332 H   0  0  0  0  0  0
  -27.2676  -33.3592   26.2074 H   0  0  0  0  0  0
  -28.3845  -32.6866   25.0293 H   0  0  0  0  0  0
  -28.0732  -31.8404   26.5371 H   0  0  0  0  0  0
  -28.2586  -38.0107   24.7525 H   0  0  0  0  0  0
  -28.1083  -36.2638   24.6255 H   0  0  0  0  0  0
  -27.2310  -37.1422   25.8866 H   0  0  0  0  0  0
  -20.9339  -29.8734   21.6874 H   0  0  0  0  0  0
  -26.0167  -38.2856   24.1419 H   0  0  0  0  0  0
  -29.4477  -18.7453   17.1967 H   0  0  0  0  0  0
  -29.5967  -20.6978   18.6501 H   0  0  0  0  0  0
  -30.0628  -18.1047   22.0752 H   0  0  0  0  0  0
  -27.4500  -26.0517   22.0886 H   0  0  0  0  0  0
  -26.7462  -23.3033   22.5734 H   0  0  0  0  0  0
  -27.9302  -24.0910   23.6181 H   0  0  0  0  0  0
  -30.1324  -23.4928   20.5772 H   0  0  0  0  0  0
  -28.6907  -23.1330   19.6278 H   0  0  0  0  0  0
  -28.0285  -21.3964   23.2377 H   0  0  0  0  0  0
  -29.4986  -22.3600   23.3384 H   0  0  0  0  0  0
  -27.4518  -16.2018   17.9108 H   0  0  0  0  0  0
  -28.1093  -14.8844   16.9351 H   0  0  0  0  0  0
  -28.0534  -16.5273   16.2797 H   0  0  0  0  0  0
  -30.9643  -21.3497   20.8885 H   0  0  0  0  0  0
  -30.3658  -20.5492   22.2934 H   0  0  0  0  0  0
  -29.0171  -15.4776   21.2769 H   0  0  0  0  0  0
  -28.1330  -21.4092   20.9697 H   0  0  0  0  0  0
  1 25  1  0  0  0
  1 30  2  0  0  0
  1 85  1  0  0  0
  2  3  1  0  0  0
  2 25  1  0  0  0
  2 88  1  0  0  0
  2 89  1  0  0  0
  3  4  1  0  0  0
  3 90  1  0  0  0
  3 91  1  0  0  0
  4  5  1  0  0  0
  4 92  1  0  0  0
  4 93  1  0  0  0
  5  6  1  0  0  0
  5 26  1  0  0  0
  5 94  1  0  0  0
  6 25  1  0  0  0
  6 95  1  0  0  0
  6 96  1  0  0  0
  7  8  2  0  0  0
  7 26  1  0  0  0
  7 29  1  0  0  0
  8  9  1  0  0  0
  8 22  1  0  0  0
  9 10  1  0  0  0
  9 27  2  0  0  0
 10 11  2  0  0  0
 10 15  1  0  0  0
 11 12  1  0  0  0
 11 97  1  0  0  0
 12 13  2  0  0  0
 12 98  1  0  0  0
 13 14  1  0  0  0
 13 31  1  0  0  0
 14 15  2  0  0  0
 14 99  1  0  0  0
 15100  1  0  0  0
 16 17  2  0  0  0
 16 21  1  0  0  0
 16 31  1  0  0  0
 17 18  1  0  0  0
 17101  1  0  0  0
 18 19  2  0  0  0
 18102  1  0  0  0
 19 20  1  0  0  0
 19 24  1  0  0  0
 20 21  2  0  0  0
 20103  1  0  0  0
 21 23  1  0  0  0
 22 28  1  0  0  0
 22 32  2  0  0  0
 26 27  1  0  0  0
 28104  1  0  0  0
 28105  1  0  0  0
 29106  1  0  0  0
 29107  1  0  0  0
 33 34  1  0  0  0
 33 66  1  0  0  0
 33 70  2  0  0  0
 34 36  1  0  0  0
 34 59  1  0  0  0
 34108  1  0  0  0
 35 44  2  0  0  0
 35 45  1  0  0  0
 35 68  1  0  0  0
 36 56  1  0  0  0
 36109  1  0  0  0
 37 39  1  0  0  0
 37 47  1  0  0  0
 37 66  1  0  0  0
 37110  1  0  0  0
 38 43  2  0  0  0
 38 46  1  0  0  0
 38 47  1  0  0  0
 39 64  1  0  0  0
 39 67  2  0  0  0
 40 52  1  0  0  0
 40 53  2  0  0  0
 40 58  1  0  0  0
 41111  1  0  0  0
 41112  1  0  0  0
 41113  1  0  0  0
 41 48  1  0  0  0
 42 43  1  0  0  0
 42 66  1  0  0  0
 42114  1  0  0  0
 42115  1  0  0  0
 43 44  1  0  0  0
 44116  1  0  0  0
 45 46  2  0  0  0
 45117  1  0  0  0
 46118  1  0  0  0
 47119  1  0  0  0
 47120  1  0  0  0
 48 56  1  0  0  0
 48 65  1  0  0  0
 48121  1  0  0  0
 49 50  1  0  0  0
 49 53  1  0  0  0
 49 64  1  0  0  0
 49122  1  0  0  0
 50 51  1  0  0  0
 50123  1  0  0  0
 50124  1  0  0  0
 51 52  1  0  0  0
 51125  1  0  0  0
 51126  1  0  0  0
 52127  1  0  0  0
 52128  1  0  0  0
 53 54  1  0  0  0
 54 55  2  0  0  0
 54129  1  0  0  0
 55 57  1  0  0  0
 55130  1  0  0  0
 56 69  2  0  0  0
 57 58  2  0  0  0
 57131  1  0  0  0
 58132  1  0  0  0
 59 60  1  0  0  0
 59 61  1  0  0  0
 59 62  1  0  0  0
 60133  1  0  0  0
 60134  1  0  0  0
 60135  1  0  0  0
 61136  1  0  0  0
 61137  1  0  0  0
 61138  1  0  0  0
 62139  1  0  0  0
 62140  1  0  0  0
 62141  1  0  0  0
 63 65  1  0  0  0
 63142  1  0  0  0
 63143  1  0  0  0
 63144  1  0  0  0
 64145  1  0  0  0
 65146  1  0  0  0
 68 78  1  0  0  0
 71 72  2  0  0  0
 71 74  1  0  0  0
 71147  1  0  0  0
 72 75  1  0  0  0
 72148  1  0  0  0
 73 75  2  0  0  0
 73 76  1  0  0  0
 73149  1  0  0  0
 74 76  2  0  0  0
 74 79  1  0  0  0
 75 84  1  0  0  0
 76 85  1  0  0  0
 77 78  2  0  0  0
 77 80  1  0  0  0
 77 81  1  0  0  0
 78150  1  0  0  0
 79 83  1  0  0  0
 79 87  2  0  0  0
 80 82  1  0  0  0
 80151  1  0  0  0
 80152  1  0  0  0
 81 86  1  0  0  0
 81153  1  0  0  0
 81154  1  0  0  0
 82 86  1  0  0  0
 82155  1  0  0  0
 82156  1  0  0  0
 83157  1  0  0  0
 83158  1  0  0  0
 83159  1  0  0  0
 84160  1  0  0  0
 84161  1  0  0  0
 84 86  1  0  0  0
 85162  1  0  0  0
 86163  1  0  0  0
M  CHG  1  86   1
M  ISO  4   1 100  68 101  78 101  85 100
M  END
> <chiral flag>
0

> <version>
0

> <s_m_source_file>
/data/baiqing/PycharmProjects/Reinvent-master-3.2/result/LINK_invent/BTK/process_docking_weight1_custom_product_contain_oxygen_bond_distance_aromatic_linkinvent_7_9_3/rearranged_h_0164.sdf

> <i_m_source_file_index>
40

> <r_mmod_Potential_Energy-OPLS-2005>
64.4716796875

> <r_mmod_Stretch_Energy-OPLS-2005>
65.0918426513672

> <r_mmod_Bend_Energy-OPLS-2005>
164.253952026367

> <r_mmod_Torsional_Energy-OPLS-2005>
349.406372070312

> <r_mmod_Improper_Torsional_Energy-OPLS-2005>
6.58525896072388

> <r_mmod_Van_der_Waal_Energy-OPLS-2005>
129.213272094727

> <r_mmod_Electrostatic_Energy-OPLS-2005>
-227.219131469727

> <r_mmod_Solvation_Energy-OPLS-2005>
-472.553802490234

> <b_mmod_Minimization_Converged-OPLS-2005>
0

> <r_mmod_RMS_Derivative-OPLS-2005>
2.73368215560913

$$$$
40
                    3D
 Structure written by MMmdl.
160169  0  0  1  0            999 V2000
  -30.6199  -14.6267   20.5169 C   0  0  0  0  0  0
  -30.4417  -12.3862   19.4469 C   0  0  0  0  0  0
  -29.5054  -12.5085   18.2237 C   0  0  0  0  0  0
  -28.0292  -12.3443   18.6387 C   0  0  0  0  0  0
  -27.6568  -13.2114   19.8697 C   0  0  2  0  0  0
  -28.7021  -13.0490   20.9972 C   0  0  0  0  0  0
  -25.2582  -13.8165   20.5698 C   0  0  0  0  0  0
  -24.1834  -13.0440   20.9193 C   0  0  0  0  0  0
  -24.6390  -11.6908   20.8750 C   0  0  0  0  0  0
  -23.9064  -10.4292   21.0423 C   0  0  0  0  0  0
  -24.3611   -9.4202   21.9200 C   0  0  0  0  0  0
  -23.6282   -8.2242   22.0768 C   0  0  0  0  0  0
  -22.4273   -8.0281   21.3545 C   0  0  0  0  0  0
  -21.9906   -9.0265   20.4657 C   0  0  0  0  0  0
  -22.7241  -10.2139   20.3070 C   0  0  0  0  0  0
  -21.6849   -6.0734   22.5282 C   0  0  0  0  0  0
  -21.4014   -6.5637   23.8214 C   0  0  0  0  0  0
  -21.3655   -5.6792   24.9174 C   0  0  0  0  0  0
  -21.6046   -4.3058   24.7223 C   0  0  0  0  0  0
  -21.8817   -3.8147   23.4348 C   0  0  0  0  0  0
  -21.9189   -4.6962   22.3406 C   0  0  0  0  0  0
  -22.7858  -13.5238   21.1855 C   0  0  0  0  0  0
  -22.1658   -4.2153   21.0983 F   0  0  0  0  0  0
  -21.5626   -3.4544   25.7734 F   0  0  0  0  0  0
  -30.0193  -13.3974   20.4367 N   0  0  0  0  0  0
  -26.3006  -12.9332   20.3353 N   0  0  0  0  0  0
  -25.9318  -11.6498   20.5791 N   0  0  0  0  0  0
  -22.0490  -12.8234   22.0409 N   0  0  0  0  0  0
  -25.4299  -15.1885   20.4086 N   0  0  0  0  0  0
  -31.7749  -14.8053   20.1157 O   0  0  0  0  0  0
  -21.6634   -6.8880   21.4246 O   0  0  0  0  0  0
  -22.3550  -14.5551   20.6713 O   0  0  0  0  0  0
  -24.6213  -31.8607   23.2040 C   0  0  0  0  0  0
  -25.9079  -32.4776   23.8348 C   0  0  1  0  0  0
  -27.2222  -27.3246   20.1182 C   0  0  0  0  0  0
  -25.5915  -33.8580   24.2279 N   0  0  0  0  0  0
  -23.4149  -30.4841   21.5455 C   0  0  2  0  0  0
  -24.8644  -28.9439   20.1074 C   0  0  0  0  0  0
  -22.7465  -29.4597   22.4935 C   0  0  0  0  0  0
  -18.0288  -28.1358   22.8460 C   0  0  0  0  0  0
  -24.1505  -36.7286   23.2641 C   0  0  0  0  0  0
  -25.9559  -30.7935   21.3755 C   0  0  0  0  0  0
  -26.0304  -29.4218   20.7176 C   0  0  0  0  0  0
  -27.2090  -28.6209   20.7192 C   0  0  0  0  0  0
  -26.0381  -26.9084   19.4647 C   0  0  0  0  0  0
  -24.8698  -27.6936   19.4719 C   0  0  0  0  0  0
  -23.6307  -29.8220   20.1597 C   0  0  0  0  0  0
  -25.4122  -36.3073   24.0339 C   0  0  1  0  0  0
  -20.5884  -28.3643   23.1288 C   0  0  2  0  0  0
  -20.6775  -26.9367   22.5404 C   0  0  0  0  0  0
  -19.5757  -26.6359   21.5195 C   0  0  0  0  0  0
  -18.1938  -26.7896   22.1614 C   0  0  0  0  0  0
  -19.1539  -28.8825   23.2862 C   0  0  0  0  0  0
  -18.9472  -30.1431   23.8870 C   0  0  0  0  0  0
  -17.6477  -30.6563   24.0545 C   0  0  0  0  0  0
  -25.9058  -34.9446   23.5106 C   0  0  0  0  0  0
  -16.5361  -29.9056   23.6334 C   0  0  0  0  0  0
  -16.7279  -28.6482   23.0333 C   0  0  0  0  0  0
  -26.4484  -31.6581   25.0703 C   0  0  0  0  0  0
  -25.3739  -31.3716   26.1449 C   0  0  0  0  0  0
  -27.0333  -30.3017   24.6120 C   0  0  0  0  0  0
  -27.6036  -32.4314   25.7485 C   0  0  0  0  0  0
  -27.5581  -37.1797   24.8467 C   0  0  0  0  0  0
  -21.4185  -29.3001   22.3701 N   0  0  0  0  0  0
  -26.4294  -37.3766   23.9422 N   0  0  0  0  0  0
  -24.6822  -31.0631   22.0982 N   0  0  0  0  0  0
  -23.4218  -28.8121   23.2968 O   0  0  0  0  0  0
  -28.3518  -26.4948   20.1967 O   0  0  0  0  0  0
  -26.5615  -34.8898   22.4659 O   0  0  0  0  0  0
  -23.5380  -32.1389   23.7382 O   0  0  0  0  0  0
  -28.7583  -19.2854   21.3484 C   0  0  0  0  0  0
  -30.9422  -19.2998   20.3539 C   0  0  0  0  0  0
  -28.7683  -17.8606   21.3272 C   0  0  0  0  0  0
  -30.9594  -17.8699   20.3413 C   0  0  0  0  0  0
  -29.8546  -20.0566   20.8852 C   0  0  0  0  0  0
  -29.8743  -17.1077   20.8493 C   0  0  0  0  0  0
  -31.4590  -23.5942   21.7034 C   0  0  0  0  0  0
  -31.3822  -22.1354   21.2218 C   0  0  0  0  0  0
  -30.6176  -24.5164   20.8050 C   0  0  0  0  0  0
  -29.9249  -21.6178   21.1490 C   0  0  1  0  0  0
  -29.1526  -24.0394   20.7242 C   0  0  1  0  0  0
  -28.2536  -25.0487   19.8833 C   0  0  0  0  0  0
  -29.8023  -15.6484   20.9197 N   0  0  0  0  0  0
  -29.1067  -22.5678   20.2973 N   0  3  0  0  0  0
  -31.4811  -12.5176   19.1409 H   0  0  0  0  0  0
  -30.3818  -11.3861   19.8794 H   0  0  0  0  0  0
  -29.7656  -11.7616   17.4730 H   0  0  0  0  0  0
  -29.6465  -13.4801   17.7490 H   0  0  0  0  0  0
  -27.8662  -11.2913   18.8691 H   0  0  0  0  0  0
  -27.3711  -12.5763   17.8008 H   0  0  0  0  0  0
  -27.6806  -14.2489   19.5370 H   0  0  0  0  0  0
  -28.7135  -12.0211   21.3632 H   0  0  0  0  0  0
  -28.4480  -13.6640   21.8620 H   0  0  0  0  0  0
  -25.2752   -9.5673   22.4779 H   0  0  0  0  0  0
  -23.9988   -7.4633   22.7487 H   0  0  0  0  0  0
  -21.0837   -8.8786   19.8965 H   0  0  0  0  0  0
  -22.3703  -10.9681   19.6182 H   0  0  0  0  0  0
  -21.2015   -7.6146   23.9717 H   0  0  0  0  0  0
  -21.1477   -6.0523   25.9074 H   0  0  0  0  0  0
  -22.0600   -2.7614   23.2848 H   0  0  0  0  0  0
  -22.4076  -11.9860   22.4759 H   0  0  0  0  0  0
  -21.1131  -13.1304   22.2662 H   0  0  0  0  0  0
  -24.6605  -15.8415   20.5095 H   0  0  0  0  0  0
  -26.2717  -15.6237   20.0535 H   0  0  0  0  0  0
  -26.7137  -32.5465   23.1093 H   0  0  0  0  0  0
  -25.0108  -33.9723   25.0451 H   0  0  0  0  0  0
  -22.7049  -31.3021   21.4037 H   0  0  0  0  0  0
  -23.3762  -35.9624   23.3307 H   0  0  0  0  0  0
  -24.3598  -36.8894   22.2051 H   0  0  0  0  0  0
  -23.7266  -37.6491   23.6662 H   0  0  0  0  0  0
  -26.0854  -31.5579   20.6079 H   0  0  0  0  0  0
  -26.8360  -30.8412   22.0043 H   0  0  0  0  0  0
  -28.0998  -28.9765   21.2184 H   0  0  0  0  0  0
  -25.9780  -25.9674   18.9392 H   0  0  0  0  0  0
  -23.9794  -27.3276   18.9789 H   0  0  0  0  0  0
  -23.7448  -30.6013   19.4050 H   0  0  0  0  0  0
  -22.7526  -29.2499   19.8574 H   0  0  0  0  0  0
  -25.1295  -36.1926   25.0831 H   0  0  0  0  0  0
  -20.9960  -28.3208   24.1414 H   0  0  0  0  0  0
  -20.5682  -26.2232   23.3595 H   0  0  0  0  0  0
  -21.6646  -26.7400   22.1197 H   0  0  0  0  0  0
  -19.6930  -25.6270   21.1224 H   0  0  0  0  0  0
  -19.6726  -27.3173   20.6727 H   0  0  0  0  0  0
  -17.4206  -26.6636   21.4014 H   0  0  0  0  0  0
  -18.0334  -26.0033   22.9006 H   0  0  0  0  0  0
  -19.7956  -30.7235   24.2230 H   0  0  0  0  0  0
  -17.5036  -31.6247   24.5131 H   0  0  0  0  0  0
  -15.5357  -30.2949   23.7670 H   0  0  0  0  0  0
  -15.8677  -28.0807   22.7040 H   0  0  0  0  0  0
  -24.5924  -30.7034   25.7817 H   0  0  0  0  0  0
  -24.8906  -32.2873   26.4864 H   0  0  0  0  0  0
  -25.8072  -30.8932   27.0242 H   0  0  0  0  0  0
  -26.2885  -29.6770   24.1165 H   0  0  0  0  0  0
  -27.4090  -29.7264   25.4594 H   0  0  0  0  0  0
  -27.8735  -30.4335   23.9297 H   0  0  0  0  0  0
  -27.2646  -33.3627   26.2039 H   0  0  0  0  0  0
  -28.3864  -32.6857   25.0325 H   0  0  0  0  0  0
  -28.0684  -31.8456   26.5424 H   0  0  0  0  0  0
  -28.2581  -38.0107   24.7491 H   0  0  0  0  0  0
  -28.1093  -36.2625   24.6321 H   0  0  0  0  0  0
  -27.2288  -37.1454   25.8865 H   0  0  0  0  0  0
  -20.9348  -29.8752   21.6951 H   0  0  0  0  0  0
  -26.0181  -38.2846   24.1414 H   0  0  0  0  0  0
  -27.9022  -19.7859   21.7793 H   0  0  0  0  0  0
  -31.8248  -19.8065   19.9906 H   0  0  0  0  0  0
  -27.9050  -17.3416   21.7221 H   0  0  0  0  0  0
  -31.8377  -17.3701   19.9563 H   0  0  0  0  0  0
  -32.4967  -23.9285   21.7136 H   0  0  0  0  0  0
  -31.1092  -23.6613   22.7358 H   0  0  0  0  0  0
  -31.9640  -21.5104   21.9015 H   0  0  0  0  0  0
  -31.8579  -22.0566   20.2432 H   0  0  0  0  0  0
  -31.0555  -24.5669   19.8060 H   0  0  0  0  0  0
  -30.6509  -25.5318   21.2051 H   0  0  0  0  0  0
  -29.5157  -21.7231   22.1555 H   0  0  0  0  0  0
  -28.7501  -24.0687   21.7381 H   0  0  0  0  0  0
  -27.2343  -24.6915   20.0228 H   0  0  0  0  0  0
  -28.4782  -24.9359   18.8221 H   0  0  0  0  0  0
  -28.9180  -15.2999   21.2565 H   0  0  0  0  0  0
  -28.1524  -22.2470   20.3132 H   0  0  0  0  0  0
  -29.4231  -22.4807   19.3451 H   0  0  0  0  0  0
  1 25  1  0  0  0
  1 30  2  0  0  0
  1 83  1  0  0  0
  2  3  1  0  0  0
  2 25  1  0  0  0
  2 85  1  0  0  0
  2 86  1  0  0  0
  3  4  1  0  0  0
  3 87  1  0  0  0
  3 88  1  0  0  0
  4  5  1  0  0  0
  4 89  1  0  0  0
  4 90  1  0  0  0
  5  6  1  0  0  0
  5 26  1  0  0  0
  5 91  1  0  0  0
  6 25  1  0  0  0
  6 92  1  0  0  0
  6 93  1  0  0  0
  7  8  2  0  0  0
  7 26  1  0  0  0
  7 29  1  0  0  0
  8  9  1  0  0  0
  8 22  1  0  0  0
  9 10  1  0  0  0
  9 27  2  0  0  0
 10 11  2  0  0  0
 10 15  1  0  0  0
 11 12  1  0  0  0
 11 94  1  0  0  0
 12 13  2  0  0  0
 12 95  1  0  0  0
 13 14  1  0  0  0
 13 31  1  0  0  0
 14 15  2  0  0  0
 14 96  1  0  0  0
 15 97  1  0  0  0
 16 17  2  0  0  0
 16 21  1  0  0  0
 16 31  1  0  0  0
 17 18  1  0  0  0
 17 98  1  0  0  0
 18 19  2  0  0  0
 18 99  1  0  0  0
 19 20  1  0  0  0
 19 24  1  0  0  0
 20 21  2  0  0  0
 20100  1  0  0  0
 21 23  1  0  0  0
 22 28  1  0  0  0
 22 32  2  0  0  0
 26 27  1  0  0  0
 28101  1  0  0  0
 28102  1  0  0  0
 29103  1  0  0  0
 29104  1  0  0  0
 33 34  1  0  0  0
 33 66  1  0  0  0
 33 70  2  0  0  0
 34 36  1  0  0  0
 34 59  1  0  0  0
 34105  1  0  0  0
 35 44  2  0  0  0
 35 45  1  0  0  0
 35 68  1  0  0  0
 36 56  1  0  0  0
 36106  1  0  0  0
 37 39  1  0  0  0
 37 47  1  0  0  0
 37 66  1  0  0  0
 37107  1  0  0  0
 38 43  2  0  0  0
 38 46  1  0  0  0
 38 47  1  0  0  0
 39 64  1  0  0  0
 39 67  2  0  0  0
 40 52  1  0  0  0
 40 53  2  0  0  0
 40 58  1  0  0  0
 41108  1  0  0  0
 41109  1  0  0  0
 41110  1  0  0  0
 41 48  1  0  0  0
 42 43  1  0  0  0
 42 66  1  0  0  0
 42111  1  0  0  0
 42112  1  0  0  0
 43 44  1  0  0  0
 44113  1  0  0  0
 45 46  2  0  0  0
 45114  1  0  0  0
 46115  1  0  0  0
 47116  1  0  0  0
 47117  1  0  0  0
 48 56  1  0  0  0
 48 65  1  0  0  0
 48118  1  0  0  0
 49 50  1  0  0  0
 49 53  1  0  0  0
 49 64  1  0  0  0
 49119  1  0  0  0
 50 51  1  0  0  0
 50120  1  0  0  0
 50121  1  0  0  0
 51 52  1  0  0  0
 51122  1  0  0  0
 51123  1  0  0  0
 52124  1  0  0  0
 52125  1  0  0  0
 53 54  1  0  0  0
 54 55  2  0  0  0
 54126  1  0  0  0
 55 57  1  0  0  0
 55127  1  0  0  0
 56 69  2  0  0  0
 57 58  2  0  0  0
 57128  1  0  0  0
 58129  1  0  0  0
 59 60  1  0  0  0
 59 61  1  0  0  0
 59 62  1  0  0  0
 60130  1  0  0  0
 60131  1  0  0  0
 60132  1  0  0  0
 61133  1  0  0  0
 61134  1  0  0  0
 61135  1  0  0  0
 62136  1  0  0  0
 62137  1  0  0  0
 62138  1  0  0  0
 63 65  1  0  0  0
 63139  1  0  0  0
 63140  1  0  0  0
 63141  1  0  0  0
 64142  1  0  0  0
 65143  1  0  0  0
 68 82  1  0  0  0
 71 73  2  0  0  0
 71 75  1  0  0  0
 71144  1  0  0  0
 72 74  1  0  0  0
 72 75  2  0  0  0
 72145  1  0  0  0
 73 76  1  0  0  0
 73146  1  0  0  0
 74 76  2  0  0  0
 74147  1  0  0  0
 75 80  1  0  0  0
 76 83  1  0  0  0
 77 78  1  0  0  0
 77 79  1  0  0  0
 77148  1  0  0  0
 77149  1  0  0  0
 78 80  1  0  0  0
 78150  1  0  0  0
 78151  1  0  0  0
 79 81  1  0  0  0
 79152  1  0  0  0
 79153  1  0  0  0
 80 84  1  0  0  0
 80154  1  0  0  0
 81 82  1  0  0  0
 81 84  1  0  0  0
 81155  1  0  0  0
 82156  1  0  0  0
 82157  1  0  0  0
 83158  1  0  0  0
 84159  1  0  0  0
 84160  1  0  0  0
M  CHG  1  84   1
M  ISO  4   1 100  68 101  82 101  83 100
M  END
> <chiral flag>
0

> <version>
0

> <s_m_source_file>
/data/baiqing/PycharmProjects/Reinvent-master-3.2/result/LINK_invent/BTK/process_docking_weight1_custom_product_contain_oxygen_bond_distance_aromatic_linkinvent_7_9_3/rearranged_h_0164.sdf

> <i_m_source_file_index>
41

> <r_mmod_Potential_Energy-OPLS-2005>
-56.3600006103516

> <r_mmod_Stretch_Energy-OPLS-2005>
80.2542190551758

> <r_mmod_Bend_Energy-OPLS-2005>
143.961990356445

> <r_mmod_Torsional_Energy-OPLS-2005>
234.147567749023

> <r_mmod_Improper_Torsional_Energy-OPLS-2005>
4.66510343551636

> <r_mmod_Van_der_Waal_Energy-OPLS-2005>
150.21418762207

> <r_mmod_Electrostatic_Energy-OPLS-2005>
-264.339569091797

> <r_mmod_Solvation_Energy-OPLS-2005>
-450.35888671875

> <b_mmod_Minimization_Converged-OPLS-2005>
0

> <r_mmod_RMS_Derivative-OPLS-2005>
2.02815079689026

$$$$
41
                    3D
 Structure written by MMmdl.
159167  0  0  1  0            999 V2000
  -30.6943  -14.5636   20.5381 C   0  0  0  0  0  0
  -30.4135  -12.3539   19.4557 C   0  0  0  0  0  0
  -29.4973  -12.5168   18.2252 C   0  0  0  0  0  0
  -28.0192  -12.3735   18.6339 C   0  0  0  0  0  0
  -27.6539  -13.2278   19.8761 C   0  0  2  0  0  0
  -28.6970  -13.0662   21.0052 C   0  0  0  0  0  0
  -25.2539  -13.8215   20.5733 C   0  0  0  0  0  0
  -24.1804  -13.0451   20.9198 C   0  0  0  0  0  0
  -24.6397  -11.6927   20.8759 C   0  0  0  0  0  0
  -23.9097  -10.4284   21.0402 C   0  0  0  0  0  0
  -24.3629   -9.4197   21.9184 C   0  0  0  0  0  0
  -23.6287   -8.2236   22.0758 C   0  0  0  0  0  0
  -22.4272   -8.0285   21.3547 C   0  0  0  0  0  0
  -21.9929   -9.0253   20.4639 C   0  0  0  0  0  0
  -22.7278  -10.2123   20.3041 C   0  0  0  0  0  0
  -21.6851   -6.0742   22.5277 C   0  0  0  0  0  0
  -21.4012   -6.5639   23.8212 C   0  0  0  0  0  0
  -21.3666   -5.6777   24.9170 C   0  0  0  0  0  0
  -21.6037   -4.3043   24.7212 C   0  0  0  0  0  0
  -21.8832   -3.8151   23.4325 C   0  0  0  0  0  0
  -21.9191   -4.6968   22.3384 C   0  0  0  0  0  0
  -22.7820  -13.5208   21.1867 C   0  0  0  0  0  0
  -22.1660   -4.2157   21.0966 F   0  0  0  0  0  0
  -21.5629   -3.4527   25.7720 F   0  0  0  0  0  0
  -30.0203  -13.3765   20.4458 N   0  0  0  0  0  0
  -26.2985  -12.9412   20.3404 N   0  0  0  0  0  0
  -25.9335  -11.6558   20.5807 N   0  0  0  0  0  0
  -22.0457  -12.8149   22.0370 N   0  0  0  0  0  0
  -25.4258  -15.1934   20.4118 N   0  0  0  0  0  0
  -31.8356  -14.6558   20.0777 O   0  0  0  0  0  0
  -21.6639   -6.8885   21.4237 O   0  0  0  0  0  0
  -22.3512  -14.5547   20.6766 O   0  0  0  0  0  0
  -24.6230  -31.8599   23.2017 C   0  0  0  0  0  0
  -25.9074  -32.4791   23.8335 C   0  0  1  0  0  0
  -27.2235  -27.3429   20.1196 C   0  0  0  0  0  0
  -25.5905  -33.8595   24.2278 N   0  0  0  0  0  0
  -23.4139  -30.4860   21.5442 C   0  0  2  0  0  0
  -24.8607  -28.9480   20.1066 C   0  0  0  0  0  0
  -22.7450  -29.4626   22.4921 C   0  0  0  0  0  0
  -18.0294  -28.1383   22.8509 C   0  0  0  0  0  0
  -24.1486  -36.7267   23.2641 C   0  0  0  0  0  0
  -25.9511  -30.8025   21.3651 C   0  0  0  0  0  0
  -26.0247  -29.4312   20.7136 C   0  0  0  0  0  0
  -27.2090  -28.6389   20.7117 C   0  0  0  0  0  0
  -26.0421  -26.9150   19.4691 C   0  0  0  0  0  0
  -24.8707  -27.6931   19.4785 C   0  0  0  0  0  0
  -23.6229  -29.8200   20.1582 C   0  0  0  0  0  0
  -25.4115  -36.3089   24.0331 C   0  0  1  0  0  0
  -20.5897  -28.3663   23.1307 C   0  0  2  0  0  0
  -20.6778  -26.9388   22.5417 C   0  0  0  0  0  0
  -19.5754  -26.6396   21.5227 C   0  0  0  0  0  0
  -18.1917  -26.7951   22.1611 C   0  0  0  0  0  0
  -19.1551  -28.8834   23.2915 C   0  0  0  0  0  0
  -18.9473  -30.1447   23.8910 C   0  0  0  0  0  0
  -17.6461  -30.6577   24.0570 C   0  0  0  0  0  0
  -25.9042  -34.9470   23.5098 C   0  0  0  0  0  0
  -16.5353  -29.9075   23.6339 C   0  0  0  0  0  0
  -16.7277  -28.6495   23.0351 C   0  0  0  0  0  0
  -26.4489  -31.6583   25.0675 C   0  0  0  0  0  0
  -25.3730  -31.3682   26.1389 C   0  0  0  0  0  0
  -27.0340  -30.3038   24.6020 C   0  0  0  0  0  0
  -27.6035  -32.4322   25.7475 C   0  0  0  0  0  0
  -27.5586  -37.1809   24.8469 C   0  0  0  0  0  0
  -21.4159  -29.3037   22.3692 N   0  0  0  0  0  0
  -26.4287  -37.3778   23.9432 N   0  0  0  0  0  0
  -24.6818  -31.0659   22.0947 N   0  0  0  0  0  0
  -23.4196  -28.8135   23.2961 O   0  0  0  0  0  0
  -28.3574  -26.5250   20.1954 O   0  0  0  0  0  0
  -26.5599  -34.8943   22.4668 O   0  0  0  0  0  0
  -23.5399  -32.1354   23.7381 O   0  0  0  0  0  0
  -28.7288  -18.8016   23.9938 C   0  0  0  0  0  0
  -28.7689  -20.1339   23.5327 C   0  0  0  0  0  0
  -29.6959  -19.3720   21.4347 C   0  0  0  0  0  0
  -29.7134  -18.0004   21.8953 C   0  0  0  0  0  0
  -29.2376  -17.7320   23.2220 C   0  0  0  0  0  0
  -29.2741  -20.4600   22.2571 C   0  0  0  0  0  0
  -30.4290  -16.9491   21.0365 C   0  0  0  0  0  0
  -29.0488  -24.1547   20.9061 C   0  0  0  0  0  0
  -27.9806  -15.6511   24.0916 C   0  0  0  0  0  0
  -29.3292  -16.3750   23.9423 C   0  0  0  0  0  0
  -29.0491  -22.5834   20.7309 C   0  0  0  0  0  0
  -28.2205  -25.0751   19.9446 C   0  0  0  0  0  0
  -29.4483  -21.8458   21.9607 N   0  0  0  0  0  0
  -30.0219  -15.6418   21.0470 N   0  0  0  0  0  0
  -31.3547  -17.3610   20.3277 O   0  0  0  0  0  0
  -29.6884  -24.6536   21.8407 O   0  0  0  0  0  0
  -31.4605  -12.4352   19.1583 H   0  0  0  0  0  0
  -30.3049  -11.3542   19.8818 H   0  0  0  0  0  0
  -29.7423  -11.7754   17.4647 H   0  0  0  0  0  0
  -29.6641  -13.4943   17.7685 H   0  0  0  0  0  0
  -27.8372  -11.3196   18.8447 H   0  0  0  0  0  0
  -27.3694  -12.6368   17.7973 H   0  0  0  0  0  0
  -27.6791  -14.2682   19.5540 H   0  0  0  0  0  0
  -28.6883  -12.0448   21.3869 H   0  0  0  0  0  0
  -28.4581  -13.7033   21.8546 H   0  0  0  0  0  0
  -25.2771   -9.5649   22.4772 H   0  0  0  0  0  0
  -23.9978   -7.4624   22.7478 H   0  0  0  0  0  0
  -21.0876   -8.8788   19.8928 H   0  0  0  0  0  0
  -22.3772  -10.9656   19.6138 H   0  0  0  0  0  0
  -21.2015   -7.6151   23.9729 H   0  0  0  0  0  0
  -21.1470   -6.0504   25.9074 H   0  0  0  0  0  0
  -22.0606   -2.7615   23.2824 H   0  0  0  0  0  0
  -22.4021  -11.9720   22.4621 H   0  0  0  0  0  0
  -21.1081  -13.1189   22.2623 H   0  0  0  0  0  0
  -24.6645  -15.8547   20.5252 H   0  0  0  0  0  0
  -26.2791  -15.6288   20.0875 H   0  0  0  0  0  0
  -26.7107  -32.5470   23.1059 H   0  0  0  0  0  0
  -25.0173  -33.9758   25.0491 H   0  0  0  0  0  0
  -22.7093  -31.3073   21.4026 H   0  0  0  0  0  0
  -23.3780  -35.9569   23.3302 H   0  0  0  0  0  0
  -24.3573  -36.8861   22.2050 H   0  0  0  0  0  0
  -23.7211  -37.6465   23.6646 H   0  0  0  0  0  0
  -26.0732  -31.5632   20.5921 H   0  0  0  0  0  0
  -26.8379  -30.8542   21.9851 H   0  0  0  0  0  0
  -28.1017  -29.0043   21.1984 H   0  0  0  0  0  0
  -25.9855  -25.9680   18.9509 H   0  0  0  0  0  0
  -23.9776  -27.3198   18.9965 H   0  0  0  0  0  0
  -23.7236  -30.5961   19.3983 H   0  0  0  0  0  0
  -22.7443  -29.2406   19.8673 H   0  0  0  0  0  0
  -25.1298  -36.1923   25.0817 H   0  0  0  0  0  0
  -21.0024  -28.3203   24.1408 H   0  0  0  0  0  0
  -20.5686  -26.2243   23.3583 H   0  0  0  0  0  0
  -21.6633  -26.7397   22.1177 H   0  0  0  0  0  0
  -19.6907  -25.6328   21.1191 H   0  0  0  0  0  0
  -19.6725  -27.3269   20.6811 H   0  0  0  0  0  0
  -17.4208  -26.6773   21.3977 H   0  0  0  0  0  0
  -18.0233  -26.0068   22.8957 H   0  0  0  0  0  0
  -19.7947  -30.7288   24.2243 H   0  0  0  0  0  0
  -17.5011  -31.6266   24.5180 H   0  0  0  0  0  0
  -15.5355  -30.2978   23.7694 H   0  0  0  0  0  0
  -15.8669  -28.0845   22.7046 H   0  0  0  0  0  0
  -24.5996  -30.6902   25.7759 H   0  0  0  0  0  0
  -24.8799  -32.2825   26.4713 H   0  0  0  0  0  0
  -25.8067  -30.9000   27.0226 H   0  0  0  0  0  0
  -26.2884  -29.6818   24.1049 H   0  0  0  0  0  0
  -27.4143  -29.7233   25.4433 H   0  0  0  0  0  0
  -27.8697  -30.4415   23.9153 H   0  0  0  0  0  0
  -27.2638  -33.3692   26.1921 H   0  0  0  0  0  0
  -28.3945  -32.6751   25.0364 H   0  0  0  0  0  0
  -28.0556  -31.8483   26.5507 H   0  0  0  0  0  0
  -28.2575  -38.0132   24.7530 H   0  0  0  0  0  0
  -28.1094  -36.2655   24.6258 H   0  0  0  0  0  0
  -27.2284  -37.1380   25.8860 H   0  0  0  0  0  0
  -20.9259  -29.8780   21.6971 H   0  0  0  0  0  0
  -26.0158  -38.2854   24.1440 H   0  0  0  0  0  0
  -28.3691  -18.6057   24.9961 H   0  0  0  0  0  0
  -28.4447  -20.9128   24.2097 H   0  0  0  0  0  0
  -30.1177  -19.6030   20.4653 H   0  0  0  0  0  0
  -28.1176  -14.6574   24.5226 H   0  0  0  0  0  0
  -27.4665  -15.5289   23.1386 H   0  0  0  0  0  0
  -27.3142  -16.1967   24.7603 H   0  0  0  0  0  0
  -29.7137  -16.5591   24.9468 H   0  0  0  0  0  0
  -30.0781  -15.7103   23.5192 H   0  0  0  0  0  0
  -29.7553  -22.3348   19.9362 H   0  0  0  0  0  0
  -28.0644  -22.2529   20.3933 H   0  0  0  0  0  0
  -27.1897  -24.7439   20.0604 H   0  0  0  0  0  0
  -28.5100  -24.8643   18.9147 H   0  0  0  0  0  0
  -29.4731  -22.4734   22.7648 H   0  0  0  0  0  0
  -29.1462  -15.4535   21.5020 H   0  0  0  0  0  0
  1 25  1  0  0  0
  1 30  2  0  0  0
  1 84  1  0  0  0
  2  3  1  0  0  0
  2 25  1  0  0  0
  2 87  1  0  0  0
  2 88  1  0  0  0
  3  4  1  0  0  0
  3 89  1  0  0  0
  3 90  1  0  0  0
  4  5  1  0  0  0
  4 91  1  0  0  0
  4 92  1  0  0  0
  5  6  1  0  0  0
  5 26  1  0  0  0
  5 93  1  0  0  0
  6 25  1  0  0  0
  6 94  1  0  0  0
  6 95  1  0  0  0
  7  8  2  0  0  0
  7 26  1  0  0  0
  7 29  1  0  0  0
  8  9  1  0  0  0
  8 22  1  0  0  0
  9 10  1  0  0  0
  9 27  2  0  0  0
 10 11  2  0  0  0
 10 15  1  0  0  0
 11 12  1  0  0  0
 11 96  1  0  0  0
 12 13  2  0  0  0
 12 97  1  0  0  0
 13 14  1  0  0  0
 13 31  1  0  0  0
 14 15  2  0  0  0
 14 98  1  0  0  0
 15 99  1  0  0  0
 16 17  2  0  0  0
 16 21  1  0  0  0
 16 31  1  0  0  0
 17 18  1  0  0  0
 17100  1  0  0  0
 18 19  2  0  0  0
 18101  1  0  0  0
 19 20  1  0  0  0
 19 24  1  0  0  0
 20 21  2  0  0  0
 20102  1  0  0  0
 21 23  1  0  0  0
 22 28  1  0  0  0
 22 32  2  0  0  0
 26 27  1  0  0  0
 28103  1  0  0  0
 28104  1  0  0  0
 29105  1  0  0  0
 29106  1  0  0  0
 33 34  1  0  0  0
 33 66  1  0  0  0
 33 70  2  0  0  0
 34 36  1  0  0  0
 34 59  1  0  0  0
 34107  1  0  0  0
 35 44  2  0  0  0
 35 45  1  0  0  0
 35 68  1  0  0  0
 36 56  1  0  0  0
 36108  1  0  0  0
 37 39  1  0  0  0
 37 47  1  0  0  0
 37 66  1  0  0  0
 37109  1  0  0  0
 38 43  2  0  0  0
 38 46  1  0  0  0
 38 47  1  0  0  0
 39 64  1  0  0  0
 39 67  2  0  0  0
 40 52  1  0  0  0
 40 53  2  0  0  0
 40 58  1  0  0  0
 41110  1  0  0  0
 41111  1  0  0  0
 41112  1  0  0  0
 41 48  1  0  0  0
 42 43  1  0  0  0
 42 66  1  0  0  0
 42113  1  0  0  0
 42114  1  0  0  0
 43 44  1  0  0  0
 44115  1  0  0  0
 45 46  2  0  0  0
 45116  1  0  0  0
 46117  1  0  0  0
 47118  1  0  0  0
 47119  1  0  0  0
 48 56  1  0  0  0
 48 65  1  0  0  0
 48120  1  0  0  0
 49 50  1  0  0  0
 49 53  1  0  0  0
 49 64  1  0  0  0
 49121  1  0  0  0
 50 51  1  0  0  0
 50122  1  0  0  0
 50123  1  0  0  0
 51 52  1  0  0  0
 51124  1  0  0  0
 51125  1  0  0  0
 52126  1  0  0  0
 52127  1  0  0  0
 53 54  1  0  0  0
 54 55  2  0  0  0
 54128  1  0  0  0
 55 57  1  0  0  0
 55129  1  0  0  0
 56 69  2  0  0  0
 57 58  2  0  0  0
 57130  1  0  0  0
 58131  1  0  0  0
 59 60  1  0  0  0
 59 61  1  0  0  0
 59 62  1  0  0  0
 60132  1  0  0  0
 60133  1  0  0  0
 60134  1  0  0  0
 61135  1  0  0  0
 61136  1  0  0  0
 61137  1  0  0  0
 62138  1  0  0  0
 62139  1  0  0  0
 62140  1  0  0  0
 63 65  1  0  0  0
 63141  1  0  0  0
 63142  1  0  0  0
 63143  1  0  0  0
 64144  1  0  0  0
 65145  1  0  0  0
 68 82  1  0  0  0
 71 72  2  0  0  0
 71 75  1  0  0  0
 71146  1  0  0  0
 72 76  1  0  0  0
 72147  1  0  0  0
 73 74  1  0  0  0
 73 76  2  0  0  0
 73148  1  0  0  0
 74 75  2  0  0  0
 74 77  1  0  0  0
 75 80  1  0  0  0
 76 83  1  0  0  0
 77 84  1  0  0  0
 77 85  2  0  0  0
 78 81  1  0  0  0
 78 82  1  0  0  0
 78 86  2  0  0  0
 79 80  1  0  0  0
 79149  1  0  0  0
 79150  1  0  0  0
 79151  1  0  0  0
 80152  1  0  0  0
 80153  1  0  0  0
 81 83  1  0  0  0
 81154  1  0  0  0
 81155  1  0  0  0
 82156  1  0  0  0
 82157  1  0  0  0
 83158  1  0  0  0
 84159  1  0  0  0
M  ISO  4   1 100  68 101  82 101  84 100
M  END
> <chiral flag>
0

> <version>
0

> <s_m_source_file>
/data/baiqing/PycharmProjects/Reinvent-master-3.2/result/LINK_invent/BTK/process_docking_weight1_custom_product_contain_oxygen_bond_distance_aromatic_linkinvent_7_9_3/rearranged_h_0164.sdf

> <i_m_source_file_index>
42

> <r_mmod_Potential_Energy-OPLS-2005>
-34.4441604614258

> <r_mmod_Stretch_Energy-OPLS-2005>
72.5939178466797

> <r_mmod_Bend_Energy-OPLS-2005>
144.609832763672

> <r_mmod_Torsional_Energy-OPLS-2005>
225.553527832031

> <r_mmod_Improper_Torsional_Energy-OPLS-2005>
6.51375484466553

> <r_mmod_Van_der_Waal_Energy-OPLS-2005>
155.280487060547

> <r_mmod_Electrostatic_Energy-OPLS-2005>
-417.345703125

> <r_mmod_Solvation_Energy-OPLS-2005>
-254.746505737305

> <b_mmod_Minimization_Converged-OPLS-2005>
0

> <r_mmod_RMS_Derivative-OPLS-2005>
4.22785139083862

$$$$
42
                    3D
 Structure written by MMmdl.
166174  0  0  1  0            999 V2000
  -30.7277  -14.4959   20.5072 C   0  0  0  0  0  0
  -30.3998  -12.2921   19.4624 C   0  0  0  0  0  0
  -29.4965  -12.4807   18.2273 C   0  0  0  0  0  0
  -28.0161  -12.3513   18.6284 C   0  0  0  0  0  0
  -27.6529  -13.2215   19.8633 C   0  0  2  0  0  0
  -28.6904  -13.0708   20.9971 C   0  0  0  0  0  0
  -25.2552  -13.8205   20.5702 C   0  0  0  0  0  0
  -24.1809  -13.0456   20.9183 C   0  0  0  0  0  0
  -24.6381  -11.6932   20.8742 C   0  0  0  0  0  0
  -23.9060  -10.4306   21.0406 C   0  0  0  0  0  0
  -24.3614   -9.4217   21.9182 C   0  0  0  0  0  0
  -23.6295   -8.2248   22.0750 C   0  0  0  0  0  0
  -22.4282   -8.0284   21.3538 C   0  0  0  0  0  0
  -21.9916   -9.0254   20.4639 C   0  0  0  0  0  0
  -22.7238  -10.2135   20.3049 C   0  0  0  0  0  0
  -21.6855   -6.0741   22.5279 C   0  0  0  0  0  0
  -21.4020   -6.5650   23.8215 C   0  0  0  0  0  0
  -21.3657   -5.6801   24.9182 C   0  0  0  0  0  0
  -21.6043   -4.3062   24.7230 C   0  0  0  0  0  0
  -21.8822   -3.8151   23.4353 C   0  0  0  0  0  0
  -21.9197   -4.6968   22.3407 C   0  0  0  0  0  0
  -22.7835  -13.5236   21.1844 C   0  0  0  0  0  0
  -22.1658   -4.2156   21.0981 F   0  0  0  0  0  0
  -21.5623   -3.4545   25.7738 F   0  0  0  0  0  0
  -30.0243  -13.3288   20.4417 N   0  0  0  0  0  0
  -26.2983  -12.9389   20.3323 N   0  0  0  0  0  0
  -25.9307  -11.6536   20.5765 N   0  0  0  0  0  0
  -22.0478  -12.8213   22.0403 N   0  0  0  0  0  0
  -25.4299  -15.1912   20.4134 N   0  0  0  0  0  0
  -31.8985  -14.5156   20.1118 O   0  0  0  0  0  0
  -21.6639   -6.8881   21.4241 O   0  0  0  0  0  0
  -22.3515  -14.5545   20.6716 O   0  0  0  0  0  0
  -24.6157  -31.8664   23.2097 C   0  0  0  0  0  0
  -25.9049  -32.4811   23.8399 C   0  0  1  0  0  0
  -27.2277  -27.4127   20.0880 C   0  0  0  0  0  0
  -25.5895  -33.8603   24.2327 N   0  0  0  0  0  0
  -23.4034  -30.4878   21.5534 C   0  0  2  0  0  0
  -24.8458  -28.9511   20.1179 C   0  0  0  0  0  0
  -22.7413  -29.4643   22.5034 C   0  0  0  0  0  0
  -18.0265  -28.1354   22.8487 C   0  0  0  0  0  0
  -24.1487  -36.7298   23.2643 C   0  0  0  0  0  0
  -25.9351  -30.8241   21.3670 C   0  0  0  0  0  0
  -26.0081  -29.4578   20.7101 C   0  0  0  0  0  0
  -27.1998  -28.6951   20.6914 C   0  0  0  0  0  0
  -26.0367  -26.9196   19.5039 C   0  0  0  0  0  0
  -24.8546  -27.6837   19.5141 C   0  0  0  0  0  0
  -23.6067  -29.8159   20.1702 C   0  0  0  0  0  0
  -25.4112  -36.3099   24.0337 C   0  0  1  0  0  0
  -20.5848  -28.3635   23.1323 C   0  0  2  0  0  0
  -20.6744  -26.9374   22.5402 C   0  0  0  0  0  0
  -19.5739  -26.6371   21.5195 C   0  0  0  0  0  0
  -18.1905  -26.7912   22.1595 C   0  0  0  0  0  0
  -19.1516  -28.8820   23.2887 C   0  0  0  0  0  0
  -18.9441  -30.1426   23.8904 C   0  0  0  0  0  0
  -17.6447  -30.6574   24.0552 C   0  0  0  0  0  0
  -25.9034  -34.9460   23.5138 C   0  0  0  0  0  0
  -16.5336  -29.9067   23.6336 C   0  0  0  0  0  0
  -16.7255  -28.6471   23.0380 C   0  0  0  0  0  0
  -26.4488  -31.6613   25.0740 C   0  0  0  0  0  0
  -25.3754  -31.3676   26.1485 C   0  0  0  0  0  0
  -27.0366  -30.3072   24.6136 C   0  0  0  0  0  0
  -27.6078  -32.4364   25.7476 C   0  0  0  0  0  0
  -27.5590  -37.1786   24.8467 C   0  0  0  0  0  0
  -21.4146  -29.3002   22.3754 N   0  0  0  0  0  0
  -26.4307  -37.3781   23.9409 N   0  0  0  0  0  0
  -24.6701  -31.0737   22.1008 N   0  0  0  0  0  0
  -23.4181  -28.8187   23.3086 O   0  0  0  0  0  0
  -28.4131  -26.6974   20.0994 O   0  0  0  0  0  0
  -26.5600  -34.8924   22.4701 O   0  0  0  0  0  0
  -23.5347  -32.1434   23.7484 O   0  0  0  0  0  0
  -29.3106  -18.7445   21.1885 C   0  0  0  0  0  0
  -30.2827  -20.9480   20.8937 C   0  0  0  0  0  0
  -30.5801  -18.1310   21.0165 C   0  0  0  0  0  0
  -31.7079  -18.9598   20.6922 C   0  0  0  0  0  0
  -29.1382  -20.1516   21.1050 C   0  0  0  0  0  0
  -31.5431  -20.3757   20.6486 C   0  0  0  0  0  0
  -30.7697  -16.6472   21.1847 C   0  0  0  0  0  0
  -33.0221  -18.3364   20.3024 C   0  0  0  0  0  0
  -27.3366  -21.7745   20.8717 C   0  0  0  0  0  0
  -28.0997  -24.2504   20.4939 C   0  0  0  0  0  0
  -25.9022  -22.0719   21.2649 C   0  0  0  0  0  0
  -35.4654  -19.0733   20.1803 C   0  0  0  0  0  0
  -34.2700  -18.7416   21.0926 C   0  0  0  0  0  0
  -27.9196  -22.8290   19.9015 C   0  0  0  0  0  0
  -28.4791  -25.3796   19.5077 C   0  0  0  0  0  0
  -27.8521  -20.6823   21.3281 N   0  0  0  0  0  0
  -30.0139  -15.6592   20.8532 N   0  0  0  0  0  0
  -32.5755  -21.2756   20.3479 N   0  0  0  0  0  0
  -33.1263  -17.4862   19.4127 O   0  0  0  0  0  0
  -27.9686  -24.4851   21.7013 O   0  0  0  0  0  0
  -31.4498  -12.3343   19.1697 H   0  0  0  0  0  0
  -30.2545  -11.2988   19.8916 H   0  0  0  0  0  0
  -29.7417  -11.7418   17.4629 H   0  0  0  0  0  0
  -29.6770  -13.4585   17.7803 H   0  0  0  0  0  0
  -27.8280  -11.2998   18.8476 H   0  0  0  0  0  0
  -27.3735  -12.6048   17.7859 H   0  0  0  0  0  0
  -27.6825  -14.2604   19.5337 H   0  0  0  0  0  0
  -28.6518  -12.0640   21.4166 H   0  0  0  0  0  0
  -28.4635  -13.7505   21.8203 H   0  0  0  0  0  0
  -25.2758   -9.5702   22.4756 H   0  0  0  0  0  0
  -24.0016   -7.4642   22.7473 H   0  0  0  0  0  0
  -21.0850   -8.8773   19.8935 H   0  0  0  0  0  0
  -22.3699  -10.9677   19.6162 H   0  0  0  0  0  0
  -21.2014   -7.6159   23.9728 H   0  0  0  0  0  0
  -21.1470   -6.0526   25.9085 H   0  0  0  0  0  0
  -22.0599   -2.7613   23.2854 H   0  0  0  0  0  0
  -22.4111  -11.9881   22.4790 H   0  0  0  0  0  0
  -21.1094  -13.1230   22.2605 H   0  0  0  0  0  0
  -24.6779  -15.8605   20.5373 H   0  0  0  0  0  0
  -26.3063  -15.6209   20.1425 H   0  0  0  0  0  0
  -26.7113  -32.5529   23.1152 H   0  0  0  0  0  0
  -25.0070  -33.9752   25.0492 H   0  0  0  0  0  0
  -22.6911  -31.3038   21.4140 H   0  0  0  0  0  0
  -23.3759  -35.9621   23.3320 H   0  0  0  0  0  0
  -24.3582  -36.8902   22.2057 H   0  0  0  0  0  0
  -23.7226  -37.6496   23.6663 H   0  0  0  0  0  0
  -26.0564  -31.5955   20.6048 H   0  0  0  0  0  0
  -26.8176  -30.8699   21.9927 H   0  0  0  0  0  0
  -28.1011  -29.0846   21.1449 H   0  0  0  0  0  0
  -25.9858  -25.9467   19.0405 H   0  0  0  0  0  0
  -23.9559  -27.2875   19.0618 H   0  0  0  0  0  0
  -23.6979  -30.5845   19.4017 H   0  0  0  0  0  0
  -22.7336  -29.2219   19.8938 H   0  0  0  0  0  0
  -25.1288  -36.1980   25.0829 H   0  0  0  0  0  0
  -20.9909  -28.3192   24.1459 H   0  0  0  0  0  0
  -20.5625  -26.2240   23.3577 H   0  0  0  0  0  0
  -21.6616  -26.7413   22.1208 H   0  0  0  0  0  0
  -19.6895  -25.6280   21.1230 H   0  0  0  0  0  0
  -19.6699  -27.3168   20.6718 H   0  0  0  0  0  0
  -17.4173  -26.6675   21.3997 H   0  0  0  0  0  0
  -18.0301  -26.0044   22.8982 H   0  0  0  0  0  0
  -19.7926  -30.7213   24.2295 H   0  0  0  0  0  0
  -17.5016  -31.6275   24.5118 H   0  0  0  0  0  0
  -15.5330  -30.2960   23.7678 H   0  0  0  0  0  0
  -15.8653  -28.0773   22.7142 H   0  0  0  0  0  0
  -24.5917  -30.7056   25.7786 H   0  0  0  0  0  0
  -24.8940  -32.2796   26.5030 H   0  0  0  0  0  0
  -25.8093  -30.8761   27.0197 H   0  0  0  0  0  0
  -26.2921  -29.6751   24.1284 H   0  0  0  0  0  0
  -27.4251  -29.7396   25.4596 H   0  0  0  0  0  0
  -27.8691  -30.4413   23.9230 H   0  0  0  0  0  0
  -27.2729  -33.3672   26.2075 H   0  0  0  0  0  0
  -28.3847  -32.6928   25.0261 H   0  0  0  0  0  0
  -28.0807  -31.8495   26.5354 H   0  0  0  0  0  0
  -28.2600  -38.0096   24.7544 H   0  0  0  0  0  0
  -28.1097  -36.2622   24.6276 H   0  0  0  0  0  0
  -27.2299  -37.1411   25.8868 H   0  0  0  0  0  0
  -20.9333  -29.8726   21.6960 H   0  0  0  0  0  0
  -26.0205  -38.2860   24.1431 H   0  0  0  0  0  0
  -28.4552  -18.1203   21.4114 H   0  0  0  0  0  0
  -30.2102  -22.0242   20.9118 H   0  0  0  0  0  0
  -31.7540  -16.4219   21.6124 H   0  0  0  0  0  0
  -25.4139  -22.7099   20.5282 H   0  0  0  0  0  0
  -25.8730  -22.5737   22.2319 H   0  0  0  0  0  0
  -25.3252  -21.1493   21.3379 H   0  0  0  0  0  0
  -36.3321  -19.3801   20.7654 H   0  0  0  0  0  0
  -35.2297  -19.8871   19.4942 H   0  0  0  0  0  0
  -35.7593  -18.2092   19.5827 H   0  0  0  0  0  0
  -34.5348  -17.9203   21.7587 H   0  0  0  0  0  0
  -34.0383  -19.5902   21.7350 H   0  0  0  0  0  0
  -27.2272  -22.9173   19.0641 H   0  0  0  0  0  0
  -28.8509  -22.4945   19.4531 H   0  0  0  0  0  0
  -27.9007  -25.3048   18.5870 H   0  0  0  0  0  0
  -29.5139  -25.2107   19.2131 H   0  0  0  0  0  0
  -32.4442  -22.2808   20.4054 H   0  0  0  0  0  0
  -33.5201  -20.9905   20.1161 H   0  0  0  0  0  0
  1 25  1  0  0  0
  1 30  2  0  0  0
  1 87  1  0  0  0
  2  3  1  0  0  0
  2 25  1  0  0  0
  2 91  1  0  0  0
  2 92  1  0  0  0
  3  4  1  0  0  0
  3 93  1  0  0  0
  3 94  1  0  0  0
  4  5  1  0  0  0
  4 95  1  0  0  0
  4 96  1  0  0  0
  5  6  1  0  0  0
  5 26  1  0  0  0
  5 97  1  0  0  0
  6 25  1  0  0  0
  6 98  1  0  0  0
  6 99  1  0  0  0
  7  8  2  0  0  0
  7 26  1  0  0  0
  7 29  1  0  0  0
  8  9  1  0  0  0
  8 22  1  0  0  0
  9 10  1  0  0  0
  9 27  2  0  0  0
 10 11  2  0  0  0
 10 15  1  0  0  0
 11 12  1  0  0  0
 11100  1  0  0  0
 12 13  2  0  0  0
 12101  1  0  0  0
 13 14  1  0  0  0
 13 31  1  0  0  0
 14 15  2  0  0  0
 14102  1  0  0  0
 15103  1  0  0  0
 16 17  2  0  0  0
 16 21  1  0  0  0
 16 31  1  0  0  0
 17 18  1  0  0  0
 17104  1  0  0  0
 18 19  2  0  0  0
 18105  1  0  0  0
 19 20  1  0  0  0
 19 24  1  0  0  0
 20 21  2  0  0  0
 20106  1  0  0  0
 21 23  1  0  0  0
 22 28  1  0  0  0
 22 32  2  0  0  0
 26 27  1  0  0  0
 28107  1  0  0  0
 28108  1  0  0  0
 29109  1  0  0  0
 29110  1  0  0  0
 33 34  1  0  0  0
 33 66  1  0  0  0
 33 70  2  0  0  0
 34 36  1  0  0  0
 34 59  1  0  0  0
 34111  1  0  0  0
 35 44  2  0  0  0
 35 45  1  0  0  0
 35 68  1  0  0  0
 36 56  1  0  0  0
 36112  1  0  0  0
 37 39  1  0  0  0
 37 47  1  0  0  0
 37 66  1  0  0  0
 37113  1  0  0  0
 38 43  2  0  0  0
 38 46  1  0  0  0
 38 47  1  0  0  0
 39 64  1  0  0  0
 39 67  2  0  0  0
 40 52  1  0  0  0
 40 53  2  0  0  0
 40 58  1  0  0  0
 41114  1  0  0  0
 41115  1  0  0  0
 41116  1  0  0  0
 41 48  1  0  0  0
 42 43  1  0  0  0
 42 66  1  0  0  0
 42117  1  0  0  0
 42118  1  0  0  0
 43 44  1  0  0  0
 44119  1  0  0  0
 45 46  2  0  0  0
 45120  1  0  0  0
 46121  1  0  0  0
 47122  1  0  0  0
 47123  1  0  0  0
 48 56  1  0  0  0
 48 65  1  0  0  0
 48124  1  0  0  0
 49 50  1  0  0  0
 49 53  1  0  0  0
 49 64  1  0  0  0
 49125  1  0  0  0
 50 51  1  0  0  0
 50126  1  0  0  0
 50127  1  0  0  0
 51 52  1  0  0  0
 51128  1  0  0  0
 51129  1  0  0  0
 52130  1  0  0  0
 52131  1  0  0  0
 53 54  1  0  0  0
 54 55  2  0  0  0
 54132  1  0  0  0
 55 57  1  0  0  0
 55133  1  0  0  0
 56 69  2  0  0  0
 57 58  2  0  0  0
 57134  1  0  0  0
 58135  1  0  0  0
 59 60  1  0  0  0
 59 61  1  0  0  0
 59 62  1  0  0  0
 60136  1  0  0  0
 60137  1  0  0  0
 60138  1  0  0  0
 61139  1  0  0  0
 61140  1  0  0  0
 61141  1  0  0  0
 62142  1  0  0  0
 62143  1  0  0  0
 62144  1  0  0  0
 63 65  1  0  0  0
 63145  1  0  0  0
 63146  1  0  0  0
 63147  1  0  0  0
 64148  1  0  0  0
 65149  1  0  0  0
 68 85  1  0  0  0
 71 73  2  0  0  0
 71 75  1  0  0  0
 71150  1  0  0  0
 72 75  2  0  0  0
 72 76  1  0  0  0
 72151  1  0  0  0
 73 74  1  0  0  0
 73 77  1  0  0  0
 74 76  2  0  0  0
 74 78  1  0  0  0
 75 86  1  0  0  0
 76 88  1  0  0  0
 77 87  2  0  0  0
 77152  1  0  0  0
 78 83  1  0  0  0
 78 89  2  0  0  0
 79 81  1  0  0  0
 79 84  1  0  0  0
 79 86  2  0  0  0
 80 84  1  0  0  0
 80 85  1  0  0  0
 80 90  2  0  0  0
 81153  1  0  0  0
 81154  1  0  0  0
 81155  1  0  0  0
 82 83  1  0  0  0
 82156  1  0  0  0
 82157  1  0  0  0
 82158  1  0  0  0
 83159  1  0  0  0
 83160  1  0  0  0
 84161  1  0  0  0
 84162  1  0  0  0
 85163  1  0  0  0
 85164  1  0  0  0
 88165  1  0  0  0
 88166  1  0  0  0
M  ISO  4   1 100  68 101  85 101  87 100
M  END
> <chiral flag>
0

> <version>
0

> <s_m_source_file>
/data/baiqing/PycharmProjects/Reinvent-master-3.2/result/LINK_invent/BTK/process_docking_weight1_custom_product_contain_oxygen_bond_distance_aromatic_linkinvent_7_9_3/rearranged_h_0164.sdf

> <i_m_source_file_index>
43

> <r_mmod_Potential_Energy-OPLS-2005>
113.268531799316

> <r_mmod_Stretch_Energy-OPLS-2005>
53.7572441101074

> <r_mmod_Bend_Energy-OPLS-2005>
149.328140258789

> <r_mmod_Torsional_Energy-OPLS-2005>
240.894439697266

> <r_mmod_Improper_Torsional_Energy-OPLS-2005>
5.28334665298462

> <r_mmod_Van_der_Waal_Energy-OPLS-2005>
189.221954345703

> <r_mmod_Electrostatic_Energy-OPLS-2005>
-315.498840332031

> <r_mmod_Solvation_Energy-OPLS-2005>
-231.968231201172

> <b_mmod_Minimization_Converged-OPLS-2005>
0

> <r_mmod_RMS_Derivative-OPLS-2005>
2.25982975959778

$$$$
43
                    3D
 Structure written by MMmdl.
155163  0  0  1  0            999 V2000
  -30.7165  -14.4854   20.5679 C   0  0  0  0  0  0
  -30.4173  -12.3147   19.4300 C   0  0  0  0  0  0
  -29.4938  -12.5013   18.2095 C   0  0  0  0  0  0
  -28.0162  -12.3592   18.6231 C   0  0  0  0  0  0
  -27.6589  -13.2108   19.8709 C   0  0  2  0  0  0
  -28.7011  -13.0194   20.9967 C   0  0  0  0  0  0
  -25.2580  -13.8169   20.5684 C   0  0  0  0  0  0
  -24.1837  -13.0443   20.9191 C   0  0  0  0  0  0
  -24.6394  -11.6909   20.8742 C   0  0  0  0  0  0
  -23.9062  -10.4295   21.0408 C   0  0  0  0  0  0
  -24.3614   -9.4209   21.9187 C   0  0  0  0  0  0
  -23.6291   -8.2244   22.0755 C   0  0  0  0  0  0
  -22.4273   -8.0282   21.3546 C   0  0  0  0  0  0
  -21.9909   -9.0255   20.4648 C   0  0  0  0  0  0
  -22.7235  -10.2137   20.3057 C   0  0  0  0  0  0
  -21.6854   -6.0737   22.5281 C   0  0  0  0  0  0
  -21.4012   -6.5640   23.8214 C   0  0  0  0  0  0
  -21.3657   -5.6792   24.9175 C   0  0  0  0  0  0
  -21.6044   -4.3055   24.7226 C   0  0  0  0  0  0
  -21.8819   -3.8148   23.4347 C   0  0  0  0  0  0
  -21.9192   -4.6965   22.3403 C   0  0  0  0  0  0
  -22.7859  -13.5243   21.1847 C   0  0  0  0  0  0
  -22.1663   -4.2151   21.0981 F   0  0  0  0  0  0
  -21.5627   -3.4539   25.7739 F   0  0  0  0  0  0
  -30.0303  -13.3158   20.4388 N   0  0  0  0  0  0
  -26.3013  -12.9344   20.3353 N   0  0  0  0  0  0
  -25.9323  -11.6503   20.5769 N   0  0  0  0  0  0
  -22.0493  -12.8236   22.0396 N   0  0  0  0  0  0
  -25.4298  -15.1885   20.4075 N   0  0  0  0  0  0
  -31.8448  -14.6332   20.0910 O   0  0  0  0  0  0
  -21.6639   -6.8879   21.4242 O   0  0  0  0  0  0
  -22.3552  -14.5553   20.6694 O   0  0  0  0  0  0
  -24.6160  -31.8667   23.2093 C   0  0  0  0  0  0
  -25.9046  -32.4816   23.8394 C   0  0  1  0  0  0
  -27.2300  -27.4251   20.1017 C   0  0  0  0  0  0
  -25.5898  -33.8614   24.2325 N   0  0  0  0  0  0
  -23.4053  -30.4907   21.5493 C   0  0  2  0  0  0
  -24.8535  -28.9585   20.1104 C   0  0  0  0  0  0
  -22.7425  -29.4651   22.4973 C   0  0  0  0  0  0
  -18.0274  -28.1379   22.8491 C   0  0  0  0  0  0
  -24.1485  -36.7313   23.2638 C   0  0  0  0  0  0
  -25.9355  -30.8318   21.3630 C   0  0  0  0  0  0
  -26.0151  -29.4666   20.7076 C   0  0  0  0  0  0
  -27.2109  -28.7084   20.6979 C   0  0  0  0  0  0
  -26.0566  -26.9395   19.4869 C   0  0  0  0  0  0
  -24.8700  -27.6957   19.4936 C   0  0  0  0  0  0
  -23.6147  -29.8248   20.1632 C   0  0  0  0  0  0
  -25.4104  -36.3106   24.0339 C   0  0  1  0  0  0
  -20.5868  -28.3665   23.1312 C   0  0  2  0  0  0
  -20.6762  -26.9398   22.5414 C   0  0  0  0  0  0
  -19.5739  -26.6387   21.5211 C   0  0  0  0  0  0
  -18.1920  -26.7926   22.1625 C   0  0  0  0  0  0
  -19.1526  -28.8839   23.2899 C   0  0  0  0  0  0
  -18.9451  -30.1446   23.8908 C   0  0  0  0  0  0
  -17.6452  -30.6583   24.0567 C   0  0  0  0  0  0
  -25.9031  -34.9471   23.5129 C   0  0  0  0  0  0
  -16.5342  -29.9084   23.6331 C   0  0  0  0  0  0
  -16.7263  -28.6504   23.0347 C   0  0  0  0  0  0
  -26.4472  -31.6593   25.0720 C   0  0  0  0  0  0
  -25.3742  -31.3698   26.1473 C   0  0  0  0  0  0
  -27.0300  -30.3035   24.6091 C   0  0  0  0  0  0
  -27.6051  -32.4309   25.7484 C   0  0  0  0  0  0
  -27.5579  -37.1811   24.8465 C   0  0  0  0  0  0
  -21.4149  -29.3031   22.3718 N   0  0  0  0  0  0
  -26.4291  -37.3790   23.9410 N   0  0  0  0  0  0
  -24.6707  -31.0767   22.0994 N   0  0  0  0  0  0
  -23.4195  -28.8187   23.3012 O   0  0  0  0  0  0
  -28.3496  -26.6217   20.1408 O   0  0  0  0  0  0
  -26.5594  -34.8921   22.4690 O   0  0  0  0  0  0
  -23.5349  -32.1413   23.7484 O   0  0  0  0  0  0
  -31.8212  -17.2324   21.4479 C   0  0  0  0  0  0
  -32.2149  -18.5765   21.5727 C   0  0  0  0  0  0
  -29.5097  -17.9472   21.1731 C   0  0  0  0  0  0
  -29.8948  -19.3131   21.3171 C   0  0  0  0  0  0
  -30.4637  -16.8932   21.2277 C   0  0  0  0  0  0
  -31.2655  -19.6118   21.5066 C   0  0  0  0  0  0
  -28.8799  -20.3961   21.3277 C   0  0  0  0  0  0
  -28.8313  -24.1712   20.4771 C   0  0  0  0  0  0
  -28.2178  -22.8351   20.9536 C   0  0  0  0  0  0
  -28.1498  -25.4636   20.9858 C   0  0  0  0  0  0
  -30.0341  -15.5246   21.1044 N   0  0  0  0  0  0
  -29.1193  -21.6489   20.8779 N   0  0  0  0  0  0
  -27.6686  -20.1425   21.8296 N   0  3  0  0  0  0
  -29.8341  -24.1891   19.7529 O   0  0  0  0  0  0
  -31.6893  -20.8932   21.6398 F   0  0  0  0  0  0
  -31.4628  -12.4003   19.1282 H   0  0  0  0  0  0
  -30.3105  -11.3095   19.8407 H   0  0  0  0  0  0
  -29.7371  -11.7704   17.4372 H   0  0  0  0  0  0
  -29.6608  -13.4834   17.7643 H   0  0  0  0  0  0
  -27.8326  -11.3045   18.8311 H   0  0  0  0  0  0
  -27.3638  -12.6205   17.7892 H   0  0  0  0  0  0
  -27.6954  -14.2544   19.5574 H   0  0  0  0  0  0
  -28.6795  -11.9925   21.3648 H   0  0  0  0  0  0
  -28.4623  -13.6437   21.8588 H   0  0  0  0  0  0
  -25.2762   -9.5686   22.4760 H   0  0  0  0  0  0
  -24.0003   -7.4637   22.7472 H   0  0  0  0  0  0
  -21.0843   -8.8773   19.8954 H   0  0  0  0  0  0
  -22.3696  -10.9673   19.6163 H   0  0  0  0  0  0
  -21.2004   -7.6148   23.9717 H   0  0  0  0  0  0
  -21.1478   -6.0523   25.9078 H   0  0  0  0  0  0
  -22.0599   -2.7611   23.2847 H   0  0  0  0  0  0
  -22.4099  -11.9892   22.4781 H   0  0  0  0  0  0
  -21.1111  -13.1266   22.2596 H   0  0  0  0  0  0
  -24.6576  -15.8395   20.5002 H   0  0  0  0  0  0
  -26.2710  -15.6217   20.0488 H   0  0  0  0  0  0
  -26.7118  -32.5529   23.1161 H   0  0  0  0  0  0
  -25.0060  -33.9774   25.0478 H   0  0  0  0  0  0
  -22.6945  -31.3083   21.4107 H   0  0  0  0  0  0
  -23.3740  -35.9654   23.3307 H   0  0  0  0  0  0
  -24.3578  -36.8916   22.2050 H   0  0  0  0  0  0
  -23.7245  -37.6524   23.6645 H   0  0  0  0  0  0
  -26.0479  -31.5989   20.5954 H   0  0  0  0  0  0
  -26.8232  -30.8849   21.9816 H   0  0  0  0  0  0
  -28.1055  -29.0906   21.1697 H   0  0  0  0  0  0
  -26.0554  -25.9672   19.0141 H   0  0  0  0  0  0
  -23.9784  -27.3011   19.0259 H   0  0  0  0  0  0
  -23.7226  -30.6004   19.4042 H   0  0  0  0  0  0
  -22.7387  -29.2448   19.8672 H   0  0  0  0  0  0
  -25.1280  -36.1974   25.0833 H   0  0  0  0  0  0
  -20.9964  -28.3227   24.1430 H   0  0  0  0  0  0
  -20.5663  -26.2269   23.3599 H   0  0  0  0  0  0
  -21.6633  -26.7440   22.1211 H   0  0  0  0  0  0
  -19.6897  -25.6302   21.1228 H   0  0  0  0  0  0
  -19.6678  -27.3210   20.6751 H   0  0  0  0  0  0
  -17.4192  -26.6678   21.4024 H   0  0  0  0  0  0
  -18.0318  -26.0065   22.9018 H   0  0  0  0  0  0
  -19.7926  -30.7262   24.2278 H   0  0  0  0  0  0
  -17.5007  -31.6264   24.5167 H   0  0  0  0  0  0
  -15.5343  -30.2987   23.7648 H   0  0  0  0  0  0
  -15.8664  -28.0829   22.7048 H   0  0  0  0  0  0
  -24.5911  -30.7047   25.7816 H   0  0  0  0  0  0
  -24.8937  -32.2851   26.4939 H   0  0  0  0  0  0
  -25.8100  -30.8859   27.0222 H   0  0  0  0  0  0
  -26.2841  -29.6800   24.1148 H   0  0  0  0  0  0
  -27.4074  -29.7267   25.4544 H   0  0  0  0  0  0
  -27.8675  -30.4355   23.9236 H   0  0  0  0  0  0
  -27.2677  -33.3601   26.2092 H   0  0  0  0  0  0
  -28.3850  -32.6881   25.0305 H   0  0  0  0  0  0
  -28.0731  -31.8412   26.5376 H   0  0  0  0  0  0
  -28.2605  -38.0102   24.7511 H   0  0  0  0  0  0
  -28.1067  -36.2633   24.6291 H   0  0  0  0  0  0
  -27.2298  -37.1471   25.8869 H   0  0  0  0  0  0
  -20.9308  -29.8761   21.6949 H   0  0  0  0  0  0
  -26.0178  -38.2868   24.1408 H   0  0  0  0  0  0
  -32.5850  -16.4741   21.5331 H   0  0  0  0  0  0
  -33.2554  -18.8166   21.7324 H   0  0  0  0  0  0
  -28.4680  -17.7046   21.0192 H   0  0  0  0  0  0
  -27.3226  -22.6478   20.3596 H   0  0  0  0  0  0
  -27.8898  -22.9690   21.9852 H   0  0  0  0  0  0
  -28.5491  -25.6890   21.9745 H   0  0  0  0  0  0
  -27.0907  -25.2459   21.1287 H   0  0  0  0  0  0
  -29.0772  -15.3241   21.3504 H   0  0  0  0  0  0
  -30.0568  -21.8496   20.5407 H   0  0  0  0  0  0
  -27.4876  -19.2443   22.2520 H   0  0  0  0  0  0
  -26.9260  -20.8194   21.8248 H   0  0  0  0  0  0
  1 25  1  0  0  0
  1 30  2  0  0  0
  1 81  1  0  0  0
  2  3  1  0  0  0
  2 25  1  0  0  0
  2 86  1  0  0  0
  2 87  1  0  0  0
  3  4  1  0  0  0
  3 88  1  0  0  0
  3 89  1  0  0  0
  4  5  1  0  0  0
  4 90  1  0  0  0
  4 91  1  0  0  0
  5  6  1  0  0  0
  5 26  1  0  0  0
  5 92  1  0  0  0
  6 25  1  0  0  0
  6 93  1  0  0  0
  6 94  1  0  0  0
  7  8  2  0  0  0
  7 26  1  0  0  0
  7 29  1  0  0  0
  8  9  1  0  0  0
  8 22  1  0  0  0
  9 10  1  0  0  0
  9 27  2  0  0  0
 10 11  2  0  0  0
 10 15  1  0  0  0
 11 12  1  0  0  0
 11 95  1  0  0  0
 12 13  2  0  0  0
 12 96  1  0  0  0
 13 14  1  0  0  0
 13 31  1  0  0  0
 14 15  2  0  0  0
 14 97  1  0  0  0
 15 98  1  0  0  0
 16 17  2  0  0  0
 16 21  1  0  0  0
 16 31  1  0  0  0
 17 18  1  0  0  0
 17 99  1  0  0  0
 18 19  2  0  0  0
 18100  1  0  0  0
 19 20  1  0  0  0
 19 24  1  0  0  0
 20 21  2  0  0  0
 20101  1  0  0  0
 21 23  1  0  0  0
 22 28  1  0  0  0
 22 32  2  0  0  0
 26 27  1  0  0  0
 28102  1  0  0  0
 28103  1  0  0  0
 29104  1  0  0  0
 29105  1  0  0  0
 33 34  1  0  0  0
 33 66  1  0  0  0
 33 70  2  0  0  0
 34 36  1  0  0  0
 34 59  1  0  0  0
 34106  1  0  0  0
 35 44  2  0  0  0
 35 45  1  0  0  0
 35 68  1  0  0  0
 36 56  1  0  0  0
 36107  1  0  0  0
 37 39  1  0  0  0
 37 47  1  0  0  0
 37 66  1  0  0  0
 37108  1  0  0  0
 38 43  2  0  0  0
 38 46  1  0  0  0
 38 47  1  0  0  0
 39 64  1  0  0  0
 39 67  2  0  0  0
 40 52  1  0  0  0
 40 53  2  0  0  0
 40 58  1  0  0  0
 41109  1  0  0  0
 41110  1  0  0  0
 41111  1  0  0  0
 41 48  1  0  0  0
 42 43  1  0  0  0
 42 66  1  0  0  0
 42112  1  0  0  0
 42113  1  0  0  0
 43 44  1  0  0  0
 44114  1  0  0  0
 45 46  2  0  0  0
 45115  1  0  0  0
 46116  1  0  0  0
 47117  1  0  0  0
 47118  1  0  0  0
 48 56  1  0  0  0
 48 65  1  0  0  0
 48119  1  0  0  0
 49 50  1  0  0  0
 49 53  1  0  0  0
 49 64  1  0  0  0
 49120  1  0  0  0
 50 51  1  0  0  0
 50121  1  0  0  0
 50122  1  0  0  0
 51 52  1  0  0  0
 51123  1  0  0  0
 51124  1  0  0  0
 52125  1  0  0  0
 52126  1  0  0  0
 53 54  1  0  0  0
 54 55  2  0  0  0
 54127  1  0  0  0
 55 57  1  0  0  0
 55128  1  0  0  0
 56 69  2  0  0  0
 57 58  2  0  0  0
 57129  1  0  0  0
 58130  1  0  0  0
 59 60  1  0  0  0
 59 61  1  0  0  0
 59 62  1  0  0  0
 60131  1  0  0  0
 60132  1  0  0  0
 60133  1  0  0  0
 61134  1  0  0  0
 61135  1  0  0  0
 61136  1  0  0  0
 62137  1  0  0  0
 62138  1  0  0  0
 62139  1  0  0  0
 63 65  1  0  0  0
 63140  1  0  0  0
 63141  1  0  0  0
 63142  1  0  0  0
 64143  1  0  0  0
 65144  1  0  0  0
 68 80  1  0  0  0
 71 72  2  0  0  0
 71 75  1  0  0  0
 71145  1  0  0  0
 72 76  1  0  0  0
 72146  1  0  0  0
 73 74  1  0  0  0
 73 75  2  0  0  0
 73147  1  0  0  0
 74 76  2  0  0  0
 74 77  1  0  0  0
 75 81  1  0  0  0
 76 85  1  0  0  0
 77 82  1  0  0  0
 77 83  2  0  0  0
 78 79  1  0  0  0
 78 80  1  0  0  0
 78 84  2  0  0  0
 79 82  1  0  0  0
 79148  1  0  0  0
 79149  1  0  0  0
 80150  1  0  0  0
 80151  1  0  0  0
 81152  1  0  0  0
 82153  1  0  0  0
 83154  1  0  0  0
 83155  1  0  0  0
M  CHG  1  83   1
M  ISO  4   1 100  68 101  80 101  81 100
M  END
> <chiral flag>
0

> <version>
0

> <s_m_source_file>
/data/baiqing/PycharmProjects/Reinvent-master-3.2/result/LINK_invent/BTK/process_docking_weight1_custom_product_contain_oxygen_bond_distance_aromatic_linkinvent_7_9_3/rearranged_h_0164.sdf

> <i_m_source_file_index>
44

> <r_mmod_Potential_Energy-OPLS-2005>
-294.588165283203

> <r_mmod_Stretch_Energy-OPLS-2005>
42.9088859558105

> <r_mmod_Bend_Energy-OPLS-2005>
95.2397842407227

> <r_mmod_Torsional_Energy-OPLS-2005>
232.98957824707

> <r_mmod_Improper_Torsional_Energy-OPLS-2005>
4.07881832122803

> <r_mmod_Van_der_Waal_Energy-OPLS-2005>
159.099060058594

> <r_mmod_Electrostatic_Energy-OPLS-2005>
-396.502807617188

> <r_mmod_Solvation_Energy-OPLS-2005>
-448.963256835938

> <b_mmod_Minimization_Converged-OPLS-2005>
0

> <r_mmod_RMS_Derivative-OPLS-2005>
0.510173261165619

$$$$
44
                    3D
 Structure written by MMmdl.
163172  0  0  1  0            999 V2000
  -30.5728  -14.7077   20.5110 C   0  0  0  0  0  0
  -30.4261  -12.4399   19.4707 C   0  0  0  0  0  0
  -29.5077  -12.5191   18.2310 C   0  0  0  0  0  0
  -28.0299  -12.3455   18.6348 C   0  0  0  0  0  0
  -27.6379  -13.2197   19.8548 C   0  0  2  0  0  0
  -28.6708  -13.0994   20.9906 C   0  0  0  0  0  0
  -25.2525  -13.8157   20.5691 C   0  0  0  0  0  0
  -24.1790  -13.0392   20.9159 C   0  0  0  0  0  0
  -24.6369  -11.6879   20.8689 C   0  0  0  0  0  0
  -23.9034  -10.4269   21.0387 C   0  0  0  0  0  0
  -24.3613   -9.4205   21.9171 C   0  0  0  0  0  0
  -23.6297   -8.2240   22.0751 C   0  0  0  0  0  0
  -22.4284   -8.0261   21.3537 C   0  0  0  0  0  0
  -21.9900   -9.0225   20.4647 C   0  0  0  0  0  0
  -22.7206  -10.2109   20.3053 C   0  0  0  0  0  0
  -21.6855   -6.0739   22.5259 C   0  0  0  0  0  0
  -21.4021   -6.5648   23.8191 C   0  0  0  0  0  0
  -21.3660   -5.6791   24.9158 C   0  0  0  0  0  0
  -21.6052   -4.3048   24.7192 C   0  0  0  0  0  0
  -21.8817   -3.8152   23.4309 C   0  0  0  0  0  0
  -21.9201   -4.6980   22.3384 C   0  0  0  0  0  0
  -22.7831  -13.5218   21.1794 C   0  0  0  0  0  0
  -22.1665   -4.2170   21.0955 F   0  0  0  0  0  0
  -21.5631   -3.4534   25.7709 F   0  0  0  0  0  0
  -29.9725  -13.4727   20.4276 N   0  0  0  0  0  0
  -26.2892  -12.9329   20.3238 N   0  0  0  0  0  0
  -25.9278  -11.6485   20.5671 N   0  0  0  0  0  0
  -22.0470  -12.8257   22.0392 N   0  0  0  0  0  0
  -25.4250  -15.1874   20.4221 N   0  0  0  0  0  0
  -31.7387  -14.8438   20.1244 O   0  0  0  0  0  0
  -21.6640   -6.8871   21.4225 O   0  0  0  0  0  0
  -22.3547  -14.5527   20.6614 O   0  0  0  0  0  0
  -24.6375  -31.8529   23.1992 C   0  0  0  0  0  0
  -25.9199  -32.4758   23.8345 C   0  0  1  0  0  0
  -27.2065  -27.2098   20.1079 C   0  0  0  0  0  0
  -25.5984  -33.8548   24.2267 N   0  0  0  0  0  0
  -23.4378  -30.4803   21.5396 C   0  0  2  0  0  0
  -24.8830  -28.9303   20.1027 C   0  0  0  0  0  0
  -22.7567  -29.4591   22.4843 C   0  0  0  0  0  0
  -18.0317  -28.1408   22.8499 C   0  0  0  0  0  0
  -24.1486  -36.7254   23.2640 C   0  0  0  0  0  0
  -25.9920  -30.7458   21.3932 C   0  0  0  0  0  0
  -26.0589  -29.3671   20.7237 C   0  0  0  0  0  0
  -27.2171  -28.5163   20.7249 C   0  0  0  0  0  0
  -26.0070  -26.8725   19.4344 C   0  0  0  0  0  0
  -24.8651  -27.6939   19.4483 C   0  0  0  0  0  0
  -23.6608  -29.8286   20.1532 C   0  0  0  0  0  0
  -25.4120  -36.3048   24.0323 C   0  0  1  0  0  0
  -20.5937  -28.3725   23.1245 C   0  0  2  0  0  0
  -20.6796  -26.9415   22.5427 C   0  0  0  0  0  0
  -19.5762  -26.6375   21.5251 C   0  0  0  0  0  0
  -18.1939  -26.7961   22.1636 C   0  0  0  0  0  0
  -19.1571  -28.8891   23.2879 C   0  0  0  0  0  0
  -18.9486  -30.1501   23.8897 C   0  0  0  0  0  0
  -17.6475  -30.6601   24.0582 C   0  0  0  0  0  0
  -25.9081  -34.9420   23.5098 C   0  0  0  0  0  0
  -16.5376  -29.9104   23.6335 C   0  0  0  0  0  0
  -16.7301  -28.6521   23.0352 C   0  0  0  0  0  0
  -26.4515  -31.6601   25.0758 C   0  0  0  0  0  0
  -25.3722  -31.3784   26.1471 C   0  0  0  0  0  0
  -27.0382  -30.3016   24.6323 C   0  0  0  0  0  0
  -27.6070  -32.4362   25.7537 C   0  0  0  0  0  0
  -27.5562  -37.1793   24.8464 C   0  0  0  0  0  0
  -21.4268  -29.3087   22.3635 N   0  0  0  0  0  0
  -26.4288  -37.3753   23.9403 N   0  0  0  0  0  0
  -24.7080  -31.0448   22.1001 N   0  0  0  0  0  0
  -23.4253  -28.8128   23.2942 O   0  0  0  0  0  0
  -28.2827  -26.2773   20.2065 O   0  0  0  0  0  0
  -26.5611  -34.8890   22.4660 O   0  0  0  0  0  0
  -23.5517  -32.1394   23.7251 O   0  0  0  0  0  0
  -31.4380  -18.8880   22.3640 C   0  0  0  0  0  0
  -29.3248  -18.3529   20.6603 C   0  0  0  0  0  0
  -30.7189  -19.9835   21.8284 C   0  0  0  0  0  0
  -29.6016  -19.7475   20.9834 C   0  0  0  0  0  0
  -31.1522  -17.5423   22.0421 C   0  0  0  0  0  0
  -30.1090  -17.2201   21.1327 C   0  0  0  0  0  0
  -31.0893  -21.3403   22.3282 C   0  0  0  0  0  0
  -28.3631  -23.5611   20.5879 C   0  0  0  0  0  0
  -28.6305  -20.9525   20.5697 C   0  0  0  0  0  0
  -31.3632  -22.4672   21.3200 C   0  0  0  0  0  0
  -30.5343  -22.4339   20.0233 C   0  0  0  0  0  0
  -31.9647  -16.4739   22.7606 C   0  0  0  0  0  0
  -29.0061  -24.8259   18.2853 C   0  0  0  0  0  0
  -28.2494  -24.8658   19.6278 C   0  0  2  0  0  0
  -29.1025  -22.3947   20.3263 N   0  0  0  0  0  0
  -29.7795  -15.7984   20.8450 N   0  0  0  0  0  0
  -31.2560  -21.5731   23.5285 O   0  0  0  0  0  0
  -27.5760  -23.5390   21.5394 O   0  0  0  0  0  0
  -31.4715  -12.5670   19.1828 H   0  0  0  0  0  0
  -30.3610  -11.4509   19.9280 H   0  0  0  0  0  0
  -29.7888  -11.7534   17.5058 H   0  0  0  0  0  0
  -29.6408  -13.4812   17.7346 H   0  0  0  0  0  0
  -27.8782  -11.2915   18.8679 H   0  0  0  0  0  0
  -27.3771  -12.5557   17.7883 H   0  0  0  0  0  0
  -27.6450  -14.2523   19.5093 H   0  0  0  0  0  0
  -28.6972  -12.0762   21.3671 H   0  0  0  0  0  0
  -28.3975  -13.7207   21.8446 H   0  0  0  0  0  0
  -25.2752   -9.5713   22.4734 H   0  0  0  0  0  0
  -24.0004   -7.4666   22.7492 H   0  0  0  0  0  0
  -21.0811   -8.8728   19.8972 H   0  0  0  0  0  0
  -22.3628  -10.9650   19.6176 H   0  0  0  0  0  0
  -21.2016   -7.6147   23.9695 H   0  0  0  0  0  0
  -21.1489   -6.0521   25.9057 H   0  0  0  0  0  0
  -22.0609   -2.7613   23.2781 H   0  0  0  0  0  0
  -22.4106  -11.9946   22.4821 H   0  0  0  0  0  0
  -21.1092  -13.1335   22.2560 H   0  0  0  0  0  0
  -24.6589  -15.8381   20.5554 H   0  0  0  0  0  0
  -26.2777  -15.6352   20.1108 H   0  0  0  0  0  0
  -26.7282  -32.5380   23.1083 H   0  0  0  0  0  0
  -25.0193  -33.9693   25.0451 H   0  0  0  0  0  0
  -22.7420  -31.3086   21.3964 H   0  0  0  0  0  0
  -23.3762  -35.9580   23.3326 H   0  0  0  0  0  0
  -24.3573  -36.8862   22.2056 H   0  0  0  0  0  0
  -23.7227  -37.6458   23.6661 H   0  0  0  0  0  0
  -26.1525  -31.5131   20.6331 H   0  0  0  0  0  0
  -26.8637  -30.7840   22.0351 H   0  0  0  0  0  0
  -28.1114  -28.8351   21.2430 H   0  0  0  0  0  0
  -25.8784  -25.9568   18.8862 H   0  0  0  0  0  0
  -23.9696  -27.3582   18.9414 H   0  0  0  0  0  0
  -23.7991  -30.6124   19.4064 H   0  0  0  0  0  0
  -22.7768  -29.2759   19.8344 H   0  0  0  0  0  0
  -25.1304  -36.1904   25.0818 H   0  0  0  0  0  0
  -21.0049  -28.3304   24.1363 H   0  0  0  0  0  0
  -20.5722  -26.2314   23.3638 H   0  0  0  0  0  0
  -21.6638  -26.7422   22.1212 H   0  0  0  0  0  0
  -19.6898  -25.6293   21.1280 H   0  0  0  0  0  0
  -19.6714  -27.3182   20.6788 H   0  0  0  0  0  0
  -17.4217  -26.6769   21.4018 H   0  0  0  0  0  0
  -18.0275  -26.0106   22.9023 H   0  0  0  0  0  0
  -19.7968  -30.7334   24.2215 H   0  0  0  0  0  0
  -17.5035  -31.6266   24.5219 H   0  0  0  0  0  0
  -15.5383  -30.3012   23.7655 H   0  0  0  0  0  0
  -15.8699  -28.0863   22.7043 H   0  0  0  0  0  0
  -24.5955  -30.7051   25.7830 H   0  0  0  0  0  0
  -24.8812  -32.2936   26.4808 H   0  0  0  0  0  0
  -25.8022  -30.9065   27.0314 H   0  0  0  0  0  0
  -26.2990  -29.6773   24.1290 H   0  0  0  0  0  0
  -27.3981  -29.7305   25.4892 H   0  0  0  0  0  0
  -27.8901  -30.4306   23.9640 H   0  0  0  0  0  0
  -27.2723  -33.3749   26.1977 H   0  0  0  0  0  0
  -28.3934  -32.6794   25.0376 H   0  0  0  0  0  0
  -28.0656  -31.8557   26.5556 H   0  0  0  0  0  0
  -28.2581  -38.0076   24.7500 H   0  0  0  0  0  0
  -28.1039  -36.2617   24.6309 H   0  0  0  0  0  0
  -27.2264  -37.1456   25.8855 H   0  0  0  0  0  0
  -20.9435  -29.8849   21.6886 H   0  0  0  0  0  0
  -26.0156  -38.2820   24.1446 H   0  0  0  0  0  0
  -32.2278  -19.0797   23.0799 H   0  0  0  0  0  0
  -28.4518  -18.1497   20.0552 H   0  0  0  0  0  0
  -27.8754  -20.9731   21.3558 H   0  0  0  0  0  0
  -28.0951  -20.6389   19.6740 H   0  0  0  0  0  0
  -32.4289  -22.4677   21.0897 H   0  0  0  0  0  0
  -31.1617  -23.4086   21.8300 H   0  0  0  0  0  0
  -30.8212  -21.5781   19.4096 H   0  0  0  0  0  0
  -30.7960  -23.3015   19.4264 H   0  0  0  0  0  0
  -32.7579  -16.1072   22.1078 H   0  0  0  0  0  0
  -31.3382  -15.6356   23.0668 H   0  0  0  0  0  0
  -32.4371  -16.8596   23.6659 H   0  0  0  0  0  0
  -29.1597  -23.8082   17.9239 H   0  0  0  0  0  0
  -29.9707  -25.3286   18.3502 H   0  0  0  0  0  0
  -28.4280  -25.3347   17.5119 H   0  0  0  0  0  0
  -27.2410  -24.6369   19.3134 H   0  0  0  0  0  0
  -28.8010  -15.5682   20.9439 H   0  0  0  0  0  0
  1 25  1  0  0  0
  1 30  2  0  0  0
  1 86  1  0  0  0
  2  3  1  0  0  0
  2 25  1  0  0  0
  2 89  1  0  0  0
  2 90  1  0  0  0
  3  4  1  0  0  0
  3 91  1  0  0  0
  3 92  1  0  0  0
  4  5  1  0  0  0
  4 93  1  0  0  0
  4 94  1  0  0  0
  5  6  1  0  0  0
  5 26  1  0  0  0
  5 95  1  0  0  0
  6 25  1  0  0  0
  6 96  1  0  0  0
  6 97  1  0  0  0
  7  8  2  0  0  0
  7 26  1  0  0  0
  7 29  1  0  0  0
  8  9  1  0  0  0
  8 22  1  0  0  0
  9 10  1  0  0  0
  9 27  2  0  0  0
 10 11  2  0  0  0
 10 15  1  0  0  0
 11 12  1  0  0  0
 11 98  1  0  0  0
 12 13  2  0  0  0
 12 99  1  0  0  0
 13 14  1  0  0  0
 13 31  1  0  0  0
 14 15  2  0  0  0
 14100  1  0  0  0
 15101  1  0  0  0
 16 17  2  0  0  0
 16 21  1  0  0  0
 16 31  1  0  0  0
 17 18  1  0  0  0
 17102  1  0  0  0
 18 19  2  0  0  0
 18103  1  0  0  0
 19 20  1  0  0  0
 19 24  1  0  0  0
 20 21  2  0  0  0
 20104  1  0  0  0
 21 23  1  0  0  0
 22 28  1  0  0  0
 22 32  2  0  0  0
 26 27  1  0  0  0
 28105  1  0  0  0
 28106  1  0  0  0
 29107  1  0  0  0
 29108  1  0  0  0
 33 34  1  0  0  0
 33 66  1  0  0  0
 33 70  2  0  0  0
 34 36  1  0  0  0
 34 59  1  0  0  0
 34109  1  0  0  0
 35 44  2  0  0  0
 35 45  1  0  0  0
 35 68  1  0  0  0
 36 56  1  0  0  0
 36110  1  0  0  0
 37 39  1  0  0  0
 37 47  1  0  0  0
 37 66  1  0  0  0
 37111  1  0  0  0
 38 43  2  0  0  0
 38 46  1  0  0  0
 38 47  1  0  0  0
 39 64  1  0  0  0
 39 67  2  0  0  0
 40 52  1  0  0  0
 40 53  2  0  0  0
 40 58  1  0  0  0
 41112  1  0  0  0
 41113  1  0  0  0
 41114  1  0  0  0
 41 48  1  0  0  0
 42 43  1  0  0  0
 42 66  1  0  0  0
 42115  1  0  0  0
 42116  1  0  0  0
 43 44  1  0  0  0
 44117  1  0  0  0
 45 46  2  0  0  0
 45118  1  0  0  0
 46119  1  0  0  0
 47120  1  0  0  0
 47121  1  0  0  0
 48 56  1  0  0  0
 48 65  1  0  0  0
 48122  1  0  0  0
 49 50  1  0  0  0
 49 53  1  0  0  0
 49 64  1  0  0  0
 49123  1  0  0  0
 50 51  1  0  0  0
 50124  1  0  0  0
 50125  1  0  0  0
 51 52  1  0  0  0
 51126  1  0  0  0
 51127  1  0  0  0
 52128  1  0  0  0
 52129  1  0  0  0
 53 54  1  0  0  0
 54 55  2  0  0  0
 54130  1  0  0  0
 55 57  1  0  0  0
 55131  1  0  0  0
 56 69  2  0  0  0
 57 58  2  0  0  0
 57132  1  0  0  0
 58133  1  0  0  0
 59 60  1  0  0  0
 59 61  1  0  0  0
 59 62  1  0  0  0
 60134  1  0  0  0
 60135  1  0  0  0
 60136  1  0  0  0
 61137  1  0  0  0
 61138  1  0  0  0
 61139  1  0  0  0
 62140  1  0  0  0
 62141  1  0  0  0
 62142  1  0  0  0
 63 65  1  0  0  0
 63143  1  0  0  0
 63144  1  0  0  0
 63145  1  0  0  0
 64146  1  0  0  0
 65147  1  0  0  0
 68 84  1  0  0  0
 71 73  2  0  0  0
 71 75  1  0  0  0
 71148  1  0  0  0
 72 74  2  0  0  0
 72 76  1  0  0  0
 72149  1  0  0  0
 73 74  1  0  0  0
 73 77  1  0  0  0
 74 79  1  0  0  0
 75 76  2  0  0  0
 75 82  1  0  0  0
 76 86  1  0  0  0
 77 80  1  0  0  0
 77 87  2  0  0  0
 78 84  1  0  0  0
 78 85  1  0  0  0
 78 88  2  0  0  0
 79 85  1  0  0  0
 79150  1  0  0  0
 79151  1  0  0  0
 80 81  1  0  0  0
 80152  1  0  0  0
 80153  1  0  0  0
 81 85  1  0  0  0
 81154  1  0  0  0
 81155  1  0  0  0
 82156  1  0  0  0
 82157  1  0  0  0
 82158  1  0  0  0
 83159  1  0  0  0
 83160  1  0  0  0
 83161  1  0  0  0
 83 84  1  0  0  0
 84162  1  0  0  0
 86163  1  0  0  0
M  ISO  4   1 100  68 101  84 101  86 100
M  END
> <chiral flag>
0

> <version>
0

> <s_m_source_file>
/data/baiqing/PycharmProjects/Reinvent-master-3.2/result/LINK_invent/BTK/process_docking_weight1_custom_product_contain_oxygen_bond_distance_aromatic_linkinvent_7_9_3/rearranged_h_0164.sdf

> <i_m_source_file_index>
45

> <r_mmod_Potential_Energy-OPLS-2005>
342.423431396484

> <r_mmod_Stretch_Energy-OPLS-2005>
145.567138671875

> <r_mmod_Bend_Energy-OPLS-2005>
207.619552612305

> <r_mmod_Torsional_Energy-OPLS-2005>
305.3818359375

> <r_mmod_Improper_Torsional_Energy-OPLS-2005>
9.85671329498291

> <r_mmod_Van_der_Waal_Energy-OPLS-2005>
158.899841308594

> <r_mmod_Electrostatic_Energy-OPLS-2005>
-334.076263427734

> <r_mmod_Solvation_Energy-OPLS-2005>
-244.778747558594

> <b_mmod_Minimization_Converged-OPLS-2005>
0

> <r_mmod_RMS_Derivative-OPLS-2005>
5.19727087020874

$$$$
45
                    3D
 Structure written by MMmdl.
158167  0  0  1  0            999 V2000
  -30.6379  -14.6313   20.5083 C   0  0  0  0  0  0
  -30.4377  -12.3875   19.4455 C   0  0  0  0  0  0
  -29.5028  -12.5220   18.2214 C   0  0  0  0  0  0
  -28.0267  -12.3588   18.6383 C   0  0  0  0  0  0
  -27.6589  -13.2202   19.8739 C   0  0  2  0  0  0
  -28.7101  -13.0667   20.9992 C   0  0  0  0  0  0
  -25.2583  -13.8192   20.5688 C   0  0  0  0  0  0
  -24.1843  -13.0463   20.9201 C   0  0  0  0  0  0
  -24.6413  -11.6933   20.8784 C   0  0  0  0  0  0
  -23.9088  -10.4313   21.0444 C   0  0  0  0  0  0
  -24.3627   -9.4221   21.9211 C   0  0  0  0  0  0
  -23.6295   -8.2253   22.0771 C   0  0  0  0  0  0
  -22.4284   -8.0292   21.3543 C   0  0  0  0  0  0
  -21.9934   -9.0284   20.4659 C   0  0  0  0  0  0
  -22.7273  -10.2157   20.3089 C   0  0  0  0  0  0
  -21.6849   -6.0754   22.5279 C   0  0  0  0  0  0
  -21.4012   -6.5658   23.8218 C   0  0  0  0  0  0
  -21.3664   -5.6804   24.9182 C   0  0  0  0  0  0
  -21.6047   -4.3068   24.7220 C   0  0  0  0  0  0
  -21.8817   -3.8164   23.4342 C   0  0  0  0  0  0
  -21.9189   -4.6981   22.3403 C   0  0  0  0  0  0
  -22.7859  -13.5252   21.1845 C   0  0  0  0  0  0
  -22.1656   -4.2172   21.0974 F   0  0  0  0  0  0
  -21.5639   -3.4544   25.7733 F   0  0  0  0  0  0
  -30.0273  -13.4051   20.4339 N   0  0  0  0  0  0
  -26.3034  -12.9378   20.3399 N   0  0  0  0  0  0
  -25.9351  -11.6534   20.5841 N   0  0  0  0  0  0
  -22.0468  -12.8257   22.0389 N   0  0  0  0  0  0
  -25.4312  -15.1907   20.3999 N   0  0  0  0  0  0
  -31.7851  -14.8074   20.0891 O   0  0  0  0  0  0
  -21.6644   -6.8893   21.4237 O   0  0  0  0  0  0
  -22.3549  -14.5562   20.6702 O   0  0  0  0  0  0
  -24.6270  -31.8607   23.1987 C   0  0  0  0  0  0
  -25.9139  -32.4750   23.8317 C   0  0  1  0  0  0
  -27.2330  -27.3144   20.1253 C   0  0  0  0  0  0
  -25.5982  -33.8541   24.2284 N   0  0  0  0  0  0
  -23.4195  -30.4809   21.5412 C   0  0  2  0  0  0
  -24.8723  -28.9371   20.1036 C   0  0  0  0  0  0
  -22.7483  -29.4600   22.4906 C   0  0  0  0  0  0
  -18.0302  -28.1363   22.8461 C   0  0  0  0  0  0
  -24.1526  -36.7280   23.2631 C   0  0  0  0  0  0
  -25.9604  -30.7895   21.3716 C   0  0  0  0  0  0
  -26.0383  -29.4156   20.7132 C   0  0  0  0  0  0
  -27.2212  -28.6162   20.7172 C   0  0  0  0  0  0
  -26.0433  -26.8924   19.4817 C   0  0  0  0  0  0
  -24.8763  -27.6808   19.4774 C   0  0  0  0  0  0
  -23.6367  -29.8155   20.1546 C   0  0  0  0  0  0
  -25.4130  -36.3038   24.0332 C   0  0  1  0  0  0
  -20.5902  -28.3660   23.1261 C   0  0  2  0  0  0
  -20.6798  -26.9388   22.5399 C   0  0  0  0  0  0
  -19.5789  -26.6360   21.5187 C   0  0  0  0  0  0
  -18.1957  -26.7901   22.1593 C   0  0  0  0  0  0
  -19.1563  -28.8831   23.2845 C   0  0  0  0  0  0
  -18.9473  -30.1435   23.8855 C   0  0  0  0  0  0
  -17.6472  -30.6563   24.0541 C   0  0  0  0  0  0
  -25.9050  -34.9406   23.5080 C   0  0  0  0  0  0
  -16.5366  -29.9051   23.6317 C   0  0  0  0  0  0
  -16.7291  -28.6482   23.0320 C   0  0  0  0  0  0
  -26.4519  -31.6568   25.0700 C   0  0  0  0  0  0
  -25.3734  -31.3713   26.1430 C   0  0  0  0  0  0
  -27.0381  -30.3004   24.6129 C   0  0  0  0  0  0
  -27.6099  -32.4290   25.7478 C   0  0  0  0  0  0
  -27.5585  -37.1793   24.8452 C   0  0  0  0  0  0
  -21.4194  -29.3027   22.3665 N   0  0  0  0  0  0
  -26.4297  -37.3744   23.9410 N   0  0  0  0  0  0
  -24.6862  -31.0594   22.0944 N   0  0  0  0  0  0
  -23.4207  -28.8115   23.2968 O   0  0  0  0  0  0
  -28.3492  -26.4643   20.2036 O   0  0  0  0  0  0
  -26.5592  -34.8893   22.4634 O   0  0  0  0  0  0
  -23.5437  -32.1410   23.7332 O   0  0  0  0  0  0
  -28.7882  -19.2726   21.4046 C   0  0  0  0  0  0
  -28.8317  -17.8525   21.4289 C   0  0  0  0  0  0
  -30.8924  -17.8843   20.1846 C   0  0  0  0  0  0
  -29.7914  -20.0472   20.7713 C   0  0  0  0  0  0
  -30.8554  -19.3219   20.1405 C   0  0  0  0  0  0
  -29.8914  -17.1137   20.8427 C   0  0  0  0  0  0
  -29.1475  -22.5185   20.2658 C   0  0  0  0  0  0
  -29.8104  -21.5570   20.9872 C   0  0  0  0  0  0
  -29.1867  -24.0018   20.6415 C   0  0  0  0  0  0
  -30.5779  -22.0615   22.1986 C   0  0  0  0  0  0
  -31.0730  -23.5144   21.9988 C   0  0  0  0  0  0
  -28.1304  -25.0034   20.0408 C   0  0  0  0  0  0
  -31.9806  -20.0797   19.4284 C   0  0  0  0  0  0
  -30.0479  -24.4278   21.4887 N   0  0  0  0  0  0
  -29.8404  -15.6542   20.9487 N   0  0  0  0  0  0
  -32.7550  -19.2646   18.7096 F   0  0  0  0  0  0
  -31.4765  -20.9932   18.5968 F   0  0  0  0  0  0
  -32.7612  -20.6992   20.3154 F   0  0  0  0  0  0
  -31.4793  -12.4995   19.1431 H   0  0  0  0  0  0
  -30.3542  -11.3904   19.8810 H   0  0  0  0  0  0
  -29.7580  -11.7797   17.4649 H   0  0  0  0  0  0
  -29.6449  -13.4977   17.7539 H   0  0  0  0  0  0
  -27.8613  -11.3052   18.8622 H   0  0  0  0  0  0
  -27.3690  -12.6029   17.8033 H   0  0  0  0  0  0
  -27.6789  -14.2577   19.5362 H   0  0  0  0  0  0
  -28.7238  -12.0482   21.3861 H   0  0  0  0  0  0
  -28.4581  -13.6991   21.8511 H   0  0  0  0  0  0
  -25.2760   -9.5699   22.4810 H   0  0  0  0  0  0
  -24.0011   -7.4646   22.7502 H   0  0  0  0  0  0
  -21.0863   -8.8815   19.8955 H   0  0  0  0  0  0
  -22.3730  -10.9715   19.6220 H   0  0  0  0  0  0
  -21.2002   -7.6162   23.9725 H   0  0  0  0  0  0
  -21.1488   -6.0532   25.9081 H   0  0  0  0  0  0
  -22.0587   -2.7620   23.2831 H   0  0  0  0  0  0
  -22.4026  -11.9890   22.4789 H   0  0  0  0  0  0
  -21.1102  -13.1341   22.2620 H   0  0  0  0  0  0
  -24.6552  -15.8419   20.4597 H   0  0  0  0  0  0
  -26.2770  -15.6168   20.0440 H   0  0  0  0  0  0
  -26.7216  -32.5467   23.1072 H   0  0  0  0  0  0
  -25.0196  -33.9647   25.0469 H   0  0  0  0  0  0
  -22.7132  -31.3025   21.3971 H   0  0  0  0  0  0
  -23.3741  -35.9651   23.3278 H   0  0  0  0  0  0
  -24.3612  -36.8908   22.2040 H   0  0  0  0  0  0
  -23.7328  -37.6490   23.6677 H   0  0  0  0  0  0
  -26.0852  -31.5547   20.6026 H   0  0  0  0  0  0
  -26.8413  -30.8430   21.9994 H   0  0  0  0  0  0
  -28.1128  -28.9715   21.2146 H   0  0  0  0  0  0
  -25.9834  -25.9352   18.9848 H   0  0  0  0  0  0
  -23.9856  -27.3118   18.9896 H   0  0  0  0  0  0
  -23.7477  -30.5954   19.3989 H   0  0  0  0  0  0
  -22.7583  -29.2394   19.8569 H   0  0  0  0  0  0
  -25.1299  -36.1859   25.0819 H   0  0  0  0  0  0
  -20.9989  -28.3262   24.1373 H   0  0  0  0  0  0
  -20.5711  -26.2260   23.3583 H   0  0  0  0  0  0
  -21.6658  -26.7423   22.1181 H   0  0  0  0  0  0
  -19.6936  -25.6252   21.1233 H   0  0  0  0  0  0
  -19.6749  -27.3157   20.6689 H   0  0  0  0  0  0
  -17.4220  -26.6640   21.3997 H   0  0  0  0  0  0
  -18.0359  -26.0043   22.8989 H   0  0  0  0  0  0
  -19.7962  -30.7251   24.2228 H   0  0  0  0  0  0
  -17.5028  -31.6253   24.5140 H   0  0  0  0  0  0
  -15.5366  -30.2931   23.7664 H   0  0  0  0  0  0
  -15.8688  -28.0804   22.7012 H   0  0  0  0  0  0
  -24.5936  -30.7021   25.7783 H   0  0  0  0  0  0
  -24.8885  -32.2874   26.4809 H   0  0  0  0  0  0
  -25.8043  -30.8950   27.0245 H   0  0  0  0  0  0
  -26.2953  -29.6722   24.1199 H   0  0  0  0  0  0
  -27.4140  -29.7285   25.4624 H   0  0  0  0  0  0
  -27.8799  -30.4284   23.9309 H   0  0  0  0  0  0
  -27.2730  -33.3609   26.2016 H   0  0  0  0  0  0
  -28.3935  -32.6794   25.0327 H   0  0  0  0  0  0
  -28.0731  -31.8418   26.5413 H   0  0  0  0  0  0
  -28.2556  -38.0120   24.7494 H   0  0  0  0  0  0
  -28.1114  -36.2638   24.6285 H   0  0  0  0  0  0
  -27.2286  -37.1445   25.8843 H   0  0  0  0  0  0
  -20.9352  -29.8752   21.6903 H   0  0  0  0  0  0
  -26.0147  -38.2807   24.1409 H   0  0  0  0  0  0
  -27.9786  -19.7699   21.9182 H   0  0  0  0  0  0
  -28.0303  -17.3291   21.9338 H   0  0  0  0  0  0
  -31.7161  -17.3713   19.7106 H   0  0  0  0  0  0
  -28.5371  -22.2621   19.4115 H   0  0  0  0  0  0
  -31.4512  -21.4294   22.3691 H   0  0  0  0  0  0
  -29.9568  -21.9572   23.0891 H   0  0  0  0  0  0
  -31.9271  -23.5169   21.3211 H   0  0  0  0  0  0
  -31.4538  -23.8899   22.9490 H   0  0  0  0  0  0
  -27.1814  -24.7262   20.5028 H   0  0  0  0  0  0
  -28.0336  -24.7886   18.9773 H   0  0  0  0  0  0
  -28.9794  -15.3023   21.3359 H   0  0  0  0  0  0
  1 25  1  0  0  0
  1 30  2  0  0  0
  1 85  1  0  0  0
  2  3  1  0  0  0
  2 25  1  0  0  0
  2 89  1  0  0  0
  2 90  1  0  0  0
  3  4  1  0  0  0
  3 91  1  0  0  0
  3 92  1  0  0  0
  4  5  1  0  0  0
  4 93  1  0  0  0
  4 94  1  0  0  0
  5  6  1  0  0  0
  5 26  1  0  0  0
  5 95  1  0  0  0
  6 25  1  0  0  0
  6 96  1  0  0  0
  6 97  1  0  0  0
  7  8  2  0  0  0
  7 26  1  0  0  0
  7 29  1  0  0  0
  8  9  1  0  0  0
  8 22  1  0  0  0
  9 10  1  0  0  0
  9 27  2  0  0  0
 10 11  2  0  0  0
 10 15  1  0  0  0
 11 12  1  0  0  0
 11 98  1  0  0  0
 12 13  2  0  0  0
 12 99  1  0  0  0
 13 14  1  0  0  0
 13 31  1  0  0  0
 14 15  2  0  0  0
 14100  1  0  0  0
 15101  1  0  0  0
 16 17  2  0  0  0
 16 21  1  0  0  0
 16 31  1  0  0  0
 17 18  1  0  0  0
 17102  1  0  0  0
 18 19  2  0  0  0
 18103  1  0  0  0
 19 20  1  0  0  0
 19 24  1  0  0  0
 20 21  2  0  0  0
 20104  1  0  0  0
 21 23  1  0  0  0
 22 28  1  0  0  0
 22 32  2  0  0  0
 26 27  1  0  0  0
 28105  1  0  0  0
 28106  1  0  0  0
 29107  1  0  0  0
 29108  1  0  0  0
 33 34  1  0  0  0
 33 66  1  0  0  0
 33 70  2  0  0  0
 34 36  1  0  0  0
 34 59  1  0  0  0
 34109  1  0  0  0
 35 44  2  0  0  0
 35 45  1  0  0  0
 35 68  1  0  0  0
 36 56  1  0  0  0
 36110  1  0  0  0
 37 39  1  0  0  0
 37 47  1  0  0  0
 37 66  1  0  0  0
 37111  1  0  0  0
 38 43  2  0  0  0
 38 46  1  0  0  0
 38 47  1  0  0  0
 39 64  1  0  0  0
 39 67  2  0  0  0
 40 52  1  0  0  0
 40 53  2  0  0  0
 40 58  1  0  0  0
 41112  1  0  0  0
 41113  1  0  0  0
 41114  1  0  0  0
 41 48  1  0  0  0
 42 43  1  0  0  0
 42 66  1  0  0  0
 42115  1  0  0  0
 42116  1  0  0  0
 43 44  1  0  0  0
 44117  1  0  0  0
 45 46  2  0  0  0
 45118  1  0  0  0
 46119  1  0  0  0
 47120  1  0  0  0
 47121  1  0  0  0
 48 56  1  0  0  0
 48 65  1  0  0  0
 48122  1  0  0  0
 49 50  1  0  0  0
 49 53  1  0  0  0
 49 64  1  0  0  0
 49123  1  0  0  0
 50 51  1  0  0  0
 50124  1  0  0  0
 50125  1  0  0  0
 51 52  1  0  0  0
 51126  1  0  0  0
 51127  1  0  0  0
 52128  1  0  0  0
 52129  1  0  0  0
 53 54  1  0  0  0
 54 55  2  0  0  0
 54130  1  0  0  0
 55 57  1  0  0  0
 55131  1  0  0  0
 56 69  2  0  0  0
 57 58  2  0  0  0
 57132  1  0  0  0
 58133  1  0  0  0
 59 60  1  0  0  0
 59 61  1  0  0  0
 59 62  1  0  0  0
 60134  1  0  0  0
 60135  1  0  0  0
 60136  1  0  0  0
 61137  1  0  0  0
 61138  1  0  0  0
 61139  1  0  0  0
 62140  1  0  0  0
 62141  1  0  0  0
 62142  1  0  0  0
 63 65  1  0  0  0
 63143  1  0  0  0
 63144  1  0  0  0
 63145  1  0  0  0
 64146  1  0  0  0
 65147  1  0  0  0
 68 82  1  0  0  0
 71 72  2  0  0  0
 71 74  1  0  0  0
 71148  1  0  0  0
 72 76  1  0  0  0
 72149  1  0  0  0
 73 75  1  0  0  0
 73 76  2  0  0  0
 73150  1  0  0  0
 74 75  2  0  0  0
 74 78  1  0  0  0
 75 83  1  0  0  0
 76 85  1  0  0  0
 77 78  2  0  0  0
 77 79  1  0  0  0
 77151  1  0  0  0
 78 80  1  0  0  0
 79 82  1  0  0  0
 79 84  2  0  0  0
 80 81  1  0  0  0
 80152  1  0  0  0
 80153  1  0  0  0
 81 84  1  0  0  0
 81154  1  0  0  0
 81155  1  0  0  0
 82156  1  0  0  0
 82157  1  0  0  0
 83 86  1  0  0  0
 83 87  1  0  0  0
 83 88  1  0  0  0
 85158  1  0  0  0
M  ISO  4   1 100  68 101  82 101  85 100
M  END
> <chiral flag>
0

> <version>
0

> <s_m_source_file>
/data/baiqing/PycharmProjects/Reinvent-master-3.2/result/LINK_invent/BTK/process_docking_weight1_custom_product_contain_oxygen_bond_distance_aromatic_linkinvent_7_9_3/rearranged_h_0164.sdf

> <i_m_source_file_index>
46

> <r_mmod_Potential_Energy-OPLS-2005>
126.834114074707

> <r_mmod_Stretch_Energy-OPLS-2005>
85.3320465087891

> <r_mmod_Bend_Energy-OPLS-2005>
142.044250488281

> <r_mmod_Torsional_Energy-OPLS-2005>
247.969329833984

> <r_mmod_Improper_Torsional_Energy-OPLS-2005>
5.0297908782959

> <r_mmod_Van_der_Waal_Energy-OPLS-2005>
158.802093505859

> <r_mmod_Electrostatic_Energy-OPLS-2005>
-332.622222900391

> <r_mmod_Solvation_Energy-OPLS-2005>
-228.189544677734

> <b_mmod_Minimization_Converged-OPLS-2005>
0

> <r_mmod_RMS_Derivative-OPLS-2005>
3.81414484977722

$$$$
46
                    3D
 Structure written by MMmdl.
173182  0  0  1  0            999 V2000
  -30.6373  -14.5146   20.5205 C   0  0  0  0  0  0
  -30.4109  -12.3171   19.4581 C   0  0  0  0  0  0
  -29.4945  -12.5098   18.2313 C   0  0  0  0  0  0
  -28.0143  -12.3765   18.6402 C   0  0  0  0  0  0
  -27.6475  -13.2225   19.8859 C   0  0  2  0  0  0
  -28.6806  -13.0169   21.0168 C   0  0  0  0  0  0
  -25.2464  -13.8264   20.5758 C   0  0  0  0  0  0
  -24.1708  -13.0484   20.9223 C   0  0  0  0  0  0
  -24.6267  -11.6955   20.8743 C   0  0  0  0  0  0
  -23.8988  -10.4314   21.0425 C   0  0  0  0  0  0
  -24.3582   -9.4224   21.9168 C   0  0  0  0  0  0
  -23.6294   -8.2241   22.0715 C   0  0  0  0  0  0
  -22.4288   -8.0249   21.3522 C   0  0  0  0  0  0
  -21.9897   -9.0221   20.4630 C   0  0  0  0  0  0
  -22.7191  -10.2107   20.3060 C   0  0  0  0  0  0
  -21.6818   -6.0719   22.5286 C   0  0  0  0  0  0
  -21.3982   -6.5620   23.8220 C   0  0  0  0  0  0
  -21.3687   -5.6779   24.9193 C   0  0  0  0  0  0
  -21.6091   -4.3042   24.7252 C   0  0  0  0  0  0
  -21.8803   -3.8122   23.4358 C   0  0  0  0  0  0
  -21.9201   -4.6949   22.3422 C   0  0  0  0  0  0
  -22.7754  -13.5220   21.1994 C   0  0  0  0  0  0
  -22.1655   -4.2131   21.0999 F   0  0  0  0  0  0
  -21.5698   -3.4539   25.7763 F   0  0  0  0  0  0
  -30.0122  -13.3078   20.4682 N   0  0  0  0  0  0
  -26.2860  -12.9405   20.3390 N   0  0  0  0  0  0
  -25.9192  -11.6544   20.5777 N   0  0  0  0  0  0
  -22.0444  -12.8113   22.0497 N   0  0  0  0  0  0
  -25.4289  -15.1950   20.4199 N   0  0  0  0  0  0
  -31.8147  -14.6603   20.1837 O   0  0  0  0  0  0
  -21.6653   -6.8841   21.4219 O   0  0  0  0  0  0
  -22.3421  -14.5583   20.6930 O   0  0  0  0  0  0
  -24.6190  -31.8608   23.2142 C   0  0  0  0  0  0
  -25.9043  -32.4783   23.8492 C   0  0  1  0  0  0
  -27.2248  -27.3993   20.0742 C   0  0  0  0  0  0
  -25.5873  -33.8593   24.2424 N   0  0  0  0  0  0
  -23.4145  -30.4808   21.5578 C   0  0  2  0  0  0
  -24.8595  -28.9453   20.1178 C   0  0  0  0  0  0
  -22.7450  -29.4568   22.5057 C   0  0  0  0  0  0
  -18.0236  -28.1359   22.8436 C   0  0  0  0  0  0
  -24.1475  -36.7266   23.2662 C   0  0  0  0  0  0
  -25.9505  -30.8092   21.3796 C   0  0  0  0  0  0
  -26.0268  -29.4517   20.7034 C   0  0  0  0  0  0
  -27.2230  -28.6908   20.6642 C   0  0  0  0  0  0
  -26.0448  -26.9177   19.4810 C   0  0  0  0  0  0
  -24.8625  -27.6840   19.5016 C   0  0  0  0  0  0
  -23.6301  -29.8196   20.1711 C   0  0  0  0  0  0
  -25.4081  -36.3096   24.0373 C   0  0  1  0  0  0
  -20.5817  -28.3623   23.1322 C   0  0  2  0  0  0
  -20.6715  -26.9381   22.5403 C   0  0  0  0  0  0
  -19.5708  -26.6375   21.5173 C   0  0  0  0  0  0
  -18.1883  -26.7886   22.1592 C   0  0  0  0  0  0
  -19.1473  -28.8811   23.2807 C   0  0  0  0  0  0
  -18.9435  -30.1416   23.8854 C   0  0  0  0  0  0
  -17.6426  -30.6556   24.0525 C   0  0  0  0  0  0
  -25.9010  -34.9448   23.5174 C   0  0  0  0  0  0
  -16.5327  -29.9052   23.6324 C   0  0  0  0  0  0
  -16.7209  -28.6446   23.0365 C   0  0  0  0  0  0
  -26.4476  -31.6599   25.0826 C   0  0  0  0  0  0
  -25.3750  -31.3676   26.1567 C   0  0  0  0  0  0
  -27.0356  -30.3040   24.6246 C   0  0  0  0  0  0
  -27.6050  -32.4397   25.7523 C   0  0  0  0  0  0
  -27.5576  -37.1780   24.8483 C   0  0  0  0  0  0
  -21.4171  -29.2958   22.3787 N   0  0  0  0  0  0
  -26.4291  -37.3765   23.9430 N   0  0  0  0  0  0
  -24.6810  -31.0628   22.1104 N   0  0  0  0  0  0
  -23.4156  -28.8112   23.3142 O   0  0  0  0  0  0
  -28.3433  -26.5871   20.0669 O   0  0  0  0  0  0
  -26.5558  -34.8891   22.4739 O   0  0  0  0  0  0
  -23.5337  -32.1455   23.7424 O   0  0  0  0  0  0
  -29.9351  -17.6936   17.6305 C   0  0  0  0  0  0
  -30.1575  -16.6411   18.5260 C   0  0  0  0  0  0
  -29.1239  -17.9705   20.2821 C   0  0  0  0  0  0
  -29.2822  -18.8874   18.0247 C   0  0  0  0  0  0
  -29.7292  -16.7400   19.8626 C   0  0  0  0  0  0
  -28.9160  -19.0773   19.3917 C   0  0  0  0  0  0
  -28.4781  -24.0315   20.0633 C   0  0  0  0  0  0
  -27.2074  -20.9612   15.4219 C   0  0  0  0  0  0
  -28.1797  -22.1393   15.1763 C   0  0  0  0  0  0
  -27.4760  -20.2614   16.7664 C   0  0  0  0  0  0
  -29.6553  -21.7895   15.4500 C   0  0  0  0  0  0
  -28.9633  -19.8712   16.8925 C   0  0  1  0  0  0
  -29.8371  -21.1377   16.8344 C   0  0  1  0  0  0
  -31.3182  -20.9351   17.1801 C   0  0  0  0  0  0
  -28.1735  -25.3579   20.8232 C   0  0  0  0  0  0
  -29.0145  -21.3668   20.4883 C   0  0  0  0  0  0
  -28.2036  -22.6953   20.8496 C   0  0  0  0  0  0
  -29.8185  -15.5805   20.7218 N   0  0  0  0  0  0
  -28.2659  -20.2732   19.8163 N   0  0  0  0  0  0
  -28.8865  -24.0429   18.8949 O   0  0  0  0  0  0
  -28.4878  -22.9399   22.1332 F   0  0  0  0  0  0
  -26.8929  -22.4427   20.8141 F   0  0  0  0  0  0
  -31.4607  -12.4040   19.1689 H   0  0  0  0  0  0
  -30.2965  -11.3154   19.8696 H   0  0  0  0  0  0
  -29.7388  -11.7863   17.4508 H   0  0  0  0  0  0
  -29.6674  -13.4955   17.8045 H   0  0  0  0  0  0
  -27.8186  -11.3274   18.8507 H   0  0  0  0  0  0
  -27.3708  -12.6504   17.8067 H   0  0  0  0  0  0
  -27.6840  -14.2679   19.5763 H   0  0  0  0  0  0
  -28.6460  -11.9912   21.3847 H   0  0  0  0  0  0
  -28.4484  -13.6474   21.8770 H   0  0  0  0  0  0
  -25.2702   -9.5742   22.4761 H   0  0  0  0  0  0
  -24.0059   -7.4629   22.7393 H   0  0  0  0  0  0
  -21.0878   -8.8731   19.8893 H   0  0  0  0  0  0
  -22.3652  -10.9678   19.6203 H   0  0  0  0  0  0
  -21.1861   -7.6108   23.9710 H   0  0  0  0  0  0
  -21.1572   -6.0509   25.9109 H   0  0  0  0  0  0
  -22.0548   -2.7582   23.2878 H   0  0  0  0  0  0
  -22.4092  -11.9707   22.4784 H   0  0  0  0  0  0
  -21.1097  -13.1101   22.2966 H   0  0  0  0  0  0
  -24.6715  -15.8668   20.5112 H   0  0  0  0  0  0
  -26.2913  -15.6100   20.0858 H   0  0  0  0  0  0
  -26.7084  -32.5475   23.1232 H   0  0  0  0  0  0
  -25.0117  -33.9860   25.0618 H   0  0  0  0  0  0
  -22.7016  -31.2907   21.4162 H   0  0  0  0  0  0
  -23.3775  -35.9567   23.3341 H   0  0  0  0  0  0
  -24.3584  -36.8877   22.2095 H   0  0  0  0  0  0
  -23.7230  -37.6475   23.6644 H   0  0  0  0  0  0
  -26.1060  -31.5985   20.6425 H   0  0  0  0  0  0
  -26.8213  -30.8248   22.0257 H   0  0  0  0  0  0
  -28.1290  -29.0839   21.0996 H   0  0  0  0  0  0
  -26.0522  -25.9494   18.9970 H   0  0  0  0  0  0
  -23.9611  -27.3019   19.0394 H   0  0  0  0  0  0
  -23.7624  -30.6077   19.4248 H   0  0  0  0  0  0
  -22.7567  -29.2439   19.8602 H   0  0  0  0  0  0
  -25.1273  -36.1957   25.0868 H   0  0  0  0  0  0
  -20.9818  -28.3176   24.1467 H   0  0  0  0  0  0
  -20.5587  -26.2254   23.3562 H   0  0  0  0  0  0
  -21.6600  -26.7364   22.1243 H   0  0  0  0  0  0
  -19.6890  -25.6267   21.1250 H   0  0  0  0  0  0
  -19.6716  -27.3144   20.6662 H   0  0  0  0  0  0
  -17.4159  -26.6572   21.4023 H   0  0  0  0  0  0
  -18.0297  -26.0028   22.9006 H   0  0  0  0  0  0
  -19.7914  -30.7198   24.2274 H   0  0  0  0  0  0
  -17.4998  -31.6260   24.5112 H   0  0  0  0  0  0
  -15.5325  -30.2943   23.7690 H   0  0  0  0  0  0
  -15.8597  -28.0754   22.7180 H   0  0  0  0  0  0
  -24.5880  -30.7041   25.7935 H   0  0  0  0  0  0
  -24.8950  -32.2811   26.5099 H   0  0  0  0  0  0
  -25.8124  -30.8819   27.0287 H   0  0  0  0  0  0
  -26.2949  -29.6766   24.1238 H   0  0  0  0  0  0
  -27.4108  -29.7281   25.4729 H   0  0  0  0  0  0
  -27.8789  -30.4479   23.9466 H   0  0  0  0  0  0
  -27.2654  -33.3718   26.2050 H   0  0  0  0  0  0
  -28.3785  -32.6944   25.0261 H   0  0  0  0  0  0
  -28.0723  -31.8534   26.5463 H   0  0  0  0  0  0
  -28.2571  -38.0078   24.7489 H   0  0  0  0  0  0
  -28.1073  -36.2616   24.6316 H   0  0  0  0  0  0
  -27.2275  -37.1432   25.8873 H   0  0  0  0  0  0
  -20.9369  -29.8715   21.7041 H   0  0  0  0  0  0
  -26.0173  -38.2837   24.1404 H   0  0  0  0  0  0
  -30.2374  -17.5395   16.6080 H   0  0  0  0  0  0
  -30.6101  -15.7420   18.1305 H   0  0  0  0  0  0
  -28.7879  -18.0513   21.3011 H   0  0  0  0  0  0
  -27.2905  -20.2404   14.6101 H   0  0  0  0  0  0
  -26.1751  -21.3134   15.4052 H   0  0  0  0  0  0
  -27.9026  -22.9775   15.8201 H   0  0  0  0  0  0
  -28.0753  -22.4904   14.1492 H   0  0  0  0  0  0
  -26.8428  -19.3783   16.8521 H   0  0  0  0  0  0
  -27.1870  -20.9187   17.5834 H   0  0  0  0  0  0
  -30.2533  -22.7029   15.4070 H   0  0  0  0  0  0
  -30.0511  -21.1473   14.6587 H   0  0  0  0  0  0
  -29.1729  -19.3080   15.9809 H   0  0  0  0  0  0
  -29.4548  -21.8334   17.5784 H   0  0  0  0  0  0
  -31.4833  -20.2099   17.9766 H   0  0  0  0  0  0
  -31.7328  -21.8832   17.5195 H   0  0  0  0  0  0
  -31.8837  -20.6056   16.3109 H   0  0  0  0  0  0
  -28.8646  -25.4086   21.6675 H   0  0  0  0  0  0
  -27.1691  -25.3066   21.2425 H   0  0  0  0  0  0
  -29.3350  -20.9427   21.4454 H   0  0  0  0  0  0
  -29.9312  -21.5957   19.9406 H   0  0  0  0  0  0
  -28.9581  -15.3530   21.2008 H   0  0  0  0  0  0
  -27.3904  -20.1023   20.3000 H   0  0  0  0  0  0
  1 25  1  0  0  0
  1 30  2  0  0  0
  1 88  1  0  0  0
  2  3  1  0  0  0
  2 25  1  0  0  0
  2 93  1  0  0  0
  2 94  1  0  0  0
  3  4  1  0  0  0
  3 95  1  0  0  0
  3 96  1  0  0  0
  4  5  1  0  0  0
  4 97  1  0  0  0
  4 98  1  0  0  0
  5  6  1  0  0  0
  5 26  1  0  0  0
  5 99  1  0  0  0
  6 25  1  0  0  0
  6100  1  0  0  0
  6101  1  0  0  0
  7  8  2  0  0  0
  7 26  1  0  0  0
  7 29  1  0  0  0
  8  9  1  0  0  0
  8 22  1  0  0  0
  9 10  1  0  0  0
  9 27  2  0  0  0
 10 11  2  0  0  0
 10 15  1  0  0  0
 11 12  1  0  0  0
 11102  1  0  0  0
 12 13  2  0  0  0
 12103  1  0  0  0
 13 14  1  0  0  0
 13 31  1  0  0  0
 14 15  2  0  0  0
 14104  1  0  0  0
 15105  1  0  0  0
 16 17  2  0  0  0
 16 21  1  0  0  0
 16 31  1  0  0  0
 17 18  1  0  0  0
 17106  1  0  0  0
 18 19  2  0  0  0
 18107  1  0  0  0
 19 20  1  0  0  0
 19 24  1  0  0  0
 20 21  2  0  0  0
 20108  1  0  0  0
 21 23  1  0  0  0
 22 28  1  0  0  0
 22 32  2  0  0  0
 26 27  1  0  0  0
 28109  1  0  0  0
 28110  1  0  0  0
 29111  1  0  0  0
 29112  1  0  0  0
 33 34  1  0  0  0
 33 66  1  0  0  0
 33 70  2  0  0  0
 34 36  1  0  0  0
 34 59  1  0  0  0
 34113  1  0  0  0
 35 44  2  0  0  0
 35 45  1  0  0  0
 35 68  1  0  0  0
 36 56  1  0  0  0
 36114  1  0  0  0
 37 39  1  0  0  0
 37 47  1  0  0  0
 37 66  1  0  0  0
 37115  1  0  0  0
 38 43  2  0  0  0
 38 46  1  0  0  0
 38 47  1  0  0  0
 39 64  1  0  0  0
 39 67  2  0  0  0
 40 52  1  0  0  0
 40 53  2  0  0  0
 40 58  1  0  0  0
 41116  1  0  0  0
 41117  1  0  0  0
 41118  1  0  0  0
 41 48  1  0  0  0
 42 43  1  0  0  0
 42 66  1  0  0  0
 42119  1  0  0  0
 42120  1  0  0  0
 43 44  1  0  0  0
 44121  1  0  0  0
 45 46  2  0  0  0
 45122  1  0  0  0
 46123  1  0  0  0
 47124  1  0  0  0
 47125  1  0  0  0
 48 56  1  0  0  0
 48 65  1  0  0  0
 48126  1  0  0  0
 49 50  1  0  0  0
 49 53  1  0  0  0
 49 64  1  0  0  0
 49127  1  0  0  0
 50 51  1  0  0  0
 50128  1  0  0  0
 50129  1  0  0  0
 51 52  1  0  0  0
 51130  1  0  0  0
 51131  1  0  0  0
 52132  1  0  0  0
 52133  1  0  0  0
 53 54  1  0  0  0
 54 55  2  0  0  0
 54134  1  0  0  0
 55 57  1  0  0  0
 55135  1  0  0  0
 56 69  2  0  0  0
 57 58  2  0  0  0
 57136  1  0  0  0
 58137  1  0  0  0
 59 60  1  0  0  0
 59 61  1  0  0  0
 59 62  1  0  0  0
 60138  1  0  0  0
 60139  1  0  0  0
 60140  1  0  0  0
 61141  1  0  0  0
 61142  1  0  0  0
 61143  1  0  0  0
 62144  1  0  0  0
 62145  1  0  0  0
 62146  1  0  0  0
 63 65  1  0  0  0
 63147  1  0  0  0
 63148  1  0  0  0
 63149  1  0  0  0
 64150  1  0  0  0
 65151  1  0  0  0
 68 85  1  0  0  0
 71 72  2  0  0  0
 71 74  1  0  0  0
 71152  1  0  0  0
 72 75  1  0  0  0
 72153  1  0  0  0
 73 75  2  0  0  0
 73 76  1  0  0  0
 73154  1  0  0  0
 74 76  2  0  0  0
 74 82  1  0  0  0
 75 88  1  0  0  0
 76 89  1  0  0  0
 77 85  1  0  0  0
 77 87  1  0  0  0
 77 90  2  0  0  0
 78 79  1  0  0  0
 78 80  1  0  0  0
 78155  1  0  0  0
 78156  1  0  0  0
 79 81  1  0  0  0
 79157  1  0  0  0
 79158  1  0  0  0
 80 82  1  0  0  0
 80159  1  0  0  0
 80160  1  0  0  0
 81 83  1  0  0  0
 81161  1  0  0  0
 81162  1  0  0  0
 82 83  1  0  0  0
 82163  1  0  0  0
 83 84  1  0  0  0
 83164  1  0  0  0
 84165  1  0  0  0
 84166  1  0  0  0
 84167  1  0  0  0
 85168  1  0  0  0
 85169  1  0  0  0
 86 87  1  0  0  0
 86 89  1  0  0  0
 86170  1  0  0  0
 86171  1  0  0  0
 87 91  1  0  0  0
 87 92  1  0  0  0
 88172  1  0  0  0
 89173  1  0  0  0
M  ISO  4   1 100  68 101  85 101  88 100
M  END
> <chiral flag>
0

> <version>
0

> <s_m_source_file>
/data/baiqing/PycharmProjects/Reinvent-master-3.2/result/LINK_invent/BTK/process_docking_weight1_custom_product_contain_oxygen_bond_distance_aromatic_linkinvent_7_9_3/rearranged_h_0164.sdf

> <i_m_source_file_index>
47

> <r_mmod_Potential_Energy-OPLS-2005>
224.068984985352

> <r_mmod_Stretch_Energy-OPLS-2005>
61.2107391357422

> <r_mmod_Bend_Energy-OPLS-2005>
134.703262329102

> <r_mmod_Torsional_Energy-OPLS-2005>
330.936706542969

> <r_mmod_Improper_Torsional_Energy-OPLS-2005>
13.1286821365356

> <r_mmod_Van_der_Waal_Energy-OPLS-2005>
150.362213134766

> <r_mmod_Electrostatic_Energy-OPLS-2005>
-276.353881835938

> <r_mmod_Solvation_Energy-OPLS-2005>
-214.116088867188

> <b_mmod_Minimization_Converged-OPLS-2005>
0

> <r_mmod_RMS_Derivative-OPLS-2005>
9.42265319824219

$$$$
47
                    3D
 Structure written by MMmdl.
176184  0  0  1  0            999 V2000
  -30.8207  -14.3838   20.6876 C   0  0  0  0  0  0
  -30.4132  -12.2833   19.4390 C   0  0  0  0  0  0
  -29.5027  -12.5214   18.2188 C   0  0  0  0  0  0
  -28.0236  -12.3781   18.6147 C   0  0  0  0  0  0
  -27.6713  -13.2146   19.8736 C   0  0  2  0  0  0
  -28.7117  -13.0138   21.0060 C   0  0  0  0  0  0
  -25.2600  -13.8174   20.5637 C   0  0  0  0  0  0
  -24.1867  -13.0466   20.9141 C   0  0  0  0  0  0
  -24.6389  -11.6924   20.8677 C   0  0  0  0  0  0
  -23.9035  -10.4325   21.0382 C   0  0  0  0  0  0
  -24.3597   -9.4245   21.9183 C   0  0  0  0  0  0
  -23.6264   -8.2283   22.0755 C   0  0  0  0  0  0
  -22.4249   -8.0319   21.3547 C   0  0  0  0  0  0
  -21.9871   -9.0283   20.4628 C   0  0  0  0  0  0
  -22.7182  -10.2171   20.3037 C   0  0  0  0  0  0
  -21.6876   -6.0750   22.5270 C   0  0  0  0  0  0
  -21.4015   -6.5629   23.8202 C   0  0  0  0  0  0
  -21.3661   -5.6783   24.9153 C   0  0  0  0  0  0
  -21.6062   -4.3046   24.7206 C   0  0  0  0  0  0
  -21.8819   -3.8148   23.4311 C   0  0  0  0  0  0
  -21.9164   -4.6966   22.3386 C   0  0  0  0  0  0
  -22.7857  -13.5236   21.1819 C   0  0  0  0  0  0
  -22.1644   -4.2163   21.0965 F   0  0  0  0  0  0
  -21.5627   -3.4526   25.7692 F   0  0  0  0  0  0
  -30.0648  -13.2646   20.4829 N   0  0  0  0  0  0
  -26.3073  -12.9368   20.3336 N   0  0  0  0  0  0
  -25.9346  -11.6513   20.5755 N   0  0  0  0  0  0
  -22.0464  -12.8298   22.0357 N   0  0  0  0  0  0
  -25.4274  -15.1917   20.3979 N   0  0  0  0  0  0
  -31.7884  -14.6633   19.9777 O   0  0  0  0  0  0
  -21.6637   -6.8902   21.4245 O   0  0  0  0  0  0
  -22.3529  -14.5572   20.6616 O   0  0  0  0  0  0
  -24.6167  -31.8727   23.2068 C   0  0  0  0  0  0
  -25.9065  -32.4847   23.8368 C   0  0  1  0  0  0
  -27.2515  -27.4472   20.1018 C   0  0  0  0  0  0
  -25.5898  -33.8635   24.2349 N   0  0  0  0  0  0
  -23.4036  -30.4951   21.5522 C   0  0  2  0  0  0
  -24.8429  -28.9614   20.1069 C   0  0  0  0  0  0
  -22.7451  -29.4640   22.4994 C   0  0  0  0  0  0
  -18.0290  -28.1341   22.8435 C   0  0  0  0  0  0
  -24.1430  -36.7336   23.2639 C   0  0  0  0  0  0
  -25.9211  -30.8455   21.3439 C   0  0  0  0  0  0
  -25.9968  -29.4743   20.7079 C   0  0  0  0  0  0
  -27.1916  -28.7260   20.7017 C   0  0  0  0  0  0
  -26.0791  -26.9561   19.4766 C   0  0  0  0  0  0
  -24.8842  -27.7060   19.4758 C   0  0  0  0  0  0
  -23.6031  -29.8280   20.1613 C   0  0  0  0  0  0
  -25.4043  -36.3133   24.0349 C   0  0  1  0  0  0
  -20.5885  -28.3644   23.1310 C   0  0  2  0  0  0
  -20.6785  -26.9398   22.5376 C   0  0  0  0  0  0
  -19.5801  -26.6347   21.5142 C   0  0  0  0  0  0
  -18.1968  -26.7882   22.1564 C   0  0  0  0  0  0
  -19.1524  -28.8822   23.2852 C   0  0  0  0  0  0
  -18.9445  -30.1412   23.8908 C   0  0  0  0  0  0
  -17.6420  -30.6554   24.0554 C   0  0  0  0  0  0
  -25.9001  -34.9505   23.5179 C   0  0  0  0  0  0
  -16.5365  -29.9054   23.6269 C   0  0  0  0  0  0
  -16.7279  -28.6467   23.0284 C   0  0  0  0  0  0
  -26.4477  -31.6591   25.0692 C   0  0  0  0  0  0
  -25.3737  -31.3629   26.1424 C   0  0  0  0  0  0
  -27.0318  -30.3051   24.6032 C   0  0  0  0  0  0
  -27.6117  -32.4200   25.7440 C   0  0  0  0  0  0
  -27.5557  -37.1817   24.8460 C   0  0  0  0  0  0
  -21.4208  -29.3031   22.3755 N   0  0  0  0  0  0
  -26.4267  -37.3805   23.9407 N   0  0  0  0  0  0
  -24.6657  -31.0894   22.0939 N   0  0  0  0  0  0
  -23.4216  -28.8100   23.2988 O   0  0  0  0  0  0
  -28.4536  -26.7634   20.1924 O   0  0  0  0  0  0
  -26.5618  -34.8942   22.4740 O   0  0  0  0  0  0
  -23.5340  -32.1390   23.7513 O   0  0  0  0  0  0
  -28.1350  -18.5719   20.7162 C   0  0  0  0  0  0
  -29.0235  -17.5057   20.9529 C   0  0  0  0  0  0
  -28.3263  -19.8241   21.3304 C   0  0  0  0  0  0
  -30.2251  -18.9092   22.5385 C   0  0  0  0  0  0
  -30.0780  -17.6466   21.8902 C   0  0  0  0  0  0
  -29.4106  -20.0289   22.1998 C   0  0  0  0  0  0
  -29.5167  -22.4572   22.3248 C   0  0  0  0  0  0
  -29.2641  -23.0699   20.9286 C   0  0  0  0  0  0
  -29.3733  -25.5807   18.3879 C   0  0  0  0  0  0
  -34.7272  -15.7266   23.1894 C   0  0  0  0  0  0
  -35.5463  -17.0568   21.2303 C   0  0  0  0  0  0
  -35.5858  -18.0625   23.5256 C   0  0  0  0  0  0
  -29.3747  -24.6213   20.8641 C   0  0  0  0  0  0
  -33.3609  -17.7297   22.4045 C   0  0  0  0  0  0
  -31.0554  -16.4701   22.1562 C   0  0  1  0  0  0
  -28.6246  -25.4115   19.7326 C   0  0  1  0  0  0
  -34.7894  -17.1392   22.5747 C   0  0  0  0  0  0
  -29.6203  -21.2679   22.8333 N   0  0  0  0  0  0
  -30.5019  -15.1475   21.7516 N   0  0  0  0  0  0
  -32.4178  -16.8491   21.6815 N   0  3  0  0  0  0
  -29.0105  -22.4051   19.9155 O   0  0  0  0  0  0
  -31.4637  -12.3322   19.1562 H   0  0  0  0  0  0
  -30.2623  -11.2712   19.8209 H   0  0  0  0  0  0
  -29.7424  -11.8064   17.4250 H   0  0  0  0  0  0
  -29.6880  -13.5207   17.8154 H   0  0  0  0  0  0
  -27.8254  -11.3201   18.7911 H   0  0  0  0  0  0
  -27.3826  -12.6669   17.7808 H   0  0  0  0  0  0
  -27.7186  -14.2588   19.5586 H   0  0  0  0  0  0
  -28.6707  -11.9959   21.3965 H   0  0  0  0  0  0
  -28.4630  -13.6497   21.8510 H   0  0  0  0  0  0
  -25.2762   -9.5702   22.4722 H   0  0  0  0  0  0
  -23.9959   -7.4685   22.7471 H   0  0  0  0  0  0
  -21.0805   -8.8793   19.8964 H   0  0  0  0  0  0
  -22.3647  -10.9691   19.6115 H   0  0  0  0  0  0
  -21.2040   -7.6135   23.9710 H   0  0  0  0  0  0
  -21.1469   -6.0507   25.9071 H   0  0  0  0  0  0
  -22.0571   -2.7600   23.2793 H   0  0  0  0  0  0
  -22.4012  -12.0001   22.4861 H   0  0  0  0  0  0
  -21.1077  -13.1422   22.2494 H   0  0  0  0  0  0
  -24.6558  -15.8414   20.5089 H   0  0  0  0  0  0
  -26.2796  -15.6361   20.0828 H   0  0  0  0  0  0
  -26.7234  -32.5597   23.1209 H   0  0  0  0  0  0
  -25.0051  -33.9786   25.0512 H   0  0  0  0  0  0
  -22.6870  -31.3092   21.4312 H   0  0  0  0  0  0
  -23.3696  -35.9680   23.3309 H   0  0  0  0  0  0
  -24.3531  -36.8950   22.2065 H   0  0  0  0  0  0
  -23.7189  -37.6538   23.6643 H   0  0  0  0  0  0
  -25.9958  -31.5909   20.5481 H   0  0  0  0  0  0
  -26.8306  -30.9368   21.9282 H   0  0  0  0  0  0
  -28.0816  -29.1284   21.1595 H   0  0  0  0  0  0
  -26.0647  -26.0051   18.9697 H   0  0  0  0  0  0
  -24.0065  -27.3199   18.9727 H   0  0  0  0  0  0
  -23.6939  -30.6088   19.4009 H   0  0  0  0  0  0
  -22.7225  -29.2542   19.8710 H   0  0  0  0  0  0
  -25.1169  -36.2062   25.0855 H   0  0  0  0  0  0
  -20.9883  -28.3161   24.1455 H   0  0  0  0  0  0
  -20.5679  -26.2246   23.3521 H   0  0  0  0  0  0
  -21.6670  -26.7406   22.1187 H   0  0  0  0  0  0
  -19.6941  -25.6308   21.1100 H   0  0  0  0  0  0
  -19.6709  -27.3273   20.6736 H   0  0  0  0  0  0
  -17.4264  -26.6667   21.3914 H   0  0  0  0  0  0
  -18.0267  -25.9979   22.8928 H   0  0  0  0  0  0
  -19.7949  -30.7174   24.2303 H   0  0  0  0  0  0
  -17.4914  -31.6185   24.5186 H   0  0  0  0  0  0
  -15.5318  -30.2943   23.7447 H   0  0  0  0  0  0
  -15.8653  -28.0846   22.6982 H   0  0  0  0  0  0
  -24.5984  -30.6921   25.7662 H   0  0  0  0  0  0
  -24.8852  -32.2785   26.4784 H   0  0  0  0  0  0
  -25.8080  -30.8821   27.0220 H   0  0  0  0  0  0
  -26.2888  -29.6779   24.1120 H   0  0  0  0  0  0
  -27.4148  -29.7258   25.4446 H   0  0  0  0  0  0
  -27.8622  -30.4328   23.9096 H   0  0  0  0  0  0
  -27.2888  -33.3522   26.2019 H   0  0  0  0  0  0
  -28.3946  -32.6678   25.0283 H   0  0  0  0  0  0
  -28.0765  -31.8304   26.5349 H   0  0  0  0  0  0
  -28.2579  -38.0099   24.7454 H   0  0  0  0  0  0
  -28.1040  -36.2641   24.6292 H   0  0  0  0  0  0
  -27.2305  -37.1472   25.8876 H   0  0  0  0  0  0
  -20.9397  -29.8943   21.7103 H   0  0  0  0  0  0
  -26.0166  -38.2874   24.1464 H   0  0  0  0  0  0
  -27.2933  -18.4330   20.0560 H   0  0  0  0  0  0
  -28.8706  -16.5892   20.4008 H   0  0  0  0  0  0
  -27.6191  -20.6213   21.1439 H   0  0  0  0  0  0
  -30.9770  -19.0318   23.3010 H   0  0  0  0  0  0
  -29.6379  -23.2496   23.0717 H   0  0  0  0  0  0
  -30.4556  -25.4595   18.4788 H   0  0  0  0  0  0
  -29.2093  -26.5833   17.9760 H   0  0  0  0  0  0
  -29.0157  -24.8915   17.6241 H   0  0  0  0  0  0
  -35.7270  -15.3851   23.4616 H   0  0  0  0  0  0
  -34.3255  -14.9901   22.4923 H   0  0  0  0  0  0
  -34.1257  -15.7035   24.1010 H   0  0  0  0  0  0
  -36.5167  -16.5698   21.3551 H   0  0  0  0  0  0
  -35.7411  -18.0422   20.8102 H   0  0  0  0  0  0
  -34.9923  -16.4861   20.4828 H   0  0  0  0  0  0
  -36.6285  -17.7518   23.5950 H   0  0  0  0  0  0
  -35.1758  -18.0561   24.5378 H   0  0  0  0  0  0
  -35.5820  -19.1033   23.1975 H   0  0  0  0  0  0
  -30.4271  -24.9056   20.9049 H   0  0  0  0  0  0
  -28.9361  -24.9825   21.7945 H   0  0  0  0  0  0
  -33.4017  -18.6838   21.8782 H   0  0  0  0  0  0
  -32.9522  -17.9414   23.3925 H   0  0  0  0  0  0
  -31.1327  -16.3774   23.2413 H   0  0  0  0  0  0
  -27.6721  -24.9137   19.5865 H   0  0  0  0  0  0
  -29.7658  -14.7844   22.3340 H   0  0  0  0  0  0
  -31.9448  -17.7396   21.7007 H   0  0  0  0  0  0
  -32.7377  -16.2138   22.3969 H   0  0  0  0  0  0
  1 25  1  0  0  0
  1 30  2  0  0  0
  1 89  1  0  0  0
  2  3  1  0  0  0
  2 25  1  0  0  0
  2 92  1  0  0  0
  2 93  1  0  0  0
  3  4  1  0  0  0
  3 94  1  0  0  0
  3 95  1  0  0  0
  4  5  1  0  0  0
  4 96  1  0  0  0
  4 97  1  0  0  0
  5  6  1  0  0  0
  5 26  1  0  0  0
  5 98  1  0  0  0
  6 25  1  0  0  0
  6 99  1  0  0  0
  6100  1  0  0  0
  7  8  2  0  0  0
  7 26  1  0  0  0
  7 29  1  0  0  0
  8  9  1  0  0  0
  8 22  1  0  0  0
  9 10  1  0  0  0
  9 27  2  0  0  0
 10 11  2  0  0  0
 10 15  1  0  0  0
 11 12  1  0  0  0
 11101  1  0  0  0
 12 13  2  0  0  0
 12102  1  0  0  0
 13 14  1  0  0  0
 13 31  1  0  0  0
 14 15  2  0  0  0
 14103  1  0  0  0
 15104  1  0  0  0
 16 17  2  0  0  0
 16 21  1  0  0  0
 16 31  1  0  0  0
 17 18  1  0  0  0
 17105  1  0  0  0
 18 19  2  0  0  0
 18106  1  0  0  0
 19 20  1  0  0  0
 19 24  1  0  0  0
 20 21  2  0  0  0
 20107  1  0  0  0
 21 23  1  0  0  0
 22 28  1  0  0  0
 22 32  2  0  0  0
 26 27  1  0  0  0
 28108  1  0  0  0
 28109  1  0  0  0
 29110  1  0  0  0
 29111  1  0  0  0
 33 34  1  0  0  0
 33 66  1  0  0  0
 33 70  2  0  0  0
 34 36  1  0  0  0
 34 59  1  0  0  0
 34112  1  0  0  0
 35 44  2  0  0  0
 35 45  1  0  0  0
 35 68  1  0  0  0
 36 56  1  0  0  0
 36113  1  0  0  0
 37 39  1  0  0  0
 37 47  1  0  0  0
 37 66  1  0  0  0
 37114  1  0  0  0
 38 43  2  0  0  0
 38 46  1  0  0  0
 38 47  1  0  0  0
 39 64  1  0  0  0
 39 67  2  0  0  0
 40 52  1  0  0  0
 40 53  2  0  0  0
 40 58  1  0  0  0
 41115  1  0  0  0
 41116  1  0  0  0
 41117  1  0  0  0
 41 48  1  0  0  0
 42 43  1  0  0  0
 42 66  1  0  0  0
 42118  1  0  0  0
 42119  1  0  0  0
 43 44  1  0  0  0
 44120  1  0  0  0
 45 46  2  0  0  0
 45121  1  0  0  0
 46122  1  0  0  0
 47123  1  0  0  0
 47124  1  0  0  0
 48 56  1  0  0  0
 48 65  1  0  0  0
 48125  1  0  0  0
 49 50  1  0  0  0
 49 53  1  0  0  0
 49 64  1  0  0  0
 49126  1  0  0  0
 50 51  1  0  0  0
 50127  1  0  0  0
 50128  1  0  0  0
 51 52  1  0  0  0
 51129  1  0  0  0
 51130  1  0  0  0
 52131  1  0  0  0
 52132  1  0  0  0
 53 54  1  0  0  0
 54 55  2  0  0  0
 54133  1  0  0  0
 55 57  1  0  0  0
 55134  1  0  0  0
 56 69  2  0  0  0
 57 58  2  0  0  0
 57135  1  0  0  0
 58136  1  0  0  0
 59 60  1  0  0  0
 59 61  1  0  0  0
 59 62  1  0  0  0
 60137  1  0  0  0
 60138  1  0  0  0
 60139  1  0  0  0
 61140  1  0  0  0
 61141  1  0  0  0
 61142  1  0  0  0
 62143  1  0  0  0
 62144  1  0  0  0
 62145  1  0  0  0
 63 65  1  0  0  0
 63146  1  0  0  0
 63147  1  0  0  0
 63148  1  0  0  0
 64149  1  0  0  0
 65150  1  0  0  0
 68 86  1  0  0  0
 71 72  2  0  0  0
 71 73  1  0  0  0
 71151  1  0  0  0
 72 75  1  0  0  0
 72152  1  0  0  0
 73 76  2  0  0  0
 73153  1  0  0  0
 74 75  2  0  0  0
 74 76  1  0  0  0
 74154  1  0  0  0
 75 85  1  0  0  0
 76 88  1  0  0  0
 77 78  1  0  0  0
 77 88  2  0  0  0
 77155  1  0  0  0
 78 83  1  0  0  0
 78 91  2  0  0  0
 79156  1  0  0  0
 79157  1  0  0  0
 79158  1  0  0  0
 79 86  1  0  0  0
 80159  1  0  0  0
 80160  1  0  0  0
 80161  1  0  0  0
 80 87  1  0  0  0
 81 87  1  0  0  0
 81162  1  0  0  0
 81163  1  0  0  0
 81164  1  0  0  0
 82 87  1  0  0  0
 82165  1  0  0  0
 82166  1  0  0  0
 82167  1  0  0  0
 83 86  1  0  0  0
 83168  1  0  0  0
 83169  1  0  0  0
 84 87  1  0  0  0
 84 90  1  0  0  0
 84170  1  0  0  0
 84171  1  0  0  0
 85 89  1  0  0  0
 85 90  1  0  0  0
 85172  1  0  0  0
 86173  1  0  0  0
 89174  1  0  0  0
 90175  1  0  0  0
 90176  1  0  0  0
M  CHG  1  90   1
M  ISO  4   1 100  68 101  86 101  89 100
M  END
> <chiral flag>
0

> <version>
0

> <s_m_source_file>
/data/baiqing/PycharmProjects/Reinvent-master-3.2/result/LINK_invent/BTK/process_docking_weight1_custom_product_contain_oxygen_bond_distance_aromatic_linkinvent_7_9_3/rearranged_h_0164.sdf

> <i_m_source_file_index>
48

> <r_mmod_Potential_Energy-OPLS-2005>
-62.2704124450684

> <r_mmod_Stretch_Energy-OPLS-2005>
55.4673881530762

> <r_mmod_Bend_Energy-OPLS-2005>
364.510437011719

> <r_mmod_Torsional_Energy-OPLS-2005>
218.403549194336

> <r_mmod_Improper_Torsional_Energy-OPLS-2005>
2.50242495536804

> <r_mmod_Van_der_Waal_Energy-OPLS-2005>
149.006103515625

> <r_mmod_Electrostatic_Energy-OPLS-2005>
-416.939117431641

> <r_mmod_Solvation_Energy-OPLS-2005>
-448.055541992188

> <b_mmod_Minimization_Converged-OPLS-2005>
0

> <r_mmod_RMS_Derivative-OPLS-2005>
9.68116569519043

$$$$
48
                    3D
 Structure written by MMmdl.
159167  0  0  1  0            999 V2000
  -30.7513  -14.4367   20.6284 C   0  0  0  0  0  0
  -30.4156  -12.3139   19.4074 C   0  0  0  0  0  0
  -29.4836  -12.5119   18.1969 C   0  0  0  0  0  0
  -28.0080  -12.3733   18.6168 C   0  0  0  0  0  0
  -27.6606  -13.2122   19.8747 C   0  0  2  0  0  0
  -28.7038  -12.9965   20.9925 C   0  0  0  0  0  0
  -25.2584  -13.8180   20.5697 C   0  0  0  0  0  0
  -24.1837  -13.0445   20.9173 C   0  0  0  0  0  0
  -24.6400  -11.6915   20.8740 C   0  0  0  0  0  0
  -23.9068  -10.4297   21.0408 C   0  0  0  0  0  0
  -24.3617   -9.4213   21.9188 C   0  0  0  0  0  0
  -23.6293   -8.2245   22.0753 C   0  0  0  0  0  0
  -22.4276   -8.0282   21.3541 C   0  0  0  0  0  0
  -21.9915   -9.0257   20.4644 C   0  0  0  0  0  0
  -22.7243  -10.2135   20.3057 C   0  0  0  0  0  0
  -21.6858   -6.0738   22.5285 C   0  0  0  0  0  0
  -21.4011   -6.5641   23.8217 C   0  0  0  0  0  0
  -21.3655   -5.6792   24.9178 C   0  0  0  0  0  0
  -21.6046   -4.3055   24.7231 C   0  0  0  0  0  0
  -21.8818   -3.8147   23.4352 C   0  0  0  0  0  0
  -21.9193   -4.6964   22.3408 C   0  0  0  0  0  0
  -22.7862  -13.5233   21.1847 C   0  0  0  0  0  0
  -22.1661   -4.2151   21.0987 F   0  0  0  0  0  0
  -21.5632   -3.4538   25.7747 F   0  0  0  0  0  0
  -30.0350  -13.2952   20.4373 N   0  0  0  0  0  0
  -26.3027  -12.9360   20.3392 N   0  0  0  0  0  0
  -25.9333  -11.6511   20.5789 N   0  0  0  0  0  0
  -22.0504  -12.8217   22.0400 N   0  0  0  0  0  0
  -25.4307  -15.1898   20.4125 N   0  0  0  0  0  0
  -31.8399  -14.6351   20.0859 O   0  0  0  0  0  0
  -21.6637   -6.8881   21.4246 O   0  0  0  0  0  0
  -22.3550  -14.5549   20.6717 O   0  0  0  0  0  0
  -24.6159  -31.8687   23.2100 C   0  0  0  0  0  0
  -25.9049  -32.4825   23.8392 C   0  0  1  0  0  0
  -27.2273  -27.4245   20.0926 C   0  0  0  0  0  0
  -25.5901  -33.8622   24.2316 N   0  0  0  0  0  0
  -23.4029  -30.4934   21.5529 C   0  0  2  0  0  0
  -24.8474  -28.9660   20.1139 C   0  0  0  0  0  0
  -22.7414  -29.4661   22.5002 C   0  0  0  0  0  0
  -18.0271  -28.1388   22.8494 C   0  0  0  0  0  0
  -24.1487  -36.7307   23.2640 C   0  0  0  0  0  0
  -25.9355  -30.8325   21.3657 C   0  0  0  0  0  0
  -26.0120  -29.4692   20.7079 C   0  0  0  0  0  0
  -27.2069  -28.7085   20.6906 C   0  0  0  0  0  0
  -26.0404  -26.9484   19.4844 C   0  0  0  0  0  0
  -24.8583  -27.7059   19.4984 C   0  0  0  0  0  0
  -23.6093  -29.8308   20.1664 C   0  0  0  0  0  0
  -25.4111  -36.3106   24.0333 C   0  0  1  0  0  0
  -20.5863  -28.3667   23.1323 C   0  0  2  0  0  0
  -20.6769  -26.9400   22.5433 C   0  0  0  0  0  0
  -19.5744  -26.6385   21.5228 C   0  0  0  0  0  0
  -18.1916  -26.7932   22.1628 C   0  0  0  0  0  0
  -19.1525  -28.8839   23.2910 C   0  0  0  0  0  0
  -18.9448  -30.1443   23.8925 C   0  0  0  0  0  0
  -17.6451  -30.6589   24.0570 C   0  0  0  0  0  0
  -25.9044  -34.9476   23.5122 C   0  0  0  0  0  0
  -16.5343  -29.9097   23.6331 C   0  0  0  0  0  0
  -16.7258  -28.6518   23.0347 C   0  0  0  0  0  0
  -26.4473  -31.6614   25.0725 C   0  0  0  0  0  0
  -25.3727  -31.3733   26.1463 C   0  0  0  0  0  0
  -27.0301  -30.3051   24.6106 C   0  0  0  0  0  0
  -27.6033  -32.4351   25.7496 C   0  0  0  0  0  0
  -27.5579  -37.1797   24.8457 C   0  0  0  0  0  0
  -21.4144  -29.3036   22.3736 N   0  0  0  0  0  0
  -26.4289  -37.3795   23.9408 N   0  0  0  0  0  0
  -24.6702  -31.0782   22.1012 N   0  0  0  0  0  0
  -23.4189  -28.8200   23.3041 O   0  0  0  0  0  0
  -28.3785  -26.6562   20.1177 O   0  0  0  0  0  0
  -26.5614  -34.8932   22.4684 O   0  0  0  0  0  0
  -23.5348  -32.1435   23.7488 O   0  0  0  0  0  0
  -29.2934  -20.0188   21.4633 C   0  0  0  0  0  0
  -31.3232  -19.8523   20.1551 C   0  0  0  0  0  0
  -29.4418  -18.6734   21.9030 C   0  0  0  0  0  0
  -30.5663  -17.9094   21.4614 C   0  0  0  0  0  0
  -30.2429  -20.6298   20.6117 C   0  0  0  0  0  0
  -31.4853  -18.5170   20.5733 C   0  0  0  0  0  0
  -28.3966  -18.1031   22.8052 C   0  0  0  0  0  0
  -29.4126  -24.3851   20.3588 C   0  0  0  0  0  0
  -27.7092  -19.0606   23.7739 C   0  0  0  0  0  0
  -30.9075  -16.5127   22.0193 C   0  0  0  0  0  0
  -29.2259  -22.9239   20.8232 C   0  0  0  0  0  0
  -28.1371  -25.2401   20.2665 C   0  0  0  0  0  0
  -30.1612  -21.9768   20.2018 N   0  0  0  0  0  0
  -30.2037  -15.3587   21.4385 N   0  0  0  0  0  0
  -28.0771  -16.9116   22.8261 O   0  0  0  0  0  0
  -30.5291  -24.8194   20.0486 O   0  0  0  0  0  0
  -32.5687  -17.8293   20.1385 F   0  0  0  0  0  0
  -31.4578  -12.4117   19.0968 H   0  0  0  0  0  0
  -30.3196  -11.3015   19.8025 H   0  0  0  0  0  0
  -29.7160  -11.7838   17.4184 H   0  0  0  0  0  0
  -29.6511  -13.4964   17.7571 H   0  0  0  0  0  0
  -27.8178  -11.3178   18.8133 H   0  0  0  0  0  0
  -27.3526  -12.6497   17.7897 H   0  0  0  0  0  0
  -27.7046  -14.2609   19.5801 H   0  0  0  0  0  0
  -28.6796  -11.9629   21.3401 H   0  0  0  0  0  0
  -28.4573  -13.6016   21.8659 H   0  0  0  0  0  0
  -25.2764   -9.5691   22.4767 H   0  0  0  0  0  0
  -24.0006   -7.4636   22.7473 H   0  0  0  0  0  0
  -21.0848   -8.8778   19.8953 H   0  0  0  0  0  0
  -22.3707  -10.9674   19.6167 H   0  0  0  0  0  0
  -21.1992   -7.6144   23.9725 H   0  0  0  0  0  0
  -21.1474   -6.0519   25.9083 H   0  0  0  0  0  0
  -22.0596   -2.7610   23.2856 H   0  0  0  0  0  0
  -22.4100  -11.9861   22.4771 H   0  0  0  0  0  0
  -21.1128  -13.1258   22.2626 H   0  0  0  0  0  0
  -24.6736  -15.8520   20.5432 H   0  0  0  0  0  0
  -26.3042  -15.6312   20.1511 H   0  0  0  0  0  0
  -26.7118  -32.5532   23.1157 H   0  0  0  0  0  0
  -25.0039  -33.9792   25.0448 H   0  0  0  0  0  0
  -22.6901  -31.3095   21.4155 H   0  0  0  0  0  0
  -23.3755  -35.9637   23.3307 H   0  0  0  0  0  0
  -24.3577  -36.8927   22.2056 H   0  0  0  0  0  0
  -23.7225  -37.6502   23.6660 H   0  0  0  0  0  0
  -26.0497  -31.6019   20.6014 H   0  0  0  0  0  0
  -26.8227  -30.8814   21.9855 H   0  0  0  0  0  0
  -28.1044  -29.0913   21.1558 H   0  0  0  0  0  0
  -25.9949  -25.9931   18.9845 H   0  0  0  0  0  0
  -23.9643  -27.3146   19.0333 H   0  0  0  0  0  0
  -23.7132  -30.6070   19.4072 H   0  0  0  0  0  0
  -22.7347  -29.2481   19.8711 H   0  0  0  0  0  0
  -25.1295  -36.1964   25.0824 H   0  0  0  0  0  0
  -20.9942  -28.3237   24.1448 H   0  0  0  0  0  0
  -20.5683  -26.2280   23.3633 H   0  0  0  0  0  0
  -21.6635  -26.7449   22.1205 H   0  0  0  0  0  0
  -19.6907  -25.6301   21.1241 H   0  0  0  0  0  0
  -19.6688  -27.3216   20.6780 H   0  0  0  0  0  0
  -17.4193  -26.6704   21.4013 H   0  0  0  0  0  0
  -18.0290  -26.0067   22.9009 H   0  0  0  0  0  0
  -19.7928  -30.7252   24.2311 H   0  0  0  0  0  0
  -17.5009  -31.6273   24.5172 H   0  0  0  0  0  0
  -15.5346  -30.3011   23.7647 H   0  0  0  0  0  0
  -15.8657  -28.0846   22.7047 H   0  0  0  0  0  0
  -24.5909  -30.7067   25.7803 H   0  0  0  0  0  0
  -24.8906  -32.2895   26.4881 H   0  0  0  0  0  0
  -25.8067  -30.8924   27.0236 H   0  0  0  0  0  0
  -26.2845  -29.6830   24.1141 H   0  0  0  0  0  0
  -27.4045  -29.7273   25.4568 H   0  0  0  0  0  0
  -27.8693  -30.4366   23.9272 H   0  0  0  0  0  0
  -27.2615  -33.3636   26.2086 H   0  0  0  0  0  0
  -28.3837  -32.6948   25.0328 H   0  0  0  0  0  0
  -28.0711  -31.8479   26.5413 H   0  0  0  0  0  0
  -28.2584  -38.0110   24.7513 H   0  0  0  0  0  0
  -28.1095  -36.2632   24.6271 H   0  0  0  0  0  0
  -27.2295  -37.1414   25.8863 H   0  0  0  0  0  0
  -20.9308  -29.8778   21.6974 H   0  0  0  0  0  0
  -26.0182  -38.2872   24.1432 H   0  0  0  0  0  0
  -28.4403  -20.5927   21.7937 H   0  0  0  0  0  0
  -32.0618  -20.2796   19.4917 H   0  0  0  0  0  0
  -28.4431  -19.7053   24.2579 H   0  0  0  0  0  0
  -27.1830  -18.5033   24.5485 H   0  0  0  0  0  0
  -26.9847  -19.6811   23.2483 H   0  0  0  0  0  0
  -30.7124  -16.5091   23.0921 H   0  0  0  0  0  0
  -31.9870  -16.3606   21.9623 H   0  0  0  0  0  0
  -28.2011  -22.6195   20.6046 H   0  0  0  0  0  0
  -29.3446  -22.8978   21.9071 H   0  0  0  0  0  0
  -27.5333  -25.0623   21.1585 H   0  0  0  0  0  0
  -27.5919  -24.8461   19.4114 H   0  0  0  0  0  0
  -30.9579  -22.4031   19.7318 H   0  0  0  0  0  0
  -29.2821  -15.1666   21.8046 H   0  0  0  0  0  0
  1 25  1  0  0  0
  1 30  2  0  0  0
  1 84  1  0  0  0
  2  3  1  0  0  0
  2 25  1  0  0  0
  2 88  1  0  0  0
  2 89  1  0  0  0
  3  4  1  0  0  0
  3 90  1  0  0  0
  3 91  1  0  0  0
  4  5  1  0  0  0
  4 92  1  0  0  0
  4 93  1  0  0  0
  5  6  1  0  0  0
  5 26  1  0  0  0
  5 94  1  0  0  0
  6 25  1  0  0  0
  6 95  1  0  0  0
  6 96  1  0  0  0
  7  8  2  0  0  0
  7 26  1  0  0  0
  7 29  1  0  0  0
  8  9  1  0  0  0
  8 22  1  0  0  0
  9 10  1  0  0  0
  9 27  2  0  0  0
 10 11  2  0  0  0
 10 15  1  0  0  0
 11 12  1  0  0  0
 11 97  1  0  0  0
 12 13  2  0  0  0
 12 98  1  0  0  0
 13 14  1  0  0  0
 13 31  1  0  0  0
 14 15  2  0  0  0
 14 99  1  0  0  0
 15100  1  0  0  0
 16 17  2  0  0  0
 16 21  1  0  0  0
 16 31  1  0  0  0
 17 18  1  0  0  0
 17101  1  0  0  0
 18 19  2  0  0  0
 18102  1  0  0  0
 19 20  1  0  0  0
 19 24  1  0  0  0
 20 21  2  0  0  0
 20103  1  0  0  0
 21 23  1  0  0  0
 22 28  1  0  0  0
 22 32  2  0  0  0
 26 27  1  0  0  0
 28104  1  0  0  0
 28105  1  0  0  0
 29106  1  0  0  0
 29107  1  0  0  0
 33 34  1  0  0  0
 33 66  1  0  0  0
 33 70  2  0  0  0
 34 36  1  0  0  0
 34 59  1  0  0  0
 34108  1  0  0  0
 35 44  2  0  0  0
 35 45  1  0  0  0
 35 68  1  0  0  0
 36 56  1  0  0  0
 36109  1  0  0  0
 37 39  1  0  0  0
 37 47  1  0  0  0
 37 66  1  0  0  0
 37110  1  0  0  0
 38 43  2  0  0  0
 38 46  1  0  0  0
 38 47  1  0  0  0
 39 64  1  0  0  0
 39 67  2  0  0  0
 40 52  1  0  0  0
 40 53  2  0  0  0
 40 58  1  0  0  0
 41111  1  0  0  0
 41112  1  0  0  0
 41113  1  0  0  0
 41 48  1  0  0  0
 42 43  1  0  0  0
 42 66  1  0  0  0
 42114  1  0  0  0
 42115  1  0  0  0
 43 44  1  0  0  0
 44116  1  0  0  0
 45 46  2  0  0  0
 45117  1  0  0  0
 46118  1  0  0  0
 47119  1  0  0  0
 47120  1  0  0  0
 48 56  1  0  0  0
 48 65  1  0  0  0
 48121  1  0  0  0
 49 50  1  0  0  0
 49 53  1  0  0  0
 49 64  1  0  0  0
 49122  1  0  0  0
 50 51  1  0  0  0
 50123  1  0  0  0
 50124  1  0  0  0
 51 52  1  0  0  0
 51125  1  0  0  0
 51126  1  0  0  0
 52127  1  0  0  0
 52128  1  0  0  0
 53 54  1  0  0  0
 54 55  2  0  0  0
 54129  1  0  0  0
 55 57  1  0  0  0
 55130  1  0  0  0
 56 69  2  0  0  0
 57 58  2  0  0  0
 57131  1  0  0  0
 58132  1  0  0  0
 59 60  1  0  0  0
 59 61  1  0  0  0
 59 62  1  0  0  0
 60133  1  0  0  0
 60134  1  0  0  0
 60135  1  0  0  0
 61136  1  0  0  0
 61137  1  0  0  0
 61138  1  0  0  0
 62139  1  0  0  0
 62140  1  0  0  0
 62141  1  0  0  0
 63 65  1  0  0  0
 63142  1  0  0  0
 63143  1  0  0  0
 63144  1  0  0  0
 64145  1  0  0  0
 65146  1  0  0  0
 68 82  1  0  0  0
 71 73  2  0  0  0
 71 75  1  0  0  0
 71147  1  0  0  0
 72 75  2  0  0  0
 72 76  1  0  0  0
 72148  1  0  0  0
 73 74  1  0  0  0
 73 77  1  0  0  0
 74 76  2  0  0  0
 74 80  1  0  0  0
 75 83  1  0  0  0
 76 87  1  0  0  0
 77 79  1  0  0  0
 77 85  2  0  0  0
 78 81  1  0  0  0
 78 82  1  0  0  0
 78 86  2  0  0  0
 79149  1  0  0  0
 79150  1  0  0  0
 79151  1  0  0  0
 80 84  1  0  0  0
 80152  1  0  0  0
 80153  1  0  0  0
 81 83  1  0  0  0
 81154  1  0  0  0
 81155  1  0  0  0
 82156  1  0  0  0
 82157  1  0  0  0
 83158  1  0  0  0
 84159  1  0  0  0
M  ISO  4   1 100  68 101  82 101  84 100
M  END
> <chiral flag>
0

> <version>
0

> <s_m_source_file>
/data/baiqing/PycharmProjects/Reinvent-master-3.2/result/LINK_invent/BTK/process_docking_weight1_custom_product_contain_oxygen_bond_distance_aromatic_linkinvent_7_9_3/rearranged_h_0164.sdf

> <i_m_source_file_index>
49

> <r_mmod_Potential_Energy-OPLS-2005>
-94.835334777832

> <r_mmod_Stretch_Energy-OPLS-2005>
41.3093872070312

> <r_mmod_Bend_Energy-OPLS-2005>
105.958847045898

> <r_mmod_Torsional_Energy-OPLS-2005>
227.125137329102

> <r_mmod_Improper_Torsional_Energy-OPLS-2005>
3.65663504600525

> <r_mmod_Van_der_Waal_Energy-OPLS-2005>
161.172302246094

> <r_mmod_Electrostatic_Energy-OPLS-2005>
-400.747863769531

> <r_mmod_Solvation_Energy-OPLS-2005>
-245.631866455078

> <b_mmod_Minimization_Converged-OPLS-2005>
0

> <r_mmod_RMS_Derivative-OPLS-2005>
1.63732886314392

$$$$
49
                    3D
 Structure written by MMmdl.
168177  0  0  1  0            999 V2000
  -30.6592  -14.5194   20.5763 C   0  0  0  0  0  0
  -30.4393  -12.3340   19.4282 C   0  0  0  0  0  0
  -29.5046  -12.5142   18.2118 C   0  0  0  0  0  0
  -28.0240  -12.3679   18.6195 C   0  0  0  0  0  0
  -27.6645  -13.2042   19.8761 C   0  0  2  0  0  0
  -28.7062  -12.9748   20.9957 C   0  0  0  0  0  0
  -25.2587  -13.8132   20.5647 C   0  0  0  0  0  0
  -24.1846  -13.0424   20.9188 C   0  0  0  0  0  0
  -24.6402  -11.6892   20.8746 C   0  0  0  0  0  0
  -23.9063  -10.4284   21.0414 C   0  0  0  0  0  0
  -24.3612   -9.4197   21.9186 C   0  0  0  0  0  0
  -23.6286   -8.2236   22.0756 C   0  0  0  0  0  0
  -22.4272   -8.0275   21.3542 C   0  0  0  0  0  0
  -21.9906   -9.0252   20.4651 C   0  0  0  0  0  0
  -22.7236  -10.2133   20.3060 C   0  0  0  0  0  0
  -21.6851   -6.0732   22.5278 C   0  0  0  0  0  0
  -21.4012   -6.5637   23.8211 C   0  0  0  0  0  0
  -21.3657   -5.6790   24.9172 C   0  0  0  0  0  0
  -21.6043   -4.3053   24.7223 C   0  0  0  0  0  0
  -21.8819   -3.8144   23.4347 C   0  0  0  0  0  0
  -21.9192   -4.6959   22.3401 C   0  0  0  0  0  0
  -22.7870  -13.5232   21.1845 C   0  0  0  0  0  0
  -22.1662   -4.2145   21.0980 F   0  0  0  0  0  0
  -21.5627   -3.4537   25.7738 F   0  0  0  0  0  0
  -30.0381  -13.3095   20.4556 N   0  0  0  0  0  0
  -26.3034  -12.9306   20.3345 N   0  0  0  0  0  0
  -25.9328  -11.6471   20.5766 N   0  0  0  0  0  0
  -22.0507  -12.8234   22.0408 N   0  0  0  0  0  0
  -25.4265  -15.1832   20.3956 N   0  0  0  0  0  0
  -31.7710  -14.7513   20.0885 O   0  0  0  0  0  0
  -21.6637   -6.8874   21.4239 O   0  0  0  0  0  0
  -22.3552  -14.5532   20.6686 O   0  0  0  0  0  0
  -24.6186  -31.8649   23.2083 C   0  0  0  0  0  0
  -25.9067  -32.4804   23.8383 C   0  0  1  0  0  0
  -27.2359  -27.3985   20.0839 C   0  0  0  0  0  0
  -25.5917  -33.8603   24.2313 N   0  0  0  0  0  0
  -23.4078  -30.4900   21.5495 C   0  0  2  0  0  0
  -24.8521  -28.9537   20.1126 C   0  0  0  0  0  0
  -22.7431  -29.4646   22.4966 C   0  0  0  0  0  0
  -18.0280  -28.1374   22.8490 C   0  0  0  0  0  0
  -24.1490  -36.7306   23.2637 C   0  0  0  0  0  0
  -25.9416  -30.8180   21.3682 C   0  0  0  0  0  0
  -26.0154  -29.4514   20.7100 C   0  0  0  0  0  0
  -27.2043  -28.6797   20.6954 C   0  0  0  0  0  0
  -26.0385  -26.9172   19.5012 C   0  0  0  0  0  0
  -24.8601  -27.6865   19.5093 C   0  0  0  0  0  0
  -23.6175  -29.8263   20.1632 C   0  0  0  0  0  0
  -25.4111  -36.3097   24.0335 C   0  0  1  0  0  0
  -20.5873  -28.3667   23.1305 C   0  0  2  0  0  0
  -20.6769  -26.9399   22.5413 C   0  0  0  0  0  0
  -19.5750  -26.6380   21.5210 C   0  0  0  0  0  0
  -18.1929  -26.7920   22.1622 C   0  0  0  0  0  0
  -19.1531  -28.8837   23.2895 C   0  0  0  0  0  0
  -18.9455  -30.1443   23.8907 C   0  0  0  0  0  0
  -17.6457  -30.6580   24.0563 C   0  0  0  0  0  0
  -25.9041  -34.9464   23.5119 C   0  0  0  0  0  0
  -16.5349  -29.9082   23.6324 C   0  0  0  0  0  0
  -16.7269  -28.6499   23.0347 C   0  0  0  0  0  0
  -26.4484  -31.6595   25.0724 C   0  0  0  0  0  0
  -25.3748  -31.3724   26.1477 C   0  0  0  0  0  0
  -27.0314  -30.3027   24.6128 C   0  0  0  0  0  0
  -27.6056  -32.4322   25.7481 C   0  0  0  0  0  0
  -27.5582  -37.1807   24.8462 C   0  0  0  0  0  0
  -21.4154  -29.3031   22.3707 N   0  0  0  0  0  0
  -26.4293  -37.3784   23.9410 N   0  0  0  0  0  0
  -24.6744  -31.0725   22.0998 N   0  0  0  0  0  0
  -23.4189  -28.8185   23.3019 O   0  0  0  0  0  0
  -28.4113  -26.6578   20.1348 O   0  0  0  0  0  0
  -26.5597  -34.8919   22.4677 O   0  0  0  0  0  0
  -23.5372  -32.1417   23.7461 O   0  0  0  0  0  0
  -30.5642  -19.1517   20.4964 C   0  0  0  0  0  0
  -30.8301  -17.7730   20.7181 C   0  0  0  0  0  0
  -28.4580  -17.3706   20.8992 C   0  0  0  0  0  0
  -28.1750  -18.7376   20.6611 C   0  0  0  0  0  0
  -29.2399  -19.6697   20.4472 C   0  0  0  0  0  0
  -29.7702  -16.8586   20.9176 C   0  0  0  0  0  0
  -26.7222  -19.1184   20.6007 C   0  0  0  0  0  0
  -29.9448  -21.8037   19.0818 C   0  0  0  0  0  0
  -28.9038  -22.1347   21.3121 C   0  0  0  0  0  0
  -29.4699  -23.2185   18.6500 C   0  0  0  0  0  0
  -28.3988  -23.5500   20.8952 C   0  0  0  0  0  0
  -28.9753  -21.1706   20.1018 C   0  0  2  0  0  0
  -29.2830  -24.2370   19.8141 C   0  0  2  0  0  0
  -30.8347  -25.4220   21.2938 C   0  0  0  0  0  0
  -28.6770  -25.5679   19.2160 C   0  0  0  0  0  0
  -26.3179  -20.0501   21.4500 N   0  0  0  0  0  0
  -29.9239  -15.4603   21.2095 N   0  0  0  0  0  0
  -25.9447  -18.5514   19.8356 O   0  0  0  0  0  0
  -30.6192  -24.4269   20.2975 O   0  0  0  0  0  0
  -31.4807  -12.4587   19.1264 H   0  0  0  0  0  0
  -30.3635  -11.3202   19.8248 H   0  0  0  0  0  0
  -29.7507  -11.7873   17.4369 H   0  0  0  0  0  0
  -29.6661  -13.4978   17.7684 H   0  0  0  0  0  0
  -27.8363  -11.3113   18.8138 H   0  0  0  0  0  0
  -27.3758  -12.6419   17.7864 H   0  0  0  0  0  0
  -27.7097  -14.2535   19.5828 H   0  0  0  0  0  0
  -28.6939  -11.9310   21.3131 H   0  0  0  0  0  0
  -28.4517  -13.5443   21.8900 H   0  0  0  0  0  0
  -25.2763   -9.5665   22.4756 H   0  0  0  0  0  0
  -23.9993   -7.4628   22.7476 H   0  0  0  0  0  0
  -21.0835   -8.8771   19.8962 H   0  0  0  0  0  0
  -22.3695  -10.9671   19.6167 H   0  0  0  0  0  0
  -21.2008   -7.6148   23.9712 H   0  0  0  0  0  0
  -21.1480   -6.0525   25.9074 H   0  0  0  0  0  0
  -22.0602   -2.7606   23.2852 H   0  0  0  0  0  0
  -22.4117  -11.9897   22.4802 H   0  0  0  0  0  0
  -21.1125  -13.1268   22.2612 H   0  0  0  0  0  0
  -24.6486  -15.8301   20.4714 H   0  0  0  0  0  0
  -26.2413  -15.6064   19.9715 H   0  0  0  0  0  0
  -26.7134  -32.5501   23.1138 H   0  0  0  0  0  0
  -25.0085  -33.9757   25.0473 H   0  0  0  0  0  0
  -22.6981  -31.3083   21.4112 H   0  0  0  0  0  0
  -23.3743  -35.9648   23.3305 H   0  0  0  0  0  0
  -24.3580  -36.8915   22.2050 H   0  0  0  0  0  0
  -23.7253  -37.6518   23.6646 H   0  0  0  0  0  0
  -26.0640  -31.5855   20.6030 H   0  0  0  0  0  0
  -26.8262  -30.8648   21.9918 H   0  0  0  0  0  0
  -28.1013  -29.0619   21.1622 H   0  0  0  0  0  0
  -25.9613  -25.9358   19.0623 H   0  0  0  0  0  0
  -23.9595  -27.2892   19.0618 H   0  0  0  0  0  0
  -23.7333  -30.6045   19.4079 H   0  0  0  0  0  0
  -22.7389  -29.2532   19.8610 H   0  0  0  0  0  0
  -25.1288  -36.1956   25.0826 H   0  0  0  0  0  0
  -20.9967  -28.3235   24.1426 H   0  0  0  0  0  0
  -20.5671  -26.2274   23.3603 H   0  0  0  0  0  0
  -21.6640  -26.7435   22.1211 H   0  0  0  0  0  0
  -19.6912  -25.6295   21.1229 H   0  0  0  0  0  0
  -19.6694  -27.3198   20.6746 H   0  0  0  0  0  0
  -17.4201  -26.6673   21.4020 H   0  0  0  0  0  0
  -18.0327  -26.0055   22.9012 H   0  0  0  0  0  0
  -19.7932  -30.7253   24.2284 H   0  0  0  0  0  0
  -17.5012  -31.6261   24.5167 H   0  0  0  0  0  0
  -15.5348  -30.2988   23.7639 H   0  0  0  0  0  0
  -15.8671  -28.0820   22.7055 H   0  0  0  0  0  0
  -24.5917  -30.7065   25.7832 H   0  0  0  0  0  0
  -24.8947  -32.2891   26.4910 H   0  0  0  0  0  0
  -25.8106  -30.8913   27.0242 H   0  0  0  0  0  0
  -26.2864  -29.6783   24.1181 H   0  0  0  0  0  0
  -27.4068  -29.7269   25.4598 H   0  0  0  0  0  0
  -27.8707  -30.4331   23.9292 H   0  0  0  0  0  0
  -27.2670  -33.3613   26.2078 H   0  0  0  0  0  0
  -28.3850  -32.6902   25.0298 H   0  0  0  0  0  0
  -28.0739  -31.8438   26.5381 H   0  0  0  0  0  0
  -28.2606  -38.0099   24.7500 H   0  0  0  0  0  0
  -28.1073  -36.2631   24.6293 H   0  0  0  0  0  0
  -27.2300  -37.1462   25.8866 H   0  0  0  0  0  0
  -20.9316  -29.8757   21.6931 H   0  0  0  0  0  0
  -26.0178  -38.2859   24.1412 H   0  0  0  0  0  0
  -31.4047  -19.8133   20.3448 H   0  0  0  0  0  0
  -31.8551  -17.4303   20.7448 H   0  0  0  0  0  0
  -27.6291  -16.6982   21.0694 H   0  0  0  0  0  0
  -30.9501  -21.8715   19.4991 H   0  0  0  0  0  0
  -30.0174  -21.1678   18.1989 H   0  0  0  0  0  0
  -28.2417  -21.7391   22.0790 H   0  0  0  0  0  0
  -29.8847  -22.2115   21.7827 H   0  0  0  0  0  0
  -28.5257  -23.1096   18.1139 H   0  0  0  0  0  0
  -30.1727  -23.6242   17.9209 H   0  0  0  0  0  0
  -28.3013  -24.1839   21.7757 H   0  0  0  0  0  0
  -27.3842  -23.4540   20.5059 H   0  0  0  0  0  0
  -28.0053  -21.2034   19.6066 H   0  0  0  0  0  0
  -31.8476  -25.3203   21.6834 H   0  0  0  0  0  0
  -30.1531  -25.3332   22.1388 H   0  0  0  0  0  0
  -30.7566  -26.4275   20.8811 H   0  0  0  0  0  0
  -27.8180  -25.2985   18.6107 H   0  0  0  0  0  0
  -29.3866  -25.9646   18.4893 H   0  0  0  0  0  0
  -26.9772  -20.4578   22.0942 H   0  0  0  0  0  0
  -25.3502  -20.3341   21.4729 H   0  0  0  0  0  0
  -29.1132  -15.0466   21.6432 H   0  0  0  0  0  0
  1 25  1  0  0  0
  1 30  2  0  0  0
  1 87  1  0  0  0
  2  3  1  0  0  0
  2 25  1  0  0  0
  2 90  1  0  0  0
  2 91  1  0  0  0
  3  4  1  0  0  0
  3 92  1  0  0  0
  3 93  1  0  0  0
  4  5  1  0  0  0
  4 94  1  0  0  0
  4 95  1  0  0  0
  5  6  1  0  0  0
  5 26  1  0  0  0
  5 96  1  0  0  0
  6 25  1  0  0  0
  6 97  1  0  0  0
  6 98  1  0  0  0
  7  8  2  0  0  0
  7 26  1  0  0  0
  7 29  1  0  0  0
  8  9  1  0  0  0
  8 22  1  0  0  0
  9 10  1  0  0  0
  9 27  2  0  0  0
 10 11  2  0  0  0
 10 15  1  0  0  0
 11 12  1  0  0  0
 11 99  1  0  0  0
 12 13  2  0  0  0
 12100  1  0  0  0
 13 14  1  0  0  0
 13 31  1  0  0  0
 14 15  2  0  0  0
 14101  1  0  0  0
 15102  1  0  0  0
 16 17  2  0  0  0
 16 21  1  0  0  0
 16 31  1  0  0  0
 17 18  1  0  0  0
 17103  1  0  0  0
 18 19  2  0  0  0
 18104  1  0  0  0
 19 20  1  0  0  0
 19 24  1  0  0  0
 20 21  2  0  0  0
 20105  1  0  0  0
 21 23  1  0  0  0
 22 28  1  0  0  0
 22 32  2  0  0  0
 26 27  1  0  0  0
 28106  1  0  0  0
 28107  1  0  0  0
 29108  1  0  0  0
 29109  1  0  0  0
 33 34  1  0  0  0
 33 66  1  0  0  0
 33 70  2  0  0  0
 34 36  1  0  0  0
 34 59  1  0  0  0
 34110  1  0  0  0
 35 44  2  0  0  0
 35 45  1  0  0  0
 35 68  1  0  0  0
 36 56  1  0  0  0
 36111  1  0  0  0
 37 39  1  0  0  0
 37 47  1  0  0  0
 37 66  1  0  0  0
 37112  1  0  0  0
 38 43  2  0  0  0
 38 46  1  0  0  0
 38 47  1  0  0  0
 39 64  1  0  0  0
 39 67  2  0  0  0
 40 52  1  0  0  0
 40 53  2  0  0  0
 40 58  1  0  0  0
 41113  1  0  0  0
 41114  1  0  0  0
 41115  1  0  0  0
 41 48  1  0  0  0
 42 43  1  0  0  0
 42 66  1  0  0  0
 42116  1  0  0  0
 42117  1  0  0  0
 43 44  1  0  0  0
 44118  1  0  0  0
 45 46  2  0  0  0
 45119  1  0  0  0
 46120  1  0  0  0
 47121  1  0  0  0
 47122  1  0  0  0
 48 56  1  0  0  0
 48 65  1  0  0  0
 48123  1  0  0  0
 49 50  1  0  0  0
 49 53  1  0  0  0
 49 64  1  0  0  0
 49124  1  0  0  0
 50 51  1  0  0  0
 50125  1  0  0  0
 50126  1  0  0  0
 51 52  1  0  0  0
 51127  1  0  0  0
 51128  1  0  0  0
 52129  1  0  0  0
 52130  1  0  0  0
 53 54  1  0  0  0
 54 55  2  0  0  0
 54131  1  0  0  0
 55 57  1  0  0  0
 55132  1  0  0  0
 56 69  2  0  0  0
 57 58  2  0  0  0
 57133  1  0  0  0
 58134  1  0  0  0
 59 60  1  0  0  0
 59 61  1  0  0  0
 59 62  1  0  0  0
 60135  1  0  0  0
 60136  1  0  0  0
 60137  1  0  0  0
 61138  1  0  0  0
 61139  1  0  0  0
 61140  1  0  0  0
 62141  1  0  0  0
 62142  1  0  0  0
 62143  1  0  0  0
 63 65  1  0  0  0
 63144  1  0  0  0
 63145  1  0  0  0
 63146  1  0  0  0
 64147  1  0  0  0
 65148  1  0  0  0
 68 85  1  0  0  0
 71 72  2  0  0  0
 71 75  1  0  0  0
 71149  1  0  0  0
 72 76  1  0  0  0
 72150  1  0  0  0
 73 74  1  0  0  0
 73 76  2  0  0  0
 73151  1  0  0  0
 74 75  2  0  0  0
 74 77  1  0  0  0
 75 82  1  0  0  0
 76 87  1  0  0  0
 77 86  1  0  0  0
 77 88  2  0  0  0
 78 80  1  0  0  0
 78 82  1  0  0  0
 78152  1  0  0  0
 78153  1  0  0  0
 79 81  1  0  0  0
 79 82  1  0  0  0
 79154  1  0  0  0
 79155  1  0  0  0
 80 83  1  0  0  0
 80156  1  0  0  0
 80157  1  0  0  0
 81 83  1  0  0  0
 81158  1  0  0  0
 81159  1  0  0  0
 82160  1  0  0  0
 83 85  1  0  0  0
 83 89  1  0  0  0
 84 89  1  0  0  0
 84161  1  0  0  0
 84162  1  0  0  0
 84163  1  0  0  0
 85164  1  0  0  0
 85165  1  0  0  0
 86166  1  0  0  0
 86167  1  0  0  0
 87168  1  0  0  0
M  ISO  4   1 100  68 101  85 101  87 100
M  END
> <chiral flag>
0

> <version>
0

> <s_m_source_file>
/data/baiqing/PycharmProjects/Reinvent-master-3.2/result/LINK_invent/BTK/process_docking_weight1_custom_product_contain_oxygen_bond_distance_aromatic_linkinvent_7_9_3/rearranged_h_0164.sdf

> <i_m_source_file_index>
50

> <r_mmod_Potential_Energy-OPLS-2005>
-123.676010131836

> <r_mmod_Stretch_Energy-OPLS-2005>
54.0751266479492

> <r_mmod_Bend_Energy-OPLS-2005>
140.45426940918

> <r_mmod_Torsional_Energy-OPLS-2005>
267.780364990234

> <r_mmod_Improper_Torsional_Energy-OPLS-2005>
5.55088901519775

> <r_mmod_Van_der_Waal_Energy-OPLS-2005>
153.817565917969

> <r_mmod_Electrostatic_Energy-OPLS-2005>
-533.090148925781

> <r_mmod_Solvation_Energy-OPLS-2005>
-231.158279418945

> <b_mmod_Minimization_Converged-OPLS-2005>
0

> <r_mmod_RMS_Derivative-OPLS-2005>
0.839572966098785

$$$$
50
                    3D
 Structure written by MMmdl.
155163  0  0  1  0            999 V2000
  -30.7110  -14.5952   20.5367 C   0  0  0  0  0  0
  -30.4317  -12.3853   19.4615 C   0  0  0  0  0  0
  -29.5093  -12.5117   18.2304 C   0  0  0  0  0  0
  -28.0408  -12.3477   18.6588 C   0  0  0  0  0  0
  -27.6677  -13.2219   19.8870 C   0  0  2  0  0  0
  -28.7181  -13.0981   21.0181 C   0  0  0  0  0  0
  -25.2640  -13.8205   20.5723 C   0  0  0  0  0  0
  -24.1886  -13.0459   20.9213 C   0  0  0  0  0  0
  -24.6431  -11.6941   20.8757 C   0  0  0  0  0  0
  -23.9080  -10.4321   21.0412 C   0  0  0  0  0  0
  -24.3620   -9.4242   21.9191 C   0  0  0  0  0  0
  -23.6295   -8.2274   22.0765 C   0  0  0  0  0  0
  -22.4279   -8.0299   21.3551 C   0  0  0  0  0  0
  -21.9918   -9.0284   20.4661 C   0  0  0  0  0  0
  -22.7248  -10.2165   20.3078 C   0  0  0  0  0  0
  -21.6871   -6.0730   22.5269 C   0  0  0  0  0  0
  -21.4014   -6.5637   23.8195 C   0  0  0  0  0  0
  -21.3657   -5.6794   24.9164 C   0  0  0  0  0  0
  -21.6054   -4.3057   24.7221 C   0  0  0  0  0  0
  -21.8826   -3.8139   23.4346 C   0  0  0  0  0  0
  -21.9203   -4.6955   22.3396 C   0  0  0  0  0  0
  -22.7909  -13.5282   21.1815 C   0  0  0  0  0  0
  -22.1678   -4.2138   21.0981 F   0  0  0  0  0  0
  -21.5630   -3.4545   25.7738 F   0  0  0  0  0  0
  -30.0273  -13.4158   20.4387 N   0  0  0  0  0  0
  -26.3083  -12.9381   20.3468 N   0  0  0  0  0  0
  -25.9385  -11.6524   20.5858 N   0  0  0  0  0  0
  -22.0502  -12.8278   22.0356 N   0  0  0  0  0  0
  -25.4369  -15.1894   20.4094 N   0  0  0  0  0  0
  -31.8690  -14.6919   20.1273 O   0  0  0  0  0  0
  -21.6668   -6.8876   21.4228 O   0  0  0  0  0  0
  -22.3621  -14.5590   20.6671 O   0  0  0  0  0  0
  -24.6287  -31.8616   23.2040 C   0  0  0  0  0  0
  -25.9101  -32.4799   23.8390 C   0  0  1  0  0  0
  -27.2167  -27.3387   20.0704 C   0  0  0  0  0  0
  -25.5917  -33.8601   24.2315 N   0  0  0  0  0  0
  -23.4248  -30.4906   21.5432 C   0  0  2  0  0  0
  -24.8601  -28.9395   20.1198 C   0  0  0  0  0  0
  -22.7408  -29.4756   22.4931 C   0  0  0  0  0  0
  -18.0271  -28.1255   22.8475 C   0  0  0  0  0  0
  -24.1480  -36.7289   23.2650 C   0  0  0  0  0  0
  -25.9680  -30.7858   21.3787 C   0  0  0  0  0  0
  -26.0343  -29.4161   20.7175 C   0  0  0  0  0  0
  -27.2136  -28.6235   20.6907 C   0  0  0  0  0  0
  -26.0064  -26.8879   19.4936 C   0  0  0  0  0  0
  -24.8457  -27.6788   19.5098 C   0  0  0  0  0  0
  -23.6340  -29.8256   20.1603 C   0  0  0  0  0  0
  -25.4104  -36.3096   24.0339 C   0  0  1  0  0  0
  -20.5855  -28.3717   23.1095 C   0  0  2  0  0  0
  -20.6960  -26.9572   22.4892 C   0  0  0  0  0  0
  -19.5585  -26.6138   21.5172 C   0  0  0  0  0  0
  -18.1865  -26.7713   22.1753 C   0  0  0  0  0  0
  -19.1502  -28.8780   23.2775 C   0  0  0  0  0  0
  -18.9401  -30.1388   23.8752 C   0  0  0  0  0  0
  -17.6425  -30.6517   24.0425 C   0  0  0  0  0  0
  -25.9047  -34.9469   23.5148 C   0  0  0  0  0  0
  -16.5322  -29.8979   23.6241 C   0  0  0  0  0  0
  -16.7260  -28.6338   23.0395 C   0  0  0  0  0  0
  -26.4482  -31.6583   25.0747 C   0  0  0  0  0  0
  -25.3761  -31.3685   26.1504 C   0  0  0  0  0  0
  -27.0355  -30.3030   24.6185 C   0  0  0  0  0  0
  -27.6072  -32.4308   25.7503 C   0  0  0  0  0  0
  -27.5588  -37.1798   24.8479 C   0  0  0  0  0  0
  -21.4107  -29.3317   22.3753 N   0  0  0  0  0  0
  -26.4296  -37.3779   23.9433 N   0  0  0  0  0  0
  -24.6935  -31.0612   22.1001 N   0  0  0  0  0  0
  -23.4109  -28.8175   23.2927 O   0  0  0  0  0  0
  -28.3713  -26.5515   20.0654 O   0  0  0  0  0  0
  -26.5610  -34.8941   22.4716 O   0  0  0  0  0  0
  -23.5436  -32.1424   23.7326 O   0  0  0  0  0  0
  -29.0193  -19.0243   21.7947 C   0  0  0  0  0  0
  -29.7551  -18.3419   20.8349 C   0  0  0  0  0  0
  -29.1103  -20.2799   20.0399 C   0  0  0  0  0  0
  -28.7991  -18.8131   23.2187 C   0  0  0  0  0  0
  -28.5256  -23.9785   20.0954 C   0  0  0  0  0  0
  -27.7782  -19.7158   23.9055 C   0  0  0  0  0  0
  -30.6394  -17.0770   20.8991 C   0  0  0  0  0  0
  -28.0423  -22.6529   19.4280 C   0  0  0  0  0  0
  -28.4317  -25.3092   19.2788 C   0  0  0  0  0  0
  -29.8049  -19.1887   19.7136 N   0  0  0  0  0  0
  -28.9766  -21.5050   19.3758 N   0  0  0  0  0  0
  -30.0328  -15.7108   20.9321 N   0  0  0  0  0  0
  -29.4392  -17.9900   23.8781 O   0  0  0  0  0  0
  -28.9727  -23.9519   21.2465 O   0  0  0  0  0  0
  -28.5448  -20.2077   21.2584 O   0  0  0  0  0  0
  -31.4739  -12.4865   19.1551 H   0  0  0  0  0  0
  -30.3556  -11.3930   19.9046 H   0  0  0  0  0  0
  -29.7759  -11.7530   17.4932 H   0  0  0  0  0  0
  -29.6587  -13.4722   17.7415 H   0  0  0  0  0  0
  -27.8989  -11.2966   18.9029 H   0  0  0  0  0  0
  -27.3729  -12.5623   17.8237 H   0  0  0  0  0  0
  -27.6857  -14.2567   19.5472 H   0  0  0  0  0  0
  -28.7317  -12.0942   21.4396 H   0  0  0  0  0  0
  -28.4774  -13.7600   21.8494 H   0  0  0  0  0  0
  -25.2747   -9.5740   22.4794 H   0  0  0  0  0  0
  -24.0008   -7.4684   22.7501 H   0  0  0  0  0  0
  -21.0848   -8.8811   19.8976 H   0  0  0  0  0  0
  -22.3679  -10.9719   19.6223 H   0  0  0  0  0  0
  -21.1996   -7.6146   23.9686 H   0  0  0  0  0  0
  -21.1471   -6.0532   25.9063 H   0  0  0  0  0  0
  -22.0598   -2.7606   23.2854 H   0  0  0  0  0  0
  -22.4100  -11.9965   22.4791 H   0  0  0  0  0  0
  -21.1124  -13.1349   22.2501 H   0  0  0  0  0  0
  -24.6608  -15.8361   20.4956 H   0  0  0  0  0  0
  -26.2736  -15.6188   20.0317 H   0  0  0  0  0  0
  -26.7218  -32.5438   23.1187 H   0  0  0  0  0  0
  -25.0070  -33.9747   25.0459 H   0  0  0  0  0  0
  -22.7264  -31.3124   21.3907 H   0  0  0  0  0  0
  -23.3763  -35.9612   23.3314 H   0  0  0  0  0  0
  -24.3591  -36.8891   22.2081 H   0  0  0  0  0  0
  -23.7214  -37.6493   23.6641 H   0  0  0  0  0  0
  -26.1050  -31.5485   20.6089 H   0  0  0  0  0  0
  -26.8502  -30.8299   22.0080 H   0  0  0  0  0  0
  -28.1238  -28.9770   21.1555 H   0  0  0  0  0  0
  -25.8973  -25.9168   19.0385 H   0  0  0  0  0  0
  -23.9385  -27.3012   19.0550 H   0  0  0  0  0  0
  -23.7508  -30.5931   19.3950 H   0  0  0  0  0  0
  -22.7516  -29.2557   19.8686 H   0  0  0  0  0  0
  -25.1279  -36.1992   25.0827 H   0  0  0  0  0  0
  -20.9793  -28.3046   24.1281 H   0  0  0  0  0  0
  -20.6922  -26.2277   23.2985 H   0  0  0  0  0  0
  -21.6594  -26.8161   21.9947 H   0  0  0  0  0  0
  -19.6732  -25.5940   21.1502 H   0  0  0  0  0  0
  -19.6169  -27.2584   20.6395 H   0  0  0  0  0  0
  -17.4040  -26.6196   21.4280 H   0  0  0  0  0  0
  -18.0501  -25.9945   22.9310 H   0  0  0  0  0  0
  -19.7813  -30.7291   24.2049 H   0  0  0  0  0  0
  -17.4963  -31.6234   24.4914 H   0  0  0  0  0  0
  -15.5334  -30.2852   23.7578 H   0  0  0  0  0  0
  -15.8647  -28.0569   22.7235 H   0  0  0  0  0  0
  -24.5897  -30.7075   25.7830 H   0  0  0  0  0  0
  -24.8995  -32.2834   26.5045 H   0  0  0  0  0  0
  -25.8128  -30.8790   27.0220 H   0  0  0  0  0  0
  -26.2929  -29.6754   24.1251 H   0  0  0  0  0  0
  -27.4137  -29.7297   25.4654 H   0  0  0  0  0  0
  -27.8755  -30.4354   23.9370 H   0  0  0  0  0  0
  -27.2692  -33.3571   26.2175 H   0  0  0  0  0  0
  -28.3829  -32.6941   25.0288 H   0  0  0  0  0  0
  -28.0827  -31.8393   26.5346 H   0  0  0  0  0  0
  -28.2603  -38.0091   24.7526 H   0  0  0  0  0  0
  -28.1073  -36.2632   24.6288 H   0  0  0  0  0  0
  -27.2309  -37.1435   25.8875 H   0  0  0  0  0  0
  -20.9245  -29.9317   21.7236 H   0  0  0  0  0  0
  -26.0197  -38.2865   24.1423 H   0  0  0  0  0  0
  -26.8004  -19.2423   23.8670 H   0  0  0  0  0  0
  -27.7155  -20.6771   23.3947 H   0  0  0  0  0  0
  -28.0260  -19.9119   24.9495 H   0  0  0  0  0  0
  -31.2980  -17.1175   20.0296 H   0  0  0  0  0  0
  -31.3208  -17.1488   21.7482 H   0  0  0  0  0  0
  -27.7668  -22.8963   18.4001 H   0  0  0  0  0  0
  -27.1096  -22.3295   19.8878 H   0  0  0  0  0  0
  -27.6541  -25.2300   18.5194 H   0  0  0  0  0  0
  -29.3563  -25.3578   18.7053 H   0  0  0  0  0  0
  -29.5819  -21.5558   18.5655 H   0  0  0  0  0  0
  -29.0861  -15.6228   21.2717 H   0  0  0  0  0  0
  1 25  1  0  0  0
  1 30  2  0  0  0
  1 82  1  0  0  0
  2  3  1  0  0  0
  2 25  1  0  0  0
  2 86  1  0  0  0
  2 87  1  0  0  0
  3  4  1  0  0  0
  3 88  1  0  0  0
  3 89  1  0  0  0
  4  5  1  0  0  0
  4 90  1  0  0  0
  4 91  1  0  0  0
  5  6  1  0  0  0
  5 26  1  0  0  0
  5 92  1  0  0  0
  6 25  1  0  0  0
  6 93  1  0  0  0
  6 94  1  0  0  0
  7  8  2  0  0  0
  7 26  1  0  0  0
  7 29  1  0  0  0
  8  9  1  0  0  0
  8 22  1  0  0  0
  9 10  1  0  0  0
  9 27  2  0  0  0
 10 11  2  0  0  0
 10 15  1  0  0  0
 11 12  1  0  0  0
 11 95  1  0  0  0
 12 13  2  0  0  0
 12 96  1  0  0  0
 13 14  1  0  0  0
 13 31  1  0  0  0
 14 15  2  0  0  0
 14 97  1  0  0  0
 15 98  1  0  0  0
 16 17  2  0  0  0
 16 21  1  0  0  0
 16 31  1  0  0  0
 17 18  1  0  0  0
 17 99  1  0  0  0
 18 19  2  0  0  0
 18100  1  0  0  0
 19 20  1  0  0  0
 19 24  1  0  0  0
 20 21  2  0  0  0
 20101  1  0  0  0
 21 23  1  0  0  0
 22 28  1  0  0  0
 22 32  2  0  0  0
 26 27  1  0  0  0
 28102  1  0  0  0
 28103  1  0  0  0
 29104  1  0  0  0
 29105  1  0  0  0
 33 34  1  0  0  0
 33 66  1  0  0  0
 33 70  2  0  0  0
 34 36  1  0  0  0
 34 59  1  0  0  0
 34106  1  0  0  0
 35 44  2  0  0  0
 35 45  1  0  0  0
 35 68  1  0  0  0
 36 56  1  0  0  0
 36107  1  0  0  0
 37 39  1  0  0  0
 37 47  1  0  0  0
 37 66  1  0  0  0
 37108  1  0  0  0
 38 43  2  0  0  0
 38 46  1  0  0  0
 38 47  1  0  0  0
 39 64  1  0  0  0
 39 67  2  0  0  0
 40 52  1  0  0  0
 40 53  2  0  0  0
 40 58  1  0  0  0
 41109  1  0  0  0
 41110  1  0  0  0
 41111  1  0  0  0
 41 48  1  0  0  0
 42 43  1  0  0  0
 42 66  1  0  0  0
 42112  1  0  0  0
 42113  1  0  0  0
 43 44  1  0  0  0
 44114  1  0  0  0
 45 46  2  0  0  0
 45115  1  0  0  0
 46116  1  0  0  0
 47117  1  0  0  0
 47118  1  0  0  0
 48 56  1  0  0  0
 48 65  1  0  0  0
 48119  1  0  0  0
 49 50  1  0  0  0
 49 53  1  0  0  0
 49 64  1  0  0  0
 49120  1  0  0  0
 50 51  1  0  0  0
 50121  1  0  0  0
 50122  1  0  0  0
 51 52  1  0  0  0
 51123  1  0  0  0
 51124  1  0  0  0
 52125  1  0  0  0
 52126  1  0  0  0
 53 54  1  0  0  0
 54 55  2  0  0  0
 54127  1  0  0  0
 55 57  1  0  0  0
 55128  1  0  0  0
 56 69  2  0  0  0
 57 58  2  0  0  0
 57129  1  0  0  0
 58130  1  0  0  0
 59 60  1  0  0  0
 59 61  1  0  0  0
 59 62  1  0  0  0
 60131  1  0  0  0
 60132  1  0  0  0
 60133  1  0  0  0
 61134  1  0  0  0
 61135  1  0  0  0
 61136  1  0  0  0
 62137  1  0  0  0
 62138  1  0  0  0
 62139  1  0  0  0
 63 65  1  0  0  0
 63140  1  0  0  0
 63141  1  0  0  0
 63142  1  0  0  0
 64143  1  0  0  0
 65144  1  0  0  0
 68 79  1  0  0  0
 71 72  2  0  0  0
 71 74  1  0  0  0
 71 85  1  0  0  0
 72 77  1  0  0  0
 72 80  1  0  0  0
 73 80  2  0  0  0
 73 81  1  0  0  0
 73 85  1  0  0  0
 74 76  1  0  0  0
 74 83  2  0  0  0
 75 78  1  0  0  0
 75 79  1  0  0  0
 75 84  2  0  0  0
 76145  1  0  0  0
 76146  1  0  0  0
 76147  1  0  0  0
 77 82  1  0  0  0
 77148  1  0  0  0
 77149  1  0  0  0
 78 81  1  0  0  0
 78150  1  0  0  0
 78151  1  0  0  0
 79152  1  0  0  0
 79153  1  0  0  0
 81154  1  0  0  0
 82155  1  0  0  0
M  ISO  4   1 100  68 101  79 101  82 100
M  END
> <chiral flag>
0

> <version>
0

> <s_m_source_file>
/data/baiqing/PycharmProjects/Reinvent-master-3.2/result/LINK_invent/BTK/process_docking_weight1_custom_product_contain_oxygen_bond_distance_aromatic_linkinvent_7_9_3/rearranged_h_0164.sdf

> <i_m_source_file_index>
51

> <r_mmod_Potential_Energy-OPLS-2005>
-267.895751953125

> <r_mmod_Stretch_Energy-OPLS-2005>
56.183277130127

> <r_mmod_Bend_Energy-OPLS-2005>
135.783462524414

> <r_mmod_Torsional_Energy-OPLS-2005>
202.464233398438

> <r_mmod_Improper_Torsional_Energy-OPLS-2005>
6.30563402175903

> <r_mmod_Van_der_Waal_Energy-OPLS-2005>
124.024528503418

> <r_mmod_Electrostatic_Energy-OPLS-2005>
-566.588195800781

> <r_mmod_Solvation_Energy-OPLS-2005>
-264.197570800781

> <b_mmod_Minimization_Converged-OPLS-2005>
0

> <r_mmod_RMS_Derivative-OPLS-2005>
8.19742679595947

$$$$
51
                    3D
 Structure written by MMmdl.
169177  0  0  1  0            999 V2000
  -30.4345  -15.0356   20.4631 C   0  0  0  0  0  0
  -30.4662  -12.6517   19.5101 C   0  0  0  0  0  0
  -29.5432  -12.5544   18.2667 C   0  0  0  0  0  0
  -28.0775  -12.3084   18.6790 C   0  0  0  0  0  0
  -27.6312  -13.2366   19.8411 C   0  0  2  0  0  0
  -28.6706  -13.2456   20.9857 C   0  0  0  0  0  0
  -25.2378  -13.8057   20.5523 C   0  0  0  0  0  0
  -24.1755  -13.0364   20.9223 C   0  0  0  0  0  0
  -24.6365  -11.6849   20.8727 C   0  0  0  0  0  0
  -23.9058  -10.4248   21.0401 C   0  0  0  0  0  0
  -24.3599   -9.4159   21.9172 C   0  0  0  0  0  0
  -23.6277   -8.2197   22.0724 C   0  0  0  0  0  0
  -22.4246   -8.0244   21.3541 C   0  0  0  0  0  0
  -21.9895   -9.0214   20.4626 C   0  0  0  0  0  0
  -22.7230  -10.2094   20.3055 C   0  0  0  0  0  0
  -21.6837   -6.0690   22.5283 C   0  0  0  0  0  0
  -21.4001   -6.5611   23.8205 C   0  0  0  0  0  0
  -21.3663   -5.6780   24.9173 C   0  0  0  0  0  0
  -21.6060   -4.3042   24.7240 C   0  0  0  0  0  0
  -21.8824   -3.8116   23.4365 C   0  0  0  0  0  0
  -21.9180   -4.6916   22.3408 C   0  0  0  0  0  0
  -22.7799  -13.5152   21.1942 C   0  0  0  0  0  0
  -22.1655   -4.2103   21.0982 F   0  0  0  0  0  0
  -21.5645   -3.4528   25.7750 F   0  0  0  0  0  0
  -29.9446  -13.7228   20.4149 N   0  0  0  0  0  0
  -26.2860  -12.9329   20.3166 N   0  0  0  0  0  0
  -25.9307  -11.6477   20.5680 N   0  0  0  0  0  0
  -22.0464  -12.8141   22.0489 N   0  0  0  0  0  0
  -25.3954  -15.1740   20.3664 N   0  0  0  0  0  0
  -31.5972  -15.2387   20.0769 O   0  0  0  0  0  0
  -21.6624   -6.8836   21.4252 O   0  0  0  0  0  0
  -22.3496  -14.5483   20.6772 O   0  0  0  0  0  0
  -24.6452  -31.8370   23.1859 C   0  0  0  0  0  0
  -25.9228  -32.4674   23.8256 C   0  0  1  0  0  0
  -27.2184  -27.0823   20.1333 C   0  0  0  0  0  0
  -25.5962  -33.8490   24.2150 N   0  0  0  0  0  0
  -23.4544  -30.4549   21.5373 C   0  0  2  0  0  0
  -24.9031  -28.8711   20.1168 C   0  0  0  0  0  0
  -22.7568  -29.4457   22.4869 C   0  0  0  0  0  0
  -18.0298  -28.1363   22.8516 C   0  0  0  0  0  0
  -24.1494  -36.7204   23.2657 C   0  0  0  0  0  0
  -26.0110  -30.6957   21.3963 C   0  0  0  0  0  0
  -26.0877  -29.3004   20.7320 C   0  0  0  0  0  0
  -27.2477  -28.4241   20.7191 C   0  0  0  0  0  0
  -26.0042  -26.7718   19.4881 C   0  0  0  0  0  0
  -24.8772  -27.6221   19.4772 C   0  0  0  0  0  0
  -23.6870  -29.7851   20.1585 C   0  0  0  0  0  0
  -25.4126  -36.2989   24.0327 C   0  0  1  0  0  0
  -20.5918  -28.3656   23.1275 C   0  0  2  0  0  0
  -20.6787  -26.9355   22.5399 C   0  0  0  0  0  0
  -19.5739  -26.6312   21.5202 C   0  0  0  0  0  0
  -18.1892  -26.7897   22.1617 C   0  0  0  0  0  0
  -19.1594  -28.8824   23.2844 C   0  0  0  0  0  0
  -18.9566  -30.1455   23.8768 C   0  0  0  0  0  0
  -17.6593  -30.6626   24.0516 C   0  0  0  0  0  0
  -25.9066  -34.9394   23.5016 C   0  0  0  0  0  0
  -16.5443  -29.9127   23.6396 C   0  0  0  0  0  0
  -16.7305  -28.6499   23.0458 C   0  0  0  0  0  0
  -26.4530  -31.6572   25.0708 C   0  0  0  0  0  0
  -25.3708  -31.3750   26.1368 C   0  0  0  0  0  0
  -27.0473  -30.2964   24.6388 C   0  0  0  0  0  0
  -27.5990  -32.4377   25.7555 C   0  0  0  0  0  0
  -27.5562  -37.1780   24.8485 C   0  0  0  0  0  0
  -21.4247  -29.3043   22.3704 N   0  0  0  0  0  0
  -26.4263  -37.3721   23.9415 N   0  0  0  0  0  0
  -24.7242  -31.0122   22.0978 N   0  0  0  0  0  0
  -23.4189  -28.7922   23.2947 O   0  0  0  0  0  0
  -28.2575  -26.0596   20.1199 O   0  0  0  0  0  0
  -26.5651  -34.8904   22.4599 O   0  0  0  0  0  0
  -23.5562  -32.1307   23.7027 O   0  0  0  0  0  0
  -28.8133  -21.0458   24.5694 C   0  0  0  0  0  0
  -29.2203  -20.6642   23.2804 C   0  0  0  0  0  0
  -27.5097  -21.5266   24.7561 C   0  0  0  0  0  0
  -28.3019  -20.7804   22.2179 C   0  0  0  0  0  0
  -27.0226  -21.3078   22.5010 C   0  0  0  0  0  0
  -29.0639  -23.2885   20.0890 C   0  0  0  0  0  0
  -29.3644  -21.8629   20.1907 C   0  0  0  0  0  0
  -29.0245  -17.5776   20.9944 C   0  0  0  0  0  0
  -30.7013  -21.4559   19.5879 C   0  0  0  0  0  0
  -27.7644  -24.6592   21.9464 C   0  0  0  0  0  0
  -26.5020  -18.0933   21.1309 C   0  0  0  0  0  0
  -27.9692  -17.7090   23.2812 C   0  0  0  0  0  0
  -28.7042  -20.4510   20.7862 C   0  0  1  0  0  0
  -27.9841  -24.5222   20.4354 C   0  0  2  0  0  0
  -27.7260  -17.4368   21.7858 C   0  0  0  0  0  0
  -26.6303  -21.6529   23.7426 N   0  0  0  0  0  0
  -29.4414  -16.1742   20.8701 N   0  0  0  0  0  0
  -29.4095  -18.9520   20.6280 N   0  3  0  0  0  0
  -26.1408  -21.5287   21.4953 F   0  0  0  0  0  0
  -31.4929  -12.8562   19.2011 H   0  0  0  0  0  0
  -30.5014  -11.6947   20.0358 H   0  0  0  0  0  0
  -29.8857  -11.7601   17.6006 H   0  0  0  0  0  0
  -29.6067  -13.4767   17.6886 H   0  0  0  0  0  0
  -27.9893  -11.2673   18.9885 H   0  0  0  0  0  0
  -27.4113  -12.4185   17.8206 H   0  0  0  0  0  0
  -27.5923  -14.2379   19.4132 H   0  0  0  0  0  0
  -28.7797  -12.2463   21.4077 H   0  0  0  0  0  0
  -28.3370  -13.8743   21.8110 H   0  0  0  0  0  0
  -25.2746   -9.5615   22.4734 H   0  0  0  0  0  0
  -23.9976   -7.4573   22.7428 H   0  0  0  0  0  0
  -21.0824   -8.8727   19.8931 H   0  0  0  0  0  0
  -22.3680  -10.9615   19.6143 H   0  0  0  0  0  0
  -21.1990   -7.6113   23.9697 H   0  0  0  0  0  0
  -21.1496   -6.0502   25.9074 H   0  0  0  0  0  0
  -22.0598   -2.7578   23.2874 H   0  0  0  0  0  0
  -22.4097  -11.9847   22.4916 H   0  0  0  0  0  0
  -21.1044  -13.1091   22.2659 H   0  0  0  0  0  0
  -24.5607  -15.7478   20.3912 H   0  0  0  0  0  0
  -26.0940  -15.5441   19.7379 H   0  0  0  0  0  0
  -26.7269  -32.5261   23.0971 H   0  0  0  0  0  0
  -25.0167  -33.9640   25.0339 H   0  0  0  0  0  0
  -22.7592  -31.2859   21.3800 H   0  0  0  0  0  0
  -23.3771  -35.9522   23.3297 H   0  0  0  0  0  0
  -24.3645  -36.8821   22.2076 H   0  0  0  0  0  0
  -23.7233  -37.6390   23.6683 H   0  0  0  0  0  0
  -26.1685  -31.4509   20.6250 H   0  0  0  0  0  0
  -26.8774  -30.7430   22.0456 H   0  0  0  0  0  0
  -28.1535  -28.7500   21.2087 H   0  0  0  0  0  0
  -25.9093  -25.8227   18.9825 H   0  0  0  0  0  0
  -23.9839  -27.2910   18.9687 H   0  0  0  0  0  0
  -23.8342  -30.5649   19.4083 H   0  0  0  0  0  0
  -22.7990  -29.2339   19.8410 H   0  0  0  0  0  0
  -25.1327  -36.1812   25.0813 H   0  0  0  0  0  0
  -20.9994  -28.3213   24.1427 H   0  0  0  0  0  0
  -20.5685  -26.2258   23.3606 H   0  0  0  0  0  0
  -21.6614  -26.7348   22.1146 H   0  0  0  0  0  0
  -19.6875  -25.6183   21.1314 H   0  0  0  0  0  0
  -19.6687  -27.3040   20.6663 H   0  0  0  0  0  0
  -17.4114  -26.6732   21.4065 H   0  0  0  0  0  0
  -18.0184  -26.0055   22.9048 H   0  0  0  0  0  0
  -19.8105  -30.7217   24.1977 H   0  0  0  0  0  0
  -17.5199  -31.6325   24.5132 H   0  0  0  0  0  0
  -15.5467  -30.3033   23.7803 H   0  0  0  0  0  0
  -15.8717  -28.0739   22.7310 H   0  0  0  0  0  0
  -24.5848  -30.7119   25.7741 H   0  0  0  0  0  0
  -24.8938  -32.2962   26.4668 H   0  0  0  0  0  0
  -25.8026  -30.8959   27.0162 H   0  0  0  0  0  0
  -27.4020  -29.7361   25.5068 H   0  0  0  0  0  0
  -27.9083  -30.4188   23.9812 H   0  0  0  0  0  0
  -26.3183  -29.6643   24.1338 H   0  0  0  0  0  0
  -27.2554  -33.3677   26.2078 H   0  0  0  0  0  0
  -28.3876  -32.6901   25.0452 H   0  0  0  0  0  0
  -28.0568  -31.8550   26.5587 H   0  0  0  0  0  0
  -28.2532  -38.0103   24.7456 H   0  0  0  0  0  0
  -28.1053  -36.2598   24.6324 H   0  0  0  0  0  0
  -27.2303  -37.1438   25.8902 H   0  0  0  0  0  0
  -20.9385  -29.9008   21.7166 H   0  0  0  0  0  0
  -26.0095  -38.2760   24.1451 H   0  0  0  0  0  0
  -29.4912  -20.9710   25.4074 H   0  0  0  0  0  0
  -30.2208  -20.2876   23.1290 H   0  0  0  0  0  0
  -27.1820  -21.8288   25.7381 H   0  0  0  0  0  0
  -29.8516  -23.8071   19.5637 H   0  0  0  0  0  0
  -31.3277  -22.2955   19.2790 H   0  0  0  0  0  0
  -30.5410  -20.8149   18.7185 H   0  0  0  0  0  0
  -31.2885  -20.8949   20.3152 H   0  0  0  0  0  0
  -27.7078  -23.7197   22.4724 H   0  0  0  0  0  0
  -26.8475  -25.2183   22.1504 H   0  0  0  0  0  0
  -28.5922  -25.2202   22.3784 H   0  0  0  0  0  0
  -26.5419  -18.0011   20.0415 H   0  0  0  0  0  0
  -26.3625  -19.1281   21.3947 H   0  0  0  0  0  0
  -25.5910  -17.5908   21.4601 H   0  0  0  0  0  0
  -29.0295  -17.8749   23.4795 H   0  0  0  0  0  0
  -27.6766  -16.8472   23.8826 H   0  0  0  0  0  0
  -27.4012  -18.5620   23.6434 H   0  0  0  0  0  0
  -27.7875  -20.3550   20.2063 H   0  0  0  0  0  0
  -27.0533  -24.2053   19.9598 H   0  0  0  0  0  0
  -27.4118  -16.3901   21.7790 H   0  0  0  0  0  0
  -28.6147  -15.7321   21.2290 H   0  0  0  0  0  0
  -30.2901  -19.0119   20.1354 H   0  0  0  0  0  0
  1 25  1  0  0  0
  1 30  2  0  0  0
  1 87  1  0  0  0
  2  3  1  0  0  0
  2 25  1  0  0  0
  2 90  1  0  0  0
  2 91  1  0  0  0
  3  4  1  0  0  0
  3 92  1  0  0  0
  3 93  1  0  0  0
  4  5  1  0  0  0
  4 94  1  0  0  0
  4 95  1  0  0  0
  5  6  1  0  0  0
  5 26  1  0  0  0
  5 96  1  0  0  0
  6 25  1  0  0  0
  6 97  1  0  0  0
  6 98  1  0  0  0
  7  8  2  0  0  0
  7 26  1  0  0  0
  7 29  1  0  0  0
  8  9  1  0  0  0
  8 22  1  0  0  0
  9 10  1  0  0  0
  9 27  2  0  0  0
 10 11  2  0  0  0
 10 15  1  0  0  0
 11 12  1  0  0  0
 11 99  1  0  0  0
 12 13  2  0  0  0
 12100  1  0  0  0
 13 14  1  0  0  0
 13 31  1  0  0  0
 14 15  2  0  0  0
 14101  1  0  0  0
 15102  1  0  0  0
 16 17  2  0  0  0
 16 21  1  0  0  0
 16 31  1  0  0  0
 17 18  1  0  0  0
 17103  1  0  0  0
 18 19  2  0  0  0
 18104  1  0  0  0
 19 20  1  0  0  0
 19 24  1  0  0  0
 20 21  2  0  0  0
 20105  1  0  0  0
 21 23  1  0  0  0
 22 28  1  0  0  0
 22 32  2  0  0  0
 26 27  1  0  0  0
 28106  1  0  0  0
 28107  1  0  0  0
 29108  1  0  0  0
 29109  1  0  0  0
 33 34  1  0  0  0
 33 66  1  0  0  0
 33 70  2  0  0  0
 34 36  1  0  0  0
 34 59  1  0  0  0
 34110  1  0  0  0
 35 44  2  0  0  0
 35 45  1  0  0  0
 35 68  1  0  0  0
 36 56  1  0  0  0
 36111  1  0  0  0
 37 39  1  0  0  0
 37 47  1  0  0  0
 37 66  1  0  0  0
 37112  1  0  0  0
 38 43  2  0  0  0
 38 46  1  0  0  0
 38 47  1  0  0  0
 39 64  1  0  0  0
 39 67  2  0  0  0
 40 52  1  0  0  0
 40 53  2  0  0  0
 40 58  1  0  0  0
 41113  1  0  0  0
 41114  1  0  0  0
 41115  1  0  0  0
 41 48  1  0  0  0
 42 43  1  0  0  0
 42 66  1  0  0  0
 42116  1  0  0  0
 42117  1  0  0  0
 43 44  1  0  0  0
 44118  1  0  0  0
 45 46  2  0  0  0
 45119  1  0  0  0
 46120  1  0  0  0
 47121  1  0  0  0
 47122  1  0  0  0
 48 56  1  0  0  0
 48 65  1  0  0  0
 48123  1  0  0  0
 49 50  1  0  0  0
 49 53  1  0  0  0
 49 64  1  0  0  0
 49124  1  0  0  0
 50 51  1  0  0  0
 50125  1  0  0  0
 50126  1  0  0  0
 51 52  1  0  0  0
 51127  1  0  0  0
 51128  1  0  0  0
 52129  1  0  0  0
 52130  1  0  0  0
 53 54  1  0  0  0
 54 55  2  0  0  0
 54131  1  0  0  0
 55 57  1  0  0  0
 55132  1  0  0  0
 56 69  2  0  0  0
 57 58  2  0  0  0
 57133  1  0  0  0
 58134  1  0  0  0
 59 60  1  0  0  0
 59 61  1  0  0  0
 59 62  1  0  0  0
 60135  1  0  0  0
 60136  1  0  0  0
 60137  1  0  0  0
 61138  1  0  0  0
 61139  1  0  0  0
 61140  1  0  0  0
 62141  1  0  0  0
 62142  1  0  0  0
 62143  1  0  0  0
 63 65  1  0  0  0
 63144  1  0  0  0
 63145  1  0  0  0
 63146  1  0  0  0
 64147  1  0  0  0
 65148  1  0  0  0
 68 84  1  0  0  0
 71 72  2  0  0  0
 71 73  1  0  0  0
 71149  1  0  0  0
 72 74  1  0  0  0
 72150  1  0  0  0
 73 86  2  0  0  0
 73151  1  0  0  0
 74 75  2  0  0  0
 74 83  1  0  0  0
 75 86  1  0  0  0
 75 89  1  0  0  0
 76 77  2  0  0  0
 76 84  1  0  0  0
 76152  1  0  0  0
 77 79  1  0  0  0
 77 83  1  0  0  0
 78 85  1  0  0  0
 78 87  1  0  0  0
 78 88  2  0  0  0
 79153  1  0  0  0
 79154  1  0  0  0
 79155  1  0  0  0
 80156  1  0  0  0
 80157  1  0  0  0
 80158  1  0  0  0
 80 84  1  0  0  0
 81159  1  0  0  0
 81160  1  0  0  0
 81161  1  0  0  0
 81 85  1  0  0  0
 82 85  1  0  0  0
 82162  1  0  0  0
 82163  1  0  0  0
 82164  1  0  0  0
 83 88  1  0  0  0
 83165  1  0  0  0
 84166  1  0  0  0
 85167  1  0  0  0
 87168  1  0  0  0
 88169  1  0  0  0
M  CHG  1  88   1
M  ISO  4   1 100  68 101  84 101  87 100
M  END
> <chiral flag>
0

> <version>
0

> <s_m_source_file>
/data/baiqing/PycharmProjects/Reinvent-master-3.2/result/LINK_invent/BTK/process_docking_weight1_custom_product_contain_oxygen_bond_distance_aromatic_linkinvent_7_9_3/rearranged_h_0164.sdf

> <i_m_source_file_index>
52

> <r_mmod_Potential_Energy-OPLS-2005>
686.530578613281

> <r_mmod_Stretch_Energy-OPLS-2005>
382.585296630859

> <r_mmod_Bend_Energy-OPLS-2005>
526.5126953125

> <r_mmod_Torsional_Energy-OPLS-2005>
240.476852416992

> <r_mmod_Improper_Torsional_Energy-OPLS-2005>
5.84326028823853

> <r_mmod_Van_der_Waal_Energy-OPLS-2005>
142.60774230957

> <r_mmod_Electrostatic_Energy-OPLS-2005>
-439.652069091797

> <r_mmod_Solvation_Energy-OPLS-2005>
-431.272064208984

> <b_mmod_Minimization_Converged-OPLS-2005>
0

> <r_mmod_RMS_Derivative-OPLS-2005>
7.82848453521729

$$$$
52
                    3D
 Structure written by MMmdl.
174182  0  0  1  0            999 V2000
  -30.5926  -14.6283   20.4645 C   0  0  0  0  0  0
  -30.4514  -12.3597   19.4591 C   0  0  0  0  0  0
  -29.5054  -12.3988   18.2341 C   0  0  0  0  0  0
  -28.0163  -12.3218   18.6437 C   0  0  0  0  0  0
  -27.6529  -13.1932   19.8782 C   0  0  2  0  0  0
  -28.7042  -13.0256   20.9958 C   0  0  0  0  0  0
  -25.2562  -13.8103   20.5733 C   0  0  0  0  0  0
  -24.1791  -13.0420   20.9211 C   0  0  0  0  0  0
  -24.6305  -11.6865   20.8769 C   0  0  0  0  0  0
  -23.8957  -10.4265   21.0406 C   0  0  0  0  0  0
  -24.3515   -9.4184   21.9181 C   0  0  0  0  0  0
  -23.6224   -8.2212   22.0735 C   0  0  0  0  0  0
  -22.4223   -8.0228   21.3529 C   0  0  0  0  0  0
  -21.9842   -9.0201   20.4641 C   0  0  0  0  0  0
  -22.7129  -10.2094   20.3070 C   0  0  0  0  0  0
  -21.6828   -6.0677   22.5254 C   0  0  0  0  0  0
  -21.3993   -6.5583   23.8184 C   0  0  0  0  0  0
  -21.3675   -5.6751   24.9155 C   0  0  0  0  0  0
  -21.6079   -4.3012   24.7221 C   0  0  0  0  0  0
  -21.8838   -3.8099   23.4326 C   0  0  0  0  0  0
  -21.9189   -4.6910   22.3383 C   0  0  0  0  0  0
  -22.7818  -13.5251   21.1847 C   0  0  0  0  0  0
  -22.1669   -4.2085   21.0957 F   0  0  0  0  0  0
  -21.5657   -3.4512   25.7736 F   0  0  0  0  0  0
  -30.0129  -13.3863   20.4267 N   0  0  0  0  0  0
  -26.2973  -12.9241   20.3445 N   0  0  0  0  0  0
  -25.9229  -11.6420   20.5866 N   0  0  0  0  0  0
  -22.0415  -12.8280   22.0388 N   0  0  0  0  0  0
  -25.4389  -15.1815   20.4050 N   0  0  0  0  0  0
  -31.7533  -14.8148   20.0872 O   0  0  0  0  0  0
  -21.6597   -6.8809   21.4214 O   0  0  0  0  0  0
  -22.3544  -14.5587   20.6689 O   0  0  0  0  0  0
  -24.6178  -31.8677   23.2097 C   0  0  0  0  0  0
  -25.9095  -32.4791   23.8386 C   0  0  1  0  0  0
  -27.2230  -27.3669   20.1331 C   0  0  0  0  0  0
  -25.5966  -33.8596   24.2336 N   0  0  0  0  0  0
  -23.4084  -30.4864   21.5550 C   0  0  2  0  0  0
  -24.8543  -28.9485   20.1273 C   0  0  0  0  0  0
  -22.7438  -29.4639   22.5027 C   0  0  0  0  0  0
  -18.0297  -28.1294   22.8480 C   0  0  0  0  0  0
  -24.1488  -36.7248   23.2630 C   0  0  0  0  0  0
  -25.9431  -30.8105   21.3768 C   0  0  0  0  0  0
  -26.0191  -29.4374   20.7330 C   0  0  0  0  0  0
  -27.2041  -28.6548   20.7337 C   0  0  0  0  0  0
  -26.0427  -26.9285   19.4927 C   0  0  0  0  0  0
  -24.8659  -27.6967   19.4981 C   0  0  0  0  0  0
  -23.6191  -29.8203   20.1731 C   0  0  0  0  0  0
  -25.4122  -36.3093   24.0342 C   0  0  1  0  0  0
  -20.5883  -28.3631   23.1316 C   0  0  2  0  0  0
  -20.6826  -26.9356   22.5438 C   0  0  0  0  0  0
  -19.5829  -26.6324   21.5224 C   0  0  0  0  0  0
  -18.1987  -26.7838   22.1590 C   0  0  0  0  0  0
  -19.1534  -28.8781   23.2899 C   0  0  0  0  0  0
  -18.9428  -30.1372   23.8932 C   0  0  0  0  0  0
  -17.6435  -30.6508   24.0525 C   0  0  0  0  0  0
  -25.9064  -34.9456   23.5124 C   0  0  0  0  0  0
  -16.5348  -29.8989   23.6268 C   0  0  0  0  0  0
  -16.7296  -28.6403   23.0287 C   0  0  0  0  0  0
  -26.4531  -31.6566   25.0689 C   0  0  0  0  0  0
  -25.3783  -31.3661   26.1409 C   0  0  0  0  0  0
  -27.0368  -30.3018   24.6044 C   0  0  0  0  0  0
  -27.6122  -32.4259   25.7444 C   0  0  0  0  0  0
  -27.5590  -37.1789   24.8480 C   0  0  0  0  0  0
  -21.4158  -29.3022   22.3742 N   0  0  0  0  0  0
  -26.4305  -37.3788   23.9420 N   0  0  0  0  0  0
  -24.6757  -31.0681   22.1054 N   0  0  0  0  0  0
  -23.4208  -28.8201   23.3082 O   0  0  0  0  0  0
  -28.3836  -26.5975   20.0725 O   0  0  0  0  0  0
  -26.5582  -34.8908   22.4662 O   0  0  0  0  0  0
  -23.5363  -32.1502   23.7438 O   0  0  0  0  0  0
  -29.2879  -18.1359   20.8805 C   0  0  0  0  0  0
  -28.0044  -19.2078   19.0981 C   0  0  0  0  0  0
  -28.2485  -18.0709   18.2612 C   0  0  0  0  0  0
  -29.0343  -16.9822   18.7464 C   0  0  0  0  0  0
  -28.6143  -19.3008   20.3879 C   0  0  0  0  0  0
  -29.4572  -16.9359   20.1102 C   0  0  0  0  0  0
  -26.9475  -20.2026   18.7156 C   0  0  0  0  0  0
  -28.8508  -22.7190   20.0720 C   0  0  0  0  0  0
  -29.3144  -15.8315   17.7939 C   0  0  0  0  0  0
  -27.1258  -20.9959   17.4298 C   0  0  0  0  0  0
  -28.3246  -18.4600   15.6739 C   0  0  0  0  0  0
  -26.5313  -23.6818   20.6553 C   0  0  0  0  0  0
  -27.5392  -17.9256   16.8908 C   0  0  0  0  0  0
  -29.0437  -21.7334   21.2745 C   0  0  0  0  0  0
  -28.4926  -25.3216   20.8046 C   0  0  0  0  0  0
  -27.9366  -24.0210   20.0905 C   0  0  1  0  0  0
  -29.7624  -15.6684   20.7878 N   0  0  0  0  0  0
  -28.3422  -20.4091   21.2578 N   0  0  0  0  0  0
  -27.8664  -24.3671   18.6539 N   0  3  0  0  0  0
  -25.9632  -20.4397   19.4191 O   0  0  0  0  0  0
  -29.4239  -22.4158   19.0195 O   0  0  0  0  0  0
  -31.4867  -12.5089   19.1420 H   0  0  0  0  0  0
  -30.4292  -11.3731   19.9240 H   0  0  0  0  0  0
  -29.7382  -11.5650   17.5683 H   0  0  0  0  0  0
  -29.6975  -13.2759   17.6300 H   0  0  0  0  0  0
  -27.8108  -11.2744   18.8684 H   0  0  0  0  0  0
  -27.3757  -12.5783   17.7989 H   0  0  0  0  0  0
  -27.6730  -14.2323   19.5654 H   0  0  0  0  0  0
  -28.7206  -11.9922   21.3494 H   0  0  0  0  0  0
  -28.4541  -13.6316   21.8665 H   0  0  0  0  0  0
  -25.2647   -9.5681   22.4736 H   0  0  0  0  0  0
  -23.9948   -7.4607   22.7445 H   0  0  0  0  0  0
  -21.0789   -8.8695   19.8926 H   0  0  0  0  0  0
  -22.3581  -10.9619   19.6171 H   0  0  0  0  0  0
  -21.1966   -7.6087   23.9680 H   0  0  0  0  0  0
  -21.1502   -6.0457   25.9061 H   0  0  0  0  0  0
  -22.0614   -2.7552   23.2837 H   0  0  0  0  0  0
  -22.3970  -11.9913   22.4809 H   0  0  0  0  0  0
  -21.1045  -13.1373   22.2566 H   0  0  0  0  0  0
  -24.6878  -15.8505   20.5268 H   0  0  0  0  0  0
  -26.2919  -15.5991   20.0530 H   0  0  0  0  0  0
  -26.7137  -32.5515   23.1129 H   0  0  0  0  0  0
  -25.0254  -33.9766   25.0580 H   0  0  0  0  0  0
  -22.6960  -31.3021   21.4174 H   0  0  0  0  0  0
  -23.3783  -35.9556   23.3319 H   0  0  0  0  0  0
  -24.3564  -36.8817   22.2032 H   0  0  0  0  0  0
  -23.7191  -37.6438   23.6620 H   0  0  0  0  0  0
  -26.0586  -31.5694   20.6013 H   0  0  0  0  0  0
  -26.8268  -30.8667   21.9966 H   0  0  0  0  0  0
  -28.0998  -29.0293   21.2087 H   0  0  0  0  0  0
  -25.9911  -26.0004   18.9559 H   0  0  0  0  0  0
  -23.9787  -27.3240   19.0036 H   0  0  0  0  0  0
  -23.7299  -30.5937   19.4124 H   0  0  0  0  0  0
  -22.7439  -29.2407   19.8746 H   0  0  0  0  0  0
  -25.1294  -36.1965   25.0835 H   0  0  0  0  0  0
  -20.9969  -28.3164   24.1449 H   0  0  0  0  0  0
  -20.5751  -26.2246   23.3645 H   0  0  0  0  0  0
  -21.6698  -26.7391   22.1238 H   0  0  0  0  0  0
  -19.7042  -25.6245   21.1252 H   0  0  0  0  0  0
  -19.6792  -27.3097   20.6741 H   0  0  0  0  0  0
  -17.4304  -26.6611   21.3935 H   0  0  0  0  0  0
  -18.0331  -25.9925   22.8927 H   0  0  0  0  0  0
  -19.7909  -30.7174   24.2335 H   0  0  0  0  0  0
  -17.4966  -31.6211   24.5100 H   0  0  0  0  0  0
  -15.5349  -30.2880   23.7507 H   0  0  0  0  0  0
  -15.8716  -28.0693   22.6989 H   0  0  0  0  0  0
  -24.6003  -30.6956   25.7729 H   0  0  0  0  0  0
  -24.8921  -32.2801   26.4828 H   0  0  0  0  0  0
  -25.8116  -30.8857   27.0191 H   0  0  0  0  0  0
  -26.2924  -29.6741   24.1105 H   0  0  0  0  0  0
  -27.4187  -29.7240   25.4480 H   0  0  0  0  0  0
  -27.8744  -30.4337   23.9174 H   0  0  0  0  0  0
  -27.2811  -33.3597   26.2004 H   0  0  0  0  0  0
  -28.3953  -32.6736   25.0258 H   0  0  0  0  0  0
  -28.0782  -31.8370   26.5364 H   0  0  0  0  0  0
  -28.2621  -38.0074   24.7543 H   0  0  0  0  0  0
  -28.1059  -36.2597   24.6320 H   0  0  0  0  0  0
  -27.2271  -37.1447   25.8870 H   0  0  0  0  0  0
  -20.9289  -29.8724   21.6970 H   0  0  0  0  0  0
  -26.0177  -38.2850   24.1477 H   0  0  0  0  0  0
  -29.6008  -18.1289   21.9157 H   0  0  0  0  0  0
  -29.4573  -16.1683   16.7702 H   0  0  0  0  0  0
  -28.4815  -15.1336   17.7855 H   0  0  0  0  0  0
  -30.2478  -15.3266   18.0131 H   0  0  0  0  0  0
  -28.1715  -20.9919   17.1323 H   0  0  0  0  0  0
  -26.8226  -22.0288   17.5791 H   0  0  0  0  0  0
  -26.5129  -20.5788   16.6326 H   0  0  0  0  0  0
  -27.6905  -18.4784   14.7860 H   0  0  0  0  0  0
  -29.1905  -17.8476   15.4311 H   0  0  0  0  0  0
  -28.6937  -19.4722   15.8166 H   0  0  0  0  0  0
  -26.5848  -23.4148   21.7121 H   0  0  0  0  0  0
  -26.0649  -22.8481   20.1376 H   0  0  0  0  0  0
  -25.8281  -24.5136   20.5963 H   0  0  0  0  0  0
  -26.5475  -18.3763   16.9134 H   0  0  0  0  0  0
  -27.2859  -16.8837   16.6987 H   0  0  0  0  0  0
  -28.7416  -22.2639   22.1791 H   0  0  0  0  0  0
  -30.1150  -21.5614   21.3847 H   0  0  0  0  0  0
  -29.5556  -25.1865   21.0070 H   0  0  0  0  0  0
  -28.0438  -25.4380   21.7924 H   0  0  0  0  0  0
  -28.9809  -15.3375   21.3311 H   0  0  0  0  0  0
  -27.3392  -20.5671   21.3323 H   0  0  0  0  0  0
  -26.9943  -24.1235   18.2246 H   0  0  0  0  0  0
  -28.6027  -23.8237   18.2210 H   0  0  0  0  0  0
  -28.0741  -25.3458   18.5223 H   0  0  0  0  0  0
  1 25  1  0  0  0
  1 30  2  0  0  0
  1 87  1  0  0  0
  2  3  1  0  0  0
  2 25  1  0  0  0
  2 92  1  0  0  0
  2 93  1  0  0  0
  3  4  1  0  0  0
  3 94  1  0  0  0
  3 95  1  0  0  0
  4  5  1  0  0  0
  4 96  1  0  0  0
  4 97  1  0  0  0
  5  6  1  0  0  0
  5 26  1  0  0  0
  5 98  1  0  0  0
  6 25  1  0  0  0
  6 99  1  0  0  0
  6100  1  0  0  0
  7  8  2  0  0  0
  7 26  1  0  0  0
  7 29  1  0  0  0
  8  9  1  0  0  0
  8 22  1  0  0  0
  9 10  1  0  0  0
  9 27  2  0  0  0
 10 11  2  0  0  0
 10 15  1  0  0  0
 11 12  1  0  0  0
 11101  1  0  0  0
 12 13  2  0  0  0
 12102  1  0  0  0
 13 14  1  0  0  0
 13 31  1  0  0  0
 14 15  2  0  0  0
 14103  1  0  0  0
 15104  1  0  0  0
 16 17  2  0  0  0
 16 21  1  0  0  0
 16 31  1  0  0  0
 17 18  1  0  0  0
 17105  1  0  0  0
 18 19  2  0  0  0
 18106  1  0  0  0
 19 20  1  0  0  0
 19 24  1  0  0  0
 20 21  2  0  0  0
 20107  1  0  0  0
 21 23  1  0  0  0
 22 28  1  0  0  0
 22 32  2  0  0  0
 26 27  1  0  0  0
 28108  1  0  0  0
 28109  1  0  0  0
 29110  1  0  0  0
 29111  1  0  0  0
 33 34  1  0  0  0
 33 66  1  0  0  0
 33 70  2  0  0  0
 34 36  1  0  0  0
 34 59  1  0  0  0
 34112  1  0  0  0
 35 44  2  0  0  0
 35 45  1  0  0  0
 35 68  1  0  0  0
 36 56  1  0  0  0
 36113  1  0  0  0
 37 39  1  0  0  0
 37 47  1  0  0  0
 37 66  1  0  0  0
 37114  1  0  0  0
 38 43  2  0  0  0
 38 46  1  0  0  0
 38 47  1  0  0  0
 39 64  1  0  0  0
 39 67  2  0  0  0
 40 52  1  0  0  0
 40 53  2  0  0  0
 40 58  1  0  0  0
 41115  1  0  0  0
 41116  1  0  0  0
 41117  1  0  0  0
 41 48  1  0  0  0
 42 43  1  0  0  0
 42 66  1  0  0  0
 42118  1  0  0  0
 42119  1  0  0  0
 43 44  1  0  0  0
 44120  1  0  0  0
 45 46  2  0  0  0
 45121  1  0  0  0
 46122  1  0  0  0
 47123  1  0  0  0
 47124  1  0  0  0
 48 56  1  0  0  0
 48 65  1  0  0  0
 48125  1  0  0  0
 49 50  1  0  0  0
 49 53  1  0  0  0
 49 64  1  0  0  0
 49126  1  0  0  0
 50 51  1  0  0  0
 50127  1  0  0  0
 50128  1  0  0  0
 51 52  1  0  0  0
 51129  1  0  0  0
 51130  1  0  0  0
 52131  1  0  0  0
 52132  1  0  0  0
 53 54  1  0  0  0
 54 55  2  0  0  0
 54133  1  0  0  0
 55 57  1  0  0  0
 55134  1  0  0  0
 56 69  2  0  0  0
 57 58  2  0  0  0
 57135  1  0  0  0
 58136  1  0  0  0
 59 60  1  0  0  0
 59 61  1  0  0  0
 59 62  1  0  0  0
 60137  1  0  0  0
 60138  1  0  0  0
 60139  1  0  0  0
 61140  1  0  0  0
 61141  1  0  0  0
 61142  1  0  0  0
 62143  1  0  0  0
 62144  1  0  0  0
 62145  1  0  0  0
 63 65  1  0  0  0
 63146  1  0  0  0
 63147  1  0  0  0
 63148  1  0  0  0
 64149  1  0  0  0
 65150  1  0  0  0
 68 85  1  0  0  0
 71 75  2  0  0  0
 71 76  1  0  0  0
 71151  1  0  0  0
 72 73  2  0  0  0
 72 75  1  0  0  0
 72 77  1  0  0  0
 73 74  1  0  0  0
 73 83  1  0  0  0
 74 76  2  0  0  0
 74 79  1  0  0  0
 75 88  1  0  0  0
 76 87  1  0  0  0
 77 80  1  0  0  0
 77 90  2  0  0  0
 78 84  1  0  0  0
 78 91  2  0  0  0
 78 86  1  0  0  0
 79152  1  0  0  0
 79153  1  0  0  0
 79154  1  0  0  0
 80155  1  0  0  0
 80156  1  0  0  0
 80157  1  0  0  0
 81 83  1  0  0  0
 81158  1  0  0  0
 81159  1  0  0  0
 81160  1  0  0  0
 82161  1  0  0  0
 82162  1  0  0  0
 82163  1  0  0  0
 82 86  1  0  0  0
 83164  1  0  0  0
 83165  1  0  0  0
 84 88  1  0  0  0
 84166  1  0  0  0
 84167  1  0  0  0
 85 86  1  0  0  0
 85168  1  0  0  0
 85169  1  0  0  0
 86 89  1  0  0  0
 87170  1  0  0  0
 88171  1  0  0  0
 89172  1  0  0  0
 89173  1  0  0  0
 89174  1  0  0  0
M  CHG  1  89   1
M  ISO  4   1 100  68 101  85 101  87 100
M  END
> <chiral flag>
0

> <version>
0

> <s_m_source_file>
/data/baiqing/PycharmProjects/Reinvent-master-3.2/result/LINK_invent/BTK/process_docking_weight1_custom_product_contain_oxygen_bond_distance_aromatic_linkinvent_7_9_3/rearranged_h_0164.sdf

> <i_m_source_file_index>
53

> <r_mmod_Potential_Energy-OPLS-2005>
75.1084823608398

> <r_mmod_Stretch_Energy-OPLS-2005>
85.1279830932617

> <r_mmod_Bend_Energy-OPLS-2005>
173.175582885742

> <r_mmod_Torsional_Energy-OPLS-2005>
404.354614257812

> <r_mmod_Improper_Torsional_Energy-OPLS-2005>
15.5713787078857

> <r_mmod_Van_der_Waal_Energy-OPLS-2005>
171.832824707031

> <r_mmod_Electrostatic_Energy-OPLS-2005>
-341.968475341797

> <r_mmod_Solvation_Energy-OPLS-2005>
-471.060546875

> <b_mmod_Minimization_Converged-OPLS-2005>
0

> <r_mmod_RMS_Derivative-OPLS-2005>
4.8807806968689

$$$$
53
                    3D
 Structure written by MMmdl.
170178  0  0  1  0            999 V2000
  -30.7417  -14.4010   20.4830 C   0  0  0  0  0  0
  -30.4025  -12.2461   19.4189 C   0  0  0  0  0  0
  -29.4880  -12.4840   18.2005 C   0  0  0  0  0  0
  -28.0084  -12.3582   18.6122 C   0  0  0  0  0  0
  -27.6583  -13.2085   19.8638 C   0  0  2  0  0  0
  -28.7018  -13.0143   20.9901 C   0  0  0  0  0  0
  -25.2583  -13.8171   20.5667 C   0  0  0  0  0  0
  -24.1836  -13.0444   20.9164 C   0  0  0  0  0  0
  -24.6389  -11.6912   20.8720 C   0  0  0  0  0  0
  -23.9052  -10.4296   21.0390 C   0  0  0  0  0  0
  -24.3614   -9.4217   21.9170 C   0  0  0  0  0  0
  -23.6296   -8.2244   22.0753 C   0  0  0  0  0  0
  -22.4276   -8.0279   21.3543 C   0  0  0  0  0  0
  -21.9899   -9.0249   20.4651 C   0  0  0  0  0  0
  -22.7220  -10.2129   20.3045 C   0  0  0  0  0  0
  -21.6866   -6.0726   22.5280 C   0  0  0  0  0  0
  -21.4034   -6.5633   23.8211 C   0  0  0  0  0  0
  -21.3647   -5.6787   24.9175 C   0  0  0  0  0  0
  -21.6032   -4.3048   24.7233 C   0  0  0  0  0  0
  -21.8820   -3.8144   23.4356 C   0  0  0  0  0  0
  -21.9204   -4.6955   22.3409 C   0  0  0  0  0  0
  -22.7857  -13.5237   21.1838 C   0  0  0  0  0  0
  -22.1670   -4.2140   21.0982 F   0  0  0  0  0  0
  -21.5610   -3.4532   25.7745 F   0  0  0  0  0  0
  -30.0395  -13.2468   20.4275 N   0  0  0  0  0  0
  -26.3016  -12.9345   20.3330 N   0  0  0  0  0  0
  -25.9317  -11.6505   20.5761 N   0  0  0  0  0  0
  -22.0512  -12.8224   22.0398 N   0  0  0  0  0  0
  -25.4285  -15.1891   20.4058 N   0  0  0  0  0  0
  -31.9405  -14.4821   20.2079 O   0  0  0  0  0  0
  -21.6648   -6.8869   21.4241 O   0  0  0  0  0  0
  -22.3539  -14.5545   20.6697 O   0  0  0  0  0  0
  -24.6073  -31.8733   23.2139 C   0  0  0  0  0  0
  -25.9001  -32.4838   23.8413 C   0  0  1  0  0  0
  -27.2388  -27.4969   20.0898 C   0  0  0  0  0  0
  -25.5892  -33.8635   24.2355 N   0  0  0  0  0  0
  -23.3897  -30.4974   21.5539 C   0  0  2  0  0  0
  -24.8341  -28.9640   20.1207 C   0  0  0  0  0  0
  -22.7365  -29.4697   22.5034 C   0  0  0  0  0  0
  -18.0267  -28.1374   22.8492 C   0  0  0  0  0  0
  -24.1487  -36.7315   23.2635 C   0  0  0  0  0  0
  -25.9098  -30.8584   21.3539 C   0  0  0  0  0  0
  -25.9879  -29.4942   20.7101 C   0  0  0  0  0  0
  -27.1911  -28.7671   20.6912 C   0  0  0  0  0  0
  -26.0717  -26.9638   19.4962 C   0  0  0  0  0  0
  -24.8676  -27.6945   19.5154 C   0  0  0  0  0  0
  -23.5926  -29.8219   20.1698 C   0  0  0  0  0  0
  -25.4100  -36.3115   24.0348 C   0  0  1  0  0  0
  -20.5847  -28.3654   23.1333 C   0  0  2  0  0  0
  -20.6751  -26.9397   22.5419 C   0  0  0  0  0  0
  -19.5731  -26.6391   21.5205 C   0  0  0  0  0  0
  -18.1911  -26.7927   22.1617 C   0  0  0  0  0  0
  -19.1515  -28.8830   23.2912 C   0  0  0  0  0  0
  -18.9451  -30.1448   23.8915 C   0  0  0  0  0  0
  -17.6453  -30.6579   24.0574 C   0  0  0  0  0  0
  -25.9025  -34.9482   23.5143 C   0  0  0  0  0  0
  -16.5345  -29.9086   23.6323 C   0  0  0  0  0  0
  -16.7259  -28.6506   23.0331 C   0  0  0  0  0  0
  -26.4449  -31.6596   25.0717 C   0  0  0  0  0  0
  -25.3749  -31.3710   26.1502 C   0  0  0  0  0  0
  -27.0261  -30.3049   24.6038 C   0  0  0  0  0  0
  -27.6061  -32.4288   25.7449 C   0  0  0  0  0  0
  -27.5590  -37.1801   24.8458 C   0  0  0  0  0  0
  -21.4099  -29.3034   22.3759 N   0  0  0  0  0  0
  -26.4282  -37.3801   23.9423 N   0  0  0  0  0  0
  -24.6535  -31.0898   22.1001 N   0  0  0  0  0  0
  -23.4180  -28.8238   23.3042 O   0  0  0  0  0  0
  -28.4571  -26.8737   20.0494 O   0  0  0  0  0  0
  -26.5581  -34.8931   22.4701 O   0  0  0  0  0  0
  -23.5289  -32.1463   23.7583 O   0  0  0  0  0  0
  -30.8636  -16.6309   18.5240 C   0  0  0  0  0  0
  -31.1183  -17.9369   18.0195 C   0  0  0  0  0  0
  -30.2686  -16.5958   19.7643 C   0  0  0  0  0  0
  -30.6424  -18.9143   18.8616 C   0  0  0  0  0  0
  -29.6789  -24.9093   19.4683 C   0  0  0  0  0  0
  -30.2240  -21.2718   19.2877 C   0  0  0  0  0  0
  -29.6285  -18.5929   15.4331 C   0  0  0  0  0  0
  -33.1897  -17.4774   16.6536 C   0  0  0  0  0  0
  -30.5380  -22.7902   17.2761 C   0  0  0  0  0  0
  -32.1300  -22.9100   19.2747 C   0  0  0  0  0  0
  -28.5080  -25.4755   20.2654 C   0  0  0  0  0  0
  -30.9617  -17.8315   15.4907 C   0  0  0  0  0  0
  -31.8317  -18.1950   16.7097 C   0  0  1  0  0  0
  -30.6756  -22.6674   18.8136 C   0  0  0  0  0  0
  -30.7726  -20.2421   18.6372 N   0  0  0  0  0  0
  -29.9946  -15.5099   20.5340 N   0  0  0  0  0  0
  -29.7602  -23.5818   19.4777 N   0  0  0  0  0  0
  -30.4654  -25.6396   18.8587 O   0  0  0  0  0  0
  -29.3869  -21.1602   20.1945 O   0  0  0  0  0  0
  -29.8817  -18.2037   20.2788 S   0  0  0  0  0  0
  -31.4508  -12.3033   19.1200 H   0  0  0  0  0  0
  -30.2589  -11.2426   19.8213 H   0  0  0  0  0  0
  -29.7192  -11.7723   17.4071 H   0  0  0  0  0  0
  -29.6730  -13.4754   17.7820 H   0  0  0  0  0  0
  -27.8127  -11.3042   18.8151 H   0  0  0  0  0  0
  -27.3601  -12.6322   17.7781 H   0  0  0  0  0  0
  -27.6926  -14.2512   19.5471 H   0  0  0  0  0  0
  -28.6492  -12.0013   21.3910 H   0  0  0  0  0  0
  -28.4996  -13.6829   21.8288 H   0  0  0  0  0  0
  -25.2764   -9.5710   22.4734 H   0  0  0  0  0  0
  -24.0021   -7.4646   22.7476 H   0  0  0  0  0  0
  -21.0820   -8.8757   19.8971 H   0  0  0  0  0  0
  -22.3665  -10.9658   19.6150 H   0  0  0  0  0  0
  -21.2041   -7.6143   23.9716 H   0  0  0  0  0  0
  -21.1451   -6.0515   25.9071 H   0  0  0  0  0  0
  -22.0610   -2.7608   23.2864 H   0  0  0  0  0  0
  -22.4121  -11.9863   22.4751 H   0  0  0  0  0  0
  -21.1142  -13.1265   22.2633 H   0  0  0  0  0  0
  -24.6571  -15.8416   20.4948 H   0  0  0  0  0  0
  -26.2780  -15.6291   20.0759 H   0  0  0  0  0  0
  -26.7081  -32.5584   23.1196 H   0  0  0  0  0  0
  -25.0096  -33.9802   25.0535 H   0  0  0  0  0  0
  -22.6754  -31.3118   21.4149 H   0  0  0  0  0  0
  -23.3752  -35.9642   23.3276 H   0  0  0  0  0  0
  -24.3602  -36.8941   22.2056 H   0  0  0  0  0  0
  -23.7221  -37.6512   23.6649 H   0  0  0  0  0  0
  -26.0121  -31.6225   20.5820 H   0  0  0  0  0  0
  -26.8022  -30.9181   21.9642 H   0  0  0  0  0  0
  -28.0869  -29.1839   21.1298 H   0  0  0  0  0  0
  -26.0821  -26.0125   18.9855 H   0  0  0  0  0  0
  -23.9813  -27.2838   19.0513 H   0  0  0  0  0  0
  -23.6908  -30.5897   19.4016 H   0  0  0  0  0  0
  -22.7188  -29.2323   19.8849 H   0  0  0  0  0  0
  -25.1262  -36.1986   25.0837 H   0  0  0  0  0  0
  -20.9951  -28.3214   24.1450 H   0  0  0  0  0  0
  -20.5627  -26.2270   23.3600 H   0  0  0  0  0  0
  -21.6631  -26.7436   22.1229 H   0  0  0  0  0  0
  -19.6884  -25.6305   21.1225 H   0  0  0  0  0  0
  -19.6656  -27.3209   20.6739 H   0  0  0  0  0  0
  -17.4181  -26.6689   21.4016 H   0  0  0  0  0  0
  -18.0298  -26.0057   22.9001 H   0  0  0  0  0  0
  -19.7933  -30.7257   24.2278 H   0  0  0  0  0  0
  -17.5015  -31.6257   24.5184 H   0  0  0  0  0  0
  -15.5346  -30.2990   23.7636 H   0  0  0  0  0  0
  -15.8661  -28.0835   22.7022 H   0  0  0  0  0  0
  -24.5869  -30.7106   25.7867 H   0  0  0  0  0  0
  -24.9001  -32.2880   26.5009 H   0  0  0  0  0  0
  -25.8128  -30.8838   27.0223 H   0  0  0  0  0  0
  -26.2781  -29.6814   24.1129 H   0  0  0  0  0  0
  -27.4109  -29.7275   25.4453 H   0  0  0  0  0  0
  -27.8574  -30.4392   23.9113 H   0  0  0  0  0  0
  -27.2735  -33.3606   26.2036 H   0  0  0  0  0  0
  -28.3852  -32.6816   25.0244 H   0  0  0  0  0  0
  -28.0736  -31.8394   26.5346 H   0  0  0  0  0  0
  -28.2587  -38.0121   24.7554 H   0  0  0  0  0  0
  -28.1102  -36.2664   24.6196 H   0  0  0  0  0  0
  -27.2335  -37.1369   25.8866 H   0  0  0  0  0  0
  -20.9253  -29.8780   21.7003 H   0  0  0  0  0  0
  -26.0174  -38.2878   24.1433 H   0  0  0  0  0  0
  -31.1725  -15.7561   17.9686 H   0  0  0  0  0  0
  -29.0690  -18.3254   14.5361 H   0  0  0  0  0  0
  -29.7895  -19.6713   15.4128 H   0  0  0  0  0  0
  -28.9948  -18.3671   16.2914 H   0  0  0  0  0  0
  -33.8326  -17.7888   17.4784 H   0  0  0  0  0  0
  -33.7165  -17.7089   15.7268 H   0  0  0  0  0  0
  -33.0809  -16.3936   16.7062 H   0  0  0  0  0  0
  -31.1930  -22.0944   16.7510 H   0  0  0  0  0  0
  -30.8035  -23.7872   16.9263 H   0  0  0  0  0  0
  -29.5173  -22.5877   16.9480 H   0  0  0  0  0  0
  -32.8175  -22.2028   18.8084 H   0  0  0  0  0  0
  -32.2343  -22.8012   20.3552 H   0  0  0  0  0  0
  -32.4795  -23.9070   19.0099 H   0  0  0  0  0  0
  -28.6732  -25.2914   21.3276 H   0  0  0  0  0  0
  -27.6038  -24.9368   19.9871 H   0  0  0  0  0  0
  -31.5201  -18.0389   14.5766 H   0  0  0  0  0  0
  -30.7616  -16.7593   15.4863 H   0  0  0  0  0  0
  -32.0622  -19.2566   16.6206 H   0  0  0  0  0  0
  -31.3758  -20.5065   17.8729 H   0  0  0  0  0  0
  -29.0731  -15.4467   20.9386 H   0  0  0  0  0  0
  -29.0794  -23.0814   20.0408 H   0  0  0  0  0  0
  1 25  1  0  0  0
  1 30  2  0  0  0
  1 86  1  0  0  0
  2  3  1  0  0  0
  2 25  1  0  0  0
  2 91  1  0  0  0
  2 92  1  0  0  0
  3  4  1  0  0  0
  3 93  1  0  0  0
  3 94  1  0  0  0
  4  5  1  0  0  0
  4 95  1  0  0  0
  4 96  1  0  0  0
  5  6  1  0  0  0
  5 26  1  0  0  0
  5 97  1  0  0  0
  6 25  1  0  0  0
  6 98  1  0  0  0
  6 99  1  0  0  0
  7  8  2  0  0  0
  7 26  1  0  0  0
  7 29  1  0  0  0
  8  9  1  0  0  0
  8 22  1  0  0  0
  9 10  1  0  0  0
  9 27  2  0  0  0
 10 11  2  0  0  0
 10 15  1  0  0  0
 11 12  1  0  0  0
 11100  1  0  0  0
 12 13  2  0  0  0
 12101  1  0  0  0
 13 14  1  0  0  0
 13 31  1  0  0  0
 14 15  2  0  0  0
 14102  1  0  0  0
 15103  1  0  0  0
 16 17  2  0  0  0
 16 21  1  0  0  0
 16 31  1  0  0  0
 17 18  1  0  0  0
 17104  1  0  0  0
 18 19  2  0  0  0
 18105  1  0  0  0
 19 20  1  0  0  0
 19 24  1  0  0  0
 20 21  2  0  0  0
 20106  1  0  0  0
 21 23  1  0  0  0
 22 28  1  0  0  0
 22 32  2  0  0  0
 26 27  1  0  0  0
 28107  1  0  0  0
 28108  1  0  0  0
 29109  1  0  0  0
 29110  1  0  0  0
 33 34  1  0  0  0
 33 66  1  0  0  0
 33 70  2  0  0  0
 34 36  1  0  0  0
 34 59  1  0  0  0
 34111  1  0  0  0
 35 44  2  0  0  0
 35 45  1  0  0  0
 35 68  1  0  0  0
 36 56  1  0  0  0
 36112  1  0  0  0
 37 39  1  0  0  0
 37 47  1  0  0  0
 37 66  1  0  0  0
 37113  1  0  0  0
 38 43  2  0  0  0
 38 46  1  0  0  0
 38 47  1  0  0  0
 39 64  1  0  0  0
 39 67  2  0  0  0
 40 52  1  0  0  0
 40 53  2  0  0  0
 40 58  1  0  0  0
 41114  1  0  0  0
 41115  1  0  0  0
 41116  1  0  0  0
 41 48  1  0  0  0
 42 43  1  0  0  0
 42 66  1  0  0  0
 42117  1  0  0  0
 42118  1  0  0  0
 43 44  1  0  0  0
 44119  1  0  0  0
 45 46  2  0  0  0
 45120  1  0  0  0
 46121  1  0  0  0
 47122  1  0  0  0
 47123  1  0  0  0
 48 56  1  0  0  0
 48 65  1  0  0  0
 48124  1  0  0  0
 49 50  1  0  0  0
 49 53  1  0  0  0
 49 64  1  0  0  0
 49125  1  0  0  0
 50 51  1  0  0  0
 50126  1  0  0  0
 50127  1  0  0  0
 51 52  1  0  0  0
 51128  1  0  0  0
 51129  1  0  0  0
 52130  1  0  0  0
 52131  1  0  0  0
 53 54  1  0  0  0
 54 55  2  0  0  0
 54132  1  0  0  0
 55 57  1  0  0  0
 55133  1  0  0  0
 56 69  2  0  0  0
 57 58  2  0  0  0
 57134  1  0  0  0
 58135  1  0  0  0
 59 60  1  0  0  0
 59 61  1  0  0  0
 59 62  1  0  0  0
 60136  1  0  0  0
 60137  1  0  0  0
 60138  1  0  0  0
 61139  1  0  0  0
 61140  1  0  0  0
 61141  1  0  0  0
 62142  1  0  0  0
 62143  1  0  0  0
 62144  1  0  0  0
 63 65  1  0  0  0
 63145  1  0  0  0
 63146  1  0  0  0
 63147  1  0  0  0
 64148  1  0  0  0
 65149  1  0  0  0
 68 81  1  0  0  0
 71 72  1  0  0  0
 71 73  2  0  0  0
 71150  1  0  0  0
 72 74  2  0  0  0
 72 83  1  0  0  0
 73 86  1  0  0  0
 73 90  1  0  0  0
 74 85  1  0  0  0
 74 90  1  0  0  0
 75 81  1  0  0  0
 75 87  1  0  0  0
 75 88  2  0  0  0
 76 84  1  0  0  0
 76 85  1  0  0  0
 76 89  2  0  0  0
 77 82  1  0  0  0
 77151  1  0  0  0
 77152  1  0  0  0
 77153  1  0  0  0
 78154  1  0  0  0
 78155  1  0  0  0
 78156  1  0  0  0
 78 83  1  0  0  0
 79157  1  0  0  0
 79158  1  0  0  0
 79159  1  0  0  0
 79 84  1  0  0  0
 80 84  1  0  0  0
 80160  1  0  0  0
 80161  1  0  0  0
 80162  1  0  0  0
 81163  1  0  0  0
 81164  1  0  0  0
 82 83  1  0  0  0
 82165  1  0  0  0
 82166  1  0  0  0
 83167  1  0  0  0
 84 87  1  0  0  0
 85168  1  0  0  0
 86169  1  0  0  0
 87170  1  0  0  0
M  ISO  4   1 100  68 101  81 101  86 100
M  END
> <chiral flag>
0

> <version>
0

> <s_m_source_file>
/data/baiqing/PycharmProjects/Reinvent-master-3.2/result/LINK_invent/BTK/process_docking_weight1_custom_product_contain_oxygen_bond_distance_aromatic_linkinvent_7_9_3/rearranged_h_0164.sdf

> <i_m_source_file_index>
54

> <r_mmod_Potential_Energy-OPLS-2005>
-128.806701660156

> <r_mmod_Stretch_Energy-OPLS-2005>
30.5228633880615

> <r_mmod_Bend_Energy-OPLS-2005>
118.922508239746

> <r_mmod_Torsional_Energy-OPLS-2005>
264.366363525391

> <r_mmod_Improper_Torsional_Energy-OPLS-2005>
9.3239574432373

> <r_mmod_Van_der_Waal_Energy-OPLS-2005>
154.572463989258

> <r_mmod_Electrostatic_Energy-OPLS-2005>
-483.968933105469

> <r_mmod_Solvation_Energy-OPLS-2005>
-243.502334594727

> <b_mmod_Minimization_Converged-OPLS-2005>
0

> <r_mmod_RMS_Derivative-OPLS-2005>
1.86854565143585

$$$$
54
                    3D
 Structure written by MMmdl.
167176  0  0  1  0            999 V2000
  -30.5991  -14.4878   20.5847 C   0  0  0  0  0  0
  -30.4540  -12.3227   19.3984 C   0  0  0  0  0  0
  -29.4992  -12.4842   18.1927 C   0  0  0  0  0  0
  -28.0204  -12.3292   18.6106 C   0  0  0  0  0  0
  -27.6580  -13.1699   19.8642 C   0  0  2  0  0  0
  -28.6981  -12.9039   20.9756 C   0  0  0  0  0  0
  -25.2580  -13.8058   20.5608 C   0  0  0  0  0  0
  -24.1828  -13.0385   20.9214 C   0  0  0  0  0  0
  -24.6364  -11.6839   20.8787 C   0  0  0  0  0  0
  -23.9020  -10.4263   21.0461 C   0  0  0  0  0  0
  -24.3594   -9.4183   21.9224 C   0  0  0  0  0  0
  -23.6274   -8.2218   22.0764 C   0  0  0  0  0  0
  -22.4259   -8.0276   21.3557 C   0  0  0  0  0  0
  -21.9895   -9.0254   20.4662 C   0  0  0  0  0  0
  -22.7214  -10.2130   20.3094 C   0  0  0  0  0  0
  -21.6834   -6.0732   22.5291 C   0  0  0  0  0  0
  -21.3996   -6.5628   23.8219 C   0  0  0  0  0  0
  -21.3638   -5.6783   24.9181 C   0  0  0  0  0  0
  -21.6042   -4.3044   24.7229 C   0  0  0  0  0  0
  -21.8818   -3.8148   23.4347 C   0  0  0  0  0  0
  -21.9190   -4.6960   22.3404 C   0  0  0  0  0  0
  -22.7865  -13.5227   21.1878 C   0  0  0  0  0  0
  -22.1651   -4.2148   21.0981 F   0  0  0  0  0  0
  -21.5644   -3.4533   25.7740 F   0  0  0  0  0  0
  -30.0252  -13.2647   20.4374 N   0  0  0  0  0  0
  -26.2962  -12.9150   20.3262 N   0  0  0  0  0  0
  -25.9258  -11.6356   20.5743 N   0  0  0  0  0  0
  -22.0486  -12.8263   22.0446 N   0  0  0  0  0  0
  -25.4346  -15.1740   20.3812 N   0  0  0  0  0  0
  -31.7514  -14.7604   20.2296 O   0  0  0  0  0  0
  -21.6606   -6.8881   21.4257 O   0  0  0  0  0  0
  -22.3570  -14.5546   20.6707 O   0  0  0  0  0  0
  -24.6082  -31.8689   23.2134 C   0  0  0  0  0  0
  -25.8999  -32.4834   23.8404 C   0  0  1  0  0  0
  -27.2455  -27.4649   20.1308 C   0  0  0  0  0  0
  -25.5853  -33.8633   24.2334 N   0  0  0  0  0  0
  -23.3963  -30.4887   21.5537 C   0  0  2  0  0  0
  -24.8501  -28.9568   20.1210 C   0  0  0  0  0  0
  -22.7355  -29.4658   22.5010 C   0  0  0  0  0  0
  -18.0246  -28.1360   22.8478 C   0  0  0  0  0  0
  -24.1497  -36.7328   23.2637 C   0  0  0  0  0  0
  -25.9201  -30.8468   21.3652 C   0  0  0  0  0  0
  -26.0046  -29.4804   20.7219 C   0  0  0  0  0  0
  -27.2031  -28.7400   20.7309 C   0  0  0  0  0  0
  -26.0855  -26.9469   19.5182 C   0  0  0  0  0  0
  -24.8849  -27.6858   19.5158 C   0  0  0  0  0  0
  -23.6067  -29.8156   20.1684 C   0  0  0  0  0  0
  -25.4125  -36.3141   24.0342 C   0  0  1  0  0  0
  -20.5825  -28.3654   23.1335 C   0  0  2  0  0  0
  -20.6756  -26.9405   22.5422 C   0  0  0  0  0  0
  -19.5760  -26.6385   21.5195 C   0  0  0  0  0  0
  -18.1927  -26.7893   22.1601 C   0  0  0  0  0  0
  -19.1491  -28.8825   23.2895 C   0  0  0  0  0  0
  -18.9423  -30.1424   23.8910 C   0  0  0  0  0  0
  -17.6437  -30.6581   24.0571 C   0  0  0  0  0  0
  -25.9019  -34.9491   23.5159 C   0  0  0  0  0  0
  -16.5332  -29.9082   23.6327 C   0  0  0  0  0  0
  -16.7233  -28.6492   23.0350 C   0  0  0  0  0  0
  -26.4445  -31.6564   25.0700 C   0  0  0  0  0  0
  -25.3724  -31.3649   26.1461 C   0  0  0  0  0  0
  -27.0276  -30.3006   24.6019 C   0  0  0  0  0  0
  -27.6043  -32.4260   25.7448 C   0  0  0  0  0  0
  -27.5589  -37.1824   24.8459 C   0  0  0  0  0  0
  -21.4085  -29.3014   22.3726 N   0  0  0  0  0  0
  -26.4327  -37.3808   23.9373 N   0  0  0  0  0  0
  -24.6599  -31.0792   22.1037 N   0  0  0  0  0  0
  -23.4123  -28.8209   23.3086 O   0  0  0  0  0  0
  -28.3935  -26.7162   20.1459 O   0  0  0  0  0  0
  -26.5601  -34.8929   22.4723 O   0  0  0  0  0  0
  -23.5293  -32.1426   23.7547 O   0  0  0  0  0  0
  -30.6989  -17.3152   22.1250 C   0  0  0  0  0  0
  -28.4802  -17.4915   21.1171 C   0  0  0  0  0  0
  -30.4961  -18.5740   22.7409 C   0  0  0  0  0  0
  -29.2999  -19.2926   22.5323 C   0  0  0  0  0  0
  -29.6676  -16.7515   21.3388 C   0  0  0  0  0  0
  -28.3008  -18.7588   21.7009 C   0  0  0  0  0  0
  -30.2320  -22.4633   22.1553 C   0  0  0  0  0  0
  -31.5164  -19.1881   23.6758 C   0  0  0  0  0  0
  -31.6163  -20.7013   23.4122 C   0  0  0  0  0  0
  -30.2367  -21.4387   23.3139 C   0  0  2  0  0  0
  -30.9954  -25.3831   20.9057 C   0  0  0  0  0  0
  -29.5838  -23.8527   22.3724 C   0  0  0  0  0  0
  -28.6124  -26.0288   21.3895 C   0  0  0  0  0  0
  -29.5680  -24.8341   21.1437 C   0  0  1  0  0  0
  -29.0943  -20.5265   23.1674 N   0  0  0  0  0  0
  -29.6583  -15.4086   20.8787 N   0  0  0  0  0  0
  -29.0905  -24.1369   19.9218 N   0  3  0  0  0  0
  -30.6410  -22.1534   21.0333 O   0  0  0  0  0  0
  -27.1543  -19.4539   21.4875 F   0  0  0  0  0  0
  -31.4877  -12.4990   19.0971 H   0  0  0  0  0  0
  -30.4247  -11.3042   19.7849 H   0  0  0  0  0  0
  -29.7451  -11.7540   17.4199 H   0  0  0  0  0  0
  -29.6470  -13.4632   17.7367 H   0  0  0  0  0  0
  -27.8528  -11.2701   18.8147 H   0  0  0  0  0  0
  -27.3590  -12.5811   17.7815 H   0  0  0  0  0  0
  -27.7043  -14.2157   19.5643 H   0  0  0  0  0  0
  -28.6887  -11.8475   21.2461 H   0  0  0  0  0  0
  -28.4483  -13.4334   21.8977 H   0  0  0  0  0  0
  -25.2750   -9.5600   22.4786 H   0  0  0  0  0  0
  -23.9972   -7.4567   22.7437 H   0  0  0  0  0  0
  -21.0848   -8.8755   19.8950 H   0  0  0  0  0  0
  -22.3709  -10.9659   19.6175 H   0  0  0  0  0  0
  -21.1987   -7.6139   23.9711 H   0  0  0  0  0  0
  -21.1449   -6.0523   25.9076 H   0  0  0  0  0  0
  -22.0631   -2.7615   23.2840 H   0  0  0  0  0  0
  -22.4061  -11.9898   22.4819 H   0  0  0  0  0  0
  -21.1107  -13.1282   22.2627 H   0  0  0  0  0  0
  -24.6552  -15.8192   20.4536 H   0  0  0  0  0  0
  -26.2287  -15.5710   19.8981 H   0  0  0  0  0  0
  -26.7072  -32.5545   23.1184 H   0  0  0  0  0  0
  -24.9978  -33.9835   25.0450 H   0  0  0  0  0  0
  -22.6829  -31.3035   21.4115 H   0  0  0  0  0  0
  -23.3743  -35.9664   23.3303 H   0  0  0  0  0  0
  -24.3603  -36.8931   22.2047 H   0  0  0  0  0  0
  -23.7272  -37.6549   23.6638 H   0  0  0  0  0  0
  -26.0246  -31.6143   20.5961 H   0  0  0  0  0  0
  -26.8105  -30.9030   21.9790 H   0  0  0  0  0  0
  -28.0921  -29.1404   21.1984 H   0  0  0  0  0  0
  -26.1074  -25.9685   19.0597 H   0  0  0  0  0  0
  -24.0015  -27.2732   19.0489 H   0  0  0  0  0  0
  -23.7071  -30.5890   19.4046 H   0  0  0  0  0  0
  -22.7345  -29.2315   19.8766 H   0  0  0  0  0  0
  -25.1304  -36.2013   25.0842 H   0  0  0  0  0  0
  -20.9908  -28.3241   24.1455 H   0  0  0  0  0  0
  -20.5655  -26.2274   23.3602 H   0  0  0  0  0  0
  -21.6639  -26.7475   22.1235 H   0  0  0  0  0  0
  -19.6963  -25.6297   21.1221 H   0  0  0  0  0  0
  -19.6707  -27.3197   20.6726 H   0  0  0  0  0  0
  -17.4198  -26.6603   21.4004 H   0  0  0  0  0  0
  -18.0364  -26.0021   22.8995 H   0  0  0  0  0  0
  -19.7920  -30.7217   24.2279 H   0  0  0  0  0  0
  -17.5022  -31.6264   24.5162 H   0  0  0  0  0  0
  -15.5343  -30.3030   23.7630 H   0  0  0  0  0  0
  -15.8616  -28.0839   22.7076 H   0  0  0  0  0  0
  -24.5896  -30.7001   25.7769 H   0  0  0  0  0  0
  -24.8926  -32.2812   26.4908 H   0  0  0  0  0  0
  -25.8098  -30.8799   27.0195 H   0  0  0  0  0  0
  -26.2817  -29.6779   24.1068 H   0  0  0  0  0  0
  -27.4061  -29.7217   25.4443 H   0  0  0  0  0  0
  -27.8633  -30.4315   23.9150 H   0  0  0  0  0  0
  -27.2657  -33.3523   26.2087 H   0  0  0  0  0  0
  -28.3814  -32.6857   25.0248 H   0  0  0  0  0  0
  -28.0735  -31.8328   26.5307 H   0  0  0  0  0  0
  -28.2622  -38.0109   24.7495 H   0  0  0  0  0  0
  -28.1089  -36.2636   24.6314 H   0  0  0  0  0  0
  -27.2295  -37.1503   25.8869 H   0  0  0  0  0  0
  -20.9234  -29.8720   21.6934 H   0  0  0  0  0  0
  -26.0209  -38.2877   24.1369 H   0  0  0  0  0  0
  -31.6079  -16.7663   22.3165 H   0  0  0  0  0  0
  -27.6781  -17.0866   20.5201 H   0  0  0  0  0  0
  -32.4831  -18.7018   23.5645 H   0  0  0  0  0  0
  -31.1861  -19.0120   24.7006 H   0  0  0  0  0  0
  -32.1692  -20.8016   22.4770 H   0  0  0  0  0  0
  -32.2443  -21.1787   24.1656 H   0  0  0  0  0  0
  -30.0768  -21.9766   24.2497 H   0  0  0  0  0  0
  -31.0345  -26.0417   20.0369 H   0  0  0  0  0  0
  -31.7255  -24.5878   20.7513 H   0  0  0  0  0  0
  -31.3455  -25.9655   21.7600 H   0  0  0  0  0  0
  -30.0901  -24.3404   23.2077 H   0  0  0  0  0  0
  -28.5642  -23.6662   22.7062 H   0  0  0  0  0  0
  -29.0267  -26.7082   22.1379 H   0  0  0  0  0  0
  -27.6654  -25.6750   21.8025 H   0  0  0  0  0  0
  -28.2002  -20.9517   22.9400 H   0  0  0  0  0  0
  -28.7405  -14.9919   20.8500 H   0  0  0  0  0  0
  -29.6180  -23.2849   19.7964 H   0  0  0  0  0  0
  -29.2053  -24.7231   19.1114 H   0  0  0  0  0  0
  -28.1141  -23.8988   19.9915 H   0  0  0  0  0  0
  1 25  1  0  0  0
  1 30  2  0  0  0
  1 86  1  0  0  0
  2  3  1  0  0  0
  2 25  1  0  0  0
  2 90  1  0  0  0
  2 91  1  0  0  0
  3  4  1  0  0  0
  3 92  1  0  0  0
  3 93  1  0  0  0
  4  5  1  0  0  0
  4 94  1  0  0  0
  4 95  1  0  0  0
  5  6  1  0  0  0
  5 26  1  0  0  0
  5 96  1  0  0  0
  6 25  1  0  0  0
  6 97  1  0  0  0
  6 98  1  0  0  0
  7  8  2  0  0  0
  7 26  1  0  0  0
  7 29  1  0  0  0
  8  9  1  0  0  0
  8 22  1  0  0  0
  9 10  1  0  0  0
  9 27  2  0  0  0
 10 11  2  0  0  0
 10 15  1  0  0  0
 11 12  1  0  0  0
 11 99  1  0  0  0
 12 13  2  0  0  0
 12100  1  0  0  0
 13 14  1  0  0  0
 13 31  1  0  0  0
 14 15  2  0  0  0
 14101  1  0  0  0
 15102  1  0  0  0
 16 17  2  0  0  0
 16 21  1  0  0  0
 16 31  1  0  0  0
 17 18  1  0  0  0
 17103  1  0  0  0
 18 19  2  0  0  0
 18104  1  0  0  0
 19 20  1  0  0  0
 19 24  1  0  0  0
 20 21  2  0  0  0
 20105  1  0  0  0
 21 23  1  0  0  0
 22 28  1  0  0  0
 22 32  2  0  0  0
 26 27  1  0  0  0
 28106  1  0  0  0
 28107  1  0  0  0
 29108  1  0  0  0
 29109  1  0  0  0
 33 34  1  0  0  0
 33 66  1  0  0  0
 33 70  2  0  0  0
 34 36  1  0  0  0
 34 59  1  0  0  0
 34110  1  0  0  0
 35 44  2  0  0  0
 35 45  1  0  0  0
 35 68  1  0  0  0
 36 56  1  0  0  0
 36111  1  0  0  0
 37 39  1  0  0  0
 37 47  1  0  0  0
 37 66  1  0  0  0
 37112  1  0  0  0
 38 43  2  0  0  0
 38 46  1  0  0  0
 38 47  1  0  0  0
 39 64  1  0  0  0
 39 67  2  0  0  0
 40 52  1  0  0  0
 40 53  2  0  0  0
 40 58  1  0  0  0
 41113  1  0  0  0
 41114  1  0  0  0
 41115  1  0  0  0
 41 48  1  0  0  0
 42 43  1  0  0  0
 42 66  1  0  0  0
 42116  1  0  0  0
 42117  1  0  0  0
 43 44  1  0  0  0
 44118  1  0  0  0
 45 46  2  0  0  0
 45119  1  0  0  0
 46120  1  0  0  0
 47121  1  0  0  0
 47122  1  0  0  0
 48 56  1  0  0  0
 48 65  1  0  0  0
 48123  1  0  0  0
 49 50  1  0  0  0
 49 53  1  0  0  0
 49 64  1  0  0  0
 49124  1  0  0  0
 50 51  1  0  0  0
 50125  1  0  0  0
 50126  1  0  0  0
 51 52  1  0  0  0
 51127  1  0  0  0
 51128  1  0  0  0
 52129  1  0  0  0
 52130  1  0  0  0
 53 54  1  0  0  0
 54 55  2  0  0  0
 54131  1  0  0  0
 55 57  1  0  0  0
 55132  1  0  0  0
 56 69  2  0  0  0
 57 58  2  0  0  0
 57133  1  0  0  0
 58134  1  0  0  0
 59 60  1  0  0  0
 59 61  1  0  0  0
 59 62  1  0  0  0
 60135  1  0  0  0
 60136  1  0  0  0
 60137  1  0  0  0
 61138  1  0  0  0
 61139  1  0  0  0
 61140  1  0  0  0
 62141  1  0  0  0
 62142  1  0  0  0
 62143  1  0  0  0
 63 65  1  0  0  0
 63144  1  0  0  0
 63145  1  0  0  0
 63146  1  0  0  0
 64147  1  0  0  0
 65148  1  0  0  0
 68 83  1  0  0  0
 71 73  2  0  0  0
 71 75  1  0  0  0
 71149  1  0  0  0
 72 75  2  0  0  0
 72 76  1  0  0  0
 72150  1  0  0  0
 73 74  1  0  0  0
 73 78  1  0  0  0
 74 76  2  0  0  0
 74 85  1  0  0  0
 75 86  1  0  0  0
 76 89  1  0  0  0
 77 82  1  0  0  0
 77 88  2  0  0  0
 77 80  1  0  0  0
 78 79  1  0  0  0
 78151  1  0  0  0
 78152  1  0  0  0
 79 80  1  0  0  0
 79153  1  0  0  0
 79154  1  0  0  0
 80 85  1  0  0  0
 80155  1  0  0  0
 81156  1  0  0  0
 81157  1  0  0  0
 81158  1  0  0  0
 81 84  1  0  0  0
 82 84  1  0  0  0
 82159  1  0  0  0
 82160  1  0  0  0
 83 84  1  0  0  0
 83161  1  0  0  0
 83162  1  0  0  0
 84 87  1  0  0  0
 85163  1  0  0  0
 86164  1  0  0  0
 87165  1  0  0  0
 87166  1  0  0  0
 87167  1  0  0  0
M  CHG  1  87   1
M  ISO  4   1 100  68 101  83 101  86 100
M  END
> <chiral flag>
0

> <version>
0

> <s_m_source_file>
/data/baiqing/PycharmProjects/Reinvent-master-3.2/result/LINK_invent/BTK/process_docking_weight1_custom_product_contain_oxygen_bond_distance_aromatic_linkinvent_7_9_3/rearranged_h_0164.sdf

> <i_m_source_file_index>
55

> <r_mmod_Potential_Energy-OPLS-2005>
-151.779724121094

> <r_mmod_Stretch_Energy-OPLS-2005>
39.8806304931641

> <r_mmod_Bend_Energy-OPLS-2005>
119.107353210449

> <r_mmod_Torsional_Energy-OPLS-2005>
267.614349365234

> <r_mmod_Improper_Torsional_Energy-OPLS-2005>
13.1320858001709

> <r_mmod_Van_der_Waal_Energy-OPLS-2005>
170.344833374023

> <r_mmod_Electrostatic_Energy-OPLS-2005>
-336.078491210938

> <r_mmod_Solvation_Energy-OPLS-2005>
-444.494049072266

> <b_mmod_Minimization_Converged-OPLS-2005>
0

> <r_mmod_RMS_Derivative-OPLS-2005>
4.67127752304077

$$$$
55
                    3D
 Structure written by MMmdl.
159167  0  0  1  0            999 V2000
  -30.7504  -14.4727   20.4896 C   0  0  0  0  0  0
  -30.4034  -12.2861   19.4415 C   0  0  0  0  0  0
  -29.4934  -12.4797   18.2122 C   0  0  0  0  0  0
  -28.0128  -12.3565   18.6192 C   0  0  0  0  0  0
  -27.6553  -13.2177   19.8622 C   0  0  2  0  0  0
  -28.7028  -13.0663   20.9919 C   0  0  0  0  0  0
  -25.2589  -13.8214   20.5715 C   0  0  0  0  0  0
  -24.1852  -13.0458   20.9180 C   0  0  0  0  0  0
  -24.6411  -11.6923   20.8723 C   0  0  0  0  0  0
  -23.9079  -10.4307   21.0383 C   0  0  0  0  0  0
  -24.3636   -9.4228   21.9171 C   0  0  0  0  0  0
  -23.6311   -8.2263   22.0754 C   0  0  0  0  0  0
  -22.4292   -8.0301   21.3560 C   0  0  0  0  0  0
  -21.9919   -9.0265   20.4664 C   0  0  0  0  0  0
  -22.7241  -10.2144   20.3049 C   0  0  0  0  0  0
  -21.6876   -6.0739   22.5277 C   0  0  0  0  0  0
  -21.4030   -6.5637   23.8204 C   0  0  0  0  0  0
  -21.3664   -5.6790   24.9170 C   0  0  0  0  0  0
  -21.6045   -4.3050   24.7225 C   0  0  0  0  0  0
  -21.8823   -3.8146   23.4345 C   0  0  0  0  0  0
  -21.9214   -4.6972   22.3407 C   0  0  0  0  0  0
  -22.7880  -13.5243   21.1851 C   0  0  0  0  0  0
  -22.1666   -4.2149   21.0985 F   0  0  0  0  0  0
  -21.5636   -3.4531   25.7734 F   0  0  0  0  0  0
  -30.0335  -13.3195   20.4215 N   0  0  0  0  0  0
  -26.3005  -12.9389   20.3326 N   0  0  0  0  0  0
  -25.9343  -11.6535   20.5752 N   0  0  0  0  0  0
  -22.0538  -12.8218   22.0420 N   0  0  0  0  0  0
  -25.4317  -15.1943   20.4191 N   0  0  0  0  0  0
  -31.9350  -14.5210   20.1617 O   0  0  0  0  0  0
  -21.6674   -6.8885   21.4239 O   0  0  0  0  0  0
  -22.3565  -14.5544   20.6695 O   0  0  0  0  0  0
  -24.6163  -31.8714   23.2111 C   0  0  0  0  0  0
  -25.9036  -32.4870   23.8423 C   0  0  1  0  0  0
  -27.2238  -27.4285   20.1181 C   0  0  0  0  0  0
  -25.5875  -33.8665   24.2363 N   0  0  0  0  0  0
  -23.4077  -30.4954   21.5506 C   0  0  2  0  0  0
  -24.8574  -28.9736   20.1083 C   0  0  0  0  0  0
  -22.7448  -29.4674   22.4965 C   0  0  0  0  0  0
  -18.0298  -28.1376   22.8502 C   0  0  0  0  0  0
  -24.1480  -36.7320   23.2643 C   0  0  0  0  0  0
  -25.9366  -30.8424   21.3664 C   0  0  0  0  0  0
  -26.0190  -29.4766   20.7119 C   0  0  0  0  0  0
  -27.2114  -28.7121   20.7149 C   0  0  0  0  0  0
  -26.0605  -26.9721   19.4616 C   0  0  0  0  0  0
  -24.8737  -27.7203   19.4773 C   0  0  0  0  0  0
  -23.6165  -29.8331   20.1636 C   0  0  0  0  0  0
  -25.4104  -36.3153   24.0355 C   0  0  1  0  0  0
  -20.5890  -28.3679   23.1297 C   0  0  2  0  0  0
  -20.6766  -26.9406   22.5417 C   0  0  0  0  0  0
  -19.5741  -26.6375   21.5216 C   0  0  0  0  0  0
  -18.1927  -26.7930   22.1632 C   0  0  0  0  0  0
  -19.1543  -28.8846   23.2902 C   0  0  0  0  0  0
  -18.9465  -30.1439   23.8927 C   0  0  0  0  0  0
  -17.6458  -30.6585   24.0574 C   0  0  0  0  0  0
  -25.9019  -34.9506   23.5155 C   0  0  0  0  0  0
  -16.5356  -29.9085   23.6315 C   0  0  0  0  0  0
  -16.7276  -28.6496   23.0359 C   0  0  0  0  0  0
  -26.4463  -31.6648   25.0747 C   0  0  0  0  0  0
  -25.3701  -31.3745   26.1473 C   0  0  0  0  0  0
  -27.0287  -30.3088   24.6128 C   0  0  0  0  0  0
  -27.6065  -32.4353   25.7498 C   0  0  0  0  0  0
  -27.5596  -37.1807   24.8465 C   0  0  0  0  0  0
  -21.4178  -29.3051   22.3712 N   0  0  0  0  0  0
  -26.4304  -37.3821   23.9410 N   0  0  0  0  0  0
  -24.6712  -31.0839   22.1016 N   0  0  0  0  0  0
  -23.4222  -28.8237   23.3025 O   0  0  0  0  0  0
  -28.3184  -26.5844   20.1773 O   0  0  0  0  0  0
  -26.5596  -34.8958   22.4729 O   0  0  0  0  0  0
  -23.5335  -32.1452   23.7487 O   0  0  0  0  0  0
  -29.6687  -18.0511   20.8188 C   0  0  0  0  0  0
  -30.9482  -19.6179   19.4454 C   0  0  0  0  0  0
  -31.4198  -17.2281   19.3517 C   0  0  0  0  0  0
  -29.9124  -19.3813   20.3719 C   0  0  0  0  0  0
  -30.4067  -16.9494   20.3104 C   0  0  0  0  0  0
  -31.7013  -18.5451   18.9437 C   0  0  0  0  0  0
  -29.0578  -20.4995   20.8085 C   0  0  0  0  0  0
  -28.5997  -25.9286   22.4699 C   0  0  0  0  0  0
  -29.0695  -24.2930   20.5439 C   0  0  0  0  0  0
  -28.7383  -22.9730   21.3096 C   0  0  0  0  0  0
  -28.2284  -25.5058   21.0396 C   0  0  2  0  0  0
  -27.7859  -20.2508   21.1119 N   0  0  0  0  0  0
  -30.0582  -15.6094   20.7322 N   0  0  0  0  0  0
  -29.5060  -21.7739   20.8779 N   0  3  0  0  0  0
  -32.6893  -18.7805   18.0452 F   0  0  0  0  0  0
  -26.9651  -25.0093   21.0792 F   0  0  0  0  0  0
  -31.4526  -12.3326   19.1436 H   0  0  0  0  0  0
  -30.2601  -11.2928   19.8733 H   0  0  0  0  0  0
  -29.7315  -11.7353   17.4511 H   0  0  0  0  0  0
  -29.6760  -13.4549   17.7545 H   0  0  0  0  0  0
  -27.8247  -11.3031   18.8324 H   0  0  0  0  0  0
  -27.3679  -12.6198   17.7780 H   0  0  0  0  0  0
  -27.6778  -14.2565   19.5341 H   0  0  0  0  0  0
  -28.6733  -12.0587   21.4107 H   0  0  0  0  0  0
  -28.4829  -13.7442   21.8185 H   0  0  0  0  0  0
  -25.2778   -9.5707   22.4755 H   0  0  0  0  0  0
  -24.0030   -7.4657   22.7453 H   0  0  0  0  0  0
  -21.0856   -8.8779   19.8966 H   0  0  0  0  0  0
  -22.3686  -10.9693   19.6174 H   0  0  0  0  0  0
  -21.2007   -7.6142   23.9692 H   0  0  0  0  0  0
  -21.1483   -6.0534   25.9068 H   0  0  0  0  0  0
  -22.0599   -2.7602   23.2849 H   0  0  0  0  0  0
  -22.4130  -11.9868   22.4805 H   0  0  0  0  0  0
  -21.1166  -13.1231   22.2613 H   0  0  0  0  0  0
  -24.6685  -15.8504   20.5512 H   0  0  0  0  0  0
  -26.2854  -15.6369   20.1046 H   0  0  0  0  0  0
  -26.7143  -32.5637   23.1228 H   0  0  0  0  0  0
  -24.9998  -33.9828   25.0488 H   0  0  0  0  0  0
  -22.6963  -31.3118   21.4104 H   0  0  0  0  0  0
  -23.3762  -35.9629   23.3309 H   0  0  0  0  0  0
  -24.3579  -36.8916   22.2055 H   0  0  0  0  0  0
  -23.7185  -37.6511   23.6640 H   0  0  0  0  0  0
  -26.0476  -31.6141   20.6025 H   0  0  0  0  0  0
  -26.8221  -30.8994   21.9864 H   0  0  0  0  0  0
  -28.1034  -29.0855   21.1971 H   0  0  0  0  0  0
  -26.0597  -26.0030   18.9821 H   0  0  0  0  0  0
  -23.9839  -27.3292   19.0036 H   0  0  0  0  0  0
  -23.7228  -30.6077   19.4035 H   0  0  0  0  0  0
  -22.7436  -29.2465   19.8697 H   0  0  0  0  0  0
  -25.1273  -36.2044   25.0849 H   0  0  0  0  0  0
  -20.9979  -28.3236   24.1416 H   0  0  0  0  0  0
  -20.5628  -26.2306   23.3623 H   0  0  0  0  0  0
  -21.6638  -26.7417   22.1232 H   0  0  0  0  0  0
  -19.6891  -25.6277   21.1264 H   0  0  0  0  0  0
  -19.6666  -27.3174   20.6739 H   0  0  0  0  0  0
  -17.4192  -26.6700   21.4031 H   0  0  0  0  0  0
  -18.0316  -26.0062   22.9016 H   0  0  0  0  0  0
  -19.7936  -30.7251   24.2314 H   0  0  0  0  0  0
  -17.5015  -31.6270   24.5166 H   0  0  0  0  0  0
  -15.5352  -30.2997   23.7598 H   0  0  0  0  0  0
  -15.8689  -28.0800   22.7058 H   0  0  0  0  0  0
  -24.5866  -30.7129   25.7755 H   0  0  0  0  0  0
  -24.8903  -32.2898   26.4951 H   0  0  0  0  0  0
  -25.7998  -30.8860   27.0223 H   0  0  0  0  0  0
  -26.2830  -29.6869   24.1166 H   0  0  0  0  0  0
  -27.4015  -29.7323   25.4600 H   0  0  0  0  0  0
  -27.8689  -30.4396   23.9305 H   0  0  0  0  0  0
  -27.2718  -33.3650   26.2112 H   0  0  0  0  0  0
  -28.3843  -32.6920   25.0292 H   0  0  0  0  0  0
  -28.0780  -31.8464   26.5372 H   0  0  0  0  0  0
  -28.2622  -38.0108   24.7560 H   0  0  0  0  0  0
  -28.1090  -36.2643   24.6235 H   0  0  0  0  0  0
  -27.2331  -37.1395   25.8876 H   0  0  0  0  0  0
  -20.9341  -29.8796   21.6952 H   0  0  0  0  0  0
  -26.0221  -38.2910   24.1412 H   0  0  0  0  0  0
  -28.8878  -17.8709   21.5426 H   0  0  0  0  0  0
  -31.1632  -20.6145   19.0858 H   0  0  0  0  0  0
  -32.0108  -16.4592   18.8849 H   0  0  0  0  0  0
  -28.4780  -25.1052   23.1729 H   0  0  0  0  0  0
  -27.9652  -26.7383   22.8289 H   0  0  0  0  0  0
  -29.6406  -26.2493   22.5254 H   0  0  0  0  0  0
  -28.8680  -24.1415   19.4827 H   0  0  0  0  0  0
  -30.1298  -24.5270   20.6205 H   0  0  0  0  0  0
  -27.6706  -22.7789   21.1991 H   0  0  0  0  0  0
  -28.9030  -23.0942   22.3806 H   0  0  0  0  0  0
  -27.4198  -19.3258   20.9508 H   0  0  0  0  0  0
  -27.1529  -20.9574   21.4410 H   0  0  0  0  0  0
  -29.1348  -15.4784   21.1130 H   0  0  0  0  0  0
  -30.5082  -21.8982   20.8005 H   0  0  0  0  0  0
  1 25  1  0  0  0
  1 30  2  0  0  0
  1 83  1  0  0  0
  2  3  1  0  0  0
  2 25  1  0  0  0
  2 87  1  0  0  0
  2 88  1  0  0  0
  3  4  1  0  0  0
  3 89  1  0  0  0
  3 90  1  0  0  0
  4  5  1  0  0  0
  4 91  1  0  0  0
  4 92  1  0  0  0
  5  6  1  0  0  0
  5 26  1  0  0  0
  5 93  1  0  0  0
  6 25  1  0  0  0
  6 94  1  0  0  0
  6 95  1  0  0  0
  7  8  2  0  0  0
  7 26  1  0  0  0
  7 29  1  0  0  0
  8  9  1  0  0  0
  8 22  1  0  0  0
  9 10  1  0  0  0
  9 27  2  0  0  0
 10 11  2  0  0  0
 10 15  1  0  0  0
 11 12  1  0  0  0
 11 96  1  0  0  0
 12 13  2  0  0  0
 12 97  1  0  0  0
 13 14  1  0  0  0
 13 31  1  0  0  0
 14 15  2  0  0  0
 14 98  1  0  0  0
 15 99  1  0  0  0
 16 17  2  0  0  0
 16 21  1  0  0  0
 16 31  1  0  0  0
 17 18  1  0  0  0
 17100  1  0  0  0
 18 19  2  0  0  0
 18101  1  0  0  0
 19 20  1  0  0  0
 19 24  1  0  0  0
 20 21  2  0  0  0
 20102  1  0  0  0
 21 23  1  0  0  0
 22 28  1  0  0  0
 22 32  2  0  0  0
 26 27  1  0  0  0
 28103  1  0  0  0
 28104  1  0  0  0
 29105  1  0  0  0
 29106  1  0  0  0
 33 34  1  0  0  0
 33 66  1  0  0  0
 33 70  2  0  0  0
 34 36  1  0  0  0
 34 59  1  0  0  0
 34107  1  0  0  0
 35 44  2  0  0  0
 35 45  1  0  0  0
 35 68  1  0  0  0
 36 56  1  0  0  0
 36108  1  0  0  0
 37 39  1  0  0  0
 37 47  1  0  0  0
 37 66  1  0  0  0
 37109  1  0  0  0
 38 43  2  0  0  0
 38 46  1  0  0  0
 38 47  1  0  0  0
 39 64  1  0  0  0
 39 67  2  0  0  0
 40 52  1  0  0  0
 40 53  2  0  0  0
 40 58  1  0  0  0
 41110  1  0  0  0
 41111  1  0  0  0
 41112  1  0  0  0
 41 48  1  0  0  0
 42 43  1  0  0  0
 42 66  1  0  0  0
 42113  1  0  0  0
 42114  1  0  0  0
 43 44  1  0  0  0
 44115  1  0  0  0
 45 46  2  0  0  0
 45116  1  0  0  0
 46117  1  0  0  0
 47118  1  0  0  0
 47119  1  0  0  0
 48 56  1  0  0  0
 48 65  1  0  0  0
 48120  1  0  0  0
 49 50  1  0  0  0
 49 53  1  0  0  0
 49 64  1  0  0  0
 49121  1  0  0  0
 50 51  1  0  0  0
 50122  1  0  0  0
 50123  1  0  0  0
 51 52  1  0  0  0
 51124  1  0  0  0
 51125  1  0  0  0
 52126  1  0  0  0
 52127  1  0  0  0
 53 54  1  0  0  0
 54 55  2  0  0  0
 54128  1  0  0  0
 55 57  1  0  0  0
 55129  1  0  0  0
 56 69  2  0  0  0
 57 58  2  0  0  0
 57130  1  0  0  0
 58131  1  0  0  0
 59 60  1  0  0  0
 59 61  1  0  0  0
 59 62  1  0  0  0
 60132  1  0  0  0
 60133  1  0  0  0
 60134  1  0  0  0
 61135  1  0  0  0
 61136  1  0  0  0
 61137  1  0  0  0
 62138  1  0  0  0
 62139  1  0  0  0
 62140  1  0  0  0
 63 65  1  0  0  0
 63141  1  0  0  0
 63142  1  0  0  0
 63143  1  0  0  0
 64144  1  0  0  0
 65145  1  0  0  0
 68 81  1  0  0  0
 71 74  2  0  0  0
 71 75  1  0  0  0
 71146  1  0  0  0
 72 74  1  0  0  0
 72 76  2  0  0  0
 72147  1  0  0  0
 73 75  2  0  0  0
 73 76  1  0  0  0
 73148  1  0  0  0
 74 77  1  0  0  0
 75 83  1  0  0  0
 76 85  1  0  0  0
 77 82  1  0  0  0
 77 84  2  0  0  0
 78149  1  0  0  0
 78150  1  0  0  0
 78151  1  0  0  0
 78 81  1  0  0  0
 79 80  1  0  0  0
 79 81  1  0  0  0
 79152  1  0  0  0
 79153  1  0  0  0
 80 84  1  0  0  0
 80154  1  0  0  0
 80155  1  0  0  0
 81 86  1  0  0  0
 82156  1  0  0  0
 82157  1  0  0  0
 83158  1  0  0  0
 84159  1  0  0  0
M  CHG  1  84   1
M  ISO  4   1 100  68 101  81 101  83 100
M  END
> <chiral flag>
0

> <version>
0

> <s_m_source_file>
/data/baiqing/PycharmProjects/Reinvent-master-3.2/result/LINK_invent/BTK/process_docking_weight1_custom_product_contain_oxygen_bond_distance_aromatic_linkinvent_7_9_3/rearranged_h_0164.sdf

> <i_m_source_file_index>
56

> <r_mmod_Potential_Energy-OPLS-2005>
-272.566802978516

> <r_mmod_Stretch_Energy-OPLS-2005>
42.7094192504883

> <r_mmod_Bend_Energy-OPLS-2005>
98.9182968139648

> <r_mmod_Torsional_Energy-OPLS-2005>
231.744598388672

> <r_mmod_Improper_Torsional_Energy-OPLS-2005>
5.41353321075439

> <r_mmod_Van_der_Waal_Energy-OPLS-2005>
173.790328979492

> <r_mmod_Electrostatic_Energy-OPLS-2005>
-425.47412109375

> <r_mmod_Solvation_Energy-OPLS-2005>
-426.598236083984

> <b_mmod_Minimization_Converged-OPLS-2005>
0

> <r_mmod_RMS_Derivative-OPLS-2005>
3.69018602371216

$$$$
56
                    3D
 Structure written by MMmdl.
164173  0  0  1  0            999 V2000
  -30.7006  -14.5702   20.5358 C   0  0  0  0  0  0
  -30.4176  -12.3633   19.4378 C   0  0  0  0  0  0
  -29.4927  -12.5071   18.2128 C   0  0  0  0  0  0
  -28.0164  -12.3570   18.6292 C   0  0  0  0  0  0
  -27.6520  -13.2228   19.8650 C   0  0  2  0  0  0
  -28.7006  -13.0815   20.9918 C   0  0  0  0  0  0
  -25.2546  -13.8193   20.5715 C   0  0  0  0  0  0
  -24.1824  -13.0450   20.9214 C   0  0  0  0  0  0
  -24.6401  -11.6925   20.8763 C   0  0  0  0  0  0
  -23.9071  -10.4304   21.0418 C   0  0  0  0  0  0
  -24.3618   -9.4218   21.9196 C   0  0  0  0  0  0
  -23.6291   -8.2251   22.0762 C   0  0  0  0  0  0
  -22.4275   -8.0290   21.3546 C   0  0  0  0  0  0
  -21.9918   -9.0265   20.4651 C   0  0  0  0  0  0
  -22.7243  -10.2151   20.3066 C   0  0  0  0  0  0
  -21.6847   -6.0751   22.5279 C   0  0  0  0  0  0
  -21.4008   -6.5650   23.8216 C   0  0  0  0  0  0
  -21.3661   -5.6801   24.9176 C   0  0  0  0  0  0
  -21.6049   -4.3064   24.7222 C   0  0  0  0  0  0
  -21.8817   -3.8159   23.4340 C   0  0  0  0  0  0
  -21.9187   -4.6978   22.3399 C   0  0  0  0  0  0
  -22.7845  -13.5235   21.1869 C   0  0  0  0  0  0
  -22.1659   -4.2165   21.0978 F   0  0  0  0  0  0
  -21.5630   -3.4554   25.7737 F   0  0  0  0  0  0
  -30.0159  -13.3932   20.4162 N   0  0  0  0  0  0
  -26.2990  -12.9396   20.3361 N   0  0  0  0  0  0
  -25.9333  -11.6541   20.5788 N   0  0  0  0  0  0
  -22.0482  -12.8233   22.0415 N   0  0  0  0  0  0
  -25.4234  -15.1921   20.4116 N   0  0  0  0  0  0
  -31.8617  -14.6705   20.1288 O   0  0  0  0  0  0
  -21.6632   -6.8892   21.4238 O   0  0  0  0  0  0
  -22.3542  -14.5546   20.6710 O   0  0  0  0  0  0
  -24.6263  -31.8607   23.2058 C   0  0  0  0  0  0
  -25.9117  -32.4781   23.8379 C   0  0  1  0  0  0
  -27.2212  -27.3290   20.1030 C   0  0  0  0  0  0
  -25.5940  -33.8582   24.2295 N   0  0  0  0  0  0
  -23.4179  -30.4887   21.5496 C   0  0  2  0  0  0
  -24.8631  -28.9514   20.1108 C   0  0  0  0  0  0
  -22.7458  -29.4629   22.4928 C   0  0  0  0  0  0
  -18.0291  -28.1382   22.8496 C   0  0  0  0  0  0
  -24.1482  -36.7283   23.2631 C   0  0  0  0  0  0
  -25.9607  -30.7929   21.3792 C   0  0  0  0  0  0
  -26.0337  -29.4238   20.7174 C   0  0  0  0  0  0
  -27.2143  -28.6226   20.7094 C   0  0  0  0  0  0
  -26.0224  -26.9178   19.4664 C   0  0  0  0  0  0
  -24.8578  -27.7017   19.4809 C   0  0  0  0  0  0
  -23.6311  -29.8299   20.1637 C   0  0  0  0  0  0
  -25.4106  -36.3067   24.0317 C   0  0  1  0  0  0
  -20.5885  -28.3690   23.1277 C   0  0  2  0  0  0
  -20.6772  -26.9409   22.5409 C   0  0  0  0  0  0
  -19.5746  -26.6386   21.5209 C   0  0  0  0  0  0
  -18.1927  -26.7929   22.1620 C   0  0  0  0  0  0
  -19.1541  -28.8851   23.2882 C   0  0  0  0  0  0
  -18.9466  -30.1453   23.8897 C   0  0  0  0  0  0
  -17.6464  -30.6591   24.0567 C   0  0  0  0  0  0
  -25.9055  -34.9441   23.5098 C   0  0  0  0  0  0
  -16.5352  -29.9092   23.6337 C   0  0  0  0  0  0
  -16.7277  -28.6502   23.0373 C   0  0  0  0  0  0
  -26.4516  -31.6592   25.0748 C   0  0  0  0  0  0
  -25.3746  -31.3711   26.1471 C   0  0  0  0  0  0
  -27.0388  -30.3018   24.6215 C   0  0  0  0  0  0
  -27.6074  -32.4336   25.7515 C   0  0  0  0  0  0
  -27.5586  -37.1763   24.8444 C   0  0  0  0  0  0
  -21.4171  -29.3046   22.3666 N   0  0  0  0  0  0
  -26.4266  -37.3786   23.9433 N   0  0  0  0  0  0
  -24.6874  -31.0614   22.1026 N   0  0  0  0  0  0
  -23.4174  -28.8147   23.2998 O   0  0  0  0  0  0
  -28.3380  -26.4736   20.1563 O   0  0  0  0  0  0
  -26.5617  -34.8900   22.4662 O   0  0  0  0  0  0
  -23.5425  -32.1432   23.7372 O   0  0  0  0  0  0
  -32.3034  -18.3780   22.1948 C   0  0  0  0  0  0
  -31.5999  -19.5568   21.8924 C   0  0  0  0  0  0
  -31.7748  -17.1209   21.8604 C   0  0  0  0  0  0
  -29.8072  -18.2205   20.9305 C   0  0  0  0  0  0
  -30.3351  -19.5186   21.2585 C   0  0  0  0  0  0
  -30.5250  -17.0047   21.2100 C   0  0  0  0  0  0
  -29.4180  -21.2570   19.5191 C   0  0  0  0  0  0
  -30.1332  -22.1239   21.7243 C   0  0  0  0  0  0
  -28.5992  -22.5752   19.3081 C   0  0  0  0  0  0
  -29.3099  -23.4370   21.5129 C   0  0  0  0  0  0
  -29.5570  -20.8593   21.0063 C   0  0  2  0  0  0
  -29.1413  -23.8596   20.0234 C   0  0  2  0  0  0
  -31.2426  -25.0908   19.9056 C   0  0  0  0  0  0
  -28.1226  -25.0640   19.7681 C   0  0  0  0  0  0
  -29.9998  -15.6793   20.9182 N   0  0  0  0  0  0
  -30.3869  -24.0936   19.3596 O   0  0  0  0  0  0
  -31.4611  -12.4532   19.1322 H   0  0  0  0  0  0
  -30.3220  -11.3677   19.8767 H   0  0  0  0  0  0
  -29.7449  -11.7622   17.4565 H   0  0  0  0  0  0
  -29.6477  -13.4803   17.7448 H   0  0  0  0  0  0
  -27.8401  -11.3039   18.8477 H   0  0  0  0  0  0
  -27.3617  -12.6056   17.7915 H   0  0  0  0  0  0
  -27.6711  -14.2598   19.5293 H   0  0  0  0  0  0
  -28.7020  -12.0668   21.3929 H   0  0  0  0  0  0
  -28.4631  -13.7356   21.8320 H   0  0  0  0  0  0
  -25.2759   -9.5698   22.4780 H   0  0  0  0  0  0
  -24.0004   -7.4645   22.7480 H   0  0  0  0  0  0
  -21.0855   -8.8785   19.8947 H   0  0  0  0  0  0
  -22.3695  -10.9697   19.6188 H   0  0  0  0  0  0
  -21.2002   -7.6163   23.9719 H   0  0  0  0  0  0
  -21.1488   -6.0537   25.9078 H   0  0  0  0  0  0
  -22.0595   -2.7621   23.2836 H   0  0  0  0  0  0
  -22.4080  -11.9877   22.4792 H   0  0  0  0  0  0
  -21.1101  -13.1274   22.2613 H   0  0  0  0  0  0
  -24.6547  -15.8452   20.5182 H   0  0  0  0  0  0
  -26.2712  -15.6321   20.0779 H   0  0  0  0  0  0
  -26.7182  -32.5445   23.1124 H   0  0  0  0  0  0
  -25.0073  -33.9764   25.0424 H   0  0  0  0  0  0
  -22.7122  -31.3101   21.4110 H   0  0  0  0  0  0
  -23.3768  -35.9590   23.3243 H   0  0  0  0  0  0
  -24.3580  -36.8989   22.2063 H   0  0  0  0  0  0
  -23.7205  -37.6444   23.6713 H   0  0  0  0  0  0
  -26.0936  -31.5584   20.6143 H   0  0  0  0  0  0
  -26.8406  -30.8379   22.0090 H   0  0  0  0  0  0
  -28.1098  -28.9789   21.1990 H   0  0  0  0  0  0
  -25.9391  -25.9716   18.9551 H   0  0  0  0  0  0
  -23.9596  -27.3330   19.0063 H   0  0  0  0  0  0
  -23.7468  -30.6109   19.4115 H   0  0  0  0  0  0
  -22.7514  -29.2601   19.8627 H   0  0  0  0  0  0
  -25.1276  -36.1904   25.0806 H   0  0  0  0  0  0
  -20.9984  -28.3284   24.1397 H   0  0  0  0  0  0
  -20.5685  -26.2301   23.3609 H   0  0  0  0  0  0
  -21.6640  -26.7443   22.1211 H   0  0  0  0  0  0
  -19.6906  -25.6304   21.1244 H   0  0  0  0  0  0
  -19.6682  -27.3186   20.6733 H   0  0  0  0  0  0
  -17.4198  -26.6700   21.4017 H   0  0  0  0  0  0
  -18.0304  -26.0071   22.9012 H   0  0  0  0  0  0
  -19.7945  -30.7274   24.2257 H   0  0  0  0  0  0
  -17.5031  -31.6275   24.5174 H   0  0  0  0  0  0
  -15.5358  -30.2992   23.7669 H   0  0  0  0  0  0
  -15.8676  -28.0813   22.7093 H   0  0  0  0  0  0
  -24.5935  -30.7049   25.7790 H   0  0  0  0  0  0
  -24.8905  -32.2864   26.4884 H   0  0  0  0  0  0
  -25.8075  -30.8900   27.0252 H   0  0  0  0  0  0
  -26.2986  -29.6722   24.1262 H   0  0  0  0  0  0
  -27.4137  -29.7312   25.4726 H   0  0  0  0  0  0
  -27.8824  -30.4325   23.9429 H   0  0  0  0  0  0
  -27.2717  -33.3682   26.2023 H   0  0  0  0  0  0
  -28.3915  -32.6828   25.0351 H   0  0  0  0  0  0
  -28.0706  -31.8502   26.5490 H   0  0  0  0  0  0
  -28.2506  -38.0159   24.7641 H   0  0  0  0  0  0
  -28.1193  -36.2699   24.6094 H   0  0  0  0  0  0
  -27.2324  -37.1189   25.8845 H   0  0  0  0  0  0
  -20.9322  -29.8798   21.6920 H   0  0  0  0  0  0
  -26.0135  -38.2828   24.1569 H   0  0  0  0  0  0
  -33.2573  -18.4384   22.6999 H   0  0  0  0  0  0
  -32.0560  -20.4899   22.1863 H   0  0  0  0  0  0
  -32.3463  -16.2431   22.1254 H   0  0  0  0  0  0
  -28.8371  -18.1609   20.4577 H   0  0  0  0  0  0
  -30.4088  -21.3691   19.0774 H   0  0  0  0  0  0
  -28.9365  -20.4449   18.9730 H   0  0  0  0  0  0
  -30.2125  -21.9297   22.7951 H   0  0  0  0  0  0
  -31.1479  -22.3106   21.3693 H   0  0  0  0  0  0
  -27.5786  -22.3895   19.6483 H   0  0  0  0  0  0
  -28.5145  -22.7613   18.2366 H   0  0  0  0  0  0
  -29.7502  -24.2503   22.0889 H   0  0  0  0  0  0
  -28.3206  -23.2873   21.9472 H   0  0  0  0  0  0
  -28.5558  -20.6905   21.4049 H   0  0  0  0  0  0
  -32.1341  -25.1706   19.2822 H   0  0  0  0  0  0
  -31.5805  -24.8374   20.9093 H   0  0  0  0  0  0
  -30.7736  -26.0722   19.9277 H   0  0  0  0  0  0
  -27.1984  -24.7351   20.2449 H   0  0  0  0  0  0
  -27.9291  -25.0767   18.6948 H   0  0  0  0  0  0
  -29.0041  -15.5537   21.0206 H   0  0  0  0  0  0
  1 25  1  0  0  0
  1 30  2  0  0  0
  1 85  1  0  0  0
  2  3  1  0  0  0
  2 25  1  0  0  0
  2 87  1  0  0  0
  2 88  1  0  0  0
  3  4  1  0  0  0
  3 89  1  0  0  0
  3 90  1  0  0  0
  4  5  1  0  0  0
  4 91  1  0  0  0
  4 92  1  0  0  0
  5  6  1  0  0  0
  5 26  1  0  0  0
  5 93  1  0  0  0
  6 25  1  0  0  0
  6 94  1  0  0  0
  6 95  1  0  0  0
  7  8  2  0  0  0
  7 26  1  0  0  0
  7 29  1  0  0  0
  8  9  1  0  0  0
  8 22  1  0  0  0
  9 10  1  0  0  0
  9 27  2  0  0  0
 10 11  2  0  0  0
 10 15  1  0  0  0
 11 12  1  0  0  0
 11 96  1  0  0  0
 12 13  2  0  0  0
 12 97  1  0  0  0
 13 14  1  0  0  0
 13 31  1  0  0  0
 14 15  2  0  0  0
 14 98  1  0  0  0
 15 99  1  0  0  0
 16 17  2  0  0  0
 16 21  1  0  0  0
 16 31  1  0  0  0
 17 18  1  0  0  0
 17100  1  0  0  0
 18 19  2  0  0  0
 18101  1  0  0  0
 19 20  1  0  0  0
 19 24  1  0  0  0
 20 21  2  0  0  0
 20102  1  0  0  0
 21 23  1  0  0  0
 22 28  1  0  0  0
 22 32  2  0  0  0
 26 27  1  0  0  0
 28103  1  0  0  0
 28104  1  0  0  0
 29105  1  0  0  0
 29106  1  0  0  0
 33 34  1  0  0  0
 33 66  1  0  0  0
 33 70  2  0  0  0
 34 36  1  0  0  0
 34 59  1  0  0  0
 34107  1  0  0  0
 35 44  2  0  0  0
 35 45  1  0  0  0
 35 68  1  0  0  0
 36 56  1  0  0  0
 36108  1  0  0  0
 37 39  1  0  0  0
 37 47  1  0  0  0
 37 66  1  0  0  0
 37109  1  0  0  0
 38 43  2  0  0  0
 38 46  1  0  0  0
 38 47  1  0  0  0
 39 64  1  0  0  0
 39 67  2  0  0  0
 40 52  1  0  0  0
 40 53  2  0  0  0
 40 58  1  0  0  0
 41110  1  0  0  0
 41111  1  0  0  0
 41112  1  0  0  0
 41 48  1  0  0  0
 42 43  1  0  0  0
 42 66  1  0  0  0
 42113  1  0  0  0
 42114  1  0  0  0
 43 44  1  0  0  0
 44115  1  0  0  0
 45 46  2  0  0  0
 45116  1  0  0  0
 46117  1  0  0  0
 47118  1  0  0  0
 47119  1  0  0  0
 48 56  1  0  0  0
 48 65  1  0  0  0
 48120  1  0  0  0
 49 50  1  0  0  0
 49 53  1  0  0  0
 49 64  1  0  0  0
 49121  1  0  0  0
 50 51  1  0  0  0
 50122  1  0  0  0
 50123  1  0  0  0
 51 52  1  0  0  0
 51124  1  0  0  0
 51125  1  0  0  0
 52126  1  0  0  0
 52127  1  0  0  0
 53 54  1  0  0  0
 54 55  2  0  0  0
 54128  1  0  0  0
 55 57  1  0  0  0
 55129  1  0  0  0
 56 69  2  0  0  0
 57 58  2  0  0  0
 57130  1  0  0  0
 58131  1  0  0  0
 59 60  1  0  0  0
 59 61  1  0  0  0
 59 62  1  0  0  0
 60132  1  0  0  0
 60133  1  0  0  0
 60134  1  0  0  0
 61135  1  0  0  0
 61136  1  0  0  0
 61137  1  0  0  0
 62138  1  0  0  0
 62139  1  0  0  0
 62140  1  0  0  0
 63 65  1  0  0  0
 63141  1  0  0  0
 63142  1  0  0  0
 63143  1  0  0  0
 64144  1  0  0  0
 65145  1  0  0  0
 68 84  1  0  0  0
 71 72  2  0  0  0
 71 73  1  0  0  0
 71146  1  0  0  0
 72 75  1  0  0  0
 72147  1  0  0  0
 73 76  2  0  0  0
 73148  1  0  0  0
 74 75  2  0  0  0
 74 76  1  0  0  0
 74149  1  0  0  0
 75 81  1  0  0  0
 76 85  1  0  0  0
 77 79  1  0  0  0
 77 81  1  0  0  0
 77150  1  0  0  0
 77151  1  0  0  0
 78 80  1  0  0  0
 78 81  1  0  0  0
 78152  1  0  0  0
 78153  1  0  0  0
 79 82  1  0  0  0
 79154  1  0  0  0
 79155  1  0  0  0
 80 82  1  0  0  0
 80156  1  0  0  0
 80157  1  0  0  0
 81158  1  0  0  0
 82 84  1  0  0  0
 82 86  1  0  0  0
 83 86  1  0  0  0
 83159  1  0  0  0
 83160  1  0  0  0
 83161  1  0  0  0
 84162  1  0  0  0
 84163  1  0  0  0
 85164  1  0  0  0
M  ISO  4   1 100  68 101  84 101  85 100
M  END
> <chiral flag>
0

> <version>
0

> <s_m_source_file>
/data/baiqing/PycharmProjects/Reinvent-master-3.2/result/LINK_invent/BTK/process_docking_weight1_custom_product_contain_oxygen_bond_distance_aromatic_linkinvent_7_9_3/rearranged_h_0164.sdf

> <i_m_source_file_index>
57

> <r_mmod_Potential_Energy-OPLS-2005>
78.4158172607422

> <r_mmod_Stretch_Energy-OPLS-2005>
74.2648620605469

> <r_mmod_Bend_Energy-OPLS-2005>
144.966415405273

> <r_mmod_Torsional_Energy-OPLS-2005>
237.212219238281

> <r_mmod_Improper_Torsional_Energy-OPLS-2005>
4.63951301574707

> <r_mmod_Van_der_Waal_Energy-OPLS-2005>
163.539916992188

> <r_mmod_Electrostatic_Energy-OPLS-2005>
-376.734710693359

> <r_mmod_Solvation_Energy-OPLS-2005>
-208.397491455078

> <b_mmod_Minimization_Converged-OPLS-2005>
0

> <r_mmod_RMS_Derivative-OPLS-2005>
2.06654739379883

$$$$
57
                    3D
 Structure written by MMmdl.
175183  0  0  1  0            999 V2000
  -30.5865  -14.7841   20.4490 C   0  0  0  0  0  0
  -30.4380  -12.4758   19.4702 C   0  0  0  0  0  0
  -29.4997  -12.4986   18.2406 C   0  0  0  0  0  0
  -28.0349  -12.2974   18.6722 C   0  0  0  0  0  0
  -27.6477  -13.1912   19.8743 C   0  0  2  0  0  0
  -28.7026  -13.1559   21.0040 C   0  0  0  0  0  0
  -25.2617  -13.8035   20.5849 C   0  0  0  0  0  0
  -24.1824  -13.0368   20.9194 C   0  0  0  0  0  0
  -24.6362  -11.6838   20.8785 C   0  0  0  0  0  0
  -23.9017  -10.4261   21.0430 C   0  0  0  0  0  0
  -24.3582   -9.4182   21.9205 C   0  0  0  0  0  0
  -23.6284   -8.2209   22.0754 C   0  0  0  0  0  0
  -22.4261   -8.0255   21.3540 C   0  0  0  0  0  0
  -21.9878   -9.0242   20.4644 C   0  0  0  0  0  0
  -22.7192  -10.2130   20.3067 C   0  0  0  0  0  0
  -21.6864   -6.0716   22.5282 C   0  0  0  0  0  0
  -21.4033   -6.5632   23.8214 C   0  0  0  0  0  0
  -21.3657   -5.6793   24.9174 C   0  0  0  0  0  0
  -21.6044   -4.3056   24.7236 C   0  0  0  0  0  0
  -21.8839   -3.8141   23.4363 C   0  0  0  0  0  0
  -21.9217   -4.6953   22.3405 C   0  0  0  0  0  0
  -22.7869  -13.5224   21.1831 C   0  0  0  0  0  0
  -22.1685   -4.2126   21.0988 F   0  0  0  0  0  0
  -21.5600   -3.4545   25.7749 F   0  0  0  0  0  0
  -29.9971  -13.5330   20.4157 N   0  0  0  0  0  0
  -26.3003  -12.9182   20.3500 N   0  0  0  0  0  0
  -25.9295  -11.6361   20.5869 N   0  0  0  0  0  0
  -22.0535  -12.8211   22.0373 N   0  0  0  0  0  0
  -25.4438  -15.1738   20.4483 N   0  0  0  0  0  0
  -31.7330  -14.9285   20.0122 O   0  0  0  0  0  0
  -21.6628   -6.8849   21.4240 O   0  0  0  0  0  0
  -22.3593  -14.5557   20.6704 O   0  0  0  0  0  0
  -24.6293  -31.8551   23.2001 C   0  0  0  0  0  0
  -25.9127  -32.4744   23.8344 C   0  0  1  0  0  0
  -27.2345  -27.2735   20.1158 C   0  0  0  0  0  0
  -25.5926  -33.8550   24.2263 N   0  0  0  0  0  0
  -23.4258  -30.4773   21.5415 C   0  0  2  0  0  0
  -24.8752  -28.9245   20.1108 C   0  0  0  0  0  0
  -22.7479  -29.4599   22.4921 C   0  0  0  0  0  0
  -18.0301  -28.1365   22.8525 C   0  0  0  0  0  0
  -24.1486  -36.7283   23.2642 C   0  0  0  0  0  0
  -25.9719  -30.7690   21.3806 C   0  0  0  0  0  0
  -26.0449  -29.3922   20.7218 C   0  0  0  0  0  0
  -27.2205  -28.5778   20.7175 C   0  0  0  0  0  0
  -26.0411  -26.8796   19.4622 C   0  0  0  0  0  0
  -24.8775  -27.6749   19.4729 C   0  0  0  0  0  0
  -23.6465  -29.8112   20.1584 C   0  0  0  0  0  0
  -25.4109  -36.3066   24.0333 C   0  0  1  0  0  0
  -20.5893  -28.3704   23.1327 C   0  0  2  0  0  0
  -20.6786  -26.9393   22.5484 C   0  0  0  0  0  0
  -19.5767  -26.6306   21.5305 C   0  0  0  0  0  0
  -18.1947  -26.7894   22.1708 C   0  0  0  0  0  0
  -19.1540  -28.8859   23.2904 C   0  0  0  0  0  0
  -18.9448  -30.1464   23.8917 C   0  0  0  0  0  0
  -17.6439  -30.6586   24.0551 C   0  0  0  0  0  0
  -25.9052  -34.9427   23.5109 C   0  0  0  0  0  0
  -16.5347  -29.9092   23.6281 C   0  0  0  0  0  0
  -16.7286  -28.6494   23.0343 C   0  0  0  0  0  0
  -26.4495  -31.6568   25.0735 C   0  0  0  0  0  0
  -25.3717  -31.3720   26.1460 C   0  0  0  0  0  0
  -27.0362  -30.2984   24.6241 C   0  0  0  0  0  0
  -27.6058  -32.4299   25.7497 C   0  0  0  0  0  0
  -27.5577  -37.1796   24.8468 C   0  0  0  0  0  0
  -21.4186  -29.3038   22.3678 N   0  0  0  0  0  0
  -26.4289  -37.3761   23.9408 N   0  0  0  0  0  0
  -24.6940  -31.0520   22.0964 N   0  0  0  0  0  0
  -23.4167  -28.8156   23.3053 O   0  0  0  0  0  0
  -28.3509  -26.4052   20.1942 O   0  0  0  0  0  0
  -26.5639  -34.8901   22.4678 O   0  0  0  0  0  0
  -23.5445  -32.1363   23.7300 O   0  0  0  0  0  0
  -28.0830  -19.5056   19.3344 C   0  0  0  0  0  0
  -28.2778  -17.0868   19.5040 C   0  0  0  0  0  0
  -29.8605  -18.5172   20.6660 C   0  0  0  0  0  0
  -27.5737  -18.2302   19.0707 C   0  0  0  0  0  0
  -29.2082  -19.7286   20.1517 C   0  0  0  0  0  0
  -29.4305  -17.1596   20.3222 C   0  0  0  0  0  0
  -29.1067  -22.3309   19.8634 C   0  0  0  0  0  0
  -27.3371  -23.1996   22.3359 C   0  0  0  0  0  0
  -30.6279  -24.2669   20.4452 C   0  0  0  0  0  0
  -24.7044  -20.1890   18.6373 C   0  0  0  0  0  0
  -23.7146  -17.9299   18.8022 C   0  0  0  0  0  0
  -25.1686  -18.7890   20.6556 C   0  0  0  0  0  0
  -26.2194  -18.1261   18.3607 C   0  0  0  0  0  0
  -28.7593  -23.7172   22.0380 C   0  0  0  0  0  0
  -28.2564  -24.9493   19.8180 C   0  0  0  0  0  0
  -29.1617  -23.7982   20.5395 C   0  0  2  0  0  0
  -24.9862  -18.7465   19.1186 C   0  0  0  0  0  0
  -29.5039  -21.1495   20.5014 N   0  0  0  0  0  0
  -29.8601  -15.8649   20.9381 N   0  0  0  0  0  0
  -28.7538  -22.3081   18.6818 O   0  0  0  0  0  0
  -31.4702  -12.6147   19.1482 H   0  0  0  0  0  0
  -30.4092  -11.5000   19.9569 H   0  0  0  0  0  0
  -29.7840  -11.7204   17.5293 H   0  0  0  0  0  0
  -29.6044  -13.4474   17.7118 H   0  0  0  0  0  0
  -27.9105  -11.2465   18.9414 H   0  0  0  0  0  0
  -27.3566  -12.4795   17.8360 H   0  0  0  0  0  0
  -27.6292  -14.1899   19.4721 H   0  0  0  0  0  0
  -28.7632  -12.1588   21.4429 H   0  0  0  0  0  0
  -28.4282  -13.8290   21.8192 H   0  0  0  0  0  0
  -25.2740   -9.5677   22.4759 H   0  0  0  0  0  0
  -24.0040   -7.4595   22.7442 H   0  0  0  0  0  0
  -21.0815   -8.8764   19.8924 H   0  0  0  0  0  0
  -22.3670  -10.9687   19.6182 H   0  0  0  0  0  0
  -21.2033   -7.6151   23.9710 H   0  0  0  0  0  0
  -21.1440   -6.0516   25.9070 H   0  0  0  0  0  0
  -22.0614   -2.7601   23.2881 H   0  0  0  0  0  0
  -22.4186  -11.9828   22.4646 H   0  0  0  0  0  0
  -21.1178  -13.1243   22.2642 H   0  0  0  0  0  0
  -24.6812  -15.8307   20.5578 H   0  0  0  0  0  0
  -26.3322  -15.6224   20.2808 H   0  0  0  0  0  0
  -26.7185  -32.5385   23.1084 H   0  0  0  0  0  0
  -25.0031  -33.9683   25.0381 H   0  0  0  0  0  0
  -22.7213  -31.2983   21.3939 H   0  0  0  0  0  0
  -23.3749  -35.9619   23.3299 H   0  0  0  0  0  0
  -24.3583  -36.8908   22.2060 H   0  0  0  0  0  0
  -23.7240  -37.6482   23.6665 H   0  0  0  0  0  0
  -26.1127  -31.5291   20.6100 H   0  0  0  0  0  0
  -26.8459  -30.8145   22.0174 H   0  0  0  0  0  0
  -28.1121  -28.9316   21.2157 H   0  0  0  0  0  0
  -25.9692  -25.9406   18.9361 H   0  0  0  0  0  0
  -23.9830  -27.3165   18.9810 H   0  0  0  0  0  0
  -23.7730  -30.5902   19.4059 H   0  0  0  0  0  0
  -22.7655  -29.2473   19.8462 H   0  0  0  0  0  0
  -25.1286  -36.1920   25.0830 H   0  0  0  0  0  0
  -20.9999  -28.3337   24.1439 H   0  0  0  0  0  0
  -20.5742  -26.2290   23.3710 H   0  0  0  0  0  0
  -21.6625  -26.7371   22.1242 H   0  0  0  0  0  0
  -19.6899  -25.6191   21.1403 H   0  0  0  0  0  0
  -19.6724  -27.3051   20.6787 H   0  0  0  0  0  0
  -17.4201  -26.6588   21.4126 H   0  0  0  0  0  0
  -18.0352  -26.0112   22.9187 H   0  0  0  0  0  0
  -19.7892  -30.7309   24.2304 H   0  0  0  0  0  0
  -17.4963  -31.6270   24.5131 H   0  0  0  0  0  0
  -15.5352  -30.3021   23.7552 H   0  0  0  0  0  0
  -15.8684  -28.0824   22.7040 H   0  0  0  0  0  0
  -24.5898  -30.7062   25.7794 H   0  0  0  0  0  0
  -24.8897  -32.2882   26.4871 H   0  0  0  0  0  0
  -25.8028  -30.8910   27.0246 H   0  0  0  0  0  0
  -26.2976  -29.6720   24.1230 H   0  0  0  0  0  0
  -27.4000  -29.7260   25.4786 H   0  0  0  0  0  0
  -27.8857  -30.4264   23.9532 H   0  0  0  0  0  0
  -27.2686  -33.3603   26.2074 H   0  0  0  0  0  0
  -28.3858  -32.6845   25.0312 H   0  0  0  0  0  0
  -28.0734  -31.8422   26.5407 H   0  0  0  0  0  0
  -28.2589  -38.0096   24.7503 H   0  0  0  0  0  0
  -28.1073  -36.2625   24.6294 H   0  0  0  0  0  0
  -27.2304  -37.1446   25.8876 H   0  0  0  0  0  0
  -20.9363  -29.8719   21.6863 H   0  0  0  0  0  0
  -26.0172  -38.2840   24.1394 H   0  0  0  0  0  0
  -27.5107  -20.3338   18.9593 H   0  0  0  0  0  0
  -27.8663  -16.1362   19.2409 H   0  0  0  0  0  0
  -30.6784  -18.6309   21.3624 H   0  0  0  0  0  0
  -27.1627  -23.1539   23.4107 H   0  0  0  0  0  0
  -27.1679  -22.1974   21.9426 H   0  0  0  0  0  0
  -26.5679  -23.8492   21.9194 H   0  0  0  0  0  0
  -31.3077  -23.5615   20.9215 H   0  0  0  0  0  0
  -30.7707  -25.2326   20.9309 H   0  0  0  0  0  0
  -30.9450  -24.3795   19.4072 H   0  0  0  0  0  0
  -23.7720  -20.5638   19.0611 H   0  0  0  0  0  0
  -24.6127  -20.2519   17.5525 H   0  0  0  0  0  0
  -25.4753  -20.8931   18.9415 H   0  0  0  0  0  0
  -22.8401  -18.3533   19.2996 H   0  0  0  0  0  0
  -23.7917  -16.8917   19.1268 H   0  0  0  0  0  0
  -23.4989  -17.9265   17.7331 H   0  0  0  0  0  0
  -24.2577  -19.1238   21.1524 H   0  0  0  0  0  0
  -25.9554  -19.4800   20.9611 H   0  0  0  0  0  0
  -25.4208  -17.8128   21.0683 H   0  0  0  0  0  0
  -26.3099  -18.5594   17.3637 H   0  0  0  0  0  0
  -26.0312  -17.0677   18.1724 H   0  0  0  0  0  0
  -29.4731  -23.0876   22.5693 H   0  0  0  0  0  0
  -28.8637  -24.7054   22.4883 H   0  0  0  0  0  0
  -27.2292  -24.6033   19.9074 H   0  0  0  0  0  0
  -28.4585  -24.9209   18.7466 H   0  0  0  0  0  0
  -29.9947  -21.2844   21.3744 H   0  0  0  0  0  0
  -29.1362  -15.4996   21.5386 H   0  0  0  0  0  0
  1 25  1  0  0  0
  1 30  2  0  0  0
  1 89  1  0  0  0
  2  3  1  0  0  0
  2 25  1  0  0  0
  2 91  1  0  0  0
  2 92  1  0  0  0
  3  4  1  0  0  0
  3 93  1  0  0  0
  3 94  1  0  0  0
  4  5  1  0  0  0
  4 95  1  0  0  0
  4 96  1  0  0  0
  5  6  1  0  0  0
  5 26  1  0  0  0
  5 97  1  0  0  0
  6 25  1  0  0  0
  6 98  1  0  0  0
  6 99  1  0  0  0
  7  8  2  0  0  0
  7 26  1  0  0  0
  7 29  1  0  0  0
  8  9  1  0  0  0
  8 22  1  0  0  0
  9 10  1  0  0  0
  9 27  2  0  0  0
 10 11  2  0  0  0
 10 15  1  0  0  0
 11 12  1  0  0  0
 11100  1  0  0  0
 12 13  2  0  0  0
 12101  1  0  0  0
 13 14  1  0  0  0
 13 31  1  0  0  0
 14 15  2  0  0  0
 14102  1  0  0  0
 15103  1  0  0  0
 16 17  2  0  0  0
 16 21  1  0  0  0
 16 31  1  0  0  0
 17 18  1  0  0  0
 17104  1  0  0  0
 18 19  2  0  0  0
 18105  1  0  0  0
 19 20  1  0  0  0
 19 24  1  0  0  0
 20 21  2  0  0  0
 20106  1  0  0  0
 21 23  1  0  0  0
 22 28  1  0  0  0
 22 32  2  0  0  0
 26 27  1  0  0  0
 28107  1  0  0  0
 28108  1  0  0  0
 29109  1  0  0  0
 29110  1  0  0  0
 33 34  1  0  0  0
 33 66  1  0  0  0
 33 70  2  0  0  0
 34 36  1  0  0  0
 34 59  1  0  0  0
 34111  1  0  0  0
 35 44  2  0  0  0
 35 45  1  0  0  0
 35 68  1  0  0  0
 36 56  1  0  0  0
 36112  1  0  0  0
 37 39  1  0  0  0
 37 47  1  0  0  0
 37 66  1  0  0  0
 37113  1  0  0  0
 38 43  2  0  0  0
 38 46  1  0  0  0
 38 47  1  0  0  0
 39 64  1  0  0  0
 39 67  2  0  0  0
 40 52  1  0  0  0
 40 53  2  0  0  0
 40 58  1  0  0  0
 41114  1  0  0  0
 41115  1  0  0  0
 41116  1  0  0  0
 41 48  1  0  0  0
 42 43  1  0  0  0
 42 66  1  0  0  0
 42117  1  0  0  0
 42118  1  0  0  0
 43 44  1  0  0  0
 44119  1  0  0  0
 45 46  2  0  0  0
 45120  1  0  0  0
 46121  1  0  0  0
 47122  1  0  0  0
 47123  1  0  0  0
 48 56  1  0  0  0
 48 65  1  0  0  0
 48124  1  0  0  0
 49 50  1  0  0  0
 49 53  1  0  0  0
 49 64  1  0  0  0
 49125  1  0  0  0
 50 51  1  0  0  0
 50126  1  0  0  0
 50127  1  0  0  0
 51 52  1  0  0  0
 51128  1  0  0  0
 51129  1  0  0  0
 52130  1  0  0  0
 52131  1  0  0  0
 53 54  1  0  0  0
 54 55  2  0  0  0
 54132  1  0  0  0
 55 57  1  0  0  0
 55133  1  0  0  0
 56 69  2  0  0  0
 57 58  2  0  0  0
 57134  1  0  0  0
 58135  1  0  0  0
 59 60  1  0  0  0
 59 61  1  0  0  0
 59 62  1  0  0  0
 60136  1  0  0  0
 60137  1  0  0  0
 60138  1  0  0  0
 61139  1  0  0  0
 61140  1  0  0  0
 61141  1  0  0  0
 62142  1  0  0  0
 62143  1  0  0  0
 62144  1  0  0  0
 63 65  1  0  0  0
 63145  1  0  0  0
 63146  1  0  0  0
 63147  1  0  0  0
 64148  1  0  0  0
 65149  1  0  0  0
 68 85  1  0  0  0
 71 74  2  0  0  0
 71 75  1  0  0  0
 71150  1  0  0  0
 72 74  1  0  0  0
 72 76  2  0  0  0
 72151  1  0  0  0
 73 75  2  0  0  0
 73 76  1  0  0  0
 73152  1  0  0  0
 74 83  1  0  0  0
 75 88  1  0  0  0
 76 89  1  0  0  0
 77 88  1  0  0  0
 77 90  2  0  0  0
 77 86  1  0  0  0
 78 84  1  0  0  0
 78153  1  0  0  0
 78154  1  0  0  0
 78155  1  0  0  0
 79156  1  0  0  0
 79157  1  0  0  0
 79158  1  0  0  0
 79 86  1  0  0  0
 80159  1  0  0  0
 80160  1  0  0  0
 80161  1  0  0  0
 80 87  1  0  0  0
 81 87  1  0  0  0
 81162  1  0  0  0
 81163  1  0  0  0
 81164  1  0  0  0
 82 87  1  0  0  0
 82165  1  0  0  0
 82166  1  0  0  0
 82167  1  0  0  0
 83 87  1  0  0  0
 83168  1  0  0  0
 83169  1  0  0  0
 84 86  1  0  0  0
 84170  1  0  0  0
 84171  1  0  0  0
 85 86  1  0  0  0
 85172  1  0  0  0
 85173  1  0  0  0
 88174  1  0  0  0
 89175  1  0  0  0
M  ISO  4   1 100  68 101  85 101  89 100
M  END
> <chiral flag>
0

> <version>
0

> <s_m_source_file>
/data/baiqing/PycharmProjects/Reinvent-master-3.2/result/LINK_invent/BTK/process_docking_weight1_custom_product_contain_oxygen_bond_distance_aromatic_linkinvent_7_9_3/rearranged_h_0164.sdf

> <i_m_source_file_index>
58

> <r_mmod_Potential_Energy-OPLS-2005>
303.803771972656

> <r_mmod_Stretch_Energy-OPLS-2005>
144.955978393555

> <r_mmod_Bend_Energy-OPLS-2005>
195.792633056641

> <r_mmod_Torsional_Energy-OPLS-2005>
292.464477539062

> <r_mmod_Improper_Torsional_Energy-OPLS-2005>
8.15488243103027

> <r_mmod_Van_der_Waal_Energy-OPLS-2005>
142.627426147461

> <r_mmod_Electrostatic_Energy-OPLS-2005>
-361.153686523438

> <r_mmod_Solvation_Energy-OPLS-2005>
-210.42919921875

> <b_mmod_Minimization_Converged-OPLS-2005>
0

> <r_mmod_RMS_Derivative-OPLS-2005>
3.38922882080078

$$$$
58
                    3D
 Structure written by MMmdl.
159167  0  0  1  0            999 V2000
  -30.6446  -14.6185   20.5439 C   0  0  0  0  0  0
  -30.4455  -12.3883   19.4626 C   0  0  0  0  0  0
  -29.5173  -12.4945   18.2310 C   0  0  0  0  0  0
  -28.0455  -12.2903   18.6415 C   0  0  0  0  0  0
  -27.6532  -13.1628   19.8567 C   0  0  2  0  0  0
  -28.6948  -13.0577   20.9978 C   0  0  0  0  0  0
  -25.2558  -13.7968   20.5624 C   0  0  0  0  0  0
  -24.1822  -13.0327   20.9245 C   0  0  0  0  0  0
  -24.6339  -11.6800   20.8782 C   0  0  0  0  0  0
  -23.9010  -10.4239   21.0446 C   0  0  0  0  0  0
  -24.3576   -9.4162   21.9213 C   0  0  0  0  0  0
  -23.6263   -8.2204   22.0772 C   0  0  0  0  0  0
  -22.4245   -8.0258   21.3560 C   0  0  0  0  0  0
  -21.9863   -9.0235   20.4662 C   0  0  0  0  0  0
  -22.7201  -10.2105   20.3082 C   0  0  0  0  0  0
  -21.6835   -6.0717   22.5271 C   0  0  0  0  0  0
  -21.4004   -6.5624   23.8201 C   0  0  0  0  0  0
  -21.3664   -5.6778   24.9168 C   0  0  0  0  0  0
  -21.6047   -4.3042   24.7215 C   0  0  0  0  0  0
  -21.8830   -3.8136   23.4340 C   0  0  0  0  0  0
  -21.9194   -4.6957   22.3392 C   0  0  0  0  0  0
  -22.7864  -13.5198   21.1891 C   0  0  0  0  0  0
  -22.1666   -4.2150   21.0972 F   0  0  0  0  0  0
  -21.5632   -3.4526   25.7728 F   0  0  0  0  0  0
  -30.0211  -13.3997   20.4530 N   0  0  0  0  0  0
  -26.2947  -12.9073   20.3211 N   0  0  0  0  0  0
  -25.9233  -11.6294   20.5724 N   0  0  0  0  0  0
  -22.0444  -12.8248   22.0445 N   0  0  0  0  0  0
  -25.4126  -15.1659   20.3867 N   0  0  0  0  0  0
  -31.7604  -14.8130   20.0543 O   0  0  0  0  0  0
  -21.6630   -6.8855   21.4234 O   0  0  0  0  0  0
  -22.3622  -14.5528   20.6721 O   0  0  0  0  0  0
  -24.6180  -31.8636   23.2051 C   0  0  0  0  0  0
  -25.9051  -32.4806   23.8366 C   0  0  1  0  0  0
  -27.2513  -27.3976   20.1172 C   0  0  0  0  0  0
  -25.5889  -33.8602   24.2302 N   0  0  0  0  0  0
  -23.4082  -30.4850   21.5440 C   0  0  2  0  0  0
  -24.8593  -28.9377   20.1174 C   0  0  0  0  0  0
  -22.7423  -29.4633   22.4950 C   0  0  0  0  0  0
  -18.0269  -28.1391   22.8483 C   0  0  0  0  0  0
  -24.1478  -36.7318   23.2635 C   0  0  0  0  0  0
  -25.9375  -30.8238   21.3566 C   0  0  0  0  0  0
  -26.0186  -29.4507   20.7118 C   0  0  0  0  0  0
  -27.2142  -28.6915   20.6986 C   0  0  0  0  0  0
  -26.0715  -26.9008   19.5204 C   0  0  0  0  0  0
  -24.8838  -27.6651   19.5162 C   0  0  0  0  0  0
  -23.6234  -29.8124   20.1603 C   0  0  0  0  0  0
  -25.4095  -36.3101   24.0333 C   0  0  1  0  0  0
  -20.5861  -28.3678   23.1312 C   0  0  2  0  0  0
  -20.6759  -26.9409   22.5423 C   0  0  0  0  0  0
  -19.5742  -26.6390   21.5210 C   0  0  0  0  0  0
  -18.1917  -26.7935   22.1617 C   0  0  0  0  0  0
  -19.1522  -28.8843   23.2902 C   0  0  0  0  0  0
  -18.9452  -30.1442   23.8930 C   0  0  0  0  0  0
  -17.6460  -30.6589   24.0569 C   0  0  0  0  0  0
  -25.9025  -34.9469   23.5119 C   0  0  0  0  0  0
  -16.5351  -29.9106   23.6312 C   0  0  0  0  0  0
  -16.7261  -28.6522   23.0332 C   0  0  0  0  0  0
  -26.4466  -31.6589   25.0704 C   0  0  0  0  0  0
  -25.3737  -31.3700   26.1460 C   0  0  0  0  0  0
  -27.0291  -30.3035   24.6068 C   0  0  0  0  0  0
  -27.6035  -32.4297   25.7489 C   0  0  0  0  0  0
  -27.5568  -37.1819   24.8458 C   0  0  0  0  0  0
  -21.4140  -29.3045   22.3712 N   0  0  0  0  0  0
  -26.4276  -37.3794   23.9408 N   0  0  0  0  0  0
  -24.6729  -31.0720   22.0946 N   0  0  0  0  0  0
  -23.4183  -28.8158   23.2988 O   0  0  0  0  0  0
  -28.4439  -26.6884   20.1222 O   0  0  0  0  0  0
  -26.5597  -34.8921   22.4685 O   0  0  0  0  0  0
  -23.5365  -32.1391   23.7433 O   0  0  0  0  0  0
  -28.3453  -16.9616   19.9164 C   0  0  0  0  0  0
  -28.3949  -19.3835   19.7380 C   0  0  0  0  0  0
  -30.1848  -18.1793   20.9059 C   0  0  0  0  0  0
  -27.7626  -18.1602   19.4735 C   0  0  0  0  0  0
  -29.5634  -16.9159   20.6195 C   0  0  0  0  0  0
  -29.5980  -19.4257   20.4742 C   0  0  0  0  0  0
  -26.4730  -18.1280   18.7894 C   0  0  0  0  0  0
  -30.2979  -23.2553   20.8568 C   0  0  0  0  0  0
  -29.9088  -24.7408   20.4448 C   0  0  0  0  0  0
  -29.4691  -21.9967   20.4817 C   0  0  0  0  0  0
  -28.4536  -25.2321   20.1886 C   0  0  0  0  0  0
  -26.2146  -17.1909   17.8806 N   0  0  0  0  0  0
  -29.9497  -15.6177   21.1603 N   0  0  0  0  0  0
  -30.1563  -20.6980   20.7765 N   0  0  0  0  0  0
  -25.5252  -19.0116   19.0929 N   0  3  0  0  0  0
  -31.3422  -23.0807   21.5049 O   0  0  0  0  0  0
  -30.8335  -25.5600   20.3284 O   0  0  0  0  0  0
  -31.4881  -12.5134   19.1655 H   0  0  0  0  0  0
  -30.3828  -11.3914   19.8980 H   0  0  0  0  0  0
  -29.8012  -11.7549   17.4801 H   0  0  0  0  0  0
  -29.6396  -13.4702   17.7577 H   0  0  0  0  0  0
  -27.9060  -11.2365   18.8824 H   0  0  0  0  0  0
  -27.3903  -12.5010   17.7958 H   0  0  0  0  0  0
  -27.6599  -14.1595   19.4539 H   0  0  0  0  0  0
  -28.7127  -12.0435   21.3992 H   0  0  0  0  0  0
  -28.4113  -13.6964   21.8355 H   0  0  0  0  0  0
  -25.2716   -9.5655   22.4785 H   0  0  0  0  0  0
  -23.9981   -7.4593   22.7472 H   0  0  0  0  0  0
  -21.0797   -8.8764   19.8955 H   0  0  0  0  0  0
  -22.3673  -10.9658   19.6199 H   0  0  0  0  0  0
  -21.1990   -7.6128   23.9708 H   0  0  0  0  0  0
  -21.1473   -6.0503   25.9068 H   0  0  0  0  0  0
  -22.0604   -2.7601   23.2839 H   0  0  0  0  0  0
  -22.3969  -11.9897   22.4869 H   0  0  0  0  0  0
  -21.1091  -13.1367   22.2617 H   0  0  0  0  0  0
  -24.5662  -15.7238   20.4072 H   0  0  0  0  0  0
  -26.0513  -15.4878   19.6753 H   0  0  0  0  0  0
  -26.7124  -32.5511   23.1133 H   0  0  0  0  0  0
  -25.0046  -33.9756   25.0452 H   0  0  0  0  0  0
  -22.6973  -31.3015   21.4008 H   0  0  0  0  0  0
  -23.3729  -35.9662   23.3303 H   0  0  0  0  0  0
  -24.3578  -36.8935   22.2050 H   0  0  0  0  0  0
  -23.7250  -37.6527   23.6658 H   0  0  0  0  0  0
  -26.0400  -31.5831   20.5793 H   0  0  0  0  0  0
  -26.8285  -30.8916   21.9697 H   0  0  0  0  0  0
  -28.1110  -29.0920   21.1493 H   0  0  0  0  0  0
  -26.0626  -25.9304   19.0446 H   0  0  0  0  0  0
  -23.9931  -27.2667   19.0492 H   0  0  0  0  0  0
  -23.7449  -30.5877   19.4027 H   0  0  0  0  0  0
  -22.7444  -29.2421   19.8545 H   0  0  0  0  0  0
  -25.1273  -36.1960   25.0827 H   0  0  0  0  0  0
  -20.9955  -28.3255   24.1430 H   0  0  0  0  0  0
  -20.5638  -26.2286   23.3613 H   0  0  0  0  0  0
  -21.6636  -26.7436   22.1236 H   0  0  0  0  0  0
  -19.6898  -25.6298   21.1239 H   0  0  0  0  0  0
  -19.6680  -27.3194   20.6732 H   0  0  0  0  0  0
  -17.4181  -26.6672   21.4025 H   0  0  0  0  0  0
  -18.0320  -26.0083   22.9018 H   0  0  0  0  0  0
  -19.7928  -30.7238   24.2334 H   0  0  0  0  0  0
  -17.5018  -31.6271   24.5175 H   0  0  0  0  0  0
  -15.5356  -30.3028   23.7607 H   0  0  0  0  0  0
  -15.8655  -28.0854   22.7036 H   0  0  0  0  0  0
  -24.5912  -30.7031   25.7819 H   0  0  0  0  0  0
  -24.8924  -32.2857   26.4902 H   0  0  0  0  0  0
  -25.8105  -30.8891   27.0225 H   0  0  0  0  0  0
  -26.2836  -29.6814   24.1102 H   0  0  0  0  0  0
  -27.4049  -29.7240   25.4511 H   0  0  0  0  0  0
  -27.8667  -30.4351   23.9216 H   0  0  0  0  0  0
  -27.2653  -33.3587   26.2087 H   0  0  0  0  0  0
  -28.3858  -32.6869   25.0337 H   0  0  0  0  0  0
  -28.0688  -31.8406   26.5404 H   0  0  0  0  0  0
  -28.2588  -38.0113   24.7500 H   0  0  0  0  0  0
  -28.1063  -36.2650   24.6281 H   0  0  0  0  0  0
  -27.2297  -37.1470   25.8864 H   0  0  0  0  0  0
  -20.9283  -29.8829   21.6998 H   0  0  0  0  0  0
  -26.0158  -38.2864   24.1425 H   0  0  0  0  0  0
  -27.7916  -16.0682   19.7518 H   0  0  0  0  0  0
  -27.9225  -20.2878   19.3828 H   0  0  0  0  0  0
  -31.0893  -18.1983   21.4968 H   0  0  0  0  0  0
  -29.2340  -22.0664   19.4185 H   0  0  0  0  0  0
  -28.5283  -22.0445   21.0309 H   0  0  0  0  0  0
  -27.8064  -24.8871   20.9951 H   0  0  0  0  0  0
  -28.0891  -24.8068   19.2540 H   0  0  0  0  0  0
  -26.9701  -16.6101   17.5472 H   0  0  0  0  0  0
  -25.3224  -17.1115   17.4188 H   0  0  0  0  0  0
  -29.2046  -15.2040   21.6984 H   0  0  0  0  0  0
  -31.0078  -20.7665   21.3311 H   0  0  0  0  0  0
  -25.6877  -19.6660   19.8432 H   0  0  0  0  0  0
  -24.6222  -19.0157   18.6475 H   0  0  0  0  0  0
  1 25  1  0  0  0
  1 30  2  0  0  0
  1 83  1  0  0  0
  2  3  1  0  0  0
  2 25  1  0  0  0
  2 88  1  0  0  0
  2 89  1  0  0  0
  3  4  1  0  0  0
  3 90  1  0  0  0
  3 91  1  0  0  0
  4  5  1  0  0  0
  4 92  1  0  0  0
  4 93  1  0  0  0
  5  6  1  0  0  0
  5 26  1  0  0  0
  5 94  1  0  0  0
  6 25  1  0  0  0
  6 95  1  0  0  0
  6 96  1  0  0  0
  7  8  2  0  0  0
  7 26  1  0  0  0
  7 29  1  0  0  0
  8  9  1  0  0  0
  8 22  1  0  0  0
  9 10  1  0  0  0
  9 27  2  0  0  0
 10 11  2  0  0  0
 10 15  1  0  0  0
 11 12  1  0  0  0
 11 97  1  0  0  0
 12 13  2  0  0  0
 12 98  1  0  0  0
 13 14  1  0  0  0
 13 31  1  0  0  0
 14 15  2  0  0  0
 14 99  1  0  0  0
 15100  1  0  0  0
 16 17  2  0  0  0
 16 21  1  0  0  0
 16 31  1  0  0  0
 17 18  1  0  0  0
 17101  1  0  0  0
 18 19  2  0  0  0
 18102  1  0  0  0
 19 20  1  0  0  0
 19 24  1  0  0  0
 20 21  2  0  0  0
 20103  1  0  0  0
 21 23  1  0  0  0
 22 28  1  0  0  0
 22 32  2  0  0  0
 26 27  1  0  0  0
 28104  1  0  0  0
 28105  1  0  0  0
 29106  1  0  0  0
 29107  1  0  0  0
 33 34  1  0  0  0
 33 66  1  0  0  0
 33 70  2  0  0  0
 34 36  1  0  0  0
 34 59  1  0  0  0
 34108  1  0  0  0
 35 44  2  0  0  0
 35 45  1  0  0  0
 35 68  1  0  0  0
 36 56  1  0  0  0
 36109  1  0  0  0
 37 39  1  0  0  0
 37 47  1  0  0  0
 37 66  1  0  0  0
 37110  1  0  0  0
 38 43  2  0  0  0
 38 46  1  0  0  0
 38 47  1  0  0  0
 39 64  1  0  0  0
 39 67  2  0  0  0
 40 52  1  0  0  0
 40 53  2  0  0  0
 40 58  1  0  0  0
 41111  1  0  0  0
 41112  1  0  0  0
 41113  1  0  0  0
 41 48  1  0  0  0
 42 43  1  0  0  0
 42 66  1  0  0  0
 42114  1  0  0  0
 42115  1  0  0  0
 43 44  1  0  0  0
 44116  1  0  0  0
 45 46  2  0  0  0
 45117  1  0  0  0
 46118  1  0  0  0
 47119  1  0  0  0
 47120  1  0  0  0
 48 56  1  0  0  0
 48 65  1  0  0  0
 48121  1  0  0  0
 49 50  1  0  0  0
 49 53  1  0  0  0
 49 64  1  0  0  0
 49122  1  0  0  0
 50 51  1  0  0  0
 50123  1  0  0  0
 50124  1  0  0  0
 51 52  1  0  0  0
 51125  1  0  0  0
 51126  1  0  0  0
 52127  1  0  0  0
 52128  1  0  0  0
 53 54  1  0  0  0
 54 55  2  0  0  0
 54129  1  0  0  0
 55 57  1  0  0  0
 55130  1  0  0  0
 56 69  2  0  0  0
 57 58  2  0  0  0
 57131  1  0  0  0
 58132  1  0  0  0
 59 60  1  0  0  0
 59 61  1  0  0  0
 59 62  1  0  0  0
 60133  1  0  0  0
 60134  1  0  0  0
 60135  1  0  0  0
 61136  1  0  0  0
 61137  1  0  0  0
 61138  1  0  0  0
 62139  1  0  0  0
 62140  1  0  0  0
 62141  1  0  0  0
 63 65  1  0  0  0
 63142  1  0  0  0
 63143  1  0  0  0
 63144  1  0  0  0
 64145  1  0  0  0
 65146  1  0  0  0
 68 81  1  0  0  0
 71 74  2  0  0  0
 71 75  1  0  0  0
 71147  1  0  0  0
 72 74  1  0  0  0
 72 76  2  0  0  0
 72148  1  0  0  0
 73 75  2  0  0  0
 73 76  1  0  0  0
 73149  1  0  0  0
 74 77  1  0  0  0
 75 83  1  0  0  0
 76 84  1  0  0  0
 77 82  1  0  0  0
 77 85  2  0  0  0
 78 79  1  0  0  0
 78 80  1  0  0  0
 78 86  2  0  0  0
 79 81  1  0  0  0
 79 87  2  0  0  0
 80 84  1  0  0  0
 80150  1  0  0  0
 80151  1  0  0  0
 81152  1  0  0  0
 81153  1  0  0  0
 82154  1  0  0  0
 82155  1  0  0  0
 83156  1  0  0  0
 84157  1  0  0  0
 85158  1  0  0  0
 85159  1  0  0  0
M  CHG  1  85   1
M  ISO  4   1 100  68 101  81 101  83 100
M  END
> <chiral flag>
0

> <version>
0

> <s_m_source_file>
/data/baiqing/PycharmProjects/Reinvent-master-3.2/result/LINK_invent/BTK/process_docking_weight1_custom_product_contain_oxygen_bond_distance_aromatic_linkinvent_7_9_3/rearranged_h_0164.sdf

> <i_m_source_file_index>
59

> <r_mmod_Potential_Energy-OPLS-2005>
-161.171264648438

> <r_mmod_Stretch_Energy-OPLS-2005>
64.3355941772461

> <r_mmod_Bend_Energy-OPLS-2005>
139.893203735352

> <r_mmod_Torsional_Energy-OPLS-2005>
258.771240234375

> <r_mmod_Improper_Torsional_Energy-OPLS-2005>
11.3866968154907

> <r_mmod_Van_der_Waal_Energy-OPLS-2005>
146.50666809082

> <r_mmod_Electrostatic_Energy-OPLS-2005>
-277.615570068359

> <r_mmod_Solvation_Energy-OPLS-2005>
-536.5087890625

> <b_mmod_Minimization_Converged-OPLS-2005>
0

> <r_mmod_RMS_Derivative-OPLS-2005>
2.37085914611816

$$$$
59
                    3D
 Structure written by MMmdl.
155163  0  0  1  0            999 V2000
  -30.7134  -14.4893   20.5655 C   0  0  0  0  0  0
  -30.4180  -12.3161   19.4304 C   0  0  0  0  0  0
  -29.4942  -12.5016   18.2099 C   0  0  0  0  0  0
  -28.0165  -12.3594   18.6232 C   0  0  0  0  0  0
  -27.6587  -13.2109   19.8709 C   0  0  2  0  0  0
  -28.7011  -13.0196   20.9966 C   0  0  0  0  0  0
  -25.2578  -13.8168   20.5683 C   0  0  0  0  0  0
  -24.1836  -13.0442   20.9189 C   0  0  0  0  0  0
  -24.6394  -11.6909   20.8740 C   0  0  0  0  0  0
  -23.9061  -10.4294   21.0407 C   0  0  0  0  0  0
  -24.3614   -9.4210   21.9185 C   0  0  0  0  0  0
  -23.6291   -8.2244   22.0754 C   0  0  0  0  0  0
  -22.4273   -8.0282   21.3545 C   0  0  0  0  0  0
  -21.9908   -9.0255   20.4647 C   0  0  0  0  0  0
  -22.7234  -10.2136   20.3056 C   0  0  0  0  0  0
  -21.6854   -6.0736   22.5281 C   0  0  0  0  0  0
  -21.4013   -6.5640   23.8214 C   0  0  0  0  0  0
  -21.3658   -5.6792   24.9175 C   0  0  0  0  0  0
  -21.6044   -4.3055   24.7226 C   0  0  0  0  0  0
  -21.8819   -3.8147   23.4348 C   0  0  0  0  0  0
  -21.9193   -4.6964   22.3404 C   0  0  0  0  0  0
  -22.7859  -13.5242   21.1847 C   0  0  0  0  0  0
  -22.1663   -4.2150   21.0982 F   0  0  0  0  0  0
  -21.5628   -3.4539   25.7738 F   0  0  0  0  0  0
  -30.0298  -13.3176   20.4385 N   0  0  0  0  0  0
  -26.3012  -12.9345   20.3352 N   0  0  0  0  0  0
  -25.9322  -11.6502   20.5768 N   0  0  0  0  0  0
  -22.0494  -12.8234   22.0398 N   0  0  0  0  0  0
  -25.4296  -15.1886   20.4075 N   0  0  0  0  0  0
  -31.8439  -14.6362   20.0935 O   0  0  0  0  0  0
  -21.6639   -6.8878   21.4242 O   0  0  0  0  0  0
  -22.3550  -14.5551   20.6697 O   0  0  0  0  0  0
  -24.6160  -31.8668   23.2091 C   0  0  0  0  0  0
  -25.9046  -32.4816   23.8393 C   0  0  1  0  0  0
  -27.2303  -27.4242   20.1019 C   0  0  0  0  0  0
  -25.5897  -33.8614   24.2324 N   0  0  0  0  0  0
  -23.4054  -30.4905   21.5491 C   0  0  2  0  0  0
  -24.8538  -28.9578   20.1107 C   0  0  0  0  0  0
  -22.7424  -29.4651   22.4973 C   0  0  0  0  0  0
  -18.0275  -28.1378   22.8491 C   0  0  0  0  0  0
  -24.1485  -36.7312   23.2638 C   0  0  0  0  0  0
  -25.9357  -30.8312   21.3631 C   0  0  0  0  0  0
  -26.0155  -29.4658   20.7078 C   0  0  0  0  0  0
  -27.2113  -28.7077   20.6980 C   0  0  0  0  0  0
  -26.0568  -26.9378   19.4886 C   0  0  0  0  0  0
  -24.8703  -27.6944   19.4948 C   0  0  0  0  0  0
  -23.6150  -29.8242   20.1632 C   0  0  0  0  0  0
  -25.4105  -36.3107   24.0338 C   0  0  1  0  0  0
  -20.5869  -28.3665   23.1312 C   0  0  2  0  0  0
  -20.6763  -26.9399   22.5415 C   0  0  0  0  0  0
  -19.5741  -26.6387   21.5211 C   0  0  0  0  0  0
  -18.1921  -26.7926   22.1624 C   0  0  0  0  0  0
  -19.1526  -28.8838   23.2899 C   0  0  0  0  0  0
  -18.9452  -30.1445   23.8908 C   0  0  0  0  0  0
  -17.6452  -30.6582   24.0566 C   0  0  0  0  0  0
  -25.9032  -34.9471   23.5128 C   0  0  0  0  0  0
  -16.5343  -29.9083   23.6329 C   0  0  0  0  0  0
  -16.7264  -28.6503   23.0347 C   0  0  0  0  0  0
  -26.4472  -31.6594   25.0721 C   0  0  0  0  0  0
  -25.3741  -31.3698   26.1472 C   0  0  0  0  0  0
  -27.0299  -30.3035   24.6092 C   0  0  0  0  0  0
  -27.6050  -32.4310   25.7483 C   0  0  0  0  0  0
  -27.5579  -37.1810   24.8465 C   0  0  0  0  0  0
  -21.4149  -29.3031   22.3717 N   0  0  0  0  0  0
  -26.4291  -37.3791   23.9410 N   0  0  0  0  0  0
  -24.6708  -31.0765   22.0991 N   0  0  0  0  0  0
  -23.4193  -28.8188   23.3013 O   0  0  0  0  0  0
  -28.3508  -26.6214   20.1384 O   0  0  0  0  0  0
  -26.5596  -34.8922   22.4691 O   0  0  0  0  0  0
  -23.5349  -32.1415   23.7481 O   0  0  0  0  0  0
  -32.1820  -18.6015   21.5652 C   0  0  0  0  0  0
  -31.2181  -19.6262   21.5174 C   0  0  0  0  0  0
  -31.8001  -17.2539   21.4259 C   0  0  0  0  0  0
  -29.4780  -17.9467   21.1737 C   0  0  0  0  0  0
  -29.8554  -19.3128   21.3277 C   0  0  0  0  0  0
  -30.4434  -16.9016   21.2143 C   0  0  0  0  0  0
  -28.8533  -20.4007   21.3696 C   0  0  0  0  0  0
  -28.8076  -24.1648   20.4753 C   0  0  0  0  0  0
  -28.2174  -22.8419   21.0142 C   0  0  0  0  0  0
  -28.1623  -25.4713   20.9971 C   0  0  0  0  0  0
  -30.0237  -15.5293   21.0913 N   0  0  0  0  0  0
  -29.0937  -21.6400   20.8874 N   0  0  0  0  0  0
  -27.6782  -20.1655   21.9510 N   0  3  0  0  0  0
  -29.7644  -24.1618   19.6907 O   0  0  0  0  0  0
  -31.4634  -12.4028   19.1289 H   0  0  0  0  0  0
  -30.3121  -11.3111   19.8418 H   0  0  0  0  0  0
  -29.7378  -11.7704   17.4379 H   0  0  0  0  0  0
  -29.6607  -13.4837   17.7643 H   0  0  0  0  0  0
  -27.8329  -11.3046   18.8310 H   0  0  0  0  0  0
  -27.3644  -12.6209   17.7891 H   0  0  0  0  0  0
  -27.6949  -14.2544   19.5574 H   0  0  0  0  0  0
  -28.6803  -11.9927   21.3643 H   0  0  0  0  0  0
  -28.4622  -13.6435   21.8589 H   0  0  0  0  0  0
  -25.2761   -9.5686   22.4758 H   0  0  0  0  0  0
  -24.0002   -7.4636   22.7472 H   0  0  0  0  0  0
  -21.0841   -8.8772   19.8954 H   0  0  0  0  0  0
  -22.3693  -10.9673   19.6163 H   0  0  0  0  0  0
  -21.2004   -7.6147   23.9716 H   0  0  0  0  0  0
  -21.1479   -6.0523   25.9078 H   0  0  0  0  0  0
  -22.0599   -2.7609   23.2848 H   0  0  0  0  0  0
  -22.4101  -11.9891   22.4785 H   0  0  0  0  0  0
  -21.1112  -13.1263   22.2600 H   0  0  0  0  0  0
  -24.6576  -15.8396   20.5011 H   0  0  0  0  0  0
  -26.2712  -15.6223   20.0504 H   0  0  0  0  0  0
  -26.7119  -32.5529   23.1160 H   0  0  0  0  0  0
  -25.0055  -33.9774   25.0474 H   0  0  0  0  0  0
  -22.6947  -31.3079   21.4102 H   0  0  0  0  0  0
  -23.3741  -35.9653   23.3310 H   0  0  0  0  0  0
  -24.3579  -36.8915   22.2050 H   0  0  0  0  0  0
  -23.7243  -37.6523   23.6645 H   0  0  0  0  0  0
  -26.0488  -31.5982   20.5955 H   0  0  0  0  0  0
  -26.8233  -30.8844   21.9820 H   0  0  0  0  0  0
  -28.1061  -29.0902   21.1689 H   0  0  0  0  0  0
  -26.0560  -25.9648   19.0172 H   0  0  0  0  0  0
  -23.9785  -27.2991   19.0279 H   0  0  0  0  0  0
  -23.7229  -30.5999   19.4042 H   0  0  0  0  0  0
  -22.7390  -29.2442   19.8669 H   0  0  0  0  0  0
  -25.1281  -36.1975   25.0832 H   0  0  0  0  0  0
  -20.9966  -28.3230   24.1430 H   0  0  0  0  0  0
  -20.5663  -26.2270   23.3600 H   0  0  0  0  0  0
  -21.6633  -26.7439   22.1210 H   0  0  0  0  0  0
  -19.6898  -25.6302   21.1228 H   0  0  0  0  0  0
  -19.6679  -27.3209   20.6750 H   0  0  0  0  0  0
  -17.4192  -26.6677   21.4025 H   0  0  0  0  0  0
  -18.0320  -26.0064   22.9018 H   0  0  0  0  0  0
  -19.7927  -30.7262   24.2280 H   0  0  0  0  0  0
  -17.5007  -31.6263   24.5166 H   0  0  0  0  0  0
  -15.5344  -30.2987   23.7646 H   0  0  0  0  0  0
  -15.8665  -28.0828   22.7050 H   0  0  0  0  0  0
  -24.5910  -30.7048   25.7813 H   0  0  0  0  0  0
  -24.8935  -32.2852   26.4937 H   0  0  0  0  0  0
  -25.8099  -30.8858   27.0221 H   0  0  0  0  0  0
  -26.2840  -29.6800   24.1149 H   0  0  0  0  0  0
  -27.4072  -29.7267   25.4546 H   0  0  0  0  0  0
  -27.8675  -30.4354   23.9238 H   0  0  0  0  0  0
  -27.2676  -33.3600   26.2091 H   0  0  0  0  0  0
  -28.3847  -32.6883   25.0302 H   0  0  0  0  0  0
  -28.0733  -31.8413   26.5373 H   0  0  0  0  0  0
  -28.2605  -38.0101   24.7510 H   0  0  0  0  0  0
  -28.1067  -36.2632   24.6293 H   0  0  0  0  0  0
  -27.2299  -37.1470   25.8870 H   0  0  0  0  0  0
  -20.9308  -29.8758   21.6943 H   0  0  0  0  0  0
  -26.0179  -38.2870   24.1408 H   0  0  0  0  0  0
  -33.2221  -18.8470   21.7281 H   0  0  0  0  0  0
  -31.5317  -20.6518   21.6586 H   0  0  0  0  0  0
  -32.5716  -16.5020   21.5002 H   0  0  0  0  0  0
  -28.4358  -17.6989   21.0286 H   0  0  0  0  0  0
  -27.2778  -22.6598   20.4916 H   0  0  0  0  0  0
  -27.9689  -22.9931   22.0655 H   0  0  0  0  0  0
  -28.5970  -25.6973   21.9706 H   0  0  0  0  0  0
  -27.1050  -25.2717   21.1758 H   0  0  0  0  0  0
  -29.0666  -15.3254   21.3333 H   0  0  0  0  0  0
  -29.9575  -21.7983   20.3795 H   0  0  0  0  0  0
  -27.5254  -19.2734   22.3966 H   0  0  0  0  0  0
  -26.9394  -20.8458   21.9841 H   0  0  0  0  0  0
  1 25  1  0  0  0
  1 30  2  0  0  0
  1 81  1  0  0  0
  2  3  1  0  0  0
  2 25  1  0  0  0
  2 85  1  0  0  0
  2 86  1  0  0  0
  3  4  1  0  0  0
  3 87  1  0  0  0
  3 88  1  0  0  0
  4  5  1  0  0  0
  4 89  1  0  0  0
  4 90  1  0  0  0
  5  6  1  0  0  0
  5 26  1  0  0  0
  5 91  1  0  0  0
  6 25  1  0  0  0
  6 92  1  0  0  0
  6 93  1  0  0  0
  7  8  2  0  0  0
  7 26  1  0  0  0
  7 29  1  0  0  0
  8  9  1  0  0  0
  8 22  1  0  0  0
  9 10  1  0  0  0
  9 27  2  0  0  0
 10 11  2  0  0  0
 10 15  1  0  0  0
 11 12  1  0  0  0
 11 94  1  0  0  0
 12 13  2  0  0  0
 12 95  1  0  0  0
 13 14  1  0  0  0
 13 31  1  0  0  0
 14 15  2  0  0  0
 14 96  1  0  0  0
 15 97  1  0  0  0
 16 17  2  0  0  0
 16 21  1  0  0  0
 16 31  1  0  0  0
 17 18  1  0  0  0
 17 98  1  0  0  0
 18 19  2  0  0  0
 18 99  1  0  0  0
 19 20  1  0  0  0
 19 24  1  0  0  0
 20 21  2  0  0  0
 20100  1  0  0  0
 21 23  1  0  0  0
 22 28  1  0  0  0
 22 32  2  0  0  0
 26 27  1  0  0  0
 28101  1  0  0  0
 28102  1  0  0  0
 29103  1  0  0  0
 29104  1  0  0  0
 33 34  1  0  0  0
 33 66  1  0  0  0
 33 70  2  0  0  0
 34 36  1  0  0  0
 34 59  1  0  0  0
 34105  1  0  0  0
 35 44  2  0  0  0
 35 45  1  0  0  0
 35 68  1  0  0  0
 36 56  1  0  0  0
 36106  1  0  0  0
 37 39  1  0  0  0
 37 47  1  0  0  0
 37 66  1  0  0  0
 37107  1  0  0  0
 38 43  2  0  0  0
 38 46  1  0  0  0
 38 47  1  0  0  0
 39 64  1  0  0  0
 39 67  2  0  0  0
 40 52  1  0  0  0
 40 53  2  0  0  0
 40 58  1  0  0  0
 41108  1  0  0  0
 41109  1  0  0  0
 41110  1  0  0  0
 41 48  1  0  0  0
 42 43  1  0  0  0
 42 66  1  0  0  0
 42111  1  0  0  0
 42112  1  0  0  0
 43 44  1  0  0  0
 44113  1  0  0  0
 45 46  2  0  0  0
 45114  1  0  0  0
 46115  1  0  0  0
 47116  1  0  0  0
 47117  1  0  0  0
 48 56  1  0  0  0
 48 65  1  0  0  0
 48118  1  0  0  0
 49 50  1  0  0  0
 49 53  1  0  0  0
 49 64  1  0  0  0
 49119  1  0  0  0
 50 51  1  0  0  0
 50120  1  0  0  0
 50121  1  0  0  0
 51 52  1  0  0  0
 51122  1  0  0  0
 51123  1  0  0  0
 52124  1  0  0  0
 52125  1  0  0  0
 53 54  1  0  0  0
 54 55  2  0  0  0
 54126  1  0  0  0
 55 57  1  0  0  0
 55127  1  0  0  0
 56 69  2  0  0  0
 57 58  2  0  0  0
 57128  1  0  0  0
 58129  1  0  0  0
 59 60  1  0  0  0
 59 61  1  0  0  0
 59 62  1  0  0  0
 60130  1  0  0  0
 60131  1  0  0  0
 60132  1  0  0  0
 61133  1  0  0  0
 61134  1  0  0  0
 61135  1  0  0  0
 62136  1  0  0  0
 62137  1  0  0  0
 62138  1  0  0  0
 63 65  1  0  0  0
 63139  1  0  0  0
 63140  1  0  0  0
 63141  1  0  0  0
 64142  1  0  0  0
 65143  1  0  0  0
 68 80  1  0  0  0
 71 72  2  0  0  0
 71 73  1  0  0  0
 71144  1  0  0  0
 72 75  1  0  0  0
 72145  1  0  0  0
 73 76  2  0  0  0
 73146  1  0  0  0
 74 75  2  0  0  0
 74 76  1  0  0  0
 74147  1  0  0  0
 75 77  1  0  0  0
 76 81  1  0  0  0
 77 82  1  0  0  0
 77 83  2  0  0  0
 78 79  1  0  0  0
 78 80  1  0  0  0
 78 84  2  0  0  0
 79 82  1  0  0  0
 79148  1  0  0  0
 79149  1  0  0  0
 80150  1  0  0  0
 80151  1  0  0  0
 81152  1  0  0  0
 82153  1  0  0  0
 83154  1  0  0  0
 83155  1  0  0  0
M  CHG  1  83   1
M  ISO  4   1 100  68 101  80 101  81 100
M  END
> <chiral flag>
0

> <version>
0

> <s_m_source_file>
/data/baiqing/PycharmProjects/Reinvent-master-3.2/result/LINK_invent/BTK/process_docking_weight1_custom_product_contain_oxygen_bond_distance_aromatic_linkinvent_7_9_3/rearranged_h_0164.sdf

> <i_m_source_file_index>
60

> <r_mmod_Potential_Energy-OPLS-2005>
-318.435882568359

> <r_mmod_Stretch_Energy-OPLS-2005>
42.6956825256348

> <r_mmod_Bend_Energy-OPLS-2005>
94.7338104248047

> <r_mmod_Torsional_Energy-OPLS-2005>
233.518249511719

> <r_mmod_Improper_Torsional_Energy-OPLS-2005>
4.15099143981934

> <r_mmod_Van_der_Waal_Energy-OPLS-2005>
156.131591796875

> <r_mmod_Electrostatic_Energy-OPLS-2005>
-417.137176513672

> <r_mmod_Solvation_Energy-OPLS-2005>
-449.292572021484

> <b_mmod_Minimization_Converged-OPLS-2005>
0

> <r_mmod_RMS_Derivative-OPLS-2005>
0.422327429056168

$$$$
61
                    3D
 Structure written by MMmdl.
156164  0  0  1  0            999 V2000
  -30.8076  -14.4383   20.5625 C   0  0  0  0  0  0
  -30.4115  -12.2836   19.4434 C   0  0  0  0  0  0
  -29.5035  -12.4893   18.2160 C   0  0  0  0  0  0
  -28.0237  -12.3647   18.6229 C   0  0  0  0  0  0
  -27.6682  -13.2225   19.8683 C   0  0  2  0  0  0
  -28.7147  -13.0591   21.0011 C   0  0  0  0  0  0
  -25.2618  -13.8196   20.5687 C   0  0  0  0  0  0
  -24.1867  -13.0453   20.9196 C   0  0  0  0  0  0
  -24.6436  -11.6924   20.8716 C   0  0  0  0  0  0
  -23.9108  -10.4290   21.0353 C   0  0  0  0  0  0
  -24.3640   -9.4204   21.9135 C   0  0  0  0  0  0
  -23.6309   -8.2248   22.0724 C   0  0  0  0  0  0
  -22.4307   -8.0262   21.3511 C   0  0  0  0  0  0
  -21.9935   -9.0256   20.4657 C   0  0  0  0  0  0
  -22.7264  -10.2126   20.3046 C   0  0  0  0  0  0
  -21.6857   -6.0741   22.5271 C   0  0  0  0  0  0
  -21.4021   -6.5645   23.8204 C   0  0  0  0  0  0
  -21.3665   -5.6784   24.9159 C   0  0  0  0  0  0
  -21.6041   -4.3049   24.7196 C   0  0  0  0  0  0
  -21.8824   -3.8151   23.4322 C   0  0  0  0  0  0
  -21.9184   -4.6964   22.3379 C   0  0  0  0  0  0
  -22.7865  -13.5244   21.1814 C   0  0  0  0  0  0
  -22.1647   -4.2154   21.0943 F   0  0  0  0  0  0
  -21.5626   -3.4533   25.7712 F   0  0  0  0  0  0
  -30.0592  -13.3054   20.4454 N   0  0  0  0  0  0
  -26.3082  -12.9417   20.3336 N   0  0  0  0  0  0
  -25.9397  -11.6559   20.5773 N   0  0  0  0  0  0
  -22.0497  -12.8268   22.0372 N   0  0  0  0  0  0
  -25.4318  -15.1924   20.4116 N   0  0  0  0  0  0
  -31.9107  -14.5469   20.0281 O   0  0  0  0  0  0
  -21.6651   -6.8881   21.4234 O   0  0  0  0  0  0
  -22.3526  -14.5481   20.6553 O   0  0  0  0  0  0
  -24.6240  -31.8715   23.2157 C   0  0  0  0  0  0
  -25.9129  -32.4815   23.8441 C   0  0  1  0  0  0
  -27.1780  -27.3894   20.0669 C   0  0  0  0  0  0
  -25.5985  -33.8608   24.2345 N   0  0  0  0  0  0
  -23.4047  -30.5139   21.5599 C   0  0  2  0  0  0
  -24.8351  -28.9967   20.1116 C   0  0  0  0  0  0
  -22.7470  -29.4751   22.4980 C   0  0  0  0  0  0
  -18.0303  -28.1381   22.8502 C   0  0  0  0  0  0
  -24.1503  -36.7311   23.2627 C   0  0  0  0  0  0
  -25.9486  -30.8228   21.3809 C   0  0  0  0  0  0
  -26.0107  -29.4638   20.7100 C   0  0  0  0  0  0
  -27.1917  -28.6683   20.6870 C   0  0  0  0  0  0
  -25.9736  -26.9796   19.4394 C   0  0  0  0  0  0
  -24.8113  -27.7548   19.4763 C   0  0  0  0  0  0
  -23.6080  -29.8730   20.1693 C   0  0  0  0  0  0
  -25.4113  -36.3098   24.0332 C   0  0  1  0  0  0
  -20.5904  -28.3705   23.1280 C   0  0  2  0  0  0
  -20.6812  -26.9438   22.5399 C   0  0  0  0  0  0
  -19.5768  -26.6384   21.5231 C   0  0  0  0  0  0
  -18.1953  -26.7918   22.1644 C   0  0  0  0  0  0
  -19.1555  -28.8857   23.2881 C   0  0  0  0  0  0
  -18.9486  -30.1456   23.8887 C   0  0  0  0  0  0
  -17.6485  -30.6582   24.0553 C   0  0  0  0  0  0
  -25.9057  -34.9467   23.5123 C   0  0  0  0  0  0
  -16.5373  -29.9081   23.6307 C   0  0  0  0  0  0
  -16.7292  -28.6496   23.0343 C   0  0  0  0  0  0
  -26.4492  -31.6590   25.0777 C   0  0  0  0  0  0
  -25.3710  -31.3767   26.1503 C   0  0  0  0  0  0
  -27.0322  -30.3015   24.6202 C   0  0  0  0  0  0
  -27.6069  -32.4296   25.7545 C   0  0  0  0  0  0
  -27.5590  -37.1803   24.8436 C   0  0  0  0  0  0
  -21.4198  -29.3077   22.3690 N   0  0  0  0  0  0
  -26.4283  -37.3800   23.9414 N   0  0  0  0  0  0
  -24.6764  -31.0844   22.1069 N   0  0  0  0  0  0
  -23.4256  -28.8268   23.3001 O   0  0  0  0  0  0
  -28.2805  -26.5337   20.1000 O   0  0  0  0  0  0
  -26.5595  -34.8926   22.4666 O   0  0  0  0  0  0
  -23.5429  -32.1510   23.7535 O   0  0  0  0  0  0
  -29.7340  -17.8523   20.7802 C   0  0  0  0  0  0
  -31.4927  -19.5300   20.5215 C   0  0  0  0  0  0
  -32.0624  -17.2284   21.0960 C   0  0  0  0  0  0
  -30.1204  -19.1929   20.5148 C   0  0  0  0  0  0
  -30.6963  -16.8491   21.0329 C   0  0  0  0  0  0
  -32.4571  -18.5566   20.8344 C   0  0  0  0  0  0
  -29.1108  -20.2183   20.2123 C   0  0  0  0  0  0
  -28.9658  -24.0349   20.1246 C   0  0  0  0  0  0
  -28.3376  -22.6322   20.2455 C   0  0  0  0  0  0
  -27.9032  -25.1258   19.9964 C   0  0  0  0  0  0
  -30.2131  -24.2446   20.0382 N   0  0  0  0  0  0
  -30.2578  -15.4899   21.2000 N   0  0  0  0  0  0
  -29.3217  -21.5342   20.4396 N   0  0  0  0  0  0
  -27.9479  -19.8173   19.6963 N   0  3  0  0  0  0
  -33.7694  -18.9014   20.8777 F   0  0  0  0  0  0
  -31.4616  -12.3172   19.1493 H   0  0  0  0  0  0
  -30.2617  -11.2879   19.8629 H   0  0  0  0  0  0
  -29.7474  -11.7517   17.4496 H   0  0  0  0  0  0
  -29.6923  -13.4660   17.7663 H   0  0  0  0  0  0
  -27.8330  -11.3131   18.8350 H   0  0  0  0  0  0
  -27.3810  -12.6272   17.7829 H   0  0  0  0  0  0
  -27.7030  -14.2632   19.5464 H   0  0  0  0  0  0
  -28.6714  -12.0552   21.4219 H   0  0  0  0  0  0
  -28.4820  -13.7366   21.8260 H   0  0  0  0  0  0
  -25.2795   -9.5675   22.4688 H   0  0  0  0  0  0
  -24.0019   -7.4652   22.7447 H   0  0  0  0  0  0
  -21.0856   -8.8808   19.8984 H   0  0  0  0  0  0
  -22.3725  -10.9661   19.6152 H   0  0  0  0  0  0
  -21.2035   -7.6158   23.9724 H   0  0  0  0  0  0
  -21.1474   -6.0499   25.9059 H   0  0  0  0  0  0
  -22.0600   -2.7623   23.2813 H   0  0  0  0  0  0
  -22.4114  -12.0037   22.4952 H   0  0  0  0  0  0
  -21.1073  -13.1265   22.2420 H   0  0  0  0  0  0
  -24.6729  -15.8527   20.5401 H   0  0  0  0  0  0
  -26.2921  -15.6300   20.1081 H   0  0  0  0  0  0
  -26.7197  -32.5512   23.1198 H   0  0  0  0  0  0
  -25.0133  -33.9731   25.0497 H   0  0  0  0  0  0
  -22.6956  -31.3335   21.4352 H   0  0  0  0  0  0
  -23.3768  -35.9637   23.3245 H   0  0  0  0  0  0
  -24.3625  -36.8971   22.2054 H   0  0  0  0  0  0
  -23.7245  -37.6501   23.6668 H   0  0  0  0  0  0
  -26.0855  -31.5991   20.6283 H   0  0  0  0  0  0
  -26.8283  -30.8514   22.0122 H   0  0  0  0  0  0
  -28.0926  -29.0179   21.1696 H   0  0  0  0  0  0
  -25.8549  -26.0563   18.8993 H   0  0  0  0  0  0
  -23.9057  -27.3913   19.0093 H   0  0  0  0  0  0
  -23.7272  -30.6570   19.4218 H   0  0  0  0  0  0
  -22.7238  -29.3104   19.8624 H   0  0  0  0  0  0
  -25.1289  -36.1941   25.0825 H   0  0  0  0  0  0
  -21.0000  -28.3279   24.1394 H   0  0  0  0  0  0
  -20.5795  -26.2329   23.3606 H   0  0  0  0  0  0
  -21.6672  -26.7527   22.1137 H   0  0  0  0  0  0
  -19.6929  -25.6300   21.1258 H   0  0  0  0  0  0
  -19.6652  -27.3199   20.6763 H   0  0  0  0  0  0
  -17.4233  -26.6691   21.4035 H   0  0  0  0  0  0
  -18.0327  -26.0055   22.9037 H   0  0  0  0  0  0
  -19.7956  -30.7268   24.2266 H   0  0  0  0  0  0
  -17.5036  -31.6268   24.5158 H   0  0  0  0  0  0
  -15.5365  -30.2982   23.7611 H   0  0  0  0  0  0
  -15.8717  -28.0799   22.7051 H   0  0  0  0  0  0
  -24.5833  -30.7158   25.7858 H   0  0  0  0  0  0
  -24.8946  -32.2962   26.4929 H   0  0  0  0  0  0
  -25.8002  -30.8939   27.0296 H   0  0  0  0  0  0
  -26.2915  -29.6803   24.1144 H   0  0  0  0  0  0
  -27.3959  -29.7218   25.4708 H   0  0  0  0  0  0
  -27.8822  -30.4326   23.9488 H   0  0  0  0  0  0
  -27.2686  -33.3583   26.2173 H   0  0  0  0  0  0
  -28.3869  -32.6879   25.0358 H   0  0  0  0  0  0
  -28.0760  -31.8379   26.5431 H   0  0  0  0  0  0
  -28.2556  -38.0158   24.7572 H   0  0  0  0  0  0
  -28.1141  -36.2690   24.6141 H   0  0  0  0  0  0
  -27.2319  -37.1314   25.8839 H   0  0  0  0  0  0
  -20.9394  -29.8800   21.6881 H   0  0  0  0  0  0
  -26.0155  -38.2868   24.1456 H   0  0  0  0  0  0
  -28.6897  -17.5731   20.7646 H   0  0  0  0  0  0
  -31.8166  -20.5362   20.2973 H   0  0  0  0  0  0
  -32.8299  -16.5065   21.3230 H   0  0  0  0  0  0
  -27.7508  -22.4455   19.3412 H   0  0  0  0  0  0
  -27.6317  -22.6229   21.0821 H   0  0  0  0  0  0
  -27.1179  -24.9150   20.7275 H   0  0  0  0  0  0
  -27.4854  -24.9244   19.0119 H   0  0  0  0  0  0
  -30.7278  -23.3757   20.0411 H   0  0  0  0  0  0
  -29.3348  -15.3376   21.5771 H   0  0  0  0  0  0
  -30.1876  -21.7956   20.8906 H   0  0  0  0  0  0
  -27.8482  -18.8375   19.4791 H   0  0  0  0  0  0
  -27.1332  -20.4004   19.6120 H   0  0  0  0  0  0
  1 25  1  0  0  0
  1 30  2  0  0  0
  1 82  1  0  0  0
  2  3  1  0  0  0
  2 25  1  0  0  0
  2 86  1  0  0  0
  2 87  1  0  0  0
  3  4  1  0  0  0
  3 88  1  0  0  0
  3 89  1  0  0  0
  4  5  1  0  0  0
  4 90  1  0  0  0
  4 91  1  0  0  0
  5  6  1  0  0  0
  5 26  1  0  0  0
  5 92  1  0  0  0
  6 25  1  0  0  0
  6 93  1  0  0  0
  6 94  1  0  0  0
  7  8  2  0  0  0
  7 26  1  0  0  0
  7 29  1  0  0  0
  8  9  1  0  0  0
  8 22  1  0  0  0
  9 10  1  0  0  0
  9 27  2  0  0  0
 10 11  2  0  0  0
 10 15  1  0  0  0
 11 12  1  0  0  0
 11 95  1  0  0  0
 12 13  2  0  0  0
 12 96  1  0  0  0
 13 14  1  0  0  0
 13 31  1  0  0  0
 14 15  2  0  0  0
 14 97  1  0  0  0
 15 98  1  0  0  0
 16 17  2  0  0  0
 16 21  1  0  0  0
 16 31  1  0  0  0
 17 18  1  0  0  0
 17 99  1  0  0  0
 18 19  2  0  0  0
 18100  1  0  0  0
 19 20  1  0  0  0
 19 24  1  0  0  0
 20 21  2  0  0  0
 20101  1  0  0  0
 21 23  1  0  0  0
 22 28  1  0  0  0
 22 32  2  0  0  0
 26 27  1  0  0  0
 28102  1  0  0  0
 28103  1  0  0  0
 29104  1  0  0  0
 29105  1  0  0  0
 33 34  1  0  0  0
 33 66  1  0  0  0
 33 70  2  0  0  0
 34 36  1  0  0  0
 34 59  1  0  0  0
 34106  1  0  0  0
 35 44  2  0  0  0
 35 45  1  0  0  0
 35 68  1  0  0  0
 36 56  1  0  0  0
 36107  1  0  0  0
 37 39  1  0  0  0
 37 47  1  0  0  0
 37 66  1  0  0  0
 37108  1  0  0  0
 38 43  2  0  0  0
 38 46  1  0  0  0
 38 47  1  0  0  0
 39 64  1  0  0  0
 39 67  2  0  0  0
 40 52  1  0  0  0
 40 53  2  0  0  0
 40 58  1  0  0  0
 41109  1  0  0  0
 41110  1  0  0  0
 41111  1  0  0  0
 41 48  1  0  0  0
 42 43  1  0  0  0
 42 66  1  0  0  0
 42112  1  0  0  0
 42113  1  0  0  0
 43 44  1  0  0  0
 44114  1  0  0  0
 45 46  2  0  0  0
 45115  1  0  0  0
 46116  1  0  0  0
 47117  1  0  0  0
 47118  1  0  0  0
 48 56  1  0  0  0
 48 65  1  0  0  0
 48119  1  0  0  0
 49 50  1  0  0  0
 49 53  1  0  0  0
 49 64  1  0  0  0
 49120  1  0  0  0
 50 51  1  0  0  0
 50121  1  0  0  0
 50122  1  0  0  0
 51 52  1  0  0  0
 51123  1  0  0  0
 51124  1  0  0  0
 52125  1  0  0  0
 52126  1  0  0  0
 53 54  1  0  0  0
 54 55  2  0  0  0
 54127  1  0  0  0
 55 57  1  0  0  0
 55128  1  0  0  0
 56 69  2  0  0  0
 57 58  2  0  0  0
 57129  1  0  0  0
 58130  1  0  0  0
 59 60  1  0  0  0
 59 61  1  0  0  0
 59 62  1  0  0  0
 60131  1  0  0  0
 60132  1  0  0  0
 60133  1  0  0  0
 61134  1  0  0  0
 61135  1  0  0  0
 61136  1  0  0  0
 62137  1  0  0  0
 62138  1  0  0  0
 62139  1  0  0  0
 63 65  1  0  0  0
 63140  1  0  0  0
 63141  1  0  0  0
 63142  1  0  0  0
 64143  1  0  0  0
 65144  1  0  0  0
 68 80  1  0  0  0
 71 74  2  0  0  0
 71 75  1  0  0  0
 71145  1  0  0  0
 72 74  1  0  0  0
 72 76  2  0  0  0
 72146  1  0  0  0
 73 75  2  0  0  0
 73 76  1  0  0  0
 73147  1  0  0  0
 74 77  1  0  0  0
 75 82  1  0  0  0
 76 85  1  0  0  0
 77 83  1  0  0  0
 77 84  2  0  0  0
 78 79  1  0  0  0
 78 80  1  0  0  0
 78 81  2  0  0  0
 79 83  1  0  0  0
 79148  1  0  0  0
 79149  1  0  0  0
 80150  1  0  0  0
 80151  1  0  0  0
 81152  1  0  0  0
 82153  1  0  0  0
 83154  1  0  0  0
 84155  1  0  0  0
 84156  1  0  0  0
M  CHG  1  84   1
M  ISO  4   1 100  68 101  80 101  82 100
M  END
> <chiral flag>
0

> <version>
0

> <s_m_source_file>
/data/baiqing/PycharmProjects/Reinvent-master-3.2/result/LINK_invent/BTK/process_docking_weight1_custom_product_contain_oxygen_bond_distance_aromatic_linkinvent_7_9_3/rearranged_h_0164.sdf

> <i_m_source_file_index>
61

> <r_mmod_Potential_Energy-OPLS-2005>
-343.963745117188

> <r_mmod_Stretch_Energy-OPLS-2005>
44.6497535705566

> <r_mmod_Bend_Energy-OPLS-2005>
109.408386230469

> <r_mmod_Torsional_Energy-OPLS-2005>
215.146728515625

> <r_mmod_Improper_Torsional_Energy-OPLS-2005>
4.30134153366089

> <r_mmod_Van_der_Waal_Energy-OPLS-2005>
181.102676391602

> <r_mmod_Electrostatic_Energy-OPLS-2005>
-440.630279541016

> <r_mmod_Solvation_Energy-OPLS-2005>
-486.187469482422

> <b_mmod_Minimization_Converged-OPLS-2005>
0

> <r_mmod_RMS_Derivative-OPLS-2005>
5.25759077072144

$$$$
62
                    3D
 Structure written by MMmdl.
155163  0  0  1  0            999 V2000
  -30.7229  -14.4486   20.6015 C   0  0  0  0  0  0
  -30.4197  -12.2975   19.4293 C   0  0  0  0  0  0
  -29.5032  -12.5179   18.2097 C   0  0  0  0  0  0
  -28.0205  -12.3867   18.6098 C   0  0  0  0  0  0
  -27.6645  -13.2142   19.8762 C   0  0  2  0  0  0
  -28.7022  -12.9817   20.9975 C   0  0  0  0  0  0
  -25.2597  -13.8176   20.5682 C   0  0  0  0  0  0
  -24.1836  -13.0432   20.9094 C   0  0  0  0  0  0
  -24.6402  -11.6911   20.8662 C   0  0  0  0  0  0
  -23.9071  -10.4302   21.0356 C   0  0  0  0  0  0
  -24.3630   -9.4230   21.9139 C   0  0  0  0  0  0
  -23.6317   -8.2259   22.0721 C   0  0  0  0  0  0
  -22.4296   -8.0277   21.3521 C   0  0  0  0  0  0
  -21.9910   -9.0249   20.4624 C   0  0  0  0  0  0
  -22.7234  -10.2134   20.3024 C   0  0  0  0  0  0
  -21.6866   -6.0737   22.5275 C   0  0  0  0  0  0
  -21.4027   -6.5642   23.8204 C   0  0  0  0  0  0
  -21.3660   -5.6790   24.9161 C   0  0  0  0  0  0
  -21.6039   -4.3048   24.7208 C   0  0  0  0  0  0
  -21.8829   -3.8145   23.4332 C   0  0  0  0  0  0
  -21.9194   -4.6963   22.3395 C   0  0  0  0  0  0
  -22.7857  -13.5228   21.1791 C   0  0  0  0  0  0
  -22.1659   -4.2153   21.0971 F   0  0  0  0  0  0
  -21.5619   -3.4521   25.7724 F   0  0  0  0  0  0
  -30.0421  -13.2771   20.4593 N   0  0  0  0  0  0
  -26.3044  -12.9361   20.3348 N   0  0  0  0  0  0
  -25.9332  -11.6512   20.5702 N   0  0  0  0  0  0
  -22.0531  -12.8240   22.0392 N   0  0  0  0  0  0
  -25.4343  -15.1907   20.4269 N   0  0  0  0  0  0
  -31.8281  -14.6322   20.0835 O   0  0  0  0  0  0
  -21.6649   -6.8879   21.4247 O   0  0  0  0  0  0
  -22.3521  -14.5528   20.6648 O   0  0  0  0  0  0
  -24.6123  -31.8687   23.2108 C   0  0  0  0  0  0
  -25.9033  -32.4819   23.8376 C   0  0  1  0  0  0
  -27.2369  -27.4484   20.0738 C   0  0  0  0  0  0
  -25.5902  -33.8617   24.2321 N   0  0  0  0  0  0
  -23.3979  -30.4937   21.5500 C   0  0  2  0  0  0
  -24.8427  -28.9566   20.1164 C   0  0  0  0  0  0
  -22.7399  -29.4672   22.5000 C   0  0  0  0  0  0
  -18.0277  -28.1373   22.8502 C   0  0  0  0  0  0
  -24.1500  -36.7328   23.2631 C   0  0  0  0  0  0
  -25.9259  -30.8326   21.3650 C   0  0  0  0  0  0
  -26.0003  -29.4662   20.7161 C   0  0  0  0  0  0
  -27.1944  -28.7136   20.7023 C   0  0  0  0  0  0
  -26.0544  -26.9429   19.4833 C   0  0  0  0  0  0
  -24.8630  -27.6918   19.5041 C   0  0  0  0  0  0
  -23.6041  -29.8219   20.1656 C   0  0  0  0  0  0
  -25.4116  -36.3117   24.0334 C   0  0  1  0  0  0
  -20.5862  -28.3658   23.1340 C   0  0  2  0  0  0
  -20.6776  -26.9404   22.5423 C   0  0  0  0  0  0
  -19.5756  -26.6382   21.5224 C   0  0  0  0  0  0
  -18.1926  -26.7923   22.1622 C   0  0  0  0  0  0
  -19.1518  -28.8834   23.2915 C   0  0  0  0  0  0
  -18.9445  -30.1437   23.8930 C   0  0  0  0  0  0
  -17.6444  -30.6580   24.0569 C   0  0  0  0  0  0
  -25.9031  -34.9479   23.5121 C   0  0  0  0  0  0
  -16.5340  -29.9078   23.6330 C   0  0  0  0  0  0
  -16.7258  -28.6493   23.0357 C   0  0  0  0  0  0
  -26.4466  -31.6594   25.0699 C   0  0  0  0  0  0
  -25.3721  -31.3711   26.1441 C   0  0  0  0  0  0
  -27.0281  -30.3040   24.6048 C   0  0  0  0  0  0
  -27.6037  -32.4305   25.7457 C   0  0  0  0  0  0
  -27.5601  -37.1812   24.8448 C   0  0  0  0  0  0
  -21.4132  -29.3018   22.3737 N   0  0  0  0  0  0
  -26.4304  -37.3800   23.9408 N   0  0  0  0  0  0
  -24.6635  -31.0804   22.1001 N   0  0  0  0  0  0
  -23.4192  -28.8215   23.3028 O   0  0  0  0  0  0
  -28.4371  -26.7662   20.0756 O   0  0  0  0  0  0
  -26.5588  -34.8927   22.4676 O   0  0  0  0  0  0
  -23.5327  -32.1434   23.7538 O   0  0  0  0  0  0
  -28.9518  -18.9227   21.1928 C   0  0  0  0  0  0
  -30.1439  -19.6019   20.8453 C   0  0  0  0  0  0
  -28.9778  -17.5212   21.3522 C   0  0  0  0  0  0
  -31.3111  -18.8147   20.7379 C   0  0  0  0  0  0
  -30.1865  -16.8175   21.1584 C   0  0  0  0  0  0
  -29.3540  -23.1434   19.6443 C   0  0  0  0  0  0
  -28.3949  -24.3025   19.9422 C   0  0  0  0  0  0
  -29.0296  -21.7921   20.3055 C   0  0  0  0  0  0
  -28.6315  -25.6383   19.2068 C   0  0  0  0  0  0
  -31.3440  -17.4776   20.8819 N   0  0  0  0  0  0
  -30.3875  -23.1939   18.8994 N   0  0  0  0  0  0
  -32.5244  -19.4291   20.4597 N   0  0  0  0  0  0
  -30.2277  -20.9901   20.5964 N   0  0  0  0  0  0
  -30.0651  -15.4057   21.2802 N   0  0  0  0  0  0
  -27.4446  -24.1979   20.7271 O   0  0  0  0  0  0
  -27.8422  -16.8446   21.6593 F   0  0  0  0  0  0
  -31.4688  -12.3733   19.1405 H   0  0  0  0  0  0
  -30.2940  -11.2870   19.8210 H   0  0  0  0  0  0
  -29.7462  -11.8044   17.4207 H   0  0  0  0  0  0
  -29.6839  -13.5093   17.7917 H   0  0  0  0  0  0
  -27.8180  -11.3288   18.7855 H   0  0  0  0  0  0
  -27.3780  -12.6789   17.7783 H   0  0  0  0  0  0
  -27.7131  -14.2652   19.5904 H   0  0  0  0  0  0
  -28.6682  -11.9440   21.3308 H   0  0  0  0  0  0
  -28.4567  -13.5726   21.8811 H   0  0  0  0  0  0
  -25.2784   -9.5705   22.4701 H   0  0  0  0  0  0
  -24.0017   -7.4654   22.7452 H   0  0  0  0  0  0
  -21.0808   -8.8771   19.8961 H   0  0  0  0  0  0
  -22.3671  -10.9658   19.6125 H   0  0  0  0  0  0
  -21.2054   -7.6150   23.9723 H   0  0  0  0  0  0
  -21.1458   -6.0504   25.9070 H   0  0  0  0  0  0
  -22.0617   -2.7607   23.2825 H   0  0  0  0  0  0
  -22.4140  -11.9917   22.4823 H   0  0  0  0  0  0
  -21.1144  -13.1249   22.2598 H   0  0  0  0  0  0
  -24.6898  -15.8469   20.6300 H   0  0  0  0  0  0
  -26.3355  -15.6419   20.3326 H   0  0  0  0  0  0
  -26.7100  -32.5546   23.1136 H   0  0  0  0  0  0
  -25.0081  -33.9767   25.0485 H   0  0  0  0  0  0
  -22.6848  -31.3103   21.4133 H   0  0  0  0  0  0
  -23.3759  -35.9661   23.3267 H   0  0  0  0  0  0
  -24.3610  -36.8965   22.2051 H   0  0  0  0  0  0
  -23.7250  -37.6523   23.6657 H   0  0  0  0  0  0
  -26.0360  -31.5965   20.5930 H   0  0  0  0  0  0
  -26.8150  -30.8886   21.9802 H   0  0  0  0  0  0
  -28.0896  -29.1052   21.1663 H   0  0  0  0  0  0
  -26.0256  -25.9726   19.0101 H   0  0  0  0  0  0
  -23.9698  -27.2910   19.0469 H   0  0  0  0  0  0
  -23.7101  -30.5932   19.4006 H   0  0  0  0  0  0
  -22.7281  -29.2395   19.8745 H   0  0  0  0  0  0
  -25.1298  -36.1974   25.0827 H   0  0  0  0  0  0
  -20.9962  -28.3213   24.1464 H   0  0  0  0  0  0
  -20.5711  -26.2259   23.3594 H   0  0  0  0  0  0
  -21.6639  -26.7466   22.1203 H   0  0  0  0  0  0
  -19.6919  -25.6302   21.1233 H   0  0  0  0  0  0
  -19.6702  -27.3207   20.6772 H   0  0  0  0  0  0
  -17.4212  -26.6701   21.3997 H   0  0  0  0  0  0
  -18.0305  -26.0041   22.8994 H   0  0  0  0  0  0
  -19.7911  -30.7245   24.2314 H   0  0  0  0  0  0
  -17.4995  -31.6261   24.5155 H   0  0  0  0  0  0
  -15.5342  -30.2989   23.7630 H   0  0  0  0  0  0
  -15.8661  -28.0811   22.7076 H   0  0  0  0  0  0
  -24.5898  -30.7053   25.7793 H   0  0  0  0  0  0
  -24.8899  -32.2869   26.4867 H   0  0  0  0  0  0
  -25.8059  -30.8901   27.0213 H   0  0  0  0  0  0
  -26.2811  -29.6812   24.1110 H   0  0  0  0  0  0
  -27.4085  -29.7268   25.4486 H   0  0  0  0  0  0
  -27.8639  -30.4374   23.9169 H   0  0  0  0  0  0
  -27.2656  -33.3607   26.2039 H   0  0  0  0  0  0
  -28.3840  -32.6857   25.0270 H   0  0  0  0  0  0
  -28.0702  -31.8413   26.5361 H   0  0  0  0  0  0
  -28.2586  -38.0145   24.7548 H   0  0  0  0  0  0
  -28.1136  -36.2679   24.6207 H   0  0  0  0  0  0
  -27.2325  -37.1381   25.8850 H   0  0  0  0  0  0
  -20.9297  -29.8742   21.6955 H   0  0  0  0  0  0
  -26.0197  -38.2878   24.1405 H   0  0  0  0  0  0
  -28.0212  -19.4547   21.3185 H   0  0  0  0  0  0
  -28.3623  -21.2466   19.6356 H   0  0  0  0  0  0
  -28.4830  -21.9574   21.2351 H   0  0  0  0  0  0
  -28.0131  -25.6943   18.3104 H   0  0  0  0  0  0
  -29.6618  -25.6809   18.8555 H   0  0  0  0  0  0
  -30.5339  -24.1136   18.5004 H   0  0  0  0  0  0
  -32.5687  -20.4033   20.7305 H   0  0  0  0  0  0
  -33.3576  -18.9106   20.7011 H   0  0  0  0  0  0
  -31.0264  -21.2840   20.0341 H   0  0  0  0  0  0
  -29.1843  -15.1098   21.6718 H   0  0  0  0  0  0
  1 25  1  0  0  0
  1 30  2  0  0  0
  1 84  1  0  0  0
  2  3  1  0  0  0
  2 25  1  0  0  0
  2 87  1  0  0  0
  2 88  1  0  0  0
  3  4  1  0  0  0
  3 89  1  0  0  0
  3 90  1  0  0  0
  4  5  1  0  0  0
  4 91  1  0  0  0
  4 92  1  0  0  0
  5  6  1  0  0  0
  5 26  1  0  0  0
  5 93  1  0  0  0
  6 25  1  0  0  0
  6 94  1  0  0  0
  6 95  1  0  0  0
  7  8  2  0  0  0
  7 26  1  0  0  0
  7 29  1  0  0  0
  8  9  1  0  0  0
  8 22  1  0  0  0
  9 10  1  0  0  0
  9 27  2  0  0  0
 10 11  2  0  0  0
 10 15  1  0  0  0
 11 12  1  0  0  0
 11 96  1  0  0  0
 12 13  2  0  0  0
 12 97  1  0  0  0
 13 14  1  0  0  0
 13 31  1  0  0  0
 14 15  2  0  0  0
 14 98  1  0  0  0
 15 99  1  0  0  0
 16 17  2  0  0  0
 16 21  1  0  0  0
 16 31  1  0  0  0
 17 18  1  0  0  0
 17100  1  0  0  0
 18 19  2  0  0  0
 18101  1  0  0  0
 19 20  1  0  0  0
 19 24  1  0  0  0
 20 21  2  0  0  0
 20102  1  0  0  0
 21 23  1  0  0  0
 22 28  1  0  0  0
 22 32  2  0  0  0
 26 27  1  0  0  0
 28103  1  0  0  0
 28104  1  0  0  0
 29105  1  0  0  0
 29106  1  0  0  0
 33 34  1  0  0  0
 33 66  1  0  0  0
 33 70  2  0  0  0
 34 36  1  0  0  0
 34 59  1  0  0  0
 34107  1  0  0  0
 35 44  2  0  0  0
 35 45  1  0  0  0
 35 68  1  0  0  0
 36 56  1  0  0  0
 36108  1  0  0  0
 37 39  1  0  0  0
 37 47  1  0  0  0
 37 66  1  0  0  0
 37109  1  0  0  0
 38 43  2  0  0  0
 38 46  1  0  0  0
 38 47  1  0  0  0
 39 64  1  0  0  0
 39 67  2  0  0  0
 40 52  1  0  0  0
 40 53  2  0  0  0
 40 58  1  0  0  0
 41110  1  0  0  0
 41111  1  0  0  0
 41112  1  0  0  0
 41 48  1  0  0  0
 42 43  1  0  0  0
 42 66  1  0  0  0
 42113  1  0  0  0
 42114  1  0  0  0
 43 44  1  0  0  0
 44115  1  0  0  0
 45 46  2  0  0  0
 45116  1  0  0  0
 46117  1  0  0  0
 47118  1  0  0  0
 47119  1  0  0  0
 48 56  1  0  0  0
 48 65  1  0  0  0
 48120  1  0  0  0
 49 50  1  0  0  0
 49 53  1  0  0  0
 49 64  1  0  0  0
 49121  1  0  0  0
 50 51  1  0  0  0
 50122  1  0  0  0
 50123  1  0  0  0
 51 52  1  0  0  0
 51124  1  0  0  0
 51125  1  0  0  0
 52126  1  0  0  0
 52127  1  0  0  0
 53 54  1  0  0  0
 54 55  2  0  0  0
 54128  1  0  0  0
 55 57  1  0  0  0
 55129  1  0  0  0
 56 69  2  0  0  0
 57 58  2  0  0  0
 57130  1  0  0  0
 58131  1  0  0  0
 59 60  1  0  0  0
 59 61  1  0  0  0
 59 62  1  0  0  0
 60132  1  0  0  0
 60133  1  0  0  0
 60134  1  0  0  0
 61135  1  0  0  0
 61136  1  0  0  0
 61137  1  0  0  0
 62138  1  0  0  0
 62139  1  0  0  0
 62140  1  0  0  0
 63 65  1  0  0  0
 63141  1  0  0  0
 63142  1  0  0  0
 63143  1  0  0  0
 64144  1  0  0  0
 65145  1  0  0  0
 68 79  1  0  0  0
 71 72  2  0  0  0
 71 73  1  0  0  0
 71146  1  0  0  0
 72 74  1  0  0  0
 72 83  1  0  0  0
 73 75  2  0  0  0
 73 86  1  0  0  0
 74 80  2  0  0  0
 74 82  1  0  0  0
 75 80  1  0  0  0
 75 84  1  0  0  0
 76 77  1  0  0  0
 76 78  1  0  0  0
 76 81  2  0  0  0
 77 79  1  0  0  0
 77 85  2  0  0  0
 78 83  1  0  0  0
 78147  1  0  0  0
 78148  1  0  0  0
 79149  1  0  0  0
 79150  1  0  0  0
 81151  1  0  0  0
 82152  1  0  0  0
 82153  1  0  0  0
 83154  1  0  0  0
 84155  1  0  0  0
M  ISO  4   1 100  68 101  79 101  84 100
M  END
> <chiral flag>
0

> <version>
0

> <s_m_source_file>
/data/baiqing/PycharmProjects/Reinvent-master-3.2/result/LINK_invent/BTK/process_docking_weight1_custom_product_contain_oxygen_bond_distance_aromatic_linkinvent_7_9_3/rearranged_h_0164.sdf

> <i_m_source_file_index>
62

> <r_mmod_Potential_Energy-OPLS-2005>
-200.380493164062

> <r_mmod_Stretch_Energy-OPLS-2005>
39.7246475219727

> <r_mmod_Bend_Energy-OPLS-2005>
112.215866088867

> <r_mmod_Torsional_Energy-OPLS-2005>
203.175399780273

> <r_mmod_Improper_Torsional_Energy-OPLS-2005>
11.58216381073

> <r_mmod_Van_der_Waal_Energy-OPLS-2005>
168.44758605957

> <r_mmod_Electrostatic_Energy-OPLS-2005>
-484.896484375

> <r_mmod_Solvation_Energy-OPLS-2005>
-261.200347900391

> <b_mmod_Minimization_Converged-OPLS-2005>
0

> <r_mmod_RMS_Derivative-OPLS-2005>
2.81157946586609

$$$$
63
                    3D
 Structure written by MMmdl.
176185  0  0  1  0            999 V2000
  -30.8833  -14.5245   20.6117 C   0  0  0  0  0  0
  -31.0016  -12.4157   19.2856 C   0  0  0  0  0  0
  -30.2356  -12.1438   17.6864 C   0  0  0  0  0  0
  -27.3817  -12.7408   18.2837 C   0  0  0  0  0  0
  -27.4043  -13.2413   19.9274 C   0  0  2  0  0  0
  -28.7631  -13.1003   20.9436 C   0  0  0  0  0  0
  -25.1244  -13.8258   20.6799 C   0  0  0  0  0  0
  -24.0768  -13.0295   20.9850 C   0  0  0  0  0  0
  -24.5582  -11.6834   20.9422 C   0  0  0  0  0  0
  -23.8591  -10.4163   21.0672 C   0  0  0  0  0  0
  -24.3336   -9.4063   21.9315 C   0  0  0  0  0  0
  -23.6146   -8.2041   22.0746 C   0  0  0  0  0  0
  -22.4147   -8.0097   21.3497 C   0  0  0  0  0  0
  -21.9713   -9.0041   20.4604 C   0  0  0  0  0  0
  -22.6908  -10.1989   20.3142 C   0  0  0  0  0  0
  -21.6789   -6.0635   22.5275 C   0  0  0  0  0  0
  -21.3961   -6.5578   23.8190 C   0  0  0  0  0  0
  -21.3648   -5.6769   24.9177 C   0  0  0  0  0  0
  -21.6053   -4.3020   24.7254 C   0  0  0  0  0  0
  -21.8834   -3.8086   23.4372 C   0  0  0  0  0  0
  -21.9174   -4.6881   22.3418 C   0  0  0  0  0  0
  -22.6831  -13.5016   21.2087 C   0  0  0  0  0  0
  -22.1656   -4.2064   21.0998 F   0  0  0  0  0  0
  -21.5636   -3.4534   25.7768 F   0  0  0  0  0  0
  -30.2524  -13.2972   20.4425 N   0  0  0  0  0  0
  -26.1674  -12.9451   20.5017 N   0  0  0  0  0  0
  -25.8503  -11.6548   20.7013 N   0  0  0  0  0  0
  -21.9476  -12.8042   22.0609 N   0  0  0  0  0  0
  -25.2501  -15.2086   20.5048 N   0  0  0  0  0  0
  -32.0999  -14.6022   20.5380 O   0  0  0  0  0  0
  -21.6539   -6.8712   21.4199 O   0  0  0  0  0  0
  -22.2674  -14.5308   20.6786 O   0  0  0  0  0  0
  -24.6181  -31.8664   23.2097 C   0  0  0  0  0  0
  -25.9062  -32.4819   23.8392 C   0  0  1  0  0  0
  -27.2170  -27.4097   20.0776 C   0  0  0  0  0  0
  -25.5906  -33.8618   24.2321 N   0  0  0  0  0  0
  -23.4064  -30.4929   21.5527 C   0  0  2  0  0  0
  -24.8465  -28.9596   20.1123 C   0  0  0  0  0  0
  -22.7424  -29.4652   22.4981 C   0  0  0  0  0  0
  -18.0273  -28.1372   22.8495 C   0  0  0  0  0  0
  -24.1485  -36.7315   23.2640 C   0  0  0  0  0  0
  -25.9398  -30.8219   21.3684 C   0  0  0  0  0  0
  -26.0129  -29.4583   20.7067 C   0  0  0  0  0  0
  -27.2054  -28.6922   20.6831 C   0  0  0  0  0  0
  -26.0295  -26.9360   19.4769 C   0  0  0  0  0  0
  -24.8504  -27.6995   19.4947 C   0  0  0  0  0  0
  -23.6132  -29.8316   20.1657 C   0  0  0  0  0  0
  -25.4106  -36.3115   24.0341 C   0  0  1  0  0  0
  -20.5870  -28.3662   23.1312 C   0  0  2  0  0  0
  -20.6766  -26.9393   22.5416 C   0  0  0  0  0  0
  -19.5740  -26.6379   21.5218 C   0  0  0  0  0  0
  -18.1919  -26.7918   22.1630 C   0  0  0  0  0  0
  -19.1523  -28.8833   23.2903 C   0  0  0  0  0  0
  -18.9451  -30.1442   23.8909 C   0  0  0  0  0  0
  -17.6452  -30.6579   24.0565 C   0  0  0  0  0  0
  -25.9029  -34.9479   23.5124 C   0  0  0  0  0  0
  -16.5343  -29.9078   23.6329 C   0  0  0  0  0  0
  -16.7263  -28.6498   23.0349 C   0  0  0  0  0  0
  -26.4471  -31.6606   25.0732 C   0  0  0  0  0  0
  -25.3725  -31.3722   26.1475 C   0  0  0  0  0  0
  -27.0315  -30.3051   24.6132 C   0  0  0  0  0  0
  -27.6044  -32.4328   25.7490 C   0  0  0  0  0  0
  -27.5582  -37.1813   24.8460 C   0  0  0  0  0  0
  -21.4151  -29.3033   22.3720 N   0  0  0  0  0  0
  -26.4294  -37.3800   23.9406 N   0  0  0  0  0  0
  -24.6733  -31.0744   22.1016 N   0  0  0  0  0  0
  -23.4182  -28.8183   23.3029 O   0  0  0  0  0  0
  -28.3605  -26.6337   20.0710 O   0  0  0  0  0  0
  -26.5589  -34.8933   22.4684 O   0  0  0  0  0  0
  -23.5368  -32.1429   23.7471 O   0  0  0  0  0  0
  -28.6254  -18.5183   18.7191 C   0  0  0  0  0  0
  -26.5099  -18.6229   17.5856 C   0  0  0  0  0  0
  -27.7689  -16.4803   17.5758 C   0  0  0  0  0  0
  -28.6148  -17.0876   18.6486 C   0  0  0  0  0  0
  -27.5565  -19.3009   18.2247 C   0  0  0  0  0  0
  -26.5991  -17.2556   17.2668 C   0  0  0  0  0  0
  -28.0202  -15.2965   16.5051 C   0  0  0  0  0  0
  -28.2386  -24.2703   19.2248 C   0  0  0  0  0  0
  -28.0352  -21.6481   19.1360 C   0  0  0  0  0  0
  -28.3113  -10.7755   17.2892 C   0  0  0  0  0  0
  -28.7917  -11.2778   19.0646 C   0  0  0  0  0  0
  -28.3378  -12.2446   16.1106 C   0  0  0  0  0  0
  -29.2113  -13.9399   18.3432 C   0  0  0  0  0  0
  -28.8294  -13.9454   16.6956 C   0  0  0  0  0  0
  -28.9645  -17.4426   21.2767 C   0  0  0  0  0  0
  -27.3249  -23.0210   19.2594 C   0  0  0  0  0  0
  -28.1707  -25.2414   20.4287 C   0  0  0  0  0  0
  -29.0392  -16.4563   20.0867 C   0  0  2  0  0  0
  -25.4597  -16.7219   16.6500 N   0  0  0  0  0  0
  -27.3602  -20.7112   18.4289 N   0  0  0  0  0  0
  -30.3404  -15.7381   20.2374 N   0  0  0  0  0  0
  -27.5732  -15.3944   15.3574 O   0  0  0  0  0  0
  -28.9524  -24.5190   18.2452 O   0  0  0  0  0  0
  -29.1169  -21.4395   19.6916 O   0  0  0  0  0  0
  -31.9666  -12.8437   19.0204 H   0  0  0  0  0  0
  -31.3432  -11.4867   19.7444 H   0  0  0  0  0  0
  -30.5929  -11.1538   17.3833 H   0  0  0  0  0  0
  -30.8153  -12.7173   16.9550 H   0  0  0  0  0  0
  -26.6104  -11.9636   18.2467 H   0  0  0  0  0  0
  -26.7898  -13.4749   17.7368 H   0  0  0  0  0  0
  -27.2497  -14.2843   19.8529 H   0  0  0  0  0  0
  -28.7316  -12.1436   21.4659 H   0  0  0  0  0  0
  -28.6110  -13.8087   21.7586 H   0  0  0  0  0  0
  -25.2427   -9.5618   22.4948 H   0  0  0  0  0  0
  -23.9885   -7.4411   22.7421 H   0  0  0  0  0  0
  -21.0680   -8.8489   19.8885 H   0  0  0  0  0  0
  -22.3313  -10.9560   19.6313 H   0  0  0  0  0  0
  -21.1926   -7.6091   23.9660 H   0  0  0  0  0  0
  -21.1473   -6.0511   25.9074 H   0  0  0  0  0  0
  -22.0628   -2.7551   23.2905 H   0  0  0  0  0  0
  -22.3149  -11.9782   22.5097 H   0  0  0  0  0  0
  -21.0038  -13.0969   22.2703 H   0  0  0  0  0  0
  -24.4369  -15.8113   20.5542 H   0  0  0  0  0  0
  -26.0621  -15.6780   20.1278 H   0  0  0  0  0  0
  -26.7126  -32.5514   23.1144 H   0  0  0  0  0  0
  -25.0071  -33.9778   25.0477 H   0  0  0  0  0  0
  -22.6982  -31.3129   21.4166 H   0  0  0  0  0  0
  -23.3754  -35.9640   23.3304 H   0  0  0  0  0  0
  -24.3579  -36.8928   22.2053 H   0  0  0  0  0  0
  -23.7229  -37.6519   23.6649 H   0  0  0  0  0  0
  -26.0615  -31.5927   20.6061 H   0  0  0  0  0  0
  -26.8237  -30.8653   21.9933 H   0  0  0  0  0  0
  -28.1079  -29.0711   21.1425 H   0  0  0  0  0  0
  -26.0021  -25.9786   18.9785 H   0  0  0  0  0  0
  -23.9546  -27.3146   19.0264 H   0  0  0  0  0  0
  -23.7253  -30.6094   19.4093 H   0  0  0  0  0  0
  -22.7346  -29.2572   19.8665 H   0  0  0  0  0  0
  -25.1284  -36.1986   25.0837 H   0  0  0  0  0  0
  -20.9965  -28.3230   24.1434 H   0  0  0  0  0  0
  -20.5682  -26.2264   23.3605 H   0  0  0  0  0  0
  -21.6636  -26.7441   22.1202 H   0  0  0  0  0  0
  -19.6900  -25.6297   21.1232 H   0  0  0  0  0  0
  -19.6682  -27.3207   20.6763 H   0  0  0  0  0  0
  -17.4193  -26.6677   21.4028 H   0  0  0  0  0  0
  -18.0311  -26.0053   22.9019 H   0  0  0  0  0  0
  -19.7926  -30.7255   24.2284 H   0  0  0  0  0  0
  -17.5005  -31.6264   24.5155 H   0  0  0  0  0  0
  -15.5341  -30.2981   23.7647 H   0  0  0  0  0  0
  -15.8666  -28.0822   22.7050 H   0  0  0  0  0  0
  -24.5879  -30.7098   25.7802 H   0  0  0  0  0  0
  -24.8939  -32.2884   26.4945 H   0  0  0  0  0  0
  -25.8063  -30.8862   27.0222 H   0  0  0  0  0  0
  -26.2871  -29.6800   24.1190 H   0  0  0  0  0  0
  -27.4088  -29.7306   25.4600 H   0  0  0  0  0  0
  -27.8701  -30.4378   23.9293 H   0  0  0  0  0  0
  -27.2660  -33.3610   26.2108 H   0  0  0  0  0  0
  -28.3824  -32.6921   25.0297 H   0  0  0  0  0  0
  -28.0741  -31.8431   26.5372 H   0  0  0  0  0  0
  -28.2600  -38.0112   24.7523 H   0  0  0  0  0  0
  -28.1082  -36.2648   24.6267 H   0  0  0  0  0  0
  -27.2300  -37.1437   25.8863 H   0  0  0  0  0  0
  -20.9304  -29.8775   21.6964 H   0  0  0  0  0  0
  -26.0189  -38.2881   24.1415 H   0  0  0  0  0  0
  -29.3419  -19.0157   19.3504 H   0  0  0  0  0  0
  -25.6252  -19.1733   17.2955 H   0  0  0  0  0  0
  -27.3399  -10.2791   17.2706 H   0  0  0  0  0  0
  -28.9521   -9.9755   16.9113 H   0  0  0  0  0  0
  -29.5626  -10.5831   19.4089 H   0  0  0  0  0  0
  -27.9974  -10.9434   19.7321 H   0  0  0  0  0  0
  -27.3587  -12.3199   15.6353 H   0  0  0  0  0  0
  -28.9915  -11.9881   15.2761 H   0  0  0  0  0  0
  -30.1995  -14.3996   18.2111 H   0  0  0  0  0  0
  -28.6859  -14.7014   18.7550 H   0  0  0  0  0  0
  -29.7274  -14.1948   16.1296 H   0  0  0  0  0  0
  -28.0017  -17.9558   21.3126 H   0  0  0  0  0  0
  -29.7557  -18.1931   21.2609 H   0  0  0  0  0  0
  -29.0626  -16.9120   22.2253 H   0  0  0  0  0  0
  -26.5966  -23.1297   18.4548 H   0  0  0  0  0  0
  -26.7503  -23.0181   20.1858 H   0  0  0  0  0  0
  -28.9603  -24.9599   21.1243 H   0  0  0  0  0  0
  -27.2338  -25.1024   20.9699 H   0  0  0  0  0  0
  -28.2422  -15.8220   20.4185 H   0  0  0  0  0  0
  -24.7453  -17.3501   16.2972 H   0  0  0  0  0  0
  -25.5752  -15.8979   16.0680 H   0  0  0  0  0  0
  -26.5053  -21.0666   18.0205 H   0  0  0  0  0  0
  -31.1042  -16.3877   20.1481 H   0  0  0  0  0  0
  1 25  1  0  0  0
  1 30  2  0  0  0
  1 91  1  0  0  0
  2  3  1  0  0  0
  2 25  1  0  0  0
  2 95  1  0  0  0
  2 96  1  0  0  0
  3  4  1  0  0  0
  3 97  1  0  0  0
  3 98  1  0  0  0
  4  5  1  0  0  0
  4 99  1  0  0  0
  4100  1  0  0  0
  5  6  1  0  0  0
  5 26  1  0  0  0
  5101  1  0  0  0
  6 25  1  0  0  0
  6102  1  0  0  0
  6103  1  0  0  0
  7  8  2  0  0  0
  7 26  1  0  0  0
  7 29  1  0  0  0
  8  9  1  0  0  0
  8 22  1  0  0  0
  9 10  1  0  0  0
  9 27  2  0  0  0
 10 11  2  0  0  0
 10 15  1  0  0  0
 11 12  1  0  0  0
 11104  1  0  0  0
 12 13  2  0  0  0
 12105  1  0  0  0
 13 14  1  0  0  0
 13 31  1  0  0  0
 14 15  2  0  0  0
 14106  1  0  0  0
 15107  1  0  0  0
 16 17  2  0  0  0
 16 21  1  0  0  0
 16 31  1  0  0  0
 17 18  1  0  0  0
 17108  1  0  0  0
 18 19  2  0  0  0
 18109  1  0  0  0
 19 20  1  0  0  0
 19 24  1  0  0  0
 20 21  2  0  0  0
 20110  1  0  0  0
 21 23  1  0  0  0
 22 28  1  0  0  0
 22 32  2  0  0  0
 26 27  1  0  0  0
 28111  1  0  0  0
 28112  1  0  0  0
 29113  1  0  0  0
 29114  1  0  0  0
 33 34  1  0  0  0
 33 66  1  0  0  0
 33 70  2  0  0  0
 34 36  1  0  0  0
 34 59  1  0  0  0
 34115  1  0  0  0
 35 44  2  0  0  0
 35 45  1  0  0  0
 35 68  1  0  0  0
 36 56  1  0  0  0
 36116  1  0  0  0
 37 39  1  0  0  0
 37 47  1  0  0  0
 37 66  1  0  0  0
 37117  1  0  0  0
 38 43  2  0  0  0
 38 46  1  0  0  0
 38 47  1  0  0  0
 39 64  1  0  0  0
 39 67  2  0  0  0
 40 52  1  0  0  0
 40 53  2  0  0  0
 40 58  1  0  0  0
 41118  1  0  0  0
 41119  1  0  0  0
 41120  1  0  0  0
 41 48  1  0  0  0
 42 43  1  0  0  0
 42 66  1  0  0  0
 42121  1  0  0  0
 42122  1  0  0  0
 43 44  1  0  0  0
 44123  1  0  0  0
 45 46  2  0  0  0
 45124  1  0  0  0
 46125  1  0  0  0
 47126  1  0  0  0
 47127  1  0  0  0
 48 56  1  0  0  0
 48 65  1  0  0  0
 48128  1  0  0  0
 49 50  1  0  0  0
 49 53  1  0  0  0
 49 64  1  0  0  0
 49129  1  0  0  0
 50 51  1  0  0  0
 50130  1  0  0  0
 50131  1  0  0  0
 51 52  1  0  0  0
 51132  1  0  0  0
 51133  1  0  0  0
 52134  1  0  0  0
 52135  1  0  0  0
 53 54  1  0  0  0
 54 55  2  0  0  0
 54136  1  0  0  0
 55 57  1  0  0  0
 55137  1  0  0  0
 56 69  2  0  0  0
 57 58  2  0  0  0
 57138  1  0  0  0
 58139  1  0  0  0
 59 60  1  0  0  0
 59 61  1  0  0  0
 59 62  1  0  0  0
 60140  1  0  0  0
 60141  1  0  0  0
 60142  1  0  0  0
 61143  1  0  0  0
 61144  1  0  0  0
 61145  1  0  0  0
 62146  1  0  0  0
 62147  1  0  0  0
 62148  1  0  0  0
 63 65  1  0  0  0
 63149  1  0  0  0
 63150  1  0  0  0
 63151  1  0  0  0
 64152  1  0  0  0
 65153  1  0  0  0
 68 87  1  0  0  0
 71 74  2  0  0  0
 71 75  1  0  0  0
 71154  1  0  0  0
 72 75  2  0  0  0
 72 76  1  0  0  0
 72155  1  0  0  0
 73 74  1  0  0  0
 73 76  2  0  0  0
 73 77  1  0  0  0
 74 88  1  0  0  0
 75 90  1  0  0  0
 76 89  1  0  0  0
 77 92  2  0  0  0
 77 84  1  0  0  0
 78 86  1  0  0  0
 78 87  1  0  0  0
 78 93  2  0  0  0
 79 86  1  0  0  0
 79 90  1  0  0  0
 79 94  2  0  0  0
 80 81  1  0  0  0
 80 82  1  0  0  0
 80156  1  0  0  0
 80157  1  0  0  0
 81 83  1  0  0  0
 81158  1  0  0  0
 81159  1  0  0  0
 82 84  1  0  0  0
 82160  1  0  0  0
 82161  1  0  0  0
 83 84  1  0  0  0
 83162  1  0  0  0
 83163  1  0  0  0
 84164  1  0  0  0
 85165  1  0  0  0
 85166  1  0  0  0
 85167  1  0  0  0
 85 88  1  0  0  0
 86168  1  0  0  0
 86169  1  0  0  0
 87170  1  0  0  0
 87171  1  0  0  0
 88 91  1  0  0  0
 88172  1  0  0  0
 89173  1  0  0  0
 89174  1  0  0  0
 90175  1  0  0  0
 91176  1  0  0  0
M  ISO  4   1 100  68 101  87 101  91 100
M  END
> <chiral flag>
0

> <version>
0

> <s_m_source_file>
/data/baiqing/PycharmProjects/Reinvent-master-3.2/result/LINK_invent/BTK/process_docking_weight1_custom_product_contain_oxygen_bond_distance_aromatic_linkinvent_7_9_3/rearranged_h_0164.sdf

> <i_m_source_file_index>
63

> <r_mmod_Potential_Energy-OPLS-2005>
8222.908203125

> <r_mmod_Stretch_Energy-OPLS-2005>
4951.0869140625

> <r_mmod_Bend_Energy-OPLS-2005>
535.219360351562

> <r_mmod_Torsional_Energy-OPLS-2005>
560.138244628906

> <r_mmod_Improper_Torsional_Energy-OPLS-2005>
38.3824081420898

> <r_mmod_Van_der_Waal_Energy-OPLS-2005>
2453.05834960938

> <r_mmod_Electrostatic_Energy-OPLS-2005>
-335.9931640625

> <r_mmod_Solvation_Energy-OPLS-2005>
-257.300201416016

> <b_mmod_Minimization_Converged-OPLS-2005>
0

> <r_mmod_RMS_Derivative-OPLS-2005>
5.90052318572998

$$$$
64
                    3D
 Structure written by MMmdl.
159167  0  0  1  0            999 V2000
  -30.6891  -14.4549   20.6111 C   0  0  0  0  0  0
  -30.4332  -12.3086   19.4158 C   0  0  0  0  0  0
  -29.4966  -12.5210   18.2087 C   0  0  0  0  0  0
  -28.0164  -12.3759   18.6170 C   0  0  0  0  0  0
  -27.6647  -13.1999   19.8828 C   0  0  2  0  0  0
  -28.7050  -12.9420   20.9963 C   0  0  0  0  0  0
  -25.2587  -13.8162   20.5698 C   0  0  0  0  0  0
  -24.1815  -13.0447   20.9162 C   0  0  0  0  0  0
  -24.6364  -11.6909   20.8721 C   0  0  0  0  0  0
  -23.9020  -10.4300   21.0401 C   0  0  0  0  0  0
  -24.3580   -9.4209   21.9174 C   0  0  0  0  0  0
  -23.6268   -8.2237   22.0738 C   0  0  0  0  0  0
  -22.4253   -8.0270   21.3535 C   0  0  0  0  0  0
  -21.9876   -9.0231   20.4631 C   0  0  0  0  0  0
  -22.7190  -10.2125   20.3045 C   0  0  0  0  0  0
  -21.6843   -6.0705   22.5269 C   0  0  0  0  0  0
  -21.4009   -6.5616   23.8197 C   0  0  0  0  0  0
  -21.3670   -5.6778   24.9172 C   0  0  0  0  0  0
  -21.6057   -4.3038   24.7227 C   0  0  0  0  0  0
  -21.8813   -3.8123   23.4350 C   0  0  0  0  0  0
  -21.9189   -4.6936   22.3407 C   0  0  0  0  0  0
  -22.7835  -13.5243   21.1837 C   0  0  0  0  0  0
  -22.1650   -4.2119   21.0983 F   0  0  0  0  0  0
  -21.5648   -3.4533   25.7745 F   0  0  0  0  0  0
  -30.0414  -13.2672   20.4596 N   0  0  0  0  0  0
  -26.3018  -12.9316   20.3385 N   0  0  0  0  0  0
  -25.9296  -11.6482   20.5754 N   0  0  0  0  0  0
  -22.0471  -12.8245   22.0406 N   0  0  0  0  0  0
  -25.4355  -15.1879   20.4127 N   0  0  0  0  0  0
  -31.7860  -14.6946   20.0978 O   0  0  0  0  0  0
  -21.6635   -6.8852   21.4232 O   0  0  0  0  0  0
  -22.3515  -14.5534   20.6668 O   0  0  0  0  0  0
  -24.6146  -31.8685   23.2106 C   0  0  0  0  0  0
  -25.9037  -32.4827   23.8400 C   0  0  1  0  0  0
  -27.2363  -27.4285   20.0903 C   0  0  0  0  0  0
  -25.5893  -33.8621   24.2323 N   0  0  0  0  0  0
  -23.4065  -30.4952   21.5488 C   0  0  2  0  0  0
  -24.8524  -28.9579   20.1147 C   0  0  0  0  0  0
  -22.7390  -29.4719   22.4964 C   0  0  0  0  0  0
  -18.0287  -28.1426   22.8528 C   0  0  0  0  0  0
  -24.1473  -36.7305   23.2636 C   0  0  0  0  0  0
  -25.9380  -30.8253   21.3741 C   0  0  0  0  0  0
  -26.0149  -29.4629   20.7147 C   0  0  0  0  0  0
  -27.2092  -28.7048   20.7006 C   0  0  0  0  0  0
  -26.0611  -26.9509   19.4693 C   0  0  0  0  0  0
  -24.8700  -27.6986   19.4910 C   0  0  0  0  0  0
  -23.6171  -29.8250   20.1646 C   0  0  0  0  0  0
  -25.4100  -36.3123   24.0333 C   0  0  1  0  0  0
  -20.5875  -28.3721   23.1325 C   0  0  2  0  0  0
  -20.6763  -26.9464   22.5420 C   0  0  0  0  0  0
  -19.5743  -26.6432   21.5220 C   0  0  0  0  0  0
  -18.1921  -26.7981   22.1645 C   0  0  0  0  0  0
  -19.1534  -28.8879   23.2930 C   0  0  0  0  0  0
  -18.9468  -30.1480   23.8951 C   0  0  0  0  0  0
  -17.6468  -30.6629   24.0588 C   0  0  0  0  0  0
  -25.9025  -34.9490   23.5123 C   0  0  0  0  0  0
  -16.5354  -29.9147   23.6339 C   0  0  0  0  0  0
  -16.7271  -28.6546   23.0396 C   0  0  0  0  0  0
  -26.4462  -31.6625   25.0740 C   0  0  0  0  0  0
  -25.3724  -31.3764   26.1482 C   0  0  0  0  0  0
  -27.0278  -30.3045   24.6188 C   0  0  0  0  0  0
  -27.6044  -32.4340   25.7489 C   0  0  0  0  0  0
  -27.5576  -37.1812   24.8462 C   0  0  0  0  0  0
  -21.4112  -29.3088   22.3686 N   0  0  0  0  0  0
  -26.4290  -37.3804   23.9410 N   0  0  0  0  0  0
  -24.6710  -31.0761   22.1030 N   0  0  0  0  0  0
  -23.4132  -28.8273   23.3047 O   0  0  0  0  0  0
  -28.3801  -26.6511   20.1000 O   0  0  0  0  0  0
  -26.5586  -34.8943   22.4691 O   0  0  0  0  0  0
  -23.5343  -32.1453   23.7486 O   0  0  0  0  0  0
  -31.1325  -17.5379   21.6339 C   0  0  0  0  0  0
  -30.1078  -16.7255   21.2049 C   0  0  0  0  0  0
  -29.6371  -19.1749   21.0749 C   0  0  0  0  0  0
  -28.5756  -22.7868   20.4326 C   0  0  0  0  0  0
  -28.5717  -25.5125   22.2209 C   0  0  0  0  0  0
  -30.8057  -21.7803   20.0295 C   0  0  0  0  0  0
  -28.9062  -20.4963   21.1946 C   0  0  0  0  0  0
  -29.0805  -24.2137   20.0663 C   0  0  0  0  0  0
  -28.2303  -25.3519   20.7274 C   0  0  2  0  0  0
  -30.8581  -18.9087   21.5624 N   0  0  0  0  0  0
  -32.3208  -17.1032   22.2102 N   0  0  0  0  0  0
  -27.5693  -25.7408   23.0582 N   0  0  0  0  0  0
  -29.9927  -15.3740   21.2988 N   0  0  0  0  0  0
  -29.4153  -21.7132   20.4958 N   0  0  0  0  0  0
  -27.3763  -22.6602   20.7094 O   0  0  0  0  0  0
  -29.7329  -25.4474   22.6252 O   0  0  0  0  0  0
  -28.7784  -17.6995   20.6203 S   0  0  0  0  0  0
  -31.4752  -12.4268   19.1159 H   0  0  0  0  0  0
  -30.3496  -11.2895   19.7948 H   0  0  0  0  0  0
  -29.7366  -11.8095   17.4181 H   0  0  0  0  0  0
  -29.6630  -13.5164   17.7919 H   0  0  0  0  0  0
  -27.8227  -11.3181   18.7979 H   0  0  0  0  0  0
  -27.3664  -12.6635   17.7902 H   0  0  0  0  0  0
  -27.7207  -14.2535   19.6070 H   0  0  0  0  0  0
  -28.6835  -11.8910   21.2881 H   0  0  0  0  0  0
  -28.4526  -13.4907   21.9046 H   0  0  0  0  0  0
  -25.2728   -9.5688   22.4738 H   0  0  0  0  0  0
  -23.9980   -7.4628   22.7453 H   0  0  0  0  0  0
  -21.0799   -8.8730   19.8936 H   0  0  0  0  0  0
  -22.3629  -10.9651   19.6142 H   0  0  0  0  0  0
  -21.1982   -7.6124   23.9691 H   0  0  0  0  0  0
  -21.1509   -6.0517   25.9075 H   0  0  0  0  0  0
  -22.0585   -2.7588   23.2864 H   0  0  0  0  0  0
  -22.4083  -11.9926   22.4834 H   0  0  0  0  0  0
  -21.1071  -13.1255   22.2586 H   0  0  0  0  0  0
  -24.6760  -15.8498   20.5264 H   0  0  0  0  0  0
  -26.2964  -15.6237   20.1066 H   0  0  0  0  0  0
  -26.7109  -32.5540   23.1161 H   0  0  0  0  0  0
  -25.0043  -33.9776   25.0471 H   0  0  0  0  0  0
  -22.6992  -31.3151   21.4053 H   0  0  0  0  0  0
  -23.3743  -35.9635   23.3340 H   0  0  0  0  0  0
  -24.3564  -36.8871   22.2045 H   0  0  0  0  0  0
  -23.7208  -37.6513   23.6616 H   0  0  0  0  0  0
  -26.0593  -31.5950   20.6116 H   0  0  0  0  0  0
  -26.8188  -30.8702   22.0015 H   0  0  0  0  0  0
  -28.1051  -29.0825   21.1756 H   0  0  0  0  0  0
  -26.0654  -25.9945   18.9642 H   0  0  0  0  0  0
  -23.9789  -27.3071   19.0173 H   0  0  0  0  0  0
  -23.7249  -30.5965   19.4010 H   0  0  0  0  0  0
  -22.7430  -29.2408   19.8728 H   0  0  0  0  0  0
  -25.1286  -36.1990   25.0824 H   0  0  0  0  0  0
  -20.9983  -28.3307   24.1450 H   0  0  0  0  0  0
  -20.5681  -26.2349   23.3622 H   0  0  0  0  0  0
  -21.6644  -26.7511   22.1211 H   0  0  0  0  0  0
  -19.6894  -25.6337   21.1278 H   0  0  0  0  0  0
  -19.6694  -27.3220   20.6734 H   0  0  0  0  0  0
  -17.4196  -26.6775   21.4043 H   0  0  0  0  0  0
  -18.0314  -26.0106   22.9019 H   0  0  0  0  0  0
  -19.7936  -30.7289   24.2369 H   0  0  0  0  0  0
  -17.5023  -31.6329   24.5193 H   0  0  0  0  0  0
  -15.5367  -30.3074   23.7635 H   0  0  0  0  0  0
  -15.8663  -28.0862   22.7139 H   0  0  0  0  0  0
  -24.5928  -30.7057   25.7857 H   0  0  0  0  0  0
  -24.8876  -32.2931   26.4855 H   0  0  0  0  0  0
  -25.8077  -30.9017   27.0292 H   0  0  0  0  0  0
  -26.2850  -29.6824   24.1181 H   0  0  0  0  0  0
  -27.3896  -29.7258   25.4699 H   0  0  0  0  0  0
  -27.8761  -30.4316   23.9455 H   0  0  0  0  0  0
  -27.2698  -33.3644   26.2099 H   0  0  0  0  0  0
  -28.3864  -32.6897   25.0321 H   0  0  0  0  0  0
  -28.0718  -31.8427   26.5373 H   0  0  0  0  0  0
  -28.2616  -38.0088   24.7529 H   0  0  0  0  0  0
  -28.1055  -36.2638   24.6292 H   0  0  0  0  0  0
  -27.2300  -37.1460   25.8858 H   0  0  0  0  0  0
  -20.9251  -29.8787   21.6901 H   0  0  0  0  0  0
  -26.0179  -38.2886   24.1403 H   0  0  0  0  0  0
  -30.9109  -22.4385   19.1646 H   0  0  0  0  0  0
  -31.1812  -20.8137   19.7041 H   0  0  0  0  0  0
  -31.4553  -22.1513   20.8224 H   0  0  0  0  0  0
  -28.8422  -20.7284   22.2569 H   0  0  0  0  0  0
  -27.8830  -20.2928   20.8728 H   0  0  0  0  0  0
  -30.1307  -24.3317   20.3341 H   0  0  0  0  0  0
  -29.0338  -24.3080   18.9824 H   0  0  0  0  0  0
  -27.1823  -25.0562   20.6857 H   0  0  0  0  0  0
  -32.3781  -16.1261   22.4703 H   0  0  0  0  0  0
  -32.8058  -17.7327   22.8376 H   0  0  0  0  0  0
  -26.6238  -25.8153   22.7105 H   0  0  0  0  0  0
  -27.7476  -25.8640   24.0429 H   0  0  0  0  0  0
  -29.1055  -15.0344   21.6356 H   0  0  0  0  0  0
  1 25  1  0  0  0
  1 30  2  0  0  0
  1 83  1  0  0  0
  2  3  1  0  0  0
  2 25  1  0  0  0
  2 88  1  0  0  0
  2 89  1  0  0  0
  3  4  1  0  0  0
  3 90  1  0  0  0
  3 91  1  0  0  0
  4  5  1  0  0  0
  4 92  1  0  0  0
  4 93  1  0  0  0
  5  6  1  0  0  0
  5 26  1  0  0  0
  5 94  1  0  0  0
  6 25  1  0  0  0
  6 95  1  0  0  0
  6 96  1  0  0  0
  7  8  2  0  0  0
  7 26  1  0  0  0
  7 29  1  0  0  0
  8  9  1  0  0  0
  8 22  1  0  0  0
  9 10  1  0  0  0
  9 27  2  0  0  0
 10 11  2  0  0  0
 10 15  1  0  0  0
 11 12  1  0  0  0
 11 97  1  0  0  0
 12 13  2  0  0  0
 12 98  1  0  0  0
 13 14  1  0  0  0
 13 31  1  0  0  0
 14 15  2  0  0  0
 14 99  1  0  0  0
 15100  1  0  0  0
 16 17  2  0  0  0
 16 21  1  0  0  0
 16 31  1  0  0  0
 17 18  1  0  0  0
 17101  1  0  0  0
 18 19  2  0  0  0
 18102  1  0  0  0
 19 20  1  0  0  0
 19 24  1  0  0  0
 20 21  2  0  0  0
 20103  1  0  0  0
 21 23  1  0  0  0
 22 28  1  0  0  0
 22 32  2  0  0  0
 26 27  1  0  0  0
 28104  1  0  0  0
 28105  1  0  0  0
 29106  1  0  0  0
 29107  1  0  0  0
 33 34  1  0  0  0
 33 66  1  0  0  0
 33 70  2  0  0  0
 34 36  1  0  0  0
 34 59  1  0  0  0
 34108  1  0  0  0
 35 44  2  0  0  0
 35 45  1  0  0  0
 35 68  1  0  0  0
 36 56  1  0  0  0
 36109  1  0  0  0
 37 39  1  0  0  0
 37 47  1  0  0  0
 37 66  1  0  0  0
 37110  1  0  0  0
 38 43  2  0  0  0
 38 46  1  0  0  0
 38 47  1  0  0  0
 39 64  1  0  0  0
 39 67  2  0  0  0
 40 52  1  0  0  0
 40 53  2  0  0  0
 40 58  1  0  0  0
 41111  1  0  0  0
 41112  1  0  0  0
 41113  1  0  0  0
 41 48  1  0  0  0
 42 43  1  0  0  0
 42 66  1  0  0  0
 42114  1  0  0  0
 42115  1  0  0  0
 43 44  1  0  0  0
 44116  1  0  0  0
 45 46  2  0  0  0
 45117  1  0  0  0
 46118  1  0  0  0
 47119  1  0  0  0
 47120  1  0  0  0
 48 56  1  0  0  0
 48 65  1  0  0  0
 48121  1  0  0  0
 49 50  1  0  0  0
 49 53  1  0  0  0
 49 64  1  0  0  0
 49122  1  0  0  0
 50 51  1  0  0  0
 50123  1  0  0  0
 50124  1  0  0  0
 51 52  1  0  0  0
 51125  1  0  0  0
 51126  1  0  0  0
 52127  1  0  0  0
 52128  1  0  0  0
 53 54  1  0  0  0
 54 55  2  0  0  0
 54129  1  0  0  0
 55 57  1  0  0  0
 55130  1  0  0  0
 56 69  2  0  0  0
 57 58  2  0  0  0
 57131  1  0  0  0
 58132  1  0  0  0
 59 60  1  0  0  0
 59 61  1  0  0  0
 59 62  1  0  0  0
 60133  1  0  0  0
 60134  1  0  0  0
 60135  1  0  0  0
 61136  1  0  0  0
 61137  1  0  0  0
 61138  1  0  0  0
 62139  1  0  0  0
 62140  1  0  0  0
 62141  1  0  0  0
 63 65  1  0  0  0
 63142  1  0  0  0
 63143  1  0  0  0
 63144  1  0  0  0
 64145  1  0  0  0
 65146  1  0  0  0
 68 79  1  0  0  0
 71 72  2  0  0  0
 71 80  1  0  0  0
 71 81  1  0  0  0
 72 83  1  0  0  0
 72 87  1  0  0  0
 73 77  1  0  0  0
 73 80  2  0  0  0
 73 87  1  0  0  0
 74 78  1  0  0  0
 74 84  1  0  0  0
 74 85  2  0  0  0
 75 79  1  0  0  0
 75 82  1  0  0  0
 75 86  2  0  0  0
 76 84  1  0  0  0
 76147  1  0  0  0
 76148  1  0  0  0
 76149  1  0  0  0
 77 84  1  0  0  0
 77150  1  0  0  0
 77151  1  0  0  0
 78152  1  0  0  0
 78153  1  0  0  0
 78 79  1  0  0  0
 79154  1  0  0  0
 81155  1  0  0  0
 81156  1  0  0  0
 82157  1  0  0  0
 82158  1  0  0  0
 83159  1  0  0  0
M  ISO  4   1 100  68 101  79 101  83 100
M  END
> <chiral flag>
0

> <version>
0

> <s_m_source_file>
/data/baiqing/PycharmProjects/Reinvent-master-3.2/result/LINK_invent/BTK/process_docking_weight1_custom_product_contain_oxygen_bond_distance_aromatic_linkinvent_7_9_3/rearranged_h_0164.sdf

> <i_m_source_file_index>
64

> <r_mmod_Potential_Energy-OPLS-2005>
-429.182830810547

> <r_mmod_Stretch_Energy-OPLS-2005>
42.9408149719238

> <r_mmod_Bend_Energy-OPLS-2005>
120.231773376465

> <r_mmod_Torsional_Energy-OPLS-2005>
268.504669189453

> <r_mmod_Improper_Torsional_Energy-OPLS-2005>
9.46452140808105

> <r_mmod_Van_der_Waal_Energy-OPLS-2005>
145.320556640625

> <r_mmod_Electrostatic_Energy-OPLS-2005>
-755.80615234375

> <r_mmod_Solvation_Energy-OPLS-2005>
-272.25

> <b_mmod_Minimization_Converged-OPLS-2005>
0

> <r_mmod_RMS_Derivative-OPLS-2005>
3.51419949531555

$$$$
65
                    3D
 Structure written by MMmdl.
161170  0  0  1  0            999 V2000
  -30.6230  -14.6083   20.4917 C   0  0  0  0  0  0
  -30.4375  -12.3699   19.4443 C   0  0  0  0  0  0
  -29.5024  -12.4956   18.2203 C   0  0  0  0  0  0
  -28.0253  -12.3411   18.6332 C   0  0  0  0  0  0
  -27.6540  -13.2084   19.8636 C   0  0  2  0  0  0
  -28.6994  -13.0497   20.9919 C   0  0  0  0  0  0
  -25.2575  -13.8171   20.5673 C   0  0  0  0  0  0
  -24.1821  -13.0453   20.9178 C   0  0  0  0  0  0
  -24.6376  -11.6915   20.8745 C   0  0  0  0  0  0
  -23.9054  -10.4299   21.0421 C   0  0  0  0  0  0
  -24.3613   -9.4207   21.9185 C   0  0  0  0  0  0
  -23.6284   -8.2248   22.0766 C   0  0  0  0  0  0
  -22.4270   -8.0290   21.3555 C   0  0  0  0  0  0
  -21.9905   -9.0266   20.4661 C   0  0  0  0  0  0
  -22.7238  -10.2137   20.3061 C   0  0  0  0  0  0
  -21.6851   -6.0733   22.5285 C   0  0  0  0  0  0
  -21.4011   -6.5637   23.8213 C   0  0  0  0  0  0
  -21.3656   -5.6797   24.9176 C   0  0  0  0  0  0
  -21.6042   -4.3061   24.7235 C   0  0  0  0  0  0
  -21.8815   -3.8147   23.4357 C   0  0  0  0  0  0
  -21.9194   -4.6959   22.3410 C   0  0  0  0  0  0
  -22.7843  -13.5258   21.1858 C   0  0  0  0  0  0
  -22.1673   -4.2146   21.0989 F   0  0  0  0  0  0
  -21.5627   -3.4542   25.7743 F   0  0  0  0  0  0
  -30.0184  -13.3830   20.4301 N   0  0  0  0  0  0
  -26.2985  -12.9323   20.3323 N   0  0  0  0  0  0
  -25.9303  -11.6491   20.5779 N   0  0  0  0  0  0
  -22.0485  -12.8236   22.0407 N   0  0  0  0  0  0
  -25.4342  -15.1888   20.4107 N   0  0  0  0  0  0
  -31.7889  -14.7743   20.1158 O   0  0  0  0  0  0
  -21.6640   -6.8881   21.4248 O   0  0  0  0  0  0
  -22.3531  -14.5570   20.6726 O   0  0  0  0  0  0
  -24.6223  -31.8612   23.2050 C   0  0  0  0  0  0
  -25.9083  -32.4781   23.8374 C   0  0  1  0  0  0
  -27.2344  -27.3572   20.1012 C   0  0  0  0  0  0
  -25.5908  -33.8583   24.2293 N   0  0  0  0  0  0
  -23.4132  -30.4846   21.5469 C   0  0  2  0  0  0
  -24.8591  -28.9395   20.1162 C   0  0  0  0  0  0
  -22.7455  -29.4633   22.4973 C   0  0  0  0  0  0
  -18.0297  -28.1367   22.8495 C   0  0  0  0  0  0
  -24.1487  -36.7292   23.2636 C   0  0  0  0  0  0
  -25.9501  -30.8040   21.3690 C   0  0  0  0  0  0
  -26.0243  -29.4328   20.7134 C   0  0  0  0  0  0
  -27.2106  -28.6507   20.6993 C   0  0  0  0  0  0
  -26.0384  -26.8941   19.5051 C   0  0  0  0  0  0
  -24.8647  -27.6729   19.5099 C   0  0  0  0  0  0
  -23.6251  -29.8141   20.1635 C   0  0  0  0  0  0
  -25.4109  -36.3082   24.0334 C   0  0  1  0  0  0
  -20.5886  -28.3664   23.1297 C   0  0  2  0  0  0
  -20.6783  -26.9406   22.5381 C   0  0  0  0  0  0
  -19.5763  -26.6418   21.5170 C   0  0  0  0  0  0
  -18.1945  -26.7932   22.1599 C   0  0  0  0  0  0
  -19.1543  -28.8838   23.2892 C   0  0  0  0  0  0
  -18.9473  -30.1438   23.8904 C   0  0  0  0  0  0
  -17.6473  -30.6570   24.0564 C   0  0  0  0  0  0
  -25.9048  -34.9449   23.5114 C   0  0  0  0  0  0
  -16.5359  -29.9071   23.6328 C   0  0  0  0  0  0
  -16.7282  -28.6485   23.0354 C   0  0  0  0  0  0
  -26.4491  -31.6587   25.0730 C   0  0  0  0  0  0
  -25.3746  -31.3714   26.1478 C   0  0  0  0  0  0
  -27.0322  -30.3016   24.6145 C   0  0  0  0  0  0
  -27.6062  -32.4321   25.7484 C   0  0  0  0  0  0
  -27.5578  -37.1795   24.8468 C   0  0  0  0  0  0
  -21.4181  -29.3034   22.3711 N   0  0  0  0  0  0
  -26.4290  -37.3769   23.9413 N   0  0  0  0  0  0
  -24.6806  -31.0661   22.0977 N   0  0  0  0  0  0
  -23.4202  -28.8183   23.3044 O   0  0  0  0  0  0
  -28.4028  -26.5931   20.1425 O   0  0  0  0  0  0
  -26.5610  -34.8911   22.4678 O   0  0  0  0  0  0
  -23.5393  -32.1403   23.7401 O   0  0  0  0  0  0
  -30.9834  -17.7896   20.2234 C   0  0  0  0  0  0
  -29.8637  -17.0652   20.5553 C   0  0  0  0  0  0
  -28.8958  -19.1917   20.2500 C   0  0  0  0  0  0
  -28.5715  -24.0519   20.4746 C   0  0  0  0  0  0
  -25.1491  -20.2738   20.2848 C   0  0  0  0  0  0
  -25.4165  -21.1263   21.5105 C   0  0  0  0  0  0
  -26.3800  -19.4047   20.1173 C   0  0  0  0  0  0
  -26.5588  -22.0931   21.2043 C   0  0  0  0  0  0
  -27.7281  -20.1728   19.9388 C   0  0  1  0  0  0
  -28.5692  -22.5911   19.8710 C   0  0  0  0  0  0
  -28.5127  -25.2782   19.4977 C   0  0  0  0  0  0
  -28.7166  -17.8885   20.6028 N   0  0  0  0  0  0
  -29.7958  -15.6433   20.8292 N   0  0  0  0  0  0
  -27.8550  -21.5147   20.6862 N   0  3  1  0  0  0
  -28.6634  -24.2276   21.6945 O   0  0  0  0  0  0
  -30.6081  -19.4894   19.9256 S   0  0  0  0  0  0
  -31.4776  -12.4974   19.1369 H   0  0  0  0  0  0
  -30.3752  -11.3714   19.8786 H   0  0  0  0  0  0
  -29.7587  -11.7432   17.4727 H   0  0  0  0  0  0
  -29.6490  -13.4648   17.7414 H   0  0  0  0  0  0
  -27.8548  -11.2882   18.8596 H   0  0  0  0  0  0
  -27.3702  -12.5815   17.7947 H   0  0  0  0  0  0
  -27.6749  -14.2441   19.5248 H   0  0  0  0  0  0
  -28.7044  -12.0260   21.3697 H   0  0  0  0  0  0
  -28.4483  -13.6779   21.8481 H   0  0  0  0  0  0
  -25.2757   -9.5672   22.4760 H   0  0  0  0  0  0
  -23.9993   -7.4637   22.7483 H   0  0  0  0  0  0
  -21.0842   -8.8788   19.8964 H   0  0  0  0  0  0
  -22.3710  -10.9678   19.6174 H   0  0  0  0  0  0
  -21.2002   -7.6148   23.9706 H   0  0  0  0  0  0
  -21.1483   -6.0537   25.9076 H   0  0  0  0  0  0
  -22.0596   -2.7614   23.2872 H   0  0  0  0  0  0
  -22.4100  -11.9871   22.4752 H   0  0  0  0  0  0
  -21.1112  -13.1276   22.2646 H   0  0  0  0  0  0
  -24.6802  -15.8526   20.5442 H   0  0  0  0  0  0
  -26.2955  -15.6279   20.1098 H   0  0  0  0  0  0
  -26.7148  -32.5460   23.1123 H   0  0  0  0  0  0
  -25.0081  -33.9735   25.0456 H   0  0  0  0  0  0
  -22.7051  -31.3037   21.4034 H   0  0  0  0  0  0
  -23.3742  -35.9631   23.3305 H   0  0  0  0  0  0
  -24.3586  -36.8902   22.2049 H   0  0  0  0  0  0
  -23.7248  -37.6501   23.6653 H   0  0  0  0  0  0
  -26.0756  -31.5702   20.6024 H   0  0  0  0  0  0
  -26.8320  -30.8531   21.9955 H   0  0  0  0  0  0
  -28.1097  -29.0295   21.1653 H   0  0  0  0  0  0
  -25.9658  -25.9215   19.0450 H   0  0  0  0  0  0
  -23.9654  -27.2828   19.0533 H   0  0  0  0  0  0
  -23.7370  -30.5855   19.4004 H   0  0  0  0  0  0
  -22.7476  -29.2360   19.8675 H   0  0  0  0  0  0
  -25.1284  -36.1942   25.0824 H   0  0  0  0  0  0
  -20.9981  -28.3205   24.1415 H   0  0  0  0  0  0
  -20.5676  -26.2260   23.3552 H   0  0  0  0  0  0
  -21.6656  -26.7454   22.1171 H   0  0  0  0  0  0
  -19.6924  -25.6352   21.1133 H   0  0  0  0  0  0
  -19.6676  -27.3277   20.6733 H   0  0  0  0  0  0
  -17.4219  -26.6725   21.3989 H   0  0  0  0  0  0
  -18.0347  -26.0030   22.8943 H   0  0  0  0  0  0
  -19.7949  -30.7250   24.2280 H   0  0  0  0  0  0
  -17.5029  -31.6253   24.5162 H   0  0  0  0  0  0
  -15.5358  -30.2972   23.7652 H   0  0  0  0  0  0
  -15.8689  -28.0797   22.7064 H   0  0  0  0  0  0
  -24.5929  -30.7042   25.7829 H   0  0  0  0  0  0
  -24.8929  -32.2872   26.4910 H   0  0  0  0  0  0
  -25.8101  -30.8910   27.0247 H   0  0  0  0  0  0
  -26.2873  -29.6774   24.1193 H   0  0  0  0  0  0
  -27.4062  -29.7265   25.4624 H   0  0  0  0  0  0
  -27.8727  -30.4314   23.9325 H   0  0  0  0  0  0
  -27.2681  -33.3620   26.2066 H   0  0  0  0  0  0
  -28.3861  -32.6879   25.0302 H   0  0  0  0  0  0
  -28.0740  -31.8447   26.5396 H   0  0  0  0  0  0
  -28.2601  -38.0081   24.7496 H   0  0  0  0  0  0
  -28.1064  -36.2615   24.6313 H   0  0  0  0  0  0
  -27.2300  -37.1466   25.8870 H   0  0  0  0  0  0
  -20.9356  -29.8756   21.6918 H   0  0  0  0  0  0
  -26.0179  -38.2844   24.1401 H   0  0  0  0  0  0
  -32.0021  -17.4377   20.1158 H   0  0  0  0  0  0
  -24.9664  -20.8826   19.3968 H   0  0  0  0  0  0
  -24.2641  -19.6526   20.4343 H   0  0  0  0  0  0
  -25.6452  -20.5141   22.3848 H   0  0  0  0  0  0
  -24.5210  -21.6935   21.7671 H   0  0  0  0  0  0
  -26.2437  -18.7097   19.2885 H   0  0  0  0  0  0
  -26.4206  -18.7826   21.0134 H   0  0  0  0  0  0
  -26.7481  -22.6702   22.1104 H   0  0  0  0  0  0
  -26.1561  -22.7931   20.4692 H   0  0  0  0  0  0
  -27.7904  -20.4040   18.8750 H   0  0  0  0  0  0
  -29.6060  -22.2942   19.7158 H   0  0  0  0  0  0
  -28.1144  -22.6516   18.8825 H   0  0  0  0  0  0
  -27.7652  -25.1074   18.7271 H   0  0  0  0  0  0
  -29.4634  -25.2828   18.9659 H   0  0  0  0  0  0
  -28.8922  -15.3273   21.1417 H   0  0  0  0  0  0
  -28.4182  -21.3296   21.5035 H   0  0  0  0  0  0
  1 25  1  0  0  0
  1 30  2  0  0  0
  1 83  1  0  0  0
  2  3  1  0  0  0
  2 25  1  0  0  0
  2 87  1  0  0  0
  2 88  1  0  0  0
  3  4  1  0  0  0
  3 89  1  0  0  0
  3 90  1  0  0  0
  4  5  1  0  0  0
  4 91  1  0  0  0
  4 92  1  0  0  0
  5  6  1  0  0  0
  5 26  1  0  0  0
  5 93  1  0  0  0
  6 25  1  0  0  0
  6 94  1  0  0  0
  6 95  1  0  0  0
  7  8  2  0  0  0
  7 26  1  0  0  0
  7 29  1  0  0  0
  8  9  1  0  0  0
  8 22  1  0  0  0
  9 10  1  0  0  0
  9 27  2  0  0  0
 10 11  2  0  0  0
 10 15  1  0  0  0
 11 12  1  0  0  0
 11 96  1  0  0  0
 12 13  2  0  0  0
 12 97  1  0  0  0
 13 14  1  0  0  0
 13 31  1  0  0  0
 14 15  2  0  0  0
 14 98  1  0  0  0
 15 99  1  0  0  0
 16 17  2  0  0  0
 16 21  1  0  0  0
 16 31  1  0  0  0
 17 18  1  0  0  0
 17100  1  0  0  0
 18 19  2  0  0  0
 18101  1  0  0  0
 19 20  1  0  0  0
 19 24  1  0  0  0
 20 21  2  0  0  0
 20102  1  0  0  0
 21 23  1  0  0  0
 22 28  1  0  0  0
 22 32  2  0  0  0
 26 27  1  0  0  0
 28103  1  0  0  0
 28104  1  0  0  0
 29105  1  0  0  0
 29106  1  0  0  0
 33 34  1  0  0  0
 33 66  1  0  0  0
 33 70  2  0  0  0
 34 36  1  0  0  0
 34 59  1  0  0  0
 34107  1  0  0  0
 35 44  2  0  0  0
 35 45  1  0  0  0
 35 68  1  0  0  0
 36 56  1  0  0  0
 36108  1  0  0  0
 37 39  1  0  0  0
 37 47  1  0  0  0
 37 66  1  0  0  0
 37109  1  0  0  0
 38 43  2  0  0  0
 38 46  1  0  0  0
 38 47  1  0  0  0
 39 64  1  0  0  0
 39 67  2  0  0  0
 40 52  1  0  0  0
 40 53  2  0  0  0
 40 58  1  0  0  0
 41110  1  0  0  0
 41111  1  0  0  0
 41112  1  0  0  0
 41 48  1  0  0  0
 42 43  1  0  0  0
 42 66  1  0  0  0
 42113  1  0  0  0
 42114  1  0  0  0
 43 44  1  0  0  0
 44115  1  0  0  0
 45 46  2  0  0  0
 45116  1  0  0  0
 46117  1  0  0  0
 47118  1  0  0  0
 47119  1  0  0  0
 48 56  1  0  0  0
 48 65  1  0  0  0
 48120  1  0  0  0
 49 50  1  0  0  0
 49 53  1  0  0  0
 49 64  1  0  0  0
 49121  1  0  0  0
 50 51  1  0  0  0
 50122  1  0  0  0
 50123  1  0  0  0
 51 52  1  0  0  0
 51124  1  0  0  0
 51125  1  0  0  0
 52126  1  0  0  0
 52127  1  0  0  0
 53 54  1  0  0  0
 54 55  2  0  0  0
 54128  1  0  0  0
 55 57  1  0  0  0
 55129  1  0  0  0
 56 69  2  0  0  0
 57 58  2  0  0  0
 57130  1  0  0  0
 58131  1  0  0  0
 59 60  1  0  0  0
 59 61  1  0  0  0
 59 62  1  0  0  0
 60132  1  0  0  0
 60133  1  0  0  0
 60134  1  0  0  0
 61135  1  0  0  0
 61136  1  0  0  0
 61137  1  0  0  0
 62138  1  0  0  0
 62139  1  0  0  0
 62140  1  0  0  0
 63 65  1  0  0  0
 63141  1  0  0  0
 63142  1  0  0  0
 63143  1  0  0  0
 64144  1  0  0  0
 65145  1  0  0  0
 68 81  1  0  0  0
 71 72  2  0  0  0
 71 86  1  0  0  0
 71146  1  0  0  0
 72 82  1  0  0  0
 72 83  1  0  0  0
 73 82  2  0  0  0
 73 86  1  0  0  0
 73 79  1  0  0  0
 74 80  1  0  0  0
 74 81  1  0  0  0
 74 85  2  0  0  0
 75 76  1  0  0  0
 75 77  1  0  0  0
 75147  1  0  0  0
 75148  1  0  0  0
 76 78  1  0  0  0
 76149  1  0  0  0
 76150  1  0  0  0
 77 79  1  0  0  0
 77151  1  0  0  0
 77152  1  0  0  0
 78 84  1  0  0  0
 78153  1  0  0  0
 78154  1  0  0  0
 79 84  1  0  0  0
 79155  1  0  0  0
 80156  1  0  0  0
 80157  1  0  0  0
 80 84  1  0  0  0
 81158  1  0  0  0
 81159  1  0  0  0
 83160  1  0  0  0
 84161  1  0  0  0
M  CHG  1  84   1
M  ISO  4   1 100  68 101  81 101  83 100
M  END
> <chiral flag>
0

> <version>
0

> <s_m_source_file>
/data/baiqing/PycharmProjects/Reinvent-master-3.2/result/LINK_invent/BTK/process_docking_weight1_custom_product_contain_oxygen_bond_distance_aromatic_linkinvent_7_9_3/rearranged_h_0164.sdf

> <i_m_source_file_index>
65

> <r_mmod_Potential_Energy-OPLS-2005>
-122.708503723145

> <r_mmod_Stretch_Energy-OPLS-2005>
76.8999938964844

> <r_mmod_Bend_Energy-OPLS-2005>
170.12532043457

> <r_mmod_Torsional_Energy-OPLS-2005>
272.704162597656

> <r_mmod_Improper_Torsional_Energy-OPLS-2005>
5.88897895812988

> <r_mmod_Van_der_Waal_Energy-OPLS-2005>
140.856292724609

> <r_mmod_Electrostatic_Energy-OPLS-2005>
-354.28564453125

> <r_mmod_Solvation_Energy-OPLS-2005>
-469.861053466797

> <b_mmod_Minimization_Converged-OPLS-2005>
0

> <r_mmod_RMS_Derivative-OPLS-2005>
1.95039010047913

$$$$
66
                    3D
 Structure written by MMmdl.
161169  0  0  1  0            999 V2000
  -30.7352  -14.4535   20.5936 C   0  0  0  0  0  0
  -30.4203  -12.3083   19.4166 C   0  0  0  0  0  0
  -29.4932  -12.5055   18.2004 C   0  0  0  0  0  0
  -28.0137  -12.3672   18.6141 C   0  0  0  0  0  0
  -27.6602  -13.2089   19.8701 C   0  0  2  0  0  0
  -28.7027  -12.9981   20.9918 C   0  0  0  0  0  0
  -25.2598  -13.8182   20.5705 C   0  0  0  0  0  0
  -24.1828  -13.0463   20.9151 C   0  0  0  0  0  0
  -24.6368  -11.6921   20.8700 C   0  0  0  0  0  0
  -23.9040  -10.4307   21.0371 C   0  0  0  0  0  0
  -24.3595   -9.4238   21.9166 C   0  0  0  0  0  0
  -23.6280   -8.2272   22.0757 C   0  0  0  0  0  0
  -22.4265   -8.0301   21.3549 C   0  0  0  0  0  0
  -21.9886   -9.0265   20.4656 C   0  0  0  0  0  0
  -22.7203  -10.2146   20.3042 C   0  0  0  0  0  0
  -21.6880   -6.0742   22.5271 C   0  0  0  0  0  0
  -21.4034   -6.5638   23.8205 C   0  0  0  0  0  0
  -21.3650   -5.6783   24.9160 C   0  0  0  0  0  0
  -21.6047   -4.3049   24.7206 C   0  0  0  0  0  0
  -21.8825   -3.8149   23.4323 C   0  0  0  0  0  0
  -21.9199   -4.6970   22.3383 C   0  0  0  0  0  0
  -22.7873  -13.5290   21.1793 C   0  0  0  0  0  0
  -22.1685   -4.2159   21.0965 F   0  0  0  0  0  0
  -21.5599   -3.4522   25.7711 F   0  0  0  0  0  0
  -30.0339  -13.2966   20.4353 N   0  0  0  0  0  0
  -26.3013  -12.9343   20.3342 N   0  0  0  0  0  0
  -25.9295  -11.6499   20.5723 N   0  0  0  0  0  0
  -22.0500  -12.8317   22.0353 N   0  0  0  0  0  0
  -25.4387  -15.1904   20.4223 N   0  0  0  0  0  0
  -31.8652  -14.6180   20.1307 O   0  0  0  0  0  0
  -21.6655   -6.8882   21.4238 O   0  0  0  0  0  0
  -22.3587  -14.5597   20.6631 O   0  0  0  0  0  0
  -24.6189  -31.8728   23.2116 C   0  0  0  0  0  0
  -25.9090  -32.4832   23.8416 C   0  0  1  0  0  0
  -27.2158  -27.4125   20.0778 C   0  0  0  0  0  0
  -25.5974  -33.8631   24.2347 N   0  0  0  0  0  0
  -23.4047  -30.4982   21.5545 C   0  0  2  0  0  0
  -24.8447  -28.9699   20.1131 C   0  0  0  0  0  0
  -22.7430  -29.4708   22.5012 C   0  0  0  0  0  0
  -18.0297  -28.1292   22.8512 C   0  0  0  0  0  0
  -24.1483  -36.7283   23.2640 C   0  0  0  0  0  0
  -25.9414  -30.8268   21.3741 C   0  0  0  0  0  0
  -26.0129  -29.4638   20.7103 C   0  0  0  0  0  0
  -27.2029  -28.6917   20.6876 C   0  0  0  0  0  0
  -26.0335  -26.9630   19.4462 C   0  0  0  0  0  0
  -24.8535  -27.7200   19.4774 C   0  0  0  0  0  0
  -23.6098  -29.8375   20.1679 C   0  0  0  0  0  0
  -25.4113  -36.3111   24.0343 C   0  0  1  0  0  0
  -20.5883  -28.3648   23.1208 C   0  0  2  0  0  0
  -20.6874  -26.9468   22.5128 C   0  0  0  0  0  0
  -19.5715  -26.6349   21.5110 C   0  0  0  0  0  0
  -18.2003  -26.7774   22.1764 C   0  0  0  0  0  0
  -19.1536  -28.8789   23.2846 C   0  0  0  0  0  0
  -18.9463  -30.1401   23.8839 C   0  0  0  0  0  0
  -17.6461  -30.6522   24.0493 C   0  0  0  0  0  0
  -25.9061  -34.9483   23.5128 C   0  0  0  0  0  0
  -16.5362  -29.9012   23.6295 C   0  0  0  0  0  0
  -16.7281  -28.6389   23.0389 C   0  0  0  0  0  0
  -26.4520  -31.6617   25.0744 C   0  0  0  0  0  0
  -25.3785  -31.3739   26.1493 C   0  0  0  0  0  0
  -27.0360  -30.3051   24.6139 C   0  0  0  0  0  0
  -27.6076  -32.4359   25.7519 C   0  0  0  0  0  0
  -27.5592  -37.1797   24.8478 C   0  0  0  0  0  0
  -21.4158  -29.3118   22.3746 N   0  0  0  0  0  0
  -26.4300  -37.3792   23.9434 N   0  0  0  0  0  0
  -24.6723  -31.0814   22.1019 N   0  0  0  0  0  0
  -23.4209  -28.8208   23.3000 O   0  0  0  0  0  0
  -28.3425  -26.5985   20.1280 O   0  0  0  0  0  0
  -26.5571  -34.8941   22.4656 O   0  0  0  0  0  0
  -23.5368  -32.1509   23.7491 O   0  0  0  0  0  0
  -32.1511  -18.5090   21.9314 C   0  0  0  0  0  0
  -31.2591  -19.5386   21.5652 C   0  0  0  0  0  0
  -31.7854  -17.1583   21.7788 C   0  0  0  0  0  0
  -29.9815  -19.2324   21.0329 C   0  0  0  0  0  0
  -30.5050  -16.8221   21.2807 C   0  0  0  0  0  0
  -29.6118  -17.8581   20.9238 C   0  0  0  0  0  0
  -29.0714  -20.3307   20.6150 C   0  0  0  0  0  0
  -27.7891  -25.1294   22.0164 C   0  0  0  0  0  0
  -28.5247  -26.0960   22.9327 C   0  0  0  0  0  0
  -29.1859  -24.1867   20.1328 C   0  0  0  0  0  0
  -28.6085  -22.7439   20.0057 C   0  0  0  0  0  0
  -28.0753  -25.2151   20.5063 C   0  0  2  0  0  0
  -27.7852  -20.0691   20.3696 N   0  0  0  0  0  0
  -30.0619  -15.4683   21.1658 N   0  0  0  0  0  0
  -29.4782  -21.6181   20.4523 N   0  3  0  0  0  0
  -26.9983  -24.3017   22.4765 O   0  0  0  0  0  0
  -28.3823  -17.4945   20.4709 F   0  0  0  0  0  0
  -31.4655  -12.3922   19.1142 H   0  0  0  0  0  0
  -30.3123  -11.3016   19.8209 H   0  0  0  0  0  0
  -29.7342  -11.7762   17.4265 H   0  0  0  0  0  0
  -29.6610  -13.4910   17.7618 H   0  0  0  0  0  0
  -27.8223  -11.3110   18.8076 H   0  0  0  0  0  0
  -27.3649  -12.6489   17.7841 H   0  0  0  0  0  0
  -27.7055  -14.2555   19.5683 H   0  0  0  0  0  0
  -28.6748  -11.9635   21.3411 H   0  0  0  0  0  0
  -28.4625  -13.6093   21.8632 H   0  0  0  0  0  0
  -25.2740   -9.5750   22.4732 H   0  0  0  0  0  0
  -24.0015   -7.4679   22.7476 H   0  0  0  0  0  0
  -21.0825   -8.8767   19.8960 H   0  0  0  0  0  0
  -22.3650  -10.9681   19.6141 H   0  0  0  0  0  0
  -21.2070   -7.6150   23.9718 H   0  0  0  0  0  0
  -21.1453   -6.0502   25.9058 H   0  0  0  0  0  0
  -22.0611   -2.7613   23.2806 H   0  0  0  0  0  0
  -22.4113  -11.9999   22.4777 H   0  0  0  0  0  0
  -21.1106  -13.1359   22.2503 H   0  0  0  0  0  0
  -24.6794  -15.8502   20.5528 H   0  0  0  0  0  0
  -26.2982  -15.6334   20.1251 H   0  0  0  0  0  0
  -26.7161  -32.5511   23.1179 H   0  0  0  0  0  0
  -25.0230  -33.9770   25.0570 H   0  0  0  0  0  0
  -22.6942  -31.3158   21.4186 H   0  0  0  0  0  0
  -23.3774  -35.9593   23.3309 H   0  0  0  0  0  0
  -24.3575  -36.8883   22.2061 H   0  0  0  0  0  0
  -23.7226  -37.6482   23.6631 H   0  0  0  0  0  0
  -26.0673  -31.5992   20.6131 H   0  0  0  0  0  0
  -26.8249  -30.8680   22.0012 H   0  0  0  0  0  0
  -28.1029  -29.0587   21.1618 H   0  0  0  0  0  0
  -25.9950  -26.0232   18.9172 H   0  0  0  0  0  0
  -23.9598  -27.3401   18.9989 H   0  0  0  0  0  0
  -23.7102  -30.6120   19.4070 H   0  0  0  0  0  0
  -22.7303  -29.2553   19.8797 H   0  0  0  0  0  0
  -25.1291  -36.1983   25.0839 H   0  0  0  0  0  0
  -20.9956  -28.3096   24.1340 H   0  0  0  0  0  0
  -21.6651  -26.7804   22.0588 H   0  0  0  0  0  0
  -20.6212  -26.2192   23.3225 H   0  0  0  0  0  0
  -19.6890  -25.6250   21.1153 H   0  0  0  0  0  0
  -19.6429  -27.3163   20.6627 H   0  0  0  0  0  0
  -17.4143  -26.6278   21.4350 H   0  0  0  0  0  0
  -18.0681  -25.9998   22.9303 H   0  0  0  0  0  0
  -19.7935  -30.7200   24.2236 H   0  0  0  0  0  0
  -17.5003  -31.6211   24.5056 H   0  0  0  0  0  0
  -15.5350  -30.2921   23.7573 H   0  0  0  0  0  0
  -15.8695  -28.0635   22.7221 H   0  0  0  0  0  0
  -24.5907  -30.7153   25.7807 H   0  0  0  0  0  0
  -24.9041  -32.2903   26.4987 H   0  0  0  0  0  0
  -25.8121  -30.8840   27.0214 H   0  0  0  0  0  0
  -26.2893  -29.6809   24.1207 H   0  0  0  0  0  0
  -27.4143  -29.7299   25.4603 H   0  0  0  0  0  0
  -27.8732  -30.4355   23.9289 H   0  0  0  0  0  0
  -27.2655  -33.3632   26.2131 H   0  0  0  0  0  0
  -28.3860  -32.6996   25.0349 H   0  0  0  0  0  0
  -28.0797  -31.8496   26.5413 H   0  0  0  0  0  0
  -28.2597  -38.0097   24.7518 H   0  0  0  0  0  0
  -28.1075  -36.2621   24.6284 H   0  0  0  0  0  0
  -27.2291  -37.1452   25.8869 H   0  0  0  0  0  0
  -20.9307  -29.9005   21.7118 H   0  0  0  0  0  0
  -26.0188  -38.2863   24.1439 H   0  0  0  0  0  0
  -33.1202  -18.7584   22.3400 H   0  0  0  0  0  0
  -31.5796  -20.5630   21.7026 H   0  0  0  0  0  0
  -32.4877  -16.3880   22.0636 H   0  0  0  0  0  0
  -29.5983  -26.0278   22.7576 H   0  0  0  0  0  0
  -28.3269  -25.8629   23.9780 H   0  0  0  0  0  0
  -28.2062  -27.1188   22.7372 H   0  0  0  0  0  0
  -29.6067  -24.4740   19.1689 H   0  0  0  0  0  0
  -30.0106  -24.2302   20.8432 H   0  0  0  0  0  0
  -28.3189  -22.5685   18.9661 H   0  0  0  0  0  0
  -27.6811  -22.6838   20.5774 H   0  0  0  0  0  0
  -27.1785  -24.8581   20.0055 H   0  0  0  0  0  0
  -27.4888  -19.1004   20.4262 H   0  0  0  0  0  0
  -27.1417  -20.7424   19.9931 H   0  0  0  0  0  0
  -29.0838  -15.3036   21.3383 H   0  0  0  0  0  0
  -30.4674  -21.8042   20.5668 H   0  0  0  0  0  0
  1 25  1  0  0  0
  1 30  2  0  0  0
  1 84  1  0  0  0
  2  3  1  0  0  0
  2 25  1  0  0  0
  2 88  1  0  0  0
  2 89  1  0  0  0
  3  4  1  0  0  0
  3 90  1  0  0  0
  3 91  1  0  0  0
  4  5  1  0  0  0
  4 92  1  0  0  0
  4 93  1  0  0  0
  5  6  1  0  0  0
  5 26  1  0  0  0
  5 94  1  0  0  0
  6 25  1  0  0  0
  6 95  1  0  0  0
  6 96  1  0  0  0
  7  8  2  0  0  0
  7 26  1  0  0  0
  7 29  1  0  0  0
  8  9  1  0  0  0
  8 22  1  0  0  0
  9 10  1  0  0  0
  9 27  2  0  0  0
 10 11  2  0  0  0
 10 15  1  0  0  0
 11 12  1  0  0  0
 11 97  1  0  0  0
 12 13  2  0  0  0
 12 98  1  0  0  0
 13 14  1  0  0  0
 13 31  1  0  0  0
 14 15  2  0  0  0
 14 99  1  0  0  0
 15100  1  0  0  0
 16 17  2  0  0  0
 16 21  1  0  0  0
 16 31  1  0  0  0
 17 18  1  0  0  0
 17101  1  0  0  0
 18 19  2  0  0  0
 18102  1  0  0  0
 19 20  1  0  0  0
 19 24  1  0  0  0
 20 21  2  0  0  0
 20103  1  0  0  0
 21 23  1  0  0  0
 22 28  1  0  0  0
 22 32  2  0  0  0
 26 27  1  0  0  0
 28104  1  0  0  0
 28105  1  0  0  0
 29106  1  0  0  0
 29107  1  0  0  0
 33 34  1  0  0  0
 33 66  1  0  0  0
 33 70  2  0  0  0
 34 36  1  0  0  0
 34 59  1  0  0  0
 34108  1  0  0  0
 35 44  2  0  0  0
 35 45  1  0  0  0
 35 68  1  0  0  0
 36 56  1  0  0  0
 36109  1  0  0  0
 37 39  1  0  0  0
 37 47  1  0  0  0
 37 66  1  0  0  0
 37110  1  0  0  0
 38 43  2  0  0  0
 38 46  1  0  0  0
 38 47  1  0  0  0
 39 64  1  0  0  0
 39 67  2  0  0  0
 40 52  1  0  0  0
 40 53  2  0  0  0
 40 58  1  0  0  0
 41111  1  0  0  0
 41112  1  0  0  0
 41113  1  0  0  0
 41 48  1  0  0  0
 42 43  1  0  0  0
 42 66  1  0  0  0
 42114  1  0  0  0
 42115  1  0  0  0
 43 44  1  0  0  0
 44116  1  0  0  0
 45 46  2  0  0  0
 45117  1  0  0  0
 46118  1  0  0  0
 47119  1  0  0  0
 47120  1  0  0  0
 48 56  1  0  0  0
 48 65  1  0  0  0
 48121  1  0  0  0
 49 50  1  0  0  0
 49 53  1  0  0  0
 49 64  1  0  0  0
 49122  1  0  0  0
 50 51  1  0  0  0
 50123  1  0  0  0
 50124  1  0  0  0
 51 52  1  0  0  0
 51125  1  0  0  0
 51126  1  0  0  0
 52127  1  0  0  0
 52128  1  0  0  0
 53 54  1  0  0  0
 54 55  2  0  0  0
 54129  1  0  0  0
 55 57  1  0  0  0
 55130  1  0  0  0
 56 69  2  0  0  0
 57 58  2  0  0  0
 57131  1  0  0  0
 58132  1  0  0  0
 59 60  1  0  0  0
 59 61  1  0  0  0
 59 62  1  0  0  0
 60133  1  0  0  0
 60134  1  0  0  0
 60135  1  0  0  0
 61136  1  0  0  0
 61137  1  0  0  0
 61138  1  0  0  0
 62139  1  0  0  0
 62140  1  0  0  0
 62141  1  0  0  0
 63 65  1  0  0  0
 63142  1  0  0  0
 63143  1  0  0  0
 63144  1  0  0  0
 64145  1  0  0  0
 65146  1  0  0  0
 68 82  1  0  0  0
 71 72  2  0  0  0
 71 73  1  0  0  0
 71147  1  0  0  0
 72 74  1  0  0  0
 72148  1  0  0  0
 73 75  2  0  0  0
 73149  1  0  0  0
 74 76  2  0  0  0
 74 77  1  0  0  0
 75 76  1  0  0  0
 75 84  1  0  0  0
 76 87  1  0  0  0
 77 83  1  0  0  0
 77 85  2  0  0  0
 78 79  1  0  0  0
 78 82  1  0  0  0
 78 86  2  0  0  0
 79150  1  0  0  0
 79151  1  0  0  0
 79152  1  0  0  0
 80 81  1  0  0  0
 80153  1  0  0  0
 80154  1  0  0  0
 80 82  1  0  0  0
 81 85  1  0  0  0
 81155  1  0  0  0
 81156  1  0  0  0
 82157  1  0  0  0
 83158  1  0  0  0
 83159  1  0  0  0
 84160  1  0  0  0
 85161  1  0  0  0
M  CHG  1  85   1
M  ISO  4   1 100  68 101  82 101  84 100
M  END
> <chiral flag>
0

> <version>
0

> <s_m_source_file>
/data/baiqing/PycharmProjects/Reinvent-master-3.2/result/LINK_invent/BTK/process_docking_weight1_custom_product_contain_oxygen_bond_distance_aromatic_linkinvent_7_9_3/rearranged_h_0164.sdf

> <i_m_source_file_index>
66

> <r_mmod_Potential_Energy-OPLS-2005>
-265.280212402344

> <r_mmod_Stretch_Energy-OPLS-2005>
44.8211517333984

> <r_mmod_Bend_Energy-OPLS-2005>
98.5923919677734

> <r_mmod_Torsional_Energy-OPLS-2005>
240.44905090332

> <r_mmod_Improper_Torsional_Energy-OPLS-2005>
3.82366919517517

> <r_mmod_Van_der_Waal_Energy-OPLS-2005>
169.598510742188

> <r_mmod_Electrostatic_Energy-OPLS-2005>
-420.090637207031

> <r_mmod_Solvation_Energy-OPLS-2005>
-420.102935791016

> <b_mmod_Minimization_Converged-OPLS-2005>
0

> <r_mmod_RMS_Derivative-OPLS-2005>
3.79855632781982

$$$$
67
                    3D
 Structure written by MMmdl.
154162  0  0  1  0            999 V2000
  -30.7099  -14.5227   20.5223 C   0  0  0  0  0  0
  -30.4077  -12.3276   19.4387 C   0  0  0  0  0  0
  -29.4919  -12.4996   18.2110 C   0  0  0  0  0  0
  -28.0135  -12.3629   18.6234 C   0  0  0  0  0  0
  -27.6521  -13.2229   19.8660 C   0  0  2  0  0  0
  -28.6958  -13.0646   20.9940 C   0  0  0  0  0  0
  -25.2519  -13.8188   20.5663 C   0  0  0  0  0  0
  -24.1801  -13.0444   20.9183 C   0  0  0  0  0  0
  -24.6393  -11.6920   20.8741 C   0  0  0  0  0  0
  -23.9070  -10.4291   21.0406 C   0  0  0  0  0  0
  -24.3614   -9.4202   21.9181 C   0  0  0  0  0  0
  -23.6292   -8.2237   22.0751 C   0  0  0  0  0  0
  -22.4272   -8.0278   21.3549 C   0  0  0  0  0  0
  -21.9912   -9.0253   20.4648 C   0  0  0  0  0  0
  -22.7242  -10.2132   20.3048 C   0  0  0  0  0  0
  -21.6857   -6.0729   22.5282 C   0  0  0  0  0  0
  -21.4022   -6.5630   23.8215 C   0  0  0  0  0  0
  -21.3656   -5.6777   24.9173 C   0  0  0  0  0  0
  -21.6039   -4.3043   24.7223 C   0  0  0  0  0  0
  -21.8819   -3.8139   23.4344 C   0  0  0  0  0  0
  -21.9196   -4.6957   22.3402 C   0  0  0  0  0  0
  -22.7825  -13.5229   21.1848 C   0  0  0  0  0  0
  -22.1663   -4.2145   21.0979 F   0  0  0  0  0  0
  -21.5621   -3.4527   25.7735 F   0  0  0  0  0  0
  -30.0181  -13.3528   20.4230 N   0  0  0  0  0  0
  -26.2981  -12.9404   20.3352 N   0  0  0  0  0  0
  -25.9326  -11.6548   20.5773 N   0  0  0  0  0  0
  -22.0466  -12.8217   22.0411 N   0  0  0  0  0  0
  -25.4170  -15.1905   20.4003 N   0  0  0  0  0  0
  -31.8689  -14.6257   20.1137 O   0  0  0  0  0  0
  -21.6640   -6.8875   21.4243 O   0  0  0  0  0  0
  -22.3505  -14.5535   20.6706 O   0  0  0  0  0  0
  -24.6183  -31.8662   23.2080 C   0  0  0  0  0  0
  -25.9065  -32.4811   23.8380 C   0  0  1  0  0  0
  -27.2212  -27.3961   20.1076 C   0  0  0  0  0  0
  -25.5923  -33.8607   24.2323 N   0  0  0  0  0  0
  -23.4078  -30.4906   21.5489 C   0  0  2  0  0  0
  -24.8536  -28.9549   20.1121 C   0  0  0  0  0  0
  -22.7437  -29.4654   22.4968 C   0  0  0  0  0  0
  -18.0284  -28.1378   22.8485 C   0  0  0  0  0  0
  -24.1487  -36.7286   23.2631 C   0  0  0  0  0  0
  -25.9402  -30.8224   21.3657 C   0  0  0  0  0  0
  -26.0169  -29.4548   20.7105 C   0  0  0  0  0  0
  -27.2081  -28.6853   20.6996 C   0  0  0  0  0  0
  -26.0441  -26.9292   19.4843 C   0  0  0  0  0  0
  -24.8641  -27.6945   19.4924 C   0  0  0  0  0  0
  -23.6181  -29.8256   20.1626 C   0  0  0  0  0  0
  -25.4103  -36.3099   24.0343 C   0  0  1  0  0  0
  -20.5877  -28.3671   23.1302 C   0  0  2  0  0  0
  -20.6765  -26.9401   22.5415 C   0  0  0  0  0  0
  -19.5745  -26.6388   21.5206 C   0  0  0  0  0  0
  -18.1923  -26.7928   22.1616 C   0  0  0  0  0  0
  -19.1533  -28.8842   23.2889 C   0  0  0  0  0  0
  -18.9462  -30.1450   23.8898 C   0  0  0  0  0  0
  -17.6465  -30.6583   24.0560 C   0  0  0  0  0  0
  -25.9040  -34.9469   23.5125 C   0  0  0  0  0  0
  -16.5353  -29.9083   23.6326 C   0  0  0  0  0  0
  -16.7275  -28.6501   23.0345 C   0  0  0  0  0  0
  -26.4478  -31.6588   25.0713 C   0  0  0  0  0  0
  -25.3743  -31.3704   26.1467 C   0  0  0  0  0  0
  -27.0301  -30.3031   24.6083 C   0  0  0  0  0  0
  -27.6055  -32.4303   25.7479 C   0  0  0  0  0  0
  -27.5599  -37.1773   24.8443 C   0  0  0  0  0  0
  -21.4161  -29.3041   22.3716 N   0  0  0  0  0  0
  -26.4275  -37.3801   23.9447 N   0  0  0  0  0  0
  -24.6738  -31.0741   22.0989 N   0  0  0  0  0  0
  -23.4198  -28.8184   23.3012 O   0  0  0  0  0  0
  -28.3523  -26.5984   20.1278 O   0  0  0  0  0  0
  -26.5587  -34.8920   22.4678 O   0  0  0  0  0  0
  -23.5368  -32.1433   23.7452 O   0  0  0  0  0  0
  -30.3163  -19.4249   20.2042 C   0  0  0  0  0  0
  -29.8395  -18.2477   20.8734 C   0  0  0  0  0  0
  -28.5944  -18.6063   21.3558 C   0  0  0  0  0  0
  -29.3826  -20.4092   20.3710 C   0  0  0  0  0  0
  -28.8486  -22.7048   20.3546 C   0  0  0  0  0  0
  -27.6109  -17.8401   22.1299 C   0  0  0  0  0  0
  -28.9606  -24.1654   19.8819 C   0  0  0  0  0  0
  -26.3435  -18.5367   22.6120 C   0  0  0  0  0  0
  -30.6686  -16.9613   21.0541 C   0  0  0  0  0  0
  -28.1487  -25.2474   20.6411 C   0  0  0  0  0  0
  -29.5146  -21.7042   19.8904 N   0  0  0  0  0  0
  -30.0376  -15.6250   20.9327 N   0  0  0  0  0  0
  -27.7742  -16.6479   22.4017 O   0  0  0  0  0  0
  -29.6801  -24.4900   18.9263 O   0  0  0  0  0  0
  -28.3138  -19.9276   21.0565 O   0  0  0  0  0  0
  -31.4549  -12.4014   19.1397 H   0  0  0  0  0  0
  -30.2919  -11.3310   19.8677 H   0  0  0  0  0  0
  -29.7378  -11.7590   17.4490 H   0  0  0  0  0  0
  -29.6615  -13.4763   17.7552 H   0  0  0  0  0  0
  -27.8268  -11.3096   18.8358 H   0  0  0  0  0  0
  -27.3640  -12.6224   17.7866 H   0  0  0  0  0  0
  -27.6784  -14.2632   19.5405 H   0  0  0  0  0  0
  -28.6784  -12.0503   21.3961 H   0  0  0  0  0  0
  -28.4626  -13.7239   21.8314 H   0  0  0  0  0  0
  -25.2761   -9.5678   22.4754 H   0  0  0  0  0  0
  -24.0010   -7.4625   22.7466 H   0  0  0  0  0  0
  -21.0849   -8.8768   19.8949 H   0  0  0  0  0  0
  -22.3708  -10.9660   19.6145 H   0  0  0  0  0  0
  -21.2019   -7.6134   23.9718 H   0  0  0  0  0  0
  -21.1469   -6.0503   25.9076 H   0  0  0  0  0  0
  -22.0597   -2.7604   23.2844 H   0  0  0  0  0  0
  -22.4077  -11.9876   22.4787 H   0  0  0  0  0  0
  -21.1084  -13.1246   22.2614 H   0  0  0  0  0  0
  -24.6487  -15.8422   20.5079 H   0  0  0  0  0  0
  -26.2799  -15.6311   20.1099 H   0  0  0  0  0  0
  -26.7128  -32.5513   23.1129 H   0  0  0  0  0  0
  -25.0128  -33.9762   25.0510 H   0  0  0  0  0  0
  -22.6979  -31.3087   21.4094 H   0  0  0  0  0  0
  -23.3782  -35.9580   23.3242 H   0  0  0  0  0  0
  -24.3610  -36.8949   22.2060 H   0  0  0  0  0  0
  -23.7182  -37.6453   23.6667 H   0  0  0  0  0  0
  -26.0589  -31.5899   20.5994 H   0  0  0  0  0  0
  -26.8248  -30.8732   21.9882 H   0  0  0  0  0  0
  -28.1052  -29.0648   21.1685 H   0  0  0  0  0  0
  -26.0310  -25.9672   18.9900 H   0  0  0  0  0  0
  -23.9711  -27.3096   19.0198 H   0  0  0  0  0  0
  -23.7308  -30.5998   19.4027 H   0  0  0  0  0  0
  -22.7408  -29.2480   19.8662 H   0  0  0  0  0  0
  -25.1264  -36.1945   25.0830 H   0  0  0  0  0  0
  -20.9972  -28.3235   24.1421 H   0  0  0  0  0  0
  -20.5668  -26.2275   23.3602 H   0  0  0  0  0  0
  -21.6639  -26.7442   22.1212 H   0  0  0  0  0  0
  -19.6899  -25.6300   21.1231 H   0  0  0  0  0  0
  -19.6680  -27.3202   20.6735 H   0  0  0  0  0  0
  -17.4199  -26.6693   21.4009 H   0  0  0  0  0  0
  -18.0317  -26.0068   22.9010 H   0  0  0  0  0  0
  -19.7937  -30.7266   24.2267 H   0  0  0  0  0  0
  -17.5020  -31.6261   24.5163 H   0  0  0  0  0  0
  -15.5354  -30.2983   23.7646 H   0  0  0  0  0  0
  -15.8676  -28.0819   22.7052 H   0  0  0  0  0  0
  -24.5917  -30.7039   25.7817 H   0  0  0  0  0  0
  -24.8930  -32.2865   26.4905 H   0  0  0  0  0  0
  -25.8116  -30.8893   27.0226 H   0  0  0  0  0  0
  -26.2838  -29.6809   24.1132 H   0  0  0  0  0  0
  -27.4072  -29.7248   25.4524 H   0  0  0  0  0  0
  -27.8674  -30.4349   23.9228 H   0  0  0  0  0  0
  -27.2678  -33.3605   26.2056 H   0  0  0  0  0  0
  -28.3868  -32.6856   25.0311 H   0  0  0  0  0  0
  -28.0709  -31.8422   26.5397 H   0  0  0  0  0  0
  -28.2522  -38.0165   24.7656 H   0  0  0  0  0  0
  -28.1190  -36.2712   24.6053 H   0  0  0  0  0  0
  -27.2350  -37.1168   25.8845 H   0  0  0  0  0  0
  -20.9323  -29.8782   21.6952 H   0  0  0  0  0  0
  -26.0154  -38.2853   24.1549 H   0  0  0  0  0  0
  -31.2643  -19.5459   19.6973 H   0  0  0  0  0  0
  -28.1385  -22.5402   21.1691 H   0  0  0  0  0  0
  -26.3372  -19.5929   22.3484 H   0  0  0  0  0  0
  -26.2651  -18.4558   23.6956 H   0  0  0  0  0  0
  -25.4679  -18.0653   22.1675 H   0  0  0  0  0  0
  -31.1265  -17.0119   22.0420 H   0  0  0  0  0  0
  -31.4987  -17.0437   20.3506 H   0  0  0  0  0  0
  -28.4546  -25.2334   21.6874 H   0  0  0  0  0  0
  -27.0997  -24.9525   20.6330 H   0  0  0  0  0  0
  -29.0838  -15.5237   21.2539 H   0  0  0  0  0  0
  1 25  1  0  0  0
  1 30  2  0  0  0
  1 82  1  0  0  0
  2  3  1  0  0  0
  2 25  1  0  0  0
  2 86  1  0  0  0
  2 87  1  0  0  0
  3  4  1  0  0  0
  3 88  1  0  0  0
  3 89  1  0  0  0
  4  5  1  0  0  0
  4 90  1  0  0  0
  4 91  1  0  0  0
  5  6  1  0  0  0
  5 26  1  0  0  0
  5 92  1  0  0  0
  6 25  1  0  0  0
  6 93  1  0  0  0
  6 94  1  0  0  0
  7  8  2  0  0  0
  7 26  1  0  0  0
  7 29  1  0  0  0
  8  9  1  0  0  0
  8 22  1  0  0  0
  9 10  1  0  0  0
  9 27  2  0  0  0
 10 11  2  0  0  0
 10 15  1  0  0  0
 11 12  1  0  0  0
 11 95  1  0  0  0
 12 13  2  0  0  0
 12 96  1  0  0  0
 13 14  1  0  0  0
 13 31  1  0  0  0
 14 15  2  0  0  0
 14 97  1  0  0  0
 15 98  1  0  0  0
 16 17  2  0  0  0
 16 21  1  0  0  0
 16 31  1  0  0  0
 17 18  1  0  0  0
 17 99  1  0  0  0
 18 19  2  0  0  0
 18100  1  0  0  0
 19 20  1  0  0  0
 19 24  1  0  0  0
 20 21  2  0  0  0
 20101  1  0  0  0
 21 23  1  0  0  0
 22 28  1  0  0  0
 22 32  2  0  0  0
 26 27  1  0  0  0
 28102  1  0  0  0
 28103  1  0  0  0
 29104  1  0  0  0
 29105  1  0  0  0
 33 34  1  0  0  0
 33 66  1  0  0  0
 33 70  2  0  0  0
 34 36  1  0  0  0
 34 59  1  0  0  0
 34106  1  0  0  0
 35 44  2  0  0  0
 35 45  1  0  0  0
 35 68  1  0  0  0
 36 56  1  0  0  0
 36107  1  0  0  0
 37 39  1  0  0  0
 37 47  1  0  0  0
 37 66  1  0  0  0
 37108  1  0  0  0
 38 43  2  0  0  0
 38 46  1  0  0  0
 38 47  1  0  0  0
 39 64  1  0  0  0
 39 67  2  0  0  0
 40 52  1  0  0  0
 40 53  2  0  0  0
 40 58  1  0  0  0
 41109  1  0  0  0
 41110  1  0  0  0
 41111  1  0  0  0
 41 48  1  0  0  0
 42 43  1  0  0  0
 42 66  1  0  0  0
 42112  1  0  0  0
 42113  1  0  0  0
 43 44  1  0  0  0
 44114  1  0  0  0
 45 46  2  0  0  0
 45115  1  0  0  0
 46116  1  0  0  0
 47117  1  0  0  0
 47118  1  0  0  0
 48 56  1  0  0  0
 48 65  1  0  0  0
 48119  1  0  0  0
 49 50  1  0  0  0
 49 53  1  0  0  0
 49 64  1  0  0  0
 49120  1  0  0  0
 50 51  1  0  0  0
 50121  1  0  0  0
 50122  1  0  0  0
 51 52  1  0  0  0
 51123  1  0  0  0
 51124  1  0  0  0
 52125  1  0  0  0
 52126  1  0  0  0
 53 54  1  0  0  0
 54 55  2  0  0  0
 54127  1  0  0  0
 55 57  1  0  0  0
 55128  1  0  0  0
 56 69  2  0  0  0
 57 58  2  0  0  0
 57129  1  0  0  0
 58130  1  0  0  0
 59 60  1  0  0  0
 59 61  1  0  0  0
 59 62  1  0  0  0
 60131  1  0  0  0
 60132  1  0  0  0
 60133  1  0  0  0
 61134  1  0  0  0
 61135  1  0  0  0
 61136  1  0  0  0
 62137  1  0  0  0
 62138  1  0  0  0
 62139  1  0  0  0
 63 65  1  0  0  0
 63140  1  0  0  0
 63141  1  0  0  0
 63142  1  0  0  0
 64143  1  0  0  0
 65144  1  0  0  0
 68 80  1  0  0  0
 71 72  1  0  0  0
 71 74  2  0  0  0
 71145  1  0  0  0
 72 73  2  0  0  0
 72 79  1  0  0  0
 73 76  1  0  0  0
 73 85  1  0  0  0
 74 81  1  0  0  0
 74 85  1  0  0  0
 75 77  1  0  0  0
 75 81  2  0  0  0
 75146  1  0  0  0
 76 78  1  0  0  0
 76 83  2  0  0  0
 77 80  1  0  0  0
 77 84  2  0  0  0
 78147  1  0  0  0
 78148  1  0  0  0
 78149  1  0  0  0
 79 82  1  0  0  0
 79150  1  0  0  0
 79151  1  0  0  0
 80152  1  0  0  0
 80153  1  0  0  0
 82154  1  0  0  0
M  ISO  4   1 100  68 101  80 101  82 100
M  END
> <chiral flag>
0

> <version>
0

> <s_m_source_file>
/data/baiqing/PycharmProjects/Reinvent-master-3.2/result/LINK_invent/BTK/process_docking_weight1_custom_product_contain_oxygen_bond_distance_aromatic_linkinvent_7_9_3/rearranged_h_0164.sdf

> <i_m_source_file_index>
67

> <r_mmod_Potential_Energy-OPLS-2005>
-114.682029724121

> <r_mmod_Stretch_Energy-OPLS-2005>
46.7354774475098

> <r_mmod_Bend_Energy-OPLS-2005>
115.937629699707

> <r_mmod_Torsional_Energy-OPLS-2005>
215.187973022461

> <r_mmod_Improper_Torsional_Energy-OPLS-2005>
3.849041223526

> <r_mmod_Van_der_Waal_Energy-OPLS-2005>
125.471672058105

> <r_mmod_Electrostatic_Energy-OPLS-2005>
-404.371520996094

> <r_mmod_Solvation_Energy-OPLS-2005>
-240.993515014648

> <b_mmod_Minimization_Converged-OPLS-2005>
0

> <r_mmod_RMS_Derivative-OPLS-2005>
1.47989225387573

$$$$
68
                    3D
 Structure written by MMmdl.
173182  0  0  1  0            999 V2000
  -30.6622  -14.5091   20.5443 C   0  0  0  0  0  0
  -30.4185  -12.3174   19.4106 C   0  0  0  0  0  0
  -29.4807  -12.5052   18.1988 C   0  0  0  0  0  0
  -28.0062  -12.3545   18.6206 C   0  0  0  0  0  0
  -27.6558  -13.1999   19.8739 C   0  0  2  0  0  0
  -28.7047  -12.9936   20.9903 C   0  0  0  0  0  0
  -25.2580  -13.8151   20.5660 C   0  0  0  0  0  0
  -24.1825  -13.0418   20.9170 C   0  0  0  0  0  0
  -24.6368  -11.6894   20.8766 C   0  0  0  0  0  0
  -23.9054  -10.4278   21.0422 C   0  0  0  0  0  0
  -24.3605   -9.4185   21.9196 C   0  0  0  0  0  0
  -23.6265   -8.2240   22.0774 C   0  0  0  0  0  0
  -22.4276   -8.0277   21.3549 C   0  0  0  0  0  0
  -21.9895   -9.0249   20.4665 C   0  0  0  0  0  0
  -22.7225  -10.2117   20.3051 C   0  0  0  0  0  0
  -21.6845   -6.0714   22.5271 C   0  0  0  0  0  0
  -21.4033   -6.5639   23.8205 C   0  0  0  0  0  0
  -21.3654   -5.6780   24.9162 C   0  0  0  0  0  0
  -21.6033   -4.3048   24.7217 C   0  0  0  0  0  0
  -21.8823   -3.8139   23.4346 C   0  0  0  0  0  0
  -21.9205   -4.6944   22.3396 C   0  0  0  0  0  0
  -22.7845  -13.5223   21.1846 C   0  0  0  0  0  0
  -22.1659   -4.2129   21.0979 F   0  0  0  0  0  0
  -21.5614   -3.4541   25.7731 F   0  0  0  0  0  0
  -30.0236  -13.3103   20.4219 N   0  0  0  0  0  0
  -26.3007  -12.9293   20.3414 N   0  0  0  0  0  0
  -25.9313  -11.6463   20.5816 N   0  0  0  0  0  0
  -22.0532  -12.8204   22.0399 N   0  0  0  0  0  0
  -25.4340  -15.1854   20.4021 N   0  0  0  0  0  0
  -31.8208  -14.6881   20.1550 O   0  0  0  0  0  0
  -21.6653   -6.8864   21.4236 O   0  0  0  0  0  0
  -22.3539  -14.5562   20.6725 O   0  0  0  0  0  0
  -24.6143  -31.8597   23.2091 C   0  0  0  0  0  0
  -25.9022  -32.4807   23.8366 C   0  0  1  0  0  0
  -27.2420  -27.4073   20.1023 C   0  0  0  0  0  0
  -25.5865  -33.8598   24.2263 N   0  0  0  0  0  0
  -23.4070  -30.4854   21.5513 C   0  0  2  0  0  0
  -24.8555  -28.9604   20.1042 C   0  0  0  0  0  0
  -22.7429  -29.4587   22.4999 C   0  0  0  0  0  0
  -18.0236  -28.1366   22.8402 C   0  0  0  0  0  0
  -24.1484  -36.7326   23.2650 C   0  0  0  0  0  0
  -25.9366  -30.8244   21.3628 C   0  0  0  0  0  0
  -26.0158  -29.4600   20.7045 C   0  0  0  0  0  0
  -27.2072  -28.6926   20.6994 C   0  0  0  0  0  0
  -26.0608  -26.9439   19.4701 C   0  0  0  0  0  0
  -24.8781  -27.7063   19.4812 C   0  0  0  0  0  0
  -23.6095  -29.8168   20.1643 C   0  0  0  0  0  0
  -25.4107  -36.3116   24.0316 C   0  0  1  0  0  0
  -20.5835  -28.3603   23.1307 C   0  0  2  0  0  0
  -20.6743  -26.9327   22.5435 C   0  0  0  0  0  0
  -19.5742  -26.6330   21.5214 C   0  0  0  0  0  0
  -18.1892  -26.7912   22.1565 C   0  0  0  0  0  0
  -19.1498  -28.8800   23.2844 C   0  0  0  0  0  0
  -18.9461  -30.1414   23.8836 C   0  0  0  0  0  0
  -17.6464  -30.6569   24.0531 C   0  0  0  0  0  0
  -25.9015  -34.9463   23.5091 C   0  0  0  0  0  0
  -16.5328  -29.9057   23.6369 C   0  0  0  0  0  0
  -16.7219  -28.6511   23.0306 C   0  0  0  0  0  0
  -26.4410  -31.6647   25.0725 C   0  0  0  0  0  0
  -25.3652  -31.3821   26.1478 C   0  0  0  0  0  0
  -27.0211  -30.3081   24.6104 C   0  0  0  0  0  0
  -27.5940  -32.4403   25.7507 C   0  0  0  0  0  0
  -27.5587  -37.1796   24.8441 C   0  0  0  0  0  0
  -21.4155  -29.2978   22.3707 N   0  0  0  0  0  0
  -26.4302  -37.3811   23.9390 N   0  0  0  0  0  0
  -24.6743  -31.0698   22.1008 N   0  0  0  0  0  0
  -23.4185  -28.8116   23.3046 O   0  0  0  0  0  0
  -28.4033  -26.6480   20.1741 O   0  0  0  0  0  0
  -26.5634  -34.8922   22.4683 O   0  0  0  0  0  0
  -23.5334  -32.1322   23.7463 O   0  0  0  0  0  0
  -31.2523  -17.1181   22.1579 C   0  0  0  0  0  0
  -29.3896  -17.9840   20.8604 C   0  0  0  0  0  0
  -31.4806  -18.4051   22.6778 C   0  0  0  0  0  0
  -30.6560  -19.4983   22.3121 C   0  0  0  0  0  0
  -30.1865  -16.8783   21.2721 C   0  0  0  0  0  0
  -29.6237  -19.3052   21.3417 C   0  0  0  0  0  0
  -28.5120  -22.8989   20.9058 C   0  0  0  0  0  0
  -29.1469  -24.2867   20.6970 C   0  0  0  0  0  0
  -32.6626  -18.6105   23.6141 C   0  0  0  0  0  0
  -30.9051  -20.8350   23.0169 C   0  0  0  0  0  0
  -33.7261  -19.5310   22.9773 C   0  0  0  0  0  0
  -32.1933  -21.5239   22.5226 C   0  0  0  0  0  0
  -33.5223  -21.0571   23.1572 C   0  0  0  0  0  0
  -34.6476  -21.7776   22.3917 C   0  0  0  0  0  0
  -33.6469  -21.4706   24.6400 C   0  0  0  0  0  0
  -29.3301  -21.6756   20.4415 C   0  0  0  0  0  0
  -28.3188  -25.2486   19.8116 C   0  0  0  0  0  0
  -27.3500  -22.6946   21.3835 N   0  0  0  0  0  0
  -29.8522  -15.5374   20.8920 N   0  0  0  0  0  0
  -28.8020  -20.3556   20.8615 N   0  0  0  0  0  0
  -30.2521  -24.6069   21.1530 O   0  0  0  0  0  0
  -31.4606  -12.4217   19.1028 H   0  0  0  0  0  0
  -30.3229  -11.3049   19.8094 H   0  0  0  0  0  0
  -29.7161  -11.7822   17.4164 H   0  0  0  0  0  0
  -29.6342  -13.4933   17.7633 H   0  0  0  0  0  0
  -27.8236  -11.2994   18.8270 H   0  0  0  0  0  0
  -27.3449  -12.6214   17.7948 H   0  0  0  0  0  0
  -27.6932  -14.2445   19.5648 H   0  0  0  0  0  0
  -28.6923  -11.9628   21.3491 H   0  0  0  0  0  0
  -28.4786  -13.6056   21.8663 H   0  0  0  0  0  0
  -25.2741   -9.5672   22.4760 H   0  0  0  0  0  0
  -23.9971   -7.4644   22.7507 H   0  0  0  0  0  0
  -21.0815   -8.8752   19.8970 H   0  0  0  0  0  0
  -22.3676  -10.9654   19.6152 H   0  0  0  0  0  0
  -21.2046   -7.6130   23.9697 H   0  0  0  0  0  0
  -21.1460   -6.0517   25.9057 H   0  0  0  0  0  0
  -22.0614   -2.7587   23.2857 H   0  0  0  0  0  0
  -22.4125  -11.9762   22.4631 H   0  0  0  0  0  0
  -21.1196  -13.1281   22.2772 H   0  0  0  0  0  0
  -24.6703  -15.8461   20.4995 H   0  0  0  0  0  0
  -26.2781  -15.6136   20.0428 H   0  0  0  0  0  0
  -26.7054  -32.5484   23.1076 H   0  0  0  0  0  0
  -24.9939  -33.9773   25.0367 H   0  0  0  0  0  0
  -22.6972  -31.3026   21.4114 H   0  0  0  0  0  0
  -23.3756  -35.9661   23.3301 H   0  0  0  0  0  0
  -24.3575  -36.8981   22.2084 H   0  0  0  0  0  0
  -23.7195  -37.6509   23.6670 H   0  0  0  0  0  0
  -26.0441  -31.5886   20.5926 H   0  0  0  0  0  0
  -26.8306  -30.8833   21.9759 H   0  0  0  0  0  0
  -28.0986  -29.0773   21.1737 H   0  0  0  0  0  0
  -26.0103  -26.0005   18.9497 H   0  0  0  0  0  0
  -23.9959  -27.3117   18.9995 H   0  0  0  0  0  0
  -23.6816  -30.5854   19.3950 H   0  0  0  0  0  0
  -22.7428  -29.2144   19.8892 H   0  0  0  0  0  0
  -25.1277  -36.2023   25.0812 H   0  0  0  0  0  0
  -20.9856  -28.3144   24.1460 H   0  0  0  0  0  0
  -20.5678  -26.2172   23.3609 H   0  0  0  0  0  0
  -21.6603  -26.7379   22.1213 H   0  0  0  0  0  0
  -19.6941  -25.6266   21.1211 H   0  0  0  0  0  0
  -19.6768  -27.3152   20.6782 H   0  0  0  0  0  0
  -17.4207  -26.6603   21.3953 H   0  0  0  0  0  0
  -18.0246  -26.0088   22.8985 H   0  0  0  0  0  0
  -19.7959  -30.7199   24.2201 H   0  0  0  0  0  0
  -17.5040  -31.6275   24.5085 H   0  0  0  0  0  0
  -15.5342  -30.2924   23.7815 H   0  0  0  0  0  0
  -15.8603  -28.0854   22.7051 H   0  0  0  0  0  0
  -24.5845  -30.7094   25.7879 H   0  0  0  0  0  0
  -24.8790  -32.3021   26.4768 H   0  0  0  0  0  0
  -25.7984  -30.9164   27.0332 H   0  0  0  0  0  0
  -26.2755  -29.6924   24.1045 H   0  0  0  0  0  0
  -27.3885  -29.7244   25.4555 H   0  0  0  0  0  0
  -27.8613  -30.4412   23.9266 H   0  0  0  0  0  0
  -27.2476  -33.3690   26.2034 H   0  0  0  0  0  0
  -28.3755  -32.6991   25.0358 H   0  0  0  0  0  0
  -28.0542  -31.8572   26.5486 H   0  0  0  0  0  0
  -28.2575  -38.0134   24.7542 H   0  0  0  0  0  0
  -28.1112  -36.2654   24.6185 H   0  0  0  0  0  0
  -27.2303  -37.1358   25.8852 H   0  0  0  0  0  0
  -20.9315  -29.8684   21.6910 H   0  0  0  0  0  0
  -26.0203  -38.2893   24.1455 H   0  0  0  0  0  0
  -31.8818  -16.2969   22.4704 H   0  0  0  0  0  0
  -28.5901  -17.8134   20.1535 H   0  0  0  0  0  0
  -33.1206  -17.6417   23.8170 H   0  0  0  0  0  0
  -32.3261  -18.9635   24.5891 H   0  0  0  0  0  0
  -30.9337  -20.6872   24.0945 H   0  0  0  0  0  0
  -30.0540  -21.4993   22.9000 H   0  0  0  0  0  0
  -33.7805  -19.2939   21.9133 H   0  0  0  0  0  0
  -34.7000  -19.2630   23.3883 H   0  0  0  0  0  0
  -32.0870  -22.6002   22.6688 H   0  0  0  0  0  0
  -32.2681  -21.3802   21.4445 H   0  0  0  0  0  0
  -34.6187  -21.5402   21.3273 H   0  0  0  0  0  0
  -35.6327  -21.4935   22.7635 H   0  0  0  0  0  0
  -34.5587  -22.8610   22.4850 H   0  0  0  0  0  0
  -32.9071  -20.9961   25.2836 H   0  0  0  0  0  0
  -33.5384  -22.5480   24.7674 H   0  0  0  0  0  0
  -34.6312  -21.2054   25.0329 H   0  0  0  0  0  0
  -30.3487  -21.8079   20.7659 H   0  0  0  0  0  0
  -29.3857  -21.7037   19.3517 H   0  0  0  0  0  0
  -27.3043  -24.8676   19.8766 H   0  0  0  0  0  0
  -28.6682  -25.1318   18.7852 H   0  0  0  0  0  0
  -26.8905  -23.5617   21.6402 H   0  0  0  0  0  0
  -28.8787  -15.2883   20.9722 H   0  0  0  0  0  0
  -27.8151  -20.3732   21.1204 H   0  0  0  0  0  0
  1 25  1  0  0  0
  1 30  2  0  0  0
  1 89  1  0  0  0
  2  3  1  0  0  0
  2 25  1  0  0  0
  2 92  1  0  0  0
  2 93  1  0  0  0
  3  4  1  0  0  0
  3 94  1  0  0  0
  3 95  1  0  0  0
  4  5  1  0  0  0
  4 96  1  0  0  0
  4 97  1  0  0  0
  5  6  1  0  0  0
  5 26  1  0  0  0
  5 98  1  0  0  0
  6 25  1  0  0  0
  6 99  1  0  0  0
  6100  1  0  0  0
  7  8  2  0  0  0
  7 26  1  0  0  0
  7 29  1  0  0  0
  8  9  1  0  0  0
  8 22  1  0  0  0
  9 10  1  0  0  0
  9 27  2  0  0  0
 10 11  2  0  0  0
 10 15  1  0  0  0
 11 12  1  0  0  0
 11101  1  0  0  0
 12 13  2  0  0  0
 12102  1  0  0  0
 13 14  1  0  0  0
 13 31  1  0  0  0
 14 15  2  0  0  0
 14103  1  0  0  0
 15104  1  0  0  0
 16 17  2  0  0  0
 16 21  1  0  0  0
 16 31  1  0  0  0
 17 18  1  0  0  0
 17105  1  0  0  0
 18 19  2  0  0  0
 18106  1  0  0  0
 19 20  1  0  0  0
 19 24  1  0  0  0
 20 21  2  0  0  0
 20107  1  0  0  0
 21 23  1  0  0  0
 22 28  1  0  0  0
 22 32  2  0  0  0
 26 27  1  0  0  0
 28108  1  0  0  0
 28109  1  0  0  0
 29110  1  0  0  0
 29111  1  0  0  0
 33 34  1  0  0  0
 33 66  1  0  0  0
 33 70  2  0  0  0
 34 36  1  0  0  0
 34 59  1  0  0  0
 34112  1  0  0  0
 35 44  2  0  0  0
 35 45  1  0  0  0
 35 68  1  0  0  0
 36 56  1  0  0  0
 36113  1  0  0  0
 37 39  1  0  0  0
 37 47  1  0  0  0
 37 66  1  0  0  0
 37114  1  0  0  0
 38 43  2  0  0  0
 38 46  1  0  0  0
 38 47  1  0  0  0
 39 64  1  0  0  0
 39 67  2  0  0  0
 40 52  1  0  0  0
 40 53  2  0  0  0
 40 58  1  0  0  0
 41115  1  0  0  0
 41116  1  0  0  0
 41117  1  0  0  0
 41 48  1  0  0  0
 42 43  1  0  0  0
 42 66  1  0  0  0
 42118  1  0  0  0
 42119  1  0  0  0
 43 44  1  0  0  0
 44120  1  0  0  0
 45 46  2  0  0  0
 45121  1  0  0  0
 46122  1  0  0  0
 47123  1  0  0  0
 47124  1  0  0  0
 48 56  1  0  0  0
 48 65  1  0  0  0
 48125  1  0  0  0
 49 50  1  0  0  0
 49 53  1  0  0  0
 49 64  1  0  0  0
 49126  1  0  0  0
 50 51  1  0  0  0
 50127  1  0  0  0
 50128  1  0  0  0
 51 52  1  0  0  0
 51129  1  0  0  0
 51130  1  0  0  0
 52131  1  0  0  0
 52132  1  0  0  0
 53 54  1  0  0  0
 54 55  2  0  0  0
 54133  1  0  0  0
 55 57  1  0  0  0
 55134  1  0  0  0
 56 69  2  0  0  0
 57 58  2  0  0  0
 57135  1  0  0  0
 58136  1  0  0  0
 59 60  1  0  0  0
 59 61  1  0  0  0
 59 62  1  0  0  0
 60137  1  0  0  0
 60138  1  0  0  0
 60139  1  0  0  0
 61140  1  0  0  0
 61141  1  0  0  0
 61142  1  0  0  0
 62143  1  0  0  0
 62144  1  0  0  0
 62145  1  0  0  0
 63 65  1  0  0  0
 63146  1  0  0  0
 63147  1  0  0  0
 63148  1  0  0  0
 64149  1  0  0  0
 65150  1  0  0  0
 68 87  1  0  0  0
 71 73  2  0  0  0
 71 75  1  0  0  0
 71151  1  0  0  0
 72 75  2  0  0  0
 72 76  1  0  0  0
 72152  1  0  0  0
 73 74  1  0  0  0
 73 79  1  0  0  0
 74 76  2  0  0  0
 74 80  1  0  0  0
 75 89  1  0  0  0
 76 90  1  0  0  0
 77 78  1  0  0  0
 77 86  1  0  0  0
 77 88  2  0  0  0
 78 87  1  0  0  0
 78 91  2  0  0  0
 79 81  1  0  0  0
 79153  1  0  0  0
 79154  1  0  0  0
 80 82  1  0  0  0
 80155  1  0  0  0
 80156  1  0  0  0
 81 83  1  0  0  0
 81157  1  0  0  0
 81158  1  0  0  0
 82 83  1  0  0  0
 82159  1  0  0  0
 82160  1  0  0  0
 83 84  1  0  0  0
 83 85  1  0  0  0
 84161  1  0  0  0
 84162  1  0  0  0
 84163  1  0  0  0
 85164  1  0  0  0
 85165  1  0  0  0
 85166  1  0  0  0
 86 90  1  0  0  0
 86167  1  0  0  0
 86168  1  0  0  0
 87169  1  0  0  0
 87170  1  0  0  0
 88171  1  0  0  0
 89172  1  0  0  0
 90173  1  0  0  0
M  ISO  4   1 100  68 101  87 101  89 100
M  END
> <chiral flag>
0

> <version>
0

> <s_m_source_file>
/data/baiqing/PycharmProjects/Reinvent-master-3.2/result/LINK_invent/BTK/process_docking_weight1_custom_product_contain_oxygen_bond_distance_aromatic_linkinvent_7_9_3/rearranged_h_0164.sdf

> <i_m_source_file_index>
68

> <r_mmod_Potential_Energy-OPLS-2005>
148.969421386719

> <r_mmod_Stretch_Energy-OPLS-2005>
51.555549621582

> <r_mmod_Bend_Energy-OPLS-2005>
130.841125488281

> <r_mmod_Torsional_Energy-OPLS-2005>
293.678253173828

> <r_mmod_Improper_Torsional_Energy-OPLS-2005>
7.75332117080688

> <r_mmod_Van_der_Waal_Energy-OPLS-2005>
176.170150756836

> <r_mmod_Electrostatic_Energy-OPLS-2005>
-297.983489990234

> <r_mmod_Solvation_Energy-OPLS-2005>
-233.00798034668

> <b_mmod_Minimization_Converged-OPLS-2005>
0

> <r_mmod_RMS_Derivative-OPLS-2005>
5.98924398422241

$$$$
69
                    3D
 Structure written by MMmdl.
173181  0  0  1  0            999 V2000
  -30.7239  -14.5067   20.5776 C   0  0  0  0  0  0
  -30.4060  -12.3332   19.4463 C   0  0  0  0  0  0
  -29.4930  -12.5252   18.2187 C   0  0  0  0  0  0
  -28.0138  -12.3866   18.6237 C   0  0  0  0  0  0
  -27.6530  -13.2284   19.8764 C   0  0  2  0  0  0
  -28.6942  -13.0478   21.0052 C   0  0  0  0  0  0
  -25.2510  -13.8203   20.5730 C   0  0  0  0  0  0
  -24.1788  -13.0449   20.9201 C   0  0  0  0  0  0
  -24.6373  -11.6926   20.8735 C   0  0  0  0  0  0
  -23.9057  -10.4300   21.0389 C   0  0  0  0  0  0
  -24.3601   -9.4215   21.9176 C   0  0  0  0  0  0
  -23.6286   -8.2258   22.0757 C   0  0  0  0  0  0
  -22.4271   -8.0281   21.3548 C   0  0  0  0  0  0
  -21.9905   -9.0239   20.4643 C   0  0  0  0  0  0
  -22.7229  -10.2130   20.3038 C   0  0  0  0  0  0
  -21.6845   -6.0731   22.5274 C   0  0  0  0  0  0
  -21.4008   -6.5637   23.8198 C   0  0  0  0  0  0
  -21.3676   -5.6797   24.9169 C   0  0  0  0  0  0
  -21.6049   -4.3057   24.7234 C   0  0  0  0  0  0
  -21.8819   -3.8140   23.4346 C   0  0  0  0  0  0
  -21.9184   -4.6954   22.3397 C   0  0  0  0  0  0
  -22.7801  -13.5220   21.1873 C   0  0  0  0  0  0
  -22.1651   -4.2137   21.0978 F   0  0  0  0  0  0
  -21.5646   -3.4540   25.7745 F   0  0  0  0  0  0
  -30.0239  -13.3420   20.4517 N   0  0  0  0  0  0
  -26.2961  -12.9428   20.3381 N   0  0  0  0  0  0
  -25.9296  -11.6558   20.5759 N   0  0  0  0  0  0
  -22.0456  -12.8188   22.0421 N   0  0  0  0  0  0
  -25.4201  -15.1931   20.4154 N   0  0  0  0  0  0
  -31.8344  -14.6477   20.0611 O   0  0  0  0  0  0
  -21.6641   -6.8876   21.4236 O   0  0  0  0  0  0
  -22.3471  -14.5528   20.6738 O   0  0  0  0  0  0
  -24.6194  -31.8658   23.2135 C   0  0  0  0  0  0
  -25.9064  -32.4802   23.8435 C   0  0  1  0  0  0
  -27.2247  -27.3792   20.0910 C   0  0  0  0  0  0
  -25.5880  -33.8603   24.2314 N   0  0  0  0  0  0
  -23.4107  -30.4946   21.5593 C   0  0  2  0  0  0
  -24.8546  -28.9676   20.1157 C   0  0  0  0  0  0
  -22.7430  -29.4657   22.5018 C   0  0  0  0  0  0
  -18.0265  -28.1400   22.8503 C   0  0  0  0  0  0
  -24.1475  -36.7320   23.2671 C   0  0  0  0  0  0
  -25.9515  -30.8085   21.3871 C   0  0  0  0  0  0
  -26.0224  -29.4454   20.7233 C   0  0  0  0  0  0
  -27.2063  -28.6579   20.7142 C   0  0  0  0  0  0
  -26.0291  -26.9533   19.4557 C   0  0  0  0  0  0
  -24.8565  -27.7231   19.4787 C   0  0  0  0  0  0
  -23.6200  -29.8389   20.1731 C   0  0  0  0  0  0
  -25.4095  -36.3074   24.0324 C   0  0  1  0  0  0
  -20.5864  -28.3698   23.1329 C   0  0  2  0  0  0
  -20.6744  -26.9426   22.5433 C   0  0  0  0  0  0
  -19.5736  -26.6403   21.5217 C   0  0  0  0  0  0
  -18.1906  -26.7963   22.1595 C   0  0  0  0  0  0
  -19.1510  -28.8868   23.2907 C   0  0  0  0  0  0
  -18.9426  -30.1467   23.8925 C   0  0  0  0  0  0
  -17.6427  -30.6607   24.0578 C   0  0  0  0  0  0
  -25.9031  -34.9450   23.5120 C   0  0  0  0  0  0
  -16.5328  -29.9098   23.6370 C   0  0  0  0  0  0
  -16.7251  -28.6514   23.0391 C   0  0  0  0  0  0
  -26.4470  -31.6649   25.0814 C   0  0  0  0  0  0
  -25.3693  -31.3722   26.1518 C   0  0  0  0  0  0
  -27.0424  -30.3114   24.6303 C   0  0  0  0  0  0
  -27.5993  -32.4474   25.7557 C   0  0  0  0  0  0
  -27.5574  -37.1795   24.8455 C   0  0  0  0  0  0
  -21.4151  -29.3045   22.3707 N   0  0  0  0  0  0
  -26.4282  -37.3749   23.9407 N   0  0  0  0  0  0
  -24.6790  -31.0713   22.1091 N   0  0  0  0  0  0
  -23.4178  -28.8188   23.3066 O   0  0  0  0  0  0
  -28.3721  -26.5798   20.1306 O   0  0  0  0  0  0
  -26.5587  -34.8889   22.4678 O   0  0  0  0  0  0
  -23.5366  -32.1470   23.7462 O   0  0  0  0  0  0
  -30.1099  -19.3807   20.9150 C   0  0  0  0  0  0
  -28.4582  -17.9442   21.9414 C   0  0  0  0  0  0
  -27.9968  -20.3247   21.6320 C   0  0  0  0  0  0
  -29.7410  -18.0707   21.3523 C   0  0  0  0  0  0
  -29.2634  -20.5152   21.0427 C   0  0  0  0  0  0
  -27.5999  -19.0579   22.1066 C   0  0  0  0  0  0
  -29.2798  -24.1896   20.0572 C   0  0  0  0  0  0
  -28.9037  -22.9017   20.2855 C   0  0  0  0  0  0
  -25.9698  -17.9877   23.6666 C   0  0  0  0  0  0
  -25.2798  -18.2146   24.8007 C   0  0  0  0  0  0
  -31.6294  -17.0673   22.4933 C   0  0  0  0  0  0
  -24.8490  -17.0875   25.7157 C   0  0  0  0  0  0
  -24.8757  -19.6008   25.2777 C   0  0  0  0  0  0
  -30.9858  -16.9940   23.8738 C   0  0  0  0  0  0
  -28.5848  -25.4510   17.9989 C   0  0  0  0  0  0
  -30.7281  -16.9108   21.2469 C   0  0  1  0  0  0
  -28.3263  -25.2640   19.5026 C   0  0  2  0  0  0
  -29.7035  -21.8032   20.6398 N   0  0  0  0  0  0
  -26.3713  -18.9728   22.7792 N   0  0  0  0  0  0
  -30.1370  -15.5441   21.2194 N   0  0  0  0  0  0
  -32.8507  -17.2185   22.4142 O   0  0  0  0  0  0
  -31.4556  -12.4036   19.1529 H   0  0  0  0  0  0
  -30.2850  -11.3311   19.8602 H   0  0  0  0  0  0
  -29.7388  -11.8019   17.4396 H   0  0  0  0  0  0
  -29.6649  -13.5128   17.7869 H   0  0  0  0  0  0
  -27.8159  -11.3329   18.8128 H   0  0  0  0  0  0
  -27.3716  -12.6702   17.7881 H   0  0  0  0  0  0
  -27.6867  -14.2739   19.5672 H   0  0  0  0  0  0
  -28.6715  -12.0234   21.3800 H   0  0  0  0  0  0
  -28.4535  -13.6818   21.8604 H   0  0  0  0  0  0
  -25.2730   -9.5714   22.4769 H   0  0  0  0  0  0
  -23.9990   -7.4656   22.7482 H   0  0  0  0  0  0
  -21.0846   -8.8741   19.8944 H   0  0  0  0  0  0
  -22.3662  -10.9658   19.6159 H   0  0  0  0  0  0
  -21.2002   -7.6149   23.9701 H   0  0  0  0  0  0
  -21.1514   -6.0532   25.9077 H   0  0  0  0  0  0
  -22.0587   -2.7598   23.2847 H   0  0  0  0  0  0
  -22.4062  -11.9826   22.4772 H   0  0  0  0  0  0
  -21.1055  -13.1186   22.2637 H   0  0  0  0  0  0
  -24.6593  -15.8506   20.5429 H   0  0  0  0  0  0
  -26.2729  -15.6358   20.0977 H   0  0  0  0  0  0
  -26.7148  -32.5473   23.1213 H   0  0  0  0  0  0
  -24.9910  -33.9767   25.0368 H   0  0  0  0  0  0
  -22.7043  -31.3156   21.4244 H   0  0  0  0  0  0
  -23.3686  -35.9696   23.3317 H   0  0  0  0  0  0
  -24.3543  -36.8999   22.2090 H   0  0  0  0  0  0
  -23.7282  -37.6534   23.6720 H   0  0  0  0  0  0
  -26.0867  -31.5771   20.6237 H   0  0  0  0  0  0
  -26.8311  -30.8463   22.0180 H   0  0  0  0  0  0
  -28.1017  -29.0199   21.2016 H   0  0  0  0  0  0
  -25.9460  -26.0245   18.9184 H   0  0  0  0  0  0
  -23.9611  -27.3553   18.9969 H   0  0  0  0  0  0
  -23.7252  -30.6189   19.4191 H   0  0  0  0  0  0
  -22.7404  -29.2629   19.8815 H   0  0  0  0  0  0
  -25.1273  -36.1917   25.0820 H   0  0  0  0  0  0
  -20.9958  -28.3267   24.1448 H   0  0  0  0  0  0
  -20.5670  -26.2295   23.3605 H   0  0  0  0  0  0
  -21.6610  -26.7456   22.1251 H   0  0  0  0  0  0
  -19.6904  -25.6314   21.1268 H   0  0  0  0  0  0
  -19.6711  -27.3183   20.6725 H   0  0  0  0  0  0
  -17.4188  -26.6752   21.3962 H   0  0  0  0  0  0
  -18.0258  -26.0098   22.8990 H   0  0  0  0  0  0
  -19.7879  -30.7282   24.2343 H   0  0  0  0  0  0
  -17.4966  -31.6295   24.5175 H   0  0  0  0  0  0
  -15.5326  -30.3005   23.7694 H   0  0  0  0  0  0
  -15.8649  -28.0851   22.7122 H   0  0  0  0  0  0
  -24.5967  -30.6957   25.7849 H   0  0  0  0  0  0
  -24.8712  -32.2833   26.4851 H   0  0  0  0  0  0
  -25.8044  -30.9027   27.0356 H   0  0  0  0  0  0
  -26.3088  -29.6760   24.1329 H   0  0  0  0  0  0
  -27.4195  -29.7454   25.4836 H   0  0  0  0  0  0
  -27.8872  -30.4490   23.9545 H   0  0  0  0  0  0
  -27.2565  -33.3778   26.2103 H   0  0  0  0  0  0
  -28.3749  -32.7091   25.0343 H   0  0  0  0  0  0
  -28.0722  -31.8670   26.5492 H   0  0  0  0  0  0
  -28.2562  -38.0112   24.7476 H   0  0  0  0  0  0
  -28.1109  -36.2638   24.6299 H   0  0  0  0  0  0
  -27.2300  -37.1500   25.8864 H   0  0  0  0  0  0
  -20.9313  -29.8783   21.6943 H   0  0  0  0  0  0
  -26.0157  -38.2825   24.1382 H   0  0  0  0  0  0
  -31.0889  -19.5192   20.4776 H   0  0  0  0  0  0
  -28.1477  -16.9812   22.3138 H   0  0  0  0  0  0
  -27.3401  -21.1697   21.7810 H   0  0  0  0  0  0
  -30.3033  -24.4997   20.2134 H   0  0  0  0  0  0
  -27.8668  -22.6280   20.1393 H   0  0  0  0  0  0
  -26.2424  -16.9821   23.3734 H   0  0  0  0  0  0
  -25.1195  -16.1107   25.3126 H   0  0  0  0  0  0
  -23.7675  -17.1114   25.8531 H   0  0  0  0  0  0
  -25.3200  -17.1940   26.6941 H   0  0  0  0  0  0
  -25.2273  -20.3979   24.6219 H   0  0  0  0  0  0
  -25.2872  -19.7867   26.2710 H   0  0  0  0  0  0
  -23.7898  -19.6750   25.3433 H   0  0  0  0  0  0
  -30.7462  -17.9998   24.2186 H   0  0  0  0  0  0
  -31.6632  -16.5282   24.5879 H   0  0  0  0  0  0
  -30.0668  -16.4103   23.8416 H   0  0  0  0  0  0
  -28.4943  -24.5003   17.4721 H   0  0  0  0  0  0
  -29.5857  -25.8422   17.8166 H   0  0  0  0  0  0
  -27.8784  -26.1424   17.5417 H   0  0  0  0  0  0
  -31.3380  -17.0602   20.3511 H   0  0  0  0  0  0
  -27.3567  -24.8000   19.6612 H   0  0  0  0  0  0
  -30.7086  -21.9001   20.5274 H   0  0  0  0  0  0
  -25.9042  -19.8651   22.8970 H   0  0  0  0  0  0
  -29.2340  -15.3991   21.6390 H   0  0  0  0  0  0
  1 25  1  0  0  0
  1 30  2  0  0  0
  1 90  1  0  0  0
  2  3  1  0  0  0
  2 25  1  0  0  0
  2 92  1  0  0  0
  2 93  1  0  0  0
  3  4  1  0  0  0
  3 94  1  0  0  0
  3 95  1  0  0  0
  4  5  1  0  0  0
  4 96  1  0  0  0
  4 97  1  0  0  0
  5  6  1  0  0  0
  5 26  1  0  0  0
  5 98  1  0  0  0
  6 25  1  0  0  0
  6 99  1  0  0  0
  6100  1  0  0  0
  7  8  2  0  0  0
  7 26  1  0  0  0
  7 29  1  0  0  0
  8  9  1  0  0  0
  8 22  1  0  0  0
  9 10  1  0  0  0
  9 27  2  0  0  0
 10 11  2  0  0  0
 10 15  1  0  0  0
 11 12  1  0  0  0
 11101  1  0  0  0
 12 13  2  0  0  0
 12102  1  0  0  0
 13 14  1  0  0  0
 13 31  1  0  0  0
 14 15  2  0  0  0
 14103  1  0  0  0
 15104  1  0  0  0
 16 17  2  0  0  0
 16 21  1  0  0  0
 16 31  1  0  0  0
 17 18  1  0  0  0
 17105  1  0  0  0
 18 19  2  0  0  0
 18106  1  0  0  0
 19 20  1  0  0  0
 19 24  1  0  0  0
 20 21  2  0  0  0
 20107  1  0  0  0
 21 23  1  0  0  0
 22 28  1  0  0  0
 22 32  2  0  0  0
 26 27  1  0  0  0
 28108  1  0  0  0
 28109  1  0  0  0
 29110  1  0  0  0
 29111  1  0  0  0
 33 34  1  0  0  0
 33 66  1  0  0  0
 33 70  2  0  0  0
 34 36  1  0  0  0
 34 59  1  0  0  0
 34112  1  0  0  0
 35 44  2  0  0  0
 35 45  1  0  0  0
 35 68  1  0  0  0
 36 56  1  0  0  0
 36113  1  0  0  0
 37 39  1  0  0  0
 37 47  1  0  0  0
 37 66  1  0  0  0
 37114  1  0  0  0
 38 43  2  0  0  0
 38 46  1  0  0  0
 38 47  1  0  0  0
 39 64  1  0  0  0
 39 67  2  0  0  0
 40 52  1  0  0  0
 40 53  2  0  0  0
 40 58  1  0  0  0
 41115  1  0  0  0
 41116  1  0  0  0
 41117  1  0  0  0
 41 48  1  0  0  0
 42 43  1  0  0  0
 42 66  1  0  0  0
 42118  1  0  0  0
 42119  1  0  0  0
 43 44  1  0  0  0
 44120  1  0  0  0
 45 46  2  0  0  0
 45121  1  0  0  0
 46122  1  0  0  0
 47123  1  0  0  0
 47124  1  0  0  0
 48 56  1  0  0  0
 48 65  1  0  0  0
 48125  1  0  0  0
 49 50  1  0  0  0
 49 53  1  0  0  0
 49 64  1  0  0  0
 49126  1  0  0  0
 50 51  1  0  0  0
 50127  1  0  0  0
 50128  1  0  0  0
 51 52  1  0  0  0
 51129  1  0  0  0
 51130  1  0  0  0
 52131  1  0  0  0
 52132  1  0  0  0
 53 54  1  0  0  0
 54 55  2  0  0  0
 54133  1  0  0  0
 55 57  1  0  0  0
 55134  1  0  0  0
 56 69  2  0  0  0
 57 58  2  0  0  0
 57135  1  0  0  0
 58136  1  0  0  0
 59 60  1  0  0  0
 59 61  1  0  0  0
 59 62  1  0  0  0
 60137  1  0  0  0
 60138  1  0  0  0
 60139  1  0  0  0
 61140  1  0  0  0
 61141  1  0  0  0
 61142  1  0  0  0
 62143  1  0  0  0
 62144  1  0  0  0
 62145  1  0  0  0
 63 65  1  0  0  0
 63146  1  0  0  0
 63147  1  0  0  0
 63148  1  0  0  0
 64149  1  0  0  0
 65150  1  0  0  0
 68 87  1  0  0  0
 71 74  2  0  0  0
 71 75  1  0  0  0
 71151  1  0  0  0
 72 74  1  0  0  0
 72 76  2  0  0  0
 72152  1  0  0  0
 73 75  2  0  0  0
 73 76  1  0  0  0
 73153  1  0  0  0
 74 86  1  0  0  0
 75 88  1  0  0  0
 76 89  1  0  0  0
 77 78  2  0  0  0
 77 87  1  0  0  0
 77154  1  0  0  0
 78 88  1  0  0  0
 78155  1  0  0  0
 79 80  2  0  0  0
 79 89  1  0  0  0
 79156  1  0  0  0
 80 82  1  0  0  0
 80 83  1  0  0  0
 81 84  1  0  0  0
 81 86  1  0  0  0
 81 91  2  0  0  0
 82157  1  0  0  0
 82158  1  0  0  0
 82159  1  0  0  0
 83160  1  0  0  0
 83161  1  0  0  0
 83162  1  0  0  0
 84163  1  0  0  0
 84164  1  0  0  0
 84165  1  0  0  0
 85166  1  0  0  0
 85167  1  0  0  0
 85168  1  0  0  0
 85 87  1  0  0  0
 86 90  1  0  0  0
 86169  1  0  0  0
 87170  1  0  0  0
 88171  1  0  0  0
 89172  1  0  0  0
 90173  1  0  0  0
M  ISO  4   1 100  68 101  87 101  90 100
M  END
> <chiral flag>
0

> <version>
0

> <s_m_source_file>
/data/baiqing/PycharmProjects/Reinvent-master-3.2/result/LINK_invent/BTK/process_docking_weight1_custom_product_contain_oxygen_bond_distance_aromatic_linkinvent_7_9_3/rearranged_h_0164.sdf

> <i_m_source_file_index>
69

> <r_mmod_Potential_Energy-OPLS-2005>
-128.786712646484

> <r_mmod_Stretch_Energy-OPLS-2005>
52.8457374572754

> <r_mmod_Bend_Energy-OPLS-2005>
123.480125427246

> <r_mmod_Torsional_Energy-OPLS-2005>
205.328994750977

> <r_mmod_Improper_Torsional_Energy-OPLS-2005>
4.83086776733398

> <r_mmod_Van_der_Waal_Energy-OPLS-2005>
159.411758422852

> <r_mmod_Electrostatic_Energy-OPLS-2005>
-476.435668945312

> <r_mmod_Solvation_Energy-OPLS-2005>
-220.820465087891

> <b_mmod_Minimization_Converged-OPLS-2005>
0

> <r_mmod_RMS_Derivative-OPLS-2005>
3.17304706573486

$$$$
70
                    3D
 Structure written by MMmdl.
162170  0  0  1  0            999 V2000
  -30.7321  -14.4979   20.5642 C   0  0  0  0  0  0
  -30.4132  -12.3228   19.4346 C   0  0  0  0  0  0
  -29.4956  -12.5107   18.2114 C   0  0  0  0  0  0
  -28.0164  -12.3760   18.6213 C   0  0  0  0  0  0
  -27.6578  -13.2197   19.8748 C   0  0  2  0  0  0
  -28.7024  -13.0395   21.0011 C   0  0  0  0  0  0
  -25.2539  -13.8148   20.5638 C   0  0  0  0  0  0
  -24.1833  -13.0406   20.9170 C   0  0  0  0  0  0
  -24.6423  -11.6887   20.8741 C   0  0  0  0  0  0
  -23.9089  -10.4269   21.0415 C   0  0  0  0  0  0
  -24.3630   -9.4189   21.9202 C   0  0  0  0  0  0
  -23.6289   -8.2234   22.0772 C   0  0  0  0  0  0
  -22.4271   -8.0280   21.3549 C   0  0  0  0  0  0
  -21.9915   -9.0264   20.4654 C   0  0  0  0  0  0
  -22.7254  -10.2133   20.3069 C   0  0  0  0  0  0
  -21.6859   -6.0726   22.5278 C   0  0  0  0  0  0
  -21.4008   -6.5636   23.8206 C   0  0  0  0  0  0
  -21.3664   -5.6797   24.9176 C   0  0  0  0  0  0
  -21.6047   -4.3057   24.7230 C   0  0  0  0  0  0
  -21.8817   -3.8141   23.4353 C   0  0  0  0  0  0
  -21.9186   -4.6952   22.3403 C   0  0  0  0  0  0
  -22.7861  -13.5222   21.1823 C   0  0  0  0  0  0
  -22.1658   -4.2133   21.0981 F   0  0  0  0  0  0
  -21.5639   -3.4546   25.7749 F   0  0  0  0  0  0
  -30.0307  -13.3332   20.4390 N   0  0  0  0  0  0
  -26.3015  -12.9368   20.3366 N   0  0  0  0  0  0
  -25.9360  -11.6508   20.5794 N   0  0  0  0  0  0
  -22.0494  -12.8235   22.0384 N   0  0  0  0  0  0
  -25.4141  -15.1851   20.3942 N   0  0  0  0  0  0
  -31.8682  -14.6171   20.0981 O   0  0  0  0  0  0
  -21.6643   -6.8867   21.4237 O   0  0  0  0  0  0
  -22.3543  -14.5525   20.6657 O   0  0  0  0  0  0
  -24.6182  -31.8673   23.2122 C   0  0  0  0  0  0
  -25.9054  -32.4841   23.8408 C   0  0  1  0  0  0
  -27.2070  -27.3770   20.1026 C   0  0  0  0  0  0
  -25.5901  -33.8639   24.2337 N   0  0  0  0  0  0
  -23.4090  -30.4956   21.5523 C   0  0  2  0  0  0
  -24.8515  -28.9679   20.1073 C   0  0  0  0  0  0
  -22.7437  -29.4663   22.4939 C   0  0  0  0  0  0
  -18.0284  -28.1404   22.8492 C   0  0  0  0  0  0
  -24.1467  -36.7289   23.2639 C   0  0  0  0  0  0
  -25.9446  -30.8111   21.3817 C   0  0  0  0  0  0
  -26.0145  -29.4444   20.7237 C   0  0  0  0  0  0
  -27.1969  -28.6543   20.7257 C   0  0  0  0  0  0
  -26.0464  -26.9788   19.4037 C   0  0  0  0  0  0
  -24.8631  -27.7348   19.4412 C   0  0  0  0  0  0
  -23.6197  -29.8427   20.1608 C   0  0  0  0  0  0
  -25.4099  -36.3142   24.0350 C   0  0  1  0  0  0
  -20.5876  -28.3691   23.1293 C   0  0  2  0  0  0
  -20.6762  -26.9418   22.5405 C   0  0  0  0  0  0
  -19.5741  -26.6404   21.5202 C   0  0  0  0  0  0
  -18.1921  -26.7940   22.1630 C   0  0  0  0  0  0
  -19.1538  -28.8858   23.2900 C   0  0  0  0  0  0
  -18.9463  -30.1461   23.8927 C   0  0  0  0  0  0
  -17.6464  -30.6598   24.0579 C   0  0  0  0  0  0
  -25.9028  -34.9504   23.5133 C   0  0  0  0  0  0
  -16.5356  -29.9105   23.6341 C   0  0  0  0  0  0
  -16.7276  -28.6523   23.0366 C   0  0  0  0  0  0
  -26.4468  -31.6621   25.0754 C   0  0  0  0  0  0
  -25.3746  -31.3729   26.1501 C   0  0  0  0  0  0
  -27.0297  -30.3065   24.6152 C   0  0  0  0  0  0
  -27.6040  -32.4338   25.7511 C   0  0  0  0  0  0
  -27.5583  -37.1815   24.8491 C   0  0  0  0  0  0
  -21.4151  -29.3057   22.3679 N   0  0  0  0  0  0
  -26.4295  -37.3833   23.9441 N   0  0  0  0  0  0
  -24.6754  -31.0742   22.1048 N   0  0  0  0  0  0
  -23.4199  -28.8197   23.2980 O   0  0  0  0  0  0
  -28.3149  -26.5321   20.1321 O   0  0  0  0  0  0
  -26.5583  -34.8943   22.4692 O   0  0  0  0  0  0
  -23.5363  -32.1437   23.7489 O   0  0  0  0  0  0
  -32.2769  -18.6170   21.4684 C   0  0  0  0  0  0
  -31.3388  -19.6530   21.2994 C   0  0  0  0  0  0
  -31.8732  -17.2699   21.3968 C   0  0  0  0  0  0
  -29.9785  -19.3627   21.0650 C   0  0  0  0  0  0
  -30.5234  -16.9326   21.1376 C   0  0  0  0  0  0
  -29.5791  -17.9896   20.9897 C   0  0  0  0  0  0
  -29.5675  -22.9608   21.2355 C   0  0  0  0  0  0
  -28.1423  -25.6289   22.3580 C   0  0  0  0  0  0
  -26.9665  -24.3952   20.5171 C   0  0  0  0  0  0
  -28.9672  -20.5273   20.9533 C   0  0  0  0  0  0
  -29.4922  -24.3674   20.5526 C   0  0  0  0  0  0
  -28.2171  -25.2507   20.8631 C   0  0  0  0  0  0
  -28.2517  -17.6331   20.7516 N   0  0  0  0  0  0
  -30.0729  -15.5616   21.0791 N   0  0  0  0  0  0
  -29.4433  -21.8497   20.4793 N   0  0  0  0  0  0
  -29.7018  -22.8798   22.4574 O   0  0  0  0  0  0
  -31.4605  -12.3947   19.1366 H   0  0  0  0  0  0
  -30.2943  -11.3185   19.8469 H   0  0  0  0  0  0
  -29.7368  -11.7777   17.4401 H   0  0  0  0  0  0
  -29.6720  -13.4902   17.7630 H   0  0  0  0  0  0
  -27.8220  -11.3208   18.8155 H   0  0  0  0  0  0
  -27.3718  -12.6513   17.7860 H   0  0  0  0  0  0
  -27.6889  -14.2652   19.5671 H   0  0  0  0  0  0
  -28.6813  -12.0154   21.3790 H   0  0  0  0  0  0
  -28.4669  -13.6721   21.8590 H   0  0  0  0  0  0
  -25.2778   -9.5679   22.4770 H   0  0  0  0  0  0
  -23.9995   -7.4639   22.7515 H   0  0  0  0  0  0
  -21.0833   -8.8786   19.8976 H   0  0  0  0  0  0
  -22.3710  -10.9674   19.6178 H   0  0  0  0  0  0
  -21.1994   -7.6144   23.9696 H   0  0  0  0  0  0
  -21.1495   -6.0534   25.9073 H   0  0  0  0  0  0
  -22.0584   -2.7598   23.2862 H   0  0  0  0  0  0
  -22.4116  -11.9928   22.4820 H   0  0  0  0  0  0
  -21.1114  -13.1279   22.2567 H   0  0  0  0  0  0
  -24.6321  -15.8241   20.4858 H   0  0  0  0  0  0
  -26.2476  -15.6293   20.0358 H   0  0  0  0  0  0
  -26.7096  -32.5548   23.1144 H   0  0  0  0  0  0
  -25.0103  -33.9809   25.0522 H   0  0  0  0  0  0
  -22.7010  -31.3168   21.4210 H   0  0  0  0  0  0
  -23.3758  -35.9591   23.3335 H   0  0  0  0  0  0
  -24.3533  -36.8864   22.2047 H   0  0  0  0  0  0
  -23.7157  -37.6483   23.6607 H   0  0  0  0  0  0
  -26.0732  -31.5768   20.6151 H   0  0  0  0  0  0
  -26.8255  -30.8574   22.0074 H   0  0  0  0  0  0
  -28.0882  -29.0075   21.2244 H   0  0  0  0  0  0
  -26.0378  -26.0683   18.8243 H   0  0  0  0  0  0
  -23.9790  -27.3843   18.9272 H   0  0  0  0  0  0
  -23.7393  -30.6267   19.4124 H   0  0  0  0  0  0
  -22.7395  -29.2756   19.8524 H   0  0  0  0  0  0
  -25.1273  -36.2023   25.0842 H   0  0  0  0  0  0
  -20.9985  -28.3258   24.1410 H   0  0  0  0  0  0
  -20.5659  -26.2309   23.3612 H   0  0  0  0  0  0
  -21.6636  -26.7450   22.1214 H   0  0  0  0  0  0
  -19.6894  -25.6307   21.1243 H   0  0  0  0  0  0
  -19.6680  -27.3207   20.6725 H   0  0  0  0  0  0
  -17.4197  -26.6703   21.4029 H   0  0  0  0  0  0
  -18.0335  -26.0069   22.9025 H   0  0  0  0  0  0
  -19.7941  -30.7266   24.2314 H   0  0  0  0  0  0
  -17.5029  -31.6292   24.5161 H   0  0  0  0  0  0
  -15.5356  -30.3040   23.7620 H   0  0  0  0  0  0
  -15.8682  -28.0855   22.7078 H   0  0  0  0  0  0
  -24.5925  -30.7042   25.7876 H   0  0  0  0  0  0
  -24.8908  -32.2878   26.4930 H   0  0  0  0  0  0
  -25.8111  -30.8943   27.0272 H   0  0  0  0  0  0
  -26.2842  -29.6860   24.1169 H   0  0  0  0  0  0
  -27.4001  -29.7284   25.4628 H   0  0  0  0  0  0
  -27.8722  -30.4408   23.9369 H   0  0  0  0  0  0
  -27.2671  -33.3640   26.2097 H   0  0  0  0  0  0
  -28.3852  -32.6880   25.0348 H   0  0  0  0  0  0
  -28.0677  -31.8440   26.5425 H   0  0  0  0  0  0
  -28.2648  -38.0081   24.7551 H   0  0  0  0  0  0
  -28.1036  -36.2619   24.6309 H   0  0  0  0  0  0
  -27.2301  -37.1460   25.8897 H   0  0  0  0  0  0
  -20.9302  -29.8825   21.6946 H   0  0  0  0  0  0
  -26.0183  -38.2905   24.1462 H   0  0  0  0  0  0
  -33.3122  -18.8587   21.6690 H   0  0  0  0  0  0
  -31.6690  -20.6801   21.3745 H   0  0  0  0  0  0
  -32.6153  -16.5015   21.5543 H   0  0  0  0  0  0
  -28.0614  -24.7452   22.9884 H   0  0  0  0  0  0
  -27.2658  -26.2404   22.5713 H   0  0  0  0  0  0
  -29.0240  -26.1850   22.6758 H   0  0  0  0  0  0
  -26.9442  -23.4526   21.0643 H   0  0  0  0  0  0
  -26.9309  -24.1472   19.4556 H   0  0  0  0  0  0
  -26.0339  -24.8793   20.8031 H   0  0  0  0  0  0
  -28.4768  -20.6275   21.9241 H   0  0  0  0  0  0
  -28.1740  -20.2407   20.2632 H   0  0  0  0  0  0
  -29.5777  -24.2307   19.4743 H   0  0  0  0  0  0
  -30.3860  -24.9199   20.8445 H   0  0  0  0  0  0
  -27.6180  -18.3657   20.4589 H   0  0  0  0  0  0
  -28.1363  -16.8023   20.1862 H   0  0  0  0  0  0
  -29.1074  -15.4157   21.3300 H   0  0  0  0  0  0
  -29.4232  -21.9825   19.4770 H   0  0  0  0  0  0
  1 25  1  0  0  0
  1 30  2  0  0  0
  1 84  1  0  0  0
  2  3  1  0  0  0
  2 25  1  0  0  0
  2 87  1  0  0  0
  2 88  1  0  0  0
  3  4  1  0  0  0
  3 89  1  0  0  0
  3 90  1  0  0  0
  4  5  1  0  0  0
  4 91  1  0  0  0
  4 92  1  0  0  0
  5  6  1  0  0  0
  5 26  1  0  0  0
  5 93  1  0  0  0
  6 25  1  0  0  0
  6 94  1  0  0  0
  6 95  1  0  0  0
  7  8  2  0  0  0
  7 26  1  0  0  0
  7 29  1  0  0  0
  8  9  1  0  0  0
  8 22  1  0  0  0
  9 10  1  0  0  0
  9 27  2  0  0  0
 10 11  2  0  0  0
 10 15  1  0  0  0
 11 12  1  0  0  0
 11 96  1  0  0  0
 12 13  2  0  0  0
 12 97  1  0  0  0
 13 14  1  0  0  0
 13 31  1  0  0  0
 14 15  2  0  0  0
 14 98  1  0  0  0
 15 99  1  0  0  0
 16 17  2  0  0  0
 16 21  1  0  0  0
 16 31  1  0  0  0
 17 18  1  0  0  0
 17100  1  0  0  0
 18 19  2  0  0  0
 18101  1  0  0  0
 19 20  1  0  0  0
 19 24  1  0  0  0
 20 21  2  0  0  0
 20102  1  0  0  0
 21 23  1  0  0  0
 22 28  1  0  0  0
 22 32  2  0  0  0
 26 27  1  0  0  0
 28103  1  0  0  0
 28104  1  0  0  0
 29105  1  0  0  0
 29106  1  0  0  0
 33 34  1  0  0  0
 33 66  1  0  0  0
 33 70  2  0  0  0
 34 36  1  0  0  0
 34 59  1  0  0  0
 34107  1  0  0  0
 35 44  2  0  0  0
 35 45  1  0  0  0
 35 68  1  0  0  0
 36 56  1  0  0  0
 36108  1  0  0  0
 37 39  1  0  0  0
 37 47  1  0  0  0
 37 66  1  0  0  0
 37109  1  0  0  0
 38 43  2  0  0  0
 38 46  1  0  0  0
 38 47  1  0  0  0
 39 64  1  0  0  0
 39 67  2  0  0  0
 40 52  1  0  0  0
 40 53  2  0  0  0
 40 58  1  0  0  0
 41110  1  0  0  0
 41111  1  0  0  0
 41112  1  0  0  0
 41 48  1  0  0  0
 42 43  1  0  0  0
 42 66  1  0  0  0
 42113  1  0  0  0
 42114  1  0  0  0
 43 44  1  0  0  0
 44115  1  0  0  0
 45 46  2  0  0  0
 45116  1  0  0  0
 46117  1  0  0  0
 47118  1  0  0  0
 47119  1  0  0  0
 48 56  1  0  0  0
 48 65  1  0  0  0
 48120  1  0  0  0
 49 50  1  0  0  0
 49 53  1  0  0  0
 49 64  1  0  0  0
 49121  1  0  0  0
 50 51  1  0  0  0
 50122  1  0  0  0
 50123  1  0  0  0
 51 52  1  0  0  0
 51124  1  0  0  0
 51125  1  0  0  0
 52126  1  0  0  0
 52127  1  0  0  0
 53 54  1  0  0  0
 54 55  2  0  0  0
 54128  1  0  0  0
 55 57  1  0  0  0
 55129  1  0  0  0
 56 69  2  0  0  0
 57 58  2  0  0  0
 57130  1  0  0  0
 58131  1  0  0  0
 59 60  1  0  0  0
 59 61  1  0  0  0
 59 62  1  0  0  0
 60132  1  0  0  0
 60133  1  0  0  0
 60134  1  0  0  0
 61135  1  0  0  0
 61136  1  0  0  0
 61137  1  0  0  0
 62138  1  0  0  0
 62139  1  0  0  0
 62140  1  0  0  0
 63 65  1  0  0  0
 63141  1  0  0  0
 63142  1  0  0  0
 63143  1  0  0  0
 64144  1  0  0  0
 65145  1  0  0  0
 68 82  1  0  0  0
 71 72  2  0  0  0
 71 73  1  0  0  0
 71146  1  0  0  0
 72 74  1  0  0  0
 72147  1  0  0  0
 73 75  2  0  0  0
 73148  1  0  0  0
 74 76  2  0  0  0
 74 80  1  0  0  0
 75 76  1  0  0  0
 75 84  1  0  0  0
 76 83  1  0  0  0
 77 81  1  0  0  0
 77 85  1  0  0  0
 77 86  2  0  0  0
 78149  1  0  0  0
 78150  1  0  0  0
 78151  1  0  0  0
 78 82  1  0  0  0
 79 82  1  0  0  0
 79152  1  0  0  0
 79153  1  0  0  0
 79154  1  0  0  0
 80 85  1  0  0  0
 80155  1  0  0  0
 80156  1  0  0  0
 81 82  1  0  0  0
 81157  1  0  0  0
 81158  1  0  0  0
 83159  1  0  0  0
 83160  1  0  0  0
 84161  1  0  0  0
 85162  1  0  0  0
M  ISO  4   1 100  68 101  82 101  84 100
M  END
> <chiral flag>
0

> <version>
0

> <s_m_source_file>
/data/baiqing/PycharmProjects/Reinvent-master-3.2/result/LINK_invent/BTK/process_docking_weight1_custom_product_contain_oxygen_bond_distance_aromatic_linkinvent_7_9_3/rearranged_h_0164.sdf

> <i_m_source_file_index>
70

> <r_mmod_Potential_Energy-OPLS-2005>
-146.047073364258

> <r_mmod_Stretch_Energy-OPLS-2005>
56.6765365600586

> <r_mmod_Bend_Energy-OPLS-2005>
113.766815185547

> <r_mmod_Torsional_Energy-OPLS-2005>
224.960708618164

> <r_mmod_Improper_Torsional_Energy-OPLS-2005>
9.19474220275879

> <r_mmod_Van_der_Waal_Energy-OPLS-2005>
169.276794433594

> <r_mmod_Electrostatic_Energy-OPLS-2005>
-508.966613769531

> <r_mmod_Solvation_Energy-OPLS-2005>
-236.963516235352

> <b_mmod_Minimization_Converged-OPLS-2005>
0

> <r_mmod_RMS_Derivative-OPLS-2005>
3.26915311813354

$$$$
71
                    3D
 Structure written by MMmdl.
165173  0  0  1  0            999 V2000
  -30.6768  -14.5103   20.5403 C   0  0  0  0  0  0
  -30.4229  -12.3241   19.4214 C   0  0  0  0  0  0
  -29.4901  -12.5070   18.2062 C   0  0  0  0  0  0
  -28.0098  -12.3755   18.6210 C   0  0  0  0  0  0
  -27.6575  -13.2139   19.8791 C   0  0  2  0  0  0
  -28.7049  -13.0031   20.9958 C   0  0  0  0  0  0
  -25.2513  -13.8117   20.5696 C   0  0  0  0  0  0
  -24.1789  -13.0374   20.9149 C   0  0  0  0  0  0
  -24.6393  -11.6864   20.8743 C   0  0  0  0  0  0
  -23.9063  -10.4254   21.0412 C   0  0  0  0  0  0
  -24.3608   -9.4179   21.9198 C   0  0  0  0  0  0
  -23.6274   -8.2225   22.0764 C   0  0  0  0  0  0
  -22.4262   -8.0269   21.3543 C   0  0  0  0  0  0
  -21.9896   -9.0248   20.4653 C   0  0  0  0  0  0
  -22.7232  -10.2116   20.3067 C   0  0  0  0  0  0
  -21.6851   -6.0719   22.5279 C   0  0  0  0  0  0
  -21.4023   -6.5635   23.8209 C   0  0  0  0  0  0
  -21.3666   -5.6794   24.9177 C   0  0  0  0  0  0
  -21.6040   -4.3054   24.7231 C   0  0  0  0  0  0
  -21.8813   -3.8133   23.4356 C   0  0  0  0  0  0
  -21.9187   -4.6944   22.3410 C   0  0  0  0  0  0
  -22.7824  -13.5185   21.1837 C   0  0  0  0  0  0
  -22.1652   -4.2126   21.0987 F   0  0  0  0  0  0
  -21.5630   -3.4543   25.7748 F   0  0  0  0  0  0
  -30.0322  -13.3132   20.4382 N   0  0  0  0  0  0
  -26.3005  -12.9341   20.3423 N   0  0  0  0  0  0
  -25.9334  -11.6481   20.5801 N   0  0  0  0  0  0
  -22.0496  -12.8185   22.0425 N   0  0  0  0  0  0
  -25.4055  -15.1832   20.4163 N   0  0  0  0  0  0
  -31.8134  -14.6951   20.0984 O   0  0  0  0  0  0
  -21.6630   -6.8865   21.4243 O   0  0  0  0  0  0
  -22.3503  -14.5509   20.6717 O   0  0  0  0  0  0
  -24.6171  -31.8651   23.2088 C   0  0  0  0  0  0
  -25.9076  -32.4788   23.8372 C   0  0  1  0  0  0
  -27.2353  -27.4186   20.1088 C   0  0  0  0  0  0
  -25.5925  -33.8583   24.2306 N   0  0  0  0  0  0
  -23.4047  -30.4857   21.5522 C   0  0  2  0  0  0
  -24.8529  -28.9467   20.1175 C   0  0  0  0  0  0
  -22.7426  -29.4623   22.5009 C   0  0  0  0  0  0
  -18.0260  -28.1391   22.8484 C   0  0  0  0  0  0
  -24.1482  -36.7285   23.2633 C   0  0  0  0  0  0
  -25.9327  -30.8273   21.3633 C   0  0  0  0  0  0
  -26.0120  -29.4593   20.7121 C   0  0  0  0  0  0
  -27.2082  -28.7047   20.7003 C   0  0  0  0  0  0
  -26.0647  -26.9253   19.4991 C   0  0  0  0  0  0
  -24.8735  -27.6786   19.5082 C   0  0  0  0  0  0
  -23.6153  -29.8167   20.1668 C   0  0  0  0  0  0
  -25.4106  -36.3072   24.0325 C   0  0  1  0  0  0
  -20.5855  -28.3663   23.1342 C   0  0  2  0  0  0
  -20.6761  -26.9401   22.5443 C   0  0  0  0  0  0
  -19.5747  -26.6402   21.5226 C   0  0  0  0  0  0
  -18.1916  -26.7938   22.1627 C   0  0  0  0  0  0
  -19.1510  -28.8849   23.2898 C   0  0  0  0  0  0
  -18.9441  -30.1462   23.8893 C   0  0  0  0  0  0
  -17.6440  -30.6590   24.0575 C   0  0  0  0  0  0
  -25.9044  -34.9442   23.5108 C   0  0  0  0  0  0
  -16.5329  -29.9090   23.6341 C   0  0  0  0  0  0
  -16.7249  -28.6523   23.0331 C   0  0  0  0  0  0
  -26.4508  -31.6554   25.0691 C   0  0  0  0  0  0
  -25.3782  -31.3645   26.1445 C   0  0  0  0  0  0
  -27.0338  -30.2985   24.6062 C   0  0  0  0  0  0
  -27.6083  -32.4271   25.7462 C   0  0  0  0  0  0
  -27.5563  -37.1788   24.8465 C   0  0  0  0  0  0
  -21.4161  -29.2994   22.3733 N   0  0  0  0  0  0
  -26.4280  -37.3765   23.9403 N   0  0  0  0  0  0
  -24.6693  -31.0735   22.0995 N   0  0  0  0  0  0
  -23.4177  -28.8169   23.3064 O   0  0  0  0  0  0
  -28.3917  -26.6625   20.0897 O   0  0  0  0  0  0
  -26.5605  -34.8909   22.4664 O   0  0  0  0  0  0
  -23.5371  -32.1411   23.7493 O   0  0  0  0  0  0
  -31.0253  -19.0413   20.1466 C   0  0  0  0  0  0
  -31.1170  -17.6782   20.5231 C   0  0  0  0  0  0
  -29.7752  -19.6811   19.9166 C   0  0  0  0  0  0
  -29.9483  -16.9012   20.6848 C   0  0  0  0  0  0
  -28.6052  -18.9056   20.1364 C   0  0  0  0  0  0
  -28.7025  -17.5414   20.5144 C   0  0  0  0  0  0
  -28.5262  -23.3104   19.7985 C   0  0  0  0  0  0
  -31.0557  -21.6597   18.8222 C   0  0  0  0  0  0
  -28.1308  -26.1701   22.4970 C   0  0  0  0  0  0
  -30.1323  -25.5077   21.1756 C   0  0  0  0  0  0
  -27.9078  -24.2604   20.8512 C   0  0  0  0  0  0
  -29.7038  -21.1265   19.3416 C   0  0  2  0  0  0
  -28.5988  -25.6514   21.1134 C   0  0  0  0  0  0
  -27.3254  -19.4441   19.9653 N   0  0  0  0  0  0
  -29.9311  -15.5133   21.0464 N   0  0  0  0  0  0
  -29.0694  -22.1388   20.2115 N   0  0  0  0  0  0
  -28.4809  -23.6269   18.6083 O   0  0  0  0  0  0
  -27.5716  -16.8193   20.6879 F   0  0  0  0  0  0
  -31.4656  -12.4313   19.1157 H   0  0  0  0  0  0
  -30.3307  -11.3143   19.8260 H   0  0  0  0  0  0
  -29.7244  -11.7678   17.4389 H   0  0  0  0  0  0
  -29.6607  -13.4839   17.7525 H   0  0  0  0  0  0
  -27.8156  -11.3191   18.8095 H   0  0  0  0  0  0
  -27.3592  -12.6596   17.7933 H   0  0  0  0  0  0
  -27.6893  -14.2609   19.5782 H   0  0  0  0  0  0
  -28.6899  -11.9696   21.3448 H   0  0  0  0  0  0
  -28.4697  -13.6104   21.8711 H   0  0  0  0  0  0
  -25.2758   -9.5649   22.4762 H   0  0  0  0  0  0
  -23.9974   -7.4626   22.7498 H   0  0  0  0  0  0
  -21.0817   -8.8767   19.8973 H   0  0  0  0  0  0
  -22.3699  -10.9653   19.6173 H   0  0  0  0  0  0
  -21.2028   -7.6143   23.9703 H   0  0  0  0  0  0
  -21.1500   -6.0529   25.9073 H   0  0  0  0  0  0
  -22.0586   -2.7588   23.2867 H   0  0  0  0  0  0
  -22.4107  -11.9832   22.4782 H   0  0  0  0  0  0
  -21.1139  -13.1224   22.2704 H   0  0  0  0  0  0
  -24.6400  -15.8212   20.5928 H   0  0  0  0  0  0
  -26.2867  -15.6668   20.2657 H   0  0  0  0  0  0
  -26.7139  -32.5496   23.1131 H   0  0  0  0  0  0
  -25.0061  -33.9737   25.0444 H   0  0  0  0  0  0
  -22.6916  -31.3005   21.4138 H   0  0  0  0  0  0
  -23.3734  -35.9631   23.3315 H   0  0  0  0  0  0
  -24.3568  -36.8887   22.2044 H   0  0  0  0  0  0
  -23.7275  -37.6502   23.6658 H   0  0  0  0  0  0
  -26.0457  -31.5955   20.5974 H   0  0  0  0  0  0
  -26.8194  -30.8796   21.9821 H   0  0  0  0  0  0
  -28.1067  -29.0965   21.1570 H   0  0  0  0  0  0
  -26.0761  -25.9558   19.0199 H   0  0  0  0  0  0
  -23.9807  -27.2793   19.0465 H   0  0  0  0  0  0
  -23.7273  -30.5950   19.4105 H   0  0  0  0  0  0
  -22.7380  -29.2398   19.8689 H   0  0  0  0  0  0
  -25.1294  -36.1906   25.0822 H   0  0  0  0  0  0
  -20.9907  -28.3228   24.1480 H   0  0  0  0  0  0
  -20.5705  -26.2240   23.3612 H   0  0  0  0  0  0
  -21.6629  -26.7486   22.1209 H   0  0  0  0  0  0
  -19.6921  -25.6327   21.1213 H   0  0  0  0  0  0
  -19.6706  -27.3251   20.6791 H   0  0  0  0  0  0
  -17.4198  -26.6681   21.4018 H   0  0  0  0  0  0
  -18.0320  -26.0084   22.9033 H   0  0  0  0  0  0
  -19.7910  -30.7292   24.2246 H   0  0  0  0  0  0
  -17.4989  -31.6267   24.5183 H   0  0  0  0  0  0
  -15.5329  -30.2987   23.7688 H   0  0  0  0  0  0
  -15.8649  -28.0869   22.7016 H   0  0  0  0  0  0
  -24.5980  -30.6964   25.7770 H   0  0  0  0  0  0
  -24.8952  -32.2784   26.4900 H   0  0  0  0  0  0
  -25.8156  -30.8812   27.0190 H   0  0  0  0  0  0
  -26.2861  -29.6720   24.1167 H   0  0  0  0  0  0
  -27.4158  -29.7243   25.4515 H   0  0  0  0  0  0
  -27.8682  -30.4273   23.9164 H   0  0  0  0  0  0
  -27.2694  -33.3560   26.2059 H   0  0  0  0  0  0
  -28.3886  -32.6831   25.0282 H   0  0  0  0  0  0
  -28.0752  -31.8373   26.5364 H   0  0  0  0  0  0
  -28.2594  -38.0063   24.7480 H   0  0  0  0  0  0
  -28.1046  -36.2600   24.6335 H   0  0  0  0  0  0
  -27.2273  -37.1476   25.8863 H   0  0  0  0  0  0
  -20.9349  -29.8615   21.6856 H   0  0  0  0  0  0
  -26.0159  -38.2832   24.1431 H   0  0  0  0  0  0
  -31.9516  -19.5786   20.0089 H   0  0  0  0  0  0
  -32.0929  -17.2375   20.6756 H   0  0  0  0  0  0
  -30.9342  -22.6150   18.3112 H   0  0  0  0  0  0
  -31.4985  -20.9745   18.0982 H   0  0  0  0  0  0
  -31.7714  -21.8169   19.6297 H   0  0  0  0  0  0
  -28.3704  -25.4569   23.2873 H   0  0  0  0  0  0
  -27.0514  -26.3221   22.5308 H   0  0  0  0  0  0
  -28.6076  -27.1145   22.7624 H   0  0  0  0  0  0
  -30.4371  -24.7467   21.8948 H   0  0  0  0  0  0
  -30.5998  -26.4484   21.4707 H   0  0  0  0  0  0
  -30.5524  -25.2332   20.2066 H   0  0  0  0  0  0
  -27.8829  -23.7022   21.7884 H   0  0  0  0  0  0
  -26.8592  -24.4101   20.5956 H   0  0  0  0  0  0
  -29.0582  -21.0292   18.4658 H   0  0  0  0  0  0
  -27.2044  -20.2890   19.4220 H   0  0  0  0  0  0
  -26.5484  -18.7950   19.9019 H   0  0  0  0  0  0
  -29.0349  -15.2002   21.3862 H   0  0  0  0  0  0
  -29.0311  -21.9192   21.1966 H   0  0  0  0  0  0
  1 25  1  0  0  0
  1 30  2  0  0  0
  1 85  1  0  0  0
  2  3  1  0  0  0
  2 25  1  0  0  0
  2 89  1  0  0  0
  2 90  1  0  0  0
  3  4  1  0  0  0
  3 91  1  0  0  0
  3 92  1  0  0  0
  4  5  1  0  0  0
  4 93  1  0  0  0
  4 94  1  0  0  0
  5  6  1  0  0  0
  5 26  1  0  0  0
  5 95  1  0  0  0
  6 25  1  0  0  0
  6 96  1  0  0  0
  6 97  1  0  0  0
  7  8  2  0  0  0
  7 26  1  0  0  0
  7 29  1  0  0  0
  8  9  1  0  0  0
  8 22  1  0  0  0
  9 10  1  0  0  0
  9 27  2  0  0  0
 10 11  2  0  0  0
 10 15  1  0  0  0
 11 12  1  0  0  0
 11 98  1  0  0  0
 12 13  2  0  0  0
 12 99  1  0  0  0
 13 14  1  0  0  0
 13 31  1  0  0  0
 14 15  2  0  0  0
 14100  1  0  0  0
 15101  1  0  0  0
 16 17  2  0  0  0
 16 21  1  0  0  0
 16 31  1  0  0  0
 17 18  1  0  0  0
 17102  1  0  0  0
 18 19  2  0  0  0
 18103  1  0  0  0
 19 20  1  0  0  0
 19 24  1  0  0  0
 20 21  2  0  0  0
 20104  1  0  0  0
 21 23  1  0  0  0
 22 28  1  0  0  0
 22 32  2  0  0  0
 26 27  1  0  0  0
 28105  1  0  0  0
 28106  1  0  0  0
 29107  1  0  0  0
 29108  1  0  0  0
 33 34  1  0  0  0
 33 66  1  0  0  0
 33 70  2  0  0  0
 34 36  1  0  0  0
 34 59  1  0  0  0
 34109  1  0  0  0
 35 44  2  0  0  0
 35 45  1  0  0  0
 35 68  1  0  0  0
 36 56  1  0  0  0
 36110  1  0  0  0
 37 39  1  0  0  0
 37 47  1  0  0  0
 37 66  1  0  0  0
 37111  1  0  0  0
 38 43  2  0  0  0
 38 46  1  0  0  0
 38 47  1  0  0  0
 39 64  1  0  0  0
 39 67  2  0  0  0
 40 52  1  0  0  0
 40 53  2  0  0  0
 40 58  1  0  0  0
 41112  1  0  0  0
 41113  1  0  0  0
 41114  1  0  0  0
 41 48  1  0  0  0
 42 43  1  0  0  0
 42 66  1  0  0  0
 42115  1  0  0  0
 42116  1  0  0  0
 43 44  1  0  0  0
 44117  1  0  0  0
 45 46  2  0  0  0
 45118  1  0  0  0
 46119  1  0  0  0
 47120  1  0  0  0
 47121  1  0  0  0
 48 56  1  0  0  0
 48 65  1  0  0  0
 48122  1  0  0  0
 49 50  1  0  0  0
 49 53  1  0  0  0
 49 64  1  0  0  0
 49123  1  0  0  0
 50 51  1  0  0  0
 50124  1  0  0  0
 50125  1  0  0  0
 51 52  1  0  0  0
 51126  1  0  0  0
 51127  1  0  0  0
 52128  1  0  0  0
 52129  1  0  0  0
 53 54  1  0  0  0
 54 55  2  0  0  0
 54130  1  0  0  0
 55 57  1  0  0  0
 55131  1  0  0  0
 56 69  2  0  0  0
 57 58  2  0  0  0
 57132  1  0  0  0
 58133  1  0  0  0
 59 60  1  0  0  0
 59 61  1  0  0  0
 59 62  1  0  0  0
 60134  1  0  0  0
 60135  1  0  0  0
 60136  1  0  0  0
 61137  1  0  0  0
 61138  1  0  0  0
 61139  1  0  0  0
 62140  1  0  0  0
 62141  1  0  0  0
 62142  1  0  0  0
 63 65  1  0  0  0
 63143  1  0  0  0
 63144  1  0  0  0
 63145  1  0  0  0
 64146  1  0  0  0
 65147  1  0  0  0
 68 83  1  0  0  0
 71 72  2  0  0  0
 71 73  1  0  0  0
 71148  1  0  0  0
 72 74  1  0  0  0
 72149  1  0  0  0
 73 75  2  0  0  0
 73 82  1  0  0  0
 74 76  2  0  0  0
 74 85  1  0  0  0
 75 76  1  0  0  0
 75 84  1  0  0  0
 76 88  1  0  0  0
 77 81  1  0  0  0
 77 86  1  0  0  0
 77 87  2  0  0  0
 78150  1  0  0  0
 78151  1  0  0  0
 78152  1  0  0  0
 78 82  1  0  0  0
 79153  1  0  0  0
 79154  1  0  0  0
 79155  1  0  0  0
 79 83  1  0  0  0
 80 83  1  0  0  0
 80156  1  0  0  0
 80157  1  0  0  0
 80158  1  0  0  0
 81 83  1  0  0  0
 81159  1  0  0  0
 81160  1  0  0  0
 82 86  1  0  0  0
 82161  1  0  0  0
 84162  1  0  0  0
 84163  1  0  0  0
 85164  1  0  0  0
 86165  1  0  0  0
M  ISO  4   1 100  68 101  83 101  85 100
M  END
> <chiral flag>
0

> <version>
0

> <s_m_source_file>
/data/baiqing/PycharmProjects/Reinvent-master-3.2/result/LINK_invent/BTK/process_docking_weight1_custom_product_contain_oxygen_bond_distance_aromatic_linkinvent_7_9_3/rearranged_h_0164.sdf

> <i_m_source_file_index>
71

> <r_mmod_Potential_Energy-OPLS-2005>
-32.8012199401855

> <r_mmod_Stretch_Energy-OPLS-2005>
47.4195671081543

> <r_mmod_Bend_Energy-OPLS-2005>
121.181312561035

> <r_mmod_Torsional_Energy-OPLS-2005>
232.747802734375

> <r_mmod_Improper_Torsional_Energy-OPLS-2005>
8.08996868133545

> <r_mmod_Van_der_Waal_Energy-OPLS-2005>
154.53190612793

> <r_mmod_Electrostatic_Energy-OPLS-2005>
-395.233337402344

> <r_mmod_Solvation_Energy-OPLS-2005>
-217.354248046875

> <b_mmod_Minimization_Converged-OPLS-2005>
0

> <r_mmod_RMS_Derivative-OPLS-2005>
2.75343322753906

$$$$
72
                    3D
 Structure written by MMmdl.
169177  0  0  1  0            999 V2000
  -30.7028  -14.4232   20.6397 C   0  0  0  0  0  0
  -30.4282  -12.2989   19.4048 C   0  0  0  0  0  0
  -29.4911  -12.5186   18.2005 C   0  0  0  0  0  0
  -28.0139  -12.3727   18.6150 C   0  0  0  0  0  0
  -27.6671  -13.1985   19.8814 C   0  0  2  0  0  0
  -28.7028  -12.9321   20.9954 C   0  0  0  0  0  0
  -25.2603  -13.8147   20.5670 C   0  0  0  0  0  0
  -24.1839  -13.0434   20.9161 C   0  0  0  0  0  0
  -24.6384  -11.6895   20.8733 C   0  0  0  0  0  0
  -23.9044  -10.4289   21.0402 C   0  0  0  0  0  0
  -24.3602   -9.4212   21.9185 C   0  0  0  0  0  0
  -23.6285   -8.2243   22.0753 C   0  0  0  0  0  0
  -22.4263   -8.0278   21.3549 C   0  0  0  0  0  0
  -21.9893   -9.0249   20.4647 C   0  0  0  0  0  0
  -22.7218  -10.2128   20.3055 C   0  0  0  0  0  0
  -21.6849   -6.0731   22.5280 C   0  0  0  0  0  0
  -21.4015   -6.5636   23.8214 C   0  0  0  0  0  0
  -21.3663   -5.6792   24.9179 C   0  0  0  0  0  0
  -21.6041   -4.3050   24.7228 C   0  0  0  0  0  0
  -21.8824   -3.8145   23.4349 C   0  0  0  0  0  0
  -21.9193   -4.6960   22.3405 C   0  0  0  0  0  0
  -22.7867  -13.5233   21.1853 C   0  0  0  0  0  0
  -22.1662   -4.2144   21.0985 F   0  0  0  0  0  0
  -21.5630   -3.4535   25.7746 F   0  0  0  0  0  0
  -30.0452  -13.2449   20.4636 N   0  0  0  0  0  0
  -26.3039  -12.9303   20.3378 N   0  0  0  0  0  0
  -25.9303  -11.6468   20.5756 N   0  0  0  0  0  0
  -22.0515  -12.8226   22.0414 N   0  0  0  0  0  0
  -25.4363  -15.1866   20.4095 N   0  0  0  0  0  0
  -31.7603  -14.7015   20.0638 O   0  0  0  0  0  0
  -21.6633   -6.8864   21.4234 O   0  0  0  0  0  0
  -22.3552  -14.5555   20.6723 O   0  0  0  0  0  0
  -24.6113  -31.8675   23.2090 C   0  0  0  0  0  0
  -25.9017  -32.4822   23.8391 C   0  0  1  0  0  0
  -27.2397  -27.4492   20.1045 C   0  0  0  0  0  0
  -25.5885  -33.8615   24.2329 N   0  0  0  0  0  0
  -23.4022  -30.4876   21.5487 C   0  0  2  0  0  0
  -24.8543  -28.9580   20.1115 C   0  0  0  0  0  0
  -22.7414  -29.4606   22.4979 C   0  0  0  0  0  0
  -18.0264  -28.1350   22.8462 C   0  0  0  0  0  0
  -24.1498  -36.7320   23.2636 C   0  0  0  0  0  0
  -25.9281  -30.8395   21.3613 C   0  0  0  0  0  0
  -26.0112  -29.4756   20.7074 C   0  0  0  0  0  0
  -27.2109  -28.7288   20.6999 C   0  0  0  0  0  0
  -26.0718  -26.9438   19.4982 C   0  0  0  0  0  0
  -24.8790  -27.6913   19.5020 C   0  0  0  0  0  0
  -23.6134  -29.8193   20.1619 C   0  0  0  0  0  0
  -25.4112  -36.3114   24.0332 C   0  0  1  0  0  0
  -20.5849  -28.3630   23.1303 C   0  0  2  0  0  0
  -20.6757  -26.9369   22.5391 C   0  0  0  0  0  0
  -19.5738  -26.6351   21.5180 C   0  0  0  0  0  0
  -18.1917  -26.7885   22.1591 C   0  0  0  0  0  0
  -19.1509  -28.8809   23.2877 C   0  0  0  0  0  0
  -18.9441  -30.1409   23.8892 C   0  0  0  0  0  0
  -17.6454  -30.6564   24.0540 C   0  0  0  0  0  0
  -25.9031  -34.9469   23.5128 C   0  0  0  0  0  0
  -16.5343  -29.9058   23.6306 C   0  0  0  0  0  0
  -16.7262  -28.6468   23.0337 C   0  0  0  0  0  0
  -26.4467  -31.6595   25.0706 C   0  0  0  0  0  0
  -25.3758  -31.3688   26.1477 C   0  0  0  0  0  0
  -27.0278  -30.3047   24.6040 C   0  0  0  0  0  0
  -27.6033  -32.4328   25.7478 C   0  0  0  0  0  0
  -27.5598  -37.1824   24.8462 C   0  0  0  0  0  0
  -21.4137  -29.2996   22.3734 N   0  0  0  0  0  0
  -26.4304  -37.3789   23.9410 N   0  0  0  0  0  0
  -24.6653  -31.0777   22.0989 N   0  0  0  0  0  0
  -23.4190  -28.8146   23.3011 O   0  0  0  0  0  0
  -28.3798  -26.6843   20.1216 O   0  0  0  0  0  0
  -26.5581  -34.8903   22.4687 O   0  0  0  0  0  0
  -23.5298  -32.1405   23.7488 O   0  0  0  0  0  0
  -29.5257  -17.2460   22.7406 C   0  0  0  0  0  0
  -30.6702  -17.5376   20.6193 C   0  0  0  0  0  0
  -29.4800  -18.6443   22.9280 C   0  0  0  0  0  0
  -30.1341  -16.6754   21.6058 C   0  0  0  0  0  0
  -30.0024  -19.5115   21.9323 C   0  0  0  0  0  0
  -30.5937  -18.9387   20.7744 C   0  0  0  0  0  0
  -28.9253  -23.0865   21.4235 C   0  0  0  0  0  0
  -29.0687  -24.3405   20.5587 C   0  0  0  0  0  0
  -29.2496  -17.9973   26.4316 C   0  0  0  0  0  0
  -31.2456  -18.8203   25.1689 C   0  0  0  0  0  0
  -29.6860  -20.4510   26.2342 C   0  0  0  0  0  0
  -28.8482  -19.1618   24.2218 C   0  0  0  0  0  0
  -29.7509  -21.8566   21.0242 C   0  0  0  0  0  0
  -28.2690  -25.5706   21.0255 C   0  0  0  0  0  0
  -29.7602  -19.1049   25.4889 C   0  0  0  0  0  0
  -28.1731  -22.9790   22.4417 N   0  0  0  0  0  0
  -30.1056  -15.2543   21.5113 N   0  0  0  0  0  0
  -29.9516  -20.9038   22.1308 N   0  0  0  0  0  0
  -29.7697  -24.3862   19.5391 O   0  0  0  0  0  0
  -31.1238  -19.7301   19.8082 F   0  0  0  0  0  0
  -31.4700  -12.4135   19.1005 H   0  0  0  0  0  0
  -30.3386  -11.2769   19.7746 H   0  0  0  0  0  0
  -29.7258  -11.8097   17.4051 H   0  0  0  0  0  0
  -29.6572  -13.5123   17.7810 H   0  0  0  0  0  0
  -27.8227  -11.3142   18.8010 H   0  0  0  0  0  0
  -27.3591  -12.6565   17.7902 H   0  0  0  0  0  0
  -27.7260  -14.2529   19.6082 H   0  0  0  0  0  0
  -28.6718  -11.8821   21.2927 H   0  0  0  0  0  0
  -28.4422  -13.4827   21.8994 H   0  0  0  0  0  0
  -25.2742   -9.5694   22.4754 H   0  0  0  0  0  0
  -23.9999   -7.4634   22.7467 H   0  0  0  0  0  0
  -21.0829   -8.8762   19.8950 H   0  0  0  0  0  0
  -22.3675  -10.9665   19.6168 H   0  0  0  0  0  0
  -21.2008   -7.6147   23.9717 H   0  0  0  0  0  0
  -21.1480   -6.0523   25.9083 H   0  0  0  0  0  0
  -22.0600   -2.7599   23.2857 H   0  0  0  0  0  0
  -22.4108  -11.9857   22.4754 H   0  0  0  0  0  0
  -21.1159  -13.1273   22.2664 H   0  0  0  0  0  0
  -24.6751  -15.8486   20.5155 H   0  0  0  0  0  0
  -26.3030  -15.6214   20.1184 H   0  0  0  0  0  0
  -26.7085  -32.5569   23.1152 H   0  0  0  0  0  0
  -25.0097  -33.9774   25.0516 H   0  0  0  0  0  0
  -22.6884  -31.3019   21.4096 H   0  0  0  0  0  0
  -23.3754  -35.9669   23.3297 H   0  0  0  0  0  0
  -24.3595  -36.8921   22.2051 H   0  0  0  0  0  0
  -23.7245  -37.6520   23.6651 H   0  0  0  0  0  0
  -26.0362  -31.6073   20.5945 H   0  0  0  0  0  0
  -26.8148  -30.8946   21.9815 H   0  0  0  0  0  0
  -28.1040  -29.1206   21.1670 H   0  0  0  0  0  0
  -26.0840  -25.9695   19.0318 H   0  0  0  0  0  0
  -23.9903  -27.2853   19.0370 H   0  0  0  0  0  0
  -23.7197  -30.5938   19.4012 H   0  0  0  0  0  0
  -22.7407  -29.2333   19.8688 H   0  0  0  0  0  0
  -25.1284  -36.1977   25.0827 H   0  0  0  0  0  0
  -20.9932  -28.3183   24.1429 H   0  0  0  0  0  0
  -20.5631  -26.2251   23.3580 H   0  0  0  0  0  0
  -21.6644  -26.7400   22.1223 H   0  0  0  0  0  0
  -19.6905  -25.6262   21.1200 H   0  0  0  0  0  0
  -19.6677  -27.3175   20.6721 H   0  0  0  0  0  0
  -17.4198  -26.6603   21.3997 H   0  0  0  0  0  0
  -18.0339  -26.0017   22.8981 H   0  0  0  0  0  0
  -19.7929  -30.7195   24.2281 H   0  0  0  0  0  0
  -17.5016  -31.6241   24.5141 H   0  0  0  0  0  0
  -15.5342  -30.2966   23.7633 H   0  0  0  0  0  0
  -15.8655  -28.0800   22.7057 H   0  0  0  0  0  0
  -24.5911  -30.7032   25.7856 H   0  0  0  0  0  0
  -24.8959  -32.2843   26.4962 H   0  0  0  0  0  0
  -25.8125  -30.8855   27.0224 H   0  0  0  0  0  0
  -26.2792  -29.6831   24.1113 H   0  0  0  0  0  0
  -27.4093  -29.7245   25.4442 H   0  0  0  0  0  0
  -27.8613  -30.4372   23.9141 H   0  0  0  0  0  0
  -27.2623  -33.3609   26.2077 H   0  0  0  0  0  0
  -28.3842  -32.6911   25.0323 H   0  0  0  0  0  0
  -28.0704  -31.8444   26.5385 H   0  0  0  0  0  0
  -28.2614  -38.0129   24.7535 H   0  0  0  0  0  0
  -28.1093  -36.2657   24.6267 H   0  0  0  0  0  0
  -27.2311  -37.1444   25.8862 H   0  0  0  0  0  0
  -20.9296  -29.8788   21.7029 H   0  0  0  0  0  0
  -26.0190  -38.2867   24.1412 H   0  0  0  0  0  0
  -29.0979  -16.6070   23.4989 H   0  0  0  0  0  0
  -31.1306  -17.1499   19.7227 H   0  0  0  0  0  0
  -29.8170  -17.9694   27.3621 H   0  0  0  0  0  0
  -29.3320  -17.0123   25.9702 H   0  0  0  0  0  0
  -28.2018  -18.1472   26.6957 H   0  0  0  0  0  0
  -31.8582  -18.8412   26.0705 H   0  0  0  0  0  0
  -31.6571  -19.5608   24.4823 H   0  0  0  0  0  0
  -31.3866  -17.8373   24.7196 H   0  0  0  0  0  0
  -30.2710  -20.4297   27.1556 H   0  0  0  0  0  0
  -28.6595  -20.7001   26.5063 H   0  0  0  0  0  0
  -30.0747  -21.2663   25.6223 H   0  0  0  0  0  0
  -27.9301  -18.5961   24.3862 H   0  0  0  0  0  0
  -28.4806  -20.1761   24.0654 H   0  0  0  0  0  0
  -30.7258  -22.1781   20.6550 H   0  0  0  0  0  0
  -29.2439  -21.3642   20.1944 H   0  0  0  0  0  0
  -27.2283  -25.2736   21.1644 H   0  0  0  0  0  0
  -28.6389  -25.8770   22.0037 H   0  0  0  0  0  0
  -28.2552  -22.0338   22.7973 H   0  0  0  0  0  0
  -29.3888  -14.8055   22.0614 H   0  0  0  0  0  0
  -29.8806  -21.2660   23.0740 H   0  0  0  0  0  0
  1 25  1  0  0  0
  1 30  2  0  0  0
  1 87  1  0  0  0
  2  3  1  0  0  0
  2 25  1  0  0  0
  2 91  1  0  0  0
  2 92  1  0  0  0
  3  4  1  0  0  0
  3 93  1  0  0  0
  3 94  1  0  0  0
  4  5  1  0  0  0
  4 95  1  0  0  0
  4 96  1  0  0  0
  5  6  1  0  0  0
  5 26  1  0  0  0
  5 97  1  0  0  0
  6 25  1  0  0  0
  6 98  1  0  0  0
  6 99  1  0  0  0
  7  8  2  0  0  0
  7 26  1  0  0  0
  7 29  1  0  0  0
  8  9  1  0  0  0
  8 22  1  0  0  0
  9 10  1  0  0  0
  9 27  2  0  0  0
 10 11  2  0  0  0
 10 15  1  0  0  0
 11 12  1  0  0  0
 11100  1  0  0  0
 12 13  2  0  0  0
 12101  1  0  0  0
 13 14  1  0  0  0
 13 31  1  0  0  0
 14 15  2  0  0  0
 14102  1  0  0  0
 15103  1  0  0  0
 16 17  2  0  0  0
 16 21  1  0  0  0
 16 31  1  0  0  0
 17 18  1  0  0  0
 17104  1  0  0  0
 18 19  2  0  0  0
 18105  1  0  0  0
 19 20  1  0  0  0
 19 24  1  0  0  0
 20 21  2  0  0  0
 20106  1  0  0  0
 21 23  1  0  0  0
 22 28  1  0  0  0
 22 32  2  0  0  0
 26 27  1  0  0  0
 28107  1  0  0  0
 28108  1  0  0  0
 29109  1  0  0  0
 29110  1  0  0  0
 33 34  1  0  0  0
 33 66  1  0  0  0
 33 70  2  0  0  0
 34 36  1  0  0  0
 34 59  1  0  0  0
 34111  1  0  0  0
 35 44  2  0  0  0
 35 45  1  0  0  0
 35 68  1  0  0  0
 36 56  1  0  0  0
 36112  1  0  0  0
 37 39  1  0  0  0
 37 47  1  0  0  0
 37 66  1  0  0  0
 37113  1  0  0  0
 38 43  2  0  0  0
 38 46  1  0  0  0
 38 47  1  0  0  0
 39 64  1  0  0  0
 39 67  2  0  0  0
 40 52  1  0  0  0
 40 53  2  0  0  0
 40 58  1  0  0  0
 41114  1  0  0  0
 41115  1  0  0  0
 41116  1  0  0  0
 41 48  1  0  0  0
 42 43  1  0  0  0
 42 66  1  0  0  0
 42117  1  0  0  0
 42118  1  0  0  0
 43 44  1  0  0  0
 44119  1  0  0  0
 45 46  2  0  0  0
 45120  1  0  0  0
 46121  1  0  0  0
 47122  1  0  0  0
 47123  1  0  0  0
 48 56  1  0  0  0
 48 65  1  0  0  0
 48124  1  0  0  0
 49 50  1  0  0  0
 49 53  1  0  0  0
 49 64  1  0  0  0
 49125  1  0  0  0
 50 51  1  0  0  0
 50126  1  0  0  0
 50127  1  0  0  0
 51 52  1  0  0  0
 51128  1  0  0  0
 51129  1  0  0  0
 52130  1  0  0  0
 52131  1  0  0  0
 53 54  1  0  0  0
 54 55  2  0  0  0
 54132  1  0  0  0
 55 57  1  0  0  0
 55133  1  0  0  0
 56 69  2  0  0  0
 57 58  2  0  0  0
 57134  1  0  0  0
 58135  1  0  0  0
 59 60  1  0  0  0
 59 61  1  0  0  0
 59 62  1  0  0  0
 60136  1  0  0  0
 60137  1  0  0  0
 60138  1  0  0  0
 61139  1  0  0  0
 61140  1  0  0  0
 61141  1  0  0  0
 62142  1  0  0  0
 62143  1  0  0  0
 62144  1  0  0  0
 63 65  1  0  0  0
 63145  1  0  0  0
 63146  1  0  0  0
 63147  1  0  0  0
 64148  1  0  0  0
 65149  1  0  0  0
 68 84  1  0  0  0
 71 73  2  0  0  0
 71 74  1  0  0  0
 71150  1  0  0  0
 72 74  2  0  0  0
 72 76  1  0  0  0
 72151  1  0  0  0
 73 75  1  0  0  0
 73 82  1  0  0  0
 74 87  1  0  0  0
 75 76  2  0  0  0
 75 88  1  0  0  0
 76 90  1  0  0  0
 77 78  1  0  0  0
 77 83  1  0  0  0
 77 86  2  0  0  0
 78 84  1  0  0  0
 78 89  2  0  0  0
 79152  1  0  0  0
 79153  1  0  0  0
 79154  1  0  0  0
 79 85  1  0  0  0
 80 85  1  0  0  0
 80155  1  0  0  0
 80156  1  0  0  0
 80157  1  0  0  0
 81 85  1  0  0  0
 81158  1  0  0  0
 81159  1  0  0  0
 81160  1  0  0  0
 82 85  1  0  0  0
 82161  1  0  0  0
 82162  1  0  0  0
 83 88  1  0  0  0
 83163  1  0  0  0
 83164  1  0  0  0
 84165  1  0  0  0
 84166  1  0  0  0
 86167  1  0  0  0
 87168  1  0  0  0
 88169  1  0  0  0
M  ISO  4   1 100  68 101  84 101  87 100
M  END
> <chiral flag>
0

> <version>
0

> <s_m_source_file>
/data/baiqing/PycharmProjects/Reinvent-master-3.2/result/LINK_invent/BTK/process_docking_weight1_custom_product_contain_oxygen_bond_distance_aromatic_linkinvent_7_9_3/rearranged_h_0164.sdf

> <i_m_source_file_index>
72

> <r_mmod_Potential_Energy-OPLS-2005>
57.7629890441895

> <r_mmod_Stretch_Energy-OPLS-2005>
41.1163215637207

> <r_mmod_Bend_Energy-OPLS-2005>
116.902870178223

> <r_mmod_Torsional_Energy-OPLS-2005>
233.472442626953

> <r_mmod_Improper_Torsional_Energy-OPLS-2005>
2.86401462554932

> <r_mmod_Van_der_Waal_Energy-OPLS-2005>
167.253204345703

> <r_mmod_Electrostatic_Energy-OPLS-2005>
-293.334320068359

> <r_mmod_Solvation_Energy-OPLS-2005>
-219.837524414062

> <b_mmod_Minimization_Converged-OPLS-2005>
0

> <r_mmod_RMS_Derivative-OPLS-2005>
2.60963082313538

$$$$
73
                    3D
 Structure written by MMmdl.
162170  0  0  1  0            999 V2000
  -30.7314  -14.4298   20.5654 C   0  0  0  0  0  0
  -30.4110  -12.2779   19.4224 C   0  0  0  0  0  0
  -29.4899  -12.4995   18.2061 C   0  0  0  0  0  0
  -28.0110  -12.3705   18.6193 C   0  0  0  0  0  0
  -27.6631  -13.2079   19.8796 C   0  0  2  0  0  0
  -28.7050  -12.9865   21.0005 C   0  0  0  0  0  0
  -25.2590  -13.8173   20.5690 C   0  0  0  0  0  0
  -24.1842  -13.0445   20.9175 C   0  0  0  0  0  0
  -24.6400  -11.6909   20.8743 C   0  0  0  0  0  0
  -23.9071  -10.4293   21.0413 C   0  0  0  0  0  0
  -24.3620   -9.4206   21.9193 C   0  0  0  0  0  0
  -23.6291   -8.2244   22.0763 C   0  0  0  0  0  0
  -22.4272   -8.0285   21.3549 C   0  0  0  0  0  0
  -21.9913   -9.0265   20.4653 C   0  0  0  0  0  0
  -22.7242  -10.2142   20.3061 C   0  0  0  0  0  0
  -21.6850   -6.0739   22.5279 C   0  0  0  0  0  0
  -21.4018   -6.5646   23.8214 C   0  0  0  0  0  0
  -21.3657   -5.6796   24.9176 C   0  0  0  0  0  0
  -21.6039   -4.3059   24.7227 C   0  0  0  0  0  0
  -21.8820   -3.8150   23.4347 C   0  0  0  0  0  0
  -21.9197   -4.6967   22.3402 C   0  0  0  0  0  0
  -22.7865  -13.5241   21.1843 C   0  0  0  0  0  0
  -22.1660   -4.2156   21.0978 F   0  0  0  0  0  0
  -21.5630   -3.4539   25.7740 F   0  0  0  0  0  0
  -30.0398  -13.2663   20.4464 N   0  0  0  0  0  0
  -26.3034  -12.9350   20.3403 N   0  0  0  0  0  0
  -25.9334  -11.6505   20.5798 N   0  0  0  0  0  0
  -22.0504  -12.8233   22.0395 N   0  0  0  0  0  0
  -25.4314  -15.1891   20.4086 N   0  0  0  0  0  0
  -31.8569  -14.5785   20.0828 O   0  0  0  0  0  0
  -21.6636   -6.8883   21.4240 O   0  0  0  0  0  0
  -22.3554  -14.5551   20.6695 O   0  0  0  0  0  0
  -24.6139  -31.8708   23.2116 C   0  0  0  0  0  0
  -25.9045  -32.4832   23.8398 C   0  0  1  0  0  0
  -27.2331  -27.4590   20.0920 C   0  0  0  0  0  0
  -25.5923  -33.8631   24.2348 N   0  0  0  0  0  0
  -23.4000  -30.4932   21.5532 C   0  0  2  0  0  0
  -24.8471  -28.9594   20.1181 C   0  0  0  0  0  0
  -22.7396  -29.4667   22.5010 C   0  0  0  0  0  0
  -18.0262  -28.1375   22.8497 C   0  0  0  0  0  0
  -24.1487  -36.7297   23.2639 C   0  0  0  0  0  0
  -25.9271  -30.8394   21.3651 C   0  0  0  0  0  0
  -26.0041  -29.4741   20.7172 C   0  0  0  0  0  0
  -27.2020  -28.7282   20.7077 C   0  0  0  0  0  0
  -26.0671  -26.9546   19.4826 C   0  0  0  0  0  0
  -24.8710  -27.6962   19.5011 C   0  0  0  0  0  0
  -23.6083  -29.8246   20.1677 C   0  0  0  0  0  0
  -25.4111  -36.3113   24.0348 C   0  0  1  0  0  0
  -20.5854  -28.3658   23.1323 C   0  0  2  0  0  0
  -20.6753  -26.9398   22.5417 C   0  0  0  0  0  0
  -19.5740  -26.6385   21.5205 C   0  0  0  0  0  0
  -18.1914  -26.7928   22.1612 C   0  0  0  0  0  0
  -19.1512  -28.8832   23.2908 C   0  0  0  0  0  0
  -18.9445  -30.1444   23.8915 C   0  0  0  0  0  0
  -17.6448  -30.6588   24.0567 C   0  0  0  0  0  0
  -25.9041  -34.9479   23.5138 C   0  0  0  0  0  0
  -16.5339  -29.9093   23.6326 C   0  0  0  0  0  0
  -16.7252  -28.6505   23.0352 C   0  0  0  0  0  0
  -26.4483  -31.6596   25.0708 C   0  0  0  0  0  0
  -25.3749  -31.3700   26.1448 C   0  0  0  0  0  0
  -27.0323  -30.3047   24.6064 C   0  0  0  0  0  0
  -27.6058  -32.4318   25.7474 C   0  0  0  0  0  0
  -27.5590  -37.1796   24.8467 C   0  0  0  0  0  0
  -21.4127  -29.3030   22.3737 N   0  0  0  0  0  0
  -26.4299  -37.3793   23.9420 N   0  0  0  0  0  0
  -24.6648  -31.0815   22.1019 N   0  0  0  0  0  0
  -23.4171  -28.8207   23.3046 O   0  0  0  0  0  0
  -28.3885  -26.7208   20.0591 O   0  0  0  0  0  0
  -26.5571  -34.8917   22.4680 O   0  0  0  0  0  0
  -23.5339  -32.1468   23.7511 O   0  0  0  0  0  0
  -31.3152  -17.4268   20.2917 C   0  0  0  0  0  0
  -31.4057  -18.8311   20.5241 C   0  0  0  0  0  0
  -30.3870  -16.7791   21.0822 C   0  0  0  0  0  0
  -30.5190  -19.2862   21.4732 C   0  0  0  0  0  0
  -32.3538  -19.6923   19.7646 C   0  0  0  0  0  0
  -29.1332  -22.6903   22.2932 C   0  0  0  0  0  0
  -28.0119  -24.4311   20.8865 C   0  0  0  0  0  0
  -33.8114  -19.2608   19.7036 C   0  0  0  0  0  0
  -27.8446  -23.4802   22.0728 C   0  0  0  0  0  0
  -29.0575  -21.1555   22.2357 C   0  0  0  0  0  0
  -28.5472  -25.8452   21.1823 C   0  0  0  0  0  0
  -32.0031  -20.7782   19.2045 N   0  0  0  0  0  0
  -30.0679  -15.4520   21.1401 N   0  0  0  0  0  0
  -30.3750  -20.5832   21.9780 N   0  0  0  0  0  0
  -34.4237  -19.7659   18.4655 N   0  3  0  0  0  0
  -30.2106  -23.2578   22.5157 O   0  0  0  0  0  0
  -27.7218  -24.0676   19.7405 O   0  0  0  0  0  0
  -29.5432  -17.9576   22.0706 S   0  0  0  0  0  0
  -31.4582  -12.3480   19.1236 H   0  0  0  0  0  0
  -30.2865  -11.2681   19.8164 H   0  0  0  0  0  0
  -29.7214  -11.7787   17.4202 H   0  0  0  0  0  0
  -29.6696  -13.4878   17.7798 H   0  0  0  0  0  0
  -27.8130  -11.3148   18.8091 H   0  0  0  0  0  0
  -27.3629  -12.6548   17.7899 H   0  0  0  0  0  0
  -27.7096  -14.2565   19.5857 H   0  0  0  0  0  0
  -28.6694  -11.9548   21.3535 H   0  0  0  0  0  0
  -28.4764  -13.5994   21.8733 H   0  0  0  0  0  0
  -25.2770   -9.5681   22.4772 H   0  0  0  0  0  0
  -24.0000   -7.4636   22.7486 H   0  0  0  0  0  0
  -21.0846   -8.8784   19.8960 H   0  0  0  0  0  0
  -22.3704  -10.9688   19.6174 H   0  0  0  0  0  0
  -21.2004   -7.6152   23.9720 H   0  0  0  0  0  0
  -21.1479   -6.0526   25.9080 H   0  0  0  0  0  0
  -22.0601   -2.7614   23.2845 H   0  0  0  0  0  0
  -22.4124  -11.9888   22.4768 H   0  0  0  0  0  0
  -21.1128  -13.1274   22.2618 H   0  0  0  0  0  0
  -24.6643  -15.8448   20.5122 H   0  0  0  0  0  0
  -26.2866  -15.6284   20.0919 H   0  0  0  0  0  0
  -26.7114  -32.5562   23.1164 H   0  0  0  0  0  0
  -25.0150  -33.9805   25.0543 H   0  0  0  0  0  0
  -22.6887  -31.3096   21.4135 H   0  0  0  0  0  0
  -23.3768  -35.9611   23.3305 H   0  0  0  0  0  0
  -24.3573  -36.8893   22.2047 H   0  0  0  0  0  0
  -23.7204  -37.6494   23.6638 H   0  0  0  0  0  0
  -26.0361  -31.6038   20.5940 H   0  0  0  0  0  0
  -26.8172  -30.8954   21.9801 H   0  0  0  0  0  0
  -28.0987  -29.1235   21.1638 H   0  0  0  0  0  0
  -26.0838  -25.9916   18.9915 H   0  0  0  0  0  0
  -23.9820  -27.2966   19.0328 H   0  0  0  0  0  0
  -23.7167  -30.5994   19.4079 H   0  0  0  0  0  0
  -22.7328  -29.2431   19.8725 H   0  0  0  0  0  0
  -25.1282  -36.1987   25.0842 H   0  0  0  0  0  0
  -20.9944  -28.3223   24.1441 H   0  0  0  0  0  0
  -20.5640  -26.2276   23.3607 H   0  0  0  0  0  0
  -21.6632  -26.7433   22.1223 H   0  0  0  0  0  0
  -19.6906  -25.6297   21.1228 H   0  0  0  0  0  0
  -19.6684  -27.3203   20.6743 H   0  0  0  0  0  0
  -17.4188  -26.6687   21.4005 H   0  0  0  0  0  0
  -18.0304  -26.0057   22.8994 H   0  0  0  0  0  0
  -19.7922  -30.7257   24.2296 H   0  0  0  0  0  0
  -17.5002  -31.6269   24.5171 H   0  0  0  0  0  0
  -15.5343  -30.3002   23.7650 H   0  0  0  0  0  0
  -15.8648  -28.0834   22.7067 H   0  0  0  0  0  0
  -24.5938  -30.7031   25.7776 H   0  0  0  0  0  0
  -24.8932  -32.2867   26.4872 H   0  0  0  0  0  0
  -25.8107  -30.8886   27.0213 H   0  0  0  0  0  0
  -26.2866  -29.6790   24.1149 H   0  0  0  0  0  0
  -27.4149  -29.7285   25.4500 H   0  0  0  0  0  0
  -27.8666  -30.4374   23.9169 H   0  0  0  0  0  0
  -27.2669  -33.3602   26.2084 H   0  0  0  0  0  0
  -28.3858  -32.6908   25.0300 H   0  0  0  0  0  0
  -28.0743  -31.8431   26.5368 H   0  0  0  0  0  0
  -28.2607  -38.0095   24.7546 H   0  0  0  0  0  0
  -28.1095  -36.2633   24.6279 H   0  0  0  0  0  0
  -27.2309  -37.1426   25.8868 H   0  0  0  0  0  0
  -20.9295  -29.8757   21.6959 H   0  0  0  0  0  0
  -26.0202  -38.2876   24.1434 H   0  0  0  0  0  0
  -31.9397  -16.9506   19.5501 H   0  0  0  0  0  0
  -33.9118  -18.1773   19.7563 H   0  0  0  0  0  0
  -34.3349  -19.6783   20.5645 H   0  0  0  0  0  0
  -27.6125  -24.0479   22.9728 H   0  0  0  0  0  0
  -27.0147  -22.7991   21.8888 H   0  0  0  0  0  0
  -28.3528  -20.8563   21.4582 H   0  0  0  0  0  0
  -28.6722  -20.7879   23.1878 H   0  0  0  0  0  0
  -29.6083  -25.7721   21.4181 H   0  0  0  0  0  0
  -28.0530  -26.2501   22.0670 H   0  0  0  0  0  0
  -31.0117  -20.9488   19.3371 H   0  0  0  0  0  0
  -29.1948  -15.2125   21.5852 H   0  0  0  0  0  0
  -31.0593  -21.3039   21.7510 H   0  0  0  0  0  0
  -34.0660  -19.2645   17.6738 H   0  0  0  0  0  0
  -35.4234  -19.6991   18.4914 H   0  0  0  0  0  0
  -34.1362  -20.7263   18.3766 H   0  0  0  0  0  0
  1 25  1  0  0  0
  1 30  2  0  0  0
  1 83  1  0  0  0
  2  3  1  0  0  0
  2 25  1  0  0  0
  2 89  1  0  0  0
  2 90  1  0  0  0
  3  4  1  0  0  0
  3 91  1  0  0  0
  3 92  1  0  0  0
  4  5  1  0  0  0
  4 93  1  0  0  0
  4 94  1  0  0  0
  5  6  1  0  0  0
  5 26  1  0  0  0
  5 95  1  0  0  0
  6 25  1  0  0  0
  6 96  1  0  0  0
  6 97  1  0  0  0
  7  8  2  0  0  0
  7 26  1  0  0  0
  7 29  1  0  0  0
  8  9  1  0  0  0
  8 22  1  0  0  0
  9 10  1  0  0  0
  9 27  2  0  0  0
 10 11  2  0  0  0
 10 15  1  0  0  0
 11 12  1  0  0  0
 11 98  1  0  0  0
 12 13  2  0  0  0
 12 99  1  0  0  0
 13 14  1  0  0  0
 13 31  1  0  0  0
 14 15  2  0  0  0
 14100  1  0  0  0
 15101  1  0  0  0
 16 17  2  0  0  0
 16 21  1  0  0  0
 16 31  1  0  0  0
 17 18  1  0  0  0
 17102  1  0  0  0
 18 19  2  0  0  0
 18103  1  0  0  0
 19 20  1  0  0  0
 19 24  1  0  0  0
 20 21  2  0  0  0
 20104  1  0  0  0
 21 23  1  0  0  0
 22 28  1  0  0  0
 22 32  2  0  0  0
 26 27  1  0  0  0
 28105  1  0  0  0
 28106  1  0  0  0
 29107  1  0  0  0
 29108  1  0  0  0
 33 34  1  0  0  0
 33 66  1  0  0  0
 33 70  2  0  0  0
 34 36  1  0  0  0
 34 59  1  0  0  0
 34109  1  0  0  0
 35 44  2  0  0  0
 35 45  1  0  0  0
 35 68  1  0  0  0
 36 56  1  0  0  0
 36110  1  0  0  0
 37 39  1  0  0  0
 37 47  1  0  0  0
 37 66  1  0  0  0
 37111  1  0  0  0
 38 43  2  0  0  0
 38 46  1  0  0  0
 38 47  1  0  0  0
 39 64  1  0  0  0
 39 67  2  0  0  0
 40 52  1  0  0  0
 40 53  2  0  0  0
 40 58  1  0  0  0
 41112  1  0  0  0
 41113  1  0  0  0
 41114  1  0  0  0
 41 48  1  0  0  0
 42 43  1  0  0  0
 42 66  1  0  0  0
 42115  1  0  0  0
 42116  1  0  0  0
 43 44  1  0  0  0
 44117  1  0  0  0
 45 46  2  0  0  0
 45118  1  0  0  0
 46119  1  0  0  0
 47120  1  0  0  0
 47121  1  0  0  0
 48 56  1  0  0  0
 48 65  1  0  0  0
 48122  1  0  0  0
 49 50  1  0  0  0
 49 53  1  0  0  0
 49 64  1  0  0  0
 49123  1  0  0  0
 50 51  1  0  0  0
 50124  1  0  0  0
 50125  1  0  0  0
 51 52  1  0  0  0
 51126  1  0  0  0
 51127  1  0  0  0
 52128  1  0  0  0
 52129  1  0  0  0
 53 54  1  0  0  0
 54 55  2  0  0  0
 54130  1  0  0  0
 55 57  1  0  0  0
 55131  1  0  0  0
 56 69  2  0  0  0
 57 58  2  0  0  0
 57132  1  0  0  0
 58133  1  0  0  0
 59 60  1  0  0  0
 59 61  1  0  0  0
 59 62  1  0  0  0
 60134  1  0  0  0
 60135  1  0  0  0
 60136  1  0  0  0
 61137  1  0  0  0
 61138  1  0  0  0
 61139  1  0  0  0
 62140  1  0  0  0
 62141  1  0  0  0
 62142  1  0  0  0
 63 65  1  0  0  0
 63143  1  0  0  0
 63144  1  0  0  0
 63145  1  0  0  0
 64146  1  0  0  0
 65147  1  0  0  0
 68 81  1  0  0  0
 71 72  1  0  0  0
 71 73  2  0  0  0
 71148  1  0  0  0
 72 74  2  0  0  0
 72 75  1  0  0  0
 73 83  1  0  0  0
 73 88  1  0  0  0
 74 84  1  0  0  0
 74 88  1  0  0  0
 75 78  1  0  0  0
 75 82  2  0  0  0
 76 79  1  0  0  0
 76 80  1  0  0  0
 76 86  2  0  0  0
 77 79  1  0  0  0
 77 81  1  0  0  0
 77 87  2  0  0  0
 78 85  1  0  0  0
 78149  1  0  0  0
 78150  1  0  0  0
 79151  1  0  0  0
 79152  1  0  0  0
 80 84  1  0  0  0
 80153  1  0  0  0
 80154  1  0  0  0
 81155  1  0  0  0
 81156  1  0  0  0
 82157  1  0  0  0
 83158  1  0  0  0
 84159  1  0  0  0
 85160  1  0  0  0
 85161  1  0  0  0
 85162  1  0  0  0
M  CHG  1  85   1
M  ISO  4   1 100  68 101  81 101  83 100
M  END
> <chiral flag>
0

> <version>
0

> <s_m_source_file>
/data/baiqing/PycharmProjects/Reinvent-master-3.2/result/LINK_invent/BTK/process_docking_weight1_custom_product_contain_oxygen_bond_distance_aromatic_linkinvent_7_9_3/rearranged_h_0164.sdf

> <i_m_source_file_index>
73

> <r_mmod_Potential_Energy-OPLS-2005>
-373.911804199219

> <r_mmod_Stretch_Energy-OPLS-2005>
33.9242286682129

> <r_mmod_Bend_Energy-OPLS-2005>
95.7156372070312

> <r_mmod_Torsional_Energy-OPLS-2005>
259.979156494141

> <r_mmod_Improper_Torsional_Energy-OPLS-2005>
5.24984645843506

> <r_mmod_Van_der_Waal_Energy-OPLS-2005>
141.740264892578

> <r_mmod_Electrostatic_Energy-OPLS-2005>
-406.460144042969

> <r_mmod_Solvation_Energy-OPLS-2005>
-514.43701171875

> <b_mmod_Minimization_Converged-OPLS-2005>
0

> <r_mmod_RMS_Derivative-OPLS-2005>
1.23080337047577

$$$$
74
                    3D
 Structure written by MMmdl.
166174  0  0  1  0            999 V2000
  -30.6899  -14.4624   20.5589 C   0  0  0  0  0  0
  -30.4222  -12.3020   19.4012 C   0  0  0  0  0  0
  -29.4874  -12.5126   18.1906 C   0  0  0  0  0  0
  -28.0035  -12.3920   18.5989 C   0  0  0  0  0  0
  -27.6601  -13.2062   19.8751 C   0  0  2  0  0  0
  -28.7050  -12.9697   20.9869 C   0  0  0  0  0  0
  -25.2612  -13.8147   20.5658 C   0  0  0  0  0  0
  -24.1853  -13.0431   20.9140 C   0  0  0  0  0  0
  -24.6386  -11.6892   20.8695 C   0  0  0  0  0  0
  -23.9022  -10.4291   21.0379 C   0  0  0  0  0  0
  -24.3578   -9.4212   21.9170 C   0  0  0  0  0  0
  -23.6265   -8.2248   22.0765 C   0  0  0  0  0  0
  -22.4260   -8.0265   21.3551 C   0  0  0  0  0  0
  -21.9887   -9.0222   20.4645 C   0  0  0  0  0  0
  -22.7197  -10.2116   20.3039 C   0  0  0  0  0  0
  -21.6853   -6.0696   22.5265 C   0  0  0  0  0  0
  -21.4005   -6.5609   23.8189 C   0  0  0  0  0  0
  -21.3683   -5.6789   24.9164 C   0  0  0  0  0  0
  -21.6058   -4.3047   24.7223 C   0  0  0  0  0  0
  -21.8826   -3.8116   23.4346 C   0  0  0  0  0  0
  -21.9192   -4.6927   22.3392 C   0  0  0  0  0  0
  -22.7881  -13.5237   21.1804 C   0  0  0  0  0  0
  -22.1682   -4.2095   21.0980 F   0  0  0  0  0  0
  -21.5644   -3.4548   25.7752 F   0  0  0  0  0  0
  -30.0323  -13.2795   20.4294 N   0  0  0  0  0  0
  -26.3031  -12.9294   20.3359 N   0  0  0  0  0  0
  -25.9321  -11.6445   20.5746 N   0  0  0  0  0  0
  -22.0549  -12.8212   22.0374 N   0  0  0  0  0  0
  -25.4373  -15.1844   20.4052 N   0  0  0  0  0  0
  -31.8284  -14.6486   20.1223 O   0  0  0  0  0  0
  -21.6660   -6.8833   21.4226 O   0  0  0  0  0  0
  -22.3549  -14.5535   20.6658 O   0  0  0  0  0  0
  -24.6174  -31.8698   23.2145 C   0  0  0  0  0  0
  -25.9075  -32.4815   23.8428 C   0  0  1  0  0  0
  -27.2079  -27.4286   20.0833 C   0  0  0  0  0  0
  -25.5931  -33.8619   24.2357 N   0  0  0  0  0  0
  -23.4021  -30.5028   21.5534 C   0  0  2  0  0  0
  -24.8419  -28.9805   20.1056 C   0  0  0  0  0  0
  -22.7407  -29.4701   22.4950 C   0  0  0  0  0  0
  -18.0282  -28.1381   22.8491 C   0  0  0  0  0  0
  -24.1484  -36.7313   23.2635 C   0  0  0  0  0  0
  -25.9359  -30.8322   21.3714 C   0  0  0  0  0  0
  -26.0074  -29.4728   20.7076 C   0  0  0  0  0  0
  -27.1966  -28.7050   20.6959 C   0  0  0  0  0  0
  -26.0322  -26.9792   19.4378 C   0  0  0  0  0  0
  -24.8505  -27.7330   19.4663 C   0  0  0  0  0  0
  -23.6075  -29.8501   20.1624 C   0  0  0  0  0  0
  -25.4100  -36.3106   24.0343 C   0  0  1  0  0  0
  -20.5871  -28.3695   23.1279 C   0  0  2  0  0  0
  -20.6766  -26.9427   22.5397 C   0  0  0  0  0  0
  -19.5738  -26.6389   21.5200 C   0  0  0  0  0  0
  -18.1919  -26.7924   22.1623 C   0  0  0  0  0  0
  -19.1531  -28.8845   23.2886 C   0  0  0  0  0  0
  -18.9462  -30.1447   23.8911 C   0  0  0  0  0  0
  -17.6465  -30.6580   24.0573 C   0  0  0  0  0  0
  -25.9034  -34.9472   23.5135 C   0  0  0  0  0  0
  -16.5352  -29.9092   23.6325 C   0  0  0  0  0  0
  -16.7273  -28.6505   23.0352 C   0  0  0  0  0  0
  -26.4495  -31.6586   25.0761 C   0  0  0  0  0  0
  -25.3762  -31.3695   26.1509 C   0  0  0  0  0  0
  -27.0341  -30.3024   24.6169 C   0  0  0  0  0  0
  -27.6066  -32.4313   25.7527 C   0  0  0  0  0  0
  -27.5583  -37.1802   24.8460 C   0  0  0  0  0  0
  -21.4136  -29.3074   22.3683 N   0  0  0  0  0  0
  -26.4284  -37.3796   23.9422 N   0  0  0  0  0  0
  -24.6699  -31.0826   22.1038 N   0  0  0  0  0  0
  -23.4178  -28.8215   23.2970 O   0  0  0  0  0  0
  -28.3205  -26.6110   20.1704 O   0  0  0  0  0  0
  -26.5587  -34.8921   22.4692 O   0  0  0  0  0  0
  -23.5375  -32.1457   23.7545 O   0  0  0  0  0  0
  -31.9875  -20.9400   20.6981 C   0  0  0  0  0  0
  -31.5288  -19.6194   20.5519 C   0  0  0  0  0  0
  -31.0925  -22.0214   20.6305 C   0  0  0  0  0  0
  -29.2578  -20.4543   20.3023 C   0  0  0  0  0  0
  -30.1518  -19.3496   20.3677 C   0  0  0  0  0  0
  -29.7174  -21.7927   20.4140 C   0  0  0  0  0  0
  -28.8284  -18.2298   17.7748 C   0  0  0  0  0  0
  -27.4766  -25.1682   21.9697 C   0  0  0  0  0  0
  -26.1796  -24.4008   22.2068 C   0  0  0  0  0  0
  -29.7046  -17.4302   18.7234 C   0  0  0  0  0  0
  -30.3718  -16.8877   21.1597 C   0  0  0  0  0  0
  -29.2130  -24.2707   20.3249 C   0  0  0  0  0  0
  -29.6467  -17.8958   20.2027 C   0  0  1  0  0  0
  -28.0130  -25.2341   20.5205 C   0  0  2  0  0  0
  -29.0898  -18.3825   16.5454 N   0  0  0  0  0  0
  -28.8014  -22.8528   20.2943 N   0  0  0  0  0  0
  -29.9488  -15.4782   21.0416 N   0  0  0  0  0  0
  -28.0592  -25.7197   22.9091 O   0  0  0  0  0  0
  -31.4649  -12.4082   19.0951 H   0  0  0  0  0  0
  -30.3342  -11.2859   19.7879 H   0  0  0  0  0  0
  -29.7225  -11.7967   17.4004 H   0  0  0  0  0  0
  -29.6678  -13.5002   17.7622 H   0  0  0  0  0  0
  -27.7744  -11.3368   18.7399 H   0  0  0  0  0  0
  -27.3644  -12.7235   17.7792 H   0  0  0  0  0  0
  -27.7057  -14.2570   19.5902 H   0  0  0  0  0  0
  -28.6824  -11.9294   21.3143 H   0  0  0  0  0  0
  -28.4782  -13.5549   21.8794 H   0  0  0  0  0  0
  -25.2726   -9.5704   22.4732 H   0  0  0  0  0  0
  -23.9990   -7.4645   22.7475 H   0  0  0  0  0  0
  -21.0838   -8.8688   19.8923 H   0  0  0  0  0  0
  -22.3634  -10.9627   19.6126 H   0  0  0  0  0  0
  -21.1999   -7.6126   23.9664 H   0  0  0  0  0  0
  -21.1519   -6.0531   25.9062 H   0  0  0  0  0  0
  -22.0589   -2.7567   23.2863 H   0  0  0  0  0  0
  -22.4206  -11.9870   22.4725 H   0  0  0  0  0  0
  -21.1155  -13.1176   22.2580 H   0  0  0  0  0  0
  -24.6765  -15.8474   20.5069 H   0  0  0  0  0  0
  -26.2909  -15.6189   20.0755 H   0  0  0  0  0  0
  -26.7152  -32.5513   23.1189 H   0  0  0  0  0  0
  -25.0107  -33.9782   25.0521 H   0  0  0  0  0  0
  -22.6922  -31.3225   21.4212 H   0  0  0  0  0  0
  -23.3745  -35.9647   23.3277 H   0  0  0  0  0  0
  -24.3581  -36.8952   22.2056 H   0  0  0  0  0  0
  -23.7235  -37.6511   23.6662 H   0  0  0  0  0  0
  -26.0599  -31.6058   20.6118 H   0  0  0  0  0  0
  -26.8192  -30.8712   21.9975 H   0  0  0  0  0  0
  -28.0874  -29.0704   21.1872 H   0  0  0  0  0  0
  -25.9989  -26.0447   18.8992 H   0  0  0  0  0  0
  -23.9603  -27.3556   18.9816 H   0  0  0  0  0  0
  -23.7202  -30.6325   19.4112 H   0  0  0  0  0  0
  -22.7269  -29.2790   19.8600 H   0  0  0  0  0  0
  -25.1264  -36.1966   25.0834 H   0  0  0  0  0  0
  -20.9989  -28.3278   24.1388 H   0  0  0  0  0  0
  -20.5650  -26.2321   23.3601 H   0  0  0  0  0  0
  -21.6641  -26.7437   22.1207 H   0  0  0  0  0  0
  -19.6899  -25.6298   21.1232 H   0  0  0  0  0  0
  -19.6661  -27.3195   20.6727 H   0  0  0  0  0  0
  -17.4184  -26.6680   21.4032 H   0  0  0  0  0  0
  -18.0325  -26.0055   22.9015 H   0  0  0  0  0  0
  -19.7937  -30.7260   24.2283 H   0  0  0  0  0  0
  -17.5022  -31.6261   24.5183 H   0  0  0  0  0  0
  -15.5356  -30.3009   23.7631 H   0  0  0  0  0  0
  -15.8672  -28.0832   22.7065 H   0  0  0  0  0  0
  -24.5929  -30.7048   25.7847 H   0  0  0  0  0  0
  -24.8971  -32.2859   26.4973 H   0  0  0  0  0  0
  -25.8126  -30.8852   27.0256 H   0  0  0  0  0  0
  -26.2916  -29.6763   24.1215 H   0  0  0  0  0  0
  -27.4080  -29.7278   25.4652 H   0  0  0  0  0  0
  -27.8757  -30.4321   23.9362 H   0  0  0  0  0  0
  -27.2672  -33.3591   26.2148 H   0  0  0  0  0  0
  -28.3860  -32.6911   25.0349 H   0  0  0  0  0  0
  -28.0756  -31.8416   26.5415 H   0  0  0  0  0  0
  -28.2568  -38.0133   24.7544 H   0  0  0  0  0  0
  -28.1107  -36.2658   24.6219 H   0  0  0  0  0  0
  -27.2303  -37.1379   25.8864 H   0  0  0  0  0  0
  -20.9275  -29.8857   21.6971 H   0  0  0  0  0  0
  -26.0159  -38.2867   24.1449 H   0  0  0  0  0  0
  -33.0412  -21.1294   20.8463 H   0  0  0  0  0  0
  -32.2581  -18.8238   20.5799 H   0  0  0  0  0  0
  -31.4949  -23.0181   20.7322 H   0  0  0  0  0  0
  -28.2039  -20.2701   20.1482 H   0  0  0  0  0  0
  -27.9330  -18.6669   18.2284 H   0  0  0  0  0  0
  -25.8301  -23.9290   21.2889 H   0  0  0  0  0  0
  -25.4033  -25.0826   22.5531 H   0  0  0  0  0  0
  -26.3220  -23.6245   22.9582 H   0  0  0  0  0  0
  -30.7343  -17.4501   18.3676 H   0  0  0  0  0  0
  -29.3779  -16.3940   18.6499 H   0  0  0  0  0  0
  -30.2099  -17.1900   22.1941 H   0  0  0  0  0  0
  -31.4478  -16.9315   21.0062 H   0  0  0  0  0  0
  -29.9304  -24.4449   21.1271 H   0  0  0  0  0  0
  -29.7227  -24.5102   19.3902 H   0  0  0  0  0  0
  -28.5960  -17.8971   20.5022 H   0  0  0  0  0  0
  -27.2393  -24.8522   19.8612 H   0  0  0  0  0  0
  -29.9539  -17.9172   16.2807 H   0  0  0  0  0  0
  -27.8578  -22.6434   19.9765 H   0  0  0  0  0  0
  -29.0105  -15.2500   21.3342 H   0  0  0  0  0  0
  1 25  1  0  0  0
  1 30  2  0  0  0
  1 87  1  0  0  0
  2  3  1  0  0  0
  2 25  1  0  0  0
  2 89  1  0  0  0
  2 90  1  0  0  0
  3  4  1  0  0  0
  3 91  1  0  0  0
  3 92  1  0  0  0
  4  5  1  0  0  0
  4 93  1  0  0  0
  4 94  1  0  0  0
  5  6  1  0  0  0
  5 26  1  0  0  0
  5 95  1  0  0  0
  6 25  1  0  0  0
  6 96  1  0  0  0
  6 97  1  0  0  0
  7  8  2  0  0  0
  7 26  1  0  0  0
  7 29  1  0  0  0
  8  9  1  0  0  0
  8 22  1  0  0  0
  9 10  1  0  0  0
  9 27  2  0  0  0
 10 11  2  0  0  0
 10 15  1  0  0  0
 11 12  1  0  0  0
 11 98  1  0  0  0
 12 13  2  0  0  0
 12 99  1  0  0  0
 13 14  1  0  0  0
 13 31  1  0  0  0
 14 15  2  0  0  0
 14100  1  0  0  0
 15101  1  0  0  0
 16 17  2  0  0  0
 16 21  1  0  0  0
 16 31  1  0  0  0
 17 18  1  0  0  0
 17102  1  0  0  0
 18 19  2  0  0  0
 18103  1  0  0  0
 19 20  1  0  0  0
 19 24  1  0  0  0
 20 21  2  0  0  0
 20104  1  0  0  0
 21 23  1  0  0  0
 22 28  1  0  0  0
 22 32  2  0  0  0
 26 27  1  0  0  0
 28105  1  0  0  0
 28106  1  0  0  0
 29107  1  0  0  0
 29108  1  0  0  0
 33 34  1  0  0  0
 33 66  1  0  0  0
 33 70  2  0  0  0
 34 36  1  0  0  0
 34 59  1  0  0  0
 34109  1  0  0  0
 35 44  2  0  0  0
 35 45  1  0  0  0
 35 68  1  0  0  0
 36 56  1  0  0  0
 36110  1  0  0  0
 37 39  1  0  0  0
 37 47  1  0  0  0
 37 66  1  0  0  0
 37111  1  0  0  0
 38 43  2  0  0  0
 38 46  1  0  0  0
 38 47  1  0  0  0
 39 64  1  0  0  0
 39 67  2  0  0  0
 40 52  1  0  0  0
 40 53  2  0  0  0
 40 58  1  0  0  0
 41112  1  0  0  0
 41113  1  0  0  0
 41114  1  0  0  0
 41 48  1  0  0  0
 42 43  1  0  0  0
 42 66  1  0  0  0
 42115  1  0  0  0
 42116  1  0  0  0
 43 44  1  0  0  0
 44117  1  0  0  0
 45 46  2  0  0  0
 45118  1  0  0  0
 46119  1  0  0  0
 47120  1  0  0  0
 47121  1  0  0  0
 48 56  1  0  0  0
 48 65  1  0  0  0
 48122  1  0  0  0
 49 50  1  0  0  0
 49 53  1  0  0  0
 49 64  1  0  0  0
 49123  1  0  0  0
 50 51  1  0  0  0
 50124  1  0  0  0
 50125  1  0  0  0
 51 52  1  0  0  0
 51126  1  0  0  0
 51127  1  0  0  0
 52128  1  0  0  0
 52129  1  0  0  0
 53 54  1  0  0  0
 54 55  2  0  0  0
 54130  1  0  0  0
 55 57  1  0  0  0
 55131  1  0  0  0
 56 69  2  0  0  0
 57 58  2  0  0  0
 57132  1  0  0  0
 58133  1  0  0  0
 59 60  1  0  0  0
 59 61  1  0  0  0
 59 62  1  0  0  0
 60134  1  0  0  0
 60135  1  0  0  0
 60136  1  0  0  0
 61137  1  0  0  0
 61138  1  0  0  0
 61139  1  0  0  0
 62140  1  0  0  0
 62141  1  0  0  0
 62142  1  0  0  0
 63 65  1  0  0  0
 63143  1  0  0  0
 63144  1  0  0  0
 63145  1  0  0  0
 64146  1  0  0  0
 65147  1  0  0  0
 68 84  1  0  0  0
 71 72  2  0  0  0
 71 73  1  0  0  0
 71148  1  0  0  0
 72 75  1  0  0  0
 72149  1  0  0  0
 73 76  2  0  0  0
 73150  1  0  0  0
 74 75  2  0  0  0
 74 76  1  0  0  0
 74151  1  0  0  0
 75 83  1  0  0  0
 76 86  1  0  0  0
 77 80  1  0  0  0
 77 85  2  0  0  0
 77152  1  0  0  0
 78 79  1  0  0  0
 78 84  1  0  0  0
 78 88  2  0  0  0
 79153  1  0  0  0
 79154  1  0  0  0
 79155  1  0  0  0
 80156  1  0  0  0
 80157  1  0  0  0
 80 83  1  0  0  0
 81 83  1  0  0  0
 81 87  1  0  0  0
 81158  1  0  0  0
 81159  1  0  0  0
 82 86  1  0  0  0
 82160  1  0  0  0
 82161  1  0  0  0
 82 84  1  0  0  0
 83162  1  0  0  0
 84163  1  0  0  0
 85164  1  0  0  0
 86165  1  0  0  0
 87166  1  0  0  0
M  ISO  4   1 100  68 101  84 101  87 100
M  END
> <chiral flag>
0

> <version>
0

> <s_m_source_file>
/data/baiqing/PycharmProjects/Reinvent-master-3.2/result/LINK_invent/BTK/process_docking_weight1_custom_product_contain_oxygen_bond_distance_aromatic_linkinvent_7_9_3/rearranged_h_0164.sdf

> <i_m_source_file_index>
74

> <r_mmod_Potential_Energy-OPLS-2005>
-55.3593139648438

> <r_mmod_Stretch_Energy-OPLS-2005>
43.7753067016602

> <r_mmod_Bend_Energy-OPLS-2005>
103.799781799316

> <r_mmod_Torsional_Energy-OPLS-2005>
202.042892456055

> <r_mmod_Improper_Torsional_Energy-OPLS-2005>
4.39258623123169

> <r_mmod_Van_der_Waal_Energy-OPLS-2005>
158.984497070312

> <r_mmod_Electrostatic_Energy-OPLS-2005>
-331.151123046875

> <r_mmod_Solvation_Energy-OPLS-2005>
-255.42561340332

> <b_mmod_Minimization_Converged-OPLS-2005>
0

> <r_mmod_RMS_Derivative-OPLS-2005>
3.43198180198669

$$$$
75
                    3D
 Structure written by MMmdl.
160168  0  0  1  0            999 V2000
  -30.6103  -14.5734   20.5726 C   0  0  0  0  0  0
  -30.4507  -12.3702   19.4279 C   0  0  0  0  0  0
  -29.5114  -12.5346   18.2116 C   0  0  0  0  0  0
  -28.0305  -12.3716   18.6172 C   0  0  0  0  0  0
  -27.6651  -13.2031   19.8757 C   0  0  2  0  0  0
  -28.7062  -12.9707   20.9936 C   0  0  0  0  0  0
  -25.2611  -13.8154   20.5660 C   0  0  0  0  0  0
  -24.1853  -13.0441   20.9166 C   0  0  0  0  0  0
  -24.6396  -11.6900   20.8718 C   0  0  0  0  0  0
  -23.9060  -10.4293   21.0388 C   0  0  0  0  0  0
  -24.3609   -9.4207   21.9168 C   0  0  0  0  0  0
  -23.6280   -8.2254   22.0756 C   0  0  0  0  0  0
  -22.4260   -8.0289   21.3554 C   0  0  0  0  0  0
  -21.9884   -9.0259   20.4658 C   0  0  0  0  0  0
  -22.7225  -10.2131   20.3043 C   0  0  0  0  0  0
  -21.6858   -6.0726   22.5272 C   0  0  0  0  0  0
  -21.4025   -6.5627   23.8210 C   0  0  0  0  0  0
  -21.3653   -5.6781   24.9175 C   0  0  0  0  0  0
  -21.6038   -4.3048   24.7226 C   0  0  0  0  0  0
  -21.8821   -3.8140   23.4353 C   0  0  0  0  0  0
  -21.9192   -4.6953   22.3404 C   0  0  0  0  0  0
  -22.7880  -13.5255   21.1827 C   0  0  0  0  0  0
  -22.1662   -4.2139   21.0983 F   0  0  0  0  0  0
  -21.5623   -3.4533   25.7745 F   0  0  0  0  0  0
  -30.0308  -13.3393   20.4557 N   0  0  0  0  0  0
  -26.3041  -12.9305   20.3337 N   0  0  0  0  0  0
  -25.9321  -11.6470   20.5731 N   0  0  0  0  0  0
  -22.0496  -12.8266   22.0386 N   0  0  0  0  0  0
  -25.4320  -15.1876   20.4026 N   0  0  0  0  0  0
  -31.7191  -14.8315   20.0911 O   0  0  0  0  0  0
  -21.6636   -6.8871   21.4241 O   0  0  0  0  0  0
  -22.3580  -14.5561   20.6670 O   0  0  0  0  0  0
  -24.6191  -31.8646   23.2050 C   0  0  0  0  0  0
  -25.9063  -32.4812   23.8368 C   0  0  1  0  0  0
  -27.2408  -27.3824   20.1137 C   0  0  0  0  0  0
  -25.5905  -33.8605   24.2316 N   0  0  0  0  0  0
  -23.4111  -30.4850   21.5472 C   0  0  2  0  0  0
  -24.8612  -28.9387   20.1217 C   0  0  0  0  0  0
  -22.7437  -29.4643   22.4982 C   0  0  0  0  0  0
  -18.0281  -28.1391   22.8498 C   0  0  0  0  0  0
  -24.1482  -36.7297   23.2634 C   0  0  0  0  0  0
  -25.9428  -30.8177   21.3612 C   0  0  0  0  0  0
  -26.0249  -29.4433   20.7167 C   0  0  0  0  0  0
  -27.2191  -28.6751   20.7046 C   0  0  0  0  0  0
  -26.0588  -26.9049   19.5119 C   0  0  0  0  0  0
  -24.8756  -27.6703   19.5150 C   0  0  0  0  0  0
  -23.6251  -29.8124   20.1653 C   0  0  0  0  0  0
  -25.4101  -36.3100   24.0340 C   0  0  1  0  0  0
  -20.5876  -28.3680   23.1327 C   0  0  2  0  0  0
  -20.6772  -26.9407   22.5443 C   0  0  0  0  0  0
  -19.5753  -26.6401   21.5229 C   0  0  0  0  0  0
  -18.1924  -26.7945   22.1625 C   0  0  0  0  0  0
  -19.1531  -28.8851   23.2912 C   0  0  0  0  0  0
  -18.9456  -30.1453   23.8922 C   0  0  0  0  0  0
  -17.6455  -30.6589   24.0578 C   0  0  0  0  0  0
  -25.9042  -34.9471   23.5131 C   0  0  0  0  0  0
  -16.5350  -29.9096   23.6317 C   0  0  0  0  0  0
  -16.7268  -28.6518   23.0335 C   0  0  0  0  0  0
  -26.4474  -31.6586   25.0698 C   0  0  0  0  0  0
  -25.3728  -31.3711   26.1442 C   0  0  0  0  0  0
  -27.0290  -30.3025   24.6069 C   0  0  0  0  0  0
  -27.6085  -32.4267   25.7443 C   0  0  0  0  0  0
  -27.5587  -37.1789   24.8451 C   0  0  0  0  0  0
  -21.4161  -29.3034   22.3717 N   0  0  0  0  0  0
  -26.4278  -37.3798   23.9429 N   0  0  0  0  0  0
  -24.6768  -31.0706   22.0969 N   0  0  0  0  0  0
  -23.4185  -28.8185   23.3045 O   0  0  0  0  0  0
  -28.3940  -26.6121   20.0604 O   0  0  0  0  0  0
  -26.5610  -34.8926   22.4693 O   0  0  0  0  0  0
  -23.5372  -32.1420   23.7418 O   0  0  0  0  0  0
  -28.8601  -18.9349   21.7944 C   0  0  0  0  0  0
  -30.3691  -17.8949   20.4921 C   0  0  0  0  0  0
  -28.7123  -17.5862   22.0262 C   0  0  0  0  0  0
  -29.6928  -16.9291   21.2078 C   0  0  0  0  0  0
  -29.4028  -22.9421   20.4432 C   0  0  0  0  0  0
  -27.7317  -17.0082   23.0057 C   0  0  0  0  0  0
  -29.3066  -21.6228   20.0841 C   0  0  0  0  0  0
  -26.4854  -17.7671   23.4725 C   0  0  0  0  0  0
  -28.4738  -24.0554   20.0243 C   0  0  0  0  0  0
  -25.8845  -18.8491   22.5906 C   0  0  0  0  0  0
  -30.3298  -20.4953   20.4154 C   0  0  0  0  0  0
  -28.4188  -25.3844   20.8488 C   0  0  0  0  0  0
  -25.8932  -17.5020   24.5639 N   0  0  0  0  0  0
  -29.8475  -19.1545   20.8484 N   0  0  0  0  0  0
  -29.8253  -15.4840   21.2090 N   0  0  0  0  0  0
  -27.9403  -15.8781   23.4642 O   0  0  0  0  0  0
  -27.7292  -23.9360   19.0449 O   0  0  0  0  0  0
  -28.3024  -21.1352   19.3378 O   0  0  0  0  0  0
  -31.4916  -12.5113   19.1301 H   0  0  0  0  0  0
  -30.3888  -11.3558   19.8233 H   0  0  0  0  0  0
  -29.7699  -11.8141   17.4346 H   0  0  0  0  0  0
  -29.6614  -13.5217   17.7704 H   0  0  0  0  0  0
  -27.8510  -11.3133   18.8088 H   0  0  0  0  0  0
  -27.3820  -12.6438   17.7836 H   0  0  0  0  0  0
  -27.7105  -14.2530   19.5852 H   0  0  0  0  0  0
  -28.7095  -11.9213   21.2896 H   0  0  0  0  0  0
  -28.4401  -13.5155   21.9002 H   0  0  0  0  0  0
  -25.2758   -9.5681   22.4737 H   0  0  0  0  0  0
  -23.9992   -7.4635   22.7468 H   0  0  0  0  0  0
  -21.0817   -8.8782   19.8960 H   0  0  0  0  0  0
  -22.3690  -10.9666   19.6152 H   0  0  0  0  0  0
  -21.2023   -7.6128   23.9712 H   0  0  0  0  0  0
  -21.1471   -6.0511   25.9076 H   0  0  0  0  0  0
  -22.0599   -2.7598   23.2861 H   0  0  0  0  0  0
  -22.4085  -11.9930   22.4791 H   0  0  0  0  0  0
  -21.1110  -13.1312   22.2558 H   0  0  0  0  0  0
  -24.6377  -15.8163   20.4325 H   0  0  0  0  0  0
  -26.2537  -15.6056   19.9851 H   0  0  0  0  0  0
  -26.7133  -32.5527   23.1129 H   0  0  0  0  0  0
  -25.0047  -33.9755   25.0459 H   0  0  0  0  0  0
  -22.7012  -31.3022   21.4033 H   0  0  0  0  0  0
  -23.3764  -35.9607   23.3268 H   0  0  0  0  0  0
  -24.3593  -36.8938   22.2056 H   0  0  0  0  0  0
  -23.7205  -37.6479   23.6669 H   0  0  0  0  0  0
  -26.0480  -31.5771   20.5850 H   0  0  0  0  0  0
  -26.8321  -30.8853   21.9762 H   0  0  0  0  0  0
  -28.1192  -29.0672   21.1581 H   0  0  0  0  0  0
  -26.0532  -25.9378   19.0298 H   0  0  0  0  0  0
  -23.9828  -27.2769   19.0491 H   0  0  0  0  0  0
  -23.7397  -30.5841   19.4029 H   0  0  0  0  0  0
  -22.7477  -29.2358   19.8672 H   0  0  0  0  0  0
  -25.1267  -36.1958   25.0832 H   0  0  0  0  0  0
  -20.9973  -28.3256   24.1447 H   0  0  0  0  0  0
  -20.5670  -26.2281   23.3634 H   0  0  0  0  0  0
  -21.6646  -26.7446   22.1244 H   0  0  0  0  0  0
  -19.6911  -25.6318   21.1241 H   0  0  0  0  0  0
  -19.6695  -27.3225   20.6769 H   0  0  0  0  0  0
  -17.4208  -26.6712   21.4010 H   0  0  0  0  0  0
  -18.0292  -26.0077   22.9001 H   0  0  0  0  0  0
  -19.7927  -30.7266   24.2309 H   0  0  0  0  0  0
  -17.5006  -31.6260   24.5192 H   0  0  0  0  0  0
  -15.5349  -30.3002   23.7632 H   0  0  0  0  0  0
  -15.8672  -28.0844   22.7032 H   0  0  0  0  0  0
  -24.5928  -30.7013   25.7792 H   0  0  0  0  0  0
  -24.8872  -32.2864   26.4836 H   0  0  0  0  0  0
  -25.8066  -30.8934   27.0233 H   0  0  0  0  0  0
  -26.2823  -29.6790   24.1133 H   0  0  0  0  0  0
  -27.4077  -29.7255   25.4516 H   0  0  0  0  0  0
  -27.8649  -30.4343   23.9195 H   0  0  0  0  0  0
  -27.2770  -33.3583   26.2034 H   0  0  0  0  0  0
  -28.3885  -32.6777   25.0243 H   0  0  0  0  0  0
  -28.0753  -31.8357   26.5331 H   0  0  0  0  0  0
  -28.2584  -38.0110   24.7558 H   0  0  0  0  0  0
  -28.1105  -36.2652   24.6186 H   0  0  0  0  0  0
  -27.2327  -37.1342   25.8858 H   0  0  0  0  0  0
  -20.9329  -29.8743   21.6921 H   0  0  0  0  0  0
  -26.0163  -38.2863   24.1480 H   0  0  0  0  0  0
  -28.3649  -19.7904   22.2331 H   0  0  0  0  0  0
  -31.1775  -17.8152   19.7759 H   0  0  0  0  0  0
  -30.2334  -23.2424   21.0655 H   0  0  0  0  0  0
  -26.1327  -18.6931   21.5408 H   0  0  0  0  0  0
  -26.2317  -19.8328   22.9043 H   0  0  0  0  0  0
  -24.7967  -18.8427   22.6710 H   0  0  0  0  0  0
  -31.0002  -20.8628   21.1934 H   0  0  0  0  0  0
  -30.9525  -20.3560   19.5309 H   0  0  0  0  0  0
  -29.2961  -25.4211   21.4943 H   0  0  0  0  0  0
  -27.5517  -25.3438   21.5082 H   0  0  0  0  0  0
  -26.3885  -16.7472   25.0308 H   0  0  0  0  0  0
  -29.0657  -15.0216   21.6884 H   0  0  0  0  0  0
  -27.7471  -21.8715   19.1017 H   0  0  0  0  0  0
  1 25  1  0  0  0
  1 30  2  0  0  0
  1 85  1  0  0  0
  2  3  1  0  0  0
  2 25  1  0  0  0
  2 89  1  0  0  0
  2 90  1  0  0  0
  3  4  1  0  0  0
  3 91  1  0  0  0
  3 92  1  0  0  0
  4  5  1  0  0  0
  4 93  1  0  0  0
  4 94  1  0  0  0
  5  6  1  0  0  0
  5 26  1  0  0  0
  5 95  1  0  0  0
  6 25  1  0  0  0
  6 96  1  0  0  0
  6 97  1  0  0  0
  7  8  2  0  0  0
  7 26  1  0  0  0
  7 29  1  0  0  0
  8  9  1  0  0  0
  8 22  1  0  0  0
  9 10  1  0  0  0
  9 27  2  0  0  0
 10 11  2  0  0  0
 10 15  1  0  0  0
 11 12  1  0  0  0
 11 98  1  0  0  0
 12 13  2  0  0  0
 12 99  1  0  0  0
 13 14  1  0  0  0
 13 31  1  0  0  0
 14 15  2  0  0  0
 14100  1  0  0  0
 15101  1  0  0  0
 16 17  2  0  0  0
 16 21  1  0  0  0
 16 31  1  0  0  0
 17 18  1  0  0  0
 17102  1  0  0  0
 18 19  2  0  0  0
 18103  1  0  0  0
 19 20  1  0  0  0
 19 24  1  0  0  0
 20 21  2  0  0  0
 20104  1  0  0  0
 21 23  1  0  0  0
 22 28  1  0  0  0
 22 32  2  0  0  0
 26 27  1  0  0  0
 28105  1  0  0  0
 28106  1  0  0  0
 29107  1  0  0  0
 29108  1  0  0  0
 33 34  1  0  0  0
 33 66  1  0  0  0
 33 70  2  0  0  0
 34 36  1  0  0  0
 34 59  1  0  0  0
 34109  1  0  0  0
 35 44  2  0  0  0
 35 45  1  0  0  0
 35 68  1  0  0  0
 36 56  1  0  0  0
 36110  1  0  0  0
 37 39  1  0  0  0
 37 47  1  0  0  0
 37 66  1  0  0  0
 37111  1  0  0  0
 38 43  2  0  0  0
 38 46  1  0  0  0
 38 47  1  0  0  0
 39 64  1  0  0  0
 39 67  2  0  0  0
 40 52  1  0  0  0
 40 53  2  0  0  0
 40 58  1  0  0  0
 41112  1  0  0  0
 41113  1  0  0  0
 41114  1  0  0  0
 41 48  1  0  0  0
 42 43  1  0  0  0
 42 66  1  0  0  0
 42115  1  0  0  0
 42116  1  0  0  0
 43 44  1  0  0  0
 44117  1  0  0  0
 45 46  2  0  0  0
 45118  1  0  0  0
 46119  1  0  0  0
 47120  1  0  0  0
 47121  1  0  0  0
 48 56  1  0  0  0
 48 65  1  0  0  0
 48122  1  0  0  0
 49 50  1  0  0  0
 49 53  1  0  0  0
 49 64  1  0  0  0
 49123  1  0  0  0
 50 51  1  0  0  0
 50124  1  0  0  0
 50125  1  0  0  0
 51 52  1  0  0  0
 51126  1  0  0  0
 51127  1  0  0  0
 52128  1  0  0  0
 52129  1  0  0  0
 53 54  1  0  0  0
 54 55  2  0  0  0
 54130  1  0  0  0
 55 57  1  0  0  0
 55131  1  0  0  0
 56 69  2  0  0  0
 57 58  2  0  0  0
 57132  1  0  0  0
 58133  1  0  0  0
 59 60  1  0  0  0
 59 61  1  0  0  0
 59 62  1  0  0  0
 60134  1  0  0  0
 60135  1  0  0  0
 60136  1  0  0  0
 61137  1  0  0  0
 61138  1  0  0  0
 61139  1  0  0  0
 62140  1  0  0  0
 62141  1  0  0  0
 62142  1  0  0  0
 63 65  1  0  0  0
 63143  1  0  0  0
 63144  1  0  0  0
 63145  1  0  0  0
 64146  1  0  0  0
 65147  1  0  0  0
 68 82  1  0  0  0
 71 73  2  0  0  0
 71 84  1  0  0  0
 71148  1  0  0  0
 72 74  2  0  0  0
 72 84  1  0  0  0
 72149  1  0  0  0
 73 74  1  0  0  0
 73 76  1  0  0  0
 74 85  1  0  0  0
 75 77  2  0  0  0
 75 79  1  0  0  0
 75150  1  0  0  0
 76 78  1  0  0  0
 76 86  2  0  0  0
 77 81  1  0  0  0
 77 88  1  0  0  0
 78 80  1  0  0  0
 78 83  2  0  0  0
 79 82  1  0  0  0
 79 87  2  0  0  0
 80151  1  0  0  0
 80152  1  0  0  0
 80153  1  0  0  0
 81 84  1  0  0  0
 81154  1  0  0  0
 81155  1  0  0  0
 82156  1  0  0  0
 82157  1  0  0  0
 83158  1  0  0  0
 85159  1  0  0  0
 88160  1  0  0  0
M  ISO  4   1 100  68 101  82 101  85 100
M  END
> <chiral flag>
0

> <version>
0

> <s_m_source_file>
/data/baiqing/PycharmProjects/Reinvent-master-3.2/result/LINK_invent/BTK/process_docking_weight1_custom_product_contain_oxygen_bond_distance_aromatic_linkinvent_7_9_3/rearranged_h_0164.sdf

> <i_m_source_file_index>
75

> <r_mmod_Potential_Energy-OPLS-2005>
133.513961791992

> <r_mmod_Stretch_Energy-OPLS-2005>
61.0798759460449

> <r_mmod_Bend_Energy-OPLS-2005>
149.298980712891

> <r_mmod_Torsional_Energy-OPLS-2005>
241.729064941406

> <r_mmod_Improper_Torsional_Energy-OPLS-2005>
4.5656681060791

> <r_mmod_Van_der_Waal_Energy-OPLS-2005>
119.020835876465

> <r_mmod_Electrostatic_Energy-OPLS-2005>
-224.743545532227

> <r_mmod_Solvation_Energy-OPLS-2005>
-243.65234375

> <b_mmod_Minimization_Converged-OPLS-2005>
0

> <r_mmod_RMS_Derivative-OPLS-2005>
1.81338858604431

$$$$
76
                    3D
 Structure written by MMmdl.
164172  0  0  1  0            999 V2000
  -30.6715  -14.4827   20.4974 C   0  0  0  0  0  0
  -30.4267  -12.2864   19.4385 C   0  0  0  0  0  0
  -29.5009  -12.4712   18.2162 C   0  0  0  0  0  0
  -28.0172  -12.3573   18.6270 C   0  0  0  0  0  0
  -27.6612  -13.1963   19.8839 C   0  0  2  0  0  0
  -28.7066  -12.9892   21.0028 C   0  0  0  0  0  0
  -25.2587  -13.8154   20.5664 C   0  0  0  0  0  0
  -24.1825  -13.0451   20.9168 C   0  0  0  0  0  0
  -24.6363  -11.6909   20.8741 C   0  0  0  0  0  0
  -23.9034  -10.4309   21.0414 C   0  0  0  0  0  0
  -24.3589   -9.4239   21.9193 C   0  0  0  0  0  0
  -23.6281   -8.2272   22.0757 C   0  0  0  0  0  0
  -22.4269   -8.0303   21.3532 C   0  0  0  0  0  0
  -21.9891   -9.0286   20.4651 C   0  0  0  0  0  0
  -22.7207  -10.2171   20.3068 C   0  0  0  0  0  0
  -21.6866   -6.0760   22.5262 C   0  0  0  0  0  0
  -21.4034   -6.5659   23.8200 C   0  0  0  0  0  0
  -21.3634   -5.6797   24.9147 C   0  0  0  0  0  0
  -21.6023   -4.3059   24.7189 C   0  0  0  0  0  0
  -21.8824   -3.8165   23.4306 C   0  0  0  0  0  0
  -21.9192   -4.6987   22.3373 C   0  0  0  0  0  0
  -22.7850  -13.5260   21.1789 C   0  0  0  0  0  0
  -22.1674   -4.2180   21.0955 F   0  0  0  0  0  0
  -21.5580   -3.4539   25.7694 F   0  0  0  0  0  0
  -30.0376  -13.2832   20.4446 N   0  0  0  0  0  0
  -26.3020  -12.9284   20.3425 N   0  0  0  0  0  0
  -25.9298  -11.6467   20.5839 N   0  0  0  0  0  0
  -22.0481  -12.8300   22.0361 N   0  0  0  0  0  0
  -25.4287  -15.1887   20.3994 N   0  0  0  0  0  0
  -31.8260  -14.6606   20.0965 O   0  0  0  0  0  0
  -21.6629   -6.8902   21.4230 O   0  0  0  0  0  0
  -22.3561  -14.5550   20.6606 O   0  0  0  0  0  0
  -24.6100  -31.8683   23.2114 C   0  0  0  0  0  0
  -25.9020  -32.4812   23.8397 C   0  0  1  0  0  0
  -27.2436  -27.4646   20.0953 C   0  0  0  0  0  0
  -25.5902  -33.8604   24.2330 N   0  0  0  0  0  0
  -23.3963  -30.4906   21.5494 C   0  0  2  0  0  0
  -24.8455  -28.9531   20.1198 C   0  0  0  0  0  0
  -22.7381  -29.4656   22.4997 C   0  0  0  0  0  0
  -18.0254  -28.1358   22.8478 C   0  0  0  0  0  0
  -24.1495  -36.7320   23.2640 C   0  0  0  0  0  0
  -25.9235  -30.8430   21.3604 C   0  0  0  0  0  0
  -26.0031  -29.4804   20.7080 C   0  0  0  0  0  0
  -27.2042  -28.7442   20.6877 C   0  0  0  0  0  0
  -26.0708  -26.9394   19.5100 C   0  0  0  0  0  0
  -24.8723  -27.6810   19.5209 C   0  0  0  0  0  0
  -23.6046  -29.8147   20.1669 C   0  0  0  0  0  0
  -25.4112  -36.3102   24.0336 C   0  0  1  0  0  0
  -20.5843  -28.3644   23.1319 C   0  0  2  0  0  0
  -20.6738  -26.9380   22.5432 C   0  0  0  0  0  0
  -19.5747  -26.6366   21.5203 C   0  0  0  0  0  0
  -18.1905  -26.7916   22.1575 C   0  0  0  0  0  0
  -19.1501  -28.8816   23.2890 C   0  0  0  0  0  0
  -18.9436  -30.1422   23.8895 C   0  0  0  0  0  0
  -17.6447  -30.6571   24.0553 C   0  0  0  0  0  0
  -25.9029  -34.9462   23.5123 C   0  0  0  0  0  0
  -16.5335  -29.9068   23.6327 C   0  0  0  0  0  0
  -16.7245  -28.6482   23.0344 C   0  0  0  0  0  0
  -26.4475  -31.6581   25.0712 C   0  0  0  0  0  0
  -25.3760  -31.3685   26.1482 C   0  0  0  0  0  0
  -27.0295  -30.3012   24.6081 C   0  0  0  0  0  0
  -27.6058  -32.4292   25.7472 C   0  0  0  0  0  0
  -27.5585  -37.1806   24.8441 C   0  0  0  0  0  0
  -21.4114  -29.3021   22.3735 N   0  0  0  0  0  0
  -26.4292  -37.3789   23.9394 N   0  0  0  0  0  0
  -24.6614  -31.0810   22.0986 N   0  0  0  0  0  0
  -23.4172  -28.8178   23.3008 O   0  0  0  0  0  0
  -28.4349  -26.7823   20.0835 O   0  0  0  0  0  0
  -26.5588  -34.8912   22.4675 O   0  0  0  0  0  0
  -23.5300  -32.1417   23.7546 O   0  0  0  0  0  0
  -29.3151  -18.8352   18.1674 C   0  0  0  0  0  0
  -29.2044  -16.4447   18.6075 C   0  0  0  0  0  0
  -29.9986  -17.9609   20.3496 C   0  0  0  0  0  0
  -28.9882  -17.5357   17.7396 C   0  0  0  0  0  0
  -29.8035  -19.0569   19.4694 C   0  0  0  0  0  0
  -29.7180  -16.6424   19.9134 C   0  0  0  0  0  0
  -28.4180  -17.3355   16.4075 C   0  0  0  0  0  0
  -30.2918  -22.5680   20.7434 C   0  0  0  0  0  0
  -29.8836  -21.0810   20.9212 C   0  0  0  0  0  0
  -29.6479  -24.9848   21.1554 C   0  0  0  0  0  0
  -26.7780  -18.1496   14.6564 C   0  0  0  0  0  0
  -29.7086  -23.5740   21.7476 C   0  0  0  0  0  0
  -28.3707  -25.3927   20.4080 C   0  0  0  0  0  0
  -30.1337  -20.3955   19.7963 N   0  0  0  0  0  0
  -29.8802  -15.5282   20.7929 N   0  0  0  0  0  0
  -27.4504  -18.1513   15.9671 N   0  0  0  0  0  0
  -28.8514  -16.3496   15.6270 N   0  3  0  0  0  0
  -31.0597  -22.9128   19.8334 O   0  0  0  0  0  0
  -29.3930  -20.6169   21.9560 O   0  0  0  0  0  0
  -30.5886  -25.7747   21.3061 O   0  0  0  0  0  0
  -31.4746  -12.3765   19.1471 H   0  0  0  0  0  0
  -30.3200  -11.2823   19.8524 H   0  0  0  0  0  0
  -29.7336  -11.7266   17.4539 H   0  0  0  0  0  0
  -29.6850  -13.4391   17.7533 H   0  0  0  0  0  0
  -27.8136  -11.3026   18.8199 H   0  0  0  0  0  0
  -27.3715  -12.6412   17.7960 H   0  0  0  0  0  0
  -27.6918  -14.2399   19.5875 H   0  0  0  0  0  0
  -28.6811  -11.9566   21.3541 H   0  0  0  0  0  0
  -28.4824  -13.6045   21.8764 H   0  0  0  0  0  0
  -25.2729   -9.5717   22.4765 H   0  0  0  0  0  0
  -23.9990   -7.4656   22.7467 H   0  0  0  0  0  0
  -21.0833   -8.8810   19.8962 H   0  0  0  0  0  0
  -22.3666  -10.9716   19.6186 H   0  0  0  0  0  0
  -21.2082   -7.6180   23.9705 H   0  0  0  0  0  0
  -21.1427   -6.0529   25.9048 H   0  0  0  0  0  0
  -22.0623   -2.7640   23.2772 H   0  0  0  0  0  0
  -22.4087  -12.0017   22.4832 H   0  0  0  0  0  0
  -21.1097  -13.1369   22.2481 H   0  0  0  0  0  0
  -24.6562  -15.8390   20.4919 H   0  0  0  0  0  0
  -26.2740  -15.6350   20.0693 H   0  0  0  0  0  0
  -26.7079  -32.5533   23.1150 H   0  0  0  0  0  0
  -25.0069  -33.9771   25.0484 H   0  0  0  0  0  0
  -22.6815  -31.3050   21.4077 H   0  0  0  0  0  0
  -23.3746  -35.9663   23.3291 H   0  0  0  0  0  0
  -24.3593  -36.8947   22.2056 H   0  0  0  0  0  0
  -23.7266  -37.6526   23.6662 H   0  0  0  0  0  0
  -26.0350  -31.6113   20.5952 H   0  0  0  0  0  0
  -26.8099  -30.8925   21.9808 H   0  0  0  0  0  0
  -28.1016  -29.1497   21.1332 H   0  0  0  0  0  0
  -26.0793  -25.9705   19.0320 H   0  0  0  0  0  0
  -23.9785  -27.2706   19.0698 H   0  0  0  0  0  0
  -23.7058  -30.5825   19.3994 H   0  0  0  0  0  0
  -22.7328  -29.2260   19.8788 H   0  0  0  0  0  0
  -25.1292  -36.1961   25.0830 H   0  0  0  0  0  0
  -20.9927  -28.3217   24.1442 H   0  0  0  0  0  0
  -20.5598  -26.2261   23.3614 H   0  0  0  0  0  0
  -21.6612  -26.7394   22.1260 H   0  0  0  0  0  0
  -19.6903  -25.6279   21.1221 H   0  0  0  0  0  0
  -19.6710  -27.3178   20.6736 H   0  0  0  0  0  0
  -17.4203  -26.6693   21.3940 H   0  0  0  0  0  0
  -18.0264  -26.0027   22.8934 H   0  0  0  0  0  0
  -19.7920  -30.7222   24.2257 H   0  0  0  0  0  0
  -17.5010  -31.6249   24.5147 H   0  0  0  0  0  0
  -15.5334  -30.2968   23.7653 H   0  0  0  0  0  0
  -15.8637  -28.0804   22.7060 H   0  0  0  0  0  0
  -24.5967  -30.6972   25.7855 H   0  0  0  0  0  0
  -24.8919  -32.2842   26.4888 H   0  0  0  0  0  0
  -25.8162  -30.8920   27.0255 H   0  0  0  0  0  0
  -26.2826  -29.6765   24.1168 H   0  0  0  0  0  0
  -27.4087  -29.7247   25.4532 H   0  0  0  0  0  0
  -27.8657  -30.4296   23.9201 H   0  0  0  0  0  0
  -27.2669  -33.3558   26.2110 H   0  0  0  0  0  0
  -28.3849  -32.6899   25.0300 H   0  0  0  0  0  0
  -28.0753  -31.8384   26.5346 H   0  0  0  0  0  0
  -28.2591  -38.0115   24.7491 H   0  0  0  0  0  0
  -28.1089  -36.2642   24.6242 H   0  0  0  0  0  0
  -27.2305  -37.1434   25.8845 H   0  0  0  0  0  0
  -20.9256  -29.8786   21.7002 H   0  0  0  0  0  0
  -26.0178  -38.2859   24.1408 H   0  0  0  0  0  0
  -29.1783  -19.6703   17.4920 H   0  0  0  0  0  0
  -28.9523  -15.4582   18.2582 H   0  0  0  0  0  0
  -30.3861  -18.1263   21.3447 H   0  0  0  0  0  0
  -26.0810  -18.9855   14.5897 H   0  0  0  0  0  0
  -26.2090  -17.2326   14.5078 H   0  0  0  0  0  0
  -27.4971  -18.2489   13.8420 H   0  0  0  0  0  0
  -30.3312  -23.5845   22.6418 H   0  0  0  0  0  0
  -28.7098  -23.2659   22.0536 H   0  0  0  0  0  0
  -27.5167  -25.1834   21.0528 H   0  0  0  0  0  0
  -28.2649  -24.8007   19.4992 H   0  0  0  0  0  0
  -30.4796  -20.9873   19.0492 H   0  0  0  0  0  0
  -29.0428  -15.2626   21.2875 H   0  0  0  0  0  0
  -27.0991  -18.8227   16.6420 H   0  0  0  0  0  0
  -29.6650  -15.8248   15.9037 H   0  0  0  0  0  0
  -28.4214  -16.1425   14.7424 H   0  0  0  0  0  0
  1 25  1  0  0  0
  1 30  2  0  0  0
  1 85  1  0  0  0
  2  3  1  0  0  0
  2 25  1  0  0  0
  2 91  1  0  0  0
  2 92  1  0  0  0
  3  4  1  0  0  0
  3 93  1  0  0  0
  3 94  1  0  0  0
  4  5  1  0  0  0
  4 95  1  0  0  0
  4 96  1  0  0  0
  5  6  1  0  0  0
  5 26  1  0  0  0
  5 97  1  0  0  0
  6 25  1  0  0  0
  6 98  1  0  0  0
  6 99  1  0  0  0
  7  8  2  0  0  0
  7 26  1  0  0  0
  7 29  1  0  0  0
  8  9  1  0  0  0
  8 22  1  0  0  0
  9 10  1  0  0  0
  9 27  2  0  0  0
 10 11  2  0  0  0
 10 15  1  0  0  0
 11 12  1  0  0  0
 11100  1  0  0  0
 12 13  2  0  0  0
 12101  1  0  0  0
 13 14  1  0  0  0
 13 31  1  0  0  0
 14 15  2  0  0  0
 14102  1  0  0  0
 15103  1  0  0  0
 16 17  2  0  0  0
 16 21  1  0  0  0
 16 31  1  0  0  0
 17 18  1  0  0  0
 17104  1  0  0  0
 18 19  2  0  0  0
 18105  1  0  0  0
 19 20  1  0  0  0
 19 24  1  0  0  0
 20 21  2  0  0  0
 20106  1  0  0  0
 21 23  1  0  0  0
 22 28  1  0  0  0
 22 32  2  0  0  0
 26 27  1  0  0  0
 28107  1  0  0  0
 28108  1  0  0  0
 29109  1  0  0  0
 29110  1  0  0  0
 33 34  1  0  0  0
 33 66  1  0  0  0
 33 70  2  0  0  0
 34 36  1  0  0  0
 34 59  1  0  0  0
 34111  1  0  0  0
 35 44  2  0  0  0
 35 45  1  0  0  0
 35 68  1  0  0  0
 36 56  1  0  0  0
 36112  1  0  0  0
 37 39  1  0  0  0
 37 47  1  0  0  0
 37 66  1  0  0  0
 37113  1  0  0  0
 38 43  2  0  0  0
 38 46  1  0  0  0
 38 47  1  0  0  0
 39 64  1  0  0  0
 39 67  2  0  0  0
 40 52  1  0  0  0
 40 53  2  0  0  0
 40 58  1  0  0  0
 41114  1  0  0  0
 41115  1  0  0  0
 41116  1  0  0  0
 41 48  1  0  0  0
 42 43  1  0  0  0
 42 66  1  0  0  0
 42117  1  0  0  0
 42118  1  0  0  0
 43 44  1  0  0  0
 44119  1  0  0  0
 45 46  2  0  0  0
 45120  1  0  0  0
 46121  1  0  0  0
 47122  1  0  0  0
 47123  1  0  0  0
 48 56  1  0  0  0
 48 65  1  0  0  0
 48124  1  0  0  0
 49 50  1  0  0  0
 49 53  1  0  0  0
 49 64  1  0  0  0
 49125  1  0  0  0
 50 51  1  0  0  0
 50126  1  0  0  0
 50127  1  0  0  0
 51 52  1  0  0  0
 51128  1  0  0  0
 51129  1  0  0  0
 52130  1  0  0  0
 52131  1  0  0  0
 53 54  1  0  0  0
 54 55  2  0  0  0
 54132  1  0  0  0
 55 57  1  0  0  0
 55133  1  0  0  0
 56 69  2  0  0  0
 57 58  2  0  0  0
 57134  1  0  0  0
 58135  1  0  0  0
 59 60  1  0  0  0
 59 61  1  0  0  0
 59 62  1  0  0  0
 60136  1  0  0  0
 60137  1  0  0  0
 60138  1  0  0  0
 61139  1  0  0  0
 61140  1  0  0  0
 61141  1  0  0  0
 62142  1  0  0  0
 62143  1  0  0  0
 62144  1  0  0  0
 63 65  1  0  0  0
 63145  1  0  0  0
 63146  1  0  0  0
 63147  1  0  0  0
 64148  1  0  0  0
 65149  1  0  0  0
 68 83  1  0  0  0
 71 74  2  0  0  0
 71 75  1  0  0  0
 71150  1  0  0  0
 72 74  1  0  0  0
 72 76  2  0  0  0
 72151  1  0  0  0
 73 75  2  0  0  0
 73 76  1  0  0  0
 73152  1  0  0  0
 74 77  1  0  0  0
 75 84  1  0  0  0
 76 85  1  0  0  0
 77 86  1  0  0  0
 77 87  2  0  0  0
 78 79  1  0  0  0
 78 82  1  0  0  0
 78 88  2  0  0  0
 79 84  1  0  0  0
 79 89  2  0  0  0
 80 82  1  0  0  0
 80 83  1  0  0  0
 80 90  2  0  0  0
 81 86  1  0  0  0
 81153  1  0  0  0
 81154  1  0  0  0
 81155  1  0  0  0
 82156  1  0  0  0
 82157  1  0  0  0
 83158  1  0  0  0
 83159  1  0  0  0
 84160  1  0  0  0
 85161  1  0  0  0
 86162  1  0  0  0
 87163  1  0  0  0
 87164  1  0  0  0
M  CHG  1  87   1
M  ISO  4   1 100  68 101  83 101  85 100
M  END
> <chiral flag>
0

> <version>
0

> <s_m_source_file>
/data/baiqing/PycharmProjects/Reinvent-master-3.2/result/LINK_invent/BTK/process_docking_weight1_custom_product_contain_oxygen_bond_distance_aromatic_linkinvent_7_9_3/rearranged_h_0164.sdf

> <i_m_source_file_index>
76

> <r_mmod_Potential_Energy-OPLS-2005>
-360.256652832031

> <r_mmod_Stretch_Energy-OPLS-2005>
35.5501747131348

> <r_mmod_Bend_Energy-OPLS-2005>
101.167747497559

> <r_mmod_Torsional_Energy-OPLS-2005>
292.102722167969

> <r_mmod_Improper_Torsional_Energy-OPLS-2005>
9.25255107879639

> <r_mmod_Van_der_Waal_Energy-OPLS-2005>
152.687530517578

> <r_mmod_Electrostatic_Energy-OPLS-2005>
-463.713623046875

> <r_mmod_Solvation_Energy-OPLS-2005>
-501.4658203125

> <b_mmod_Minimization_Converged-OPLS-2005>
0

> <r_mmod_RMS_Derivative-OPLS-2005>
3.55144047737122

$$$$
77
                    3D
 Structure written by MMmdl.
158166  0  0  1  0            999 V2000
  -30.7408  -14.3719   20.5935 C   0  0  0  0  0  0
  -30.4102  -12.2500   19.4065 C   0  0  0  0  0  0
  -29.4905  -12.4938   18.1953 C   0  0  0  0  0  0
  -28.0090  -12.3725   18.6088 C   0  0  0  0  0  0
  -27.6686  -13.1976   19.8795 C   0  0  2  0  0  0
  -28.7056  -12.9414   20.9966 C   0  0  0  0  0  0
  -25.2621  -13.8130   20.5663 C   0  0  0  0  0  0
  -24.1850  -13.0425   20.9148 C   0  0  0  0  0  0
  -24.6393  -11.6890   20.8724 C   0  0  0  0  0  0
  -23.9053  -10.4286   21.0412 C   0  0  0  0  0  0
  -24.3604   -9.4210   21.9200 C   0  0  0  0  0  0
  -23.6278   -8.2244   22.0771 C   0  0  0  0  0  0
  -22.4267   -8.0270   21.3544 C   0  0  0  0  0  0
  -21.9889   -9.0265   20.4657 C   0  0  0  0  0  0
  -22.7226  -10.2142   20.3070 C   0  0  0  0  0  0
  -21.6855   -6.0737   22.5264 C   0  0  0  0  0  0
  -21.4028   -6.5642   23.8208 C   0  0  0  0  0  0
  -21.3665   -5.6787   24.9165 C   0  0  0  0  0  0
  -21.6044   -4.3048   24.7215 C   0  0  0  0  0  0
  -21.8824   -3.8146   23.4339 C   0  0  0  0  0  0
  -21.9191   -4.6963   22.3396 C   0  0  0  0  0  0
  -22.7882  -13.5272   21.1790 C   0  0  0  0  0  0
  -22.1659   -4.2141   21.0972 F   0  0  0  0  0  0
  -21.5617   -3.4541   25.7742 F   0  0  0  0  0  0
  -30.0433  -13.2193   20.4455 N   0  0  0  0  0  0
  -26.3056  -12.9300   20.3380 N   0  0  0  0  0  0
  -25.9319  -11.6464   20.5762 N   0  0  0  0  0  0
  -22.0480  -12.8326   22.0351 N   0  0  0  0  0  0
  -25.4342  -15.1853   20.4037 N   0  0  0  0  0  0
  -31.8459  -14.5604   20.0753 O   0  0  0  0  0  0
  -21.6624   -6.8881   21.4230 O   0  0  0  0  0  0
  -22.3614  -14.5571   20.6603 O   0  0  0  0  0  0
  -24.6056  -31.8724   23.2099 C   0  0  0  0  0  0
  -25.8960  -32.4838   23.8410 C   0  0  1  0  0  0
  -27.2550  -27.5064   20.0848 C   0  0  0  0  0  0
  -25.5814  -33.8635   24.2321 N   0  0  0  0  0  0
  -23.3922  -30.4932   21.5512 C   0  0  2  0  0  0
  -24.8400  -28.9587   20.1224 C   0  0  0  0  0  0
  -22.7359  -29.4674   22.5020 C   0  0  0  0  0  0
  -18.0269  -28.1382   22.8522 C   0  0  0  0  0  0
  -24.1475  -36.7355   23.2653 C   0  0  0  0  0  0
  -25.9104  -30.8605   21.3481 C   0  0  0  0  0  0
  -25.9924  -29.4975   20.7031 C   0  0  0  0  0  0
  -27.1983  -28.7789   20.6794 C   0  0  0  0  0  0
  -26.0839  -26.9532   19.5139 C   0  0  0  0  0  0
  -24.8774  -27.6816   19.5300 C   0  0  0  0  0  0
  -23.5964  -29.8153   20.1687 C   0  0  0  0  0  0
  -25.4091  -36.3128   24.0352 C   0  0  1  0  0  0
  -20.5851  -28.3654   23.1357 C   0  0  2  0  0  0
  -20.6745  -26.9401   22.5442 C   0  0  0  0  0  0
  -19.5710  -26.6394   21.5247 C   0  0  0  0  0  0
  -18.1899  -26.7943   22.1656 C   0  0  0  0  0  0
  -19.1521  -28.8844   23.2940 C   0  0  0  0  0  0
  -18.9442  -30.1459   23.8930 C   0  0  0  0  0  0
  -17.6441  -30.6588   24.0608 C   0  0  0  0  0  0
  -25.9013  -34.9490   23.5145 C   0  0  0  0  0  0
  -16.5332  -29.9099   23.6337 C   0  0  0  0  0  0
  -16.7266  -28.6527   23.0346 C   0  0  0  0  0  0
  -26.4440  -31.6608   25.0705 C   0  0  0  0  0  0
  -25.3722  -31.3705   26.1468 C   0  0  0  0  0  0
  -27.0244  -30.3043   24.6014 C   0  0  0  0  0  0
  -27.6026  -32.4347   25.7430 C   0  0  0  0  0  0
  -27.5585  -37.1816   24.8466 C   0  0  0  0  0  0
  -21.4103  -29.3018   22.3743 N   0  0  0  0  0  0
  -26.4292  -37.3811   23.9415 N   0  0  0  0  0  0
  -24.6552  -31.0890   22.0943 N   0  0  0  0  0  0
  -23.4166  -28.8230   23.3052 O   0  0  0  0  0  0
  -28.4847  -26.8973   20.0783 O   0  0  0  0  0  0
  -26.5629  -34.8946   22.4734 O   0  0  0  0  0  0
  -23.5264  -32.1422   23.7520 O   0  0  0  0  0  0
  -29.6526  -18.9863   20.6953 C   0  0  0  0  0  0
  -29.3668  -17.6186   20.8584 C   0  0  0  0  0  0
  -31.7288  -17.1952   21.3157 C   0  0  0  0  0  0
  -30.9761  -19.4604   20.8297 C   0  0  0  0  0  0
  -30.4074  -16.7150   21.1482 C   0  0  0  0  0  0
  -32.0178  -18.5623   21.1449 C   0  0  0  0  0  0
  -31.2217  -20.8851   20.6439 C   0  0  0  0  0  0
  -29.0921  -23.6533   21.9205 C   0  0  0  0  0  0
  -28.3491  -24.9068   21.4983 C   0  0  0  0  0  0
  -30.3039  -23.2087   21.1003 C   0  0  0  0  0  0
  -28.5927  -25.4823   20.0861 C   0  0  0  0  0  0
  -28.7546  -22.9587   22.9366 N   0  0  0  0  0  0
  -30.0930  -15.3408   21.2477 N   0  0  0  0  0  0
  -30.4177  -21.7575   21.2527 N   0  0  0  0  0  0
  -32.1912  -21.3282   19.8414 N   0  3  0  0  0  0
  -27.5224  -25.4298   22.2585 O   0  0  0  0  0  0
  -33.2955  -18.9970   21.2881 F   0  0  0  0  0  0
  -31.4594  -12.3144   19.1095 H   0  0  0  0  0  0
  -30.2785  -11.2369   19.7859 H   0  0  0  0  0  0
  -29.7156  -11.7737   17.4068 H   0  0  0  0  0  0
  -29.6821  -13.4824   17.7725 H   0  0  0  0  0  0
  -27.7996  -11.3181   18.7900 H   0  0  0  0  0  0
  -27.3653  -12.6739   17.7820 H   0  0  0  0  0  0
  -27.7305  -14.2504   19.6014 H   0  0  0  0  0  0
  -28.6616  -11.9007   21.3224 H   0  0  0  0  0  0
  -28.4742  -13.5285   21.8855 H   0  0  0  0  0  0
  -25.2751   -9.5699   22.4780 H   0  0  0  0  0  0
  -23.9983   -7.4657   22.7512 H   0  0  0  0  0  0
  -21.0818   -8.8820   19.8982 H   0  0  0  0  0  0
  -22.3698  -10.9700   19.6185 H   0  0  0  0  0  0
  -21.2036   -7.6148   23.9724 H   0  0  0  0  0  0
  -21.1465   -6.0502   25.9071 H   0  0  0  0  0  0
  -22.0591   -2.7603   23.2837 H   0  0  0  0  0  0
  -22.4039  -12.0013   22.4834 H   0  0  0  0  0  0
  -21.1104  -13.1427   22.2471 H   0  0  0  0  0  0
  -24.6600  -15.8338   20.4976 H   0  0  0  0  0  0
  -26.2675  -15.6177   20.0268 H   0  0  0  0  0  0
  -26.7028  -32.5609   23.1195 H   0  0  0  0  0  0
  -24.9834  -33.9783   25.0379 H   0  0  0  0  0  0
  -22.6769  -31.3061   21.4112 H   0  0  0  0  0  0
  -23.3712  -35.9714   23.3323 H   0  0  0  0  0  0
  -24.3583  -36.8957   22.2069 H   0  0  0  0  0  0
  -23.7225  -37.6561   23.6666 H   0  0  0  0  0  0
  -26.0045  -31.6211   20.5740 H   0  0  0  0  0  0
  -26.8050  -30.9216   21.9561 H   0  0  0  0  0  0
  -28.0951  -29.2046   21.1091 H   0  0  0  0  0  0
  -26.0934  -25.9846   19.0368 H   0  0  0  0  0  0
  -23.9880  -27.2525   19.0906 H   0  0  0  0  0  0
  -23.6938  -30.5833   19.3999 H   0  0  0  0  0  0
  -22.7225  -29.2237   19.8868 H   0  0  0  0  0  0
  -25.1251  -36.2029   25.0844 H   0  0  0  0  0  0
  -20.9987  -28.3225   24.1459 H   0  0  0  0  0  0
  -20.5661  -26.2260   23.3611 H   0  0  0  0  0  0
  -21.6609  -26.7440   22.1226 H   0  0  0  0  0  0
  -19.6847  -25.6320   21.1231 H   0  0  0  0  0  0
  -19.6638  -27.3244   20.6809 H   0  0  0  0  0  0
  -17.4169  -26.6738   21.4051 H   0  0  0  0  0  0
  -18.0276  -26.0072   22.9030 H   0  0  0  0  0  0
  -19.7912  -30.7295   24.2266 H   0  0  0  0  0  0
  -17.4991  -31.6263   24.5213 H   0  0  0  0  0  0
  -15.5331  -30.3013   23.7617 H   0  0  0  0  0  0
  -15.8679  -28.0864   22.7002 H   0  0  0  0  0  0
  -24.5843  -30.7125   25.7783 H   0  0  0  0  0  0
  -24.8999  -32.2857   26.5036 H   0  0  0  0  0  0
  -25.8071  -30.8749   27.0141 H   0  0  0  0  0  0
  -26.2739  -29.6792   24.1127 H   0  0  0  0  0  0
  -27.4102  -29.7299   25.4446 H   0  0  0  0  0  0
  -27.8545  -30.4380   23.9066 H   0  0  0  0  0  0
  -27.2650  -33.3641   26.2041 H   0  0  0  0  0  0
  -28.3777  -32.6916   25.0198 H   0  0  0  0  0  0
  -28.0758  -31.8451   26.5287 H   0  0  0  0  0  0
  -28.2604  -38.0119   24.7531 H   0  0  0  0  0  0
  -28.1072  -36.2646   24.6257 H   0  0  0  0  0  0
  -27.2328  -37.1446   25.8879 H   0  0  0  0  0  0
  -20.9220  -29.8761   21.7011 H   0  0  0  0  0  0
  -26.0183  -38.2887   24.1395 H   0  0  0  0  0  0
  -28.8525  -19.6696   20.4408 H   0  0  0  0  0  0
  -28.3506  -17.2735   20.7224 H   0  0  0  0  0  0
  -32.5359  -16.5210   21.5565 H   0  0  0  0  0  0
  -31.2036  -23.7156   21.4576 H   0  0  0  0  0  0
  -30.1779  -23.4189   20.0402 H   0  0  0  0  0  0
  -27.9473  -25.0038   19.3516 H   0  0  0  0  0  0
  -29.6188  -25.3029   19.7750 H   0  0  0  0  0  0
  -27.9486  -23.3980   23.3754 H   0  0  0  0  0  0
  -29.1578  -15.1035   21.5403 H   0  0  0  0  0  0
  -29.7590  -21.4340   21.9586 H   0  0  0  0  0  0
  -32.7792  -20.6604   19.3619 H   0  0  0  0  0  0
  -32.4194  -22.3016   19.7594 H   0  0  0  0  0  0
  1 25  1  0  0  0
  1 30  2  0  0  0
  1 83  1  0  0  0
  2  3  1  0  0  0
  2 25  1  0  0  0
  2 88  1  0  0  0
  2 89  1  0  0  0
  3  4  1  0  0  0
  3 90  1  0  0  0
  3 91  1  0  0  0
  4  5  1  0  0  0
  4 92  1  0  0  0
  4 93  1  0  0  0
  5  6  1  0  0  0
  5 26  1  0  0  0
  5 94  1  0  0  0
  6 25  1  0  0  0
  6 95  1  0  0  0
  6 96  1  0  0  0
  7  8  2  0  0  0
  7 26  1  0  0  0
  7 29  1  0  0  0
  8  9  1  0  0  0
  8 22  1  0  0  0
  9 10  1  0  0  0
  9 27  2  0  0  0
 10 11  2  0  0  0
 10 15  1  0  0  0
 11 12  1  0  0  0
 11 97  1  0  0  0
 12 13  2  0  0  0
 12 98  1  0  0  0
 13 14  1  0  0  0
 13 31  1  0  0  0
 14 15  2  0  0  0
 14 99  1  0  0  0
 15100  1  0  0  0
 16 17  2  0  0  0
 16 21  1  0  0  0
 16 31  1  0  0  0
 17 18  1  0  0  0
 17101  1  0  0  0
 18 19  2  0  0  0
 18102  1  0  0  0
 19 20  1  0  0  0
 19 24  1  0  0  0
 20 21  2  0  0  0
 20103  1  0  0  0
 21 23  1  0  0  0
 22 28  1  0  0  0
 22 32  2  0  0  0
 26 27  1  0  0  0
 28104  1  0  0  0
 28105  1  0  0  0
 29106  1  0  0  0
 29107  1  0  0  0
 33 34  1  0  0  0
 33 66  1  0  0  0
 33 70  2  0  0  0
 34 36  1  0  0  0
 34 59  1  0  0  0
 34108  1  0  0  0
 35 44  2  0  0  0
 35 45  1  0  0  0
 35 68  1  0  0  0
 36 56  1  0  0  0
 36109  1  0  0  0
 37 39  1  0  0  0
 37 47  1  0  0  0
 37 66  1  0  0  0
 37110  1  0  0  0
 38 43  2  0  0  0
 38 46  1  0  0  0
 38 47  1  0  0  0
 39 64  1  0  0  0
 39 67  2  0  0  0
 40 52  1  0  0  0
 40 53  2  0  0  0
 40 58  1  0  0  0
 41111  1  0  0  0
 41112  1  0  0  0
 41113  1  0  0  0
 41 48  1  0  0  0
 42 43  1  0  0  0
 42 66  1  0  0  0
 42114  1  0  0  0
 42115  1  0  0  0
 43 44  1  0  0  0
 44116  1  0  0  0
 45 46  2  0  0  0
 45117  1  0  0  0
 46118  1  0  0  0
 47119  1  0  0  0
 47120  1  0  0  0
 48 56  1  0  0  0
 48 65  1  0  0  0
 48121  1  0  0  0
 49 50  1  0  0  0
 49 53  1  0  0  0
 49 64  1  0  0  0
 49122  1  0  0  0
 50 51  1  0  0  0
 50123  1  0  0  0
 50124  1  0  0  0
 51 52  1  0  0  0
 51125  1  0  0  0
 51126  1  0  0  0
 52127  1  0  0  0
 52128  1  0  0  0
 53 54  1  0  0  0
 54 55  2  0  0  0
 54129  1  0  0  0
 55 57  1  0  0  0
 55130  1  0  0  0
 56 69  2  0  0  0
 57 58  2  0  0  0
 57131  1  0  0  0
 58132  1  0  0  0
 59 60  1  0  0  0
 59 61  1  0  0  0
 59 62  1  0  0  0
 60133  1  0  0  0
 60134  1  0  0  0
 60135  1  0  0  0
 61136  1  0  0  0
 61137  1  0  0  0
 61138  1  0  0  0
 62139  1  0  0  0
 62140  1  0  0  0
 62141  1  0  0  0
 63 65  1  0  0  0
 63142  1  0  0  0
 63143  1  0  0  0
 63144  1  0  0  0
 64145  1  0  0  0
 65146  1  0  0  0
 68 81  1  0  0  0
 71 72  2  0  0  0
 71 74  1  0  0  0
 71147  1  0  0  0
 72 75  1  0  0  0
 72148  1  0  0  0
 73 75  2  0  0  0
 73 76  1  0  0  0
 73149  1  0  0  0
 74 76  2  0  0  0
 74 77  1  0  0  0
 75 83  1  0  0  0
 76 87  1  0  0  0
 77 84  1  0  0  0
 77 85  2  0  0  0
 78 79  1  0  0  0
 78 80  1  0  0  0
 78 82  2  0  0  0
 79 81  1  0  0  0
 79 86  2  0  0  0
 80 84  1  0  0  0
 80150  1  0  0  0
 80151  1  0  0  0
 81152  1  0  0  0
 81153  1  0  0  0
 82154  1  0  0  0
 83155  1  0  0  0
 84156  1  0  0  0
 85157  1  0  0  0
 85158  1  0  0  0
M  CHG  1  85   1
M  ISO  4   1 100  68 101  81 101  83 100
M  END
> <chiral flag>
0

> <version>
0

> <s_m_source_file>
/data/baiqing/PycharmProjects/Reinvent-master-3.2/result/LINK_invent/BTK/process_docking_weight1_custom_product_contain_oxygen_bond_distance_aromatic_linkinvent_7_9_3/rearranged_h_0164.sdf

> <i_m_source_file_index>
77

> <r_mmod_Potential_Energy-OPLS-2005>
-232.646438598633

> <r_mmod_Stretch_Energy-OPLS-2005>
32.5890960693359

> <r_mmod_Bend_Energy-OPLS-2005>
108.64900970459

> <r_mmod_Torsional_Energy-OPLS-2005>
223.143661499023

> <r_mmod_Improper_Torsional_Energy-OPLS-2005>
4.73242664337158

> <r_mmod_Van_der_Waal_Energy-OPLS-2005>
179.04460144043

> <r_mmod_Electrostatic_Energy-OPLS-2005>
-338.978790283203

> <r_mmod_Solvation_Energy-OPLS-2005>
-453.733978271484

> <b_mmod_Minimization_Converged-OPLS-2005>
0

> <r_mmod_RMS_Derivative-OPLS-2005>
4.0870213508606

$$$$
78
                    3D
 Structure written by MMmdl.
164172  0  0  1  0            999 V2000
  -30.7481  -14.4244   20.6429 C   0  0  0  0  0  0
  -30.4208  -12.3077   19.4050 C   0  0  0  0  0  0
  -29.4877  -12.5150   18.1963 C   0  0  0  0  0  0
  -28.0114  -12.3723   18.6134 C   0  0  0  0  0  0
  -27.6670  -13.2017   19.8794 C   0  0  2  0  0  0
  -28.7103  -12.9743   20.9963 C   0  0  0  0  0  0
  -25.2654  -13.8158   20.5767 C   0  0  0  0  0  0
  -24.1881  -13.0441   20.9203 C   0  0  0  0  0  0
  -24.6424  -11.6899   20.8742 C   0  0  0  0  0  0
  -23.9082  -10.4298   21.0396 C   0  0  0  0  0  0
  -24.3631   -9.4217   21.9183 C   0  0  0  0  0  0
  -23.6306   -8.2254   22.0742 C   0  0  0  0  0  0
  -22.4294   -8.0294   21.3530 C   0  0  0  0  0  0
  -21.9930   -9.0274   20.4640 C   0  0  0  0  0  0
  -22.7244  -10.2155   20.3049 C   0  0  0  0  0  0
  -21.6879   -6.0727   22.5258 C   0  0  0  0  0  0
  -21.4027   -6.5626   23.8195 C   0  0  0  0  0  0
  -21.3664   -5.6774   24.9160 C   0  0  0  0  0  0
  -21.6049   -4.3041   24.7213 C   0  0  0  0  0  0
  -21.8827   -3.8135   23.4336 C   0  0  0  0  0  0
  -21.9216   -4.6954   22.3392 C   0  0  0  0  0  0
  -22.7899  -13.5240   21.1868 C   0  0  0  0  0  0
  -22.1678   -4.2138   21.0974 F   0  0  0  0  0  0
  -21.5644   -3.4525   25.7731 F   0  0  0  0  0  0
  -30.0428  -13.2769   20.4458 N   0  0  0  0  0  0
  -26.3072  -12.9304   20.3410 N   0  0  0  0  0  0
  -25.9339  -11.6471   20.5750 N   0  0  0  0  0  0
  -22.0524  -12.8225   22.0398 N   0  0  0  0  0  0
  -25.4441  -15.1891   20.4328 N   0  0  0  0  0  0
  -31.8170  -14.6605   20.0727 O   0  0  0  0  0  0
  -21.6662   -6.8876   21.4223 O   0  0  0  0  0  0
  -22.3598  -14.5568   20.6732 O   0  0  0  0  0  0
  -24.6166  -31.8670   23.2085 C   0  0  0  0  0  0
  -25.9062  -32.4811   23.8379 C   0  0  1  0  0  0
  -27.2307  -27.4274   20.1048 C   0  0  0  0  0  0
  -25.5912  -33.8609   24.2296 N   0  0  0  0  0  0
  -23.4039  -30.4905   21.5494 C   0  0  2  0  0  0
  -24.8493  -28.9529   20.1181 C   0  0  0  0  0  0
  -22.7418  -29.4653   22.4980 C   0  0  0  0  0  0
  -18.0276  -28.1369   22.8494 C   0  0  0  0  0  0
  -24.1491  -36.7314   23.2628 C   0  0  0  0  0  0
  -25.9343  -30.8301   21.3642 C   0  0  0  0  0  0
  -26.0109  -29.4647   20.7100 C   0  0  0  0  0  0
  -27.2073  -28.7112   20.6966 C   0  0  0  0  0  0
  -26.0535  -26.9315   19.5016 C   0  0  0  0  0  0
  -24.8650  -27.6855   19.5112 C   0  0  0  0  0  0
  -23.6130  -29.8213   20.1647 C   0  0  0  0  0  0
  -25.4113  -36.3097   24.0317 C   0  0  1  0  0  0
  -20.5868  -28.3658   23.1306 C   0  0  2  0  0  0
  -20.6763  -26.9390   22.5412 C   0  0  0  0  0  0
  -19.5745  -26.6378   21.5204 C   0  0  0  0  0  0
  -18.1924  -26.7914   22.1623 C   0  0  0  0  0  0
  -19.1526  -28.8829   23.2897 C   0  0  0  0  0  0
  -18.9457  -30.1436   23.8904 C   0  0  0  0  0  0
  -17.6460  -30.6578   24.0559 C   0  0  0  0  0  0
  -25.9045  -34.9468   23.5099 C   0  0  0  0  0  0
  -16.5349  -29.9081   23.6328 C   0  0  0  0  0  0
  -16.7263  -28.6496   23.0350 C   0  0  0  0  0  0
  -26.4482  -31.6609   25.0725 C   0  0  0  0  0  0
  -25.3740  -31.3757   26.1472 C   0  0  0  0  0  0
  -27.0297  -30.3035   24.6134 C   0  0  0  0  0  0
  -27.6047  -32.4338   25.7495 C   0  0  0  0  0  0
  -27.5586  -37.1798   24.8452 C   0  0  0  0  0  0
  -21.4146  -29.3024   22.3721 N   0  0  0  0  0  0
  -26.4291  -37.3791   23.9403 N   0  0  0  0  0  0
  -24.6692  -31.0768   22.0983 N   0  0  0  0  0  0
  -23.4190  -28.8197   23.3024 O   0  0  0  0  0  0
  -28.3893  -26.6817   20.1038 O   0  0  0  0  0  0
  -26.5615  -34.8925   22.4668 O   0  0  0  0  0  0
  -23.5358  -32.1425   23.7483 O   0  0  0  0  0  0
  -31.4975  -16.3111   23.2549 C   0  0  0  0  0  0
  -30.7873  -17.7234   21.3974 C   0  0  0  0  0  0
  -32.1709  -17.3972   23.8581 C   0  0  0  0  0  0
  -30.8318  -16.4551   22.0232 C   0  0  0  0  0  0
  -31.4343  -18.8344   21.9915 C   0  0  0  0  0  0
  -32.1465  -18.6671   23.2100 C   0  0  0  0  0  0
  -32.9051  -17.1654   25.1309 C   0  0  0  0  0  0
  -30.0562  -22.1504   20.9680 C   0  0  0  0  0  0
  -29.2065  -24.3557   19.9439 C   0  0  0  0  0  0
  -32.0520  -20.5257   24.7248 C   0  0  0  0  0  0
  -28.9479  -22.8530   20.1678 C   0  0  0  0  0  0
  -30.1744  -20.6202   20.8197 C   0  0  0  0  0  0
  -28.2588  -25.3487   20.6405 C   0  0  0  0  0  0
  -32.9662  -16.0656   25.7604 N   0  0  0  0  0  0
  -30.1782  -15.3232   21.4650 N   0  0  0  0  0  0
  -32.8242  -19.7853   23.7339 N   0  0  0  0  0  0
  -31.4153  -20.1185   21.4127 N   0  0  0  0  0  0
  -30.8027  -22.7533   21.7509 O   0  0  0  0  0  0
  -30.1051  -24.7465   19.1893 O   0  0  0  0  0  0
  -31.4636  -12.4053   19.0981 H   0  0  0  0  0  0
  -30.3225  -11.2927   19.7935 H   0  0  0  0  0  0
  -29.7264  -11.7934   17.4129 H   0  0  0  0  0  0
  -29.6537  -13.5015   17.7607 H   0  0  0  0  0  0
  -27.8167  -11.3149   18.7966 H   0  0  0  0  0  0
  -27.3586  -12.6595   17.7884 H   0  0  0  0  0  0
  -27.7165  -14.2513   19.5923 H   0  0  0  0  0  0
  -28.6896  -11.9391   21.3393 H   0  0  0  0  0  0
  -28.4596  -13.5706   21.8736 H   0  0  0  0  0  0
  -25.2765   -9.5721   22.4769 H   0  0  0  0  0  0
  -24.0025   -7.4645   22.7458 H   0  0  0  0  0  0
  -21.0855   -8.8796   19.8940 H   0  0  0  0  0  0
  -22.3683  -10.9713   19.6185 H   0  0  0  0  0  0
  -21.1993   -7.6131   23.9689 H   0  0  0  0  0  0
  -21.1493   -6.0509   25.9065 H   0  0  0  0  0  0
  -22.0612   -2.7597   23.2834 H   0  0  0  0  0  0
  -22.4108  -11.9871   22.4774 H   0  0  0  0  0  0
  -21.1140  -13.1260   22.2610 H   0  0  0  0  0  0
  -24.6980  -15.8549   20.6038 H   0  0  0  0  0  0
  -26.3219  -15.6337   20.1909 H   0  0  0  0  0  0
  -26.7138  -32.5510   23.1144 H   0  0  0  0  0  0
  -25.0050  -33.9776   25.0430 H   0  0  0  0  0  0
  -22.6935  -31.3075   21.4086 H   0  0  0  0  0  0
  -23.3743  -35.9659   23.3294 H   0  0  0  0  0  0
  -24.3577  -36.8937   22.2042 H   0  0  0  0  0  0
  -23.7265  -37.6523   23.6654 H   0  0  0  0  0  0
  -26.0546  -31.5971   20.5979 H   0  0  0  0  0  0
  -26.8200  -30.8773   21.9866 H   0  0  0  0  0  0
  -28.1066  -29.1009   21.1541 H   0  0  0  0  0  0
  -26.0488  -25.9645   19.0182 H   0  0  0  0  0  0
  -23.9713  -27.2842   19.0535 H   0  0  0  0  0  0
  -23.7260  -30.5948   19.4037 H   0  0  0  0  0  0
  -22.7371  -29.2420   19.8674 H   0  0  0  0  0  0
  -25.1294  -36.1941   25.0809 H   0  0  0  0  0  0
  -20.9965  -28.3217   24.1422 H   0  0  0  0  0  0
  -20.5652  -26.2264   23.3600 H   0  0  0  0  0  0
  -21.6635  -26.7423   22.1208 H   0  0  0  0  0  0
  -19.6904  -25.6293   21.1222 H   0  0  0  0  0  0
  -19.6683  -27.3196   20.6740 H   0  0  0  0  0  0
  -17.4195  -26.6661   21.4024 H   0  0  0  0  0  0
  -18.0333  -26.0045   22.9013 H   0  0  0  0  0  0
  -19.7932  -30.7248   24.2273 H   0  0  0  0  0  0
  -17.5016  -31.6255   24.5162 H   0  0  0  0  0  0
  -15.5352  -30.2987   23.7637 H   0  0  0  0  0  0
  -15.8664  -28.0812   22.7065 H   0  0  0  0  0  0
  -24.5872  -30.7153   25.7815 H   0  0  0  0  0  0
  -24.8988  -32.2940   26.4930 H   0  0  0  0  0  0
  -25.8073  -30.8906   27.0224 H   0  0  0  0  0  0
  -26.2847  -29.6819   24.1152 H   0  0  0  0  0  0
  -27.3998  -29.7262   25.4616 H   0  0  0  0  0  0
  -27.8719  -30.4321   23.9330 H   0  0  0  0  0  0
  -27.2636  -33.3600   26.2132 H   0  0  0  0  0  0
  -28.3831  -32.6968   25.0319 H   0  0  0  0  0  0
  -28.0752  -31.8438   26.5371 H   0  0  0  0  0  0
  -28.2584  -38.0116   24.7527 H   0  0  0  0  0  0
  -28.1102  -36.2646   24.6235 H   0  0  0  0  0  0
  -27.2307  -37.1399   25.8856 H   0  0  0  0  0  0
  -20.9311  -29.8749   21.6938 H   0  0  0  0  0  0
  -26.0169  -38.2856   24.1441 H   0  0  0  0  0  0
  -31.5176  -15.3423   23.7348 H   0  0  0  0  0  0
  -30.2712  -17.8375   20.4557 H   0  0  0  0  0  0
  -33.4363  -18.0269   25.5427 H   0  0  0  0  0  0
  -31.3638  -21.2179   24.2346 H   0  0  0  0  0  0
  -32.7212  -21.1101   25.3582 H   0  0  0  0  0  0
  -31.4674  -19.8694   25.3719 H   0  0  0  0  0  0
  -28.0029  -22.7165   20.6907 H   0  0  0  0  0  0
  -28.8488  -22.3654   19.1993 H   0  0  0  0  0  0
  -30.1377  -20.3549   19.7620 H   0  0  0  0  0  0
  -29.3082  -20.1647   21.3044 H   0  0  0  0  0  0
  -28.5043  -25.3740   21.7020 H   0  0  0  0  0  0
  -27.2426  -24.9637   20.5651 H   0  0  0  0  0  0
  -33.5338  -16.1552   26.5974 H   0  0  0  0  0  0
  -29.3039  -15.0439   21.8837 H   0  0  0  0  0  0
  -33.2047  -20.3779   23.0017 H   0  0  0  0  0  0
  -31.7855  -20.8235   22.0458 H   0  0  0  0  0  0
  1 25  1  0  0  0
  1 30  2  0  0  0
  1 85  1  0  0  0
  2  3  1  0  0  0
  2 25  1  0  0  0
  2 90  1  0  0  0
  2 91  1  0  0  0
  3  4  1  0  0  0
  3 92  1  0  0  0
  3 93  1  0  0  0
  4  5  1  0  0  0
  4 94  1  0  0  0
  4 95  1  0  0  0
  5  6  1  0  0  0
  5 26  1  0  0  0
  5 96  1  0  0  0
  6 25  1  0  0  0
  6 97  1  0  0  0
  6 98  1  0  0  0
  7  8  2  0  0  0
  7 26  1  0  0  0
  7 29  1  0  0  0
  8  9  1  0  0  0
  8 22  1  0  0  0
  9 10  1  0  0  0
  9 27  2  0  0  0
 10 11  2  0  0  0
 10 15  1  0  0  0
 11 12  1  0  0  0
 11 99  1  0  0  0
 12 13  2  0  0  0
 12100  1  0  0  0
 13 14  1  0  0  0
 13 31  1  0  0  0
 14 15  2  0  0  0
 14101  1  0  0  0
 15102  1  0  0  0
 16 17  2  0  0  0
 16 21  1  0  0  0
 16 31  1  0  0  0
 17 18  1  0  0  0
 17103  1  0  0  0
 18 19  2  0  0  0
 18104  1  0  0  0
 19 20  1  0  0  0
 19 24  1  0  0  0
 20 21  2  0  0  0
 20105  1  0  0  0
 21 23  1  0  0  0
 22 28  1  0  0  0
 22 32  2  0  0  0
 26 27  1  0  0  0
 28106  1  0  0  0
 28107  1  0  0  0
 29108  1  0  0  0
 29109  1  0  0  0
 33 34  1  0  0  0
 33 66  1  0  0  0
 33 70  2  0  0  0
 34 36  1  0  0  0
 34 59  1  0  0  0
 34110  1  0  0  0
 35 44  2  0  0  0
 35 45  1  0  0  0
 35 68  1  0  0  0
 36 56  1  0  0  0
 36111  1  0  0  0
 37 39  1  0  0  0
 37 47  1  0  0  0
 37 66  1  0  0  0
 37112  1  0  0  0
 38 43  2  0  0  0
 38 46  1  0  0  0
 38 47  1  0  0  0
 39 64  1  0  0  0
 39 67  2  0  0  0
 40 52  1  0  0  0
 40 53  2  0  0  0
 40 58  1  0  0  0
 41113  1  0  0  0
 41114  1  0  0  0
 41115  1  0  0  0
 41 48  1  0  0  0
 42 43  1  0  0  0
 42 66  1  0  0  0
 42116  1  0  0  0
 42117  1  0  0  0
 43 44  1  0  0  0
 44118  1  0  0  0
 45 46  2  0  0  0
 45119  1  0  0  0
 46120  1  0  0  0
 47121  1  0  0  0
 47122  1  0  0  0
 48 56  1  0  0  0
 48 65  1  0  0  0
 48123  1  0  0  0
 49 50  1  0  0  0
 49 53  1  0  0  0
 49 64  1  0  0  0
 49124  1  0  0  0
 50 51  1  0  0  0
 50125  1  0  0  0
 50126  1  0  0  0
 51 52  1  0  0  0
 51127  1  0  0  0
 51128  1  0  0  0
 52129  1  0  0  0
 52130  1  0  0  0
 53 54  1  0  0  0
 54 55  2  0  0  0
 54131  1  0  0  0
 55 57  1  0  0  0
 55132  1  0  0  0
 56 69  2  0  0  0
 57 58  2  0  0  0
 57133  1  0  0  0
 58134  1  0  0  0
 59 60  1  0  0  0
 59 61  1  0  0  0
 59 62  1  0  0  0
 60135  1  0  0  0
 60136  1  0  0  0
 60137  1  0  0  0
 61138  1  0  0  0
 61139  1  0  0  0
 61140  1  0  0  0
 62141  1  0  0  0
 62142  1  0  0  0
 62143  1  0  0  0
 63 65  1  0  0  0
 63144  1  0  0  0
 63145  1  0  0  0
 63146  1  0  0  0
 64147  1  0  0  0
 65148  1  0  0  0
 68 83  1  0  0  0
 71 73  2  0  0  0
 71 74  1  0  0  0
 71149  1  0  0  0
 72 74  2  0  0  0
 72 75  1  0  0  0
 72150  1  0  0  0
 73 76  1  0  0  0
 73 77  1  0  0  0
 74 85  1  0  0  0
 75 76  2  0  0  0
 75 87  1  0  0  0
 76 86  1  0  0  0
 77 84  2  0  0  0
 77151  1  0  0  0
 78 81  1  0  0  0
 78 82  1  0  0  0
 78 88  2  0  0  0
 79 81  1  0  0  0
 79 83  1  0  0  0
 79 89  2  0  0  0
 80 86  1  0  0  0
 80152  1  0  0  0
 80153  1  0  0  0
 80154  1  0  0  0
 81155  1  0  0  0
 81156  1  0  0  0
 82 87  1  0  0  0
 82157  1  0  0  0
 82158  1  0  0  0
 83159  1  0  0  0
 83160  1  0  0  0
 84161  1  0  0  0
 85162  1  0  0  0
 86163  1  0  0  0
 87164  1  0  0  0
M  ISO  4   1 100  68 101  83 101  85 100
M  END
> <chiral flag>
0

> <version>
0

> <s_m_source_file>
/data/baiqing/PycharmProjects/Reinvent-master-3.2/result/LINK_invent/BTK/process_docking_weight1_custom_product_contain_oxygen_bond_distance_aromatic_linkinvent_7_9_3/rearranged_h_0164.sdf

> <i_m_source_file_index>
78

> <r_mmod_Potential_Energy-OPLS-2005>
-71.4798736572266

> <r_mmod_Stretch_Energy-OPLS-2005>
39.888786315918

> <r_mmod_Bend_Energy-OPLS-2005>
97.1953353881836

> <r_mmod_Torsional_Energy-OPLS-2005>
273.602386474609

> <r_mmod_Improper_Torsional_Energy-OPLS-2005>
12.9460382461548

> <r_mmod_Van_der_Waal_Energy-OPLS-2005>
166.433837890625

> <r_mmod_Electrostatic_Energy-OPLS-2005>
-386.439575195312

> <r_mmod_Solvation_Energy-OPLS-2005>
-285.393737792969

> <b_mmod_Minimization_Converged-OPLS-2005>
0

> <r_mmod_RMS_Derivative-OPLS-2005>
2.42122340202332

$$$$
79
                    3D
 Structure written by MMmdl.
149157  0  0  1  0            999 V2000
  -30.6122  -14.7706   20.4630 C   0  0  0  0  0  0
  -30.4366  -12.4628   19.4988 C   0  0  0  0  0  0
  -29.5240  -12.5104   18.2512 C   0  0  0  0  0  0
  -28.0463  -12.3345   18.6497 C   0  0  0  0  0  0
  -27.6423  -13.2411   19.8441 C   0  0  2  0  0  0
  -28.6805  -13.1907   20.9845 C   0  0  0  0  0  0
  -25.2521  -13.8221   20.5692 C   0  0  0  0  0  0
  -24.1820  -13.0452   20.9187 C   0  0  0  0  0  0
  -24.6413  -11.6930   20.8704 C   0  0  0  0  0  0
  -23.9085  -10.4307   21.0380 C   0  0  0  0  0  0
  -24.3637   -9.4214   21.9150 C   0  0  0  0  0  0
  -23.6310   -8.2248   22.0732 C   0  0  0  0  0  0
  -22.4286   -8.0282   21.3537 C   0  0  0  0  0  0
  -21.9921   -9.0251   20.4636 C   0  0  0  0  0  0
  -22.7254  -10.2128   20.3036 C   0  0  0  0  0  0
  -21.6858   -6.0734   22.5280 C   0  0  0  0  0  0
  -21.4009   -6.5630   23.8211 C   0  0  0  0  0  0
  -21.3670   -5.6783   24.9172 C   0  0  0  0  0  0
  -21.6045   -4.3048   24.7223 C   0  0  0  0  0  0
  -21.8828   -3.8143   23.4346 C   0  0  0  0  0  0
  -21.9187   -4.6963   22.3395 C   0  0  0  0  0  0
  -22.7846  -13.5222   21.1855 C   0  0  0  0  0  0
  -22.1670   -4.2144   21.0977 F   0  0  0  0  0  0
  -21.5629   -3.4537   25.7730 F   0  0  0  0  0  0
  -29.9909  -13.5370   20.4209 N   0  0  0  0  0  0
  -26.2947  -12.9452   20.3246 N   0  0  0  0  0  0
  -25.9346  -11.6580   20.5710 N   0  0  0  0  0  0
  -22.0497  -12.8220   22.0424 N   0  0  0  0  0  0
  -25.4232  -15.1950   20.4155 N   0  0  0  0  0  0
  -31.7901  -14.8234   20.1004 O   0  0  0  0  0  0
  -21.6650   -6.8873   21.4247 O   0  0  0  0  0  0
  -22.3507  -14.5492   20.6668 O   0  0  0  0  0  0
  -24.6339  -31.8520   23.1951 C   0  0  0  0  0  0
  -25.9153  -32.4740   23.8291 C   0  0  1  0  0  0
  -27.2225  -27.2446   20.1145 C   0  0  0  0  0  0
  -25.5938  -33.8540   24.2219 N   0  0  0  0  0  0
  -23.4303  -30.4752   21.5401 C   0  0  2  0  0  0
  -24.8752  -28.9198   20.1053 C   0  0  0  0  0  0
  -22.7505  -29.4587   22.4892 C   0  0  0  0  0  0
  -18.0293  -28.1395   22.8510 C   0  0  0  0  0  0
  -24.1477  -36.7264   23.2632 C   0  0  0  0  0  0
  -25.9768  -30.7604   21.3755 C   0  0  0  0  0  0
  -26.0475  -29.3822   20.7149 C   0  0  0  0  0  0
  -27.2178  -28.5545   20.7120 C   0  0  0  0  0  0
  -26.0161  -26.8475   19.4911 C   0  0  0  0  0  0
  -24.8654  -27.6614   19.4868 C   0  0  0  0  0  0
  -23.6477  -29.8114   20.1537 C   0  0  0  0  0  0
  -25.4106  -36.3052   24.0317 C   0  0  1  0  0  0
  -20.5901  -28.3701   23.1286 C   0  0  2  0  0  0
  -20.6783  -26.9419   22.5418 C   0  0  0  0  0  0
  -19.5749  -26.6383   21.5234 C   0  0  0  0  0  0
  -18.1932  -26.7935   22.1644 C   0  0  0  0  0  0
  -19.1550  -28.8861   23.2896 C   0  0  0  0  0  0
  -18.9471  -30.1465   23.8911 C   0  0  0  0  0  0
  -17.6473  -30.6599   24.0573 C   0  0  0  0  0  0
  -25.9063  -34.9436   23.5075 C   0  0  0  0  0  0
  -16.5360  -29.9108   23.6330 C   0  0  0  0  0  0
  -16.7282  -28.6516   23.0367 C   0  0  0  0  0  0
  -26.4510  -31.6579   25.0695 C   0  0  0  0  0  0
  -25.3729  -31.3778   26.1427 C   0  0  0  0  0  0
  -27.0347  -30.2987   24.6186 C   0  0  0  0  0  0
  -27.6034  -32.4342   25.7495 C   0  0  0  0  0  0
  -27.5569  -37.1777   24.8461 C   0  0  0  0  0  0
  -21.4200  -29.3045   22.3659 N   0  0  0  0  0  0
  -26.4257  -37.3775   23.9435 N   0  0  0  0  0  0
  -24.7003  -31.0466   22.0946 N   0  0  0  0  0  0
  -23.4195  -28.8109   23.2977 O   0  0  0  0  0  0
  -28.3338  -26.3638   20.1921 O   0  0  0  0  0  0
  -26.5628  -34.8922   22.4649 O   0  0  0  0  0  0
  -23.5471  -32.1341   23.7228 O   0  0  0  0  0  0
  -28.3023  -20.3032   21.0605 C   0  0  0  0  0  0
  -29.5501  -18.5677   20.4670 C   0  0  0  0  0  0
  -29.9776  -19.7618   19.8286 C   0  0  0  0  0  0
  -30.1662  -17.1264   20.2935 C   0  0  0  0  0  0
  -28.6078  -23.6647   20.3604 C   0  0  0  0  0  0
  -29.1669  -22.3278   19.6589 C   0  0  0  0  0  0
  -28.4079  -25.0177   19.5014 C   0  0  0  0  0  0
  -28.4664  -18.9784   21.2627 N   0  0  0  0  0  0
  -29.8151  -15.9377   20.7689 N   0  0  0  0  0  0
  -29.1599  -20.8834   20.2000 N   0  0  0  0  0  0
  -31.0172  -19.9689   18.9242 N   0  0  0  0  0  0
  -28.3254  -23.6495   21.5629 O   0  0  0  0  0  0
  -31.4806  -12.5716   19.1999 H   0  0  0  0  0  0
  -30.3734  -11.4897   19.9915 H   0  0  0  0  0  0
  -29.8158  -11.7329   17.5446 H   0  0  0  0  0  0
  -29.6565  -13.4620   17.7336 H   0  0  0  0  0  0
  -27.9010  -11.2871   18.9168 H   0  0  0  0  0  0
  -27.4003  -12.5198   17.7916 H   0  0  0  0  0  0
  -27.6328  -14.2629   19.4615 H   0  0  0  0  0  0
  -28.7119  -12.2004   21.4401 H   0  0  0  0  0  0
  -28.4060  -13.8846   21.7811 H   0  0  0  0  0  0
  -25.2772   -9.5688   22.4733 H   0  0  0  0  0  0
  -24.0009   -7.4640   22.7456 H   0  0  0  0  0  0
  -21.0844   -8.8774   19.8957 H   0  0  0  0  0  0
  -22.3696  -10.9662   19.6154 H   0  0  0  0  0  0
  -21.2007   -7.6137   23.9718 H   0  0  0  0  0  0
  -21.1489   -6.0511   25.9079 H   0  0  0  0  0  0
  -22.0596   -2.7604   23.2841 H   0  0  0  0  0  0
  -22.4122  -11.9892   22.4853 H   0  0  0  0  0  0
  -21.1101  -13.1224   22.2602 H   0  0  0  0  0  0
  -24.6702  -15.8612   20.5511 H   0  0  0  0  0  0
  -26.3006  -15.6329   20.1634 H   0  0  0  0  0  0
  -26.7202  -32.5364   23.1004 H   0  0  0  0  0  0
  -25.0108  -33.9667   25.0380 H   0  0  0  0  0  0
  -22.7295  -31.3003   21.3959 H   0  0  0  0  0  0
  -23.3743  -35.9595   23.3288 H   0  0  0  0  0  0
  -24.3566  -36.8886   22.2046 H   0  0  0  0  0  0
  -23.7209  -37.6453   23.6671 H   0  0  0  0  0  0
  -26.1142  -31.5220   20.6061 H   0  0  0  0  0  0
  -26.8531  -30.8086   22.0107 H   0  0  0  0  0  0
  -28.1151  -28.9062   21.2022 H   0  0  0  0  0  0
  -25.9031  -25.8807   19.0287 H   0  0  0  0  0  0
  -23.9612  -27.2989   19.0150 H   0  0  0  0  0  0
  -23.7743  -30.5920   19.4015 H   0  0  0  0  0  0
  -22.7632  -29.2508   19.8437 H   0  0  0  0  0  0
  -25.1288  -36.1881   25.0803 H   0  0  0  0  0  0
  -21.0007  -28.3258   24.1402 H   0  0  0  0  0  0
  -20.5711  -26.2301   23.3621 H   0  0  0  0  0  0
  -21.6647  -26.7453   22.1197 H   0  0  0  0  0  0
  -19.6918  -25.6296   21.1258 H   0  0  0  0  0  0
  -19.6672  -27.3202   20.6773 H   0  0  0  0  0  0
  -17.4207  -26.6692   21.4042 H   0  0  0  0  0  0
  -18.0321  -26.0090   22.9049 H   0  0  0  0  0  0
  -19.7948  -30.7286   24.2265 H   0  0  0  0  0  0
  -17.5033  -31.6287   24.5166 H   0  0  0  0  0  0
  -15.5365  -30.3027   23.7642 H   0  0  0  0  0  0
  -15.8678  -28.0839   22.7081 H   0  0  0  0  0  0
  -24.5903  -30.7113   25.7792 H   0  0  0  0  0  0
  -24.8936  -32.2975   26.4787 H   0  0  0  0  0  0
  -25.8043  -30.9015   27.0240 H   0  0  0  0  0  0
  -26.2928  -29.6774   24.1147 H   0  0  0  0  0  0
  -27.3957  -29.7217   25.4707 H   0  0  0  0  0  0
  -27.8851  -30.4258   23.9483 H   0  0  0  0  0  0
  -27.2584  -33.3642   26.2037 H   0  0  0  0  0  0
  -28.3872  -32.6894   25.0354 H   0  0  0  0  0  0
  -28.0684  -31.8501   26.5445 H   0  0  0  0  0  0
  -28.2556  -38.0106   24.7558 H   0  0  0  0  0  0
  -28.1082  -36.2631   24.6217 H   0  0  0  0  0  0
  -27.2306  -37.1352   25.8867 H   0  0  0  0  0  0
  -20.9386  -29.8759   21.6866 H   0  0  0  0  0  0
  -26.0122  -38.2830   24.1499 H   0  0  0  0  0  0
  -27.5091  -20.8632   21.5345 H   0  0  0  0  0  0
  -31.0423  -17.1661   19.6386 H   0  0  0  0  0  0
  -30.2035  -22.5568   19.4124 H   0  0  0  0  0  0
  -28.6614  -22.2758   18.6949 H   0  0  0  0  0  0
  -27.5705  -24.8584   18.8299 H   0  0  0  0  0  0
  -29.2670  -25.0759   18.8350 H   0  0  0  0  0  0
  -31.2563  -20.8662   18.5150 H   0  0  0  0  0  0
  -31.6546  -19.2363   18.6222 H   0  0  0  0  0  0
  1 25  1  0  0  0
  1 30  2  0  0  0
  1 79  1  0  0  0
  2  3  1  0  0  0
  2 25  1  0  0  0
  2 83  1  0  0  0
  2 84  1  0  0  0
  3  4  1  0  0  0
  3 85  1  0  0  0
  3 86  1  0  0  0
  4  5  1  0  0  0
  4 87  1  0  0  0
  4 88  1  0  0  0
  5  6  1  0  0  0
  5 26  1  0  0  0
  5 89  1  0  0  0
  6 25  1  0  0  0
  6 90  1  0  0  0
  6 91  1  0  0  0
  7  8  2  0  0  0
  7 26  1  0  0  0
  7 29  1  0  0  0
  8  9  1  0  0  0
  8 22  1  0  0  0
  9 10  1  0  0  0
  9 27  2  0  0  0
 10 11  2  0  0  0
 10 15  1  0  0  0
 11 12  1  0  0  0
 11 92  1  0  0  0
 12 13  2  0  0  0
 12 93  1  0  0  0
 13 14  1  0  0  0
 13 31  1  0  0  0
 14 15  2  0  0  0
 14 94  1  0  0  0
 15 95  1  0  0  0
 16 17  2  0  0  0
 16 21  1  0  0  0
 16 31  1  0  0  0
 17 18  1  0  0  0
 17 96  1  0  0  0
 18 19  2  0  0  0
 18 97  1  0  0  0
 19 20  1  0  0  0
 19 24  1  0  0  0
 20 21  2  0  0  0
 20 98  1  0  0  0
 21 23  1  0  0  0
 22 28  1  0  0  0
 22 32  2  0  0  0
 26 27  1  0  0  0
 28 99  1  0  0  0
 28100  1  0  0  0
 29101  1  0  0  0
 29102  1  0  0  0
 33 34  1  0  0  0
 33 66  1  0  0  0
 33 70  2  0  0  0
 34 36  1  0  0  0
 34 59  1  0  0  0
 34103  1  0  0  0
 35 44  2  0  0  0
 35 45  1  0  0  0
 35 68  1  0  0  0
 36 56  1  0  0  0
 36104  1  0  0  0
 37 39  1  0  0  0
 37 47  1  0  0  0
 37 66  1  0  0  0
 37105  1  0  0  0
 38 43  2  0  0  0
 38 46  1  0  0  0
 38 47  1  0  0  0
 39 64  1  0  0  0
 39 67  2  0  0  0
 40 52  1  0  0  0
 40 53  2  0  0  0
 40 58  1  0  0  0
 41106  1  0  0  0
 41107  1  0  0  0
 41108  1  0  0  0
 41 48  1  0  0  0
 42 43  1  0  0  0
 42 66  1  0  0  0
 42109  1  0  0  0
 42110  1  0  0  0
 43 44  1  0  0  0
 44111  1  0  0  0
 45 46  2  0  0  0
 45112  1  0  0  0
 46113  1  0  0  0
 47114  1  0  0  0
 47115  1  0  0  0
 48 56  1  0  0  0
 48 65  1  0  0  0
 48116  1  0  0  0
 49 50  1  0  0  0
 49 53  1  0  0  0
 49 64  1  0  0  0
 49117  1  0  0  0
 50 51  1  0  0  0
 50118  1  0  0  0
 50119  1  0  0  0
 51 52  1  0  0  0
 51120  1  0  0  0
 51121  1  0  0  0
 52122  1  0  0  0
 52123  1  0  0  0
 53 54  1  0  0  0
 54 55  2  0  0  0
 54124  1  0  0  0
 55 57  1  0  0  0
 55125  1  0  0  0
 56 69  2  0  0  0
 57 58  2  0  0  0
 57126  1  0  0  0
 58127  1  0  0  0
 59 60  1  0  0  0
 59 61  1  0  0  0
 59 62  1  0  0  0
 60128  1  0  0  0
 60129  1  0  0  0
 60130  1  0  0  0
 61131  1  0  0  0
 61132  1  0  0  0
 61133  1  0  0  0
 62134  1  0  0  0
 62135  1  0  0  0
 62136  1  0  0  0
 63 65  1  0  0  0
 63137  1  0  0  0
 63138  1  0  0  0
 63139  1  0  0  0
 64140  1  0  0  0
 65141  1  0  0  0
 68 77  1  0  0  0
 71 78  2  0  0  0
 71 80  1  0  0  0
 71142  1  0  0  0
 72 73  2  0  0  0
 72 74  1  0  0  0
 72 78  1  0  0  0
 73 80  1  0  0  0
 73 81  1  0  0  0
 74 79  2  0  0  0
 74143  1  0  0  0
 75 76  1  0  0  0
 75 77  1  0  0  0
 75 82  2  0  0  0
 76 80  1  0  0  0
 76144  1  0  0  0
 76145  1  0  0  0
 77146  1  0  0  0
 77147  1  0  0  0
 81148  1  0  0  0
 81149  1  0  0  0
M  ISO  4   1 100  68 101  77 101  79 100
M  END
> <chiral flag>
0

> <version>
0

> <s_m_source_file>
/data/baiqing/PycharmProjects/Reinvent-master-3.2/result/LINK_invent/BTK/process_docking_weight1_custom_product_contain_oxygen_bond_distance_aromatic_linkinvent_7_9_3/rearranged_h_0164.sdf

> <i_m_source_file_index>
79

> <r_mmod_Potential_Energy-OPLS-2005>
199.493804931641

> <r_mmod_Stretch_Energy-OPLS-2005>
143.367385864258

> <r_mmod_Bend_Energy-OPLS-2005>
189.327819824219

> <r_mmod_Torsional_Energy-OPLS-2005>
169.938934326172

> <r_mmod_Improper_Torsional_Energy-OPLS-2005>
3.93025135993958

> <r_mmod_Van_der_Waal_Energy-OPLS-2005>
123.711875915527

> <r_mmod_Electrostatic_Energy-OPLS-2005>
-285.6533203125

> <r_mmod_Solvation_Energy-OPLS-2005>
-237.873519897461

> <b_mmod_Minimization_Converged-OPLS-2005>
0

> <r_mmod_RMS_Derivative-OPLS-2005>
2.82604622840881

$$$$
80
                    3D
 Structure written by MMmdl.
156164  0  0  1  0            999 V2000
  -30.7196  -14.5019   20.5535 C   0  0  0  0  0  0
  -30.4117  -12.3240   19.4343 C   0  0  0  0  0  0
  -29.4932  -12.5089   18.2108 C   0  0  0  0  0  0
  -28.0153  -12.3690   18.6230 C   0  0  0  0  0  0
  -27.6560  -13.2209   19.8716 C   0  0  2  0  0  0
  -28.6992  -13.0442   20.9979 C   0  0  0  0  0  0
  -25.2536  -13.8189   20.5666 C   0  0  0  0  0  0
  -24.1813  -13.0449   20.9195 C   0  0  0  0  0  0
  -24.6390  -11.6925   20.8752 C   0  0  0  0  0  0
  -23.9062  -10.4302   21.0406 C   0  0  0  0  0  0
  -24.3614   -9.4214   21.9184 C   0  0  0  0  0  0
  -23.6296   -8.2244   22.0753 C   0  0  0  0  0  0
  -22.4280   -8.0279   21.3545 C   0  0  0  0  0  0
  -21.9914   -9.0251   20.4646 C   0  0  0  0  0  0
  -22.7236  -10.2134   20.3052 C   0  0  0  0  0  0
  -21.6852   -6.0731   22.5282 C   0  0  0  0  0  0
  -21.4011   -6.5634   23.8215 C   0  0  0  0  0  0
  -21.3662   -5.6784   24.9179 C   0  0  0  0  0  0
  -21.6046   -4.3046   24.7223 C   0  0  0  0  0  0
  -21.8821   -3.8140   23.4343 C   0  0  0  0  0  0
  -21.9194   -4.6961   22.3403 C   0  0  0  0  0  0
  -22.7835  -13.5236   21.1858 C   0  0  0  0  0  0
  -22.1661   -4.2151   21.0977 F   0  0  0  0  0  0
  -21.5634   -3.4525   25.7732 F   0  0  0  0  0  0
  -30.0253  -13.3359   20.4338 N   0  0  0  0  0  0
  -26.2998  -12.9394   20.3377 N   0  0  0  0  0  0
  -25.9325  -11.6538   20.5784 N   0  0  0  0  0  0
  -22.0468  -12.8229   22.0408 N   0  0  0  0  0  0
  -25.4195  -15.1896   20.3973 N   0  0  0  0  0  0
  -31.8581  -14.6304   20.0964 O   0  0  0  0  0  0
  -21.6639   -6.8877   21.4244 O   0  0  0  0  0  0
  -22.3526  -14.5549   20.6717 O   0  0  0  0  0  0
  -24.6183  -31.8658   23.2085 C   0  0  0  0  0  0
  -25.9070  -32.4805   23.8389 C   0  0  1  0  0  0
  -27.2236  -27.4021   20.1076 C   0  0  0  0  0  0
  -25.5925  -33.8604   24.2334 N   0  0  0  0  0  0
  -23.4073  -30.4896   21.5496 C   0  0  2  0  0  0
  -24.8539  -28.9542   20.1120 C   0  0  0  0  0  0
  -22.7426  -29.4648   22.4975 C   0  0  0  0  0  0
  -18.0270  -28.1373   22.8486 C   0  0  0  0  0  0
  -24.1487  -36.7299   23.2636 C   0  0  0  0  0  0
  -25.9399  -30.8227   21.3655 C   0  0  0  0  0  0
  -26.0174  -29.4561   20.7100 C   0  0  0  0  0  0
  -27.2100  -28.6901   20.6996 C   0  0  0  0  0  0
  -26.0469  -26.9291   19.4887 C   0  0  0  0  0  0
  -24.8653  -27.6921   19.4945 C   0  0  0  0  0  0
  -23.6172  -29.8238   20.1639 C   0  0  0  0  0  0
  -25.4104  -36.3098   24.0344 C   0  0  1  0  0  0
  -20.5862  -28.3665   23.1304 C   0  0  2  0  0  0
  -20.6759  -26.9399   22.5410 C   0  0  0  0  0  0
  -19.5743  -26.6379   21.5205 C   0  0  0  0  0  0
  -18.1921  -26.7922   22.1614 C   0  0  0  0  0  0
  -19.1520  -28.8835   23.2892 C   0  0  0  0  0  0
  -18.9449  -30.1441   23.8901 C   0  0  0  0  0  0
  -17.6452  -30.6579   24.0557 C   0  0  0  0  0  0
  -25.9046  -34.9463   23.5135 C   0  0  0  0  0  0
  -16.5341  -29.9078   23.6329 C   0  0  0  0  0  0
  -16.7261  -28.6493   23.0352 C   0  0  0  0  0  0
  -26.4486  -31.6578   25.0720 C   0  0  0  0  0  0
  -25.3757  -31.3674   26.1472 C   0  0  0  0  0  0
  -27.0320  -30.3021   24.6102 C   0  0  0  0  0  0
  -27.6067  -32.4285   25.7485 C   0  0  0  0  0  0
  -27.5588  -37.1787   24.8454 C   0  0  0  0  0  0
  -21.4150  -29.3033   22.3715 N   0  0  0  0  0  0
  -26.4277  -37.3796   23.9434 N   0  0  0  0  0  0
  -24.6735  -31.0742   22.0993 N   0  0  0  0  0  0
  -23.4192  -28.8196   23.3024 O   0  0  0  0  0  0
  -28.3471  -26.5973   20.1340 O   0  0  0  0  0  0
  -26.5596  -34.8919   22.4690 O   0  0  0  0  0  0
  -23.5368  -32.1417   23.7473 O   0  0  0  0  0  0
  -30.3807  -19.3619   20.4749 C   0  0  0  0  0  0
  -29.8835  -18.1666   21.0952 C   0  0  0  0  0  0
  -28.6026  -18.4928   21.5004 C   0  0  0  0  0  0
  -29.4068  -20.3112   20.5953 C   0  0  0  0  0  0
  -27.5841  -17.7051   22.1969 C   0  0  0  0  0  0
  -28.8815  -24.1274   20.1492 C   0  0  0  0  0  0
  -26.2559  -18.3752   22.5163 C   0  0  0  0  0  0
  -30.7051  -16.8854   21.3117 C   0  0  0  0  0  0
  -28.6071  -22.7018   20.7126 C   0  0  0  0  0  0
  -28.1346  -25.3211   20.8002 C   0  0  0  0  0  0
  -29.4867  -21.6474   20.1713 N   0  0  0  0  0  0
  -30.0747  -15.5666   21.0812 N   0  0  0  0  0  0
  -27.7643  -16.5285   22.5229 O   0  0  0  0  0  0
  -29.6809  -24.2916   19.2192 O   0  0  0  0  0  0
  -28.3107  -19.8098   21.2085 O   0  0  0  0  0  0
  -31.4589  -12.4030   19.1365 H   0  0  0  0  0  0
  -30.2962  -11.3224   19.8511 H   0  0  0  0  0  0
  -29.7389  -11.7773   17.4398 H   0  0  0  0  0  0
  -29.6615  -13.4909   17.7656 H   0  0  0  0  0  0
  -27.8293  -11.3140   18.8278 H   0  0  0  0  0  0
  -27.3649  -12.6344   17.7888 H   0  0  0  0  0  0
  -27.6873  -14.2653   19.5595 H   0  0  0  0  0  0
  -28.6789  -12.0243   21.3832 H   0  0  0  0  0  0
  -28.4642  -13.6863   21.8476 H   0  0  0  0  0  0
  -25.2761   -9.5689   22.4753 H   0  0  0  0  0  0
  -24.0012   -7.4630   22.7464 H   0  0  0  0  0  0
  -21.0851   -8.8764   19.8945 H   0  0  0  0  0  0
  -22.3701  -10.9666   19.6151 H   0  0  0  0  0  0
  -21.1995   -7.6140   23.9721 H   0  0  0  0  0  0
  -21.1484   -6.0508   25.9084 H   0  0  0  0  0  0
  -22.0594   -2.7601   23.2834 H   0  0  0  0  0  0
  -22.4071  -11.9888   22.4801 H   0  0  0  0  0  0
  -21.1088  -13.1267   22.2597 H   0  0  0  0  0  0
  -24.6474  -15.8403   20.4900 H   0  0  0  0  0  0
  -26.2749  -15.6234   20.0755 H   0  0  0  0  0  0
  -26.7142  -32.5506   23.1151 H   0  0  0  0  0  0
  -25.0112  -33.9763   25.0504 H   0  0  0  0  0  0
  -22.6973  -31.3075   21.4105 H   0  0  0  0  0  0
  -23.3759  -35.9618   23.3260 H   0  0  0  0  0  0
  -24.3600  -36.8952   22.2060 H   0  0  0  0  0  0
  -23.7212  -37.6485   23.6665 H   0  0  0  0  0  0
  -26.0568  -31.5881   20.5971 H   0  0  0  0  0  0
  -26.8265  -30.8748   21.9857 H   0  0  0  0  0  0
  -28.1065  -29.0688   21.1707 H   0  0  0  0  0  0
  -26.0368  -25.9606   19.0085 H   0  0  0  0  0  0
  -23.9721  -27.3024   19.0258 H   0  0  0  0  0  0
  -23.7286  -30.5994   19.4053 H   0  0  0  0  0  0
  -22.7399  -29.2469   19.8665 H   0  0  0  0  0  0
  -25.1267  -36.1959   25.0834 H   0  0  0  0  0  0
  -20.9951  -28.3227   24.1426 H   0  0  0  0  0  0
  -20.5658  -26.2274   23.3598 H   0  0  0  0  0  0
  -21.6631  -26.7438   22.1211 H   0  0  0  0  0  0
  -19.6909  -25.6293   21.1229 H   0  0  0  0  0  0
  -19.6692  -27.3191   20.6738 H   0  0  0  0  0  0
  -17.4199  -26.6669   21.4010 H   0  0  0  0  0  0
  -18.0321  -26.0056   22.9001 H   0  0  0  0  0  0
  -19.7927  -30.7248   24.2277 H   0  0  0  0  0  0
  -17.5011  -31.6264   24.5152 H   0  0  0  0  0  0
  -15.5344  -30.2984   23.7653 H   0  0  0  0  0  0
  -15.8658  -28.0816   22.7072 H   0  0  0  0  0  0
  -24.5953  -30.6994   25.7808 H   0  0  0  0  0  0
  -24.8920  -32.2819   26.4912 H   0  0  0  0  0  0
  -25.8126  -30.8859   27.0233 H   0  0  0  0  0  0
  -26.2867  -29.6771   24.1172 H   0  0  0  0  0  0
  -27.4107  -29.7265   25.4558 H   0  0  0  0  0  0
  -27.8693  -30.4328   23.9245 H   0  0  0  0  0  0
  -27.2702  -33.3586   26.2072 H   0  0  0  0  0  0
  -28.3876  -32.6834   25.0309 H   0  0  0  0  0  0
  -28.0733  -31.8399   26.5393 H   0  0  0  0  0  0
  -28.2546  -38.0142   24.7589 H   0  0  0  0  0  0
  -28.1140  -36.2679   24.6155 H   0  0  0  0  0  0
  -27.2329  -37.1293   25.8858 H   0  0  0  0  0  0
  -20.9317  -29.8763   21.6940 H   0  0  0  0  0  0
  -26.0158  -38.2861   24.1482 H   0  0  0  0  0  0
  -31.3571  -19.5122   20.0355 H   0  0  0  0  0  0
  -25.8294  -18.8126   21.6144 H   0  0  0  0  0  0
  -26.4042  -19.1654   23.2514 H   0  0  0  0  0  0
  -25.5491  -17.6502   22.9186 H   0  0  0  0  0  0
  -31.0543  -16.8954   22.3448 H   0  0  0  0  0  0
  -31.6065  -16.9911   20.7058 H   0  0  0  0  0  0
  -27.5664  -22.4451   20.5114 H   0  0  0  0  0  0
  -28.7164  -22.7371   21.7972 H   0  0  0  0  0  0
  -28.4819  -25.4152   21.8292 H   0  0  0  0  0  0
  -27.0783  -25.0595   20.8602 H   0  0  0  0  0  0
  -30.3134  -22.0013   19.6938 H   0  0  0  0  0  0
  -29.1361  -15.4349   21.4367 H   0  0  0  0  0  0
  1 25  1  0  0  0
  1 30  2  0  0  0
  1 82  1  0  0  0
  2  3  1  0  0  0
  2 25  1  0  0  0
  2 86  1  0  0  0
  2 87  1  0  0  0
  3  4  1  0  0  0
  3 88  1  0  0  0
  3 89  1  0  0  0
  4  5  1  0  0  0
  4 90  1  0  0  0
  4 91  1  0  0  0
  5  6  1  0  0  0
  5 26  1  0  0  0
  5 92  1  0  0  0
  6 25  1  0  0  0
  6 93  1  0  0  0
  6 94  1  0  0  0
  7  8  2  0  0  0
  7 26  1  0  0  0
  7 29  1  0  0  0
  8  9  1  0  0  0
  8 22  1  0  0  0
  9 10  1  0  0  0
  9 27  2  0  0  0
 10 11  2  0  0  0
 10 15  1  0  0  0
 11 12  1  0  0  0
 11 95  1  0  0  0
 12 13  2  0  0  0
 12 96  1  0  0  0
 13 14  1  0  0  0
 13 31  1  0  0  0
 14 15  2  0  0  0
 14 97  1  0  0  0
 15 98  1  0  0  0
 16 17  2  0  0  0
 16 21  1  0  0  0
 16 31  1  0  0  0
 17 18  1  0  0  0
 17 99  1  0  0  0
 18 19  2  0  0  0
 18100  1  0  0  0
 19 20  1  0  0  0
 19 24  1  0  0  0
 20 21  2  0  0  0
 20101  1  0  0  0
 21 23  1  0  0  0
 22 28  1  0  0  0
 22 32  2  0  0  0
 26 27  1  0  0  0
 28102  1  0  0  0
 28103  1  0  0  0
 29104  1  0  0  0
 29105  1  0  0  0
 33 34  1  0  0  0
 33 66  1  0  0  0
 33 70  2  0  0  0
 34 36  1  0  0  0
 34 59  1  0  0  0
 34106  1  0  0  0
 35 44  2  0  0  0
 35 45  1  0  0  0
 35 68  1  0  0  0
 36 56  1  0  0  0
 36107  1  0  0  0
 37 39  1  0  0  0
 37 47  1  0  0  0
 37 66  1  0  0  0
 37108  1  0  0  0
 38 43  2  0  0  0
 38 46  1  0  0  0
 38 47  1  0  0  0
 39 64  1  0  0  0
 39 67  2  0  0  0
 40 52  1  0  0  0
 40 53  2  0  0  0
 40 58  1  0  0  0
 41109  1  0  0  0
 41110  1  0  0  0
 41111  1  0  0  0
 41 48  1  0  0  0
 42 43  1  0  0  0
 42 66  1  0  0  0
 42112  1  0  0  0
 42113  1  0  0  0
 43 44  1  0  0  0
 44114  1  0  0  0
 45 46  2  0  0  0
 45115  1  0  0  0
 46116  1  0  0  0
 47117  1  0  0  0
 47118  1  0  0  0
 48 56  1  0  0  0
 48 65  1  0  0  0
 48119  1  0  0  0
 49 50  1  0  0  0
 49 53  1  0  0  0
 49 64  1  0  0  0
 49120  1  0  0  0
 50 51  1  0  0  0
 50121  1  0  0  0
 50122  1  0  0  0
 51 52  1  0  0  0
 51123  1  0  0  0
 51124  1  0  0  0
 52125  1  0  0  0
 52126  1  0  0  0
 53 54  1  0  0  0
 54 55  2  0  0  0
 54127  1  0  0  0
 55 57  1  0  0  0
 55128  1  0  0  0
 56 69  2  0  0  0
 57 58  2  0  0  0
 57129  1  0  0  0
 58130  1  0  0  0
 59 60  1  0  0  0
 59 61  1  0  0  0
 59 62  1  0  0  0
 60131  1  0  0  0
 60132  1  0  0  0
 60133  1  0  0  0
 61134  1  0  0  0
 61135  1  0  0  0
 61136  1  0  0  0
 62137  1  0  0  0
 62138  1  0  0  0
 62139  1  0  0  0
 63 65  1  0  0  0
 63140  1  0  0  0
 63141  1  0  0  0
 63142  1  0  0  0
 64143  1  0  0  0
 65144  1  0  0  0
 68 80  1  0  0  0
 71 72  1  0  0  0
 71 74  2  0  0  0
 71145  1  0  0  0
 72 73  2  0  0  0
 72 78  1  0  0  0
 73 75  1  0  0  0
 73 85  1  0  0  0
 74 81  1  0  0  0
 74 85  1  0  0  0
 75 77  1  0  0  0
 75 83  2  0  0  0
 76 79  1  0  0  0
 76 80  1  0  0  0
 76 84  2  0  0  0
 77146  1  0  0  0
 77147  1  0  0  0
 77148  1  0  0  0
 78 82  1  0  0  0
 78149  1  0  0  0
 78150  1  0  0  0
 79 81  1  0  0  0
 79151  1  0  0  0
 79152  1  0  0  0
 80153  1  0  0  0
 80154  1  0  0  0
 81155  1  0  0  0
 82156  1  0  0  0
M  ISO  4   1 100  68 101  80 101  82 100
M  END
> <chiral flag>
0

> <version>
0

> <s_m_source_file>
/data/baiqing/PycharmProjects/Reinvent-master-3.2/result/LINK_invent/BTK/process_docking_weight1_custom_product_contain_oxygen_bond_distance_aromatic_linkinvent_7_9_3/rearranged_h_0164.sdf

> <i_m_source_file_index>
80

> <r_mmod_Potential_Energy-OPLS-2005>
-170.610290527344

> <r_mmod_Stretch_Energy-OPLS-2005>
43.5688095092773

> <r_mmod_Bend_Energy-OPLS-2005>
111.17195892334

> <r_mmod_Torsional_Energy-OPLS-2005>
208.575531005859

> <r_mmod_Improper_Torsional_Energy-OPLS-2005>
4.08862924575806

> <r_mmod_Van_der_Waal_Energy-OPLS-2005>
121.989151000977

> <r_mmod_Electrostatic_Energy-OPLS-2005>
-442.659393310547

> <r_mmod_Solvation_Energy-OPLS-2005>
-237.519989013672

> <b_mmod_Minimization_Converged-OPLS-2005>
0

> <r_mmod_RMS_Derivative-OPLS-2005>
0.978338003158569

$$$$
81
                    3D
 Structure written by MMmdl.
168176  0  0  1  0            999 V2000
  -30.6788  -14.4604   20.5311 C   0  0  0  0  0  0
  -30.4263  -12.2754   19.4289 C   0  0  0  0  0  0
  -29.4983  -12.4502   18.2071 C   0  0  0  0  0  0
  -28.0127  -12.3567   18.6136 C   0  0  0  0  0  0
  -27.6631  -13.1982   19.8713 C   0  0  2  0  0  0
  -28.7031  -12.9673   20.9919 C   0  0  0  0  0  0
  -25.2605  -13.8148   20.5671 C   0  0  0  0  0  0
  -24.1841  -13.0437   20.9162 C   0  0  0  0  0  0
  -24.6373  -11.6901   20.8716 C   0  0  0  0  0  0
  -23.9032  -10.4290   21.0377 C   0  0  0  0  0  0
  -24.3601   -9.4214   21.9162 C   0  0  0  0  0  0
  -23.6292   -8.2240   22.0731 C   0  0  0  0  0  0
  -22.4272   -8.0269   21.3530 C   0  0  0  0  0  0
  -21.9896   -9.0228   20.4628 C   0  0  0  0  0  0
  -22.7199  -10.2122   20.3030 C   0  0  0  0  0  0
  -21.6861   -6.0728   22.5268 C   0  0  0  0  0  0
  -21.4019   -6.5631   23.8203 C   0  0  0  0  0  0
  -21.3663   -5.6782   24.9165 C   0  0  0  0  0  0
  -21.6051   -4.3043   24.7214 C   0  0  0  0  0  0
  -21.8820   -3.8136   23.4335 C   0  0  0  0  0  0
  -21.9201   -4.6958   22.3394 C   0  0  0  0  0  0
  -22.7869  -13.5234   21.1847 C   0  0  0  0  0  0
  -22.1665   -4.2147   21.0976 F   0  0  0  0  0  0
  -21.5636   -3.4526   25.7731 F   0  0  0  0  0  0
  -30.0355  -13.2673   20.4403 N   0  0  0  0  0  0
  -26.3026  -12.9295   20.3338 N   0  0  0  0  0  0
  -25.9296  -11.6467   20.5752 N   0  0  0  0  0  0
  -22.0519  -12.8217   22.0409 N   0  0  0  0  0  0
  -25.4360  -15.1867   20.4088 N   0  0  0  0  0  0
  -31.8350  -14.6388   20.1359 O   0  0  0  0  0  0
  -21.6643   -6.8865   21.4230 O   0  0  0  0  0  0
  -22.3543  -14.5538   20.6698 O   0  0  0  0  0  0
  -24.6136  -31.8696   23.2122 C   0  0  0  0  0  0
  -25.9047  -32.4829   23.8390 C   0  0  1  0  0  0
  -27.2330  -27.4515   20.1020 C   0  0  0  0  0  0
  -25.5911  -33.8625   24.2337 N   0  0  0  0  0  0
  -23.3991  -30.4940   21.5539 C   0  0  2  0  0  0
  -24.8452  -28.9653   20.1130 C   0  0  0  0  0  0
  -22.7412  -29.4663   22.5019 C   0  0  0  0  0  0
  -18.0283  -28.1382   22.8494 C   0  0  0  0  0  0
  -24.1474  -36.7288   23.2636 C   0  0  0  0  0  0
  -25.9252  -30.8429   21.3590 C   0  0  0  0  0  0
  -26.0046  -29.4794   20.7060 C   0  0  0  0  0  0
  -27.2034  -28.7321   20.6951 C   0  0  0  0  0  0
  -26.0571  -26.9511   19.4958 C   0  0  0  0  0  0
  -24.8661  -27.6985   19.5042 C   0  0  0  0  0  0
  -23.6054  -29.8287   20.1660 C   0  0  0  0  0  0
  -25.4099  -36.3103   24.0338 C   0  0  1  0  0  0
  -20.5869  -28.3658   23.1343 C   0  0  2  0  0  0
  -20.6773  -26.9396   22.5430 C   0  0  0  0  0  0
  -19.5754  -26.6384   21.5225 C   0  0  0  0  0  0
  -18.1933  -26.7927   22.1627 C   0  0  0  0  0  0
  -19.1529  -28.8836   23.2913 C   0  0  0  0  0  0
  -18.9450  -30.1444   23.8924 C   0  0  0  0  0  0
  -17.6454  -30.6586   24.0561 C   0  0  0  0  0  0
  -25.9033  -34.9474   23.5129 C   0  0  0  0  0  0
  -16.5349  -29.9091   23.6313 C   0  0  0  0  0  0
  -16.7270  -28.6504   23.0336 C   0  0  0  0  0  0
  -26.4487  -31.6594   25.0696 C   0  0  0  0  0  0
  -25.3767  -31.3715   26.1458 C   0  0  0  0  0  0
  -27.0326  -30.3061   24.6017 C   0  0  0  0  0  0
  -27.6073  -32.4328   25.7442 C   0  0  0  0  0  0
  -27.5574  -37.1793   24.8472 C   0  0  0  0  0  0
  -21.4140  -29.3031   22.3765 N   0  0  0  0  0  0
  -26.4279  -37.3786   23.9423 N   0  0  0  0  0  0
  -24.6639  -31.0826   22.0998 N   0  0  0  0  0  0
  -23.4202  -28.8198   23.3047 O   0  0  0  0  0  0
  -28.3924  -26.7078   20.1434 O   0  0  0  0  0  0
  -26.5583  -34.8922   22.4685 O   0  0  0  0  0  0
  -23.5338  -32.1441   23.7546 O   0  0  0  0  0  0
  -29.9758  -19.6480   20.0381 C   0  0  0  0  0  0
  -29.6319  -17.8005   21.5728 C   0  0  0  0  0  0
  -30.3343  -18.7524   19.0100 C   0  0  0  0  0  0
  -30.2681  -17.3524   19.2494 C   0  0  0  0  0  0
  -29.6150  -19.1880   21.3144 C   0  0  0  0  0  0
  -29.9763  -16.8693   20.5641 C   0  0  0  0  0  0
  -31.6383  -20.5391   17.6787 C   0  0  0  0  0  0
  -29.1185  -23.3208   21.7539 C   0  0  0  0  0  0
  -30.4204  -16.4039   18.0663 C   0  0  0  0  0  0
  -31.0095  -21.9121   17.4712 C   0  0  0  0  0  0
  -30.7150  -19.3168   17.6346 C   0  0  0  0  0  0
  -30.3277  -22.3896   21.9350 C   0  0  0  0  0  0
  -29.4017  -24.7013   21.1392 C   0  0  0  0  0  0
  -30.1344  -21.1008   22.7846 C   0  0  0  0  0  0
  -28.2041  -25.3057   20.3812 C   0  0  0  0  0  0
  -29.8880  -15.4821   20.9126 N   0  0  0  0  0  0
  -29.1848  -20.0912   22.2982 N   0  0  0  0  0  0
  -32.8505  -20.4220   17.8760 O   0  0  0  0  0  0
  -27.9833  -23.0004   22.1189 O   0  0  0  0  0  0
  -31.4718  -12.3722   19.1317 H   0  0  0  0  0  0
  -30.3272  -11.2704   19.8401 H   0  0  0  0  0  0
  -29.7211  -11.6861   17.4609 H   0  0  0  0  0  0
  -29.6942  -13.4012   17.7180 H   0  0  0  0  0  0
  -27.7941  -11.3047   18.8019 H   0  0  0  0  0  0
  -27.3761  -12.6513   17.7778 H   0  0  0  0  0  0
  -27.7117  -14.2465   19.5757 H   0  0  0  0  0  0
  -28.6741  -11.9287   21.3226 H   0  0  0  0  0  0
  -28.4750  -13.5631   21.8770 H   0  0  0  0  0  0
  -25.2752   -9.5719   22.4727 H   0  0  0  0  0  0
  -24.0026   -7.4635   22.7444 H   0  0  0  0  0  0
  -21.0832   -8.8712   19.8932 H   0  0  0  0  0  0
  -22.3630  -10.9649   19.6134 H   0  0  0  0  0  0
  -21.2000   -7.6136   23.9707 H   0  0  0  0  0  0
  -21.1493   -6.0511   25.9077 H   0  0  0  0  0  0
  -22.0603   -2.7598   23.2829 H   0  0  0  0  0  0
  -22.4163  -11.9888   22.4795 H   0  0  0  0  0  0
  -21.1112  -13.1192   22.2596 H   0  0  0  0  0  0
  -24.6743  -15.8466   20.5245 H   0  0  0  0  0  0
  -26.2910  -15.6235   20.0880 H   0  0  0  0  0  0
  -26.7120  -32.5549   23.1155 H   0  0  0  0  0  0
  -25.0095  -33.9784   25.0501 H   0  0  0  0  0  0
  -22.6864  -31.3111   21.4198 H   0  0  0  0  0  0
  -23.3741  -35.9611   23.3317 H   0  0  0  0  0  0
  -24.3578  -36.8884   22.2047 H   0  0  0  0  0  0
  -23.7227  -37.6499   23.6637 H   0  0  0  0  0  0
  -26.0335  -31.6064   20.5877 H   0  0  0  0  0  0
  -26.8159  -30.9008   21.9717 H   0  0  0  0  0  0
  -28.0953  -29.1242   21.1638 H   0  0  0  0  0  0
  -26.0507  -25.9811   19.0190 H   0  0  0  0  0  0
  -23.9756  -27.2945   19.0440 H   0  0  0  0  0  0
  -23.7126  -30.6076   19.4104 H   0  0  0  0  0  0
  -22.7277  -29.2510   19.8696 H   0  0  0  0  0  0
  -25.1277  -36.1951   25.0828 H   0  0  0  0  0  0
  -20.9956  -28.3196   24.1464 H   0  0  0  0  0  0
  -20.5699  -26.2245   23.3602 H   0  0  0  0  0  0
  -21.6639  -26.7455   22.1202 H   0  0  0  0  0  0
  -19.6906  -25.6300   21.1240 H   0  0  0  0  0  0
  -19.6701  -27.3200   20.6761 H   0  0  0  0  0  0
  -17.4204  -26.6687   21.4026 H   0  0  0  0  0  0
  -18.0322  -26.0077   22.9029 H   0  0  0  0  0  0
  -19.7924  -30.7251   24.2306 H   0  0  0  0  0  0
  -17.5008  -31.6269   24.5157 H   0  0  0  0  0  0
  -15.5351  -30.3000   23.7621 H   0  0  0  0  0  0
  -15.8669  -28.0835   22.7032 H   0  0  0  0  0  0
  -24.5923  -30.7069   25.7807 H   0  0  0  0  0  0
  -24.8966  -32.2874   26.4896 H   0  0  0  0  0  0
  -25.8119  -30.8903   27.0223 H   0  0  0  0  0  0
  -27.4192  -29.7284   25.4425 H   0  0  0  0  0  0
  -26.2862  -29.6812   24.1093 H   0  0  0  0  0  0
  -27.8643  -30.4437   23.9111 H   0  0  0  0  0  0
  -27.2705  -33.3634   26.2015 H   0  0  0  0  0  0
  -28.3839  -32.6892   25.0231 H   0  0  0  0  0  0
  -28.0750  -31.8464   26.5355 H   0  0  0  0  0  0
  -28.2589  -38.0091   24.7507 H   0  0  0  0  0  0
  -28.1069  -36.2621   24.6302 H   0  0  0  0  0  0
  -27.2296  -37.1457   25.8877 H   0  0  0  0  0  0
  -20.9298  -29.8766   21.7000 H   0  0  0  0  0  0
  -26.0160  -38.2855   24.1458 H   0  0  0  0  0  0
  -29.9206  -20.7016   19.8210 H   0  0  0  0  0  0
  -29.3578  -17.4402   22.5543 H   0  0  0  0  0  0
  -30.0460  -16.8357   17.1394 H   0  0  0  0  0  0
  -29.8177  -15.5129   18.2062 H   0  0  0  0  0  0
  -31.4618  -16.1153   17.9245 H   0  0  0  0  0  0
  -29.9490  -21.8998   17.7216 H   0  0  0  0  0  0
  -31.1161  -22.2189   16.4312 H   0  0  0  0  0  0
  -31.5036  -22.6515   18.1017 H   0  0  0  0  0  0
  -29.8071  -19.5683   17.0879 H   0  0  0  0  0  0
  -31.2456  -18.5739   17.0426 H   0  0  0  0  0  0
  -31.0922  -22.9917   22.4264 H   0  0  0  0  0  0
  -30.7482  -22.1649   20.9587 H   0  0  0  0  0  0
  -30.2715  -24.6368   20.4863 H   0  0  0  0  0  0
  -29.6744  -25.3621   21.9613 H   0  0  0  0  0  0
  -29.8056  -21.3957   23.7829 H   0  0  0  0  0  0
  -31.1054  -20.6260   22.9325 H   0  0  0  0  0  0
  -27.2960  -25.1469   20.9660 H   0  0  0  0  0  0
  -28.0701  -24.7891   19.4293 H   0  0  0  0  0  0
  -29.0478  -15.2041   21.3968 H   0  0  0  0  0  0
  -28.6598  -19.6562   23.0533 H   0  0  0  0  0  0
  1 25  1  0  0  0
  1 30  2  0  0  0
  1 86  1  0  0  0
  2  3  1  0  0  0
  2 25  1  0  0  0
  2 90  1  0  0  0
  2 91  1  0  0  0
  3  4  1  0  0  0
  3 92  1  0  0  0
  3 93  1  0  0  0
  4  5  1  0  0  0
  4 94  1  0  0  0
  4 95  1  0  0  0
  5  6  1  0  0  0
  5 26  1  0  0  0
  5 96  1  0  0  0
  6 25  1  0  0  0
  6 97  1  0  0  0
  6 98  1  0  0  0
  7  8  2  0  0  0
  7 26  1  0  0  0
  7 29  1  0  0  0
  8  9  1  0  0  0
  8 22  1  0  0  0
  9 10  1  0  0  0
  9 27  2  0  0  0
 10 11  2  0  0  0
 10 15  1  0  0  0
 11 12  1  0  0  0
 11 99  1  0  0  0
 12 13  2  0  0  0
 12100  1  0  0  0
 13 14  1  0  0  0
 13 31  1  0  0  0
 14 15  2  0  0  0
 14101  1  0  0  0
 15102  1  0  0  0
 16 17  2  0  0  0
 16 21  1  0  0  0
 16 31  1  0  0  0
 17 18  1  0  0  0
 17103  1  0  0  0
 18 19  2  0  0  0
 18104  1  0  0  0
 19 20  1  0  0  0
 19 24  1  0  0  0
 20 21  2  0  0  0
 20105  1  0  0  0
 21 23  1  0  0  0
 22 28  1  0  0  0
 22 32  2  0  0  0
 26 27  1  0  0  0
 28106  1  0  0  0
 28107  1  0  0  0
 29108  1  0  0  0
 29109  1  0  0  0
 33 34  1  0  0  0
 33 66  1  0  0  0
 33 70  2  0  0  0
 34 36  1  0  0  0
 34 59  1  0  0  0
 34110  1  0  0  0
 35 44  2  0  0  0
 35 45  1  0  0  0
 35 68  1  0  0  0
 36 56  1  0  0  0
 36111  1  0  0  0
 37 39  1  0  0  0
 37 47  1  0  0  0
 37 66  1  0  0  0
 37112  1  0  0  0
 38 43  2  0  0  0
 38 46  1  0  0  0
 38 47  1  0  0  0
 39 64  1  0  0  0
 39 67  2  0  0  0
 40 52  1  0  0  0
 40 53  2  0  0  0
 40 58  1  0  0  0
 41113  1  0  0  0
 41114  1  0  0  0
 41115  1  0  0  0
 41 48  1  0  0  0
 42 43  1  0  0  0
 42 66  1  0  0  0
 42116  1  0  0  0
 42117  1  0  0  0
 43 44  1  0  0  0
 44118  1  0  0  0
 45 46  2  0  0  0
 45119  1  0  0  0
 46120  1  0  0  0
 47121  1  0  0  0
 47122  1  0  0  0
 48 56  1  0  0  0
 48 65  1  0  0  0
 48123  1  0  0  0
 49 50  1  0  0  0
 49 53  1  0  0  0
 49 64  1  0  0  0
 49124  1  0  0  0
 50 51  1  0  0  0
 50125  1  0  0  0
 50126  1  0  0  0
 51 52  1  0  0  0
 51127  1  0  0  0
 51128  1  0  0  0
 52129  1  0  0  0
 52130  1  0  0  0
 53 54  1  0  0  0
 54 55  2  0  0  0
 54131  1  0  0  0
 55 57  1  0  0  0
 55132  1  0  0  0
 56 69  2  0  0  0
 57 58  2  0  0  0
 57133  1  0  0  0
 58134  1  0  0  0
 59 60  1  0  0  0
 59 61  1  0  0  0
 59 62  1  0  0  0
 60135  1  0  0  0
 60136  1  0  0  0
 60137  1  0  0  0
 61138  1  0  0  0
 61139  1  0  0  0
 61140  1  0  0  0
 62141  1  0  0  0
 62142  1  0  0  0
 62143  1  0  0  0
 63 65  1  0  0  0
 63144  1  0  0  0
 63145  1  0  0  0
 63146  1  0  0  0
 64147  1  0  0  0
 65148  1  0  0  0
 68 85  1  0  0  0
 71 73  2  0  0  0
 71 75  1  0  0  0
 71149  1  0  0  0
 72 75  2  0  0  0
 72 76  1  0  0  0
 72150  1  0  0  0
 73 74  1  0  0  0
 73 81  1  0  0  0
 74 76  2  0  0  0
 74 79  1  0  0  0
 75 87  1  0  0  0
 76 86  1  0  0  0
 77 80  1  0  0  0
 77 81  1  0  0  0
 77 88  2  0  0  0
 78 82  1  0  0  0
 78 83  1  0  0  0
 78 89  2  0  0  0
 79151  1  0  0  0
 79152  1  0  0  0
 79153  1  0  0  0
 80154  1  0  0  0
 80155  1  0  0  0
 80156  1  0  0  0
 81157  1  0  0  0
 81158  1  0  0  0
 82 84  1  0  0  0
 82159  1  0  0  0
 82160  1  0  0  0
 83 85  1  0  0  0
 83161  1  0  0  0
 83162  1  0  0  0
 84 87  1  0  0  0
 84163  1  0  0  0
 84164  1  0  0  0
 85165  1  0  0  0
 85166  1  0  0  0
 86167  1  0  0  0
 87168  1  0  0  0
M  ISO  4   1 100  68 101  85 101  86 100
M  END
> <chiral flag>
0

> <version>
0

> <s_m_source_file>
/data/baiqing/PycharmProjects/Reinvent-master-3.2/result/LINK_invent/BTK/process_docking_weight1_custom_product_contain_oxygen_bond_distance_aromatic_linkinvent_7_9_3/rearranged_h_0164.sdf

> <i_m_source_file_index>
81

> <r_mmod_Potential_Energy-OPLS-2005>
-12.9355211257935

> <r_mmod_Stretch_Energy-OPLS-2005>
39.1226234436035

> <r_mmod_Bend_Energy-OPLS-2005>
107.351211547852

> <r_mmod_Torsional_Energy-OPLS-2005>
243.123596191406

> <r_mmod_Improper_Torsional_Energy-OPLS-2005>
9.40480899810791

> <r_mmod_Van_der_Waal_Energy-OPLS-2005>
163.0693359375

> <r_mmod_Electrostatic_Energy-OPLS-2005>
-330.216827392578

> <r_mmod_Solvation_Energy-OPLS-2005>
-259.143249511719

> <b_mmod_Minimization_Converged-OPLS-2005>
0

> <r_mmod_RMS_Derivative-OPLS-2005>
1.9335845708847

$$$$
82
                    3D
 Structure written by MMmdl.
166174  0  0  1  0            999 V2000
  -30.7258  -14.4639   20.5858 C   0  0  0  0  0  0
  -30.4348  -12.3138   19.4086 C   0  0  0  0  0  0
  -29.4907  -12.5013   18.2027 C   0  0  0  0  0  0
  -28.0181  -12.3389   18.6270 C   0  0  0  0  0  0
  -27.6691  -13.1706   19.8863 C   0  0  2  0  0  0
  -28.7236  -12.9751   21.0030 C   0  0  0  0  0  0
  -25.2749  -13.8084   20.5852 C   0  0  0  0  0  0
  -24.1868  -13.0406   20.9102 C   0  0  0  0  0  0
  -24.6352  -11.6851   20.8666 C   0  0  0  0  0  0
  -23.9000  -10.4266   21.0359 C   0  0  0  0  0  0
  -24.3573   -9.4210   21.9150 C   0  0  0  0  0  0
  -23.6273   -8.2241   22.0740 C   0  0  0  0  0  0
  -22.4262   -8.0277   21.3535 C   0  0  0  0  0  0
  -21.9861   -9.0228   20.4636 C   0  0  0  0  0  0
  -22.7168  -10.2105   20.3024 C   0  0  0  0  0  0
  -21.6837   -6.0740   22.5283 C   0  0  0  0  0  0
  -21.4012   -6.5636   23.8223 C   0  0  0  0  0  0
  -21.3650   -5.6785   24.9175 C   0  0  0  0  0  0
  -21.6042   -4.3045   24.7211 C   0  0  0  0  0  0
  -21.8836   -3.8151   23.4331 C   0  0  0  0  0  0
  -21.9197   -4.6975   22.3396 C   0  0  0  0  0  0
  -22.7930  -13.5283   21.1804 C   0  0  0  0  0  0
  -22.1672   -4.2165   21.0971 F   0  0  0  0  0  0
  -21.5624   -3.4522   25.7717 F   0  0  0  0  0  0
  -30.0575  -13.2831   20.4499 N   0  0  0  0  0  0
  -26.3105  -12.9148   20.3512 N   0  0  0  0  0  0
  -25.9290  -11.6347   20.5808 N   0  0  0  0  0  0
  -22.0525  -12.8268   22.0312 N   0  0  0  0  0  0
  -25.4732  -15.1857   20.4845 N   0  0  0  0  0  0
  -31.8001  -14.7046   20.0278 O   0  0  0  0  0  0
  -21.6625   -6.8879   21.4249 O   0  0  0  0  0  0
  -22.3727  -14.5667   20.6743 O   0  0  0  0  0  0
  -24.6113  -31.8714   23.2113 C   0  0  0  0  0  0
  -25.9020  -32.4839   23.8412 C   0  0  1  0  0  0
  -27.2678  -27.4642   20.1058 C   0  0  0  0  0  0
  -25.5882  -33.8631   24.2354 N   0  0  0  0  0  0
  -23.4007  -30.4916   21.5505 C   0  0  2  0  0  0
  -24.8563  -28.9558   20.1240 C   0  0  0  0  0  0
  -22.7399  -29.4662   22.5001 C   0  0  0  0  0  0
  -18.0269  -28.1383   22.8479 C   0  0  0  0  0  0
  -24.1479  -36.7330   23.2634 C   0  0  0  0  0  0
  -25.9246  -30.8433   21.3646 C   0  0  0  0  0  0
  -26.0087  -29.4741   20.7277 C   0  0  0  0  0  0
  -27.2128  -28.7358   20.7281 C   0  0  0  0  0  0
  -26.0994  -26.9636   19.4945 C   0  0  0  0  0  0
  -24.8941  -27.6932   19.5077 C   0  0  0  0  0  0
  -23.6142  -29.8175   20.1683 C   0  0  0  0  0  0
  -25.4097  -36.3126   24.0339 C   0  0  1  0  0  0
  -20.5851  -28.3660   23.1325 C   0  0  2  0  0  0
  -20.6762  -26.9398   22.5422 C   0  0  0  0  0  0
  -19.5750  -26.6384   21.5213 C   0  0  0  0  0  0
  -18.1921  -26.7922   22.1614 C   0  0  0  0  0  0
  -19.1518  -28.8831   23.2897 C   0  0  0  0  0  0
  -18.9441  -30.1427   23.8932 C   0  0  0  0  0  0
  -17.6454  -30.6580   24.0566 C   0  0  0  0  0  0
  -25.9026  -34.9490   23.5140 C   0  0  0  0  0  0
  -16.5343  -29.9092   23.6313 C   0  0  0  0  0  0
  -16.7259  -28.6505   23.0326 C   0  0  0  0  0  0
  -26.4465  -31.6581   25.0720 C   0  0  0  0  0  0
  -25.3727  -31.3670   26.1463 C   0  0  0  0  0  0
  -27.0288  -30.3020   24.6063 C   0  0  0  0  0  0
  -27.6060  -32.4267   25.7493 C   0  0  0  0  0  0
  -27.5582  -37.1815   24.8457 C   0  0  0  0  0  0
  -21.4124  -29.3029   22.3737 N   0  0  0  0  0  0
  -26.4295  -37.3805   23.9410 N   0  0  0  0  0  0
  -24.6631  -31.0834   22.1009 N   0  0  0  0  0  0
  -23.4171  -28.8221   23.3049 O   0  0  0  0  0  0
  -28.4043  -26.6828   20.0036 O   0  0  0  0  0  0
  -26.5598  -34.8938   22.4708 O   0  0  0  0  0  0
  -23.5305  -32.1459   23.7520 O   0  0  0  0  0  0
  -29.0439  -19.3436   20.2349 C   0  0  0  0  0  0
  -28.7443  -16.9399   20.0597 C   0  0  0  0  0  0
  -30.5705  -17.8364   21.3990 C   0  0  0  0  0  0
  -28.3312  -18.2389   19.7280 C   0  0  0  0  0  0
  -30.1912  -19.1628   21.0582 C   0  0  0  0  0  0
  -29.8457  -16.7194   20.9102 C   0  0  0  0  0  0
  -30.0487  -24.5643   22.2702 C   0  0  0  0  0  0
  -30.8828  -21.4136   21.1028 C   0  0  0  0  0  0
  -27.1679  -18.4283   18.8557 C   0  0  0  0  0  0
  -30.8238  -23.9182   21.3643 C   0  0  0  0  0  0
  -29.2450  -25.8072   22.1199 C   0  0  0  0  0  0
  -33.0784  -22.6791   21.2458 C   0  0  0  0  0  0
  -29.4591  -26.8009   20.9660 C   0  0  0  0  0  0
  -31.5994  -22.6293   21.6833 C   0  0  2  0  0  0
  -30.9389  -20.2341   21.5954 N   0  0  0  0  0  0
  -27.1739  -19.3826   17.9297 N   0  0  0  0  0  0
  -30.1131  -15.3880   21.3439 N   0  0  0  0  0  0
  -26.0888  -17.6487   18.9442 N   0  3  0  0  0  0
  -28.3707  -26.0792   22.9480 O   0  0  0  0  0  0
  -31.0320  -24.2883   20.0857 O   0  0  0  0  0  0
  -31.4739  -12.4260   19.0919 H   0  0  0  0  0  0
  -30.3564  -11.2999   19.8017 H   0  0  0  0  0  0
  -29.7331  -11.7761   17.4238 H   0  0  0  0  0  0
  -29.6404  -13.4890   17.7623 H   0  0  0  0  0  0
  -27.8404  -11.2815   18.8217 H   0  0  0  0  0  0
  -27.3551  -12.6106   17.8055 H   0  0  0  0  0  0
  -27.6956  -14.1980   19.5611 H   0  0  0  0  0  0
  -28.7108  -11.9432   21.3572 H   0  0  0  0  0  0
  -28.4752  -13.5778   21.8773 H   0  0  0  0  0  0
  -25.2724   -9.5704   22.4699 H   0  0  0  0  0  0
  -23.9984   -7.4643   22.7474 H   0  0  0  0  0  0
  -21.0775   -8.8733   19.8971 H   0  0  0  0  0  0
  -22.3620  -10.9630   19.6116 H   0  0  0  0  0  0
  -21.2017   -7.6145   23.9713 H   0  0  0  0  0  0
  -21.1445   -6.0518   25.9073 H   0  0  0  0  0  0
  -22.0629   -2.7617   23.2813 H   0  0  0  0  0  0
  -22.4041  -11.9820   22.4573 H   0  0  0  0  0  0
  -21.1186  -13.1400   22.2534 H   0  0  0  0  0  0
  -24.6271  -15.6477   20.8055 H   0  0  0  0  0  0
  -26.2419  -15.4352   21.0973 H   0  0  0  0  0  0
  -26.7101  -32.5608   23.1210 H   0  0  0  0  0  0
  -25.0026  -33.9798   25.0490 H   0  0  0  0  0  0
  -22.6884  -31.3062   21.4085 H   0  0  0  0  0  0
  -23.3740  -35.9666   23.3300 H   0  0  0  0  0  0
  -24.3573  -36.8938   22.2047 H   0  0  0  0  0  0
  -23.7224  -37.6534   23.6639 H   0  0  0  0  0  0
  -26.0269  -31.6009   20.5868 H   0  0  0  0  0  0
  -26.8151  -30.9119   21.9768 H   0  0  0  0  0  0
  -28.0841  -29.1747   21.1881 H   0  0  0  0  0  0
  -26.1254  -26.0028   18.9982 H   0  0  0  0  0  0
  -24.0111  -27.2902   19.0306 H   0  0  0  0  0  0
  -23.7213  -30.5879   19.4045 H   0  0  0  0  0  0
  -22.7429  -29.2290   19.8731 H   0  0  0  0  0  0
  -25.1263  -36.2007   25.0829 H   0  0  0  0  0  0
  -20.9934  -28.3237   24.1454 H   0  0  0  0  0  0
  -20.5670  -26.2266   23.3608 H   0  0  0  0  0  0
  -21.6632  -26.7464   22.1220 H   0  0  0  0  0  0
  -19.6906  -25.6297   21.1235 H   0  0  0  0  0  0
  -19.6692  -27.3205   20.6758 H   0  0  0  0  0  0
  -17.4185  -26.6655   21.4015 H   0  0  0  0  0  0
  -18.0339  -26.0058   22.9013 H   0  0  0  0  0  0
  -19.7923  -30.7198   24.2345 H   0  0  0  0  0  0
  -17.5018  -31.6263   24.5161 H   0  0  0  0  0  0
  -15.5343  -30.3006   23.7604 H   0  0  0  0  0  0
  -15.8661  -28.0836   22.7024 H   0  0  0  0  0  0
  -24.5895  -30.7043   25.7762 H   0  0  0  0  0  0
  -24.8945  -32.2822   26.4950 H   0  0  0  0  0  0
  -25.8068  -30.8780   27.0192 H   0  0  0  0  0  0
  -26.2822  -29.6791   24.1121 H   0  0  0  0  0  0
  -27.4061  -29.7235   25.4505 H   0  0  0  0  0  0
  -27.8656  -30.4335   23.9205 H   0  0  0  0  0  0
  -27.2698  -33.3542   26.2142 H   0  0  0  0  0  0
  -28.3852  -32.6844   25.0309 H   0  0  0  0  0  0
  -28.0755  -31.8334   26.5355 H   0  0  0  0  0  0
  -28.2587  -38.0130   24.7528 H   0  0  0  0  0  0
  -28.1090  -36.2657   24.6245 H   0  0  0  0  0  0
  -27.2311  -37.1424   25.8865 H   0  0  0  0  0  0
  -20.9290  -29.8742   21.6952 H   0  0  0  0  0  0
  -26.0187  -38.2882   24.1420 H   0  0  0  0  0  0
  -28.6752  -20.3290   19.9875 H   0  0  0  0  0  0
  -28.1944  -16.1166   19.6494 H   0  0  0  0  0  0
  -31.4124  -17.6792   22.0581 H   0  0  0  0  0  0
  -29.9871  -24.1258   23.2555 H   0  0  0  0  0  0
  -30.3064  -21.6542   20.2063 H   0  0  0  0  0  0
  -33.6289  -21.8177   21.6265 H   0  0  0  0  0  0
  -33.5758  -23.5708   21.6280 H   0  0  0  0  0  0
  -33.1847  -22.6792   20.1608 H   0  0  0  0  0  0
  -30.4123  -26.6035   20.4785 H   0  0  0  0  0  0
  -29.5545  -27.8060   21.3708 H   0  0  0  0  0  0
  -31.5973  -22.5191   22.7700 H   0  0  0  0  0  0
  -28.0130  -19.9246   17.7900 H   0  0  0  0  0  0
  -26.4119  -19.5213   17.2868 H   0  0  0  0  0  0
  -29.3722  -14.9765   21.8893 H   0  0  0  0  0  0
  -26.0485  -16.8595   19.5885 H   0  0  0  0  0  0
  -25.2900  -17.7728   18.3443 H   0  0  0  0  0  0
  -30.5037  -25.0498   19.8904 H   0  0  0  0  0  0
  1 25  1  0  0  0
  1 30  2  0  0  0
  1 87  1  0  0  0
  2  3  1  0  0  0
  2 25  1  0  0  0
  2 91  1  0  0  0
  2 92  1  0  0  0
  3  4  1  0  0  0
  3 93  1  0  0  0
  3 94  1  0  0  0
  4  5  1  0  0  0
  4 95  1  0  0  0
  4 96  1  0  0  0
  5  6  1  0  0  0
  5 26  1  0  0  0
  5 97  1  0  0  0
  6 25  1  0  0  0
  6 98  1  0  0  0
  6 99  1  0  0  0
  7  8  2  0  0  0
  7 26  1  0  0  0
  7 29  1  0  0  0
  8  9  1  0  0  0
  8 22  1  0  0  0
  9 10  1  0  0  0
  9 27  2  0  0  0
 10 11  2  0  0  0
 10 15  1  0  0  0
 11 12  1  0  0  0
 11100  1  0  0  0
 12 13  2  0  0  0
 12101  1  0  0  0
 13 14  1  0  0  0
 13 31  1  0  0  0
 14 15  2  0  0  0
 14102  1  0  0  0
 15103  1  0  0  0
 16 17  2  0  0  0
 16 21  1  0  0  0
 16 31  1  0  0  0
 17 18  1  0  0  0
 17104  1  0  0  0
 18 19  2  0  0  0
 18105  1  0  0  0
 19 20  1  0  0  0
 19 24  1  0  0  0
 20 21  2  0  0  0
 20106  1  0  0  0
 21 23  1  0  0  0
 22 28  1  0  0  0
 22 32  2  0  0  0
 26 27  1  0  0  0
 28107  1  0  0  0
 28108  1  0  0  0
 29109  1  0  0  0
 29110  1  0  0  0
 33 34  1  0  0  0
 33 66  1  0  0  0
 33 70  2  0  0  0
 34 36  1  0  0  0
 34 59  1  0  0  0
 34111  1  0  0  0
 35 44  2  0  0  0
 35 45  1  0  0  0
 35 68  1  0  0  0
 36 56  1  0  0  0
 36112  1  0  0  0
 37 39  1  0  0  0
 37 47  1  0  0  0
 37 66  1  0  0  0
 37113  1  0  0  0
 38 43  2  0  0  0
 38 46  1  0  0  0
 38 47  1  0  0  0
 39 64  1  0  0  0
 39 67  2  0  0  0
 40 52  1  0  0  0
 40 53  2  0  0  0
 40 58  1  0  0  0
 41114  1  0  0  0
 41115  1  0  0  0
 41116  1  0  0  0
 41 48  1  0  0  0
 42 43  1  0  0  0
 42 66  1  0  0  0
 42117  1  0  0  0
 42118  1  0  0  0
 43 44  1  0  0  0
 44119  1  0  0  0
 45 46  2  0  0  0
 45120  1  0  0  0
 46121  1  0  0  0
 47122  1  0  0  0
 47123  1  0  0  0
 48 56  1  0  0  0
 48 65  1  0  0  0
 48124  1  0  0  0
 49 50  1  0  0  0
 49 53  1  0  0  0
 49 64  1  0  0  0
 49125  1  0  0  0
 50 51  1  0  0  0
 50126  1  0  0  0
 50127  1  0  0  0
 51 52  1  0  0  0
 51128  1  0  0  0
 51129  1  0  0  0
 52130  1  0  0  0
 52131  1  0  0  0
 53 54  1  0  0  0
 54 55  2  0  0  0
 54132  1  0  0  0
 55 57  1  0  0  0
 55133  1  0  0  0
 56 69  2  0  0  0
 57 58  2  0  0  0
 57134  1  0  0  0
 58135  1  0  0  0
 59 60  1  0  0  0
 59 61  1  0  0  0
 59 62  1  0  0  0
 60136  1  0  0  0
 60137  1  0  0  0
 60138  1  0  0  0
 61139  1  0  0  0
 61140  1  0  0  0
 61141  1  0  0  0
 62142  1  0  0  0
 62143  1  0  0  0
 62144  1  0  0  0
 63 65  1  0  0  0
 63145  1  0  0  0
 63146  1  0  0  0
 63147  1  0  0  0
 64148  1  0  0  0
 65149  1  0  0  0
 68 83  1  0  0  0
 71 74  2  0  0  0
 71 75  1  0  0  0
 71150  1  0  0  0
 72 74  1  0  0  0
 72 76  2  0  0  0
 72151  1  0  0  0
 73 75  2  0  0  0
 73 76  1  0  0  0
 73152  1  0  0  0
 74 79  1  0  0  0
 75 85  1  0  0  0
 76 87  1  0  0  0
 77 80  2  0  0  0
 77 81  1  0  0  0
 77153  1  0  0  0
 78 84  1  0  0  0
 78 85  2  0  0  0
 78154  1  0  0  0
 79 86  1  0  0  0
 79 88  2  0  0  0
 80 84  1  0  0  0
 80 90  1  0  0  0
 81 83  1  0  0  0
 81 89  2  0  0  0
 82155  1  0  0  0
 82156  1  0  0  0
 82157  1  0  0  0
 82 84  1  0  0  0
 83158  1  0  0  0
 83159  1  0  0  0
 84160  1  0  0  0
 86161  1  0  0  0
 86162  1  0  0  0
 87163  1  0  0  0
 88164  1  0  0  0
 88165  1  0  0  0
 90166  1  0  0  0
M  CHG  1  88   1
M  ISO  4   1 100  68 101  83 101  87 100
M  END
> <chiral flag>
0

> <version>
0

> <s_m_source_file>
/data/baiqing/PycharmProjects/Reinvent-master-3.2/result/LINK_invent/BTK/process_docking_weight1_custom_product_contain_oxygen_bond_distance_aromatic_linkinvent_7_9_3/rearranged_h_0164.sdf

> <i_m_source_file_index>
82

> <r_mmod_Potential_Energy-OPLS-2005>
-267.5302734375

> <r_mmod_Stretch_Energy-OPLS-2005>
41.2778472900391

> <r_mmod_Bend_Energy-OPLS-2005>
122.715698242188

> <r_mmod_Torsional_Energy-OPLS-2005>
248.323684692383

> <r_mmod_Improper_Torsional_Energy-OPLS-2005>
12.2667512893677

> <r_mmod_Van_der_Waal_Energy-OPLS-2005>
164.680877685547

> <r_mmod_Electrostatic_Energy-OPLS-2005>
-413.009857177734

> <r_mmod_Solvation_Energy-OPLS-2005>
-454.552490234375

> <b_mmod_Minimization_Converged-OPLS-2005>
0

> <r_mmod_RMS_Derivative-OPLS-2005>
3.25152778625488

$$$$
83
                    3D
 Structure written by MMmdl.
171179  0  0  1  0            999 V2000
  -30.5946  -14.5337   20.5985 C   0  0  0  0  0  0
  -30.4568  -12.3530   19.4065 C   0  0  0  0  0  0
  -29.5051  -12.5204   18.1993 C   0  0  0  0  0  0
  -28.0229  -12.3598   18.6059 C   0  0  0  0  0  0
  -27.6625  -13.1854   19.8682 C   0  0  2  0  0  0
  -28.7037  -12.9159   20.9771 C   0  0  0  0  0  0
  -25.2623  -13.8117   20.5637 C   0  0  0  0  0  0
  -24.1851  -13.0428   20.9148 C   0  0  0  0  0  0
  -24.6363  -11.6876   20.8715 C   0  0  0  0  0  0
  -23.9018  -10.4280   21.0395 C   0  0  0  0  0  0
  -24.3587   -9.4209   21.9184 C   0  0  0  0  0  0
  -23.6269   -8.2240   22.0757 C   0  0  0  0  0  0
  -22.4259   -8.0274   21.3540 C   0  0  0  0  0  0
  -21.9884   -9.0249   20.4649 C   0  0  0  0  0  0
  -22.7189  -10.2136   20.3046 C   0  0  0  0  0  0
  -21.6842   -6.0726   22.5275 C   0  0  0  0  0  0
  -21.4006   -6.5626   23.8211 C   0  0  0  0  0  0
  -21.3651   -5.6783   24.9173 C   0  0  0  0  0  0
  -21.6042   -4.3049   24.7213 C   0  0  0  0  0  0
  -21.8812   -3.8127   23.4345 C   0  0  0  0  0  0
  -21.9191   -4.6948   22.3405 C   0  0  0  0  0  0
  -22.7883  -13.5267   21.1812 C   0  0  0  0  0  0
  -22.1667   -4.2140   21.0980 F   0  0  0  0  0  0
  -21.5622   -3.4530   25.7733 F   0  0  0  0  0  0
  -30.0305  -13.3005   20.4481 N   0  0  0  0  0  0
  -26.3014  -12.9219   20.3286 N   0  0  0  0  0  0
  -25.9270  -11.6401   20.5704 N   0  0  0  0  0  0
  -22.0493  -12.8303   22.0374 N   0  0  0  0  0  0
  -25.4425  -15.1835   20.4063 N   0  0  0  0  0  0
  -31.6945  -14.8418   20.1220 O   0  0  0  0  0  0
  -21.6620   -6.8875   21.4237 O   0  0  0  0  0  0
  -22.3596  -14.5581   20.6654 O   0  0  0  0  0  0
  -24.6195  -31.8630   23.2050 C   0  0  0  0  0  0
  -25.9077  -32.4784   23.8362 C   0  0  1  0  0  0
  -27.2376  -27.3849   20.0779 C   0  0  0  0  0  0
  -25.5917  -33.8587   24.2289 N   0  0  0  0  0  0
  -23.4094  -30.4859   21.5480 C   0  0  2  0  0  0
  -24.8537  -28.9455   20.1131 C   0  0  0  0  0  0
  -22.7436  -29.4630   22.4973 C   0  0  0  0  0  0
  -18.0281  -28.1377   22.8489 C   0  0  0  0  0  0
  -24.1492  -36.7298   23.2636 C   0  0  0  0  0  0
  -25.9448  -30.8080   21.3696 C   0  0  0  0  0  0
  -26.0177  -29.4407   20.7109 C   0  0  0  0  0  0
  -27.2069  -28.6678   20.6907 C   0  0  0  0  0  0
  -26.0392  -26.9071   19.4951 C   0  0  0  0  0  0
  -24.8617  -27.6789   19.5075 C   0  0  0  0  0  0
  -23.6185  -29.8181   20.1636 C   0  0  0  0  0  0
  -25.4115  -36.3088   24.0331 C   0  0  1  0  0  0
  -20.5868  -28.3673   23.1302 C   0  0  2  0  0  0
  -20.6761  -26.9401   22.5411 C   0  0  0  0  0  0
  -19.5745  -26.6381   21.5201 C   0  0  0  0  0  0
  -18.1926  -26.7928   22.1615 C   0  0  0  0  0  0
  -19.1530  -28.8842   23.2891 C   0  0  0  0  0  0
  -18.9457  -30.1450   23.8897 C   0  0  0  0  0  0
  -17.6457  -30.6580   24.0565 C   0  0  0  0  0  0
  -25.9043  -34.9451   23.5106 C   0  0  0  0  0  0
  -16.5351  -29.9082   23.6325 C   0  0  0  0  0  0
  -16.7271  -28.6499   23.0348 C   0  0  0  0  0  0
  -26.4488  -31.6584   25.0716 C   0  0  0  0  0  0
  -25.3738  -31.3741   26.1458 C   0  0  0  0  0  0
  -27.0321  -30.3011   24.6145 C   0  0  0  0  0  0
  -27.6065  -32.4317   25.7469 C   0  0  0  0  0  0
  -27.5585  -37.1806   24.8461 C   0  0  0  0  0  0
  -21.4160  -29.3030   22.3705 N   0  0  0  0  0  0
  -26.4300  -37.3773   23.9399 N   0  0  0  0  0  0
  -24.6763  -31.0679   22.0984 N   0  0  0  0  0  0
  -23.4184  -28.8167   23.3029 O   0  0  0  0  0  0
  -28.4193  -26.6484   20.1009 O   0  0  0  0  0  0
  -26.5608  -34.8914   22.4668 O   0  0  0  0  0  0
  -23.5376  -32.1419   23.7416 O   0  0  0  0  0  0
  -29.8694  -17.8584   20.6417 C   0  0  0  0  0  0
  -28.9613  -19.4255   22.2938 C   0  0  0  0  0  0
  -29.1322  -17.0584   22.8205 C   0  0  0  0  0  0
  -29.4929  -19.1972   20.9999 C   0  0  0  0  0  0
  -29.6853  -16.7788   21.5554 C   0  0  0  0  0  0
  -28.7704  -18.3616   23.1999 C   0  0  0  0  0  0
  -29.5964  -20.3522   20.0092 C   0  0  0  0  0  0
  -29.8266  -25.6059   18.4354 C   0  0  0  0  0  0
  -27.3410  -19.6225   26.4659 C   0  0  0  0  0  0
  -29.7800  -25.0062   17.0332 C   0  0  0  0  0  0
  -26.2271  -20.6818   28.3923 C   0  0  0  0  0  0
  -27.9716  -19.8280   25.0830 C   0  0  0  0  0  0
  -28.7251  -24.1385   20.2381 C   0  0  0  0  0  0
  -29.0665  -22.7799   19.5155 C   0  0  0  0  0  0
  -28.5906  -25.4207   19.3315 C   0  0  1  0  0  0
  -29.7731  -15.3762   21.2669 N   0  0  0  0  0  0
  -28.1795  -18.5295   24.4572 N   0  0  0  0  0  0
  -29.1444  -21.5783   20.3843 N   0  0  0  0  0  0
  -26.8692  -20.7044   27.0845 N   0  0  0  0  0  0
  -30.0595  -20.1546   18.8850 O   0  0  0  0  0  0
  -30.8356  -26.1977   18.8300 O   0  0  0  0  0  0
  -27.2781  -18.4938   26.9648 O   0  0  0  0  0  0
  -31.4922  -12.5208   19.1041 H   0  0  0  0  0  0
  -30.4206  -11.3330   19.7930 H   0  0  0  0  0  0
  -29.7587  -11.8005   17.4203 H   0  0  0  0  0  0
  -29.6519  -13.5075   17.7567 H   0  0  0  0  0  0
  -27.8432  -11.3006   18.7937 H   0  0  0  0  0  0
  -27.3741  -12.6334   17.7741 H   0  0  0  0  0  0
  -27.7129  -14.2378   19.5848 H   0  0  0  0  0  0
  -28.7099  -11.8544   21.2301 H   0  0  0  0  0  0
  -28.4336  -13.4154   21.9091 H   0  0  0  0  0  0
  -25.2742   -9.5672   22.4748 H   0  0  0  0  0  0
  -23.9968   -7.4631   22.7487 H   0  0  0  0  0  0
  -21.0809   -8.8772   19.8971 H   0  0  0  0  0  0
  -22.3664  -10.9680   19.6142 H   0  0  0  0  0  0
  -21.2004   -7.6144   23.9725 H   0  0  0  0  0  0
  -21.1481   -6.0510   25.9088 H   0  0  0  0  0  0
  -22.0601   -2.7580   23.2852 H   0  0  0  0  0  0
  -22.4044  -11.9943   22.4774 H   0  0  0  0  0  0
  -21.1120  -13.1382   22.2551 H   0  0  0  0  0  0
  -24.6840  -15.8476   20.5218 H   0  0  0  0  0  0
  -26.2996  -15.6180   20.0878 H   0  0  0  0  0  0
  -26.7137  -32.5468   23.1108 H   0  0  0  0  0  0
  -25.0077  -33.9733   25.0443 H   0  0  0  0  0  0
  -22.6998  -31.3037   21.4074 H   0  0  0  0  0  0
  -23.3738  -35.9650   23.3322 H   0  0  0  0  0  0
  -24.3578  -36.8887   22.2047 H   0  0  0  0  0  0
  -23.7260  -37.6516   23.6636 H   0  0  0  0  0  0
  -26.0726  -31.5738   20.6039 H   0  0  0  0  0  0
  -26.8265  -30.8513   21.9973 H   0  0  0  0  0  0
  -28.1061  -29.0503   21.1536 H   0  0  0  0  0  0
  -25.9658  -25.9315   19.0409 H   0  0  0  0  0  0
  -23.9614  -27.2854   19.0552 H   0  0  0  0  0  0
  -23.7295  -30.5931   19.4049 H   0  0  0  0  0  0
  -22.7408  -29.2423   19.8652 H   0  0  0  0  0  0
  -25.1294  -36.1951   25.0825 H   0  0  0  0  0  0
  -20.9960  -28.3238   24.1424 H   0  0  0  0  0  0
  -20.5648  -26.2279   23.3603 H   0  0  0  0  0  0
  -21.6636  -26.7423   22.1211 H   0  0  0  0  0  0
  -19.6904  -25.6291   21.1224 H   0  0  0  0  0  0
  -19.6690  -27.3197   20.6738 H   0  0  0  0  0  0
  -17.4194  -26.6683   21.4015 H   0  0  0  0  0  0
  -18.0331  -26.0058   22.9003 H   0  0  0  0  0  0
  -19.7933  -30.7275   24.2255 H   0  0  0  0  0  0
  -17.5008  -31.6252   24.5180 H   0  0  0  0  0  0
  -15.5352  -30.2986   23.7638 H   0  0  0  0  0  0
  -15.8672  -28.0817   22.7060 H   0  0  0  0  0  0
  -24.5890  -30.7111   25.7798 H   0  0  0  0  0  0
  -24.8962  -32.2922   26.4889 H   0  0  0  0  0  0
  -25.8067  -30.8910   27.0222 H   0  0  0  0  0  0
  -26.2882  -29.6766   24.1182 H   0  0  0  0  0  0
  -27.4043  -29.7263   25.4633 H   0  0  0  0  0  0
  -27.8741  -30.4304   23.9343 H   0  0  0  0  0  0
  -27.2681  -33.3601   26.2082 H   0  0  0  0  0  0
  -28.3851  -32.6901   25.0282 H   0  0  0  0  0  0
  -28.0758  -31.8424   26.5354 H   0  0  0  0  0  0
  -28.2615  -38.0093   24.7477 H   0  0  0  0  0  0
  -28.1068  -36.2618   24.6315 H   0  0  0  0  0  0
  -27.2297  -37.1482   25.8864 H   0  0  0  0  0  0
  -20.9329  -29.8778   21.6945 H   0  0  0  0  0  0
  -26.0187  -38.2852   24.1385 H   0  0  0  0  0  0
  -30.2320  -17.6603   19.6432 H   0  0  0  0  0  0
  -28.6544  -20.4187   22.5817 H   0  0  0  0  0  0
  -28.9416  -16.2450   23.5077 H   0  0  0  0  0  0
  -29.0037  -24.2447   16.9583 H   0  0  0  0  0  0
  -30.7351  -24.5468   16.7782 H   0  0  0  0  0  0
  -29.5675  -25.7850   16.3009 H   0  0  0  0  0  0
  -25.9030  -21.6821   28.6801 H   0  0  0  0  0  0
  -26.9158  -20.3152   29.1544 H   0  0  0  0  0  0
  -25.3515  -20.0311   28.3807 H   0  0  0  0  0  0
  -28.9251  -20.3463   25.2016 H   0  0  0  0  0  0
  -27.3143  -20.4531   24.4755 H   0  0  0  0  0  0
  -29.4844  -24.3323   20.9961 H   0  0  0  0  0  0
  -27.7888  -24.0240   20.7837 H   0  0  0  0  0  0
  -30.0215  -22.8716   18.9962 H   0  0  0  0  0  0
  -28.3200  -22.5857   18.7435 H   0  0  0  0  0  0
  -27.7725  -25.2640   18.6351 H   0  0  0  0  0  0
  -29.0061  -14.8530   21.6597 H   0  0  0  0  0  0
  -27.9882  -17.7346   25.0669 H   0  0  0  0  0  0
  -28.7808  -21.6616   21.3229 H   0  0  0  0  0  0
  -26.9480  -21.5961   26.6113 H   0  0  0  0  0  0
  1 25  1  0  0  0
  1 30  2  0  0  0
  1 86  1  0  0  0
  2  3  1  0  0  0
  2 25  1  0  0  0
  2 93  1  0  0  0
  2 94  1  0  0  0
  3  4  1  0  0  0
  3 95  1  0  0  0
  3 96  1  0  0  0
  4  5  1  0  0  0
  4 97  1  0  0  0
  4 98  1  0  0  0
  5  6  1  0  0  0
  5 26  1  0  0  0
  5 99  1  0  0  0
  6 25  1  0  0  0
  6100  1  0  0  0
  6101  1  0  0  0
  7  8  2  0  0  0
  7 26  1  0  0  0
  7 29  1  0  0  0
  8  9  1  0  0  0
  8 22  1  0  0  0
  9 10  1  0  0  0
  9 27  2  0  0  0
 10 11  2  0  0  0
 10 15  1  0  0  0
 11 12  1  0  0  0
 11102  1  0  0  0
 12 13  2  0  0  0
 12103  1  0  0  0
 13 14  1  0  0  0
 13 31  1  0  0  0
 14 15  2  0  0  0
 14104  1  0  0  0
 15105  1  0  0  0
 16 17  2  0  0  0
 16 21  1  0  0  0
 16 31  1  0  0  0
 17 18  1  0  0  0
 17106  1  0  0  0
 18 19  2  0  0  0
 18107  1  0  0  0
 19 20  1  0  0  0
 19 24  1  0  0  0
 20 21  2  0  0  0
 20108  1  0  0  0
 21 23  1  0  0  0
 22 28  1  0  0  0
 22 32  2  0  0  0
 26 27  1  0  0  0
 28109  1  0  0  0
 28110  1  0  0  0
 29111  1  0  0  0
 29112  1  0  0  0
 33 34  1  0  0  0
 33 66  1  0  0  0
 33 70  2  0  0  0
 34 36  1  0  0  0
 34 59  1  0  0  0
 34113  1  0  0  0
 35 44  2  0  0  0
 35 45  1  0  0  0
 35 68  1  0  0  0
 36 56  1  0  0  0
 36114  1  0  0  0
 37 39  1  0  0  0
 37 47  1  0  0  0
 37 66  1  0  0  0
 37115  1  0  0  0
 38 43  2  0  0  0
 38 46  1  0  0  0
 38 47  1  0  0  0
 39 64  1  0  0  0
 39 67  2  0  0  0
 40 52  1  0  0  0
 40 53  2  0  0  0
 40 58  1  0  0  0
 41116  1  0  0  0
 41117  1  0  0  0
 41118  1  0  0  0
 41 48  1  0  0  0
 42 43  1  0  0  0
 42 66  1  0  0  0
 42119  1  0  0  0
 42120  1  0  0  0
 43 44  1  0  0  0
 44121  1  0  0  0
 45 46  2  0  0  0
 45122  1  0  0  0
 46123  1  0  0  0
 47124  1  0  0  0
 47125  1  0  0  0
 48 56  1  0  0  0
 48 65  1  0  0  0
 48126  1  0  0  0
 49 50  1  0  0  0
 49 53  1  0  0  0
 49 64  1  0  0  0
 49127  1  0  0  0
 50 51  1  0  0  0
 50128  1  0  0  0
 50129  1  0  0  0
 51 52  1  0  0  0
 51130  1  0  0  0
 51131  1  0  0  0
 52132  1  0  0  0
 52133  1  0  0  0
 53 54  1  0  0  0
 54 55  2  0  0  0
 54134  1  0  0  0
 55 57  1  0  0  0
 55135  1  0  0  0
 56 69  2  0  0  0
 57 58  2  0  0  0
 57136  1  0  0  0
 58137  1  0  0  0
 59 60  1  0  0  0
 59 61  1  0  0  0
 59 62  1  0  0  0
 60138  1  0  0  0
 60139  1  0  0  0
 60140  1  0  0  0
 61141  1  0  0  0
 61142  1  0  0  0
 61143  1  0  0  0
 62144  1  0  0  0
 62145  1  0  0  0
 62146  1  0  0  0
 63 65  1  0  0  0
 63147  1  0  0  0
 63148  1  0  0  0
 63149  1  0  0  0
 64150  1  0  0  0
 65151  1  0  0  0
 68 85  1  0  0  0
 71 74  2  0  0  0
 71 75  1  0  0  0
 71152  1  0  0  0
 72 74  1  0  0  0
 72 76  2  0  0  0
 72153  1  0  0  0
 73 75  2  0  0  0
 73 76  1  0  0  0
 73154  1  0  0  0
 74 77  1  0  0  0
 75 86  1  0  0  0
 76 87  1  0  0  0
 77 88  1  0  0  0
 77 90  2  0  0  0
 78 80  1  0  0  0
 78 85  1  0  0  0
 78 91  2  0  0  0
 79 82  1  0  0  0
 79 89  1  0  0  0
 79 92  2  0  0  0
 80155  1  0  0  0
 80156  1  0  0  0
 80157  1  0  0  0
 81 89  1  0  0  0
 81158  1  0  0  0
 81159  1  0  0  0
 81160  1  0  0  0
 82 87  1  0  0  0
 82161  1  0  0  0
 82162  1  0  0  0
 83 84  1  0  0  0
 83163  1  0  0  0
 83164  1  0  0  0
 83 85  1  0  0  0
 84 88  1  0  0  0
 84165  1  0  0  0
 84166  1  0  0  0
 85167  1  0  0  0
 86168  1  0  0  0
 87169  1  0  0  0
 88170  1  0  0  0
 89171  1  0  0  0
M  ISO  4   1 100  68 101  85 101  86 100
M  END
> <chiral flag>
0

> <version>
0

> <s_m_source_file>
/data/baiqing/PycharmProjects/Reinvent-master-3.2/result/LINK_invent/BTK/process_docking_weight1_custom_product_contain_oxygen_bond_distance_aromatic_linkinvent_7_9_3/rearranged_h_0164.sdf

> <i_m_source_file_index>
83

> <r_mmod_Potential_Energy-OPLS-2005>
-204.427932739258

> <r_mmod_Stretch_Energy-OPLS-2005>
55.0329055786133

> <r_mmod_Bend_Energy-OPLS-2005>
159.55647277832

> <r_mmod_Torsional_Energy-OPLS-2005>
217.126571655273

> <r_mmod_Improper_Torsional_Energy-OPLS-2005>
4.37469863891602

> <r_mmod_Van_der_Waal_Energy-OPLS-2005>
158.579147338867

> <r_mmod_Electrostatic_Energy-OPLS-2005>
-518.179321289062

> <r_mmod_Solvation_Energy-OPLS-2005>
-306.292633056641

> <b_mmod_Minimization_Converged-OPLS-2005>
0

> <r_mmod_RMS_Derivative-OPLS-2005>
2.67314291000366

$$$$
84
                    3D
 Structure written by MMmdl.
162171  0  0  1  0            999 V2000
  -30.7214  -14.4697   20.5607 C   0  0  0  0  0  0
  -30.4166  -12.3025   19.4253 C   0  0  0  0  0  0
  -29.4919  -12.4957   18.2064 C   0  0  0  0  0  0
  -28.0142  -12.3579   18.6218 C   0  0  0  0  0  0
  -27.6601  -13.2091   19.8710 C   0  0  2  0  0  0
  -28.7037  -13.0119   20.9945 C   0  0  0  0  0  0
  -25.2591  -13.8164   20.5690 C   0  0  0  0  0  0
  -24.1842  -13.0439   20.9186 C   0  0  0  0  0  0
  -24.6395  -11.6905   20.8743 C   0  0  0  0  0  0
  -23.9064  -10.4292   21.0408 C   0  0  0  0  0  0
  -24.3616   -9.4208   21.9188 C   0  0  0  0  0  0
  -23.6294   -8.2243   22.0754 C   0  0  0  0  0  0
  -22.4277   -8.0279   21.3542 C   0  0  0  0  0  0
  -21.9913   -9.0253   20.4649 C   0  0  0  0  0  0
  -22.7237  -10.2134   20.3057 C   0  0  0  0  0  0
  -21.6852   -6.0739   22.5282 C   0  0  0  0  0  0
  -21.4010   -6.5643   23.8214 C   0  0  0  0  0  0
  -21.3659   -5.6796   24.9176 C   0  0  0  0  0  0
  -21.6043   -4.3059   24.7226 C   0  0  0  0  0  0
  -21.8819   -3.8149   23.4348 C   0  0  0  0  0  0
  -21.9194   -4.6967   22.3406 C   0  0  0  0  0  0
  -22.7867  -13.5242   21.1844 C   0  0  0  0  0  0
  -22.1662   -4.2152   21.0984 F   0  0  0  0  0  0
  -21.5630   -3.4541   25.7739 F   0  0  0  0  0  0
  -30.0333  -13.3025   20.4352 N   0  0  0  0  0  0
  -26.3024  -12.9338   20.3365 N   0  0  0  0  0  0
  -25.9323  -11.6496   20.5777 N   0  0  0  0  0  0
  -22.0507  -12.8230   22.0396 N   0  0  0  0  0  0
  -25.4323  -15.1879   20.4081 N   0  0  0  0  0  0
  -31.8562  -14.6135   20.0970 O   0  0  0  0  0  0
  -21.6638   -6.8876   21.4241 O   0  0  0  0  0  0
  -22.3560  -14.5556   20.6703 O   0  0  0  0  0  0
  -24.6163  -31.8684   23.2112 C   0  0  0  0  0  0
  -25.9055  -32.4826   23.8404 C   0  0  1  0  0  0
  -27.2274  -27.4294   20.0956 C   0  0  0  0  0  0
  -25.5910  -33.8623   24.2337 N   0  0  0  0  0  0
  -23.4039  -30.4933   21.5519 C   0  0  2  0  0  0
  -24.8499  -28.9636   20.1114 C   0  0  0  0  0  0
  -22.7413  -29.4664   22.4990 C   0  0  0  0  0  0
  -18.0268  -28.1376   22.8491 C   0  0  0  0  0  0
  -24.1487  -36.7310   23.2636 C   0  0  0  0  0  0
  -25.9345  -30.8329   21.3656 C   0  0  0  0  0  0
  -26.0122  -29.4692   20.7087 C   0  0  0  0  0  0
  -27.2081  -28.7110   20.6951 C   0  0  0  0  0  0
  -26.0519  -26.9498   19.4774 C   0  0  0  0  0  0
  -24.8650  -27.7039   19.4911 C   0  0  0  0  0  0
  -23.6116  -29.8295   20.1651 C   0  0  0  0  0  0
  -25.4109  -36.3111   24.0334 C   0  0  1  0  0  0
  -20.5863  -28.3665   23.1312 C   0  0  2  0  0  0
  -20.6764  -26.9401   22.5417 C   0  0  0  0  0  0
  -19.5746  -26.6384   21.5214 C   0  0  0  0  0  0
  -18.1918  -26.7927   22.1617 C   0  0  0  0  0  0
  -19.1519  -28.8834   23.2903 C   0  0  0  0  0  0
  -18.9453  -30.1439   23.8917 C   0  0  0  0  0  0
  -17.6457  -30.6588   24.0564 C   0  0  0  0  0  0
  -25.9039  -34.9475   23.5130 C   0  0  0  0  0  0
  -16.5345  -29.9092   23.6329 C   0  0  0  0  0  0
  -16.7256  -28.6506   23.0353 C   0  0  0  0  0  0
  -26.4481  -31.6596   25.0726 C   0  0  0  0  0  0
  -25.3743  -31.3709   26.1474 C   0  0  0  0  0  0
  -27.0305  -30.3035   24.6101 C   0  0  0  0  0  0
  -27.6058  -32.4311   25.7493 C   0  0  0  0  0  0
  -27.5581  -37.1806   24.8463 C   0  0  0  0  0  0
  -21.4142  -29.3040   22.3728 N   0  0  0  0  0  0
  -26.4295  -37.3795   23.9408 N   0  0  0  0  0  0
  -24.6697  -31.0785   22.1011 N   0  0  0  0  0  0
  -23.4183  -28.8203   23.3029 O   0  0  0  0  0  0
  -28.3583  -26.6389   20.1223 O   0  0  0  0  0  0
  -26.5603  -34.8918   22.4692 O   0  0  0  0  0  0
  -23.5356  -32.1431   23.7509 O   0  0  0  0  0  0
  -32.1785  -18.5794   21.4809 C   0  0  0  0  0  0
  -31.2807  -19.5969   21.1072 C   0  0  0  0  0  0
  -31.7709  -17.2340   21.4845 C   0  0  0  0  0  0
  -29.5450  -17.9191   20.7754 C   0  0  0  0  0  0
  -29.9453  -19.2851   20.7535 C   0  0  0  0  0  0
  -30.4559  -16.8818   21.1049 C   0  0  0  0  0  0
  -29.0492  -24.2343   20.2767 C   0  0  0  0  0  0
  -27.2772  -21.1828   18.5844 C   0  0  0  0  0  0
  -28.3554  -20.1444   18.9392 C   0  0  0  0  0  0
  -27.8224  -22.6094   18.7535 C   0  0  0  0  0  0
  -28.9302  -20.3815   20.3560 C   0  0  2  0  0  0
  -28.4103  -22.8244   20.1681 C   0  0  1  0  0  0
  -28.1256  -25.3676   20.7692 C   0  0  0  0  0  0
  -30.0323  -15.5131   21.0721 N   0  0  0  0  0  0
  -29.4348  -21.7837   20.4681 N   0  3  0  0  0  0
  -30.2294  -24.4596   19.9845 O   0  0  0  0  0  0
  -31.4621  -12.3861   19.1240 H   0  0  0  0  0  0
  -30.3076  -11.2972   19.8351 H   0  0  0  0  0  0
  -29.7316  -11.7647   17.4329 H   0  0  0  0  0  0
  -29.6606  -13.4780   17.7621 H   0  0  0  0  0  0
  -27.8285  -11.3033   18.8288 H   0  0  0  0  0  0
  -27.3615  -12.6215   17.7885 H   0  0  0  0  0  0
  -27.6986  -14.2535   19.5599 H   0  0  0  0  0  0
  -28.6791  -11.9842   21.3603 H   0  0  0  0  0  0
  -28.4706  -13.6361   21.8586 H   0  0  0  0  0  0
  -25.2759   -9.5690   22.4759 H   0  0  0  0  0  0
  -24.0007   -7.4638   22.7471 H   0  0  0  0  0  0
  -21.0844   -8.8772   19.8952 H   0  0  0  0  0  0
  -22.3699  -10.9672   19.6166 H   0  0  0  0  0  0
  -21.1997   -7.6148   23.9719 H   0  0  0  0  0  0
  -21.1479   -6.0524   25.9079 H   0  0  0  0  0  0
  -22.0598   -2.7612   23.2848 H   0  0  0  0  0  0
  -22.4117  -11.9879   22.4770 H   0  0  0  0  0  0
  -21.1123  -13.1255   22.2598 H   0  0  0  0  0  0
  -24.6656  -15.8436   20.5106 H   0  0  0  0  0  0
  -26.2797  -15.6219   20.0650 H   0  0  0  0  0  0
  -26.7122  -32.5534   23.1162 H   0  0  0  0  0  0
  -25.0072  -33.9785   25.0493 H   0  0  0  0  0  0
  -22.6927  -31.3109   21.4146 H   0  0  0  0  0  0
  -23.3749  -35.9645   23.3307 H   0  0  0  0  0  0
  -24.3586  -36.8923   22.2050 H   0  0  0  0  0  0
  -23.7232  -37.6511   23.6647 H   0  0  0  0  0  0
  -26.0495  -31.6014   20.6003 H   0  0  0  0  0  0
  -26.8210  -30.8822   21.9857 H   0  0  0  0  0  0
  -28.1037  -29.0931   21.1652 H   0  0  0  0  0  0
  -26.0442  -25.9865   18.9869 H   0  0  0  0  0  0
  -23.9732  -27.3117   19.0217 H   0  0  0  0  0  0
  -23.7183  -30.6066   19.4074 H   0  0  0  0  0  0
  -22.7353  -29.2506   19.8678 H   0  0  0  0  0  0
  -25.1287  -36.1976   25.0828 H   0  0  0  0  0  0
  -20.9943  -28.3227   24.1438 H   0  0  0  0  0  0
  -20.5673  -26.2277   23.3607 H   0  0  0  0  0  0
  -21.6632  -26.7452   22.1202 H   0  0  0  0  0  0
  -19.6913  -25.6300   21.1234 H   0  0  0  0  0  0
  -19.6693  -27.3205   20.6755 H   0  0  0  0  0  0
  -17.4196  -26.6682   21.4007 H   0  0  0  0  0  0
  -18.0311  -26.0056   22.8997 H   0  0  0  0  0  0
  -19.7932  -30.7241   24.2300 H   0  0  0  0  0  0
  -17.5019  -31.6275   24.5153 H   0  0  0  0  0  0
  -15.5348  -30.3009   23.7647 H   0  0  0  0  0  0
  -15.8648  -28.0833   22.7072 H   0  0  0  0  0  0
  -24.5920  -30.7055   25.7808 H   0  0  0  0  0  0
  -24.8935  -32.2870   26.4909 H   0  0  0  0  0  0
  -25.8094  -30.8882   27.0233 H   0  0  0  0  0  0
  -26.2844  -29.6805   24.1152 H   0  0  0  0  0  0
  -27.4071  -29.7264   25.4558 H   0  0  0  0  0  0
  -27.8686  -30.4356   23.9254 H   0  0  0  0  0  0
  -27.2675  -33.3602   26.2091 H   0  0  0  0  0  0
  -28.3857  -32.6884   25.0312 H   0  0  0  0  0  0
  -28.0732  -31.8418   26.5393 H   0  0  0  0  0  0
  -28.2597  -38.0105   24.7504 H   0  0  0  0  0  0
  -28.1080  -36.2634   24.6294 H   0  0  0  0  0  0
  -27.2299  -37.1444   25.8866 H   0  0  0  0  0  0
  -20.9300  -29.8775   21.6960 H   0  0  0  0  0  0
  -26.0188  -38.2878   24.1407 H   0  0  0  0  0  0
  -33.1923  -18.8313   21.7612 H   0  0  0  0  0  0
  -31.6493  -20.6129   21.1093 H   0  0  0  0  0  0
  -32.4858  -16.4758   21.7733 H   0  0  0  0  0  0
  -28.5289  -17.6602   20.5101 H   0  0  0  0  0  0
  -26.4041  -21.0428   19.2246 H   0  0  0  0  0  0
  -26.9329  -21.0314   17.5602 H   0  0  0  0  0  0
  -29.1596  -20.1727   18.2028 H   0  0  0  0  0  0
  -27.9134  -19.1506   18.8671 H   0  0  0  0  0  0
  -27.0243  -23.3286   18.5626 H   0  0  0  0  0  0
  -28.5855  -22.7957   17.9950 H   0  0  0  0  0  0
  -28.1089  -20.2894   21.0697 H   0  0  0  0  0  0
  -27.6117  -22.7403   20.9061 H   0  0  0  0  0  0
  -28.2929  -25.4962   21.8384 H   0  0  0  0  0  0
  -27.0968  -25.0269   20.6631 H   0  0  0  0  0  0
  -29.0677  -15.3254   21.2984 H   0  0  0  0  0  0
  -30.2145  -21.9250   19.8465 H   0  0  0  0  0  0
  -29.7626  -21.9371   21.4075 H   0  0  0  0  0  0
  1 25  1  0  0  0
  1 30  2  0  0  0
  1 84  1  0  0  0
  2  3  1  0  0  0
  2 25  1  0  0  0
  2 87  1  0  0  0
  2 88  1  0  0  0
  3  4  1  0  0  0
  3 89  1  0  0  0
  3 90  1  0  0  0
  4  5  1  0  0  0
  4 91  1  0  0  0
  4 92  1  0  0  0
  5  6  1  0  0  0
  5 26  1  0  0  0
  5 93  1  0  0  0
  6 25  1  0  0  0
  6 94  1  0  0  0
  6 95  1  0  0  0
  7  8  2  0  0  0
  7 26  1  0  0  0
  7 29  1  0  0  0
  8  9  1  0  0  0
  8 22  1  0  0  0
  9 10  1  0  0  0
  9 27  2  0  0  0
 10 11  2  0  0  0
 10 15  1  0  0  0
 11 12  1  0  0  0
 11 96  1  0  0  0
 12 13  2  0  0  0
 12 97  1  0  0  0
 13 14  1  0  0  0
 13 31  1  0  0  0
 14 15  2  0  0  0
 14 98  1  0  0  0
 15 99  1  0  0  0
 16 17  2  0  0  0
 16 21  1  0  0  0
 16 31  1  0  0  0
 17 18  1  0  0  0
 17100  1  0  0  0
 18 19  2  0  0  0
 18101  1  0  0  0
 19 20  1  0  0  0
 19 24  1  0  0  0
 20 21  2  0  0  0
 20102  1  0  0  0
 21 23  1  0  0  0
 22 28  1  0  0  0
 22 32  2  0  0  0
 26 27  1  0  0  0
 28103  1  0  0  0
 28104  1  0  0  0
 29105  1  0  0  0
 29106  1  0  0  0
 33 34  1  0  0  0
 33 66  1  0  0  0
 33 70  2  0  0  0
 34 36  1  0  0  0
 34 59  1  0  0  0
 34107  1  0  0  0
 35 44  2  0  0  0
 35 45  1  0  0  0
 35 68  1  0  0  0
 36 56  1  0  0  0
 36108  1  0  0  0
 37 39  1  0  0  0
 37 47  1  0  0  0
 37 66  1  0  0  0
 37109  1  0  0  0
 38 43  2  0  0  0
 38 46  1  0  0  0
 38 47  1  0  0  0
 39 64  1  0  0  0
 39 67  2  0  0  0
 40 52  1  0  0  0
 40 53  2  0  0  0
 40 58  1  0  0  0
 41110  1  0  0  0
 41111  1  0  0  0
 41112  1  0  0  0
 41 48  1  0  0  0
 42 43  1  0  0  0
 42 66  1  0  0  0
 42113  1  0  0  0
 42114  1  0  0  0
 43 44  1  0  0  0
 44115  1  0  0  0
 45 46  2  0  0  0
 45116  1  0  0  0
 46117  1  0  0  0
 47118  1  0  0  0
 47119  1  0  0  0
 48 56  1  0  0  0
 48 65  1  0  0  0
 48120  1  0  0  0
 49 50  1  0  0  0
 49 53  1  0  0  0
 49 64  1  0  0  0
 49121  1  0  0  0
 50 51  1  0  0  0
 50122  1  0  0  0
 50123  1  0  0  0
 51 52  1  0  0  0
 51124  1  0  0  0
 51125  1  0  0  0
 52126  1  0  0  0
 52127  1  0  0  0
 53 54  1  0  0  0
 54 55  2  0  0  0
 54128  1  0  0  0
 55 57  1  0  0  0
 55129  1  0  0  0
 56 69  2  0  0  0
 57 58  2  0  0  0
 57130  1  0  0  0
 58131  1  0  0  0
 59 60  1  0  0  0
 59 61  1  0  0  0
 59 62  1  0  0  0
 60132  1  0  0  0
 60133  1  0  0  0
 60134  1  0  0  0
 61135  1  0  0  0
 61136  1  0  0  0
 61137  1  0  0  0
 62138  1  0  0  0
 62139  1  0  0  0
 62140  1  0  0  0
 63 65  1  0  0  0
 63141  1  0  0  0
 63142  1  0  0  0
 63143  1  0  0  0
 64144  1  0  0  0
 65145  1  0  0  0
 68 83  1  0  0  0
 71 72  2  0  0  0
 71 73  1  0  0  0
 71146  1  0  0  0
 72 75  1  0  0  0
 72147  1  0  0  0
 73 76  2  0  0  0
 73148  1  0  0  0
 74 75  2  0  0  0
 74 76  1  0  0  0
 74149  1  0  0  0
 75 81  1  0  0  0
 76 84  1  0  0  0
 77 83  1  0  0  0
 77 86  2  0  0  0
 77 82  1  0  0  0
 78 79  1  0  0  0
 78 80  1  0  0  0
 78150  1  0  0  0
 78151  1  0  0  0
 79 81  1  0  0  0
 79152  1  0  0  0
 79153  1  0  0  0
 80 82  1  0  0  0
 80154  1  0  0  0
 80155  1  0  0  0
 81 85  1  0  0  0
 81156  1  0  0  0
 82 85  1  0  0  0
 82157  1  0  0  0
 83158  1  0  0  0
 83159  1  0  0  0
 84160  1  0  0  0
 85161  1  0  0  0
 85162  1  0  0  0
M  CHG  1  85   1
M  ISO  4   1 100  68 101  83 101  84 100
M  END
> <chiral flag>
0

> <version>
0

> <s_m_source_file>
/data/baiqing/PycharmProjects/Reinvent-master-3.2/result/LINK_invent/BTK/process_docking_weight1_custom_product_contain_oxygen_bond_distance_aromatic_linkinvent_7_9_3/rearranged_h_0164.sdf

> <i_m_source_file_index>
84

> <r_mmod_Potential_Energy-OPLS-2005>
-247.296630859375

> <r_mmod_Stretch_Energy-OPLS-2005>
41.828800201416

> <r_mmod_Bend_Energy-OPLS-2005>
92.415657043457

> <r_mmod_Torsional_Energy-OPLS-2005>
267.26611328125

> <r_mmod_Improper_Torsional_Energy-OPLS-2005>
3.91772770881653

> <r_mmod_Van_der_Waal_Energy-OPLS-2005>
158.389862060547

> <r_mmod_Electrostatic_Energy-OPLS-2005>
-341.379333496094

> <r_mmod_Solvation_Energy-OPLS-2005>
-485.023834228516

> <b_mmod_Minimization_Converged-OPLS-2005>
0

> <r_mmod_RMS_Derivative-OPLS-2005>
0.960909783840179

$$$$
85
                    3D
 Structure written by MMmdl.
160168  0  0  1  0            999 V2000
  -30.7896  -14.4164   20.6449 C   0  0  0  0  0  0
  -30.4060  -12.3017   19.4285 C   0  0  0  0  0  0
  -29.4907  -12.5193   18.2095 C   0  0  0  0  0  0
  -28.0141  -12.3768   18.6200 C   0  0  0  0  0  0
  -27.6632  -13.2169   19.8780 C   0  0  2  0  0  0
  -28.7032  -13.0165   21.0056 C   0  0  0  0  0  0
  -25.2595  -13.8193   20.5690 C   0  0  0  0  0  0
  -24.1849  -13.0456   20.9187 C   0  0  0  0  0  0
  -24.6418  -11.6925   20.8725 C   0  0  0  0  0  0
  -23.9085  -10.4306   21.0411 C   0  0  0  0  0  0
  -24.3630   -9.4213   21.9187 C   0  0  0  0  0  0
  -23.6305   -8.2241   22.0752 C   0  0  0  0  0  0
  -22.4284   -8.0292   21.3538 C   0  0  0  0  0  0
  -21.9929   -9.0266   20.4633 C   0  0  0  0  0  0
  -22.7262  -10.2145   20.3052 C   0  0  0  0  0  0
  -21.6853   -6.0748   22.5290 C   0  0  0  0  0  0
  -21.4014   -6.5642   23.8223 C   0  0  0  0  0  0
  -21.3661   -5.6791   24.9179 C   0  0  0  0  0  0
  -21.6042   -4.3060   24.7224 C   0  0  0  0  0  0
  -21.8815   -3.8157   23.4349 C   0  0  0  0  0  0
  -21.9195   -4.6976   22.3412 C   0  0  0  0  0  0
  -22.7860  -13.5241   21.1854 C   0  0  0  0  0  0
  -22.1657   -4.2160   21.0983 F   0  0  0  0  0  0
  -21.5632   -3.4546   25.7744 F   0  0  0  0  0  0
  -30.0414  -13.2919   20.4570 N   0  0  0  0  0  0
  -26.3045  -12.9387   20.3404 N   0  0  0  0  0  0
  -25.9354  -11.6535   20.5772 N   0  0  0  0  0  0
  -22.0501  -12.8208   22.0393 N   0  0  0  0  0  0
  -25.4320  -15.1902   20.4067 N   0  0  0  0  0  0
  -31.8458  -14.6064   20.0371 O   0  0  0  0  0  0
  -21.6644   -6.8893   21.4251 O   0  0  0  0  0  0
  -22.3536  -14.5554   20.6726 O   0  0  0  0  0  0
  -24.6147  -31.8681   23.2075 C   0  0  0  0  0  0
  -25.9047  -32.4810   23.8385 C   0  0  1  0  0  0
  -27.2464  -27.4372   20.1237 C   0  0  0  0  0  0
  -25.5899  -33.8605   24.2315 N   0  0  0  0  0  0
  -23.4037  -30.4857   21.5481 C   0  0  2  0  0  0
  -24.8531  -28.9485   20.1160 C   0  0  0  0  0  0
  -22.7411  -29.4636   22.5000 C   0  0  0  0  0  0
  -18.0257  -28.1369   22.8487 C   0  0  0  0  0  0
  -24.1489  -36.7304   23.2638 C   0  0  0  0  0  0
  -25.9283  -30.8378   21.3559 C   0  0  0  0  0  0
  -26.0104  -29.4704   20.7090 C   0  0  0  0  0  0
  -27.2104  -28.7244   20.7037 C   0  0  0  0  0  0
  -26.0757  -26.9254   19.5236 C   0  0  0  0  0  0
  -24.8803  -27.6748   19.5195 C   0  0  0  0  0  0
  -23.6106  -29.8115   20.1649 C   0  0  0  0  0  0
  -25.4109  -36.3102   24.0339 C   0  0  1  0  0  0
  -20.5839  -28.3639   23.1312 C   0  0  2  0  0  0
  -20.6756  -26.9378   22.5419 C   0  0  0  0  0  0
  -19.5742  -26.6370   21.5214 C   0  0  0  0  0  0
  -18.1898  -26.7915   22.1605 C   0  0  0  0  0  0
  -19.1508  -28.8826   23.2889 C   0  0  0  0  0  0
  -18.9454  -30.1431   23.8897 C   0  0  0  0  0  0
  -17.6458  -30.6584   24.0548 C   0  0  0  0  0  0
  -25.9039  -34.9460   23.5127 C   0  0  0  0  0  0
  -16.5337  -29.9073   23.6351 C   0  0  0  0  0  0
  -16.7247  -28.6489   23.0368 C   0  0  0  0  0  0
  -26.4484  -31.6585   25.0713 C   0  0  0  0  0  0
  -25.3747  -31.3691   26.1470 C   0  0  0  0  0  0
  -27.0346  -30.3036   24.6085 C   0  0  0  0  0  0
  -27.6069  -32.4316   25.7470 C   0  0  0  0  0  0
  -27.5576  -37.1792   24.8461 C   0  0  0  0  0  0
  -21.4129  -29.3003   22.3737 N   0  0  0  0  0  0
  -26.4286  -37.3791   23.9415 N   0  0  0  0  0  0
  -24.6668  -31.0783   22.0964 N   0  0  0  0  0  0
  -23.4167  -28.8186   23.3066 O   0  0  0  0  0  0
  -28.4154  -26.7082   20.1191 O   0  0  0  0  0  0
  -26.5598  -34.8893   22.4682 O   0  0  0  0  0  0
  -23.5341  -32.1416   23.7480 O   0  0  0  0  0  0
  -33.0813  -17.4819   22.8693 C   0  0  0  0  0  0
  -32.3598  -16.3612   22.4219 C   0  0  0  0  0  0
  -30.4337  -17.7858   21.9692 C   0  0  0  0  0  0
  -32.4985  -18.7658   22.8565 C   0  0  0  0  0  0
  -31.0334  -16.4980   21.9513 C   0  0  0  0  0  0
  -31.1679  -18.9281   22.3888 C   0  0  0  0  0  0
  -30.6837  -21.1689   21.4616 C   0  0  0  0  0  0
  -33.3247  -19.9453   23.3480 C   0  0  0  0  0  0
  -30.0357  -22.5486   21.7133 C   0  0  0  0  0  0
  -28.9035  -22.9063   20.7045 C   0  0  0  0  0  0
  -28.9557  -24.3156   20.0475 C   0  0  0  0  0  0
  -28.4027  -25.4893   20.8863 C   0  0  0  0  0  0
  -30.5493  -20.2161   22.4041 N   0  0  0  0  0  0
  -30.3084  -15.3491   21.4931 N   0  0  0  0  0  0
  -31.3087  -20.9779   20.4147 O   0  0  0  0  0  0
  -31.4553  -12.3635   19.1307 H   0  0  0  0  0  0
  -30.2755  -11.2943   19.8240 H   0  0  0  0  0  0
  -29.7317  -11.8010   17.4246 H   0  0  0  0  0  0
  -29.6639  -13.5098   17.7847 H   0  0  0  0  0  0
  -27.8212  -11.3208   18.8104 H   0  0  0  0  0  0
  -27.3655  -12.6570   17.7886 H   0  0  0  0  0  0
  -27.7052  -14.2641   19.5795 H   0  0  0  0  0  0
  -28.6674  -11.9910   21.3749 H   0  0  0  0  0  0
  -28.4605  -13.6442   21.8638 H   0  0  0  0  0  0
  -25.2772   -9.5697   22.4758 H   0  0  0  0  0  0
  -24.0022   -7.4640   22.7461 H   0  0  0  0  0  0
  -21.0869   -8.8779   19.8930 H   0  0  0  0  0  0
  -22.3726  -10.9681   19.6150 H   0  0  0  0  0  0
  -21.1992   -7.6153   23.9732 H   0  0  0  0  0  0
  -21.1484   -6.0521   25.9080 H   0  0  0  0  0  0
  -22.0592   -2.7625   23.2849 H   0  0  0  0  0  0
  -22.4090  -11.9848   22.4762 H   0  0  0  0  0  0
  -21.1104  -13.1219   22.2577 H   0  0  0  0  0  0
  -24.6710  -15.8536   20.5073 H   0  0  0  0  0  0
  -26.2911  -15.6233   20.0915 H   0  0  0  0  0  0
  -26.7120  -32.5526   23.1159 H   0  0  0  0  0  0
  -25.0114  -33.9794   25.0494 H   0  0  0  0  0  0
  -22.6900  -31.2992   21.4050 H   0  0  0  0  0  0
  -23.3747  -35.9644   23.3332 H   0  0  0  0  0  0
  -24.3594  -36.8914   22.2051 H   0  0  0  0  0  0
  -23.7251  -37.6512   23.6651 H   0  0  0  0  0  0
  -26.0406  -31.6015   20.5848 H   0  0  0  0  0  0
  -26.8150  -30.8915   21.9766 H   0  0  0  0  0  0
  -28.1047  -29.1238   21.1603 H   0  0  0  0  0  0
  -26.0924  -25.9467   19.0646 H   0  0  0  0  0  0
  -23.9900  -27.2645   19.0620 H   0  0  0  0  0  0
  -23.7023  -30.5810   19.3981 H   0  0  0  0  0  0
  -22.7383  -29.2234   19.8821 H   0  0  0  0  0  0
  -25.1288  -36.1958   25.0833 H   0  0  0  0  0  0
  -20.9927  -28.3203   24.1435 H   0  0  0  0  0  0
  -20.5682  -26.2242   23.3607 H   0  0  0  0  0  0
  -21.6612  -26.7436   22.1193 H   0  0  0  0  0  0
  -19.6923  -25.6287   21.1229 H   0  0  0  0  0  0
  -19.6707  -27.3192   20.6751 H   0  0  0  0  0  0
  -17.4197  -26.6686   21.3973 H   0  0  0  0  0  0
  -18.0265  -26.0033   22.8978 H   0  0  0  0  0  0
  -19.7935  -30.7242   24.2250 H   0  0  0  0  0  0
  -17.5017  -31.6264   24.5150 H   0  0  0  0  0  0
  -15.5339  -30.2981   23.7693 H   0  0  0  0  0  0
  -15.8633  -28.0812   22.7114 H   0  0  0  0  0  0
  -24.5938  -30.7014   25.7817 H   0  0  0  0  0  0
  -24.8901  -32.2841   26.4889 H   0  0  0  0  0  0
  -25.8095  -30.8897   27.0246 H   0  0  0  0  0  0
  -26.2886  -29.6750   24.1209 H   0  0  0  0  0  0
  -27.4228  -29.7330   25.4532 H   0  0  0  0  0  0
  -27.8657  -30.4409   23.9162 H   0  0  0  0  0  0
  -27.2715  -33.3636   26.2034 H   0  0  0  0  0  0
  -28.3872  -32.6855   25.0275 H   0  0  0  0  0  0
  -28.0732  -31.8436   26.5398 H   0  0  0  0  0  0
  -28.2589  -38.0086   24.7517 H   0  0  0  0  0  0
  -28.1076  -36.2630   24.6276 H   0  0  0  0  0  0
  -27.2300  -37.1419   25.8859 H   0  0  0  0  0  0
  -20.9299  -29.8715   21.6950 H   0  0  0  0  0  0
  -26.0184  -38.2871   24.1406 H   0  0  0  0  0  0
  -34.0951  -17.3455   23.2224 H   0  0  0  0  0  0
  -32.8436  -15.3931   22.4400 H   0  0  0  0  0  0
  -29.4153  -17.9087   21.6301 H   0  0  0  0  0  0
  -34.2471  -19.6127   23.8292 H   0  0  0  0  0  0
  -32.7710  -20.5387   24.0747 H   0  0  0  0  0  0
  -33.6029  -20.5846   22.5106 H   0  0  0  0  0  0
  -30.8311  -23.2936   21.6653 H   0  0  0  0  0  0
  -29.6533  -22.6014   22.7335 H   0  0  0  0  0  0
  -27.9377  -22.7706   21.1913 H   0  0  0  0  0  0
  -28.9148  -22.1763   19.8924 H   0  0  0  0  0  0
  -28.3625  -24.2719   19.1328 H   0  0  0  0  0  0
  -29.9727  -24.5380   19.7239 H   0  0  0  0  0  0
  -29.0342  -25.6322   21.7635 H   0  0  0  0  0  0
  -27.4063  -25.2504   21.2629 H   0  0  0  0  0  0
  -29.9964  -20.4451   23.2204 H   0  0  0  0  0  0
  -29.3618  -15.2296   21.8190 H   0  0  0  0  0  0
  1 25  1  0  0  0
  1 30  2  0  0  0
  1 84  1  0  0  0
  2  3  1  0  0  0
  2 25  1  0  0  0
  2 86  1  0  0  0
  2 87  1  0  0  0
  3  4  1  0  0  0
  3 88  1  0  0  0
  3 89  1  0  0  0
  4  5  1  0  0  0
  4 90  1  0  0  0
  4 91  1  0  0  0
  5  6  1  0  0  0
  5 26  1  0  0  0
  5 92  1  0  0  0
  6 25  1  0  0  0
  6 93  1  0  0  0
  6 94  1  0  0  0
  7  8  2  0  0  0
  7 26  1  0  0  0
  7 29  1  0  0  0
  8  9  1  0  0  0
  8 22  1  0  0  0
  9 10  1  0  0  0
  9 27  2  0  0  0
 10 11  2  0  0  0
 10 15  1  0  0  0
 11 12  1  0  0  0
 11 95  1  0  0  0
 12 13  2  0  0  0
 12 96  1  0  0  0
 13 14  1  0  0  0
 13 31  1  0  0  0
 14 15  2  0  0  0
 14 97  1  0  0  0
 15 98  1  0  0  0
 16 17  2  0  0  0
 16 21  1  0  0  0
 16 31  1  0  0  0
 17 18  1  0  0  0
 17 99  1  0  0  0
 18 19  2  0  0  0
 18100  1  0  0  0
 19 20  1  0  0  0
 19 24  1  0  0  0
 20 21  2  0  0  0
 20101  1  0  0  0
 21 23  1  0  0  0
 22 28  1  0  0  0
 22 32  2  0  0  0
 26 27  1  0  0  0
 28102  1  0  0  0
 28103  1  0  0  0
 29104  1  0  0  0
 29105  1  0  0  0
 33 34  1  0  0  0
 33 66  1  0  0  0
 33 70  2  0  0  0
 34 36  1  0  0  0
 34 59  1  0  0  0
 34106  1  0  0  0
 35 44  2  0  0  0
 35 45  1  0  0  0
 35 68  1  0  0  0
 36 56  1  0  0  0
 36107  1  0  0  0
 37 39  1  0  0  0
 37 47  1  0  0  0
 37 66  1  0  0  0
 37108  1  0  0  0
 38 43  2  0  0  0
 38 46  1  0  0  0
 38 47  1  0  0  0
 39 64  1  0  0  0
 39 67  2  0  0  0
 40 52  1  0  0  0
 40 53  2  0  0  0
 40 58  1  0  0  0
 41109  1  0  0  0
 41110  1  0  0  0
 41111  1  0  0  0
 41 48  1  0  0  0
 42 43  1  0  0  0
 42 66  1  0  0  0
 42112  1  0  0  0
 42113  1  0  0  0
 43 44  1  0  0  0
 44114  1  0  0  0
 45 46  2  0  0  0
 45115  1  0  0  0
 46116  1  0  0  0
 47117  1  0  0  0
 47118  1  0  0  0
 48 56  1  0  0  0
 48 65  1  0  0  0
 48119  1  0  0  0
 49 50  1  0  0  0
 49 53  1  0  0  0
 49 64  1  0  0  0
 49120  1  0  0  0
 50 51  1  0  0  0
 50121  1  0  0  0
 50122  1  0  0  0
 51 52  1  0  0  0
 51123  1  0  0  0
 51124  1  0  0  0
 52125  1  0  0  0
 52126  1  0  0  0
 53 54  1  0  0  0
 54 55  2  0  0  0
 54127  1  0  0  0
 55 57  1  0  0  0
 55128  1  0  0  0
 56 69  2  0  0  0
 57 58  2  0  0  0
 57129  1  0  0  0
 58130  1  0  0  0
 59 60  1  0  0  0
 59 61  1  0  0  0
 59 62  1  0  0  0
 60131  1  0  0  0
 60132  1  0  0  0
 60133  1  0  0  0
 61134  1  0  0  0
 61135  1  0  0  0
 61136  1  0  0  0
 62137  1  0  0  0
 62138  1  0  0  0
 62139  1  0  0  0
 63 65  1  0  0  0
 63140  1  0  0  0
 63141  1  0  0  0
 63142  1  0  0  0
 64143  1  0  0  0
 65144  1  0  0  0
 68 82  1  0  0  0
 71 72  2  0  0  0
 71 74  1  0  0  0
 71145  1  0  0  0
 72 75  1  0  0  0
 72146  1  0  0  0
 73 75  2  0  0  0
 73 76  1  0  0  0
 73147  1  0  0  0
 74 76  2  0  0  0
 74 78  1  0  0  0
 75 84  1  0  0  0
 76 83  1  0  0  0
 77 79  1  0  0  0
 77 83  1  0  0  0
 77 85  2  0  0  0
 78148  1  0  0  0
 78149  1  0  0  0
 78150  1  0  0  0
 79 80  1  0  0  0
 79151  1  0  0  0
 79152  1  0  0  0
 80 81  1  0  0  0
 80153  1  0  0  0
 80154  1  0  0  0
 81 82  1  0  0  0
 81155  1  0  0  0
 81156  1  0  0  0
 82157  1  0  0  0
 82158  1  0  0  0
 83159  1  0  0  0
 84160  1  0  0  0
M  ISO  4   1 100  68 101  82 101  84 100
M  END
> <chiral flag>
0

> <version>
0

> <s_m_source_file>
/data/baiqing/PycharmProjects/Reinvent-master-3.2/result/LINK_invent/BTK/process_docking_weight1_custom_product_contain_oxygen_bond_distance_aromatic_linkinvent_7_9_3/rearranged_h_0164.sdf

> <i_m_source_file_index>
85

> <r_mmod_Potential_Energy-OPLS-2005>
-41.7669715881348

> <r_mmod_Stretch_Energy-OPLS-2005>
40.6035232543945

> <r_mmod_Bend_Energy-OPLS-2005>
94.4651031494141

> <r_mmod_Torsional_Energy-OPLS-2005>
288.434783935547

> <r_mmod_Improper_Torsional_Energy-OPLS-2005>
1.8670574426651

> <r_mmod_Van_der_Waal_Energy-OPLS-2005>
150.390014648438

> <r_mmod_Electrostatic_Energy-OPLS-2005>
-392.215667724609

> <r_mmod_Solvation_Energy-OPLS-2005>
-236.016143798828

> <b_mmod_Minimization_Converged-OPLS-2005>
0

> <r_mmod_RMS_Derivative-OPLS-2005>
3.37318348884583

$$$$
86
                    3D
 Structure written by MMmdl.
159167  0  0  1  0            999 V2000
  -30.6596  -14.5547   20.4811 C   0  0  0  0  0  0
  -30.4219  -12.3329   19.4461 C   0  0  0  0  0  0
  -29.5007  -12.4935   18.2178 C   0  0  0  0  0  0
  -28.0204  -12.3520   18.6248 C   0  0  0  0  0  0
  -27.6536  -13.2140   19.8625 C   0  0  2  0  0  0
  -28.6954  -13.0522   20.9930 C   0  0  0  0  0  0
  -25.2560  -13.8179   20.5663 C   0  0  0  0  0  0
  -24.1829  -13.0449   20.9198 C   0  0  0  0  0  0
  -24.6390  -11.6919   20.8746 C   0  0  0  0  0  0
  -23.9055  -10.4304   21.0406 C   0  0  0  0  0  0
  -24.3608   -9.4216   21.9181 C   0  0  0  0  0  0
  -23.6295   -8.2247   22.0748 C   0  0  0  0  0  0
  -22.4279   -8.0281   21.3535 C   0  0  0  0  0  0
  -21.9906   -9.0259   20.4642 C   0  0  0  0  0  0
  -22.7228  -10.2142   20.3056 C   0  0  0  0  0  0
  -21.6858   -6.0736   22.5277 C   0  0  0  0  0  0
  -21.4016   -6.5641   23.8212 C   0  0  0  0  0  0
  -21.3663   -5.6793   24.9175 C   0  0  0  0  0  0
  -21.6049   -4.3058   24.7224 C   0  0  0  0  0  0
  -21.8823   -3.8146   23.4348 C   0  0  0  0  0  0
  -21.9194   -4.6961   22.3402 C   0  0  0  0  0  0
  -22.7852  -13.5238   21.1860 C   0  0  0  0  0  0
  -22.1658   -4.2147   21.0980 F   0  0  0  0  0  0
  -21.5631   -3.4540   25.7737 F   0  0  0  0  0  0
  -30.0208  -13.3514   20.4320 N   0  0  0  0  0  0
  -26.2983  -12.9357   20.3305 N   0  0  0  0  0  0
  -25.9315  -11.6513   20.5752 N   0  0  0  0  0  0
  -22.0491  -12.8232   22.0419 N   0  0  0  0  0  0
  -25.4288  -15.1894   20.4034 N   0  0  0  0  0  0
  -31.8363  -14.6780   20.1327 O   0  0  0  0  0  0
  -21.6641   -6.8877   21.4241 O   0  0  0  0  0  0
  -22.3541  -14.5548   20.6709 O   0  0  0  0  0  0
  -24.6176  -31.8649   23.2059 C   0  0  0  0  0  0
  -25.9055  -32.4806   23.8369 C   0  0  1  0  0  0
  -27.2322  -27.3941   20.1055 C   0  0  0  0  0  0
  -25.5895  -33.8605   24.2301 N   0  0  0  0  0  0
  -23.4072  -30.4872   21.5477 C   0  0  2  0  0  0
  -24.8532  -28.9456   20.1149 C   0  0  0  0  0  0
  -22.7426  -29.4643   22.4977 C   0  0  0  0  0  0
  -18.0273  -28.1379   22.8491 C   0  0  0  0  0  0
  -24.1487  -36.7307   23.2641 C   0  0  0  0  0  0
  -25.9394  -30.8197   21.3629 C   0  0  0  0  0  0
  -26.0161  -29.4511   20.7088 C   0  0  0  0  0  0
  -27.2088  -28.6854   20.6934 C   0  0  0  0  0  0
  -26.0478  -26.9108   19.5055 C   0  0  0  0  0  0
  -24.8662  -27.6777   19.5082 C   0  0  0  0  0  0
  -23.6167  -29.8169   20.1635 C   0  0  0  0  0  0
  -25.4111  -36.3103   24.0335 C   0  0  1  0  0  0
  -20.5865  -28.3667   23.1310 C   0  0  2  0  0  0
  -20.6764  -26.9402   22.5415 C   0  0  0  0  0  0
  -19.5745  -26.6384   21.5213 C   0  0  0  0  0  0
  -18.1923  -26.7926   22.1625 C   0  0  0  0  0  0
  -19.1523  -28.8840   23.2899 C   0  0  0  0  0  0
  -18.9451  -30.1447   23.8909 C   0  0  0  0  0  0
  -17.6454  -30.6585   24.0564 C   0  0  0  0  0  0
  -25.9040  -34.9469   23.5119 C   0  0  0  0  0  0
  -16.5345  -29.9086   23.6327 C   0  0  0  0  0  0
  -16.7263  -28.6502   23.0350 C   0  0  0  0  0  0
  -26.4473  -31.6598   25.0712 C   0  0  0  0  0  0
  -25.3727  -31.3711   26.1453 C   0  0  0  0  0  0
  -27.0305  -30.3035   24.6106 C   0  0  0  0  0  0
  -27.6042  -32.4322   25.7473 C   0  0  0  0  0  0
  -27.5581  -37.1809   24.8467 C   0  0  0  0  0  0
  -21.4148  -29.3032   22.3715 N   0  0  0  0  0  0
  -26.4297  -37.3788   23.9406 N   0  0  0  0  0  0
  -24.6733  -31.0721   22.0972 N   0  0  0  0  0  0
  -23.4185  -28.8193   23.3034 O   0  0  0  0  0  0
  -28.3971  -26.6429   20.1260 O   0  0  0  0  0  0
  -26.5609  -34.8926   22.4686 O   0  0  0  0  0  0
  -23.5360  -32.1414   23.7435 O   0  0  0  0  0  0
  -30.8496  -18.5605   18.5738 C   0  0  0  0  0  0
  -30.7463  -17.2696   19.1110 C   0  0  0  0  0  0
  -30.2037  -19.6430   19.1867 C   0  0  0  0  0  0
  -29.2933  -18.1267   20.8890 C   0  0  0  0  0  0
  -29.9917  -17.0121   20.2824 C   0  0  0  0  0  0
  -29.4225  -19.4679   20.3496 C   0  0  0  0  0  0
  -28.4521  -17.8693   22.1035 C   0  0  0  0  0  0
  -29.8036  -23.0077   20.7555 C   0  0  0  0  0  0
  -29.6280  -24.5357   20.5449 C   0  0  0  0  0  0
  -27.0298  -18.4222   22.1013 C   0  0  0  0  0  0
  -28.7252  -21.9811   20.3275 C   0  0  0  0  0  0
  -28.2944  -25.1886   20.0912 C   0  0  0  0  0  0
  -30.8695  -22.5503   21.2769 N   0  0  0  0  0  0
  -29.8755  -15.6345   20.7577 N   0  0  0  0  0  0
  -28.8254  -20.6222   20.9408 N   0  0  0  0  0  0
  -28.8181  -17.1817   23.0624 O   0  0  0  0  0  0
  -30.5941  -25.2807   20.7692 O   0  0  0  0  0  0
  -31.4675  -12.4283   19.1481 H   0  0  0  0  0  0
  -30.3242  -11.3352   19.8751 H   0  0  0  0  0  0
  -29.7521  -11.7504   17.4595 H   0  0  0  0  0  0
  -29.6631  -13.4696   17.7575 H   0  0  0  0  0  0
  -27.8382  -11.2985   18.8397 H   0  0  0  0  0  0
  -27.3726  -12.6049   17.7845 H   0  0  0  0  0  0
  -27.6786  -14.2522   19.5310 H   0  0  0  0  0  0
  -28.6811  -12.0348   21.3853 H   0  0  0  0  0  0
  -28.4596  -13.7013   21.8377 H   0  0  0  0  0  0
  -25.2755   -9.5697   22.4755 H   0  0  0  0  0  0
  -24.0014   -7.4640   22.7466 H   0  0  0  0  0  0
  -21.0832   -8.8770   19.8950 H   0  0  0  0  0  0
  -22.3679  -10.9680   19.6164 H   0  0  0  0  0  0
  -21.2005   -7.6148   23.9708 H   0  0  0  0  0  0
  -21.1481   -6.0524   25.9077 H   0  0  0  0  0  0
  -22.0596   -2.7607   23.2840 H   0  0  0  0  0  0
  -22.4101  -11.9894   22.4811 H   0  0  0  0  0  0
  -21.1104  -13.1258   22.2621 H   0  0  0  0  0  0
  -24.6511  -15.8355   20.4811 H   0  0  0  0  0  0
  -26.2543  -15.6114   19.9998 H   0  0  0  0  0  0
  -26.7124  -32.5505   23.1127 H   0  0  0  0  0  0
  -25.0036  -33.9762   25.0439 H   0  0  0  0  0  0
  -22.6975  -31.3048   21.4061 H   0  0  0  0  0  0
  -23.3746  -35.9643   23.3316 H   0  0  0  0  0  0
  -24.3578  -36.8911   22.2052 H   0  0  0  0  0  0
  -23.7246  -37.6517   23.6649 H   0  0  0  0  0  0
  -26.0564  -31.5854   20.5945 H   0  0  0  0  0  0
  -26.8255  -30.8721   21.9843 H   0  0  0  0  0  0
  -28.1073  -29.0740   21.1524 H   0  0  0  0  0  0
  -26.0215  -25.9421   19.0285 H   0  0  0  0  0  0
  -23.9718  -27.2838   19.0452 H   0  0  0  0  0  0
  -23.7272  -30.5902   19.4023 H   0  0  0  0  0  0
  -22.7399  -29.2379   19.8685 H   0  0  0  0  0  0
  -25.1292  -36.1964   25.0828 H   0  0  0  0  0  0
  -20.9958  -28.3236   24.1432 H   0  0  0  0  0  0
  -20.5666  -26.2277   23.3605 H   0  0  0  0  0  0
  -21.6636  -26.7444   22.1210 H   0  0  0  0  0  0
  -19.6906  -25.6298   21.1237 H   0  0  0  0  0  0
  -19.6685  -27.3199   20.6748 H   0  0  0  0  0  0
  -17.4194  -26.6672   21.4026 H   0  0  0  0  0  0
  -18.0324  -26.0064   22.9017 H   0  0  0  0  0  0
  -19.7928  -30.7258   24.2285 H   0  0  0  0  0  0
  -17.5010  -31.6268   24.5159 H   0  0  0  0  0  0
  -15.5345  -30.2993   23.7645 H   0  0  0  0  0  0
  -15.8663  -28.0826   22.7061 H   0  0  0  0  0  0
  -24.5892  -30.7074   25.7782 H   0  0  0  0  0  0
  -24.8930  -32.2870   26.4912 H   0  0  0  0  0  0
  -25.8068  -30.8863   27.0206 H   0  0  0  0  0  0
  -26.2855  -29.6794   24.1158 H   0  0  0  0  0  0
  -27.4065  -29.7278   25.4574 H   0  0  0  0  0  0
  -27.8694  -30.4349   23.9267 H   0  0  0  0  0  0
  -27.2659  -33.3613   26.2074 H   0  0  0  0  0  0
  -28.3837  -32.6901   25.0290 H   0  0  0  0  0  0
  -28.0730  -31.8435   26.5369 H   0  0  0  0  0  0
  -28.2611  -38.0095   24.7503 H   0  0  0  0  0  0
  -28.1066  -36.2627   24.6307 H   0  0  0  0  0  0
  -27.2297  -37.1477   25.8870 H   0  0  0  0  0  0
  -20.9313  -29.8746   21.6928 H   0  0  0  0  0  0
  -26.0186  -38.2867   24.1395 H   0  0  0  0  0  0
  -31.4368  -18.7238   17.6812 H   0  0  0  0  0  0
  -31.2519  -16.4777   18.5791 H   0  0  0  0  0  0
  -30.3467  -20.6180   18.7454 H   0  0  0  0  0  0
  -26.7123  -18.6560   21.0852 H   0  0  0  0  0  0
  -26.9724  -19.3285   22.7025 H   0  0  0  0  0  0
  -26.3382  -17.6882   22.5146 H   0  0  0  0  0  0
  -28.7052  -21.9197   19.2396 H   0  0  0  0  0  0
  -27.7519  -22.3850   20.6086 H   0  0  0  0  0  0
  -27.4958  -24.8540   20.7543 H   0  0  0  0  0  0
  -28.0585  -24.8535   19.0809 H   0  0  0  0  0  0
  -31.4820  -23.3315   21.4916 H   0  0  0  0  0  0
  -29.0143  -15.4020   21.2282 H   0  0  0  0  0  0
  -28.6427  -20.6050   21.9385 H   0  0  0  0  0  0
  1 25  1  0  0  0
  1 30  2  0  0  0
  1 84  1  0  0  0
  2  3  1  0  0  0
  2 25  1  0  0  0
  2 88  1  0  0  0
  2 89  1  0  0  0
  3  4  1  0  0  0
  3 90  1  0  0  0
  3 91  1  0  0  0
  4  5  1  0  0  0
  4 92  1  0  0  0
  4 93  1  0  0  0
  5  6  1  0  0  0
  5 26  1  0  0  0
  5 94  1  0  0  0
  6 25  1  0  0  0
  6 95  1  0  0  0
  6 96  1  0  0  0
  7  8  2  0  0  0
  7 26  1  0  0  0
  7 29  1  0  0  0
  8  9  1  0  0  0
  8 22  1  0  0  0
  9 10  1  0  0  0
  9 27  2  0  0  0
 10 11  2  0  0  0
 10 15  1  0  0  0
 11 12  1  0  0  0
 11 97  1  0  0  0
 12 13  2  0  0  0
 12 98  1  0  0  0
 13 14  1  0  0  0
 13 31  1  0  0  0
 14 15  2  0  0  0
 14 99  1  0  0  0
 15100  1  0  0  0
 16 17  2  0  0  0
 16 21  1  0  0  0
 16 31  1  0  0  0
 17 18  1  0  0  0
 17101  1  0  0  0
 18 19  2  0  0  0
 18102  1  0  0  0
 19 20  1  0  0  0
 19 24  1  0  0  0
 20 21  2  0  0  0
 20103  1  0  0  0
 21 23  1  0  0  0
 22 28  1  0  0  0
 22 32  2  0  0  0
 26 27  1  0  0  0
 28104  1  0  0  0
 28105  1  0  0  0
 29106  1  0  0  0
 29107  1  0  0  0
 33 34  1  0  0  0
 33 66  1  0  0  0
 33 70  2  0  0  0
 34 36  1  0  0  0
 34 59  1  0  0  0
 34108  1  0  0  0
 35 44  2  0  0  0
 35 45  1  0  0  0
 35 68  1  0  0  0
 36 56  1  0  0  0
 36109  1  0  0  0
 37 39  1  0  0  0
 37 47  1  0  0  0
 37 66  1  0  0  0
 37110  1  0  0  0
 38 43  2  0  0  0
 38 46  1  0  0  0
 38 47  1  0  0  0
 39 64  1  0  0  0
 39 67  2  0  0  0
 40 52  1  0  0  0
 40 53  2  0  0  0
 40 58  1  0  0  0
 41111  1  0  0  0
 41112  1  0  0  0
 41113  1  0  0  0
 41 48  1  0  0  0
 42 43  1  0  0  0
 42 66  1  0  0  0
 42114  1  0  0  0
 42115  1  0  0  0
 43 44  1  0  0  0
 44116  1  0  0  0
 45 46  2  0  0  0
 45117  1  0  0  0
 46118  1  0  0  0
 47119  1  0  0  0
 47120  1  0  0  0
 48 56  1  0  0  0
 48 65  1  0  0  0
 48121  1  0  0  0
 49 50  1  0  0  0
 49 53  1  0  0  0
 49 64  1  0  0  0
 49122  1  0  0  0
 50 51  1  0  0  0
 50123  1  0  0  0
 50124  1  0  0  0
 51 52  1  0  0  0
 51125  1  0  0  0
 51126  1  0  0  0
 52127  1  0  0  0
 52128  1  0  0  0
 53 54  1  0  0  0
 54 55  2  0  0  0
 54129  1  0  0  0
 55 57  1  0  0  0
 55130  1  0  0  0
 56 69  2  0  0  0
 57 58  2  0  0  0
 57131  1  0  0  0
 58132  1  0  0  0
 59 60  1  0  0  0
 59 61  1  0  0  0
 59 62  1  0  0  0
 60133  1  0  0  0
 60134  1  0  0  0
 60135  1  0  0  0
 61136  1  0  0  0
 61137  1  0  0  0
 61138  1  0  0  0
 62139  1  0  0  0
 62140  1  0  0  0
 62141  1  0  0  0
 63 65  1  0  0  0
 63142  1  0  0  0
 63143  1  0  0  0
 63144  1  0  0  0
 64145  1  0  0  0
 65146  1  0  0  0
 68 82  1  0  0  0
 71 72  2  0  0  0
 71 73  1  0  0  0
 71147  1  0  0  0
 72 75  1  0  0  0
 72148  1  0  0  0
 73 76  2  0  0  0
 73149  1  0  0  0
 74 75  2  0  0  0
 74 76  1  0  0  0
 74 77  1  0  0  0
 75 84  1  0  0  0
 76 85  1  0  0  0
 77 80  1  0  0  0
 77 86  2  0  0  0
 78 79  1  0  0  0
 78 81  1  0  0  0
 78 83  2  0  0  0
 79 82  1  0  0  0
 79 87  2  0  0  0
 80150  1  0  0  0
 80151  1  0  0  0
 80152  1  0  0  0
 81 85  1  0  0  0
 81153  1  0  0  0
 81154  1  0  0  0
 82155  1  0  0  0
 82156  1  0  0  0
 83157  1  0  0  0
 84158  1  0  0  0
 85159  1  0  0  0
M  ISO  4   1 100  68 101  82 101  84 100
M  END
> <chiral flag>
0

> <version>
0

> <s_m_source_file>
/data/baiqing/PycharmProjects/Reinvent-master-3.2/result/LINK_invent/BTK/process_docking_weight1_custom_product_contain_oxygen_bond_distance_aromatic_linkinvent_7_9_3/rearranged_h_0164.sdf

> <i_m_source_file_index>
86

> <r_mmod_Potential_Energy-OPLS-2005>
212.241104125977

> <r_mmod_Stretch_Energy-OPLS-2005>
66.6182632446289

> <r_mmod_Bend_Energy-OPLS-2005>
131.659759521484

> <r_mmod_Torsional_Energy-OPLS-2005>
256.559997558594

> <r_mmod_Improper_Torsional_Energy-OPLS-2005>
6.21917724609375

> <r_mmod_Van_der_Waal_Energy-OPLS-2005>
160.224060058594

> <r_mmod_Electrostatic_Energy-OPLS-2005>
-170.85612487793

> <r_mmod_Solvation_Energy-OPLS-2005>
-263.320404052734

> <b_mmod_Minimization_Converged-OPLS-2005>
0

> <r_mmod_RMS_Derivative-OPLS-2005>
0.941522777080536

$$$$
87
                    3D
 Structure written by MMmdl.
167175  0  0  1  0            999 V2000
  -30.6477  -14.5101   20.5839 C   0  0  0  0  0  0
  -30.4378  -12.3405   19.4094 C   0  0  0  0  0  0
  -29.5003  -12.5270   18.1958 C   0  0  0  0  0  0
  -28.0174  -12.3794   18.5998 C   0  0  0  0  0  0
  -27.6582  -13.2000   19.8663 C   0  0  2  0  0  0
  -28.6997  -12.9705   20.9834 C   0  0  0  0  0  0
  -25.2578  -13.8141   20.5652 C   0  0  0  0  0  0
  -24.1818  -13.0429   20.9164 C   0  0  0  0  0  0
  -24.6356  -11.6900   20.8725 C   0  0  0  0  0  0
  -23.9025  -10.4299   21.0403 C   0  0  0  0  0  0
  -24.3594   -9.4222   21.9186 C   0  0  0  0  0  0
  -23.6274   -8.2248   22.0762 C   0  0  0  0  0  0
  -22.4252   -8.0283   21.3538 C   0  0  0  0  0  0
  -21.9873   -9.0265   20.4643 C   0  0  0  0  0  0
  -22.7205  -10.2142   20.3049 C   0  0  0  0  0  0
  -21.6860   -6.0722   22.5277 C   0  0  0  0  0  0
  -21.4026   -6.5627   23.8212 C   0  0  0  0  0  0
  -21.3670   -5.6781   24.9173 C   0  0  0  0  0  0
  -21.6048   -4.3042   24.7227 C   0  0  0  0  0  0
  -21.8815   -3.8136   23.4344 C   0  0  0  0  0  0
  -21.9198   -4.6950   22.3400 C   0  0  0  0  0  0
  -22.7849  -13.5272   21.1842 C   0  0  0  0  0  0
  -22.1659   -4.2138   21.0975 F   0  0  0  0  0  0
  -21.5636   -3.4521   25.7735 F   0  0  0  0  0  0
  -30.0252  -13.3090   20.4327 N   0  0  0  0  0  0
  -26.2983  -12.9298   20.3271 N   0  0  0  0  0  0
  -25.9272  -11.6471   20.5710 N   0  0  0  0  0  0
  -22.0440  -12.8303   22.0384 N   0  0  0  0  0  0
  -25.4327  -15.1865   20.4107 N   0  0  0  0  0  0
  -31.8033  -14.7298   20.2009 O   0  0  0  0  0  0
  -21.6633   -6.8862   21.4234 O   0  0  0  0  0  0
  -22.3550  -14.5586   20.6693 O   0  0  0  0  0  0
  -24.6186  -31.8733   23.2119 C   0  0  0  0  0  0
  -25.9107  -32.4839   23.8389 C   0  0  1  0  0  0
  -27.2198  -27.4298   20.0776 C   0  0  0  0  0  0
  -25.5995  -33.8628   24.2353 N   0  0  0  0  0  0
  -23.4054  -30.4989   21.5548 C   0  0  2  0  0  0
  -24.8456  -28.9715   20.1072 C   0  0  0  0  0  0
  -22.7440  -29.4683   22.4987 C   0  0  0  0  0  0
  -18.0295  -28.1339   22.8448 C   0  0  0  0  0  0
  -24.1493  -36.7270   23.2624 C   0  0  0  0  0  0
  -25.9362  -30.8293   21.3734 C   0  0  0  0  0  0
  -26.0111  -29.4708   20.7049 C   0  0  0  0  0  0
  -27.2041  -28.7075   20.6863 C   0  0  0  0  0  0
  -26.0419  -26.9646   19.4501 C   0  0  0  0  0  0
  -24.8562  -27.7180   19.4757 C   0  0  0  0  0  0
  -23.6102  -29.8409   20.1658 C   0  0  0  0  0  0
  -25.4122  -36.3103   24.0337 C   0  0  1  0  0  0
  -20.5875  -28.3654   23.1264 C   0  0  2  0  0  0
  -20.6816  -26.9389   22.5380 C   0  0  0  0  0  0
  -19.5771  -26.6264   21.5210 C   0  0  0  0  0  0
  -18.1939  -26.7867   22.1596 C   0  0  0  0  0  0
  -19.1538  -28.8808   23.2834 C   0  0  0  0  0  0
  -18.9491  -30.1404   23.8847 C   0  0  0  0  0  0
  -17.6500  -30.6565   24.0496 C   0  0  0  0  0  0
  -25.9075  -34.9486   23.5136 C   0  0  0  0  0  0
  -16.5371  -29.9037   23.6310 C   0  0  0  0  0  0
  -16.7286  -28.6430   23.0372 C   0  0  0  0  0  0
  -26.4527  -31.6585   25.0702 C   0  0  0  0  0  0
  -25.3765  -31.3689   26.1417 C   0  0  0  0  0  0
  -27.0364  -30.3029   24.6078 C   0  0  0  0  0  0
  -27.6104  -32.4307   25.7465 C   0  0  0  0  0  0
  -27.5594  -37.1794   24.8482 C   0  0  0  0  0  0
  -21.4179  -29.3054   22.3714 N   0  0  0  0  0  0
  -26.4310  -37.3786   23.9419 N   0  0  0  0  0  0
  -24.6709  -31.0806   22.1043 N   0  0  0  0  0  0
  -23.4215  -28.8219   23.3026 O   0  0  0  0  0  0
  -28.3428  -26.6163   20.1278 O   0  0  0  0  0  0
  -26.5580  -34.8952   22.4660 O   0  0  0  0  0  0
  -23.5378  -32.1521   23.7493 O   0  0  0  0  0  0
  -29.5529  -17.9419   20.7512 C   0  0  0  0  0  0
  -30.5499  -16.9915   22.7559 C   0  0  0  0  0  0
  -29.4857  -19.2329   21.3481 C   0  0  0  0  0  0
  -29.9057  -19.3712   22.7120 C   0  0  0  0  0  0
  -30.0508  -16.8149   21.4499 C   0  0  0  0  0  0
  -30.4792  -18.2525   23.3888 C   0  0  0  0  0  0
  -29.6779  -20.6485   23.4548 C   0  0  0  0  0  0
  -28.7877  -20.3469   20.5789 C   0  0  0  0  0  0
  -28.0809  -22.1072   24.8532 C   0  0  0  0  0  0
  -28.0627  -25.5680   22.2774 C   0  0  0  0  0  0
  -28.3750  -20.7170   24.2637 C   0  0  0  0  0  0
  -29.1007  -24.1863   20.3998 C   0  0  0  0  0  0
  -28.4016  -22.7880   20.3726 C   0  0  0  0  0  0
  -28.0987  -25.3317   20.7577 C   0  0  2  0  0  0
  -30.9275  -18.3178   24.7151 N   0  0  0  0  0  0
  -29.8050  -15.4966   20.9587 N   0  0  0  0  0  0
  -29.2514  -21.6147   20.6576 N   0  0  0  0  0  0
  -30.4401  -21.6185   23.3857 O   0  0  0  0  0  0
  -27.7913  -20.0725   19.9089 O   0  0  0  0  0  0
  -31.4807  -12.4738   19.1155 H   0  0  0  0  0  0
  -30.3646  -11.3261   19.8028 H   0  0  0  0  0  0
  -29.7484  -11.8106   17.4124 H   0  0  0  0  0  0
  -29.6599  -13.5180   17.7635 H   0  0  0  0  0  0
  -27.8201  -11.3211   18.7712 H   0  0  0  0  0  0
  -27.3746  -12.6815   17.7725 H   0  0  0  0  0  0
  -27.7005  -14.2480   19.5751 H   0  0  0  0  0  0
  -28.6822  -11.9264   21.2976 H   0  0  0  0  0  0
  -28.4560  -13.5459   21.8777 H   0  0  0  0  0  0
  -25.2738   -9.5702   22.4770 H   0  0  0  0  0  0
  -23.9996   -7.4630   22.7485 H   0  0  0  0  0  0
  -21.0802   -8.8772   19.8948 H   0  0  0  0  0  0
  -22.3658  -10.9676   19.6161 H   0  0  0  0  0  0
  -21.2024   -7.6133   23.9713 H   0  0  0  0  0  0
  -21.1491   -6.0505   25.9077 H   0  0  0  0  0  0
  -22.0582   -2.7593   23.2852 H   0  0  0  0  0  0
  -22.4023  -12.0000   22.4850 H   0  0  0  0  0  0
  -21.1059  -13.1376   22.2539 H   0  0  0  0  0  0
  -24.6697  -15.8459   20.5300 H   0  0  0  0  0  0
  -26.2837  -15.6246   20.0804 H   0  0  0  0  0  0
  -26.7178  -32.5556   23.1138 H   0  0  0  0  0  0
  -25.0269  -33.9771   25.0588 H   0  0  0  0  0  0
  -22.6965  -31.3191   21.4241 H   0  0  0  0  0  0
  -23.3778  -35.9574   23.3307 H   0  0  0  0  0  0
  -24.3607  -36.8853   22.2038 H   0  0  0  0  0  0
  -23.7242  -37.6477   23.6633 H   0  0  0  0  0  0
  -26.0618  -31.6017   20.6155 H   0  0  0  0  0  0
  -26.8181  -30.8714   22.0011 H   0  0  0  0  0  0
  -28.1004  -29.0779   21.1638 H   0  0  0  0  0  0
  -26.0276  -26.0119   18.9405 H   0  0  0  0  0  0
  -23.9671  -27.3318   18.9984 H   0  0  0  0  0  0
  -23.7234  -30.6213   19.4118 H   0  0  0  0  0  0
  -22.7311  -29.2699   19.8631 H   0  0  0  0  0  0
  -25.1296  -36.1970   25.0831 H   0  0  0  0  0  0
  -20.9947  -28.3231   24.1390 H   0  0  0  0  0  0
  -20.5750  -26.2311   23.3603 H   0  0  0  0  0  0
  -21.6704  -26.7439   22.1201 H   0  0  0  0  0  0
  -19.6898  -25.6098   21.1404 H   0  0  0  0  0  0
  -19.6731  -27.2909   20.6628 H   0  0  0  0  0  0
  -17.4201  -26.6548   21.4018 H   0  0  0  0  0  0
  -18.0350  -26.0052   22.9038 H   0  0  0  0  0  0
  -19.7984  -30.7240   24.2154 H   0  0  0  0  0  0
  -17.5044  -31.6249   24.5082 H   0  0  0  0  0  0
  -15.5367  -30.2919   23.7618 H   0  0  0  0  0  0
  -15.8686  -28.0666   22.7186 H   0  0  0  0  0  0
  -24.5944  -30.7063   25.7700 H   0  0  0  0  0  0
  -24.8930  -32.2830   26.4862 H   0  0  0  0  0  0
  -25.8058  -30.8828   27.0172 H   0  0  0  0  0  0
  -26.2888  -29.6769   24.1191 H   0  0  0  0  0  0
  -27.4205  -29.7318   25.4530 H   0  0  0  0  0  0
  -27.8707  -30.4333   23.9183 H   0  0  0  0  0  0
  -27.2730  -33.3596   26.2058 H   0  0  0  0  0  0
  -28.3879  -32.6870   25.0270 H   0  0  0  0  0  0
  -28.0819  -31.8434   26.5342 H   0  0  0  0  0  0
  -28.2603  -38.0093   24.7524 H   0  0  0  0  0  0
  -28.1086  -36.2617   24.6309 H   0  0  0  0  0  0
  -27.2303  -37.1465   25.8882 H   0  0  0  0  0  0
  -20.9369  -29.8845   21.6983 H   0  0  0  0  0  0
  -26.0193  -38.2853   24.1442 H   0  0  0  0  0  0
  -29.1425  -17.8041   19.7595 H   0  0  0  0  0  0
  -30.9036  -16.1299   23.3094 H   0  0  0  0  0  0
  -27.1117  -22.1206   25.3511 H   0  0  0  0  0  0
  -28.0583  -22.8720   24.0797 H   0  0  0  0  0  0
  -28.8372  -22.3996   25.5830 H   0  0  0  0  0  0
  -27.8360  -24.6502   22.8142 H   0  0  0  0  0  0
  -27.2975  -26.2923   22.5579 H   0  0  0  0  0  0
  -29.0206  -25.9421   22.6401 H   0  0  0  0  0  0
  -28.4211  -19.9795   25.0662 H   0  0  0  0  0  0
  -27.5482  -20.4152   23.6184 H   0  0  0  0  0  0
  -29.5507  -24.3749   19.4234 H   0  0  0  0  0  0
  -29.9290  -24.1915   21.1091 H   0  0  0  0  0  0
  -27.9103  -22.6593   19.4075 H   0  0  0  0  0  0
  -27.6048  -22.7679   21.1189 H   0  0  0  0  0  0
  -27.1181  -24.9542   20.4714 H   0  0  0  0  0  0
  -31.4470  -17.5436   25.1196 H   0  0  0  0  0  0
  -31.1366  -19.2067   25.1565 H   0  0  0  0  0  0
  -28.8482  -15.1878   21.0361 H   0  0  0  0  0  0
  -30.1029  -21.7660   21.1869 H   0  0  0  0  0  0
  1 25  1  0  0  0
  1 30  2  0  0  0
  1 86  1  0  0  0
  2  3  1  0  0  0
  2 25  1  0  0  0
  2 90  1  0  0  0
  2 91  1  0  0  0
  3  4  1  0  0  0
  3 92  1  0  0  0
  3 93  1  0  0  0
  4  5  1  0  0  0
  4 94  1  0  0  0
  4 95  1  0  0  0
  5  6  1  0  0  0
  5 26  1  0  0  0
  5 96  1  0  0  0
  6 25  1  0  0  0
  6 97  1  0  0  0
  6 98  1  0  0  0
  7  8  2  0  0  0
  7 26  1  0  0  0
  7 29  1  0  0  0
  8  9  1  0  0  0
  8 22  1  0  0  0
  9 10  1  0  0  0
  9 27  2  0  0  0
 10 11  2  0  0  0
 10 15  1  0  0  0
 11 12  1  0  0  0
 11 99  1  0  0  0
 12 13  2  0  0  0
 12100  1  0  0  0
 13 14  1  0  0  0
 13 31  1  0  0  0
 14 15  2  0  0  0
 14101  1  0  0  0
 15102  1  0  0  0
 16 17  2  0  0  0
 16 21  1  0  0  0
 16 31  1  0  0  0
 17 18  1  0  0  0
 17103  1  0  0  0
 18 19  2  0  0  0
 18104  1  0  0  0
 19 20  1  0  0  0
 19 24  1  0  0  0
 20 21  2  0  0  0
 20105  1  0  0  0
 21 23  1  0  0  0
 22 28  1  0  0  0
 22 32  2  0  0  0
 26 27  1  0  0  0
 28106  1  0  0  0
 28107  1  0  0  0
 29108  1  0  0  0
 29109  1  0  0  0
 33 34  1  0  0  0
 33 66  1  0  0  0
 33 70  2  0  0  0
 34 36  1  0  0  0
 34 59  1  0  0  0
 34110  1  0  0  0
 35 44  2  0  0  0
 35 45  1  0  0  0
 35 68  1  0  0  0
 36 56  1  0  0  0
 36111  1  0  0  0
 37 39  1  0  0  0
 37 47  1  0  0  0
 37 66  1  0  0  0
 37112  1  0  0  0
 38 43  2  0  0  0
 38 46  1  0  0  0
 38 47  1  0  0  0
 39 64  1  0  0  0
 39 67  2  0  0  0
 40 52  1  0  0  0
 40 53  2  0  0  0
 40 58  1  0  0  0
 41113  1  0  0  0
 41114  1  0  0  0
 41115  1  0  0  0
 41 48  1  0  0  0
 42 43  1  0  0  0
 42 66  1  0  0  0
 42116  1  0  0  0
 42117  1  0  0  0
 43 44  1  0  0  0
 44118  1  0  0  0
 45 46  2  0  0  0
 45119  1  0  0  0
 46120  1  0  0  0
 47121  1  0  0  0
 47122  1  0  0  0
 48 56  1  0  0  0
 48 65  1  0  0  0
 48123  1  0  0  0
 49 50  1  0  0  0
 49 53  1  0  0  0
 49 64  1  0  0  0
 49124  1  0  0  0
 50 51  1  0  0  0
 50125  1  0  0  0
 50126  1  0  0  0
 51 52  1  0  0  0
 51127  1  0  0  0
 51128  1  0  0  0
 52129  1  0  0  0
 52130  1  0  0  0
 53 54  1  0  0  0
 54 55  2  0  0  0
 54131  1  0  0  0
 55 57  1  0  0  0
 55132  1  0  0  0
 56 69  2  0  0  0
 57 58  2  0  0  0
 57133  1  0  0  0
 58134  1  0  0  0
 59 60  1  0  0  0
 59 61  1  0  0  0
 59 62  1  0  0  0
 60135  1  0  0  0
 60136  1  0  0  0
 60137  1  0  0  0
 61138  1  0  0  0
 61139  1  0  0  0
 61140  1  0  0  0
 62141  1  0  0  0
 62142  1  0  0  0
 62143  1  0  0  0
 63 65  1  0  0  0
 63144  1  0  0  0
 63145  1  0  0  0
 63146  1  0  0  0
 64147  1  0  0  0
 65148  1  0  0  0
 68 84  1  0  0  0
 71 73  2  0  0  0
 71 75  1  0  0  0
 71149  1  0  0  0
 72 75  2  0  0  0
 72 76  1  0  0  0
 72150  1  0  0  0
 73 74  1  0  0  0
 73 78  1  0  0  0
 74 76  2  0  0  0
 74 77  1  0  0  0
 75 86  1  0  0  0
 76 85  1  0  0  0
 77 81  1  0  0  0
 77 88  2  0  0  0
 78 87  1  0  0  0
 78 89  2  0  0  0
 79 81  1  0  0  0
 79151  1  0  0  0
 79152  1  0  0  0
 79153  1  0  0  0
 80154  1  0  0  0
 80155  1  0  0  0
 80156  1  0  0  0
 80 84  1  0  0  0
 81157  1  0  0  0
 81158  1  0  0  0
 82 83  1  0  0  0
 82 84  1  0  0  0
 82159  1  0  0  0
 82160  1  0  0  0
 83 87  1  0  0  0
 83161  1  0  0  0
 83162  1  0  0  0
 84163  1  0  0  0
 85164  1  0  0  0
 85165  1  0  0  0
 86166  1  0  0  0
 87167  1  0  0  0
M  ISO  4   1 100  68 101  84 101  86 100
M  END
> <chiral flag>
0

> <version>
0

> <s_m_source_file>
/data/baiqing/PycharmProjects/Reinvent-master-3.2/result/LINK_invent/BTK/process_docking_weight1_custom_product_contain_oxygen_bond_distance_aromatic_linkinvent_7_9_3/rearranged_h_0164.sdf

> <i_m_source_file_index>
87

> <r_mmod_Potential_Energy-OPLS-2005>
36.0388488769531

> <r_mmod_Stretch_Energy-OPLS-2005>
47.5797500610352

> <r_mmod_Bend_Energy-OPLS-2005>
111.054512023926

> <r_mmod_Torsional_Energy-OPLS-2005>
343.700012207031

> <r_mmod_Improper_Torsional_Energy-OPLS-2005>
11.6405687332153

> <r_mmod_Van_der_Waal_Energy-OPLS-2005>
165.103759765625

> <r_mmod_Electrostatic_Energy-OPLS-2005>
-430.253448486328

> <r_mmod_Solvation_Energy-OPLS-2005>
-233.583084106445

> <b_mmod_Minimization_Converged-OPLS-2005>
0

> <r_mmod_RMS_Derivative-OPLS-2005>
4.19082736968994

$$$$
88
                    3D
 Structure written by MMmdl.
160168  0  0  1  0            999 V2000
  -30.1581  -14.5093   21.5726 C   0  0  0  0  0  0
  -29.2379  -13.7111   18.1276 C   0  0  0  0  0  0
  -28.8817  -12.4059   17.5920 C   0  0  0  0  0  0
  -27.9226  -12.0665   18.6610 C   0  0  0  0  0  0
  -27.9847  -13.1660   19.8295 C   0  0  2  0  0  0
  -30.3585  -13.6329   21.0349 C   0  0  0  0  0  0
  -25.3944  -13.7712   20.5919 C   0  0  0  0  0  0
  -24.2887  -13.0225   20.9218 C   0  0  0  0  0  0
  -24.7307  -11.6709   20.8852 C   0  0  0  0  0  0
  -23.9589  -10.4204   21.0390 C   0  0  0  0  0  0
  -24.3887   -9.4070   21.9237 C   0  0  0  0  0  0
  -23.6385   -8.2208   22.0814 C   0  0  0  0  0  0
  -22.4360   -8.0366   21.3576 C   0  0  0  0  0  0
  -22.0147   -9.0418   20.4681 C   0  0  0  0  0  0
  -22.7675  -10.2199   20.3075 C   0  0  0  0  0  0
  -21.6845   -6.0818   22.5272 C   0  0  0  0  0  0
  -21.4017   -6.5687   23.8227 C   0  0  0  0  0  0
  -21.3653   -5.6811   24.9173 C   0  0  0  0  0  0
  -21.6039   -4.3079   24.7192 C   0  0  0  0  0  0
  -21.8827   -3.8202   23.4303 C   0  0  0  0  0  0
  -21.9181   -4.7042   22.3374 C   0  0  0  0  0  0
  -22.8761  -13.5143   21.1686 C   0  0  0  0  0  0
  -22.1644   -4.2242   21.0946 F   0  0  0  0  0  0
  -21.5620   -3.4546   25.7692 F   0  0  0  0  0  0
  -29.3690  -13.7689   20.0369 N   0  0  0  0  0  0
  -26.5103  -12.8975   20.4141 N   0  0  0  0  0  0
  -26.0476  -11.6215   20.6416 N   0  0  0  0  0  0
  -22.1193  -12.8223   22.0174 N   0  0  0  0  0  0
  -25.4873  -15.1485   20.4071 N   0  0  0  0  0  0
  -31.2022  -15.4558   21.6535 O   0  0  0  0  0  0
  -21.6633   -6.9016   21.4260 O   0  0  0  0  0  0
  -22.4457  -14.5473   20.6540 O   0  0  0  0  0  0
  -24.6632  -31.8272   23.1718 C   0  0  0  0  0  0
  -25.9333  -32.4602   23.8173 C   0  0  1  0  0  0
  -27.2347  -27.0048   20.0962 C   0  0  0  0  0  0
  -25.6003  -33.8413   24.2090 N   0  0  0  0  0  0
  -23.4740  -30.4405   21.5230 C   0  0  2  0  0  0
  -24.9226  -28.8433   20.1072 C   0  0  0  0  0  0
  -22.7671  -29.4445   22.4793 C   0  0  0  0  0  0
  -18.0313  -28.1422   22.8449 C   0  0  0  0  0  0
  -24.1493  -36.7215   23.2640 C   0  0  0  0  0  0
  -26.0438  -30.6501   21.3949 C   0  0  0  0  0  0
  -26.1113  -29.2510   20.7251 C   0  0  0  0  0  0
  -27.2645  -28.3507   20.7003 C   0  0  0  0  0  0
  -26.0037  -26.7273   19.4625 C   0  0  0  0  0  0
  -24.8881  -27.5975   19.4652 C   0  0  0  0  0  0
  -23.7076  -29.7649   20.1466 C   0  0  0  0  0  0
  -25.4131  -36.2973   24.0297 C   0  0  1  0  0  0
  -20.5942  -28.3762   23.1191 C   0  0  2  0  0  0
  -20.6803  -26.9450   22.5399 C   0  0  0  0  0  0
  -19.5772  -26.6387   21.5214 C   0  0  0  0  0  0
  -18.1951  -26.7951   22.1618 C   0  0  0  0  0  0
  -19.1577  -28.8909   23.2802 C   0  0  0  0  0  0
  -18.9488  -30.1498   23.8843 C   0  0  0  0  0  0
  -17.6480  -30.6606   24.0558 C   0  0  0  0  0  0
  -25.9102  -34.9357   23.5014 C   0  0  0  0  0  0
  -16.5369  -29.9098   23.6342 C   0  0  0  0  0  0
  -16.7294  -28.6523   23.0350 C   0  0  0  0  0  0
  -26.4577  -31.6531   25.0694 C   0  0  0  0  0  0
  -25.3696  -31.3794   26.1345 C   0  0  0  0  0  0
  -27.0487  -30.2898   24.6440 C   0  0  0  0  0  0
  -27.6071  -32.4332   25.7504 C   0  0  0  0  0  0
  -27.5581  -37.1748   24.8458 C   0  0  0  0  0  0
  -21.4340  -29.3052   22.3554 N   0  0  0  0  0  0
  -26.4276  -37.3712   23.9420 N   0  0  0  0  0  0
  -24.7481  -30.9973   22.0841 N   0  0  0  0  0  0
  -23.4227  -28.8001   23.3017 O   0  0  0  0  0  0
  -28.2662  -25.9439   20.0851 O   0  0  0  0  0  0
  -26.5705  -34.8894   22.4604 O   0  0  0  0  0  0
  -23.5704  -32.1235   23.6819 O   0  0  0  0  0  0
  -29.0832  -11.9053   21.3533 C   0  0  0  0  0  0
  -28.5177  -15.7099   20.6686 C   0  0  0  0  0  0
  -30.5808  -11.9294   19.6769 C   0  0  0  0  0  0
  -28.3158  -13.9969   21.9245 C   0  0  0  0  0  0
  -30.1410  -15.7598   19.4079 C   0  0  0  0  0  0
  -31.3370  -13.9594   19.0027 C   0  0  0  0  0  0
  -29.7301  -19.9862   19.3612 C   0  0  0  0  0  0
  -29.5453  -18.5338   19.3837 C   0  0  0  0  0  0
  -29.0608  -23.0414   19.7750 C   0  0  0  0  0  0
  -31.2993  -10.6526   19.2937 C   0  0  0  0  0  0
  -28.7139  -21.3551   19.6189 C   0  0  0  0  0  0
  -27.9581  -24.3705   19.8219 C   0  0  0  0  0  0
  -32.4851  -14.0721   18.2182 N   0  0  0  0  0  0
  -30.3497  -17.2446   19.0952 N   0  0  0  0  0  0
  -29.2517  -14.5730   22.7150 N   0  0  0  0  0  0
  -30.2583  -23.3306   19.8586 O   0  0  0  0  0  0
  -31.9271  -10.7864   18.1257 F   0  0  0  0  0  0
  -28.4501  -14.4004   17.7955 H   0  0  0  0  0  0
  -29.8834  -14.1889   17.3740 H   0  0  0  0  0  0
  -29.6939  -11.7051   17.4156 H   0  0  0  0  0  0
  -28.3832  -12.5312   16.6278 H   0  0  0  0  0  0
  -28.1435  -11.0669   19.0375 H   0  0  0  0  0  0
  -26.9322  -11.9863   18.2060 H   0  0  0  0  0  0
  -27.4280  -14.0437   19.3929 H   0  0  0  0  0  0
  -30.9672  -12.6944   21.6700 H   0  0  0  0  0  0
  -31.5729  -13.2414   20.9597 H   0  0  0  0  0  0
  -25.3050   -9.5430   22.4835 H   0  0  0  0  0  0
  -24.0025   -7.4588   22.7562 H   0  0  0  0  0  0
  -21.1073   -8.9061   19.8968 H   0  0  0  0  0  0
  -22.4270  -10.9777   19.6153 H   0  0  0  0  0  0
  -21.2032   -7.6199   23.9780 H   0  0  0  0  0  0
  -21.1456   -6.0519   25.9084 H   0  0  0  0  0  0
  -22.0619   -2.7670   23.2763 H   0  0  0  0  0  0
  -22.4677  -11.9854   22.4617 H   0  0  0  0  0  0
  -21.1810  -13.1323   22.2246 H   0  0  0  0  0  0
  -24.6703  -15.7448   20.4694 H   0  0  0  0  0  0
  -26.3211  -15.6413   20.1166 H   0  0  0  0  0  0
  -26.7418  -32.5143   23.0897 H   0  0  0  0  0  0
  -25.0107  -33.9500   25.0211 H   0  0  0  0  0  0
  -22.7851  -31.2709   21.3573 H   0  0  0  0  0  0
  -23.3777  -35.9522   23.3238 H   0  0  0  0  0  0
  -24.3576  -36.8929   22.2067 H   0  0  0  0  0  0
  -23.7221  -37.6372   23.6738 H   0  0  0  0  0  0
  -26.2306  -31.4013   20.6255 H   0  0  0  0  0  0
  -26.9011  -30.6885   22.0553 H   0  0  0  0  0  0
  -28.1726  -28.6651   21.1959 H   0  0  0  0  0  0
  -25.8692  -25.7831   18.9568 H   0  0  0  0  0  0
  -23.9831  -27.2795   18.9666 H   0  0  0  0  0  0
  -23.8633  -30.5392   19.3949 H   0  0  0  0  0  0
  -22.8188  -29.2203   19.8245 H   0  0  0  0  0  0
  -25.1320  -36.1763   25.0785 H   0  0  0  0  0  0
  -21.0011  -28.3365   24.1319 H   0  0  0  0  0  0
  -20.5712  -26.2372   23.3632 H   0  0  0  0  0  0
  -21.6663  -26.7450   22.1182 H   0  0  0  0  0  0
  -19.6944  -25.6283   21.1276 H   0  0  0  0  0  0
  -19.6726  -27.3173   20.6724 H   0  0  0  0  0  0
  -17.4227  -26.6670   21.4023 H   0  0  0  0  0  0
  -18.0357  -26.0122   22.9042 H   0  0  0  0  0  0
  -19.7967  -30.7327   24.2198 H   0  0  0  0  0  0
  -17.5036  -31.6280   24.5182 H   0  0  0  0  0  0
  -15.5371  -30.2988   23.7709 H   0  0  0  0  0  0
  -15.8686  -28.0838   22.7092 H   0  0  0  0  0  0
  -24.5865  -30.7175   25.7631 H   0  0  0  0  0  0
  -24.8910  -32.3013   26.4664 H   0  0  0  0  0  0
  -25.7902  -30.9001   27.0195 H   0  0  0  0  0  0
  -26.3170  -29.6546   24.1440 H   0  0  0  0  0  0
  -27.4017  -29.7290   25.5106 H   0  0  0  0  0  0
  -27.9105  -30.4083   23.9867 H   0  0  0  0  0  0
  -27.2644  -33.3668   26.1984 H   0  0  0  0  0  0
  -28.3939  -32.6836   25.0372 H   0  0  0  0  0  0
  -28.0686  -31.8523   26.5505 H   0  0  0  0  0  0
  -28.2536  -38.0105   24.7567 H   0  0  0  0  0  0
  -28.1143  -36.2635   24.6204 H   0  0  0  0  0  0
  -27.2310  -37.1286   25.8860 H   0  0  0  0  0  0
  -20.9607  -29.8752   21.6686 H   0  0  0  0  0  0
  -26.0125  -38.2765   24.1459 H   0  0  0  0  0  0
  -28.7523  -11.0040   21.8493 H   0  0  0  0  0  0
  -28.0549  -16.6330   20.9807 H   0  0  0  0  0  0
  -30.7263  -20.3077   19.0913 H   0  0  0  0  0  0
  -28.5360  -18.2567   19.6488 H   0  0  0  0  0  0
  -30.5988   -9.8227   19.2141 H   0  0  0  0  0  0
  -32.0488  -10.3966   20.0435 H   0  0  0  0  0  0
  -28.1108  -21.1121   20.4939 H   0  0  0  0  0  0
  -28.0008  -21.3200   18.7947 H   0  0  0  0  0  0
  -27.1924  -24.0944   20.5483 H   0  0  0  0  0  0
  -27.4522  -24.3285   18.8580 H   0  0  0  0  0  0
  -33.1242  -13.2843   18.1848 H   0  0  0  0  0  0
  -32.9433  -14.9759   18.1630 H   0  0  0  0  0  0
  -31.2411  -17.3966   18.6317 H   0  0  0  0  0  0
  -29.1540  -15.4404   23.2238 H   0  0  0  0  0  0
  1 25  1  0  0  0
  1 30  2  0  0  0
  1 85  1  0  0  0
  2  3  1  0  0  0
  2 25  1  0  0  0
  2 88  1  0  0  0
  2 89  1  0  0  0
  3  4  1  0  0  0
  3 90  1  0  0  0
  3 91  1  0  0  0
  4  5  1  0  0  0
  4 92  1  0  0  0
  4 93  1  0  0  0
  5  6  1  0  0  0
  5 26  1  0  0  0
  5 94  1  0  0  0
  6 25  1  0  0  0
  6 95  1  0  0  0
  6 96  1  0  0  0
  7  8  2  0  0  0
  7 26  1  0  0  0
  7 29  1  0  0  0
  8  9  1  0  0  0
  8 22  1  0  0  0
  9 10  1  0  0  0
  9 27  2  0  0  0
 10 11  2  0  0  0
 10 15  1  0  0  0
 11 12  1  0  0  0
 11 97  1  0  0  0
 12 13  2  0  0  0
 12 98  1  0  0  0
 13 14  1  0  0  0
 13 31  1  0  0  0
 14 15  2  0  0  0
 14 99  1  0  0  0
 15100  1  0  0  0
 16 17  2  0  0  0
 16 21  1  0  0  0
 16 31  1  0  0  0
 17 18  1  0  0  0
 17101  1  0  0  0
 18 19  2  0  0  0
 18102  1  0  0  0
 19 20  1  0  0  0
 19 24  1  0  0  0
 20 21  2  0  0  0
 20103  1  0  0  0
 21 23  1  0  0  0
 22 28  1  0  0  0
 22 32  2  0  0  0
 26 27  1  0  0  0
 28104  1  0  0  0
 28105  1  0  0  0
 29106  1  0  0  0
 29107  1  0  0  0
 33 34  1  0  0  0
 33 66  1  0  0  0
 33 70  2  0  0  0
 34 36  1  0  0  0
 34 59  1  0  0  0
 34108  1  0  0  0
 35 44  2  0  0  0
 35 45  1  0  0  0
 35 68  1  0  0  0
 36 56  1  0  0  0
 36109  1  0  0  0
 37 39  1  0  0  0
 37 47  1  0  0  0
 37 66  1  0  0  0
 37110  1  0  0  0
 38 43  2  0  0  0
 38 46  1  0  0  0
 38 47  1  0  0  0
 39 64  1  0  0  0
 39 67  2  0  0  0
 40 52  1  0  0  0
 40 53  2  0  0  0
 40 58  1  0  0  0
 41111  1  0  0  0
 41112  1  0  0  0
 41113  1  0  0  0
 41 48  1  0  0  0
 42 43  1  0  0  0
 42 66  1  0  0  0
 42114  1  0  0  0
 42115  1  0  0  0
 43 44  1  0  0  0
 44116  1  0  0  0
 45 46  2  0  0  0
 45117  1  0  0  0
 46118  1  0  0  0
 47119  1  0  0  0
 47120  1  0  0  0
 48 56  1  0  0  0
 48 65  1  0  0  0
 48121  1  0  0  0
 49 50  1  0  0  0
 49 53  1  0  0  0
 49 64  1  0  0  0
 49122  1  0  0  0
 50 51  1  0  0  0
 50123  1  0  0  0
 50124  1  0  0  0
 51 52  1  0  0  0
 51125  1  0  0  0
 51126  1  0  0  0
 52127  1  0  0  0
 52128  1  0  0  0
 53 54  1  0  0  0
 54 55  2  0  0  0
 54129  1  0  0  0
 55 57  1  0  0  0
 55130  1  0  0  0
 56 69  2  0  0  0
 57 58  2  0  0  0
 57131  1  0  0  0
 58132  1  0  0  0
 59 60  1  0  0  0
 59 61  1  0  0  0
 59 62  1  0  0  0
 60133  1  0  0  0
 60134  1  0  0  0
 60135  1  0  0  0
 61136  1  0  0  0
 61137  1  0  0  0
 61138  1  0  0  0
 62139  1  0  0  0
 62140  1  0  0  0
 62141  1  0  0  0
 63 65  1  0  0  0
 63142  1  0  0  0
 63143  1  0  0  0
 63144  1  0  0  0
 64145  1  0  0  0
 65146  1  0  0  0
 68 82  1  0  0  0
 71 73  2  0  0  0
 71 74  1  0  0  0
 71147  1  0  0  0
 72 74  2  0  0  0
 72 75  1  0  0  0
 72148  1  0  0  0
 73 76  1  0  0  0
 73 80  1  0  0  0
 74 85  1  0  0  0
 75 76  2  0  0  0
 75 84  1  0  0  0
 76 83  1  0  0  0
 77 78  2  0  0  0
 77 81  1  0  0  0
 77149  1  0  0  0
 78 84  1  0  0  0
 78150  1  0  0  0
 79 81  1  0  0  0
 79 82  1  0  0  0
 79 86  2  0  0  0
 80 87  1  0  0  0
 80151  1  0  0  0
 80152  1  0  0  0
 81153  1  0  0  0
 81154  1  0  0  0
 82155  1  0  0  0
 82156  1  0  0  0
 83157  1  0  0  0
 83158  1  0  0  0
 84159  1  0  0  0
 85160  1  0  0  0
M  ISO  4   1 100  68 101  82 101  85 100
M  END
> <chiral flag>
0

> <version>
0

> <s_m_source_file>
/data/baiqing/PycharmProjects/Reinvent-master-3.2/result/LINK_invent/BTK/process_docking_weight1_custom_product_contain_oxygen_bond_distance_aromatic_linkinvent_7_9_3/rearranged_h_0164.sdf

> <i_m_source_file_index>
88

> <r_mmod_Potential_Energy-OPLS-2005>
19371.064453125

> <r_mmod_Stretch_Energy-OPLS-2005>
10814.0546875

> <r_mmod_Bend_Energy-OPLS-2005>
2236.29516601562

> <r_mmod_Torsional_Energy-OPLS-2005>
418.875030517578

> <r_mmod_Improper_Torsional_Energy-OPLS-2005>
61.0958404541016

> <r_mmod_Van_der_Waal_Energy-OPLS-2005>
4768.4765625

> <r_mmod_Electrostatic_Energy-OPLS-2005>
-359.378204345703

> <r_mmod_Solvation_Energy-OPLS-2005>
-228.60009765625

> <b_mmod_Minimization_Converged-OPLS-2005>
0

> <r_mmod_RMS_Derivative-OPLS-2005>
5.05231714248657

$$$$
89
                    3D
 Structure written by MMmdl.
156164  0  0  1  0            999 V2000
  -30.5476  -14.8061   20.4751 C   0  0  0  0  0  0
  -30.4656  -12.4979   19.4709 C   0  0  0  0  0  0
  -29.5305  -12.5296   18.2386 C   0  0  0  0  0  0
  -28.0551  -12.3385   18.6462 C   0  0  0  0  0  0
  -27.6535  -13.2234   19.8556 C   0  0  2  0  0  0
  -28.7016  -13.1367   20.9883 C   0  0  0  0  0  0
  -25.2606  -13.8165   20.5690 C   0  0  0  0  0  0
  -24.1872  -13.0433   20.9186 C   0  0  0  0  0  0
  -24.6445  -11.6905   20.8736 C   0  0  0  0  0  0
  -23.9098  -10.4291   21.0404 C   0  0  0  0  0  0
  -24.3640   -9.4202   21.9181 C   0  0  0  0  0  0
  -23.6295   -8.2248   22.0764 C   0  0  0  0  0  0
  -22.4281   -8.0287   21.3548 C   0  0  0  0  0  0
  -21.9919   -9.0269   20.4654 C   0  0  0  0  0  0
  -22.7268  -10.2139   20.3051 C   0  0  0  0  0  0
  -21.6850   -6.0745   22.5278 C   0  0  0  0  0  0
  -21.4020   -6.5647   23.8215 C   0  0  0  0  0  0
  -21.3650   -5.6794   24.9171 C   0  0  0  0  0  0
  -21.6035   -4.3057   24.7222 C   0  0  0  0  0  0
  -21.8821   -3.8154   23.4346 C   0  0  0  0  0  0
  -21.9205   -4.6972   22.3404 C   0  0  0  0  0  0
  -22.7899  -13.5239   21.1834 C   0  0  0  0  0  0
  -22.1666   -4.2162   21.0981 F   0  0  0  0  0  0
  -21.5620   -3.4537   25.7734 F   0  0  0  0  0  0
  -29.9968  -13.5389   20.4176 N   0  0  0  0  0  0
  -26.3016  -12.9339   20.3273 N   0  0  0  0  0  0
  -25.9377  -11.6491   20.5720 N   0  0  0  0  0  0
  -22.0533  -12.8238   22.0380 N   0  0  0  0  0  0
  -25.4335  -15.1889   20.4123 N   0  0  0  0  0  0
  -31.7216  -14.9761   20.1257 O   0  0  0  0  0  0
  -21.6639   -6.8895   21.4246 O   0  0  0  0  0  0
  -22.3590  -14.5541   20.6671 O   0  0  0  0  0  0
  -24.6359  -31.8526   23.1962 C   0  0  0  0  0  0
  -25.9159  -32.4750   23.8327 C   0  0  1  0  0  0
  -27.2311  -27.2210   20.1251 C   0  0  0  0  0  0
  -25.5935  -33.8544   24.2250 N   0  0  0  0  0  0
  -23.4358  -30.4742   21.5403 C   0  0  2  0  0  0
  -24.8859  -28.9161   20.1079 C   0  0  0  0  0  0
  -22.7525  -29.4592   22.4894 C   0  0  0  0  0  0
  -18.0314  -28.1365   22.8513 C   0  0  0  0  0  0
  -24.1469  -36.7251   23.2646 C   0  0  0  0  0  0
  -25.9869  -30.7509   21.3855 C   0  0  0  0  0  0
  -26.0580  -29.3700   20.7232 C   0  0  0  0  0  0
  -27.2271  -28.5356   20.7218 C   0  0  0  0  0  0
  -26.0286  -26.8465   19.4810 C   0  0  0  0  0  0
  -24.8800  -27.6633   19.4765 C   0  0  0  0  0  0
  -23.6561  -29.8057   20.1575 C   0  0  0  0  0  0
  -25.4104  -36.3058   24.0334 C   0  0  1  0  0  0
  -20.5923  -28.3683   23.1244 C   0  0  2  0  0  0
  -20.6779  -26.9394   22.5390 C   0  0  0  0  0  0
  -19.5750  -26.6377   21.5196 C   0  0  0  0  0  0
  -18.1942  -26.7916   22.1627 C   0  0  0  0  0  0
  -19.1568  -28.8847   23.2880 C   0  0  0  0  0  0
  -18.9477  -30.1449   23.8894 C   0  0  0  0  0  0
  -17.6465  -30.6571   24.0559 C   0  0  0  0  0  0
  -25.9056  -34.9439   23.5099 C   0  0  0  0  0  0
  -16.5363  -29.9054   23.6334 C   0  0  0  0  0  0
  -16.7293  -28.6462   23.0388 C   0  0  0  0  0  0
  -26.4502  -31.6594   25.0737 C   0  0  0  0  0  0
  -25.3690  -31.3783   26.1434 C   0  0  0  0  0  0
  -27.0351  -30.3000   24.6265 C   0  0  0  0  0  0
  -27.6046  -32.4358   25.7514 C   0  0  0  0  0  0
  -27.5571  -37.1788   24.8476 C   0  0  0  0  0  0
  -21.4233  -29.3022   22.3612 N   0  0  0  0  0  0
  -26.4279  -37.3765   23.9426 N   0  0  0  0  0  0
  -24.7056  -31.0450   22.0961 N   0  0  0  0  0  0
  -23.4194  -28.8153   23.3038 O   0  0  0  0  0  0
  -28.3250  -26.3106   20.2289 O   0  0  0  0  0  0
  -26.5633  -34.8914   22.4670 O   0  0  0  0  0  0
  -23.5486  -32.1364   23.7218 O   0  0  0  0  0  0
  -29.7897  -19.7453   20.5406 C   0  0  0  0  0  0
  -28.9409  -19.6888   21.6381 C   0  0  0  0  0  0
  -29.6356  -17.3305   20.9305 C   0  0  0  0  0  0
  -30.4560  -21.0794   19.9642 C   0  0  0  0  0  0
  -29.9641  -22.6680   19.8577 C   0  0  0  0  0  0
  -28.7016  -23.5579   20.2972 C   0  0  0  0  0  0
  -33.1304  -19.6537   20.9304 C   0  0  0  0  0  0
  -28.3917  -24.9624   19.5211 C   0  0  0  0  0  0
  -32.5810  -19.8717   19.5110 C   0  0  0  0  0  0
  -30.1121  -18.3567   20.1540 N   0  0  0  0  0  0
  -30.8431  -23.3910   19.2789 N   0  0  0  0  0  0
  -31.6597  -20.9951   19.4642 N   0  0  0  0  0  0
  -28.3633  -20.7038   22.3960 N   0  0  0  0  0  0
  -29.6607  -15.8411   20.7656 N   0  0  0  0  0  0
  -27.9298  -23.2055   21.1953 O   0  0  0  0  0  0
  -28.5938  -18.0341   22.1650 S   0  0  0  0  0  0
  -31.4994  -12.6668   19.1623 H   0  0  0  0  0  0
  -30.4552  -11.5146   19.9437 H   0  0  0  0  0  0
  -29.8251  -11.7637   17.5206 H   0  0  0  0  0  0
  -29.6431  -13.4865   17.7284 H   0  0  0  0  0  0
  -27.9141  -11.2854   18.8916 H   0  0  0  0  0  0
  -27.4016  -12.5446   17.7979 H   0  0  0  0  0  0
  -27.6522  -14.2492   19.4862 H   0  0  0  0  0  0
  -28.7599  -12.1208   21.3814 H   0  0  0  0  0  0
  -28.4232  -13.7701   21.8322 H   0  0  0  0  0  0
  -25.2794   -9.5670   22.4743 H   0  0  0  0  0  0
  -24.0004   -7.4645   22.7482 H   0  0  0  0  0  0
  -21.0849   -8.8791   19.8961 H   0  0  0  0  0  0
  -22.3730  -10.9676   19.6149 H   0  0  0  0  0  0
  -21.2010   -7.6155   23.9719 H   0  0  0  0  0  0
  -21.1463   -6.0527   25.9075 H   0  0  0  0  0  0
  -22.0614   -2.7619   23.2841 H   0  0  0  0  0  0
  -22.4139  -11.9875   22.4718 H   0  0  0  0  0  0
  -21.1160  -13.1267   22.2594 H   0  0  0  0  0  0
  -24.6634  -15.8400   20.5229 H   0  0  0  0  0  0
  -26.2592  -15.6215   20.0196 H   0  0  0  0  0  0
  -26.7236  -32.5391   23.1075 H   0  0  0  0  0  0
  -25.0101  -33.9685   25.0406 H   0  0  0  0  0  0
  -22.7359  -31.2994   21.3917 H   0  0  0  0  0  0
  -23.3748  -35.9566   23.3313 H   0  0  0  0  0  0
  -24.3558  -36.8855   22.2059 H   0  0  0  0  0  0
  -23.7181  -37.6441   23.6653 H   0  0  0  0  0  0
  -26.1391  -31.5121   20.6197 H   0  0  0  0  0  0
  -26.8594  -30.7952   22.0262 H   0  0  0  0  0  0
  -28.1214  -28.8808   21.2223 H   0  0  0  0  0  0
  -25.9119  -25.8913   18.9999 H   0  0  0  0  0  0
  -23.9836  -27.3059   18.9894 H   0  0  0  0  0  0
  -23.7768  -30.5799   19.3989 H   0  0  0  0  0  0
  -22.7753  -29.2361   19.8578 H   0  0  0  0  0  0
  -25.1281  -36.1918   25.0827 H   0  0  0  0  0  0
  -21.0059  -28.3267   24.1349 H   0  0  0  0  0  0
  -20.5639  -26.2306   23.3604 H   0  0  0  0  0  0
  -21.6648  -26.7380   22.1212 H   0  0  0  0  0  0
  -19.6889  -25.6289   21.1227 H   0  0  0  0  0  0
  -19.6668  -27.3185   20.6724 H   0  0  0  0  0  0
  -17.4204  -26.6695   21.4032 H   0  0  0  0  0  0
  -18.0338  -26.0035   22.8998 H   0  0  0  0  0  0
  -19.7947  -30.7281   24.2254 H   0  0  0  0  0  0
  -17.5005  -31.6257   24.5140 H   0  0  0  0  0  0
  -15.5356  -30.2936   23.7643 H   0  0  0  0  0  0
  -15.8709  -28.0741   22.7132 H   0  0  0  0  0  0
  -24.5882  -30.7120   25.7760 H   0  0  0  0  0  0
  -24.8866  -32.2968   26.4797 H   0  0  0  0  0  0
  -25.7982  -30.9010   27.0253 H   0  0  0  0  0  0
  -26.2964  -29.6758   24.1234 H   0  0  0  0  0  0
  -27.3939  -29.7271   25.4823 H   0  0  0  0  0  0
  -27.8876  -30.4262   23.9589 H   0  0  0  0  0  0
  -27.2656  -33.3678   26.2061 H   0  0  0  0  0  0
  -28.3877  -32.6903   25.0353 H   0  0  0  0  0  0
  -28.0689  -31.8502   26.5461 H   0  0  0  0  0  0
  -28.2606  -38.0071   24.7534 H   0  0  0  0  0  0
  -28.1053  -36.2611   24.6298 H   0  0  0  0  0  0
  -27.2308  -37.1437   25.8886 H   0  0  0  0  0  0
  -20.9409  -29.8697   21.6780 H   0  0  0  0  0  0
  -26.0154  -38.2839   24.1431 H   0  0  0  0  0  0
  -33.9063  -18.8879   20.9295 H   0  0  0  0  0  0
  -32.3596  -19.3315   21.6299 H   0  0  0  0  0  0
  -33.5768  -20.5668   21.3275 H   0  0  0  0  0  0
  -27.4852  -24.7658   18.9621 H   0  0  0  0  0  0
  -29.1380  -25.0866   18.7375 H   0  0  0  0  0  0
  -32.1840  -18.9647   19.0605 H   0  0  0  0  0  0
  -33.4314  -20.1141   18.8719 H   0  0  0  0  0  0
  -31.5955  -22.7322   19.0671 H   0  0  0  0  0  0
  -27.7146  -20.4737   23.1436 H   0  0  0  0  0  0
  -28.1611  -21.6333   22.0179 H   0  0  0  0  0  0
  -28.7910  -15.4334   21.0669 H   0  0  0  0  0  0
  1 25  1  0  0  0
  1 30  2  0  0  0
  1 84  1  0  0  0
  2  3  1  0  0  0
  2 25  1  0  0  0
  2 87  1  0  0  0
  2 88  1  0  0  0
  3  4  1  0  0  0
  3 89  1  0  0  0
  3 90  1  0  0  0
  4  5  1  0  0  0
  4 91  1  0  0  0
  4 92  1  0  0  0
  5  6  1  0  0  0
  5 26  1  0  0  0
  5 93  1  0  0  0
  6 25  1  0  0  0
  6 94  1  0  0  0
  6 95  1  0  0  0
  7  8  2  0  0  0
  7 26  1  0  0  0
  7 29  1  0  0  0
  8  9  1  0  0  0
  8 22  1  0  0  0
  9 10  1  0  0  0
  9 27  2  0  0  0
 10 11  2  0  0  0
 10 15  1  0  0  0
 11 12  1  0  0  0
 11 96  1  0  0  0
 12 13  2  0  0  0
 12 97  1  0  0  0
 13 14  1  0  0  0
 13 31  1  0  0  0
 14 15  2  0  0  0
 14 98  1  0  0  0
 15 99  1  0  0  0
 16 17  2  0  0  0
 16 21  1  0  0  0
 16 31  1  0  0  0
 17 18  1  0  0  0
 17100  1  0  0  0
 18 19  2  0  0  0
 18101  1  0  0  0
 19 20  1  0  0  0
 19 24  1  0  0  0
 20 21  2  0  0  0
 20102  1  0  0  0
 21 23  1  0  0  0
 22 28  1  0  0  0
 22 32  2  0  0  0
 26 27  1  0  0  0
 28103  1  0  0  0
 28104  1  0  0  0
 29105  1  0  0  0
 29106  1  0  0  0
 33 34  1  0  0  0
 33 66  1  0  0  0
 33 70  2  0  0  0
 34 36  1  0  0  0
 34 59  1  0  0  0
 34107  1  0  0  0
 35 44  2  0  0  0
 35 45  1  0  0  0
 35 68  1  0  0  0
 36 56  1  0  0  0
 36108  1  0  0  0
 37 39  1  0  0  0
 37 47  1  0  0  0
 37 66  1  0  0  0
 37109  1  0  0  0
 38 43  2  0  0  0
 38 46  1  0  0  0
 38 47  1  0  0  0
 39 64  1  0  0  0
 39 67  2  0  0  0
 40 52  1  0  0  0
 40 53  2  0  0  0
 40 58  1  0  0  0
 41110  1  0  0  0
 41111  1  0  0  0
 41112  1  0  0  0
 41 48  1  0  0  0
 42 43  1  0  0  0
 42 66  1  0  0  0
 42113  1  0  0  0
 42114  1  0  0  0
 43 44  1  0  0  0
 44115  1  0  0  0
 45 46  2  0  0  0
 45116  1  0  0  0
 46117  1  0  0  0
 47118  1  0  0  0
 47119  1  0  0  0
 48 56  1  0  0  0
 48 65  1  0  0  0
 48120  1  0  0  0
 49 50  1  0  0  0
 49 53  1  0  0  0
 49 64  1  0  0  0
 49121  1  0  0  0
 50 51  1  0  0  0
 50122  1  0  0  0
 50123  1  0  0  0
 51 52  1  0  0  0
 51124  1  0  0  0
 51125  1  0  0  0
 52126  1  0  0  0
 52127  1  0  0  0
 53 54  1  0  0  0
 54 55  2  0  0  0
 54128  1  0  0  0
 55 57  1  0  0  0
 55129  1  0  0  0
 56 69  2  0  0  0
 57 58  2  0  0  0
 57130  1  0  0  0
 58131  1  0  0  0
 59 60  1  0  0  0
 59 61  1  0  0  0
 59 62  1  0  0  0
 60132  1  0  0  0
 60133  1  0  0  0
 60134  1  0  0  0
 61135  1  0  0  0
 61136  1  0  0  0
 61137  1  0  0  0
 62138  1  0  0  0
 62139  1  0  0  0
 62140  1  0  0  0
 63 65  1  0  0  0
 63141  1  0  0  0
 63142  1  0  0  0
 63143  1  0  0  0
 64144  1  0  0  0
 65145  1  0  0  0
 68 78  1  0  0  0
 71 72  2  0  0  0
 71 74  1  0  0  0
 71 80  1  0  0  0
 72 83  1  0  0  0
 72 86  1  0  0  0
 73 80  2  0  0  0
 73 84  1  0  0  0
 73 86  1  0  0  0
 74 75  1  0  0  0
 74 82  2  0  0  0
 75 76  1  0  0  0
 75 81  2  0  0  0
 76 78  1  0  0  0
 76 85  2  0  0  0
 77 79  1  0  0  0
 77146  1  0  0  0
 77147  1  0  0  0
 77148  1  0  0  0
 78149  1  0  0  0
 78150  1  0  0  0
 79 82  1  0  0  0
 79151  1  0  0  0
 79152  1  0  0  0
 81153  1  0  0  0
 83154  1  0  0  0
 83155  1  0  0  0
 84156  1  0  0  0
M  ISO  4   1 100  68 101  78 101  84 100
M  END
> <chiral flag>
0

> <version>
0

> <s_m_source_file>
/data/baiqing/PycharmProjects/Reinvent-master-3.2/result/LINK_invent/BTK/process_docking_weight1_custom_product_contain_oxygen_bond_distance_aromatic_linkinvent_7_9_3/rearranged_h_0164.sdf

> <i_m_source_file_index>
89

> <r_mmod_Potential_Energy-OPLS-2005>
618.595642089844

> <r_mmod_Stretch_Energy-OPLS-2005>
203.532943725586

> <r_mmod_Bend_Energy-OPLS-2005>
349.667022705078

> <r_mmod_Torsional_Energy-OPLS-2005>
232.194290161133

> <r_mmod_Improper_Torsional_Energy-OPLS-2005>
8.57454299926758

> <r_mmod_Van_der_Waal_Energy-OPLS-2005>
152.54411315918

> <r_mmod_Electrostatic_Energy-OPLS-2005>
-196.492767333984

> <r_mmod_Solvation_Energy-OPLS-2005>
-244.476791381836

> <b_mmod_Minimization_Converged-OPLS-2005>
0

> <r_mmod_RMS_Derivative-OPLS-2005>
2.24240875244141

$$$$
90
                    3D
 Structure written by MMmdl.
165173  0  0  1  0            999 V2000
  -30.7604  -14.4130   20.6026 C   0  0  0  0  0  0
  -30.4141  -12.2916   19.3992 C   0  0  0  0  0  0
  -29.4794  -12.4748   18.1900 C   0  0  0  0  0  0
  -28.0027  -12.3477   18.6177 C   0  0  0  0  0  0
  -27.6515  -13.1851   19.8760 C   0  0  2  0  0  0
  -28.7077  -12.9947   20.9876 C   0  0  0  0  0  0
  -25.2563  -13.8095   20.5699 C   0  0  0  0  0  0
  -24.1803  -13.0393   20.9216 C   0  0  0  0  0  0
  -24.6343  -11.6859   20.8783 C   0  0  0  0  0  0
  -23.8999  -10.4261   21.0422 C   0  0  0  0  0  0
  -24.3558   -9.4175   21.9193 C   0  0  0  0  0  0
  -23.6250   -8.2204   22.0732 C   0  0  0  0  0  0
  -22.4237   -8.0253   21.3530 C   0  0  0  0  0  0
  -21.9870   -9.0227   20.4633 C   0  0  0  0  0  0
  -22.7173  -10.2114   20.3061 C   0  0  0  0  0  0
  -21.6829   -6.0711   22.5270 C   0  0  0  0  0  0
  -21.4000   -6.5615   23.8204 C   0  0  0  0  0  0
  -21.3660   -5.6771   24.9171 C   0  0  0  0  0  0
  -21.6046   -4.3036   24.7225 C   0  0  0  0  0  0
  -21.8812   -3.8125   23.4346 C   0  0  0  0  0  0
  -21.9180   -4.6946   22.3393 C   0  0  0  0  0  0
  -22.7846  -13.5229   21.1867 C   0  0  0  0  0  0
  -22.1658   -4.2142   21.0973 F   0  0  0  0  0  0
  -21.5651   -3.4511   25.7738 F   0  0  0  0  0  0
  -30.0332  -13.2816   20.4121 N   0  0  0  0  0  0
  -26.2971  -12.9200   20.3448 N   0  0  0  0  0  0
  -25.9264  -11.6390   20.5850 N   0  0  0  0  0  0
  -22.0462  -12.8249   22.0435 N   0  0  0  0  0  0
  -25.4279  -15.1790   20.4049 N   0  0  0  0  0  0
  -31.8862  -14.5922   20.1358 O   0  0  0  0  0  0
  -21.6599   -6.8854   21.4232 O   0  0  0  0  0  0
  -22.3567  -14.5554   20.6727 O   0  0  0  0  0  0
  -24.6111  -31.8723   23.2140 C   0  0  0  0  0  0
  -25.9041  -32.4829   23.8404 C   0  0  1  0  0  0
  -27.2399  -27.4732   20.0845 C   0  0  0  0  0  0
  -25.5939  -33.8623   24.2344 N   0  0  0  0  0  0
  -23.3960  -30.4981   21.5517 C   0  0  2  0  0  0
  -24.8396  -28.9650   20.1162 C   0  0  0  0  0  0
  -22.7379  -29.4717   22.5002 C   0  0  0  0  0  0
  -18.0276  -28.1373   22.8497 C   0  0  0  0  0  0
  -24.1499  -36.7316   23.2629 C   0  0  0  0  0  0
  -25.9198  -30.8477   21.3615 C   0  0  0  0  0  0
  -25.9963  -29.4840   20.7105 C   0  0  0  0  0  0
  -27.1957  -28.7437   20.6920 C   0  0  0  0  0  0
  -26.0631  -26.9601   19.4853 C   0  0  0  0  0  0
  -24.8663  -27.6990   19.5052 C   0  0  0  0  0  0
  -23.6013  -29.8281   20.1664 C   0  0  0  0  0  0
  -25.4120  -36.3100   24.0319 C   0  0  1  0  0  0
  -20.5857  -28.3687   23.1289 C   0  0  2  0  0  0
  -20.6803  -26.9445   22.5354 C   0  0  0  0  0  0
  -19.5742  -26.6361   21.5213 C   0  0  0  0  0  0
  -18.1964  -26.7900   22.1702 C   0  0  0  0  0  0
  -19.1520  -28.8851   23.2874 C   0  0  0  0  0  0
  -18.9439  -30.1454   23.8869 C   0  0  0  0  0  0
  -17.6436  -30.6584   24.0543 C   0  0  0  0  0  0
  -25.9044  -34.9467   23.5115 C   0  0  0  0  0  0
  -16.5341  -29.9081   23.6285 C   0  0  0  0  0  0
  -16.7259  -28.6492   23.0335 C   0  0  0  0  0  0
  -26.4488  -31.6605   25.0719 C   0  0  0  0  0  0
  -25.3763  -31.3701   26.1473 C   0  0  0  0  0  0
  -27.0299  -30.3054   24.6066 C   0  0  0  0  0  0
  -27.6081  -32.4314   25.7478 C   0  0  0  0  0  0
  -27.5588  -37.1821   24.8464 C   0  0  0  0  0  0
  -21.4122  -29.3087   22.3736 N   0  0  0  0  0  0
  -26.4295  -37.3790   23.9411 N   0  0  0  0  0  0
  -24.6601  -31.0852   22.1027 N   0  0  0  0  0  0
  -23.4162  -28.8250   23.3014 O   0  0  0  0  0  0
  -28.4457  -26.8078   20.1026 O   0  0  0  0  0  0
  -26.5571  -34.8908   22.4654 O   0  0  0  0  0  0
  -23.5310  -32.1493   23.7557 O   0  0  0  0  0  0
  -28.0722  -18.5660   19.2133 C   0  0  0  0  0  0
  -29.0141  -16.3223   19.1674 C   0  0  0  0  0  0
  -29.2063  -17.6702   21.1812 C   0  0  0  0  0  0
  -28.3101  -17.3595   18.5292 C   0  0  0  0  0  0
  -28.5408  -18.7375   20.5418 C   0  0  0  0  0  0
  -29.4418  -16.4543   20.5099 C   0  0  0  0  0  0
  -27.4557  -20.7125   21.0789 C   0  0  0  0  0  0
  -27.8514  -17.1768   17.1543 C   0  0  0  0  0  0
  -26.0790  -22.4277   22.3098 C   0  0  0  0  0  0
  -27.8515  -24.5658   20.9011 C   0  0  0  0  0  0
  -27.7859  -23.0925   20.4904 C   0  0  0  0  0  0
  -28.4845  -25.4223   19.7896 C   0  0  0  0  0  0
  -27.4269  -22.1201   21.6310 C   0  0  2  0  0  0
  -28.4602  -19.9519   21.2287 N   0  0  0  0  0  0
  -26.6009  -17.4697   16.8089 N   0  0  0  0  0  0
  -30.1298  -15.4232   21.2091 N   0  0  0  0  0  0
  -28.6795  -16.6914   16.2323 N   0  3  0  0  0  0
  -31.4578  -12.3779   19.0909 H   0  0  0  0  0  0
  -30.3110  -11.2897   19.8165 H   0  0  0  0  0  0
  -29.7082  -11.7285   17.4283 H   0  0  0  0  0  0
  -29.6582  -13.4410   17.7192 H   0  0  0  0  0  0
  -27.8094  -11.2926   18.8165 H   0  0  0  0  0  0
  -27.3482  -12.6263   17.7920 H   0  0  0  0  0  0
  -27.6622  -14.2220   19.5705 H   0  0  0  0  0  0
  -28.6916  -11.9714   21.3648 H   0  0  0  0  0  0
  -28.4773  -13.6247   21.8483 H   0  0  0  0  0  0
  -25.2688   -9.5684   22.4787 H   0  0  0  0  0  0
  -23.9963   -7.4589   22.7427 H   0  0  0  0  0  0
  -21.0809   -8.8725   19.8943 H   0  0  0  0  0  0
  -22.3596  -10.9663   19.6197 H   0  0  0  0  0  0
  -21.1983   -7.6119   23.9714 H   0  0  0  0  0  0
  -21.1500   -6.0499   25.9075 H   0  0  0  0  0  0
  -22.0594   -2.7588   23.2844 H   0  0  0  0  0  0
  -22.3994  -11.9885   22.4837 H   0  0  0  0  0  0
  -21.1107  -13.1361   22.2615 H   0  0  0  0  0  0
  -24.6585  -15.8308   20.5140 H   0  0  0  0  0  0
  -26.2876  -15.6191   20.1051 H   0  0  0  0  0  0
  -26.7088  -32.5546   23.1144 H   0  0  0  0  0  0
  -25.0149  -33.9762   25.0533 H   0  0  0  0  0  0
  -22.6842  -31.3153   21.4152 H   0  0  0  0  0  0
  -23.3726  -35.9684   23.3303 H   0  0  0  0  0  0
  -24.3603  -36.8919   22.2040 H   0  0  0  0  0  0
  -23.7275  -37.6534   23.6641 H   0  0  0  0  0  0
  -26.0244  -31.6124   20.5921 H   0  0  0  0  0  0
  -26.8118  -30.9062   21.9725 H   0  0  0  0  0  0
  -28.0921  -29.1434   21.1422 H   0  0  0  0  0  0
  -26.0428  -25.9975   18.9979 H   0  0  0  0  0  0
  -23.9804  -27.2896   19.0397 H   0  0  0  0  0  0
  -23.7114  -30.6022   19.4072 H   0  0  0  0  0  0
  -22.7269  -29.2458   19.8669 H   0  0  0  0  0  0
  -25.1292  -36.1971   25.0802 H   0  0  0  0  0  0
  -20.9924  -28.3251   24.1427 H   0  0  0  0  0  0
  -21.6664  -26.7549   22.1089 H   0  0  0  0  0  0
  -20.5795  -26.2306   23.3539 H   0  0  0  0  0  0
  -19.6911  -25.6241   21.1326 H   0  0  0  0  0  0
  -19.6644  -27.3103   20.6686 H   0  0  0  0  0  0
  -17.4190  -26.6535   21.4162 H   0  0  0  0  0  0
  -18.0507  -26.0101   22.9173 H   0  0  0  0  0  0
  -19.7924  -30.7280   24.2227 H   0  0  0  0  0  0
  -17.4977  -31.6279   24.5114 H   0  0  0  0  0  0
  -15.5346  -30.2986   23.7594 H   0  0  0  0  0  0
  -15.8665  -28.0815   22.7024 H   0  0  0  0  0  0
  -24.5943  -30.7055   25.7788 H   0  0  0  0  0  0
  -24.8932  -32.2833   26.4943 H   0  0  0  0  0  0
  -25.8101  -30.8848   27.0223 H   0  0  0  0  0  0
  -26.2803  -29.6841   24.1150 H   0  0  0  0  0  0
  -27.4104  -29.7279   25.4500 H   0  0  0  0  0  0
  -27.8634  -30.4351   23.9166 H   0  0  0  0  0  0
  -27.2726  -33.3598   26.2109 H   0  0  0  0  0  0
  -28.3866  -32.6913   25.0297 H   0  0  0  0  0  0
  -28.0791  -31.8422   26.5351 H   0  0  0  0  0  0
  -28.2611  -38.0114   24.7492 H   0  0  0  0  0  0
  -28.1079  -36.2640   24.6312 H   0  0  0  0  0  0
  -27.2310  -37.1495   25.8870 H   0  0  0  0  0  0
  -20.9321  -29.8818   21.6940 H   0  0  0  0  0  0
  -26.0182  -38.2873   24.1396 H   0  0  0  0  0  0
  -27.5775  -19.3715   18.6875 H   0  0  0  0  0  0
  -29.2021  -15.4198   18.6093 H   0  0  0  0  0  0
  -29.5604  -17.7991   22.1935 H   0  0  0  0  0  0
  -26.5689  -20.4290   20.5041 H   0  0  0  0  0  0
  -25.8475  -21.6872   23.0761 H   0  0  0  0  0  0
  -25.2553  -22.4355   21.5959 H   0  0  0  0  0  0
  -26.0906  -23.3937   22.8129 H   0  0  0  0  0  0
  -28.4339  -24.6691   21.8176 H   0  0  0  0  0  0
  -26.8438  -24.9142   21.1293 H   0  0  0  0  0  0
  -28.7588  -22.8056   20.0817 H   0  0  0  0  0  0
  -27.0721  -22.9883   19.6727 H   0  0  0  0  0  0
  -28.0457  -25.2228   18.8118 H   0  0  0  0  0  0
  -29.5367  -25.1473   19.6981 H   0  0  0  0  0  0
  -28.2062  -22.1955   22.3908 H   0  0  0  0  0  0
  -25.9597  -17.8214   17.5052 H   0  0  0  0  0  0
  -26.2420  -17.3209   15.8786 H   0  0  0  0  0  0
  -30.6478  -15.7691   22.0027 H   0  0  0  0  0  0
  -29.6569  -16.5914   16.4589 H   0  0  0  0  0  0
  -28.3922  -16.4727   15.2922 H   0  0  0  0  0  0
  1 25  1  0  0  0
  1 30  2  0  0  0
  1 86  1  0  0  0
  2  3  1  0  0  0
  2 25  1  0  0  0
  2 88  1  0  0  0
  2 89  1  0  0  0
  3  4  1  0  0  0
  3 90  1  0  0  0
  3 91  1  0  0  0
  4  5  1  0  0  0
  4 92  1  0  0  0
  4 93  1  0  0  0
  5  6  1  0  0  0
  5 26  1  0  0  0
  5 94  1  0  0  0
  6 25  1  0  0  0
  6 95  1  0  0  0
  6 96  1  0  0  0
  7  8  2  0  0  0
  7 26  1  0  0  0
  7 29  1  0  0  0
  8  9  1  0  0  0
  8 22  1  0  0  0
  9 10  1  0  0  0
  9 27  2  0  0  0
 10 11  2  0  0  0
 10 15  1  0  0  0
 11 12  1  0  0  0
 11 97  1  0  0  0
 12 13  2  0  0  0
 12 98  1  0  0  0
 13 14  1  0  0  0
 13 31  1  0  0  0
 14 15  2  0  0  0
 14 99  1  0  0  0
 15100  1  0  0  0
 16 17  2  0  0  0
 16 21  1  0  0  0
 16 31  1  0  0  0
 17 18  1  0  0  0
 17101  1  0  0  0
 18 19  2  0  0  0
 18102  1  0  0  0
 19 20  1  0  0  0
 19 24  1  0  0  0
 20 21  2  0  0  0
 20103  1  0  0  0
 21 23  1  0  0  0
 22 28  1  0  0  0
 22 32  2  0  0  0
 26 27  1  0  0  0
 28104  1  0  0  0
 28105  1  0  0  0
 29106  1  0  0  0
 29107  1  0  0  0
 33 34  1  0  0  0
 33 66  1  0  0  0
 33 70  2  0  0  0
 34 36  1  0  0  0
 34 59  1  0  0  0
 34108  1  0  0  0
 35 44  2  0  0  0
 35 45  1  0  0  0
 35 68  1  0  0  0
 36 56  1  0  0  0
 36109  1  0  0  0
 37 39  1  0  0  0
 37 47  1  0  0  0
 37 66  1  0  0  0
 37110  1  0  0  0
 38 43  2  0  0  0
 38 46  1  0  0  0
 38 47  1  0  0  0
 39 64  1  0  0  0
 39 67  2  0  0  0
 40 52  1  0  0  0
 40 53  2  0  0  0
 40 58  1  0  0  0
 41111  1  0  0  0
 41112  1  0  0  0
 41113  1  0  0  0
 41 48  1  0  0  0
 42 43  1  0  0  0
 42 66  1  0  0  0
 42114  1  0  0  0
 42115  1  0  0  0
 43 44  1  0  0  0
 44116  1  0  0  0
 45 46  2  0  0  0
 45117  1  0  0  0
 46118  1  0  0  0
 47119  1  0  0  0
 47120  1  0  0  0
 48 56  1  0  0  0
 48 65  1  0  0  0
 48121  1  0  0  0
 49 50  1  0  0  0
 49 53  1  0  0  0
 49 64  1  0  0  0
 49122  1  0  0  0
 50 51  1  0  0  0
 50123  1  0  0  0
 50124  1  0  0  0
 51 52  1  0  0  0
 51125  1  0  0  0
 51126  1  0  0  0
 52127  1  0  0  0
 52128  1  0  0  0
 53 54  1  0  0  0
 54 55  2  0  0  0
 54129  1  0  0  0
 55 57  1  0  0  0
 55130  1  0  0  0
 56 69  2  0  0  0
 57 58  2  0  0  0
 57131  1  0  0  0
 58132  1  0  0  0
 59 60  1  0  0  0
 59 61  1  0  0  0
 59 62  1  0  0  0
 60133  1  0  0  0
 60134  1  0  0  0
 60135  1  0  0  0
 61136  1  0  0  0
 61137  1  0  0  0
 61138  1  0  0  0
 62139  1  0  0  0
 62140  1  0  0  0
 62141  1  0  0  0
 63 65  1  0  0  0
 63142  1  0  0  0
 63143  1  0  0  0
 63144  1  0  0  0
 64145  1  0  0  0
 65146  1  0  0  0
 68 82  1  0  0  0
 71 74  2  0  0  0
 71 75  1  0  0  0
 71147  1  0  0  0
 72 74  1  0  0  0
 72 76  2  0  0  0
 72148  1  0  0  0
 73 75  2  0  0  0
 73 76  1  0  0  0
 73149  1  0  0  0
 74 78  1  0  0  0
 75 84  1  0  0  0
 76 86  1  0  0  0
 77 83  1  0  0  0
 77 84  2  0  0  0
 77150  1  0  0  0
 78 85  1  0  0  0
 78 87  2  0  0  0
 79151  1  0  0  0
 79152  1  0  0  0
 79153  1  0  0  0
 79 83  1  0  0  0
 80 81  1  0  0  0
 80 82  1  0  0  0
 80154  1  0  0  0
 80155  1  0  0  0
 81 83  1  0  0  0
 81156  1  0  0  0
 81157  1  0  0  0
 82158  1  0  0  0
 82159  1  0  0  0
 83160  1  0  0  0
 85161  1  0  0  0
 85162  1  0  0  0
 86163  1  0  0  0
 87164  1  0  0  0
 87165  1  0  0  0
M  CHG  1  87   1
M  ISO  4   1 100  68 101  82 101  86 100
M  END
> <chiral flag>
0

> <version>
0

> <s_m_source_file>
/data/baiqing/PycharmProjects/Reinvent-master-3.2/result/LINK_invent/BTK/process_docking_weight1_custom_product_contain_oxygen_bond_distance_aromatic_linkinvent_7_9_3/rearranged_h_0164.sdf

> <i_m_source_file_index>
90

> <r_mmod_Potential_Energy-OPLS-2005>
-284.553588867188

> <r_mmod_Stretch_Energy-OPLS-2005>
31.456485748291

> <r_mmod_Bend_Energy-OPLS-2005>
107.58715057373

> <r_mmod_Torsional_Energy-OPLS-2005>
258.740631103516

> <r_mmod_Improper_Torsional_Energy-OPLS-2005>
6.94067525863647

> <r_mmod_Van_der_Waal_Energy-OPLS-2005>
161.908721923828

> <r_mmod_Electrostatic_Energy-OPLS-2005>
-430.997711181641

> <r_mmod_Solvation_Energy-OPLS-2005>
-432.716949462891

> <b_mmod_Minimization_Converged-OPLS-2005>
0

> <r_mmod_RMS_Derivative-OPLS-2005>
3.39667344093323

$$$$
91
                    3D
 Structure written by MMmdl.
161170  0  0  1  0            999 V2000
  -30.6735  -14.6301   20.5974 C   0  0  0  0  0  0
  -30.4285  -12.4158   19.4588 C   0  0  0  0  0  0
  -29.5074  -12.5265   18.2254 C   0  0  0  0  0  0
  -28.0316  -12.3515   18.6298 C   0  0  0  0  0  0
  -27.6497  -13.2224   19.8536 C   0  0  2  0  0  0
  -28.6849  -13.0810   20.9841 C   0  0  0  0  0  0
  -25.2548  -13.8186   20.5666 C   0  0  0  0  0  0
  -24.1828  -13.0442   20.9181 C   0  0  0  0  0  0
  -24.6408  -11.6916   20.8728 C   0  0  0  0  0  0
  -23.9076  -10.4298   21.0406 C   0  0  0  0  0  0
  -24.3631   -9.4213   21.9180 C   0  0  0  0  0  0
  -23.6308   -8.2247   22.0751 C   0  0  0  0  0  0
  -22.4288   -8.0285   21.3546 C   0  0  0  0  0  0
  -21.9925   -9.0255   20.4642 C   0  0  0  0  0  0
  -22.7252  -10.2136   20.3052 C   0  0  0  0  0  0
  -21.6855   -6.0742   22.5282 C   0  0  0  0  0  0
  -21.4016   -6.5644   23.8216 C   0  0  0  0  0  0
  -21.3662   -5.6796   24.9178 C   0  0  0  0  0  0
  -21.6047   -4.3057   24.7229 C   0  0  0  0  0  0
  -21.8822   -3.8149   23.4349 C   0  0  0  0  0  0
  -21.9195   -4.6967   22.3406 C   0  0  0  0  0  0
  -22.7850  -13.5225   21.1853 C   0  0  0  0  0  0
  -22.1660   -4.2154   21.0983 F   0  0  0  0  0  0
  -21.5631   -3.4539   25.7741 F   0  0  0  0  0  0
  -30.0056  -13.4353   20.4466 N   0  0  0  0  0  0
  -26.2968  -12.9376   20.3250 N   0  0  0  0  0  0
  -25.9327  -11.6525   20.5706 N   0  0  0  0  0  0
  -22.0500  -12.8211   22.0413 N   0  0  0  0  0  0
  -25.4258  -15.1906   20.4104 N   0  0  0  0  0  0
  -31.7765  -14.7901   20.0620 O   0  0  0  0  0  0
  -21.6646   -6.8885   21.4245 O   0  0  0  0  0  0
  -22.3524  -14.5527   20.6701 O   0  0  0  0  0  0
  -24.6265  -31.8590   23.2019 C   0  0  0  0  0  0
  -25.9111  -32.4771   23.8353 C   0  0  1  0  0  0
  -27.2205  -27.3148   20.1248 C   0  0  0  0  0  0
  -25.5926  -33.8572   24.2277 N   0  0  0  0  0  0
  -23.4202  -30.4822   21.5447 C   0  0  2  0  0  0
  -24.8673  -28.9346   20.1121 C   0  0  0  0  0  0
  -22.7473  -29.4621   22.4936 C   0  0  0  0  0  0
  -18.0285  -28.1381   22.8490 C   0  0  0  0  0  0
  -24.1489  -36.7294   23.2640 C   0  0  0  0  0  0
  -25.9614  -30.7896   21.3725 C   0  0  0  0  0  0
  -26.0367  -29.4157   20.7162 C   0  0  0  0  0  0
  -27.2201  -28.6182   20.7104 C   0  0  0  0  0  0
  -26.0340  -26.8879   19.4911 C   0  0  0  0  0  0
  -24.8677  -27.6762   19.4894 C   0  0  0  0  0  0
  -23.6353  -29.8154   20.1606 C   0  0  0  0  0  0
  -25.4113  -36.3077   24.0329 C   0  0  1  0  0  0
  -20.5884  -28.3686   23.1281 C   0  0  2  0  0  0
  -20.6771  -26.9409   22.5408 C   0  0  0  0  0  0
  -19.5746  -26.6382   21.5210 C   0  0  0  0  0  0
  -18.1927  -26.7926   22.1623 C   0  0  0  0  0  0
  -19.1538  -28.8852   23.2881 C   0  0  0  0  0  0
  -18.9461  -30.1456   23.8894 C   0  0  0  0  0  0
  -17.6461  -30.6585   24.0560 C   0  0  0  0  0  0
  -25.9052  -34.9446   23.5104 C   0  0  0  0  0  0
  -16.5351  -29.9082   23.6331 C   0  0  0  0  0  0
  -16.7273  -28.6497   23.0355 C   0  0  0  0  0  0
  -26.4495  -31.6584   25.0726 C   0  0  0  0  0  0
  -25.3736  -31.3713   26.1457 C   0  0  0  0  0  0
  -27.0344  -30.3012   24.6180 C   0  0  0  0  0  0
  -27.6051  -32.4324   25.7497 C   0  0  0  0  0  0
  -27.5577  -37.1799   24.8463 C   0  0  0  0  0  0
  -21.4185  -29.3041   22.3677 N   0  0  0  0  0  0
  -26.4288  -37.3775   23.9410 N   0  0  0  0  0  0
  -24.6883  -31.0603   22.0967 N   0  0  0  0  0  0
  -23.4194  -28.8163   23.3020 O   0  0  0  0  0  0
  -28.3197  -26.4467   20.1491 O   0  0  0  0  0  0
  -26.5619  -34.8914   22.4668 O   0  0  0  0  0  0
  -23.5430  -32.1385   23.7349 O   0  0  0  0  0  0
  -30.2995  -17.5902   19.7655 C   0  0  0  0  0  0
  -30.1450  -18.9699   19.4303 C   0  0  0  0  0  0
  -28.9736  -19.3521   21.4726 C   0  0  0  0  0  0
  -29.1188  -17.9705   21.8296 C   0  0  0  0  0  0
  -29.8322  -17.0320   20.9911 C   0  0  0  0  0  0
  -29.4949  -19.9028   20.2795 C   0  0  0  0  0  0
  -28.8686  -23.8744   20.0488 C   0  0  0  0  0  0
  -28.4619  -17.6033   23.1617 C   0  0  0  0  0  0
  -28.0699  -16.1356   23.3426 C   0  0  0  0  0  0
  -29.2713  -15.2787   23.7491 C   0  0  0  0  0  0
  -30.4822  -15.4556   22.8201 C   0  0  0  0  0  0
  -28.7058  -22.4046   20.6358 C   0  0  0  0  0  0
  -28.0592  -25.0808   20.6801 C   0  0  0  0  0  0
  -30.1309  -15.6262   21.3946 N   0  0  0  0  0  0
  -29.4076  -21.2901   19.9110 N   0  0  0  0  0  0
  -29.6286  -24.0613   19.0915 O   0  0  0  0  0  0
  -31.4712  -12.5325   19.1585 H   0  0  0  0  0  0
  -30.3618  -11.4196   19.8989 H   0  0  0  0  0  0
  -29.7821  -11.7780   17.4814 H   0  0  0  0  0  0
  -29.6456  -13.4984   17.7488 H   0  0  0  0  0  0
  -27.8739  -11.2977   18.8622 H   0  0  0  0  0  0
  -27.3791  -12.5783   17.7861 H   0  0  0  0  0  0
  -27.6698  -14.2597   19.5186 H   0  0  0  0  0  0
  -28.6967  -12.0642   21.3784 H   0  0  0  0  0  0
  -28.3872  -13.7165   21.8076 H   0  0  0  0  0  0
  -25.2780   -9.5688   22.4746 H   0  0  0  0  0  0
  -24.0022   -7.4639   22.7470 H   0  0  0  0  0  0
  -21.0858   -8.8774   19.8947 H   0  0  0  0  0  0
  -22.3712  -10.9675   19.6158 H   0  0  0  0  0  0
  -21.2004   -7.6151   23.9722 H   0  0  0  0  0  0
  -21.1480   -6.0522   25.9081 H   0  0  0  0  0  0
  -22.0599   -2.7610   23.2848 H   0  0  0  0  0  0
  -22.4128  -11.9890   22.4822 H   0  0  0  0  0  0
  -21.1107  -13.1214   22.2598 H   0  0  0  0  0  0
  -24.6644  -15.8483   20.5345 H   0  0  0  0  0  0
  -26.2859  -15.6326   20.1113 H   0  0  0  0  0  0
  -26.7179  -32.5445   23.1102 H   0  0  0  0  0  0
  -25.0072  -33.9720   25.0420 H   0  0  0  0  0  0
  -22.7143  -31.3030   21.4008 H   0  0  0  0  0  0
  -23.3747  -35.9630   23.3300 H   0  0  0  0  0  0
  -24.3579  -36.8919   22.2054 H   0  0  0  0  0  0
  -23.7247  -37.6497   23.6666 H   0  0  0  0  0  0
  -26.0913  -31.5521   20.6031 H   0  0  0  0  0  0
  -26.8420  -30.8395   22.0015 H   0  0  0  0  0  0
  -28.1186  -28.9819   21.1891 H   0  0  0  0  0  0
  -25.9987  -25.9257   18.9995 H   0  0  0  0  0  0
  -23.9728  -27.3040   19.0098 H   0  0  0  0  0  0
  -23.7537  -30.5908   19.4029 H   0  0  0  0  0  0
  -22.7550  -29.2448   19.8593 H   0  0  0  0  0  0
  -25.1291  -36.1927   25.0822 H   0  0  0  0  0  0
  -20.9979  -28.3262   24.1402 H   0  0  0  0  0  0
  -20.5670  -26.2296   23.3608 H   0  0  0  0  0  0
  -21.6640  -26.7435   22.1204 H   0  0  0  0  0  0
  -19.6907  -25.6294   21.1240 H   0  0  0  0  0  0
  -19.6684  -27.3191   20.6739 H   0  0  0  0  0  0
  -17.4196  -26.6678   21.4025 H   0  0  0  0  0  0
  -18.0327  -26.0067   22.9019 H   0  0  0  0  0  0
  -19.7936  -30.7275   24.2259 H   0  0  0  0  0  0
  -17.5014  -31.6264   24.5162 H   0  0  0  0  0  0
  -15.5352  -30.2981   23.7657 H   0  0  0  0  0  0
  -15.8673  -28.0817   22.7069 H   0  0  0  0  0  0
  -24.5916  -30.7054   25.7787 H   0  0  0  0  0  0
  -24.8923  -32.2876   26.4887 H   0  0  0  0  0  0
  -25.8074  -30.8892   27.0227 H   0  0  0  0  0  0
  -26.2918  -29.6757   24.1212 H   0  0  0  0  0  0
  -27.4051  -29.7272   25.4682 H   0  0  0  0  0  0
  -27.8781  -30.4297   23.9395 H   0  0  0  0  0  0
  -27.2657  -33.3626   26.2065 H   0  0  0  0  0  0
  -28.3867  -32.6881   25.0332 H   0  0  0  0  0  0
  -28.0713  -31.8459   26.5424 H   0  0  0  0  0  0
  -28.2584  -38.0104   24.7517 H   0  0  0  0  0  0
  -28.1083  -36.2636   24.6280 H   0  0  0  0  0  0
  -27.2297  -37.1436   25.8865 H   0  0  0  0  0  0
  -20.9362  -29.8770   21.6894 H   0  0  0  0  0  0
  -26.0167  -38.2848   24.1418 H   0  0  0  0  0  0
  -30.8390  -16.9735   19.0623 H   0  0  0  0  0  0
  -30.5611  -19.3114   18.4928 H   0  0  0  0  0  0
  -28.4506  -20.0090   22.1531 H   0  0  0  0  0  0
  -27.5496  -18.1946   23.2558 H   0  0  0  0  0  0
  -29.1081  -17.9277   23.9785 H   0  0  0  0  0  0
  -27.5780  -15.7605   22.4447 H   0  0  0  0  0  0
  -27.3249  -16.0629   24.1360 H   0  0  0  0  0  0
  -28.9773  -14.2312   23.8105 H   0  0  0  0  0  0
  -29.5744  -15.5399   24.7643 H   0  0  0  0  0  0
  -31.1741  -14.6263   22.9925 H   0  0  0  0  0  0
  -31.0447  -16.3377   23.1324 H   0  0  0  0  0  0
  -27.6392  -22.1793   20.6695 H   0  0  0  0  0  0
  -29.0478  -22.4232   21.6711 H   0  0  0  0  0  0
  -28.2851  -25.0984   21.7460 H   0  0  0  0  0  0
  -27.0026  -24.8251   20.6127 H   0  0  0  0  0  0
  -29.8474  -21.5842   19.0409 H   0  0  0  0  0  0
  1 25  1  0  0  0
  1 30  2  0  0  0
  1 84  1  0  0  0
  2  3  1  0  0  0
  2 25  1  0  0  0
  2 87  1  0  0  0
  2 88  1  0  0  0
  3  4  1  0  0  0
  3 89  1  0  0  0
  3 90  1  0  0  0
  4  5  1  0  0  0
  4 91  1  0  0  0
  4 92  1  0  0  0
  5  6  1  0  0  0
  5 26  1  0  0  0
  5 93  1  0  0  0
  6 25  1  0  0  0
  6 94  1  0  0  0
  6 95  1  0  0  0
  7  8  2  0  0  0
  7 26  1  0  0  0
  7 29  1  0  0  0
  8  9  1  0  0  0
  8 22  1  0  0  0
  9 10  1  0  0  0
  9 27  2  0  0  0
 10 11  2  0  0  0
 10 15  1  0  0  0
 11 12  1  0  0  0
 11 96  1  0  0  0
 12 13  2  0  0  0
 12 97  1  0  0  0
 13 14  1  0  0  0
 13 31  1  0  0  0
 14 15  2  0  0  0
 14 98  1  0  0  0
 15 99  1  0  0  0
 16 17  2  0  0  0
 16 21  1  0  0  0
 16 31  1  0  0  0
 17 18  1  0  0  0
 17100  1  0  0  0
 18 19  2  0  0  0
 18101  1  0  0  0
 19 20  1  0  0  0
 19 24  1  0  0  0
 20 21  2  0  0  0
 20102  1  0  0  0
 21 23  1  0  0  0
 22 28  1  0  0  0
 22 32  2  0  0  0
 26 27  1  0  0  0
 28103  1  0  0  0
 28104  1  0  0  0
 29105  1  0  0  0
 29106  1  0  0  0
 33 34  1  0  0  0
 33 66  1  0  0  0
 33 70  2  0  0  0
 34 36  1  0  0  0
 34 59  1  0  0  0
 34107  1  0  0  0
 35 44  2  0  0  0
 35 45  1  0  0  0
 35 68  1  0  0  0
 36 56  1  0  0  0
 36108  1  0  0  0
 37 39  1  0  0  0
 37 47  1  0  0  0
 37 66  1  0  0  0
 37109  1  0  0  0
 38 43  2  0  0  0
 38 46  1  0  0  0
 38 47  1  0  0  0
 39 64  1  0  0  0
 39 67  2  0  0  0
 40 52  1  0  0  0
 40 53  2  0  0  0
 40 58  1  0  0  0
 41110  1  0  0  0
 41111  1  0  0  0
 41112  1  0  0  0
 41 48  1  0  0  0
 42 43  1  0  0  0
 42 66  1  0  0  0
 42113  1  0  0  0
 42114  1  0  0  0
 43 44  1  0  0  0
 44115  1  0  0  0
 45 46  2  0  0  0
 45116  1  0  0  0
 46117  1  0  0  0
 47118  1  0  0  0
 47119  1  0  0  0
 48 56  1  0  0  0
 48 65  1  0  0  0
 48120  1  0  0  0
 49 50  1  0  0  0
 49 53  1  0  0  0
 49 64  1  0  0  0
 49121  1  0  0  0
 50 51  1  0  0  0
 50122  1  0  0  0
 50123  1  0  0  0
 51 52  1  0  0  0
 51124  1  0  0  0
 51125  1  0  0  0
 52126  1  0  0  0
 52127  1  0  0  0
 53 54  1  0  0  0
 54 55  2  0  0  0
 54128  1  0  0  0
 55 57  1  0  0  0
 55129  1  0  0  0
 56 69  2  0  0  0
 57 58  2  0  0  0
 57130  1  0  0  0
 58131  1  0  0  0
 59 60  1  0  0  0
 59 61  1  0  0  0
 59 62  1  0  0  0
 60132  1  0  0  0
 60133  1  0  0  0
 60134  1  0  0  0
 61135  1  0  0  0
 61136  1  0  0  0
 61137  1  0  0  0
 62138  1  0  0  0
 62139  1  0  0  0
 62140  1  0  0  0
 63 65  1  0  0  0
 63141  1  0  0  0
 63142  1  0  0  0
 63143  1  0  0  0
 64144  1  0  0  0
 65145  1  0  0  0
 68 83  1  0  0  0
 71 72  2  0  0  0
 71 75  1  0  0  0
 71146  1  0  0  0
 72 76  1  0  0  0
 72147  1  0  0  0
 73 74  1  0  0  0
 73 76  2  0  0  0
 73148  1  0  0  0
 74 75  2  0  0  0
 74 78  1  0  0  0
 75 84  1  0  0  0
 76 85  1  0  0  0
 77 82  1  0  0  0
 77 83  1  0  0  0
 77 86  2  0  0  0
 78 79  1  0  0  0
 78149  1  0  0  0
 78150  1  0  0  0
 79 80  1  0  0  0
 79151  1  0  0  0
 79152  1  0  0  0
 80 81  1  0  0  0
 80153  1  0  0  0
 80154  1  0  0  0
 81 84  1  0  0  0
 81155  1  0  0  0
 81156  1  0  0  0
 82 85  1  0  0  0
 82157  1  0  0  0
 82158  1  0  0  0
 83159  1  0  0  0
 83160  1  0  0  0
 85161  1  0  0  0
M  ISO  4   1 100  68 101  83 101  84 100
M  END
> <chiral flag>
0

> <version>
0

> <s_m_source_file>
/data/baiqing/PycharmProjects/Reinvent-master-3.2/result/LINK_invent/BTK/process_docking_weight1_custom_product_contain_oxygen_bond_distance_aromatic_linkinvent_7_9_3/rearranged_h_0164.sdf

> <i_m_source_file_index>
91

> <r_mmod_Potential_Energy-OPLS-2005>
279.411010742188

> <r_mmod_Stretch_Energy-OPLS-2005>
96.4234161376953

> <r_mmod_Bend_Energy-OPLS-2005>
165.503448486328

> <r_mmod_Torsional_Energy-OPLS-2005>
305.39404296875

> <r_mmod_Improper_Torsional_Energy-OPLS-2005>
3.98540544509888

> <r_mmod_Van_der_Waal_Energy-OPLS-2005>
148.053802490234

> <r_mmod_Electrostatic_Energy-OPLS-2005>
-266.476593017578

> <r_mmod_Solvation_Energy-OPLS-2005>
-220.917953491211

> <b_mmod_Minimization_Converged-OPLS-2005>
0

> <r_mmod_RMS_Derivative-OPLS-2005>
0.667603015899658

$$$$
92
                    3D
 Structure written by MMmdl.
162170  0  0  1  0            999 V2000
  -30.6534  -14.5536   20.5498 C   0  0  0  0  0  0
  -30.4376  -12.3438   19.4544 C   0  0  0  0  0  0
  -29.5116  -12.5098   18.2287 C   0  0  0  0  0  0
  -28.0315  -12.3577   18.6329 C   0  0  0  0  0  0
  -27.6646  -13.2049   19.8802 C   0  0  2  0  0  0
  -28.7041  -13.0108   21.0099 C   0  0  0  0  0  0
  -25.2600  -13.8147   20.5681 C   0  0  0  0  0  0
  -24.1847  -13.0435   20.9182 C   0  0  0  0  0  0
  -24.6400  -11.6902   20.8743 C   0  0  0  0  0  0
  -23.9066  -10.4291   21.0412 C   0  0  0  0  0  0
  -24.3618   -9.4201   21.9185 C   0  0  0  0  0  0
  -23.6296   -8.2229   22.0743 C   0  0  0  0  0  0
  -22.4278   -8.0275   21.3527 C   0  0  0  0  0  0
  -21.9919   -9.0255   20.4636 C   0  0  0  0  0  0
  -22.7242  -10.2141   20.3053 C   0  0  0  0  0  0
  -21.6854   -6.0734   22.5277 C   0  0  0  0  0  0
  -21.4005   -6.5639   23.8210 C   0  0  0  0  0  0
  -21.3660   -5.6787   24.9174 C   0  0  0  0  0  0
  -21.6057   -4.3052   24.7221 C   0  0  0  0  0  0
  -21.8816   -3.8145   23.4343 C   0  0  0  0  0  0
  -21.9186   -4.6960   22.3402 C   0  0  0  0  0  0
  -22.7874  -13.5237   21.1836 C   0  0  0  0  0  0
  -22.1657   -4.2142   21.0977 F   0  0  0  0  0  0
  -21.5636   -3.4535   25.7736 F   0  0  0  0  0  0
  -30.0377  -13.3365   20.4710 N   0  0  0  0  0  0
  -26.3039  -12.9311   20.3369 N   0  0  0  0  0  0
  -25.9329  -11.6479   20.5784 N   0  0  0  0  0  0
  -22.0504  -12.8248   22.0407 N   0  0  0  0  0  0
  -25.4330  -15.1863   20.4054 N   0  0  0  0  0  0
  -31.7444  -14.7825   20.0218 O   0  0  0  0  0  0
  -21.6629   -6.8881   21.4239 O   0  0  0  0  0  0
  -22.3576  -14.5546   20.6681 O   0  0  0  0  0  0
  -24.6195  -31.8654   23.2091 C   0  0  0  0  0  0
  -25.9070  -32.4811   23.8388 C   0  0  1  0  0  0
  -27.2176  -27.3603   20.0979 C   0  0  0  0  0  0
  -25.5920  -33.8616   24.2312 N   0  0  0  0  0  0
  -23.4102  -30.4905   21.5530 C   0  0  2  0  0  0
  -24.8533  -28.9577   20.1099 C   0  0  0  0  0  0
  -22.7438  -29.4633   22.4983 C   0  0  0  0  0  0
  -18.0278  -28.1368   22.8489 C   0  0  0  0  0  0
  -24.1496  -36.7303   23.2635 C   0  0  0  0  0  0
  -25.9486  -30.8034   21.3790 C   0  0  0  0  0  0
  -26.0196  -29.4361   20.7190 C   0  0  0  0  0  0
  -27.2008  -28.6442   20.7147 C   0  0  0  0  0  0
  -26.0310  -26.9372   19.4492 C   0  0  0  0  0  0
  -24.8594  -27.7118   19.4683 C   0  0  0  0  0  0
  -23.6200  -29.8323   20.1650 C   0  0  0  0  0  0
  -25.4119  -36.3106   24.0331 C   0  0  1  0  0  0
  -20.5870  -28.3660   23.1313 C   0  0  2  0  0  0
  -20.6774  -26.9395   22.5417 C   0  0  0  0  0  0
  -19.5754  -26.6373   21.5213 C   0  0  0  0  0  0
  -18.1929  -26.7916   22.1618 C   0  0  0  0  0  0
  -19.1527  -28.8831   23.2893 C   0  0  0  0  0  0
  -18.9450  -30.1440   23.8900 C   0  0  0  0  0  0
  -17.6451  -30.6580   24.0548 C   0  0  0  0  0  0
  -25.9051  -34.9471   23.5115 C   0  0  0  0  0  0
  -16.5343  -29.9073   23.6328 C   0  0  0  0  0  0
  -16.7264  -28.6485   23.0357 C   0  0  0  0  0  0
  -26.4469  -31.6607   25.0742 C   0  0  0  0  0  0
  -25.3717  -31.3743   26.1480 C   0  0  0  0  0  0
  -27.0288  -30.3035   24.6159 C   0  0  0  0  0  0
  -27.6050  -32.4327   25.7493 C   0  0  0  0  0  0
  -27.5587  -37.1811   24.8464 C   0  0  0  0  0  0
  -21.4161  -29.3022   22.3719 N   0  0  0  0  0  0
  -26.4305  -37.3794   23.9402 N   0  0  0  0  0  0
  -24.6777  -31.0685   22.1037 N   0  0  0  0  0  0
  -23.4188  -28.8171   23.3034 O   0  0  0  0  0  0
  -28.3525  -26.5474   20.1595 O   0  0  0  0  0  0
  -26.5604  -34.8922   22.4674 O   0  0  0  0  0  0
  -23.5369  -32.1443   23.7441 O   0  0  0  0  0  0
  -30.7333  -20.0015   19.5420 C   0  0  0  0  0  0
  -30.7812  -18.5756   19.4388 C   0  0  0  0  0  0
  -29.8499  -18.0365   20.2941 C   0  0  0  0  0  0
  -29.7659  -20.2608   20.4686 C   0  0  0  0  0  0
  -31.5861  -17.8263   18.4472 C   0  0  0  0  0  0
  -33.1012  -17.8966   18.6232 C   0  0  0  0  0  0
  -29.0695  -24.1124   20.5391 C   0  0  0  0  0  0
  -35.2168  -18.6101   19.9123 C   0  0  0  0  0  0
  -29.2401  -16.6404   20.4429 C   0  0  0  0  0  0
  -33.6778  -18.6148   19.8559 C   0  0  0  0  0  0
  -29.2333  -22.6752   19.9400 C   0  0  0  0  0  0
  -28.2302  -25.1487   19.7301 C   0  0  0  0  0  0
  -31.0035  -17.1824   17.5208 N   0  0  0  0  0  0
  -29.3171  -21.5341   20.8917 N   0  0  0  0  0  0
  -29.9465  -15.5397   21.1504 N   0  0  0  0  0  0
  -33.8695  -17.3935   17.7926 O   0  0  0  0  0  0
  -29.5766  -24.4022   21.6282 O   0  0  0  0  0  0
  -29.2309  -19.0877   20.9607 O   0  0  0  0  0  0
  -31.4831  -12.4572   19.1594 H   0  0  0  0  0  0
  -30.3524  -11.3361   19.8634 H   0  0  0  0  0  0
  -29.7655  -11.7743   17.4634 H   0  0  0  0  0  0
  -29.6708  -13.4892   17.7747 H   0  0  0  0  0  0
  -27.8568  -11.3020   18.8439 H   0  0  0  0  0  0
  -27.3814  -12.6129   17.7940 H   0  0  0  0  0  0
  -27.6994  -14.2471   19.5680 H   0  0  0  0  0  0
  -28.6934  -11.9769   21.3595 H   0  0  0  0  0  0
  -28.4475  -13.6146   21.8815 H   0  0  0  0  0  0
  -25.2764   -9.5675   22.4760 H   0  0  0  0  0  0
  -24.0001   -7.4626   22.7468 H   0  0  0  0  0  0
  -21.0836   -8.8779   19.8964 H   0  0  0  0  0  0
  -22.3690  -10.9679   19.6164 H   0  0  0  0  0  0
  -21.1987   -7.6145   23.9711 H   0  0  0  0  0  0
  -21.1497   -6.0517   25.9074 H   0  0  0  0  0  0
  -22.0597   -2.7604   23.2840 H   0  0  0  0  0  0
  -22.4095  -11.9915   22.4825 H   0  0  0  0  0  0
  -21.1122  -13.1291   22.2590 H   0  0  0  0  0  0
  -24.6637  -15.8405   20.4978 H   0  0  0  0  0  0
  -26.2719  -15.6144   20.0380 H   0  0  0  0  0  0
  -26.7131  -32.5490   23.1133 H   0  0  0  0  0  0
  -25.0091  -33.9784   25.0471 H   0  0  0  0  0  0
  -22.7002  -31.3087   21.4187 H   0  0  0  0  0  0
  -23.3764  -35.9632   23.3307 H   0  0  0  0  0  0
  -24.3586  -36.8908   22.2047 H   0  0  0  0  0  0
  -23.7242  -37.6509   23.6642 H   0  0  0  0  0  0
  -26.0777  -31.5702   20.6140 H   0  0  0  0  0  0
  -26.8302  -30.8476   22.0066 H   0  0  0  0  0  0
  -28.0929  -29.0020   21.2090 H   0  0  0  0  0  0
  -25.9656  -26.0045   18.9105 H   0  0  0  0  0  0
  -23.9684  -27.3473   18.9745 H   0  0  0  0  0  0
  -23.7303  -30.6130   19.4116 H   0  0  0  0  0  0
  -22.7409  -29.2591   19.8655 H   0  0  0  0  0  0
  -25.1300  -36.1973   25.0826 H   0  0  0  0  0  0
  -20.9946  -28.3219   24.1438 H   0  0  0  0  0  0
  -20.5696  -26.2255   23.3599 H   0  0  0  0  0  0
  -21.6646  -26.7456   22.1196 H   0  0  0  0  0  0
  -19.6923  -25.6284   21.1241 H   0  0  0  0  0  0
  -19.6705  -27.3181   20.6743 H   0  0  0  0  0  0
  -17.4208  -26.6655   21.4015 H   0  0  0  0  0  0
  -18.0335  -26.0056   22.9011 H   0  0  0  0  0  0
  -19.7927  -30.7249   24.2274 H   0  0  0  0  0  0
  -17.5010  -31.6269   24.5132 H   0  0  0  0  0  0
  -15.5342  -30.2972   23.7662 H   0  0  0  0  0  0
  -15.8661  -28.0803   22.7082 H   0  0  0  0  0  0
  -24.5892  -30.7083   25.7820 H   0  0  0  0  0  0
  -24.8901  -32.2908   26.4905 H   0  0  0  0  0  0
  -25.8056  -30.8931   27.0255 H   0  0  0  0  0  0
  -26.2838  -29.6819   24.1176 H   0  0  0  0  0  0
  -27.3985  -29.7259   25.4642 H   0  0  0  0  0  0
  -27.8717  -30.4327   23.9366 H   0  0  0  0  0  0
  -27.2683  -33.3633   26.2071 H   0  0  0  0  0  0
  -28.3854  -32.6871   25.0311 H   0  0  0  0  0  0
  -28.0716  -31.8445   26.5406 H   0  0  0  0  0  0
  -28.2618  -38.0097   24.7510 H   0  0  0  0  0  0
  -28.1069  -36.2630   24.6299 H   0  0  0  0  0  0
  -27.2299  -37.1471   25.8866 H   0  0  0  0  0  0
  -20.9324  -29.8738   21.6938 H   0  0  0  0  0  0
  -26.0194  -38.2873   24.1400 H   0  0  0  0  0  0
  -31.3067  -20.7258   18.9826 H   0  0  0  0  0  0
  -35.5748  -19.1804   20.7691 H   0  0  0  0  0  0
  -35.6469  -19.0597   19.0155 H   0  0  0  0  0  0
  -35.6074  -17.5950   19.9996 H   0  0  0  0  0  0
  -28.9707  -16.2787   19.4486 H   0  0  0  0  0  0
  -28.2811  -16.7478   20.9508 H   0  0  0  0  0  0
  -33.2710  -18.1496   20.7547 H   0  0  0  0  0  0
  -33.3345  -19.6490   19.8519 H   0  0  0  0  0  0
  -30.1287  -22.6944   19.3188 H   0  0  0  0  0  0
  -28.3987  -22.4980   19.2600 H   0  0  0  0  0  0
  -27.2139  -24.7810   19.8508 H   0  0  0  0  0  0
  -28.4815  -25.0689   18.6722 H   0  0  0  0  0  0
  -29.9982  -17.2810   17.5793 H   0  0  0  0  0  0
  -28.6164  -21.5572   21.6278 H   0  0  0  0  0  0
  -29.3678  -15.1673   21.8889 H   0  0  0  0  0  0
  1 25  1  0  0  0
  1 30  2  0  0  0
  1 85  1  0  0  0
  2  3  1  0  0  0
  2 25  1  0  0  0
  2 89  1  0  0  0
  2 90  1  0  0  0
  3  4  1  0  0  0
  3 91  1  0  0  0
  3 92  1  0  0  0
  4  5  1  0  0  0
  4 93  1  0  0  0
  4 94  1  0  0  0
  5  6  1  0  0  0
  5 26  1  0  0  0
  5 95  1  0  0  0
  6 25  1  0  0  0
  6 96  1  0  0  0
  6 97  1  0  0  0
  7  8  2  0  0  0
  7 26  1  0  0  0
  7 29  1  0  0  0
  8  9  1  0  0  0
  8 22  1  0  0  0
  9 10  1  0  0  0
  9 27  2  0  0  0
 10 11  2  0  0  0
 10 15  1  0  0  0
 11 12  1  0  0  0
 11 98  1  0  0  0
 12 13  2  0  0  0
 12 99  1  0  0  0
 13 14  1  0  0  0
 13 31  1  0  0  0
 14 15  2  0  0  0
 14100  1  0  0  0
 15101  1  0  0  0
 16 17  2  0  0  0
 16 21  1  0  0  0
 16 31  1  0  0  0
 17 18  1  0  0  0
 17102  1  0  0  0
 18 19  2  0  0  0
 18103  1  0  0  0
 19 20  1  0  0  0
 19 24  1  0  0  0
 20 21  2  0  0  0
 20104  1  0  0  0
 21 23  1  0  0  0
 22 28  1  0  0  0
 22 32  2  0  0  0
 26 27  1  0  0  0
 28105  1  0  0  0
 28106  1  0  0  0
 29107  1  0  0  0
 29108  1  0  0  0
 33 34  1  0  0  0
 33 66  1  0  0  0
 33 70  2  0  0  0
 34 36  1  0  0  0
 34 59  1  0  0  0
 34109  1  0  0  0
 35 44  2  0  0  0
 35 45  1  0  0  0
 35 68  1  0  0  0
 36 56  1  0  0  0
 36110  1  0  0  0
 37 39  1  0  0  0
 37 47  1  0  0  0
 37 66  1  0  0  0
 37111  1  0  0  0
 38 43  2  0  0  0
 38 46  1  0  0  0
 38 47  1  0  0  0
 39 64  1  0  0  0
 39 67  2  0  0  0
 40 52  1  0  0  0
 40 53  2  0  0  0
 40 58  1  0  0  0
 41112  1  0  0  0
 41113  1  0  0  0
 41114  1  0  0  0
 41 48  1  0  0  0
 42 43  1  0  0  0
 42 66  1  0  0  0
 42115  1  0  0  0
 42116  1  0  0  0
 43 44  1  0  0  0
 44117  1  0  0  0
 45 46  2  0  0  0
 45118  1  0  0  0
 46119  1  0  0  0
 47120  1  0  0  0
 47121  1  0  0  0
 48 56  1  0  0  0
 48 65  1  0  0  0
 48122  1  0  0  0
 49 50  1  0  0  0
 49 53  1  0  0  0
 49 64  1  0  0  0
 49123  1  0  0  0
 50 51  1  0  0  0
 50124  1  0  0  0
 50125  1  0  0  0
 51 52  1  0  0  0
 51126  1  0  0  0
 51127  1  0  0  0
 52128  1  0  0  0
 52129  1  0  0  0
 53 54  1  0  0  0
 54 55  2  0  0  0
 54130  1  0  0  0
 55 57  1  0  0  0
 55131  1  0  0  0
 56 69  2  0  0  0
 57 58  2  0  0  0
 57132  1  0  0  0
 58133  1  0  0  0
 59 60  1  0  0  0
 59 61  1  0  0  0
 59 62  1  0  0  0
 60134  1  0  0  0
 60135  1  0  0  0
 60136  1  0  0  0
 61137  1  0  0  0
 61138  1  0  0  0
 61139  1  0  0  0
 62140  1  0  0  0
 62141  1  0  0  0
 62142  1  0  0  0
 63 65  1  0  0  0
 63143  1  0  0  0
 63144  1  0  0  0
 63145  1  0  0  0
 64146  1  0  0  0
 65147  1  0  0  0
 68 82  1  0  0  0
 71 72  1  0  0  0
 71 74  2  0  0  0
 71148  1  0  0  0
 72 73  2  0  0  0
 72 75  1  0  0  0
 73 79  1  0  0  0
 73 88  1  0  0  0
 74 84  1  0  0  0
 74 88  1  0  0  0
 75 76  1  0  0  0
 75 83  2  0  0  0
 76 80  1  0  0  0
 76 86  2  0  0  0
 77 81  1  0  0  0
 77 82  1  0  0  0
 77 87  2  0  0  0
 78 80  1  0  0  0
 78149  1  0  0  0
 78150  1  0  0  0
 78151  1  0  0  0
 79 85  1  0  0  0
 79152  1  0  0  0
 79153  1  0  0  0
 80154  1  0  0  0
 80155  1  0  0  0
 81 84  1  0  0  0
 81156  1  0  0  0
 81157  1  0  0  0
 82158  1  0  0  0
 82159  1  0  0  0
 83160  1  0  0  0
 84161  1  0  0  0
 85162  1  0  0  0
M  ISO  4   1 100  68 101  82 101  85 100
M  END
> <chiral flag>
0

> <version>
0

> <s_m_source_file>
/data/baiqing/PycharmProjects/Reinvent-master-3.2/result/LINK_invent/BTK/process_docking_weight1_custom_product_contain_oxygen_bond_distance_aromatic_linkinvent_7_9_3/rearranged_h_0164.sdf

> <i_m_source_file_index>
92

> <r_mmod_Potential_Energy-OPLS-2005>
-0.936654806137085

> <r_mmod_Stretch_Energy-OPLS-2005>
56.9877777099609

> <r_mmod_Bend_Energy-OPLS-2005>
137.631561279297

> <r_mmod_Torsional_Energy-OPLS-2005>
270.370330810547

> <r_mmod_Improper_Torsional_Energy-OPLS-2005>
11.4126663208008

> <r_mmod_Van_der_Waal_Energy-OPLS-2005>
122.43058013916

> <r_mmod_Electrostatic_Energy-OPLS-2005>
-329.454162597656

> <r_mmod_Solvation_Energy-OPLS-2005>
-300.225799560547

> <b_mmod_Minimization_Converged-OPLS-2005>
0

> <r_mmod_RMS_Derivative-OPLS-2005>
1.94315600395203

$$$$
93
                    3D
 Structure written by MMmdl.
162170  0  0  1  0            999 V2000
  -30.7006  -14.4253   20.6029 C   0  0  0  0  0  0
  -30.4298  -12.2809   19.4219 C   0  0  0  0  0  0
  -29.5011  -12.5147   18.2113 C   0  0  0  0  0  0
  -28.0180  -12.3841   18.6153 C   0  0  0  0  0  0
  -27.6718  -13.1988   19.8891 C   0  0  2  0  0  0
  -28.7092  -12.9320   21.0065 C   0  0  0  0  0  0
  -25.2624  -13.8143   20.5680 C   0  0  0  0  0  0
  -24.1859  -13.0436   20.9159 C   0  0  0  0  0  0
  -24.6392  -11.6902   20.8718 C   0  0  0  0  0  0
  -23.9050  -10.4295   21.0387 C   0  0  0  0  0  0
  -24.3611   -9.4211   21.9162 C   0  0  0  0  0  0
  -23.6296   -8.2240   22.0732 C   0  0  0  0  0  0
  -22.4272   -8.0279   21.3538 C   0  0  0  0  0  0
  -21.9907   -9.0243   20.4631 C   0  0  0  0  0  0
  -22.7225  -10.2130   20.3036 C   0  0  0  0  0  0
  -21.6858   -6.0730   22.5272 C   0  0  0  0  0  0
  -21.4014   -6.5633   23.8202 C   0  0  0  0  0  0
  -21.3663   -5.6791   24.9169 C   0  0  0  0  0  0
  -21.6045   -4.3049   24.7220 C   0  0  0  0  0  0
  -21.8823   -3.8135   23.4341 C   0  0  0  0  0  0
  -21.9196   -4.6953   22.3396 C   0  0  0  0  0  0
  -22.7877  -13.5233   21.1829 C   0  0  0  0  0  0
  -22.1669   -4.2140   21.0976 F   0  0  0  0  0  0
  -21.5629   -3.4533   25.7736 F   0  0  0  0  0  0
  -30.0558  -13.2335   20.4784 N   0  0  0  0  0  0
  -26.3070  -12.9307   20.3411 N   0  0  0  0  0  0
  -25.9322  -11.6471   20.5757 N   0  0  0  0  0  0
  -22.0518  -12.8232   22.0396 N   0  0  0  0  0  0
  -25.4343  -15.1867   20.4093 N   0  0  0  0  0  0
  -31.7590  -14.6940   20.0269 O   0  0  0  0  0  0
  -21.6643   -6.8875   21.4235 O   0  0  0  0  0  0
  -22.3556  -14.5535   20.6672 O   0  0  0  0  0  0
  -24.6133  -31.8697   23.2098 C   0  0  0  0  0  0
  -25.9043  -32.4830   23.8391 C   0  0  1  0  0  0
  -27.2382  -27.4453   20.0737 C   0  0  0  0  0  0
  -25.5910  -33.8632   24.2318 N   0  0  0  0  0  0
  -23.4005  -30.4942   21.5494 C   0  0  2  0  0  0
  -24.8465  -28.9605   20.1146 C   0  0  0  0  0  0
  -22.7398  -29.4671   22.4970 C   0  0  0  0  0  0
  -18.0269  -28.1373   22.8475 C   0  0  0  0  0  0
  -24.1486  -36.7308   23.2637 C   0  0  0  0  0  0
  -25.9301  -30.8359   21.3629 C   0  0  0  0  0  0
  -26.0071  -29.4716   20.7071 C   0  0  0  0  0  0
  -27.2038  -28.7193   20.6882 C   0  0  0  0  0  0
  -26.0493  -26.9397   19.4972 C   0  0  0  0  0  0
  -24.8606  -27.6914   19.5111 C   0  0  0  0  0  0
  -23.6093  -29.8270   20.1642 C   0  0  0  0  0  0
  -25.4108  -36.3106   24.0330 C   0  0  1  0  0  0
  -20.5860  -28.3665   23.1297 C   0  0  2  0  0  0
  -20.6757  -26.9400   22.5406 C   0  0  0  0  0  0
  -19.5740  -26.6379   21.5199 C   0  0  0  0  0  0
  -18.1920  -26.7916   22.1610 C   0  0  0  0  0  0
  -19.1523  -28.8831   23.2883 C   0  0  0  0  0  0
  -18.9455  -30.1434   23.8898 C   0  0  0  0  0  0
  -17.6464  -30.6579   24.0563 C   0  0  0  0  0  0
  -25.9044  -34.9480   23.5120 C   0  0  0  0  0  0
  -16.5352  -29.9083   23.6320 C   0  0  0  0  0  0
  -16.7263  -28.6501   23.0335 C   0  0  0  0  0  0
  -26.4477  -31.6609   25.0720 C   0  0  0  0  0  0
  -25.3751  -31.3721   26.1474 C   0  0  0  0  0  0
  -27.0307  -30.3041   24.6111 C   0  0  0  0  0  0
  -27.6049  -32.4334   25.7489 C   0  0  0  0  0  0
  -27.5576  -37.1804   24.8462 C   0  0  0  0  0  0
  -21.4130  -29.3046   22.3718 N   0  0  0  0  0  0
  -26.4291  -37.3790   23.9404 N   0  0  0  0  0  0
  -24.6659  -31.0814   22.0983 N   0  0  0  0  0  0
  -23.4185  -28.8204   23.2999 O   0  0  0  0  0  0
  -28.4033  -26.7052   20.0998 O   0  0  0  0  0  0
  -26.5604  -34.8921   22.4680 O   0  0  0  0  0  0
  -23.5330  -32.1447   23.7493 O   0  0  0  0  0  0
  -31.6436  -17.8732   21.3610 C   0  0  0  0  0  0
  -31.8324  -20.2830   21.0638 C   0  0  0  0  0  0
  -30.3481  -17.8921   20.8023 C   0  0  0  0  0  0
  -29.7916  -19.1336   20.3650 C   0  0  0  0  0  0
  -30.5298  -20.3442   20.5126 C   0  0  0  0  0  0
  -32.3832  -19.0603   21.4850 C   0  0  0  0  0  0
  -28.6203  -25.7459   19.1362 C   0  0  0  0  0  0
  -29.8369  -22.5146   20.9443 C   0  0  0  0  0  0
  -29.0640  -24.4804   19.3652 C   0  0  0  0  0  0
  -29.3570  -23.9514   20.7363 C   0  0  0  0  0  0
  -27.3146  -19.4416   20.8253 C   0  0  0  0  0  0
  -28.3864  -19.1746   19.7609 C   0  0  0  0  0  0
  -29.5477  -16.5933   20.6485 C   0  0  0  0  0  0
  -30.0060  -21.5813   20.0792 N   0  0  0  0  0  0
  -30.0187  -15.3568   21.2823 N   0  0  0  0  0  0
  -29.2500  -23.6217   18.1701 N   0  3  0  0  0  0
  -29.2238  -24.6558   21.7442 O   0  0  0  0  0  0
  -33.6305  -19.0258   22.0119 F   0  0  0  0  0  0
  -31.4738  -12.3864   19.1209 H   0  0  0  0  0  0
  -30.3272  -11.2586   19.7878 H   0  0  0  0  0  0
  -29.7360  -11.8073   17.4132 H   0  0  0  0  0  0
  -29.6812  -13.5093   17.8003 H   0  0  0  0  0  0
  -27.8084  -11.3273   18.7835 H   0  0  0  0  0  0
  -27.3746  -12.6905   17.7898 H   0  0  0  0  0  0
  -27.7303  -14.2537   19.6201 H   0  0  0  0  0  0
  -28.6669  -11.8844   21.3105 H   0  0  0  0  0  0
  -28.4622  -13.4971   21.9061 H   0  0  0  0  0  0
  -25.2747   -9.5699   22.4752 H   0  0  0  0  0  0
  -24.0012   -7.4630   22.7446 H   0  0  0  0  0  0
  -21.0830   -8.8741   19.8944 H   0  0  0  0  0  0
  -22.3646  -10.9671   19.6152 H   0  0  0  0  0  0
  -21.2013   -7.6142   23.9707 H   0  0  0  0  0  0
  -21.1485   -6.0516   25.9075 H   0  0  0  0  0  0
  -22.0605   -2.7593   23.2839 H   0  0  0  0  0  0
  -22.4141  -11.9914   22.4831 H   0  0  0  0  0  0
  -21.1113  -13.1222   22.2564 H   0  0  0  0  0  0
  -24.6626  -15.8377   20.5157 H   0  0  0  0  0  0
  -26.2850  -15.6279   20.0880 H   0  0  0  0  0  0
  -26.7116  -32.5519   23.1158 H   0  0  0  0  0  0
  -25.0068  -33.9810   25.0466 H   0  0  0  0  0  0
  -22.6886  -31.3090   21.4081 H   0  0  0  0  0  0
  -23.3750  -35.9642   23.3312 H   0  0  0  0  0  0
  -24.3585  -36.8919   22.2048 H   0  0  0  0  0  0
  -23.7238  -37.6512   23.6657 H   0  0  0  0  0  0
  -26.0510  -31.6028   20.5964 H   0  0  0  0  0  0
  -26.8157  -30.8808   21.9858 H   0  0  0  0  0  0
  -28.1003  -29.1061   21.1510 H   0  0  0  0  0  0
  -26.0245  -25.9605   19.0442 H   0  0  0  0  0  0
  -23.9639  -27.2836   19.0654 H   0  0  0  0  0  0
  -23.7196  -30.5997   19.4030 H   0  0  0  0  0  0
  -22.7337  -29.2479   19.8675 H   0  0  0  0  0  0
  -25.1289  -36.1970   25.0825 H   0  0  0  0  0  0
  -20.9958  -28.3236   24.1413 H   0  0  0  0  0  0
  -20.5634  -26.2283   23.3605 H   0  0  0  0  0  0
  -21.6627  -26.7424   22.1218 H   0  0  0  0  0  0
  -19.6906  -25.6291   21.1224 H   0  0  0  0  0  0
  -19.6674  -27.3185   20.6734 H   0  0  0  0  0  0
  -17.4186  -26.6643   21.4024 H   0  0  0  0  0  0
  -18.0328  -26.0065   22.9017 H   0  0  0  0  0  0
  -19.7940  -30.7238   24.2275 H   0  0  0  0  0  0
  -17.5027  -31.6259   24.5161 H   0  0  0  0  0  0
  -15.5352  -30.2996   23.7645 H   0  0  0  0  0  0
  -15.8655  -28.0834   22.7047 H   0  0  0  0  0  0
  -24.5911  -30.7089   25.7808 H   0  0  0  0  0  0
  -24.8970  -32.2885   26.4947 H   0  0  0  0  0  0
  -25.8107  -30.8866   27.0216 H   0  0  0  0  0  0
  -26.2851  -29.6798   24.1174 H   0  0  0  0  0  0
  -27.4075  -29.7284   25.4580 H   0  0  0  0  0  0
  -27.8690  -30.4348   23.9260 H   0  0  0  0  0  0
  -27.2673  -33.3629   26.2089 H   0  0  0  0  0  0
  -28.3857  -32.6914   25.0320 H   0  0  0  0  0  0
  -28.0727  -31.8453   26.5396 H   0  0  0  0  0  0
  -28.2594  -38.0096   24.7519 H   0  0  0  0  0  0
  -28.1068  -36.2638   24.6282 H   0  0  0  0  0  0
  -27.2306  -37.1445   25.8865 H   0  0  0  0  0  0
  -20.9284  -29.8802   21.6973 H   0  0  0  0  0  0
  -26.0177  -38.2866   24.1416 H   0  0  0  0  0  0
  -32.0879  -16.9448   21.6877 H   0  0  0  0  0  0
  -32.4269  -21.1783   21.1699 H   0  0  0  0  0  0
  -28.4022  -26.1277   18.1471 H   0  0  0  0  0  0
  -30.0480  -22.2883   21.9940 H   0  0  0  0  0  0
  -26.3174  -19.4117   20.3870 H   0  0  0  0  0  0
  -27.4489  -20.4217   21.2823 H   0  0  0  0  0  0
  -27.3490  -18.7004   21.6246 H   0  0  0  0  0  0
  -28.1583  -18.2532   19.2248 H   0  0  0  0  0  0
  -28.3339  -19.9428   18.9895 H   0  0  0  0  0  0
  -28.5569  -16.7608   21.0676 H   0  0  0  0  0  0
  -29.3971  -16.4086   19.5832 H   0  0  0  0  0  0
  -29.3361  -14.9599   21.9113 H   0  0  0  0  0  0
  -29.4477  -22.6761   18.4605 H   0  0  0  0  0  0
  -30.0272  -23.9316   17.6151 H   0  0  0  0  0  0
  -28.4263  -23.6068   17.5972 H   0  0  0  0  0  0
  1 25  1  0  0  0
  1 30  2  0  0  0
  1 85  1  0  0  0
  2  3  1  0  0  0
  2 25  1  0  0  0
  2 89  1  0  0  0
  2 90  1  0  0  0
  3  4  1  0  0  0
  3 91  1  0  0  0
  3 92  1  0  0  0
  4  5  1  0  0  0
  4 93  1  0  0  0
  4 94  1  0  0  0
  5  6  1  0  0  0
  5 26  1  0  0  0
  5 95  1  0  0  0
  6 25  1  0  0  0
  6 96  1  0  0  0
  6 97  1  0  0  0
  7  8  2  0  0  0
  7 26  1  0  0  0
  7 29  1  0  0  0
  8  9  1  0  0  0
  8 22  1  0  0  0
  9 10  1  0  0  0
  9 27  2  0  0  0
 10 11  2  0  0  0
 10 15  1  0  0  0
 11 12  1  0  0  0
 11 98  1  0  0  0
 12 13  2  0  0  0
 12 99  1  0  0  0
 13 14  1  0  0  0
 13 31  1  0  0  0
 14 15  2  0  0  0
 14100  1  0  0  0
 15101  1  0  0  0
 16 17  2  0  0  0
 16 21  1  0  0  0
 16 31  1  0  0  0
 17 18  1  0  0  0
 17102  1  0  0  0
 18 19  2  0  0  0
 18103  1  0  0  0
 19 20  1  0  0  0
 19 24  1  0  0  0
 20 21  2  0  0  0
 20104  1  0  0  0
 21 23  1  0  0  0
 22 28  1  0  0  0
 22 32  2  0  0  0
 26 27  1  0  0  0
 28105  1  0  0  0
 28106  1  0  0  0
 29107  1  0  0  0
 29108  1  0  0  0
 33 34  1  0  0  0
 33 66  1  0  0  0
 33 70  2  0  0  0
 34 36  1  0  0  0
 34 59  1  0  0  0
 34109  1  0  0  0
 35 44  2  0  0  0
 35 45  1  0  0  0
 35 68  1  0  0  0
 36 56  1  0  0  0
 36110  1  0  0  0
 37 39  1  0  0  0
 37 47  1  0  0  0
 37 66  1  0  0  0
 37111  1  0  0  0
 38 43  2  0  0  0
 38 46  1  0  0  0
 38 47  1  0  0  0
 39 64  1  0  0  0
 39 67  2  0  0  0
 40 52  1  0  0  0
 40 53  2  0  0  0
 40 58  1  0  0  0
 41112  1  0  0  0
 41113  1  0  0  0
 41114  1  0  0  0
 41 48  1  0  0  0
 42 43  1  0  0  0
 42 66  1  0  0  0
 42115  1  0  0  0
 42116  1  0  0  0
 43 44  1  0  0  0
 44117  1  0  0  0
 45 46  2  0  0  0
 45118  1  0  0  0
 46119  1  0  0  0
 47120  1  0  0  0
 47121  1  0  0  0
 48 56  1  0  0  0
 48 65  1  0  0  0
 48122  1  0  0  0
 49 50  1  0  0  0
 49 53  1  0  0  0
 49 64  1  0  0  0
 49123  1  0  0  0
 50 51  1  0  0  0
 50124  1  0  0  0
 50125  1  0  0  0
 51 52  1  0  0  0
 51126  1  0  0  0
 51127  1  0  0  0
 52128  1  0  0  0
 52129  1  0  0  0
 53 54  1  0  0  0
 54 55  2  0  0  0
 54130  1  0  0  0
 55 57  1  0  0  0
 55131  1  0  0  0
 56 69  2  0  0  0
 57 58  2  0  0  0
 57132  1  0  0  0
 58133  1  0  0  0
 59 60  1  0  0  0
 59 61  1  0  0  0
 59 62  1  0  0  0
 60134  1  0  0  0
 60135  1  0  0  0
 60136  1  0  0  0
 61137  1  0  0  0
 61138  1  0  0  0
 61139  1  0  0  0
 62140  1  0  0  0
 62141  1  0  0  0
 62142  1  0  0  0
 63 65  1  0  0  0
 63143  1  0  0  0
 63144  1  0  0  0
 63145  1  0  0  0
 64146  1  0  0  0
 65147  1  0  0  0
 68 77  1  0  0  0
 71 73  2  0  0  0
 71 76  1  0  0  0
 71148  1  0  0  0
 72 75  1  0  0  0
 72 76  2  0  0  0
 72149  1  0  0  0
 73 74  1  0  0  0
 73 83  1  0  0  0
 74 75  2  0  0  0
 74 82  1  0  0  0
 75 84  1  0  0  0
 76 88  1  0  0  0
 77 79  2  0  0  0
 77150  1  0  0  0
 78 80  1  0  0  0
 78 84  2  0  0  0
 78151  1  0  0  0
 79 80  1  0  0  0
 79 86  1  0  0  0
 80 87  2  0  0  0
 81 82  1  0  0  0
 81152  1  0  0  0
 81153  1  0  0  0
 81154  1  0  0  0
 82155  1  0  0  0
 82156  1  0  0  0
 83 85  1  0  0  0
 83157  1  0  0  0
 83158  1  0  0  0
 85159  1  0  0  0
 86160  1  0  0  0
 86161  1  0  0  0
 86162  1  0  0  0
M  CHG  1  86   1
M  ISO  4   1 100  68 101  77 101  85 100
M  END
> <chiral flag>
0

> <version>
0

> <s_m_source_file>
/data/baiqing/PycharmProjects/Reinvent-master-3.2/result/LINK_invent/BTK/process_docking_weight1_custom_product_contain_oxygen_bond_distance_aromatic_linkinvent_7_9_3/rearranged_h_0164.sdf

> <i_m_source_file_index>
93

> <r_mmod_Potential_Energy-OPLS-2005>
-407.348876953125

> <r_mmod_Stretch_Energy-OPLS-2005>
43.2579154968262

> <r_mmod_Bend_Energy-OPLS-2005>
105.156631469727

> <r_mmod_Torsional_Energy-OPLS-2005>
239.230834960938

> <r_mmod_Improper_Torsional_Energy-OPLS-2005>
7.49741411209106

> <r_mmod_Van_der_Waal_Energy-OPLS-2005>
166.343139648438

> <r_mmod_Electrostatic_Energy-OPLS-2005>
-428.818420410156

> <r_mmod_Solvation_Energy-OPLS-2005>
-549.937316894531

> <b_mmod_Minimization_Converged-OPLS-2005>
0

> <r_mmod_RMS_Derivative-OPLS-2005>
2.21797275543213

$$$$
94
                    3D
 Structure written by MMmdl.
163171  0  0  1  0            999 V2000
  -30.7675  -14.4030   20.6840 C   0  0  0  0  0  0
  -30.4186  -12.3122   19.4096 C   0  0  0  0  0  0
  -29.4872  -12.5211   18.2005 C   0  0  0  0  0  0
  -28.0144  -12.3604   18.6217 C   0  0  0  0  0  0
  -27.6637  -13.2028   19.8776 C   0  0  2  0  0  0
  -28.7026  -12.9774   20.9988 C   0  0  0  0  0  0
  -25.2608  -13.8158   20.5689 C   0  0  0  0  0  0
  -24.1851  -13.0440   20.9168 C   0  0  0  0  0  0
  -24.6390  -11.6905   20.8734 C   0  0  0  0  0  0
  -23.9053  -10.4297   21.0414 C   0  0  0  0  0  0
  -24.3609   -9.4216   21.9200 C   0  0  0  0  0  0
  -23.6287   -8.2248   22.0765 C   0  0  0  0  0  0
  -22.4271   -8.0286   21.3556 C   0  0  0  0  0  0
  -21.9907   -9.0257   20.4660 C   0  0  0  0  0  0
  -22.7226  -10.2136   20.3068 C   0  0  0  0  0  0
  -21.6856   -6.0735   22.5288 C   0  0  0  0  0  0
  -21.4008   -6.5639   23.8219 C   0  0  0  0  0  0
  -21.3653   -5.6795   24.9187 C   0  0  0  0  0  0
  -21.6047   -4.3057   24.7238 C   0  0  0  0  0  0
  -21.8816   -3.8148   23.4357 C   0  0  0  0  0  0
  -21.9188   -4.6965   22.3414 C   0  0  0  0  0  0
  -22.7874  -13.5253   21.1829 C   0  0  0  0  0  0
  -22.1663   -4.2149   21.0994 F   0  0  0  0  0  0
  -21.5628   -3.4542   25.7748 F   0  0  0  0  0  0
  -30.0407  -13.2753   20.4588 N   0  0  0  0  0  0
  -26.3037  -12.9323   20.3388 N   0  0  0  0  0  0
  -25.9317  -11.6486   20.5770 N   0  0  0  0  0  0
  -22.0493  -12.8261   22.0378 N   0  0  0  0  0  0
  -25.4338  -15.1875   20.4102 N   0  0  0  0  0  0
  -31.8075  -14.6511   20.0650 O   0  0  0  0  0  0
  -21.6636   -6.8880   21.4248 O   0  0  0  0  0  0
  -22.3577  -14.5569   20.6676 O   0  0  0  0  0  0
  -24.6112  -31.8691   23.2125 C   0  0  0  0  0  0
  -25.9006  -32.4839   23.8405 C   0  0  1  0  0  0
  -27.2295  -27.4338   20.0878 C   0  0  0  0  0  0
  -25.5866  -33.8643   24.2303 N   0  0  0  0  0  0
  -23.3991  -30.4953   21.5527 C   0  0  2  0  0  0
  -24.8456  -28.9680   20.1055 C   0  0  0  0  0  0
  -22.7395  -29.4646   22.4977 C   0  0  0  0  0  0
  -18.0258  -28.1407   22.8478 C   0  0  0  0  0  0
  -24.1487  -36.7328   23.2632 C   0  0  0  0  0  0
  -25.9326  -30.8244   21.3775 C   0  0  0  0  0  0
  -26.0019  -29.4641   20.7176 C   0  0  0  0  0  0
  -27.1908  -28.6999   20.7180 C   0  0  0  0  0  0
  -26.0595  -26.9710   19.4434 C   0  0  0  0  0  0
  -24.8693  -27.7196   19.4663 C   0  0  0  0  0  0
  -23.6068  -29.8330   20.1649 C   0  0  0  0  0  0
  -25.4122  -36.3135   24.0330 C   0  0  1  0  0  0
  -20.5847  -28.3665   23.1334 C   0  0  2  0  0  0
  -20.6790  -26.9408   22.5415 C   0  0  0  0  0  0
  -19.5760  -26.6399   21.5230 C   0  0  0  0  0  0
  -18.1921  -26.7960   22.1610 C   0  0  0  0  0  0
  -19.1508  -28.8843   23.2912 C   0  0  0  0  0  0
  -18.9445  -30.1449   23.8910 C   0  0  0  0  0  0
  -17.6459  -30.6605   24.0558 C   0  0  0  0  0  0
  -25.9046  -34.9502   23.5118 C   0  0  0  0  0  0
  -16.5346  -29.9093   23.6354 C   0  0  0  0  0  0
  -16.7249  -28.6528   23.0339 C   0  0  0  0  0  0
  -26.4431  -31.6654   25.0769 C   0  0  0  0  0  0
  -25.3680  -31.3808   26.1517 C   0  0  0  0  0  0
  -27.0256  -30.3083   24.6196 C   0  0  0  0  0  0
  -27.5983  -32.4431   25.7509 C   0  0  0  0  0  0
  -27.5598  -37.1821   24.8466 C   0  0  0  0  0  0
  -21.4118  -29.3045   22.3748 N   0  0  0  0  0  0
  -26.4318  -37.3819   23.9395 N   0  0  0  0  0  0
  -24.6652  -31.0798   22.1035 N   0  0  0  0  0  0
  -23.4156  -28.8166   23.3004 O   0  0  0  0  0  0
  -28.4105  -26.7143   20.1463 O   0  0  0  0  0  0
  -26.5637  -34.8945   22.4696 O   0  0  0  0  0  0
  -23.5302  -32.1460   23.7524 O   0  0  0  0  0  0
  -32.3115  -18.5823   23.3104 C   0  0  0  0  0  0
  -32.3208  -16.2763   22.5457 C   0  0  0  0  0  0
  -30.2625  -17.5943   22.4279 C   0  0  0  0  0  0
  -33.0052  -17.3782   23.0955 C   0  0  0  0  0  0
  -30.9465  -18.7147   22.9862 C   0  0  0  0  0  0
  -30.9565  -16.3786   22.1825 C   0  0  0  0  0  0
  -28.5778  -23.6151   21.2962 C   0  0  0  0  0  0
  -29.2998  -20.4272   22.8250 C   0  0  0  0  0  0
  -28.1054  -22.5549   22.0042 C   0  0  0  0  0  0
  -27.8626  -24.2776   20.1732 C   0  0  0  0  0  0
  -34.4921  -17.2944   23.4162 C   0  0  0  0  0  0
  -28.8383  -21.8530   23.1487 C   0  0  0  0  0  0
  -28.5410  -25.4622   19.4502 C   0  0  0  0  0  0
  -30.4091  -19.9842   23.2621 N   0  0  0  0  0  0
  -30.2789  -15.2524   21.6131 N   0  0  0  0  0  0
  -34.7617  -17.4433   24.8517 N   0  3  0  0  0  0
  -26.7744  -23.8826   19.7377 O   0  0  0  0  0  0
  -26.8952  -21.9980   21.8212 O   0  0  0  0  0  0
  -31.4605  -12.4120   19.1016 H   0  0  0  0  0  0
  -30.3231  -11.2950   19.7924 H   0  0  0  0  0  0
  -29.7282  -11.8079   17.4105 H   0  0  0  0  0  0
  -29.6413  -13.5149   17.7776 H   0  0  0  0  0  0
  -27.8420  -11.3020   18.8264 H   0  0  0  0  0  0
  -27.3508  -12.6204   17.7946 H   0  0  0  0  0  0
  -27.7132  -14.2514   19.5837 H   0  0  0  0  0  0
  -28.6752  -11.9404   21.3365 H   0  0  0  0  0  0
  -28.4470  -13.5718   21.8755 H   0  0  0  0  0  0
  -25.2761   -9.5689   22.4772 H   0  0  0  0  0  0
  -23.9999   -7.4643   22.7482 H   0  0  0  0  0  0
  -21.0840   -8.8782   19.8963 H   0  0  0  0  0  0
  -22.3707  -10.9675   19.6173 H   0  0  0  0  0  0
  -21.1995   -7.6149   23.9726 H   0  0  0  0  0  0
  -21.1479   -6.0525   25.9086 H   0  0  0  0  0  0
  -22.0593   -2.7607   23.2867 H   0  0  0  0  0  0
  -22.4078  -11.9911   22.4779 H   0  0  0  0  0  0
  -21.1105  -13.1304   22.2544 H   0  0  0  0  0  0
  -24.6675  -15.8428   20.5215 H   0  0  0  0  0  0
  -26.2892  -15.6284   20.0944 H   0  0  0  0  0  0
  -26.7037  -32.5542   23.1121 H   0  0  0  0  0  0
  -25.0018  -33.9810   25.0440 H   0  0  0  0  0  0
  -22.6867  -31.3125   21.4155 H   0  0  0  0  0  0
  -23.3778  -35.9629   23.3340 H   0  0  0  0  0  0
  -24.3571  -36.8927   22.2035 H   0  0  0  0  0  0
  -23.7214  -37.6538   23.6652 H   0  0  0  0  0  0
  -26.0656  -31.5956   20.6178 H   0  0  0  0  0  0
  -26.8125  -30.8628   22.0091 H   0  0  0  0  0  0
  -28.0772  -29.0742   21.2120 H   0  0  0  0  0  0
  -26.0329  -26.0383   18.9089 H   0  0  0  0  0  0
  -23.9867  -27.3373   18.9751 H   0  0  0  0  0  0
  -23.7021  -30.6109   19.4054 H   0  0  0  0  0  0
  -22.7319  -29.2524   19.8706 H   0  0  0  0  0  0
  -25.1302  -36.2015   25.0830 H   0  0  0  0  0  0
  -20.9927  -28.3208   24.1452 H   0  0  0  0  0  0
  -20.5753  -26.2235   23.3573 H   0  0  0  0  0  0
  -21.6650  -26.7495   22.1153 H   0  0  0  0  0  0
  -19.6945  -25.6316   21.1228 H   0  0  0  0  0  0
  -19.6723  -27.3244   20.6801 H   0  0  0  0  0  0
  -17.4195  -26.6672   21.4003 H   0  0  0  0  0  0
  -18.0305  -26.0123   22.9018 H   0  0  0  0  0  0
  -19.7918  -30.7281   24.2267 H   0  0  0  0  0  0
  -17.5006  -31.6286   24.5171 H   0  0  0  0  0  0
  -15.5343  -30.3005   23.7728 H   0  0  0  0  0  0
  -15.8636  -28.0887   22.7041 H   0  0  0  0  0  0
  -24.5788  -30.7220   25.7878 H   0  0  0  0  0  0
  -24.8933  -32.2999   26.4996 H   0  0  0  0  0  0
  -25.7999  -30.8941   27.0254 H   0  0  0  0  0  0
  -26.2819  -29.6885   24.1173 H   0  0  0  0  0  0
  -27.3926  -29.7309   25.4688 H   0  0  0  0  0  0
  -27.8702  -30.4417   23.9421 H   0  0  0  0  0  0
  -27.2558  -33.3713   26.2096 H   0  0  0  0  0  0
  -28.3760  -32.7036   25.0319 H   0  0  0  0  0  0
  -28.0690  -31.8575   26.5421 H   0  0  0  0  0  0
  -28.2632  -38.0107   24.7551 H   0  0  0  0  0  0
  -28.1059  -36.2643   24.6252 H   0  0  0  0  0  0
  -27.2305  -37.1466   25.8863 H   0  0  0  0  0  0
  -20.9257  -29.8722   21.6951 H   0  0  0  0  0  0
  -26.0228  -38.2896   24.1390 H   0  0  0  0  0  0
  -32.8369  -19.4317   23.7271 H   0  0  0  0  0  0
  -32.8602  -15.3528   22.3837 H   0  0  0  0  0  0
  -29.2135  -17.6531   22.1734 H   0  0  0  0  0  0
  -29.5516  -24.0177   21.5464 H   0  0  0  0  0  0
  -28.6151  -19.8415   22.2036 H   0  0  0  0  0  0
  -35.0133  -18.0760   22.8637 H   0  0  0  0  0  0
  -34.9018  -16.3439   23.0749 H   0  0  0  0  0  0
  -29.7113  -22.4495   23.4215 H   0  0  0  0  0  0
  -28.2089  -21.8397   24.0400 H   0  0  0  0  0  0
  -28.1719  -25.5504   18.4282 H   0  0  0  0  0  0
  -29.6065  -25.2424   19.3600 H   0  0  0  0  0  0
  -29.3484  -15.0562   21.9463 H   0  0  0  0  0  0
  -34.4299  -18.3305   25.1809 H   0  0  0  0  0  0
  -35.7515  -17.4017   25.0131 H   0  0  0  0  0  0
  -34.3191  -16.7081   25.3710 H   0  0  0  0  0  0
  -26.7451  -21.3713   22.5175 H   0  0  0  0  0  0
  1 25  1  0  0  0
  1 30  2  0  0  0
  1 85  1  0  0  0
  2  3  1  0  0  0
  2 25  1  0  0  0
  2 89  1  0  0  0
  2 90  1  0  0  0
  3  4  1  0  0  0
  3 91  1  0  0  0
  3 92  1  0  0  0
  4  5  1  0  0  0
  4 93  1  0  0  0
  4 94  1  0  0  0
  5  6  1  0  0  0
  5 26  1  0  0  0
  5 95  1  0  0  0
  6 25  1  0  0  0
  6 96  1  0  0  0
  6 97  1  0  0  0
  7  8  2  0  0  0
  7 26  1  0  0  0
  7 29  1  0  0  0
  8  9  1  0  0  0
  8 22  1  0  0  0
  9 10  1  0  0  0
  9 27  2  0  0  0
 10 11  2  0  0  0
 10 15  1  0  0  0
 11 12  1  0  0  0
 11 98  1  0  0  0
 12 13  2  0  0  0
 12 99  1  0  0  0
 13 14  1  0  0  0
 13 31  1  0  0  0
 14 15  2  0  0  0
 14100  1  0  0  0
 15101  1  0  0  0
 16 17  2  0  0  0
 16 21  1  0  0  0
 16 31  1  0  0  0
 17 18  1  0  0  0
 17102  1  0  0  0
 18 19  2  0  0  0
 18103  1  0  0  0
 19 20  1  0  0  0
 19 24  1  0  0  0
 20 21  2  0  0  0
 20104  1  0  0  0
 21 23  1  0  0  0
 22 28  1  0  0  0
 22 32  2  0  0  0
 26 27  1  0  0  0
 28105  1  0  0  0
 28106  1  0  0  0
 29107  1  0  0  0
 29108  1  0  0  0
 33 34  1  0  0  0
 33 66  1  0  0  0
 33 70  2  0  0  0
 34 36  1  0  0  0
 34 59  1  0  0  0
 34109  1  0  0  0
 35 44  2  0  0  0
 35 45  1  0  0  0
 35 68  1  0  0  0
 36 56  1  0  0  0
 36110  1  0  0  0
 37 39  1  0  0  0
 37 47  1  0  0  0
 37 66  1  0  0  0
 37111  1  0  0  0
 38 43  2  0  0  0
 38 46  1  0  0  0
 38 47  1  0  0  0
 39 64  1  0  0  0
 39 67  2  0  0  0
 40 52  1  0  0  0
 40 53  2  0  0  0
 40 58  1  0  0  0
 41112  1  0  0  0
 41113  1  0  0  0
 41114  1  0  0  0
 41 48  1  0  0  0
 42 43  1  0  0  0
 42 66  1  0  0  0
 42115  1  0  0  0
 42116  1  0  0  0
 43 44  1  0  0  0
 44117  1  0  0  0
 45 46  2  0  0  0
 45118  1  0  0  0
 46119  1  0  0  0
 47120  1  0  0  0
 47121  1  0  0  0
 48 56  1  0  0  0
 48 65  1  0  0  0
 48122  1  0  0  0
 49 50  1  0  0  0
 49 53  1  0  0  0
 49 64  1  0  0  0
 49123  1  0  0  0
 50 51  1  0  0  0
 50124  1  0  0  0
 50125  1  0  0  0
 51 52  1  0  0  0
 51126  1  0  0  0
 51127  1  0  0  0
 52128  1  0  0  0
 52129  1  0  0  0
 53 54  1  0  0  0
 54 55  2  0  0  0
 54130  1  0  0  0
 55 57  1  0  0  0
 55131  1  0  0  0
 56 69  2  0  0  0
 57 58  2  0  0  0
 57132  1  0  0  0
 58133  1  0  0  0
 59 60  1  0  0  0
 59 61  1  0  0  0
 59 62  1  0  0  0
 60134  1  0  0  0
 60135  1  0  0  0
 60136  1  0  0  0
 61137  1  0  0  0
 61138  1  0  0  0
 61139  1  0  0  0
 62140  1  0  0  0
 62141  1  0  0  0
 62142  1  0  0  0
 63 65  1  0  0  0
 63143  1  0  0  0
 63144  1  0  0  0
 63145  1  0  0  0
 64146  1  0  0  0
 65147  1  0  0  0
 68 83  1  0  0  0
 71 74  2  0  0  0
 71 75  1  0  0  0
 71148  1  0  0  0
 72 74  1  0  0  0
 72 76  2  0  0  0
 72149  1  0  0  0
 73 75  2  0  0  0
 73 76  1  0  0  0
 73150  1  0  0  0
 74 81  1  0  0  0
 75 84  1  0  0  0
 76 85  1  0  0  0
 77 79  2  0  0  0
 77 80  1  0  0  0
 77151  1  0  0  0
 78 82  1  0  0  0
 78 84  2  0  0  0
 78152  1  0  0  0
 79 82  1  0  0  0
 79 88  1  0  0  0
 80 83  1  0  0  0
 80 87  2  0  0  0
 81 86  1  0  0  0
 81153  1  0  0  0
 81154  1  0  0  0
 82155  1  0  0  0
 82156  1  0  0  0
 83157  1  0  0  0
 83158  1  0  0  0
 85159  1  0  0  0
 86160  1  0  0  0
 86161  1  0  0  0
 86162  1  0  0  0
 88163  1  0  0  0
M  CHG  1  86   1
M  ISO  4   1 100  68 101  83 101  85 100
M  END
> <chiral flag>
0

> <version>
0

> <s_m_source_file>
/data/baiqing/PycharmProjects/Reinvent-master-3.2/result/LINK_invent/BTK/process_docking_weight1_custom_product_contain_oxygen_bond_distance_aromatic_linkinvent_7_9_3/rearranged_h_0164.sdf

> <i_m_source_file_index>
94

> <r_mmod_Potential_Energy-OPLS-2005>
-301.245422363281

> <r_mmod_Stretch_Energy-OPLS-2005>
41.3017082214355

> <r_mmod_Bend_Energy-OPLS-2005>
121.453536987305

> <r_mmod_Torsional_Energy-OPLS-2005>
201.334732055664

> <r_mmod_Improper_Torsional_Energy-OPLS-2005>
2.15625071525574

> <r_mmod_Van_der_Waal_Energy-OPLS-2005>
167.551681518555

> <r_mmod_Electrostatic_Energy-OPLS-2005>
-308.749114990234

> <r_mmod_Solvation_Energy-OPLS-2005>
-537.880737304688

> <b_mmod_Minimization_Converged-OPLS-2005>
0

> <r_mmod_RMS_Derivative-OPLS-2005>
3.90779256820679

$$$$
