0
                    3D
 Structure written by MMmdl.
158167  0  0  1  0            999 V2000
  -30.6618  -14.7335   20.4497 C   0  0  0  0  0  0
  -30.4143  -12.4487   19.4752 C   0  0  0  0  0  0
  -29.5003  -12.5032   18.2334 C   0  0  0  0  0  0
  -28.0273  -12.3356   18.6462 C   0  0  0  0  0  0
  -27.6356  -13.2409   19.8451 C   0  0  2  0  0  0
  -28.6816  -13.1981   20.9805 C   0  0  0  0  0  0
  -25.2480  -13.8223   20.5702 C   0  0  0  0  0  0
  -24.1787  -13.0449   20.9211 C   0  0  0  0  0  0
  -24.6399  -11.6934   20.8758 C   0  0  0  0  0  0
  -23.9081  -10.4299   21.0414 C   0  0  0  0  0  0
  -24.3630   -9.4205   21.9185 C   0  0  0  0  0  0
  -23.6303   -8.2241   22.0756 C   0  0  0  0  0  0
  -22.4282   -8.0288   21.3548 C   0  0  0  0  0  0
  -21.9919   -9.0259   20.4643 C   0  0  0  0  0  0
  -22.7257  -10.2136   20.3053 C   0  0  0  0  0  0
  -21.6850   -6.0738   22.5281 C   0  0  0  0  0  0
  -21.4016   -6.5644   23.8217 C   0  0  0  0  0  0
  -21.3658   -5.6799   24.9178 C   0  0  0  0  0  0
  -21.6039   -4.3061   24.7225 C   0  0  0  0  0  0
  -21.8820   -3.8148   23.4350 C   0  0  0  0  0  0
  -21.9196   -4.6966   22.3405 C   0  0  0  0  0  0
  -22.7804  -13.5214   21.1875 C   0  0  0  0  0  0
  -22.1661   -4.2153   21.0982 F   0  0  0  0  0  0
  -21.5628   -3.4545   25.7734 F   0  0  0  0  0  0
  -29.9822  -13.5346   20.3902 N   0  0  0  0  0  0
  -26.2907  -12.9451   20.3270 N   0  0  0  0  0  0
  -25.9329  -11.6582   20.5761 N   0  0  0  0  0  0
  -22.0451  -12.8193   22.0425 N   0  0  0  0  0  0
  -25.4167  -15.1950   20.4128 N   0  0  0  0  0  0
  -31.8599  -14.7198   20.1672 O   0  0  0  0  0  0
  -21.6646   -6.8885   21.4246 O   0  0  0  0  0  0
  -22.3477  -14.5516   20.6730 O   0  0  0  0  0  0
  -24.6305  -31.8561   23.1999 C   0  0  0  0  0  0
  -25.9139  -32.4762   23.8339 C   0  0  1  0  0  0
  -27.2070  -27.2559   20.1259 C   0  0  0  0  0  0
  -25.5947  -33.8566   24.2262 N   0  0  0  0  0  0
  -23.4266  -30.4830   21.5417 C   0  0  2  0  0  0
  -24.8722  -28.9370   20.1061 C   0  0  0  0  0  0
  -22.7508  -29.4605   22.4876 C   0  0  0  0  0  0
  -18.0294  -28.1400   22.8487 C   0  0  0  0  0  0
  -24.1488  -36.7286   23.2639 C   0  0  0  0  0  0
  -25.9742  -30.7676   21.3815 C   0  0  0  0  0  0
  -26.0429  -29.3904   20.7250 C   0  0  0  0  0  0
  -27.2096  -28.5593   20.7313 C   0  0  0  0  0  0
  -26.0190  -26.8905   19.4493 C   0  0  0  0  0  0
  -24.8651  -27.6948   19.4601 C   0  0  0  0  0  0
  -23.6462  -29.8254   20.1552 C   0  0  0  0  0  0
  -25.4114  -36.3076   24.0323 C   0  0  1  0  0  0
  -20.5898  -28.3697   23.1273 C   0  0  2  0  0  0
  -20.6789  -26.9416   22.5411 C   0  0  0  0  0  0
  -19.5761  -26.6384   21.5221 C   0  0  0  0  0  0
  -18.1936  -26.7952   22.1611 C   0  0  0  0  0  0
  -19.1545  -28.8863   23.2883 C   0  0  0  0  0  0
  -18.9469  -30.1467   23.8902 C   0  0  0  0  0  0
  -17.6465  -30.6605   24.0560 C   0  0  0  0  0  0
  -25.9058  -34.9453   23.5092 C   0  0  0  0  0  0
  -16.5357  -29.9100   23.6335 C   0  0  0  0  0  0
  -16.7274  -28.6516   23.0361 C   0  0  0  0  0  0
  -26.4524  -31.6579   25.0718 C   0  0  0  0  0  0
  -25.3748  -31.3719   26.1433 C   0  0  0  0  0  0
  -27.0365  -30.3004   24.6175 C   0  0  0  0  0  0
  -27.6074  -32.4320   25.7491 C   0  0  0  0  0  0
  -27.5583  -37.1790   24.8463 C   0  0  0  0  0  0
  -21.4203  -29.3059   22.3654 N   0  0  0  0  0  0
  -26.4283  -37.3783   23.9423 N   0  0  0  0  0  0
  -24.6965  -31.0531   22.0981 N   0  0  0  0  0  0
  -23.4218  -28.8136   23.2961 O   0  0  0  0  0  0
  -28.2955  -26.3531   20.2214 O   0  0  0  0  0  0
  -26.5621  -34.8928   22.4657 O   0  0  0  0  0  0
  -23.5454  -32.1365   23.7304 O   0  0  0  0  0  0
  -32.1842  -18.9481   19.7743 C   0  0  0  0  0  0
  -31.3456  -20.0576   19.9314 C   0  0  0  0  0  0
  -31.7233  -17.6436   20.0066 C   0  0  0  0  0  0
  -29.5525  -18.5506   20.6037 C   0  0  0  0  0  0
  -30.0011  -19.9240   20.3446 C   0  0  0  0  0  0
  -30.3962  -17.3633   20.4219 C   0  0  0  0  0  0
  -29.4336  -22.4323   19.9374 C   0  0  0  0  0  0
  -27.8545  -22.8863   21.6080 C   0  0  0  0  0  0
  -28.3256  -21.4013   21.6588 C   0  0  0  0  0  0
  -28.8360  -23.6802   20.7093 C   0  0  1  0  0  0
  -29.9680  -24.2962   21.5581 C   0  0  0  0  0  0
  -28.1494  -24.8925   19.8611 C   0  0  0  0  0  0
  -29.2433  -21.1996   20.5429 N   0  0  0  0  0  0
  -29.9676  -15.9356   20.6250 N   0  0  0  0  0  0
  -30.0195  -22.5913   18.8618 O   0  0  0  0  0  0
  -31.4574  -12.5408   19.1680 H   0  0  0  0  0  0
  -30.3388  -11.4781   19.9685 H   0  0  0  0  0  0
  -29.7796  -11.7259   17.5210 H   0  0  0  0  0  0
  -29.6326  -13.4546   17.7171 H   0  0  0  0  0  0
  -27.8789  -11.2880   18.9094 H   0  0  0  0  0  0
  -27.3715  -12.5304   17.7959 H   0  0  0  0  0  0
  -27.6243  -14.2585   19.4549 H   0  0  0  0  0  0
  -28.7142  -12.2096   21.4411 H   0  0  0  0  0  0
  -28.4219  -13.9024   21.7722 H   0  0  0  0  0  0
  -25.2774   -9.5683   22.4758 H   0  0  0  0  0  0
  -24.0013   -7.4631   22.7477 H   0  0  0  0  0  0
  -21.0849   -8.8774   19.8944 H   0  0  0  0  0  0
  -22.3715  -10.9673   19.6156 H   0  0  0  0  0  0
  -21.2005   -7.6153   23.9721 H   0  0  0  0  0  0
  -21.1476   -6.0526   25.9082 H   0  0  0  0  0  0
  -22.0599   -2.7610   23.2847 H   0  0  0  0  0  0
  -22.4081  -11.9850   22.4787 H   0  0  0  0  0  0
  -21.1064  -13.1204   22.2643 H   0  0  0  0  0  0
  -24.6485  -15.8494   20.5200 H   0  0  0  0  0  0
  -26.2651  -15.6336   20.0770 H   0  0  0  0  0  0
  -26.7189  -32.5414   23.1066 H   0  0  0  0  0  0
  -25.0114  -33.9714   25.0420 H   0  0  0  0  0  0
  -22.7227  -31.3055   21.3982 H   0  0  0  0  0  0
  -23.3769  -35.9602   23.3289 H   0  0  0  0  0  0
  -24.3590  -36.8915   22.2061 H   0  0  0  0  0  0
  -23.7225  -37.6476   23.6673 H   0  0  0  0  0  0
  -26.1112  -31.5286   20.6123 H   0  0  0  0  0  0
  -26.8552  -30.8186   22.0089 H   0  0  0  0  0  0
  -28.1009  -28.8968   21.2415 H   0  0  0  0  0  0
  -25.9303  -25.9659   18.9027 H   0  0  0  0  0  0
  -23.9711  -27.3508   18.9598 H   0  0  0  0  0  0
  -23.7782  -30.6074   19.4059 H   0  0  0  0  0  0
  -22.7628  -29.2665   19.8396 H   0  0  0  0  0  0
  -25.1296  -36.1915   25.0810 H   0  0  0  0  0  0
  -20.9991  -28.3279   24.1397 H   0  0  0  0  0  0
  -20.5715  -26.2297   23.3600 H   0  0  0  0  0  0
  -21.6648  -26.7458   22.1186 H   0  0  0  0  0  0
  -19.6927  -25.6300   21.1245 H   0  0  0  0  0  0
  -19.6730  -27.3195   20.6763 H   0  0  0  0  0  0
  -17.4217  -26.6716   21.3998 H   0  0  0  0  0  0
  -18.0312  -26.0100   22.8998 H   0  0  0  0  0  0
  -19.7945  -30.7281   24.2273 H   0  0  0  0  0  0
  -17.5025  -31.6291   24.5158 H   0  0  0  0  0  0
  -15.5360  -30.3002   23.7682 H   0  0  0  0  0  0
  -15.8662  -28.0835   22.7085 H   0  0  0  0  0  0
  -24.5963  -30.7009   25.7781 H   0  0  0  0  0  0
  -24.8901  -32.2885   26.4815 H   0  0  0  0  0  0
  -25.8087  -30.8955   27.0232 H   0  0  0  0  0  0
  -26.2935  -29.6740   24.1226 H   0  0  0  0  0  0
  -27.4109  -29.7265   25.4661 H   0  0  0  0  0  0
  -27.8791  -30.4302   23.9372 H   0  0  0  0  0  0
  -27.2698  -33.3649   26.2022 H   0  0  0  0  0  0
  -28.3931  -32.6817   25.0346 H   0  0  0  0  0  0
  -28.0695  -31.8460   26.5448 H   0  0  0  0  0  0
  -28.2575  -38.0113   24.7556 H   0  0  0  0  0  0
  -28.1100  -36.2644   24.6228 H   0  0  0  0  0  0
  -27.2309  -37.1371   25.8866 H   0  0  0  0  0  0
  -20.9363  -29.8802   21.6889 H   0  0  0  0  0  0
  -26.0152  -38.2844   24.1470 H   0  0  0  0  0  0
  -33.2102  -19.1009   19.4701 H   0  0  0  0  0  0
  -31.7800  -21.0315   19.7532 H   0  0  0  0  0  0
  -32.4600  -16.8767   19.8439 H   0  0  0  0  0  0
  -28.5369  -18.4068   20.9427 H   0  0  0  0  0  0
  -27.7703  -23.3112   22.6077 H   0  0  0  0  0  0
  -26.8516  -22.9092   21.1822 H   0  0  0  0  0  0
  -27.4852  -20.7092   21.6005 H   0  0  0  0  0  0
  -28.8577  -21.2011   22.5888 H   0  0  0  0  0  0
  -30.5451  -23.5412   22.0927 H   0  0  0  0  0  0
  -29.5658  -24.9860   22.3011 H   0  0  0  0  0  0
  -30.6618  -24.8597   20.9338 H   0  0  0  0  0  0
  -27.1003  -24.6202   19.8363 H   0  0  0  0  0  0
  -28.4781  -24.8182   18.8236 H   0  0  0  0  0  0
  -28.9928  -15.8092   20.8510 H   0  0  0  0  0  0
  1 25  1  0  0  0
  1 30  2  0  0  0
  1 84  1  0  0  0
  2  3  1  0  0  0
  2 25  1  0  0  0
  2 86  1  0  0  0
  2 87  1  0  0  0
  3  4  1  0  0  0
  3 88  1  0  0  0
  3 89  1  0  0  0
  4  5  1  0  0  0
  4 90  1  0  0  0
  4 91  1  0  0  0
  5  6  1  0  0  0
  5 26  1  0  0  0
  5 92  1  0  0  0
  6 25  1  0  0  0
  6 93  1  0  0  0
  6 94  1  0  0  0
  7  8  2  0  0  0
  7 26  1  0  0  0
  7 29  1  0  0  0
  8  9  1  0  0  0
  8 22  1  0  0  0
  9 10  1  0  0  0
  9 27  2  0  0  0
 10 11  2  0  0  0
 10 15  1  0  0  0
 11 12  1  0  0  0
 11 95  1  0  0  0
 12 13  2  0  0  0
 12 96  1  0  0  0
 13 14  1  0  0  0
 13 31  1  0  0  0
 14 15  2  0  0  0
 14 97  1  0  0  0
 15 98  1  0  0  0
 16 17  2  0  0  0
 16 21  1  0  0  0
 16 31  1  0  0  0
 17 18  1  0  0  0
 17 99  1  0  0  0
 18 19  2  0  0  0
 18100  1  0  0  0
 19 20  1  0  0  0
 19 24  1  0  0  0
 20 21  2  0  0  0
 20101  1  0  0  0
 21 23  1  0  0  0
 22 28  1  0  0  0
 22 32  2  0  0  0
 26 27  1  0  0  0
 28102  1  0  0  0
 28103  1  0  0  0
 29104  1  0  0  0
 29105  1  0  0  0
 33 34  1  0  0  0
 33 66  1  0  0  0
 33 70  2  0  0  0
 34 36  1  0  0  0
 34 59  1  0  0  0
 34106  1  0  0  0
 35 44  2  0  0  0
 35 45  1  0  0  0
 35 68  1  0  0  0
 36 56  1  0  0  0
 36107  1  0  0  0
 37 39  1  0  0  0
 37 47  1  0  0  0
 37 66  1  0  0  0
 37108  1  0  0  0
 38 43  2  0  0  0
 38 46  1  0  0  0
 38 47  1  0  0  0
 39 64  1  0  0  0
 39 67  2  0  0  0
 40 52  1  0  0  0
 40 53  2  0  0  0
 40 58  1  0  0  0
 41109  1  0  0  0
 41110  1  0  0  0
 41111  1  0  0  0
 41 48  1  0  0  0
 42 43  1  0  0  0
 42 66  1  0  0  0
 42112  1  0  0  0
 42113  1  0  0  0
 43 44  1  0  0  0
 44114  1  0  0  0
 45 46  2  0  0  0
 45115  1  0  0  0
 46116  1  0  0  0
 47117  1  0  0  0
 47118  1  0  0  0
 48 56  1  0  0  0
 48 65  1  0  0  0
 48119  1  0  0  0
 49 50  1  0  0  0
 49 53  1  0  0  0
 49 64  1  0  0  0
 49120  1  0  0  0
 50 51  1  0  0  0
 50121  1  0  0  0
 50122  1  0  0  0
 51 52  1  0  0  0
 51123  1  0  0  0
 51124  1  0  0  0
 52125  1  0  0  0
 52126  1  0  0  0
 53 54  1  0  0  0
 54 55  2  0  0  0
 54127  1  0  0  0
 55 57  1  0  0  0
 55128  1  0  0  0
 56 69  2  0  0  0
 57 58  2  0  0  0
 57129  1  0  0  0
 58130  1  0  0  0
 59 60  1  0  0  0
 59 61  1  0  0  0
 59 62  1  0  0  0
 60131  1  0  0  0
 60132  1  0  0  0
 60133  1  0  0  0
 61134  1  0  0  0
 61135  1  0  0  0
 61136  1  0  0  0
 62137  1  0  0  0
 62138  1  0  0  0
 62139  1  0  0  0
 63 65  1  0  0  0
 63140  1  0  0  0
 63141  1  0  0  0
 63142  1  0  0  0
 64143  1  0  0  0
 65144  1  0  0  0
 68 82  1  0  0  0
 71 72  2  0  0  0
 71 73  1  0  0  0
 71145  1  0  0  0
 72 75  1  0  0  0
 72146  1  0  0  0
 73 76  2  0  0  0
 73147  1  0  0  0
 74 75  2  0  0  0
 74 76  1  0  0  0
 74148  1  0  0  0
 75 83  1  0  0  0
 76 84  1  0  0  0
 77 80  1  0  0  0
 77 83  1  0  0  0
 77 85  2  0  0  0
 78 79  1  0  0  0
 78 80  1  0  0  0
 78149  1  0  0  0
 78150  1  0  0  0
 79 83  1  0  0  0
 79151  1  0  0  0
 79152  1  0  0  0
 80 81  1  0  0  0
 80 82  1  0  0  0
 81153  1  0  0  0
 81154  1  0  0  0
 81155  1  0  0  0
 82156  1  0  0  0
 82157  1  0  0  0
 84158  1  0  0  0
M  ISO  4   1 100  68 101  82 101  84 100
M  END
> <chiral flag>
0

> <version>
0

> <s_m_source_file>
/data/baiqing/PycharmProjects/Reinvent-master-3.2/result/LINK_invent/BTK/process_docking_weight1_custom_product_contain_oxygen_bond_distance_aromatic_linkinvent_7_9_3/rearranged_h_0074.sdf

> <i_m_source_file_index>
1

> <r_mmod_Potential_Energy-OPLS-2005>
331.089599609375

> <r_mmod_Stretch_Energy-OPLS-2005>
137.664855957031

> <r_mmod_Bend_Energy-OPLS-2005>
199.973968505859

> <r_mmod_Torsional_Energy-OPLS-2005>
289.751007080078

> <r_mmod_Improper_Torsional_Energy-OPLS-2005>
4.75251340866089

> <r_mmod_Van_der_Waal_Energy-OPLS-2005>
156.050430297852

> <r_mmod_Electrostatic_Energy-OPLS-2005>
-326.835571289062

> <r_mmod_Solvation_Energy-OPLS-2005>
-218.578140258789

> <b_mmod_Minimization_Converged-OPLS-2005>
0

> <r_mmod_RMS_Derivative-OPLS-2005>
2.0764217376709

$$$$
1
                    3D
 Structure written by MMmdl.
162171  0  0  1  0            999 V2000
  -30.6654  -14.4780   20.4735 C   0  0  0  0  0  0
  -30.4249  -12.2847   19.4156 C   0  0  0  0  0  0
  -29.4876  -12.4642   18.2010 C   0  0  0  0  0  0
  -28.0088  -12.3285   18.6220 C   0  0  0  0  0  0
  -27.6516  -13.1905   19.8631 C   0  0  2  0  0  0
  -28.7041  -13.0011   20.9831 C   0  0  0  0  0  0
  -25.2595  -13.8111   20.5729 C   0  0  0  0  0  0
  -24.1825  -13.0418   20.9221 C   0  0  0  0  0  0
  -24.6343  -11.6868   20.8774 C   0  0  0  0  0  0
  -23.9001  -10.4262   21.0418 C   0  0  0  0  0  0
  -24.3566   -9.4178   21.9190 C   0  0  0  0  0  0
  -23.6253   -8.2207   22.0753 C   0  0  0  0  0  0
  -22.4234   -8.0246   21.3541 C   0  0  0  0  0  0
  -21.9859   -9.0221   20.4640 C   0  0  0  0  0  0
  -22.7179  -10.2102   20.3057 C   0  0  0  0  0  0
  -21.6833   -6.0700   22.5281 C   0  0  0  0  0  0
  -21.4006   -6.5615   23.8218 C   0  0  0  0  0  0
  -21.3665   -5.6773   24.9188 C   0  0  0  0  0  0
  -21.6051   -4.3039   24.7240 C   0  0  0  0  0  0
  -21.8819   -3.8124   23.4361 C   0  0  0  0  0  0
  -21.9194   -4.6931   22.3413 C   0  0  0  0  0  0
  -22.7846  -13.5234   21.1882 C   0  0  0  0  0  0
  -22.1653   -4.2109   21.0989 F   0  0  0  0  0  0
  -21.5641   -3.4532   25.7759 F   0  0  0  0  0  0
  -30.0272  -13.2834   20.4121 N   0  0  0  0  0  0
  -26.2969  -12.9229   20.3346 N   0  0  0  0  0  0
  -25.9260  -11.6411   20.5794 N   0  0  0  0  0  0
  -22.0460  -12.8234   22.0412 N   0  0  0  0  0  0
  -25.4407  -15.1826   20.4179 N   0  0  0  0  0  0
  -31.8609  -14.6231   20.2161 O   0  0  0  0  0  0
  -21.6620   -6.8830   21.4230 O   0  0  0  0  0  0
  -22.3541  -14.5538   20.6706 O   0  0  0  0  0  0
  -24.6133  -31.8663   23.2110 C   0  0  0  0  0  0
  -25.9020  -32.4820   23.8416 C   0  0  1  0  0  0
  -27.2522  -27.4586   20.0830 C   0  0  0  0  0  0
  -25.5874  -33.8624   24.2318 N   0  0  0  0  0  0
  -23.4001  -30.4869   21.5540 C   0  0  2  0  0  0
  -24.8454  -28.9494   20.1258 C   0  0  0  0  0  0
  -22.7403  -29.4594   22.5014 C   0  0  0  0  0  0
  -18.0267  -28.1336   22.8549 C   0  0  0  0  0  0
  -24.1482  -36.7324   23.2640 C   0  0  0  0  0  0
  -25.9265  -30.8402   21.3564 C   0  0  0  0  0  0
  -26.0062  -29.4737   20.7082 C   0  0  0  0  0  0
  -27.2074  -28.7345   20.6834 C   0  0  0  0  0  0
  -26.0647  -26.9329   19.5164 C   0  0  0  0  0  0
  -24.8669  -27.6735   19.5369 C   0  0  0  0  0  0
  -23.6091  -29.8189   20.1696 C   0  0  0  0  0  0
  -25.4099  -36.3107   24.0335 C   0  0  1  0  0  0
  -20.5856  -28.3593   23.1371 C   0  0  2  0  0  0
  -20.6721  -26.9250   22.5619 C   0  0  0  0  0  0
  -19.5677  -26.6070   21.5499 C   0  0  0  0  0  0
  -18.1869  -26.7806   22.1878 C   0  0  0  0  0  0
  -19.1529  -28.8793   23.2935 C   0  0  0  0  0  0
  -18.9487  -30.1420   23.8921 C   0  0  0  0  0  0
  -17.6497  -30.6549   24.0622 C   0  0  0  0  0  0
  -25.9022  -34.9474   23.5138 C   0  0  0  0  0  0
  -16.5380  -29.9060   23.6376 C   0  0  0  0  0  0
  -16.7264  -28.6466   23.0386 C   0  0  0  0  0  0
  -26.4437  -31.6621   25.0752 C   0  0  0  0  0  0
  -25.3703  -31.3747   26.1501 C   0  0  0  0  0  0
  -27.0275  -30.3082   24.6121 C   0  0  0  0  0  0
  -27.6000  -32.4351   25.7515 C   0  0  0  0  0  0
  -27.5574  -37.1811   24.8463 C   0  0  0  0  0  0
  -21.4141  -29.2895   22.3713 N   0  0  0  0  0  0
  -26.4284  -37.3782   23.9415 N   0  0  0  0  0  0
  -24.6655  -31.0757   22.1007 N   0  0  0  0  0  0
  -23.4158  -28.8177   23.3102 O   0  0  0  0  0  0
  -28.4626  -26.7945   20.0886 O   0  0  0  0  0  0
  -26.5578  -34.8923   22.4697 O   0  0  0  0  0  0
  -23.5330  -32.1412   23.7501 O   0  0  0  0  0  0
  -28.7991  -17.4629   23.2300 C   0  0  0  0  0  0
  -28.3280  -18.6400   22.6135 C   0  0  0  0  0  0
  -29.3067  -16.4003   22.4561 C   0  0  0  0  0  0
  -28.8569  -17.6898   20.4380 C   0  0  0  0  0  0
  -28.3370  -18.7565   21.2055 C   0  0  0  0  0  0
  -29.3557  -16.5191   21.0497 C   0  0  0  0  0  0
  -27.2223  -22.0015   19.8909 C   0  0  0  0  0  0
  -26.4024  -21.0818   19.1403 C   0  0  0  0  0  0
  -27.9720  -21.2021   20.8635 C   0  0  0  0  0  0
  -27.3618  -23.3252   19.6068 C   0  0  0  0  0  0
  -25.2642  -21.3285   18.4531 C   0  0  0  0  0  0
  -28.1646  -24.3605   20.2820 C   0  0  0  0  0  0
  -26.9363  -19.7057   19.3615 C   0  0  0  0  0  0
  -24.5740  -22.6624   18.2290 C   0  0  0  0  0  0
  -28.6042  -25.5466   19.4028 C   0  0  0  0  0  0
  -27.7742  -19.8919   20.5461 N   0  0  0  0  0  0
  -29.8458  -15.5014   20.1934 N   0  0  0  0  0  0
  -28.6899  -21.5939   21.7868 O   0  0  0  0  0  0
  -28.4315  -24.3661   21.4867 O   0  0  0  0  0  0
  -31.4677  -12.3896   19.1100 H   0  0  0  0  0  0
  -30.3345  -11.2803   19.8307 H   0  0  0  0  0  0
  -29.7235  -11.7226   17.4358 H   0  0  0  0  0  0
  -29.6500  -13.4416   17.7439 H   0  0  0  0  0  0
  -27.8310  -11.2744   18.8439 H   0  0  0  0  0  0
  -27.3509  -12.5768   17.7885 H   0  0  0  0  0  0
  -27.6730  -14.2279   19.5350 H   0  0  0  0  0  0
  -28.6828  -11.9773   21.3620 H   0  0  0  0  0  0
  -28.4901  -13.6490   21.8334 H   0  0  0  0  0  0
  -25.2709   -9.5646   22.4773 H   0  0  0  0  0  0
  -23.9967   -7.4593   22.7470 H   0  0  0  0  0  0
  -21.0802   -8.8728   19.8941 H   0  0  0  0  0  0
  -22.3642  -10.9640   19.6167 H   0  0  0  0  0  0
  -21.1977   -7.6122   23.9709 H   0  0  0  0  0  0
  -21.1498   -6.0506   25.9089 H   0  0  0  0  0  0
  -22.0597   -2.7579   23.2881 H   0  0  0  0  0  0
  -22.4056  -11.9881   22.4798 H   0  0  0  0  0  0
  -21.1062  -13.1257   22.2583 H   0  0  0  0  0  0
  -24.7066  -15.8561   20.6006 H   0  0  0  0  0  0
  -26.3140  -15.6109   20.1395 H   0  0  0  0  0  0
  -26.7109  -32.5539   23.1205 H   0  0  0  0  0  0
  -25.0059  -33.9814   25.0479 H   0  0  0  0  0  0
  -22.6901  -31.3050   21.4169 H   0  0  0  0  0  0
  -23.3721  -35.9677   23.3312 H   0  0  0  0  0  0
  -24.3579  -36.8926   22.2053 H   0  0  0  0  0  0
  -23.7261  -37.6545   23.6652 H   0  0  0  0  0  0
  -26.0266  -31.6021   20.5825 H   0  0  0  0  0  0
  -26.8210  -30.9029   21.9661 H   0  0  0  0  0  0
  -28.1098  -29.1441   21.1144 H   0  0  0  0  0  0
  -26.0323  -25.9559   19.0618 H   0  0  0  0  0  0
  -23.9723  -27.2519   19.1025 H   0  0  0  0  0  0
  -23.7330  -30.5976   19.4155 H   0  0  0  0  0  0
  -22.7299  -29.2508   19.8625 H   0  0  0  0  0  0
  -25.1273  -36.1967   25.0820 H   0  0  0  0  0  0
  -20.9921  -28.3237   24.1516 H   0  0  0  0  0  0
  -20.5727  -26.2260   23.3949 H   0  0  0  0  0  0
  -21.6503  -26.7196   22.1259 H   0  0  0  0  0  0
  -19.6780  -25.5874   21.1768 H   0  0  0  0  0  0
  -19.6685  -27.2684   20.6907 H   0  0  0  0  0  0
  -17.4095  -26.6395   21.4333 H   0  0  0  0  0  0
  -18.0242  -26.0142   22.9470 H   0  0  0  0  0  0
  -19.7987  -30.7211   24.2283 H   0  0  0  0  0  0
  -17.5068  -31.6195   24.5308 H   0  0  0  0  0  0
  -15.5377  -30.2936   23.7744 H   0  0  0  0  0  0
  -15.8627  -28.0809   22.7140 H   0  0  0  0  0  0
  -24.5819  -30.7155   25.7848 H   0  0  0  0  0  0
  -24.8951  -32.2923   26.5000 H   0  0  0  0  0  0
  -25.8032  -30.8877   27.0247 H   0  0  0  0  0  0
  -26.2833  -29.6841   24.1162 H   0  0  0  0  0  0
  -27.4050  -29.7313   25.4569 H   0  0  0  0  0  0
  -27.8650  -30.4423   23.9267 H   0  0  0  0  0  0
  -27.2595  -33.3609   26.2172 H   0  0  0  0  0  0
  -28.3775  -32.6999   25.0333 H   0  0  0  0  0  0
  -28.0721  -31.8451   26.5382 H   0  0  0  0  0  0
  -28.2591  -38.0102   24.7479 H   0  0  0  0  0  0
  -28.1068  -36.2636   24.6313 H   0  0  0  0  0  0
  -27.2304  -37.1484   25.8867 H   0  0  0  0  0  0
  -20.9283  -29.8361   21.6738 H   0  0  0  0  0  0
  -26.0175  -38.2864   24.1399 H   0  0  0  0  0  0
  -28.7566  -17.3715   24.3054 H   0  0  0  0  0  0
  -27.9293  -19.4357   23.2274 H   0  0  0  0  0  0
  -29.6448  -15.5027   22.9523 H   0  0  0  0  0  0
  -28.8794  -17.7743   19.3597 H   0  0  0  0  0  0
  -26.8314  -23.7049   18.7542 H   0  0  0  0  0  0
  -24.7739  -20.4889   17.9786 H   0  0  0  0  0  0
  -27.5288  -19.4081   18.4956 H   0  0  0  0  0  0
  -26.1439  -18.9753   19.5345 H   0  0  0  0  0  0
  -23.4980  -22.5176   18.1395 H   0  0  0  0  0  0
  -24.9302  -23.1117   17.3021 H   0  0  0  0  0  0
  -24.7238  -23.3596   19.0523 H   0  0  0  0  0  0
  -28.0881  -25.5536   18.4443 H   0  0  0  0  0  0
  -29.6617  -25.4118   19.1741 H   0  0  0  0  0  0
  -29.9649  -15.8165   19.2423 H   0  0  0  0  0  0
  1 25  1  0  0  0
  1 30  2  0  0  0
  1 87  1  0  0  0
  2  3  1  0  0  0
  2 25  1  0  0  0
  2 90  1  0  0  0
  2 91  1  0  0  0
  3  4  1  0  0  0
  3 92  1  0  0  0
  3 93  1  0  0  0
  4  5  1  0  0  0
  4 94  1  0  0  0
  4 95  1  0  0  0
  5  6  1  0  0  0
  5 26  1  0  0  0
  5 96  1  0  0  0
  6 25  1  0  0  0
  6 97  1  0  0  0
  6 98  1  0  0  0
  7  8  2  0  0  0
  7 26  1  0  0  0
  7 29  1  0  0  0
  8  9  1  0  0  0
  8 22  1  0  0  0
  9 10  1  0  0  0
  9 27  2  0  0  0
 10 11  2  0  0  0
 10 15  1  0  0  0
 11 12  1  0  0  0
 11 99  1  0  0  0
 12 13  2  0  0  0
 12100  1  0  0  0
 13 14  1  0  0  0
 13 31  1  0  0  0
 14 15  2  0  0  0
 14101  1  0  0  0
 15102  1  0  0  0
 16 17  2  0  0  0
 16 21  1  0  0  0
 16 31  1  0  0  0
 17 18  1  0  0  0
 17103  1  0  0  0
 18 19  2  0  0  0
 18104  1  0  0  0
 19 20  1  0  0  0
 19 24  1  0  0  0
 20 21  2  0  0  0
 20105  1  0  0  0
 21 23  1  0  0  0
 22 28  1  0  0  0
 22 32  2  0  0  0
 26 27  1  0  0  0
 28106  1  0  0  0
 28107  1  0  0  0
 29108  1  0  0  0
 29109  1  0  0  0
 33 34  1  0  0  0
 33 66  1  0  0  0
 33 70  2  0  0  0
 34 36  1  0  0  0
 34 59  1  0  0  0
 34110  1  0  0  0
 35 44  2  0  0  0
 35 45  1  0  0  0
 35 68  1  0  0  0
 36 56  1  0  0  0
 36111  1  0  0  0
 37 39  1  0  0  0
 37 47  1  0  0  0
 37 66  1  0  0  0
 37112  1  0  0  0
 38 43  2  0  0  0
 38 46  1  0  0  0
 38 47  1  0  0  0
 39 64  1  0  0  0
 39 67  2  0  0  0
 40 52  1  0  0  0
 40 53  2  0  0  0
 40 58  1  0  0  0
 41113  1  0  0  0
 41114  1  0  0  0
 41115  1  0  0  0
 41 48  1  0  0  0
 42 43  1  0  0  0
 42 66  1  0  0  0
 42116  1  0  0  0
 42117  1  0  0  0
 43 44  1  0  0  0
 44118  1  0  0  0
 45 46  2  0  0  0
 45119  1  0  0  0
 46120  1  0  0  0
 47121  1  0  0  0
 47122  1  0  0  0
 48 56  1  0  0  0
 48 65  1  0  0  0
 48123  1  0  0  0
 49 50  1  0  0  0
 49 53  1  0  0  0
 49 64  1  0  0  0
 49124  1  0  0  0
 50 51  1  0  0  0
 50125  1  0  0  0
 50126  1  0  0  0
 51 52  1  0  0  0
 51127  1  0  0  0
 51128  1  0  0  0
 52129  1  0  0  0
 52130  1  0  0  0
 53 54  1  0  0  0
 54 55  2  0  0  0
 54131  1  0  0  0
 55 57  1  0  0  0
 55132  1  0  0  0
 56 69  2  0  0  0
 57 58  2  0  0  0
 57133  1  0  0  0
 58134  1  0  0  0
 59 60  1  0  0  0
 59 61  1  0  0  0
 59 62  1  0  0  0
 60135  1  0  0  0
 60136  1  0  0  0
 60137  1  0  0  0
 61138  1  0  0  0
 61139  1  0  0  0
 61140  1  0  0  0
 62141  1  0  0  0
 62142  1  0  0  0
 62143  1  0  0  0
 63 65  1  0  0  0
 63144  1  0  0  0
 63145  1  0  0  0
 63146  1  0  0  0
 64147  1  0  0  0
 65148  1  0  0  0
 68 85  1  0  0  0
 71 72  2  0  0  0
 71 73  1  0  0  0
 71149  1  0  0  0
 72 75  1  0  0  0
 72150  1  0  0  0
 73 76  2  0  0  0
 73151  1  0  0  0
 74 75  2  0  0  0
 74 76  1  0  0  0
 74152  1  0  0  0
 75 86  1  0  0  0
 76 87  1  0  0  0
 77 78  1  0  0  0
 77 79  1  0  0  0
 77 80  2  0  0  0
 78 81  2  0  0  0
 78 83  1  0  0  0
 79 86  1  0  0  0
 79 88  2  0  0  0
 80 82  1  0  0  0
 80153  1  0  0  0
 81 84  1  0  0  0
 81154  1  0  0  0
 82 85  1  0  0  0
 82 89  2  0  0  0
 83 86  1  0  0  0
 83155  1  0  0  0
 83156  1  0  0  0
 84157  1  0  0  0
 84158  1  0  0  0
 84159  1  0  0  0
 85160  1  0  0  0
 85161  1  0  0  0
 87162  1  0  0  0
M  ISO  4   1 100  68 101  85 101  87 100
M  END
> <chiral flag>
0

> <version>
0

> <s_m_source_file>
/data/baiqing/PycharmProjects/Reinvent-master-3.2/result/LINK_invent/BTK/process_docking_weight1_custom_product_contain_oxygen_bond_distance_aromatic_linkinvent_7_9_3/rearranged_h_0074.sdf

> <i_m_source_file_index>
2

> <r_mmod_Potential_Energy-OPLS-2005>
165.138198852539

> <r_mmod_Stretch_Energy-OPLS-2005>
37.1688194274902

> <r_mmod_Bend_Energy-OPLS-2005>
184.00407409668

> <r_mmod_Torsional_Energy-OPLS-2005>
334.072967529297

> <r_mmod_Improper_Torsional_Energy-OPLS-2005>
25.0183486938477

> <r_mmod_Van_der_Waal_Energy-OPLS-2005>
151.748153686523

> <r_mmod_Electrostatic_Energy-OPLS-2005>
-336.103820800781

> <r_mmod_Solvation_Energy-OPLS-2005>
-251.128067016602

> <b_mmod_Minimization_Converged-OPLS-2005>
0

> <r_mmod_RMS_Derivative-OPLS-2005>
4.22168302536011

$$$$
2
                    3D
 Structure written by MMmdl.
158167  0  0  1  0            999 V2000
  -30.7407  -14.5095   20.5654 C   0  0  0  0  0  0
  -30.4107  -12.3371   19.4262 C   0  0  0  0  0  0
  -29.4876  -12.4913   18.2029 C   0  0  0  0  0  0
  -28.0114  -12.3544   18.6225 C   0  0  0  0  0  0
  -27.6510  -13.2198   19.8613 C   0  0  2  0  0  0
  -28.6990  -13.0679   20.9861 C   0  0  0  0  0  0
  -25.2537  -13.8189   20.5687 C   0  0  0  0  0  0
  -24.1816  -13.0444   20.9198 C   0  0  0  0  0  0
  -24.6397  -11.6917   20.8738 C   0  0  0  0  0  0
  -23.9073  -10.4294   21.0391 C   0  0  0  0  0  0
  -24.3623   -9.4206   21.9169 C   0  0  0  0  0  0
  -23.6292   -8.2244   22.0754 C   0  0  0  0  0  0
  -22.4264   -8.0283   21.3552 C   0  0  0  0  0  0
  -21.9905   -9.0259   20.4650 C   0  0  0  0  0  0
  -22.7241  -10.2132   20.3048 C   0  0  0  0  0  0
  -21.6855   -6.0727   22.5273 C   0  0  0  0  0  0
  -21.4016   -6.5634   23.8207 C   0  0  0  0  0  0
  -21.3655   -5.6793   24.9169 C   0  0  0  0  0  0
  -21.6045   -4.3057   24.7221 C   0  0  0  0  0  0
  -21.8822   -3.8141   23.4346 C   0  0  0  0  0  0
  -21.9193   -4.6954   22.3398 C   0  0  0  0  0  0
  -22.7832  -13.5215   21.1847 C   0  0  0  0  0  0
  -22.1656   -4.2143   21.0976 F   0  0  0  0  0  0
  -21.5631   -3.4540   25.7733 F   0  0  0  0  0  0
  -30.0156  -13.3648   20.4069 N   0  0  0  0  0  0
  -26.2976  -12.9379   20.3347 N   0  0  0  0  0  0
  -25.9329  -11.6524   20.5769 N   0  0  0  0  0  0
  -22.0471  -12.8224   22.0410 N   0  0  0  0  0  0
  -25.4227  -15.1908   20.4071 N   0  0  0  0  0  0
  -31.9016  -14.5760   20.1512 O   0  0  0  0  0  0
  -21.6638   -6.8868   21.4236 O   0  0  0  0  0  0
  -22.3504  -14.5510   20.6682 O   0  0  0  0  0  0
  -24.6215  -31.8651   23.2101 C   0  0  0  0  0  0
  -25.9089  -32.4806   23.8403 C   0  0  1  0  0  0
  -27.2178  -27.3852   20.0868 C   0  0  0  0  0  0
  -25.5929  -33.8600   24.2345 N   0  0  0  0  0  0
  -23.4082  -30.4946   21.5524 C   0  0  2  0  0  0
  -24.8491  -28.9633   20.1107 C   0  0  0  0  0  0
  -22.7426  -29.4653   22.4963 C   0  0  0  0  0  0
  -18.0277  -28.1358   22.8492 C   0  0  0  0  0  0
  -24.1491  -36.7288   23.2634 C   0  0  0  0  0  0
  -25.9466  -30.8154   21.3718 C   0  0  0  0  0  0
  -26.0179  -29.4508   20.7098 C   0  0  0  0  0  0
  -27.2040  -28.6697   20.6956 C   0  0  0  0  0  0
  -26.0166  -26.9251   19.4921 C   0  0  0  0  0  0
  -24.8461  -27.7011   19.5003 C   0  0  0  0  0  0
  -23.6161  -29.8380   20.1642 C   0  0  0  0  0  0
  -25.4102  -36.3089   24.0347 C   0  0  1  0  0  0
  -20.5874  -28.3648   23.1301 C   0  0  2  0  0  0
  -20.6763  -26.9379   22.5395 C   0  0  0  0  0  0
  -19.5728  -26.6374   21.5194 C   0  0  0  0  0  0
  -18.1917  -26.7906   22.1630 C   0  0  0  0  0  0
  -19.1529  -28.8816   23.2899 C   0  0  0  0  0  0
  -18.9452  -30.1427   23.8908 C   0  0  0  0  0  0
  -17.6452  -30.6569   24.0549 C   0  0  0  0  0  0
  -25.9035  -34.9453   23.5133 C   0  0  0  0  0  0
  -16.5345  -29.9057   23.6327 C   0  0  0  0  0  0
  -16.7267  -28.6468   23.0364 C   0  0  0  0  0  0
  -26.4489  -31.6578   25.0740 C   0  0  0  0  0  0
  -25.3767  -31.3721   26.1503 C   0  0  0  0  0  0
  -27.0269  -30.2995   24.6138 C   0  0  0  0  0  0
  -27.6100  -32.4264   25.7472 C   0  0  0  0  0  0
  -27.5582  -37.1801   24.8464 C   0  0  0  0  0  0
  -21.4149  -29.3027   22.3706 N   0  0  0  0  0  0
  -26.4284  -37.3780   23.9423 N   0  0  0  0  0  0
  -24.6778  -31.0723   22.1019 N   0  0  0  0  0  0
  -23.4182  -28.8171   23.2998 O   0  0  0  0  0  0
  -28.3535  -26.5797   20.1251 O   0  0  0  0  0  0
  -26.5570  -34.8904   22.4685 O   0  0  0  0  0  0
  -23.5393  -32.1416   23.7474 O   0  0  0  0  0  0
  -29.3553  -18.4334   20.0001 C   0  0  0  0  0  0
  -28.9394  -19.7551   19.7079 C   0  0  0  0  0  0
  -29.6927  -20.4937   21.8469 C   0  0  0  0  0  0
  -29.9924  -18.1164   21.2212 C   0  0  0  0  0  0
  -30.1319  -19.1789   22.1690 C   0  0  0  0  0  0
  -29.1193  -20.8445   20.5997 C   0  0  0  0  0  0
  -28.5771  -24.1407   19.8027 C   0  0  0  0  0  0
  -28.5088  -22.9046   19.0598 C   0  0  0  0  0  0
  -28.3622  -25.4136   19.3720 C   0  0  0  0  0  0
  -30.6920  -16.7698   21.3889 C   0  0  0  0  0  0
  -28.9209  -23.3835   21.0839 C   0  0  0  0  0  0
  -30.7756  -18.9728   23.5430 C   0  0  0  0  0  0
  -28.7486  -22.1881   20.2329 N   0  0  0  0  0  0
  -30.0839  -15.6208   20.9958 N   0  0  0  0  0  0
  -32.2404  -19.0583   23.4733 N   0  3  0  0  0  0
  -28.3653  -22.6728   17.8775 O   0  0  0  0  0  0
  -31.8229  -16.7890   21.8916 O   0  0  0  0  0  0
  -31.4539  -12.4170   19.1157 H   0  0  0  0  0  0
  -30.3101  -11.3410   19.8603 H   0  0  0  0  0  0
  -29.7321  -11.7393   17.4504 H   0  0  0  0  0  0
  -29.6548  -13.4609   17.7307 H   0  0  0  0  0  0
  -27.8315  -11.3010   18.8402 H   0  0  0  0  0  0
  -27.3583  -12.6033   17.7862 H   0  0  0  0  0  0
  -27.6742  -14.2581   19.5300 H   0  0  0  0  0  0
  -28.6912  -12.0513   21.3822 H   0  0  0  0  0  0
  -28.4660  -13.7181   21.8305 H   0  0  0  0  0  0
  -25.2768   -9.5677   22.4749 H   0  0  0  0  0  0
  -24.0005   -7.4632   22.7472 H   0  0  0  0  0  0
  -21.0843   -8.8781   19.8947 H   0  0  0  0  0  0
  -22.3704  -10.9674   19.6161 H   0  0  0  0  0  0
  -21.2009   -7.6141   23.9708 H   0  0  0  0  0  0
  -21.1469   -6.0516   25.9073 H   0  0  0  0  0  0
  -22.0603   -2.7603   23.2850 H   0  0  0  0  0  0
  -22.4081  -11.9903   22.4837 H   0  0  0  0  0  0
  -21.1078  -13.1242   22.2573 H   0  0  0  0  0  0
  -24.6558  -15.8451   20.5158 H   0  0  0  0  0  0
  -26.2650  -15.6308   20.0596 H   0  0  0  0  0  0
  -26.7157  -32.5482   23.1159 H   0  0  0  0  0  0
  -25.0116  -33.9746   25.0524 H   0  0  0  0  0  0
  -22.6999  -31.3157   21.4190 H   0  0  0  0  0  0
  -23.3761  -35.9605   23.3265 H   0  0  0  0  0  0
  -24.3614  -36.8922   22.2058 H   0  0  0  0  0  0
  -23.7217  -37.6478   23.6659 H   0  0  0  0  0  0
  -26.0735  -31.5873   20.6118 H   0  0  0  0  0  0
  -26.8293  -30.8585   21.9972 H   0  0  0  0  0  0
  -28.1018  -29.0378   21.1715 H   0  0  0  0  0  0
  -25.9478  -25.9513   19.0292 H   0  0  0  0  0  0
  -23.9431  -27.3172   19.0451 H   0  0  0  0  0  0
  -23.7275  -30.6180   19.4099 H   0  0  0  0  0  0
  -22.7358  -29.2671   19.8653 H   0  0  0  0  0  0
  -25.1277  -36.1957   25.0837 H   0  0  0  0  0  0
  -20.9977  -28.3202   24.1416 H   0  0  0  0  0  0
  -20.5642  -26.2243   23.3574 H   0  0  0  0  0  0
  -21.6636  -26.7404   22.1196 H   0  0  0  0  0  0
  -19.6871  -25.6285   21.1208 H   0  0  0  0  0  0
  -19.6647  -27.3195   20.6725 H   0  0  0  0  0  0
  -17.4169  -26.6635   21.4055 H   0  0  0  0  0  0
  -18.0339  -26.0053   22.9035 H   0  0  0  0  0  0
  -19.7925  -30.7240   24.2283 H   0  0  0  0  0  0
  -17.5001  -31.6261   24.5124 H   0  0  0  0  0  0
  -15.5340  -30.2954   23.7635 H   0  0  0  0  0  0
  -15.8672  -28.0769   22.7097 H   0  0  0  0  0  0
  -24.5837  -30.7190   25.7844 H   0  0  0  0  0  0
  -24.9090  -32.2897   26.5080 H   0  0  0  0  0  0
  -25.8108  -30.8751   27.0193 H   0  0  0  0  0  0
  -26.2782  -29.6781   24.1202 H   0  0  0  0  0  0
  -27.4007  -29.7218   25.4610 H   0  0  0  0  0  0
  -27.8661  -30.4261   23.9295 H   0  0  0  0  0  0
  -27.2794  -33.3621   26.1992 H   0  0  0  0  0  0
  -28.3936  -32.6708   25.0289 H   0  0  0  0  0  0
  -28.0715  -31.8391   26.5427 H   0  0  0  0  0  0
  -28.2593  -38.0110   24.7545 H   0  0  0  0  0  0
  -28.1098  -36.2653   24.6256 H   0  0  0  0  0  0
  -27.2313  -37.1405   25.8868 H   0  0  0  0  0  0
  -20.9283  -29.8763   21.6961 H   0  0  0  0  0  0
  -26.0176  -38.2853   24.1434 H   0  0  0  0  0  0
  -29.2460  -17.6732   19.2393 H   0  0  0  0  0  0
  -28.4980  -19.9416   18.7383 H   0  0  0  0  0  0
  -29.8402  -21.2756   22.5781 H   0  0  0  0  0  0
  -28.1272  -25.6112   18.3345 H   0  0  0  0  0  0
  -28.2020  -23.4070   21.9048 H   0  0  0  0  0  0
  -29.9410  -23.4789   21.4584 H   0  0  0  0  0  0
  -30.4785  -18.0155   23.9731 H   0  0  0  0  0  0
  -30.4116  -19.7297   24.2390 H   0  0  0  0  0  0
  -29.0799  -15.6206   20.9424 H   0  0  0  0  0  0
  -32.5769  -18.2844   22.9201 H   0  0  0  0  0  0
  -32.6384  -18.9944   24.3927 H   0  0  0  0  0  0
  -32.5305  -19.9190   23.0490 H   0  0  0  0  0  0
  1 25  1  0  0  0
  1 30  2  0  0  0
  1 84  1  0  0  0
  2  3  1  0  0  0
  2 25  1  0  0  0
  2 88  1  0  0  0
  2 89  1  0  0  0
  3  4  1  0  0  0
  3 90  1  0  0  0
  3 91  1  0  0  0
  4  5  1  0  0  0
  4 92  1  0  0  0
  4 93  1  0  0  0
  5  6  1  0  0  0
  5 26  1  0  0  0
  5 94  1  0  0  0
  6 25  1  0  0  0
  6 95  1  0  0  0
  6 96  1  0  0  0
  7  8  2  0  0  0
  7 26  1  0  0  0
  7 29  1  0  0  0
  8  9  1  0  0  0
  8 22  1  0  0  0
  9 10  1  0  0  0
  9 27  2  0  0  0
 10 11  2  0  0  0
 10 15  1  0  0  0
 11 12  1  0  0  0
 11 97  1  0  0  0
 12 13  2  0  0  0
 12 98  1  0  0  0
 13 14  1  0  0  0
 13 31  1  0  0  0
 14 15  2  0  0  0
 14 99  1  0  0  0
 15100  1  0  0  0
 16 17  2  0  0  0
 16 21  1  0  0  0
 16 31  1  0  0  0
 17 18  1  0  0  0
 17101  1  0  0  0
 18 19  2  0  0  0
 18102  1  0  0  0
 19 20  1  0  0  0
 19 24  1  0  0  0
 20 21  2  0  0  0
 20103  1  0  0  0
 21 23  1  0  0  0
 22 28  1  0  0  0
 22 32  2  0  0  0
 26 27  1  0  0  0
 28104  1  0  0  0
 28105  1  0  0  0
 29106  1  0  0  0
 29107  1  0  0  0
 33 34  1  0  0  0
 33 66  1  0  0  0
 33 70  2  0  0  0
 34 36  1  0  0  0
 34 59  1  0  0  0
 34108  1  0  0  0
 35 44  2  0  0  0
 35 45  1  0  0  0
 35 68  1  0  0  0
 36 56  1  0  0  0
 36109  1  0  0  0
 37 39  1  0  0  0
 37 47  1  0  0  0
 37 66  1  0  0  0
 37110  1  0  0  0
 38 43  2  0  0  0
 38 46  1  0  0  0
 38 47  1  0  0  0
 39 64  1  0  0  0
 39 67  2  0  0  0
 40 52  1  0  0  0
 40 53  2  0  0  0
 40 58  1  0  0  0
 41111  1  0  0  0
 41112  1  0  0  0
 41113  1  0  0  0
 41 48  1  0  0  0
 42 43  1  0  0  0
 42 66  1  0  0  0
 42114  1  0  0  0
 42115  1  0  0  0
 43 44  1  0  0  0
 44116  1  0  0  0
 45 46  2  0  0  0
 45117  1  0  0  0
 46118  1  0  0  0
 47119  1  0  0  0
 47120  1  0  0  0
 48 56  1  0  0  0
 48 65  1  0  0  0
 48121  1  0  0  0
 49 50  1  0  0  0
 49 53  1  0  0  0
 49 64  1  0  0  0
 49122  1  0  0  0
 50 51  1  0  0  0
 50123  1  0  0  0
 50124  1  0  0  0
 51 52  1  0  0  0
 51125  1  0  0  0
 51126  1  0  0  0
 52127  1  0  0  0
 52128  1  0  0  0
 53 54  1  0  0  0
 54 55  2  0  0  0
 54129  1  0  0  0
 55 57  1  0  0  0
 55130  1  0  0  0
 56 69  2  0  0  0
 57 58  2  0  0  0
 57131  1  0  0  0
 58132  1  0  0  0
 59 60  1  0  0  0
 59 61  1  0  0  0
 59 62  1  0  0  0
 60133  1  0  0  0
 60134  1  0  0  0
 60135  1  0  0  0
 61136  1  0  0  0
 61137  1  0  0  0
 61138  1  0  0  0
 62139  1  0  0  0
 62140  1  0  0  0
 62141  1  0  0  0
 63 65  1  0  0  0
 63142  1  0  0  0
 63143  1  0  0  0
 63144  1  0  0  0
 64145  1  0  0  0
 65146  1  0  0  0
 68 79  1  0  0  0
 71 72  2  0  0  0
 71 74  1  0  0  0
 71147  1  0  0  0
 72 76  1  0  0  0
 72148  1  0  0  0
 73 75  1  0  0  0
 73 76  2  0  0  0
 73149  1  0  0  0
 74 75  2  0  0  0
 74 80  1  0  0  0
 75 82  1  0  0  0
 76 83  1  0  0  0
 77 78  1  0  0  0
 77 79  2  0  0  0
 77 81  1  0  0  0
 78 83  1  0  0  0
 78 86  2  0  0  0
 79150  1  0  0  0
 80 84  1  0  0  0
 80 87  2  0  0  0
 81 83  1  0  0  0
 81151  1  0  0  0
 81152  1  0  0  0
 82 85  1  0  0  0
 82153  1  0  0  0
 82154  1  0  0  0
 84155  1  0  0  0
 85156  1  0  0  0
 85157  1  0  0  0
 85158  1  0  0  0
M  CHG  1  85   1
M  ISO  4   1 100  68 101  79 101  84 100
M  END
> <chiral flag>
0

> <version>
0

> <s_m_source_file>
/data/baiqing/PycharmProjects/Reinvent-master-3.2/result/LINK_invent/BTK/process_docking_weight1_custom_product_contain_oxygen_bond_distance_aromatic_linkinvent_7_9_3/rearranged_h_0074.sdf

> <i_m_source_file_index>
3

> <r_mmod_Potential_Energy-OPLS-2005>
-321.296539306641

> <r_mmod_Stretch_Energy-OPLS-2005>
49.5047264099121

> <r_mmod_Bend_Energy-OPLS-2005>
187.311477661133

> <r_mmod_Torsional_Energy-OPLS-2005>
241.285705566406

> <r_mmod_Improper_Torsional_Energy-OPLS-2005>
6.74649333953857

> <r_mmod_Van_der_Waal_Energy-OPLS-2005>
167.119857788086

> <r_mmod_Electrostatic_Energy-OPLS-2005>
-499.387481689453

> <r_mmod_Solvation_Energy-OPLS-2005>
-500.286712646484

> <b_mmod_Minimization_Converged-OPLS-2005>
0

> <r_mmod_RMS_Derivative-OPLS-2005>
2.09857988357544

$$$$
3
                    3D
 Structure written by MMmdl.
153161  0  0  1  0            999 V2000
  -30.6400  -14.7608   20.5187 C   0  0  0  0  0  0
  -30.4386  -12.4834   19.4735 C   0  0  0  0  0  0
  -29.5101  -12.5195   18.2397 C   0  0  0  0  0  0
  -28.0451  -12.3193   18.6640 C   0  0  0  0  0  0
  -27.6444  -13.2309   19.8533 C   0  0  2  0  0  0
  -28.6922  -13.1852   20.9906 C   0  0  0  0  0  0
  -25.2541  -13.8189   20.5651 C   0  0  0  0  0  0
  -24.1837  -13.0415   20.9181 C   0  0  0  0  0  0
  -24.6439  -11.6908   20.8765 C   0  0  0  0  0  0
  -23.9116  -10.4284   21.0427 C   0  0  0  0  0  0
  -24.3659   -9.4200   21.9213 C   0  0  0  0  0  0
  -23.6307   -8.2247   22.0775 C   0  0  0  0  0  0
  -22.4291   -8.0293   21.3575 C   0  0  0  0  0  0
  -21.9941   -9.0270   20.4688 C   0  0  0  0  0  0
  -22.7279  -10.2136   20.3091 C   0  0  0  0  0  0
  -21.6862   -6.0751   22.5295 C   0  0  0  0  0  0
  -21.4013   -6.5652   23.8228 C   0  0  0  0  0  0
  -21.3657   -5.6801   24.9187 C   0  0  0  0  0  0
  -21.6039   -4.3066   24.7234 C   0  0  0  0  0  0
  -21.8816   -3.8164   23.4355 C   0  0  0  0  0  0
  -21.9187   -4.6978   22.3408 C   0  0  0  0  0  0
  -22.7873  -13.5237   21.1822 C   0  0  0  0  0  0
  -22.1661   -4.2164   21.0986 F   0  0  0  0  0  0
  -21.5625   -3.4544   25.7744 F   0  0  0  0  0  0
  -29.9921  -13.5459   20.4068 N   0  0  0  0  0  0
  -26.2975  -12.9396   20.3326 N   0  0  0  0  0  0
  -25.9369  -11.6540   20.5791 N   0  0  0  0  0  0
  -22.0523  -12.8225   22.0396 N   0  0  0  0  0  0
  -25.4151  -15.1873   20.3894 N   0  0  0  0  0  0
  -31.8300  -14.8512   20.2013 O   0  0  0  0  0  0
  -21.6656   -6.8889   21.4260 O   0  0  0  0  0  0
  -22.3561  -14.5521   20.6644 O   0  0  0  0  0  0
  -24.6253  -31.8572   23.2015 C   0  0  0  0  0  0
  -25.9098  -32.4771   23.8333 C   0  0  1  0  0  0
  -27.2286  -27.2598   20.1616 C   0  0  0  0  0  0
  -25.5952  -33.8566   24.2269 N   0  0  0  0  0  0
  -23.4295  -30.4747   21.5414 C   0  0  2  0  0  0
  -24.8831  -28.9175   20.1181 C   0  0  0  0  0  0
  -22.7486  -29.4586   22.4886 C   0  0  0  0  0  0
  -18.0283  -28.1413   22.8449 C   0  0  0  0  0  0
  -24.1485  -36.7261   23.2643 C   0  0  0  0  0  0
  -25.9702  -30.7731   21.3804 C   0  0  0  0  0  0
  -26.0497  -29.3894   20.7318 C   0  0  0  0  0  0
  -27.2257  -28.5734   20.7413 C   0  0  0  0  0  0
  -26.0414  -26.8509   19.5194 C   0  0  0  0  0  0
  -24.8831  -27.6546   19.5012 C   0  0  0  0  0  0
  -23.6566  -29.8089   20.1574 C   0  0  0  0  0  0
  -25.4116  -36.3055   24.0327 C   0  0  1  0  0  0
  -20.5885  -28.3709   23.1270 C   0  0  2  0  0  0
  -20.6778  -26.9420   22.5419 C   0  0  0  0  0  0
  -19.5763  -26.6398   21.5208 C   0  0  0  0  0  0
  -18.1938  -26.7944   22.1600 C   0  0  0  0  0  0
  -19.1539  -28.8870   23.2847 C   0  0  0  0  0  0
  -18.9472  -30.1459   23.8871 C   0  0  0  0  0  0
  -17.6486  -30.6600   24.0563 C   0  0  0  0  0  0
  -25.9057  -34.9441   23.5085 C   0  0  0  0  0  0
  -16.5373  -29.9118   23.6339 C   0  0  0  0  0  0
  -16.7276  -28.6553   23.0326 C   0  0  0  0  0  0
  -26.4505  -31.6590   25.0702 C   0  0  0  0  0  0
  -25.3754  -31.3732   26.1441 C   0  0  0  0  0  0
  -27.0365  -30.3030   24.6145 C   0  0  0  0  0  0
  -27.6108  -32.4300   25.7461 C   0  0  0  0  0  0
  -27.5553  -37.1768   24.8466 C   0  0  0  0  0  0
  -21.4189  -29.3048   22.3654 N   0  0  0  0  0  0
  -26.4275  -37.3757   23.9400 N   0  0  0  0  0  0
  -24.6942  -31.0518   22.1008 N   0  0  0  0  0  0
  -23.4185  -28.8100   23.2976 O   0  0  0  0  0  0
  -28.3379  -26.3828   20.1860 O   0  0  0  0  0  0
  -26.5603  -34.8914   22.4634 O   0  0  0  0  0  0
  -23.5408  -32.1413   23.7300 O   0  0  0  0  0  0
  -31.2585  -17.5401   22.0153 C   0  0  0  0  0  0
  -31.5582  -18.8466   22.4578 C   0  0  0  0  0  0
  -29.5802  -18.4981   20.5526 C   0  0  0  0  0  0
  -29.8958  -19.8729   20.9454 C   0  0  0  0  0  0
  -30.2516  -17.3066   21.0544 C   0  0  0  0  0  0
  -30.9187  -19.9988   21.9378 C   0  0  0  0  0  0
  -29.2000  -21.1052   20.2516 C   0  0  0  0  0  0
  -28.9684  -23.7318   20.0189 C   0  0  0  0  0  0
  -28.1808  -24.9734   20.7068 C   0  0  0  0  0  0
  -31.3597  -21.2219   22.4598 N   0  0  0  0  0  0
  -29.8735  -15.9036   20.7303 N   0  0  0  0  0  0
  -29.2335  -22.4016   20.7517 N   0  0  0  0  0  0
  -28.6060  -20.8927   19.1935 O   0  0  0  0  0  0
  -31.4768  -12.6154   19.1635 H   0  0  0  0  0  0
  -30.3960  -11.5082   19.9605 H   0  0  0  0  0  0
  -29.7961  -11.7517   17.5209 H   0  0  0  0  0  0
  -29.6206  -13.4741   17.7250 H   0  0  0  0  0  0
  -27.9254  -11.2708   18.9431 H   0  0  0  0  0  0
  -27.3774  -12.4863   17.8187 H   0  0  0  0  0  0
  -27.6264  -14.2460   19.4566 H   0  0  0  0  0  0
  -28.7448  -12.1957   21.4477 H   0  0  0  0  0  0
  -28.4164  -13.8738   21.7899 H   0  0  0  0  0  0
  -25.2801   -9.5643   22.4804 H   0  0  0  0  0  0
  -24.0001   -7.4634   22.7478 H   0  0  0  0  0  0
  -21.0885   -8.8816   19.8976 H   0  0  0  0  0  0
  -22.3779  -10.9687   19.6205 H   0  0  0  0  0  0
  -21.2024   -7.6168   23.9730 H   0  0  0  0  0  0
  -21.1471   -6.0545   25.9089 H   0  0  0  0  0  0
  -22.0597   -2.7626   23.2857 H   0  0  0  0  0  0
  -22.4155  -11.9895   22.4781 H   0  0  0  0  0  0
  -21.1155  -13.1286   22.2628 H   0  0  0  0  0  0
  -24.6216  -15.8162   20.4427 H   0  0  0  0  0  0
  -26.2292  -15.6201   19.9731 H   0  0  0  0  0  0
  -26.7144  -32.5423   23.1053 H   0  0  0  0  0  0
  -25.0105  -33.9709   25.0421 H   0  0  0  0  0  0
  -22.7224  -31.2919   21.3840 H   0  0  0  0  0  0
  -23.3770  -35.9564   23.3328 H   0  0  0  0  0  0
  -24.3575  -36.8880   22.2049 H   0  0  0  0  0  0
  -23.7234  -37.6474   23.6665 H   0  0  0  0  0  0
  -26.0821  -31.5306   20.6058 H   0  0  0  0  0  0
  -26.8595  -30.8405   21.9942 H   0  0  0  0  0  0
  -28.1152  -28.9291   21.2425 H   0  0  0  0  0  0
  -25.9966  -25.8886   19.0345 H   0  0  0  0  0  0
  -23.9920  -27.2907   19.0101 H   0  0  0  0  0  0
  -23.7941  -30.5886   19.4076 H   0  0  0  0  0  0
  -22.7772  -29.2482   19.8383 H   0  0  0  0  0  0
  -25.1286  -36.1922   25.0826 H   0  0  0  0  0  0
  -20.9925  -28.3310   24.1411 H   0  0  0  0  0  0
  -20.5716  -26.2290   23.3611 H   0  0  0  0  0  0
  -21.6638  -26.7481   22.1168 H   0  0  0  0  0  0
  -19.6958  -25.6320   21.1226 H   0  0  0  0  0  0
  -19.6743  -27.3205   20.6744 H   0  0  0  0  0  0
  -17.4201  -26.6656   21.4026 H   0  0  0  0  0  0
  -18.0357  -26.0111   22.9018 H   0  0  0  0  0  0
  -19.7970  -30.7257   24.2245 H   0  0  0  0  0  0
  -17.5076  -31.6285   24.5162 H   0  0  0  0  0  0
  -15.5383  -30.3025   23.7721 H   0  0  0  0  0  0
  -15.8655  -28.0914   22.7025 H   0  0  0  0  0  0
  -24.5958  -30.7031   25.7798 H   0  0  0  0  0  0
  -24.8870  -32.2864   26.4830 H   0  0  0  0  0  0
  -25.8079  -30.8964   27.0238 H   0  0  0  0  0  0
  -26.2936  -29.6760   24.1196 H   0  0  0  0  0  0
  -27.4145  -29.7302   25.4629 H   0  0  0  0  0  0
  -27.8752  -30.4364   23.9314 H   0  0  0  0  0  0
  -27.2833  -33.3672   26.1960 H   0  0  0  0  0  0
  -28.3977  -32.6737   25.0315 H   0  0  0  0  0  0
  -28.0692  -31.8441   26.5436 H   0  0  0  0  0  0
  -28.2571  -38.0061   24.7507 H   0  0  0  0  0  0
  -28.1050  -36.2588   24.6321 H   0  0  0  0  0  0
  -27.2238  -37.1453   25.8862 H   0  0  0  0  0  0
  -20.9394  -29.8797   21.6859 H   0  0  0  0  0  0
  -26.0167  -38.2808   24.1521 H   0  0  0  0  0  0
  -31.7995  -16.7141   22.4580 H   0  0  0  0  0  0
  -32.3228  -18.9552   23.2172 H   0  0  0  0  0  0
  -28.7921  -18.3626   19.8246 H   0  0  0  0  0  0
  -29.9554  -24.0987   19.7373 H   0  0  0  0  0  0
  -28.4727  -23.5290   19.0706 H   0  0  0  0  0  0
  -28.4817  -25.0152   21.7539 H   0  0  0  0  0  0
  -27.1220  -24.7124   20.7487 H   0  0  0  0  0  0
  -32.0739  -21.1503   23.1790 H   0  0  0  0  0  0
  -31.6570  -21.9194   21.7860 H   0  0  0  0  0  0
  -28.8796  -15.7353   20.7155 H   0  0  0  0  0  0
  -29.7179  -22.4718   21.6390 H   0  0  0  0  0  0
  1 25  1  0  0  0
  1 30  2  0  0  0
  1 81  1  0  0  0
  2  3  1  0  0  0
  2 25  1  0  0  0
  2 84  1  0  0  0
  2 85  1  0  0  0
  3  4  1  0  0  0
  3 86  1  0  0  0
  3 87  1  0  0  0
  4  5  1  0  0  0
  4 88  1  0  0  0
  4 89  1  0  0  0
  5  6  1  0  0  0
  5 26  1  0  0  0
  5 90  1  0  0  0
  6 25  1  0  0  0
  6 91  1  0  0  0
  6 92  1  0  0  0
  7  8  2  0  0  0
  7 26  1  0  0  0
  7 29  1  0  0  0
  8  9  1  0  0  0
  8 22  1  0  0  0
  9 10  1  0  0  0
  9 27  2  0  0  0
 10 11  2  0  0  0
 10 15  1  0  0  0
 11 12  1  0  0  0
 11 93  1  0  0  0
 12 13  2  0  0  0
 12 94  1  0  0  0
 13 14  1  0  0  0
 13 31  1  0  0  0
 14 15  2  0  0  0
 14 95  1  0  0  0
 15 96  1  0  0  0
 16 17  2  0  0  0
 16 21  1  0  0  0
 16 31  1  0  0  0
 17 18  1  0  0  0
 17 97  1  0  0  0
 18 19  2  0  0  0
 18 98  1  0  0  0
 19 20  1  0  0  0
 19 24  1  0  0  0
 20 21  2  0  0  0
 20 99  1  0  0  0
 21 23  1  0  0  0
 22 28  1  0  0  0
 22 32  2  0  0  0
 26 27  1  0  0  0
 28100  1  0  0  0
 28101  1  0  0  0
 29102  1  0  0  0
 29103  1  0  0  0
 33 34  1  0  0  0
 33 66  1  0  0  0
 33 70  2  0  0  0
 34 36  1  0  0  0
 34 59  1  0  0  0
 34104  1  0  0  0
 35 44  2  0  0  0
 35 45  1  0  0  0
 35 68  1  0  0  0
 36 56  1  0  0  0
 36105  1  0  0  0
 37 39  1  0  0  0
 37 47  1  0  0  0
 37 66  1  0  0  0
 37106  1  0  0  0
 38 43  2  0  0  0
 38 46  1  0  0  0
 38 47  1  0  0  0
 39 64  1  0  0  0
 39 67  2  0  0  0
 40 52  1  0  0  0
 40 53  2  0  0  0
 40 58  1  0  0  0
 41107  1  0  0  0
 41108  1  0  0  0
 41109  1  0  0  0
 41 48  1  0  0  0
 42 43  1  0  0  0
 42 66  1  0  0  0
 42110  1  0  0  0
 42111  1  0  0  0
 43 44  1  0  0  0
 44112  1  0  0  0
 45 46  2  0  0  0
 45113  1  0  0  0
 46114  1  0  0  0
 47115  1  0  0  0
 47116  1  0  0  0
 48 56  1  0  0  0
 48 65  1  0  0  0
 48117  1  0  0  0
 49 50  1  0  0  0
 49 53  1  0  0  0
 49 64  1  0  0  0
 49118  1  0  0  0
 50 51  1  0  0  0
 50119  1  0  0  0
 50120  1  0  0  0
 51 52  1  0  0  0
 51121  1  0  0  0
 51122  1  0  0  0
 52123  1  0  0  0
 52124  1  0  0  0
 53 54  1  0  0  0
 54 55  2  0  0  0
 54125  1  0  0  0
 55 57  1  0  0  0
 55126  1  0  0  0
 56 69  2  0  0  0
 57 58  2  0  0  0
 57127  1  0  0  0
 58128  1  0  0  0
 59 60  1  0  0  0
 59 61  1  0  0  0
 59 62  1  0  0  0
 60129  1  0  0  0
 60130  1  0  0  0
 60131  1  0  0  0
 61132  1  0  0  0
 61133  1  0  0  0
 61134  1  0  0  0
 62135  1  0  0  0
 62136  1  0  0  0
 62137  1  0  0  0
 63 65  1  0  0  0
 63138  1  0  0  0
 63139  1  0  0  0
 63140  1  0  0  0
 64141  1  0  0  0
 65142  1  0  0  0
 68 79  1  0  0  0
 71 72  2  0  0  0
 71 75  1  0  0  0
 71143  1  0  0  0
 72 76  1  0  0  0
 72144  1  0  0  0
 73 74  1  0  0  0
 73 75  2  0  0  0
 73145  1  0  0  0
 74 76  2  0  0  0
 74 77  1  0  0  0
 75 81  1  0  0  0
 76 80  1  0  0  0
 77 82  1  0  0  0
 77 83  2  0  0  0
 78 79  1  0  0  0
 78 82  1  0  0  0
 78146  1  0  0  0
 78147  1  0  0  0
 79148  1  0  0  0
 79149  1  0  0  0
 80150  1  0  0  0
 80151  1  0  0  0
 81152  1  0  0  0
 82153  1  0  0  0
M  ISO  4   1 100  68 101  79 101  81 100
M  END
> <chiral flag>
0

> <version>
0

> <s_m_source_file>
/data/baiqing/PycharmProjects/Reinvent-master-3.2/result/LINK_invent/BTK/process_docking_weight1_custom_product_contain_oxygen_bond_distance_aromatic_linkinvent_7_9_3/rearranged_h_0074.sdf

> <i_m_source_file_index>
4

> <r_mmod_Potential_Energy-OPLS-2005>
154.529632568359

> <r_mmod_Stretch_Energy-OPLS-2005>
132.292144775391

> <r_mmod_Bend_Energy-OPLS-2005>
166.174377441406

> <r_mmod_Torsional_Energy-OPLS-2005>
265.733612060547

> <r_mmod_Improper_Torsional_Energy-OPLS-2005>
12.8588466644287

> <r_mmod_Van_der_Waal_Energy-OPLS-2005>
139.610244750977

> <r_mmod_Electrostatic_Energy-OPLS-2005>
-411.811065673828

> <r_mmod_Solvation_Energy-OPLS-2005>
-238.867340087891

> <b_mmod_Minimization_Converged-OPLS-2005>
0

> <r_mmod_RMS_Derivative-OPLS-2005>
5.41647005081177

$$$$
4
                    3D
 Structure written by MMmdl.
162171  0  0  1  0            999 V2000
  -30.6863  -14.4960   20.4866 C   0  0  0  0  0  0
  -30.4254  -12.2967   19.4255 C   0  0  0  0  0  0
  -29.4926  -12.4739   18.2089 C   0  0  0  0  0  0
  -28.0166  -12.3245   18.6297 C   0  0  0  0  0  0
  -27.6559  -13.1834   19.8694 C   0  0  2  0  0  0
  -28.7072  -13.0158   20.9915 C   0  0  0  0  0  0
  -25.2587  -13.8066   20.5739 C   0  0  0  0  0  0
  -24.1821  -13.0369   20.9192 C   0  0  0  0  0  0
  -24.6367  -11.6842   20.8763 C   0  0  0  0  0  0
  -23.9032  -10.4251   21.0425 C   0  0  0  0  0  0
  -24.3594   -9.4172   21.9196 C   0  0  0  0  0  0
  -23.6270   -8.2212   22.0753 C   0  0  0  0  0  0
  -22.4254   -8.0260   21.3539 C   0  0  0  0  0  0
  -21.9890   -9.0232   20.4644 C   0  0  0  0  0  0
  -22.7215  -10.2108   20.3062 C   0  0  0  0  0  0
  -21.6842   -6.0728   22.5280 C   0  0  0  0  0  0
  -21.4008   -6.5635   23.8214 C   0  0  0  0  0  0
  -21.3653   -5.6789   24.9175 C   0  0  0  0  0  0
  -21.6042   -4.3052   24.7227 C   0  0  0  0  0  0
  -21.8821   -3.8142   23.4346 C   0  0  0  0  0  0
  -21.9191   -4.6960   22.3405 C   0  0  0  0  0  0
  -22.7854  -13.5202   21.1838 C   0  0  0  0  0  0
  -22.1661   -4.2148   21.0982 F   0  0  0  0  0  0
  -21.5629   -3.4536   25.7738 F   0  0  0  0  0  0
  -30.0337  -13.3044   20.4206 N   0  0  0  0  0  0
  -26.3000  -12.9202   20.3389 N   0  0  0  0  0  0
  -25.9288  -11.6386   20.5810 N   0  0  0  0  0  0
  -22.0484  -12.8216   22.0401 N   0  0  0  0  0  0
  -25.4234  -15.1788   20.4248 N   0  0  0  0  0  0
  -31.8736  -14.6121   20.1705 O   0  0  0  0  0  0
  -21.6616   -6.8862   21.4237 O   0  0  0  0  0  0
  -22.3562  -14.5519   20.6685 O   0  0  0  0  0  0
  -24.6128  -31.8698   23.2117 C   0  0  0  0  0  0
  -25.9034  -32.4829   23.8405 C   0  0  1  0  0  0
  -27.2331  -27.4454   20.0957 C   0  0  0  0  0  0
  -25.5893  -33.8625   24.2337 N   0  0  0  0  0  0
  -23.3988  -30.4945   21.5517 C   0  0  2  0  0  0
  -24.8433  -28.9625   20.1127 C   0  0  0  0  0  0
  -22.7390  -29.4681   22.5000 C   0  0  0  0  0  0
  -18.0280  -28.1362   22.8491 C   0  0  0  0  0  0
  -24.1486  -36.7317   23.2639 C   0  0  0  0  0  0
  -25.9260  -30.8388   21.3630 C   0  0  0  0  0  0
  -26.0011  -29.4750   20.7086 C   0  0  0  0  0  0
  -27.1953  -28.7232   20.6961 C   0  0  0  0  0  0
  -26.0584  -26.9492   19.4845 C   0  0  0  0  0  0
  -24.8666  -27.6982   19.4993 C   0  0  0  0  0  0
  -23.6048  -29.8275   20.1653 C   0  0  0  0  0  0
  -25.4108  -36.3114   24.0340 C   0  0  1  0  0  0
  -20.5865  -28.3665   23.1318 C   0  0  2  0  0  0
  -20.6791  -26.9406   22.5412 C   0  0  0  0  0  0
  -19.5759  -26.6380   21.5218 C   0  0  0  0  0  0
  -18.1937  -26.7908   22.1625 C   0  0  0  0  0  0
  -19.1524  -28.8825   23.2903 C   0  0  0  0  0  0
  -18.9455  -30.1428   23.8914 C   0  0  0  0  0  0
  -17.6456  -30.6567   24.0559 C   0  0  0  0  0  0
  -25.9036  -34.9476   23.5139 C   0  0  0  0  0  0
  -16.5347  -29.9070   23.6313 C   0  0  0  0  0  0
  -16.7269  -28.6485   23.0338 C   0  0  0  0  0  0
  -26.4469  -31.6602   25.0728 C   0  0  0  0  0  0
  -25.3740  -31.3698   26.1481 C   0  0  0  0  0  0
  -27.0297  -30.3044   24.6092 C   0  0  0  0  0  0
  -27.6052  -32.4317   25.7481 C   0  0  0  0  0  0
  -27.5583  -37.1813   24.8467 C   0  0  0  0  0  0
  -21.4120  -29.3065   22.3746 N   0  0  0  0  0  0
  -26.4298  -37.3794   23.9409 N   0  0  0  0  0  0
  -24.6640  -31.0815   22.1008 N   0  0  0  0  0  0
  -23.4173  -28.8221   23.3033 O   0  0  0  0  0  0
  -28.4231  -26.7480   20.1486 O   0  0  0  0  0  0
  -26.5592  -34.8925   22.4698 O   0  0  0  0  0  0
  -23.5327  -32.1449   23.7522 O   0  0  0  0  0  0
  -26.7233  -17.9996   19.1763 C   0  0  0  0  0  0
  -27.8576  -17.2190   19.4351 C   0  0  0  0  0  0
  -26.6809  -19.3339   19.6029 C   0  0  0  0  0  0
  -28.9137  -19.1141   20.5377 C   0  0  0  0  0  0
  -28.9392  -17.7398   20.1761 C   0  0  0  0  0  0
  -27.7958  -19.9486   20.2342 C   0  0  0  0  0  0
  -26.7443  -23.6067   20.5578 C   0  0  0  0  0  0
  -27.0019  -22.2547   19.8380 C   0  0  0  0  0  0
  -30.1369  -16.8645   20.4740 C   0  0  0  0  0  0
  -29.1076  -23.3175   21.3867 C   0  0  0  0  0  0
  -28.5597  -21.8947   21.6924 C   0  0  0  0  0  0
  -28.0030  -24.3713   21.0328 C   0  0  1  0  0  0
  -27.6696  -25.1506   22.3322 C   0  0  0  0  0  0
  -28.4782  -25.3373   19.8820 C   0  0  0  0  0  0
  -27.7592  -21.3659   20.5576 N   0  0  0  0  0  0
  -29.8615  -15.5522   20.6370 N   0  0  0  0  0  0
  -25.5996  -24.0424   20.7323 O   0  0  0  0  0  0
  -26.5520  -22.0714   18.6979 O   0  0  0  0  0  0
  -31.2597  -17.3744   20.5638 O   0  0  0  0  0  0
  -31.4690  -12.3897   19.1186 H   0  0  0  0  0  0
  -30.3250  -11.2944   19.8453 H   0  0  0  0  0  0
  -29.7364  -11.7403   17.4389 H   0  0  0  0  0  0
  -29.6503  -13.4542   17.7572 H   0  0  0  0  0  0
  -27.8433  -11.2702   18.8501 H   0  0  0  0  0  0
  -27.3579  -12.5696   17.7957 H   0  0  0  0  0  0
  -27.6776  -14.2121   19.5323 H   0  0  0  0  0  0
  -28.6906  -11.9975   21.3827 H   0  0  0  0  0  0
  -28.4820  -13.6656   21.8389 H   0  0  0  0  0  0
  -25.2741   -9.5649   22.4764 H   0  0  0  0  0  0
  -23.9981   -7.4603   22.7470 H   0  0  0  0  0  0
  -21.0821   -8.8750   19.8950 H   0  0  0  0  0  0
  -22.3685  -10.9648   19.6170 H   0  0  0  0  0  0
  -21.1999   -7.6144   23.9717 H   0  0  0  0  0  0
  -21.1473   -6.0519   25.9081 H   0  0  0  0  0  0
  -22.0609   -2.7603   23.2847 H   0  0  0  0  0  0
  -22.4086  -11.9865   22.4775 H   0  0  0  0  0  0
  -21.1114  -13.1262   22.2624 H   0  0  0  0  0  0
  -24.6462  -15.8163   20.5555 H   0  0  0  0  0  0
  -26.2707  -15.6515   20.1445 H   0  0  0  0  0  0
  -26.7105  -32.5545   23.1171 H   0  0  0  0  0  0
  -25.0042  -33.9792   25.0480 H   0  0  0  0  0  0
  -22.6874  -31.3117   21.4143 H   0  0  0  0  0  0
  -23.3742  -35.9658   23.3315 H   0  0  0  0  0  0
  -24.3580  -36.8917   22.2051 H   0  0  0  0  0  0
  -23.7247  -37.6531   23.6642 H   0  0  0  0  0  0
  -26.0390  -31.6073   20.5972 H   0  0  0  0  0  0
  -26.8138  -30.8892   21.9815 H   0  0  0  0  0  0
  -28.0895  -29.1144   21.1614 H   0  0  0  0  0  0
  -26.0344  -25.9890   18.9940 H   0  0  0  0  0  0
  -23.9758  -27.2986   19.0350 H   0  0  0  0  0  0
  -23.7111  -30.6023   19.4052 H   0  0  0  0  0  0
  -22.7293  -29.2465   19.8711 H   0  0  0  0  0  0
  -25.1284  -36.1983   25.0832 H   0  0  0  0  0  0
  -20.9960  -28.3236   24.1440 H   0  0  0  0  0  0
  -20.5704  -26.2287   23.3608 H   0  0  0  0  0  0
  -21.6663  -26.7454   22.1198 H   0  0  0  0  0  0
  -19.6919  -25.6289   21.1258 H   0  0  0  0  0  0
  -19.6696  -27.3188   20.6742 H   0  0  0  0  0  0
  -17.4212  -26.6654   21.4023 H   0  0  0  0  0  0
  -18.0336  -26.0048   22.9020 H   0  0  0  0  0  0
  -19.7935  -30.7235   24.2288 H   0  0  0  0  0  0
  -17.5005  -31.6251   24.5155 H   0  0  0  0  0  0
  -15.5346  -30.2977   23.7610 H   0  0  0  0  0  0
  -15.8666  -28.0809   22.7049 H   0  0  0  0  0  0
  -24.5905  -30.7058   25.7813 H   0  0  0  0  0  0
  -24.8940  -32.2850   26.4954 H   0  0  0  0  0  0
  -25.8097  -30.8844   27.0223 H   0  0  0  0  0  0
  -26.2837  -29.6808   24.1151 H   0  0  0  0  0  0
  -27.4079  -29.7277   25.4544 H   0  0  0  0  0  0
  -27.8666  -30.4370   23.9232 H   0  0  0  0  0  0
  -27.2677  -33.3599   26.2104 H   0  0  0  0  0  0
  -28.3831  -32.6909   25.0287 H   0  0  0  0  0  0
  -28.0756  -31.8417   26.5358 H   0  0  0  0  0  0
  -28.2610  -38.0097   24.7503 H   0  0  0  0  0  0
  -28.1064  -36.2631   24.6304 H   0  0  0  0  0  0
  -27.2300  -37.1481   25.8869 H   0  0  0  0  0  0
  -20.9280  -29.8776   21.6959 H   0  0  0  0  0  0
  -26.0189  -38.2878   24.1391 H   0  0  0  0  0  0
  -25.8835  -17.5790   18.6390 H   0  0  0  0  0  0
  -27.8901  -16.2188   19.0387 H   0  0  0  0  0  0
  -25.7715  -19.8794   19.3964 H   0  0  0  0  0  0
  -29.7949  -19.5036   21.0233 H   0  0  0  0  0  0
  -29.8176  -23.2141   20.5646 H   0  0  0  0  0  0
  -29.7082  -23.6633   22.2297 H   0  0  0  0  0  0
  -27.9232  -21.9181   22.5795 H   0  0  0  0  0  0
  -29.4002  -21.2655   21.9656 H   0  0  0  0  0  0
  -27.4109  -24.4732   23.1468 H   0  0  0  0  0  0
  -26.8256  -25.8298   22.2104 H   0  0  0  0  0  0
  -28.5188  -25.7481   22.6647 H   0  0  0  0  0  0
  -28.0047  -25.1114   18.9259 H   0  0  0  0  0  0
  -29.5337  -25.1582   19.6802 H   0  0  0  0  0  0
  -28.8879  -15.3264   20.7263 H   0  0  0  0  0  0
  1 25  1  0  0  0
  1 30  2  0  0  0
  1 86  1  0  0  0
  2  3  1  0  0  0
  2 25  1  0  0  0
  2 90  1  0  0  0
  2 91  1  0  0  0
  3  4  1  0  0  0
  3 92  1  0  0  0
  3 93  1  0  0  0
  4  5  1  0  0  0
  4 94  1  0  0  0
  4 95  1  0  0  0
  5  6  1  0  0  0
  5 26  1  0  0  0
  5 96  1  0  0  0
  6 25  1  0  0  0
  6 97  1  0  0  0
  6 98  1  0  0  0
  7  8  2  0  0  0
  7 26  1  0  0  0
  7 29  1  0  0  0
  8  9  1  0  0  0
  8 22  1  0  0  0
  9 10  1  0  0  0
  9 27  2  0  0  0
 10 11  2  0  0  0
 10 15  1  0  0  0
 11 12  1  0  0  0
 11 99  1  0  0  0
 12 13  2  0  0  0
 12100  1  0  0  0
 13 14  1  0  0  0
 13 31  1  0  0  0
 14 15  2  0  0  0
 14101  1  0  0  0
 15102  1  0  0  0
 16 17  2  0  0  0
 16 21  1  0  0  0
 16 31  1  0  0  0
 17 18  1  0  0  0
 17103  1  0  0  0
 18 19  2  0  0  0
 18104  1  0  0  0
 19 20  1  0  0  0
 19 24  1  0  0  0
 20 21  2  0  0  0
 20105  1  0  0  0
 21 23  1  0  0  0
 22 28  1  0  0  0
 22 32  2  0  0  0
 26 27  1  0  0  0
 28106  1  0  0  0
 28107  1  0  0  0
 29108  1  0  0  0
 29109  1  0  0  0
 33 34  1  0  0  0
 33 66  1  0  0  0
 33 70  2  0  0  0
 34 36  1  0  0  0
 34 59  1  0  0  0
 34110  1  0  0  0
 35 44  2  0  0  0
 35 45  1  0  0  0
 35 68  1  0  0  0
 36 56  1  0  0  0
 36111  1  0  0  0
 37 39  1  0  0  0
 37 47  1  0  0  0
 37 66  1  0  0  0
 37112  1  0  0  0
 38 43  2  0  0  0
 38 46  1  0  0  0
 38 47  1  0  0  0
 39 64  1  0  0  0
 39 67  2  0  0  0
 40 52  1  0  0  0
 40 53  2  0  0  0
 40 58  1  0  0  0
 41113  1  0  0  0
 41114  1  0  0  0
 41115  1  0  0  0
 41 48  1  0  0  0
 42 43  1  0  0  0
 42 66  1  0  0  0
 42116  1  0  0  0
 42117  1  0  0  0
 43 44  1  0  0  0
 44118  1  0  0  0
 45 46  2  0  0  0
 45119  1  0  0  0
 46120  1  0  0  0
 47121  1  0  0  0
 47122  1  0  0  0
 48 56  1  0  0  0
 48 65  1  0  0  0
 48123  1  0  0  0
 49 50  1  0  0  0
 49 53  1  0  0  0
 49 64  1  0  0  0
 49124  1  0  0  0
 50 51  1  0  0  0
 50125  1  0  0  0
 50126  1  0  0  0
 51 52  1  0  0  0
 51127  1  0  0  0
 51128  1  0  0  0
 52129  1  0  0  0
 52130  1  0  0  0
 53 54  1  0  0  0
 54 55  2  0  0  0
 54131  1  0  0  0
 55 57  1  0  0  0
 55132  1  0  0  0
 56 69  2  0  0  0
 57 58  2  0  0  0
 57133  1  0  0  0
 58134  1  0  0  0
 59 60  1  0  0  0
 59 61  1  0  0  0
 59 62  1  0  0  0
 60135  1  0  0  0
 60136  1  0  0  0
 60137  1  0  0  0
 61138  1  0  0  0
 61139  1  0  0  0
 61140  1  0  0  0
 62141  1  0  0  0
 62142  1  0  0  0
 62143  1  0  0  0
 63 65  1  0  0  0
 63144  1  0  0  0
 63145  1  0  0  0
 63146  1  0  0  0
 64147  1  0  0  0
 65148  1  0  0  0
 68 84  1  0  0  0
 71 72  2  0  0  0
 71 73  1  0  0  0
 71149  1  0  0  0
 72 75  1  0  0  0
 72150  1  0  0  0
 73 76  2  0  0  0
 73151  1  0  0  0
 74 75  2  0  0  0
 74 76  1  0  0  0
 74152  1  0  0  0
 75 79  1  0  0  0
 76 85  1  0  0  0
 77 78  1  0  0  0
 77 82  1  0  0  0
 77 87  2  0  0  0
 78 85  1  0  0  0
 78 88  2  0  0  0
 79 86  1  0  0  0
 79 89  2  0  0  0
 80 81  1  0  0  0
 80 82  1  0  0  0
 80153  1  0  0  0
 80154  1  0  0  0
 81 85  1  0  0  0
 81155  1  0  0  0
 81156  1  0  0  0
 82 83  1  0  0  0
 82 84  1  0  0  0
 83157  1  0  0  0
 83158  1  0  0  0
 83159  1  0  0  0
 84160  1  0  0  0
 84161  1  0  0  0
 86162  1  0  0  0
M  ISO  4   1 100  68 101  84 101  86 100
M  END
> <chiral flag>
0

> <version>
0

> <s_m_source_file>
/data/baiqing/PycharmProjects/Reinvent-master-3.2/result/LINK_invent/BTK/process_docking_weight1_custom_product_contain_oxygen_bond_distance_aromatic_linkinvent_7_9_3/rearranged_h_0074.sdf

> <i_m_source_file_index>
5

> <r_mmod_Potential_Energy-OPLS-2005>
131.620635986328

> <r_mmod_Stretch_Energy-OPLS-2005>
51.3369560241699

> <r_mmod_Bend_Energy-OPLS-2005>
117.312919616699

> <r_mmod_Torsional_Energy-OPLS-2005>
295.695037841797

> <r_mmod_Improper_Torsional_Energy-OPLS-2005>
7.59598159790039

> <r_mmod_Van_der_Waal_Energy-OPLS-2005>
198.910308837891

> <r_mmod_Electrostatic_Energy-OPLS-2005>
-319.378540039062

> <r_mmod_Solvation_Energy-OPLS-2005>
-239.556365966797

> <b_mmod_Minimization_Converged-OPLS-2005>
0

> <r_mmod_RMS_Derivative-OPLS-2005>
1.0643595457077

$$$$
5
                    3D
 Structure written by MMmdl.
167176  0  0  1  0            999 V2000
  -30.6624  -14.6464   20.4930 C   0  0  0  0  0  0
  -30.4213  -12.3991   19.4557 C   0  0  0  0  0  0
  -29.4987  -12.5026   18.2231 C   0  0  0  0  0  0
  -28.0247  -12.3404   18.6398 C   0  0  0  0  0  0
  -27.6458  -13.2262   19.8571 C   0  0  2  0  0  0
  -28.6926  -13.1253   20.9891 C   0  0  0  0  0  0
  -25.2523  -13.8197   20.5704 C   0  0  0  0  0  0
  -24.1809  -13.0446   20.9215 C   0  0  0  0  0  0
  -24.6395  -11.6919   20.8759 C   0  0  0  0  0  0
  -23.9070  -10.4294   21.0416 C   0  0  0  0  0  0
  -24.3616   -9.4210   21.9195 C   0  0  0  0  0  0
  -23.6292   -8.2245   22.0763 C   0  0  0  0  0  0
  -22.4278   -8.0283   21.3548 C   0  0  0  0  0  0
  -21.9918   -9.0257   20.4648 C   0  0  0  0  0  0
  -22.7245  -10.2137   20.3061 C   0  0  0  0  0  0
  -21.6853   -6.0738   22.5282 C   0  0  0  0  0  0
  -21.4013   -6.5645   23.8214 C   0  0  0  0  0  0
  -21.3657   -5.6794   24.9175 C   0  0  0  0  0  0
  -21.6045   -4.3057   24.7227 C   0  0  0  0  0  0
  -21.8818   -3.8148   23.4348 C   0  0  0  0  0  0
  -21.9193   -4.6964   22.3404 C   0  0  0  0  0  0
  -22.7830  -13.5223   21.1867 C   0  0  0  0  0  0
  -22.1660   -4.2149   21.0980 F   0  0  0  0  0  0
  -21.5629   -3.4542   25.7742 F   0  0  0  0  0  0
  -30.0006  -13.4490   20.4075 N   0  0  0  0  0  0
  -26.2955  -12.9396   20.3320 N   0  0  0  0  0  0
  -25.9326  -11.6539   20.5774 N   0  0  0  0  0  0
  -22.0470  -12.8203   22.0408 N   0  0  0  0  0  0
  -25.4208  -15.1922   20.4109 N   0  0  0  0  0  0
  -31.8416  -14.7229   20.1397 O   0  0  0  0  0  0
  -21.6642   -6.8880   21.4243 O   0  0  0  0  0  0
  -22.3521  -14.5533   20.6722 O   0  0  0  0  0  0
  -24.6247  -31.8600   23.2029 C   0  0  0  0  0  0
  -25.9095  -32.4783   23.8358 C   0  0  1  0  0  0
  -27.2230  -27.3308   20.1240 C   0  0  0  0  0  0
  -25.5909  -33.8584   24.2284 N   0  0  0  0  0  0
  -23.4190  -30.4819   21.5451 C   0  0  2  0  0  0
  -24.8672  -28.9346   20.1141 C   0  0  0  0  0  0
  -22.7467  -29.4627   22.4949 C   0  0  0  0  0  0
  -18.0281  -28.1389   22.8500 C   0  0  0  0  0  0
  -24.1485  -36.7291   23.2645 C   0  0  0  0  0  0
  -25.9574  -30.7960   21.3694 C   0  0  0  0  0  0
  -26.0355  -29.4218   20.7165 C   0  0  0  0  0  0
  -27.2215  -28.6312   20.7118 C   0  0  0  0  0  0
  -26.0398  -26.8875   19.5021 C   0  0  0  0  0  0
  -24.8698  -27.6718   19.4979 C   0  0  0  0  0  0
  -23.6333  -29.8130   20.1621 C   0  0  0  0  0  0
  -25.4112  -36.3084   24.0333 C   0  0  1  0  0  0
  -20.5883  -28.3696   23.1292 C   0  0  2  0  0  0
  -20.6771  -26.9418   22.5419 C   0  0  0  0  0  0
  -19.5743  -26.6394   21.5221 C   0  0  0  0  0  0
  -18.1920  -26.7938   22.1630 C   0  0  0  0  0  0
  -19.1535  -28.8859   23.2892 C   0  0  0  0  0  0
  -18.9458  -30.1461   23.8908 C   0  0  0  0  0  0
  -17.6461  -30.6592   24.0573 C   0  0  0  0  0  0
  -25.9045  -34.9454   23.5108 C   0  0  0  0  0  0
  -16.5351  -29.9094   23.6333 C   0  0  0  0  0  0
  -16.7271  -28.6505   23.0367 C   0  0  0  0  0  0
  -26.4495  -31.6588   25.0716 C   0  0  0  0  0  0
  -25.3738  -31.3682   26.1436 C   0  0  0  0  0  0
  -27.0355  -30.3027   24.6143 C   0  0  0  0  0  0
  -27.6056  -32.4323   25.7488 C   0  0  0  0  0  0
  -27.5578  -37.1797   24.8467 C   0  0  0  0  0  0
  -21.4182  -29.3042   22.3682 N   0  0  0  0  0  0
  -26.4291  -37.3779   23.9409 N   0  0  0  0  0  0
  -24.6861  -31.0619   22.0969 N   0  0  0  0  0  0
  -23.4188  -28.8174   23.3039 O   0  0  0  0  0  0
  -28.3133  -26.4586   20.1375 O   0  0  0  0  0  0
  -26.5621  -34.8919   22.4679 O   0  0  0  0  0  0
  -23.5411  -32.1401   23.7358 O   0  0  0  0  0  0
  -31.3571  -19.8648   21.1056 C   0  0  0  0  0  0
  -31.6888  -17.4542   21.2988 C   0  0  0  0  0  0
  -29.5387  -18.3365   20.5754 C   0  0  0  0  0  0
  -32.1882  -18.7677   21.4183 C   0  0  0  0  0  0
  -30.0263  -19.6965   20.6678 C   0  0  0  0  0  0
  -30.3717  -17.1843   20.8590 C   0  0  0  0  0  0
  -27.8789  -22.8205   21.2633 C   0  0  0  0  0  0
  -28.5565  -23.8366   20.6679 C   0  0  0  0  0  0
  -29.6452  -23.4076   19.7810 C   0  0  0  0  0  0
  -30.4669  -24.3160   19.2271 C   0  0  0  0  0  0
  -28.1393  -21.2993   21.1540 C   0  0  0  0  0  0
  -29.9048  -21.9123   19.4581 C   0  0  0  0  0  0
  -33.9085  -18.4023   23.2535 C   0  0  0  0  0  0
  -34.6200  -18.4349   20.8170 C   0  0  0  0  0  0
  -28.2008  -25.3259   21.0746 C   0  0  0  0  0  0
  -33.6367  -18.9883   21.8590 C   0  0  0  0  0  0
  -29.2855  -20.8883   20.3323 N   0  0  0  0  0  0
  -29.9231  -15.7830   20.7510 N   0  0  0  0  0  0
  -33.8925  -20.2941   21.9533 F   0  0  0  0  0  0
  -31.4647  -12.4995   19.1517 H   0  0  0  0  0  0
  -30.3384  -11.4148   19.9183 H   0  0  0  0  0  0
  -29.7637  -11.7440   17.4859 H   0  0  0  0  0  0
  -29.6392  -13.4679   17.7334 H   0  0  0  0  0  0
  -27.8669  -11.2895   18.8845 H   0  0  0  0  0  0
  -27.3676  -12.5566   17.7969 H   0  0  0  0  0  0
  -27.6516  -14.2543   19.4952 H   0  0  0  0  0  0
  -28.7082  -12.1216   21.4156 H   0  0  0  0  0  0
  -28.4460  -13.8014   21.8094 H   0  0  0  0  0  0
  -25.2755   -9.5687   22.4776 H   0  0  0  0  0  0
  -23.9998   -7.4639   22.7486 H   0  0  0  0  0  0
  -21.0851   -8.8774   19.8951 H   0  0  0  0  0  0
  -22.3703  -10.9677   19.6174 H   0  0  0  0  0  0
  -21.2005   -7.6154   23.9715 H   0  0  0  0  0  0
  -21.1479   -6.0529   25.9077 H   0  0  0  0  0  0
  -22.0598   -2.7612   23.2853 H   0  0  0  0  0  0
  -22.4083  -11.9850   22.4769 H   0  0  0  0  0  0
  -21.1093  -13.1230   22.2620 H   0  0  0  0  0  0
  -24.6496  -15.8421   20.5174 H   0  0  0  0  0  0
  -26.2618  -15.6324   20.0612 H   0  0  0  0  0  0
  -26.7159  -32.5469   23.1113 H   0  0  0  0  0  0
  -25.0047  -33.9739   25.0420 H   0  0  0  0  0  0
  -22.7120  -31.3010   21.4009 H   0  0  0  0  0  0
  -23.3758  -35.9611   23.3302 H   0  0  0  0  0  0
  -24.3572  -36.8925   22.2057 H   0  0  0  0  0  0
  -23.7221  -37.6483   23.6678 H   0  0  0  0  0  0
  -26.0806  -31.5570   20.5971 H   0  0  0  0  0  0
  -26.8407  -30.8516   21.9941 H   0  0  0  0  0  0
  -28.1210  -28.9989   21.1865 H   0  0  0  0  0  0
  -26.0180  -25.9123   19.0360 H   0  0  0  0  0  0
  -23.9730  -27.2906   19.0277 H   0  0  0  0  0  0
  -23.7480  -30.5875   19.4028 H   0  0  0  0  0  0
  -22.7540  -29.2389   19.8644 H   0  0  0  0  0  0
  -25.1292  -36.1947   25.0826 H   0  0  0  0  0  0
  -20.9978  -28.3277   24.1414 H   0  0  0  0  0  0
  -20.5686  -26.2306   23.3618 H   0  0  0  0  0  0
  -21.6635  -26.7452   22.1209 H   0  0  0  0  0  0
  -19.6907  -25.6310   21.1245 H   0  0  0  0  0  0
  -19.6680  -27.3210   20.6755 H   0  0  0  0  0  0
  -17.4200  -26.6711   21.4025 H   0  0  0  0  0  0
  -18.0299  -26.0069   22.9012 H   0  0  0  0  0  0
  -19.7928  -30.7273   24.2288 H   0  0  0  0  0  0
  -17.5011  -31.6272   24.5175 H   0  0  0  0  0  0
  -15.5351  -30.3005   23.7644 H   0  0  0  0  0  0
  -15.8673  -28.0823   22.7095 H   0  0  0  0  0  0
  -24.5945  -30.7000   25.7752 H   0  0  0  0  0  0
  -24.8887  -32.2822   26.4868 H   0  0  0  0  0  0
  -25.8073  -30.8861   27.0209 H   0  0  0  0  0  0
  -26.2922  -29.6752   24.1204 H   0  0  0  0  0  0
  -27.4126  -29.7293   25.4624 H   0  0  0  0  0  0
  -27.8757  -30.4346   23.9317 H   0  0  0  0  0  0
  -27.2682  -33.3647   26.2029 H   0  0  0  0  0  0
  -28.3882  -32.6838   25.0318 H   0  0  0  0  0  0
  -28.0704  -31.8466   26.5432 H   0  0  0  0  0  0
  -28.2585  -38.0104   24.7531 H   0  0  0  0  0  0
  -28.1082  -36.2633   24.6283 H   0  0  0  0  0  0
  -27.2289  -37.1438   25.8867 H   0  0  0  0  0  0
  -20.9360  -29.8754   21.6880 H   0  0  0  0  0  0
  -26.0175  -38.2854   24.1426 H   0  0  0  0  0  0
  -31.7546  -20.8637   21.2091 H   0  0  0  0  0  0
  -32.3537  -16.6436   21.5554 H   0  0  0  0  0  0
  -28.5227  -18.1766   20.2453 H   0  0  0  0  0  0
  -27.0819  -23.0721   21.9495 H   0  0  0  0  0  0
  -30.3734  -25.3761   19.4065 H   0  0  0  0  0  0
  -31.2712  -24.0058   18.5755 H   0  0  0  0  0  0
  -27.2382  -20.8229   20.7653 H   0  0  0  0  0  0
  -28.2770  -20.9147   22.1666 H   0  0  0  0  0  0
  -30.9818  -21.7633   19.3844 H   0  0  0  0  0  0
  -29.5256  -21.7381   18.4500 H   0  0  0  0  0  0
  -33.7674  -17.3222   23.2780 H   0  0  0  0  0  0
  -33.2452  -18.8411   23.9996 H   0  0  0  0  0  0
  -34.9334  -18.6025   23.5675 H   0  0  0  0  0  0
  -34.5154  -17.3570   20.6951 H   0  0  0  0  0  0
  -35.6521  -18.6344   21.1054 H   0  0  0  0  0  0
  -34.4567  -18.8953   19.8420 H   0  0  0  0  0  0
  -28.8500  -25.5695   21.9160 H   0  0  0  0  0  0
  -27.1966  -25.3165   21.5031 H   0  0  0  0  0  0
  -28.9313  -15.6262   20.8427 H   0  0  0  0  0  0
  1 25  1  0  0  0
  1 30  2  0  0  0
  1 88  1  0  0  0
  2  3  1  0  0  0
  2 25  1  0  0  0
  2 90  1  0  0  0
  2 91  1  0  0  0
  3  4  1  0  0  0
  3 92  1  0  0  0
  3 93  1  0  0  0
  4  5  1  0  0  0
  4 94  1  0  0  0
  4 95  1  0  0  0
  5  6  1  0  0  0
  5 26  1  0  0  0
  5 96  1  0  0  0
  6 25  1  0  0  0
  6 97  1  0  0  0
  6 98  1  0  0  0
  7  8  2  0  0  0
  7 26  1  0  0  0
  7 29  1  0  0  0
  8  9  1  0  0  0
  8 22  1  0  0  0
  9 10  1  0  0  0
  9 27  2  0  0  0
 10 11  2  0  0  0
 10 15  1  0  0  0
 11 12  1  0  0  0
 11 99  1  0  0  0
 12 13  2  0  0  0
 12100  1  0  0  0
 13 14  1  0  0  0
 13 31  1  0  0  0
 14 15  2  0  0  0
 14101  1  0  0  0
 15102  1  0  0  0
 16 17  2  0  0  0
 16 21  1  0  0  0
 16 31  1  0  0  0
 17 18  1  0  0  0
 17103  1  0  0  0
 18 19  2  0  0  0
 18104  1  0  0  0
 19 20  1  0  0  0
 19 24  1  0  0  0
 20 21  2  0  0  0
 20105  1  0  0  0
 21 23  1  0  0  0
 22 28  1  0  0  0
 22 32  2  0  0  0
 26 27  1  0  0  0
 28106  1  0  0  0
 28107  1  0  0  0
 29108  1  0  0  0
 29109  1  0  0  0
 33 34  1  0  0  0
 33 66  1  0  0  0
 33 70  2  0  0  0
 34 36  1  0  0  0
 34 59  1  0  0  0
 34110  1  0  0  0
 35 44  2  0  0  0
 35 45  1  0  0  0
 35 68  1  0  0  0
 36 56  1  0  0  0
 36111  1  0  0  0
 37 39  1  0  0  0
 37 47  1  0  0  0
 37 66  1  0  0  0
 37112  1  0  0  0
 38 43  2  0  0  0
 38 46  1  0  0  0
 38 47  1  0  0  0
 39 64  1  0  0  0
 39 67  2  0  0  0
 40 52  1  0  0  0
 40 53  2  0  0  0
 40 58  1  0  0  0
 41113  1  0  0  0
 41114  1  0  0  0
 41115  1  0  0  0
 41 48  1  0  0  0
 42 43  1  0  0  0
 42 66  1  0  0  0
 42116  1  0  0  0
 42117  1  0  0  0
 43 44  1  0  0  0
 44118  1  0  0  0
 45 46  2  0  0  0
 45119  1  0  0  0
 46120  1  0  0  0
 47121  1  0  0  0
 47122  1  0  0  0
 48 56  1  0  0  0
 48 65  1  0  0  0
 48123  1  0  0  0
 49 50  1  0  0  0
 49 53  1  0  0  0
 49 64  1  0  0  0
 49124  1  0  0  0
 50 51  1  0  0  0
 50125  1  0  0  0
 50126  1  0  0  0
 51 52  1  0  0  0
 51127  1  0  0  0
 51128  1  0  0  0
 52129  1  0  0  0
 52130  1  0  0  0
 53 54  1  0  0  0
 54 55  2  0  0  0
 54131  1  0  0  0
 55 57  1  0  0  0
 55132  1  0  0  0
 56 69  2  0  0  0
 57 58  2  0  0  0
 57133  1  0  0  0
 58134  1  0  0  0
 59 60  1  0  0  0
 59 61  1  0  0  0
 59 62  1  0  0  0
 60135  1  0  0  0
 60136  1  0  0  0
 60137  1  0  0  0
 61138  1  0  0  0
 61139  1  0  0  0
 61140  1  0  0  0
 62141  1  0  0  0
 62142  1  0  0  0
 62143  1  0  0  0
 63 65  1  0  0  0
 63144  1  0  0  0
 63145  1  0  0  0
 63146  1  0  0  0
 64147  1  0  0  0
 65148  1  0  0  0
 68 85  1  0  0  0
 71 74  2  0  0  0
 71 75  1  0  0  0
 71149  1  0  0  0
 72 74  1  0  0  0
 72 76  2  0  0  0
 72150  1  0  0  0
 73 75  2  0  0  0
 73 76  1  0  0  0
 73151  1  0  0  0
 74 86  1  0  0  0
 75 87  1  0  0  0
 76 88  1  0  0  0
 77 78  2  0  0  0
 77 81  1  0  0  0
 77152  1  0  0  0
 78 79  1  0  0  0
 78 85  1  0  0  0
 79 80  2  0  0  0
 79 82  1  0  0  0
 80153  1  0  0  0
 80154  1  0  0  0
 81 87  1  0  0  0
 81155  1  0  0  0
 81156  1  0  0  0
 82 87  1  0  0  0
 82157  1  0  0  0
 82158  1  0  0  0
 83159  1  0  0  0
 83160  1  0  0  0
 83161  1  0  0  0
 83 86  1  0  0  0
 84 86  1  0  0  0
 84162  1  0  0  0
 84163  1  0  0  0
 84164  1  0  0  0
 85165  1  0  0  0
 85166  1  0  0  0
 86 89  1  0  0  0
 88167  1  0  0  0
M  ISO  4   1 100  68 101  85 101  88 100
M  END
> <chiral flag>
0

> <version>
0

> <s_m_source_file>
/data/baiqing/PycharmProjects/Reinvent-master-3.2/result/LINK_invent/BTK/process_docking_weight1_custom_product_contain_oxygen_bond_distance_aromatic_linkinvent_7_9_3/rearranged_h_0074.sdf

> <i_m_source_file_index>
6

> <r_mmod_Potential_Energy-OPLS-2005>
90.1604156494141

> <r_mmod_Stretch_Energy-OPLS-2005>
84.8148193359375

> <r_mmod_Bend_Energy-OPLS-2005>
157.838516235352

> <r_mmod_Torsional_Energy-OPLS-2005>
250.160110473633

> <r_mmod_Improper_Torsional_Energy-OPLS-2005>
6.27260065078735

> <r_mmod_Van_der_Waal_Energy-OPLS-2005>
158.741973876953

> <r_mmod_Electrostatic_Energy-OPLS-2005>
-407.024383544922

> <r_mmod_Solvation_Energy-OPLS-2005>
-210.852676391602

> <b_mmod_Minimization_Converged-OPLS-2005>
0

> <r_mmod_RMS_Derivative-OPLS-2005>
1.19642436504364

$$$$
6
                    3D
 Structure written by MMmdl.
164173  0  0  1  0            999 V2000
  -30.6886  -14.5055   20.4607 C   0  0  0  0  0  0
  -30.4171  -12.2916   19.4518 C   0  0  0  0  0  0
  -29.5021  -12.4653   18.2210 C   0  0  0  0  0  0
  -28.0192  -12.3436   18.6269 C   0  0  0  0  0  0
  -27.6546  -13.2058   19.8657 C   0  0  2  0  0  0
  -28.6989  -13.0495   20.9970 C   0  0  0  0  0  0
  -25.2565  -13.8150   20.5680 C   0  0  0  0  0  0
  -24.1822  -13.0430   20.9190 C   0  0  0  0  0  0
  -24.6379  -11.6900   20.8745 C   0  0  0  0  0  0
  -23.9047  -10.4286   21.0411 C   0  0  0  0  0  0
  -24.3604   -9.4203   21.9187 C   0  0  0  0  0  0
  -23.6282   -8.2239   22.0755 C   0  0  0  0  0  0
  -22.4263   -8.0277   21.3548 C   0  0  0  0  0  0
  -21.9899   -9.0251   20.4651 C   0  0  0  0  0  0
  -22.7224  -10.2130   20.3060 C   0  0  0  0  0  0
  -21.6852   -6.0730   22.5278 C   0  0  0  0  0  0
  -21.4014   -6.5636   23.8212 C   0  0  0  0  0  0
  -21.3657   -5.6790   24.9174 C   0  0  0  0  0  0
  -21.6044   -4.3052   24.7227 C   0  0  0  0  0  0
  -21.8819   -3.8144   23.4346 C   0  0  0  0  0  0
  -21.9193   -4.6960   22.3404 C   0  0  0  0  0  0
  -22.7846  -13.5233   21.1849 C   0  0  0  0  0  0
  -22.1659   -4.2147   21.0979 F   0  0  0  0  0  0
  -21.5629   -3.4537   25.7738 F   0  0  0  0  0  0
  -30.0297  -13.3168   20.4327 N   0  0  0  0  0  0
  -26.2990  -12.9316   20.3335 N   0  0  0  0  0  0
  -25.9304  -11.6481   20.5773 N   0  0  0  0  0  0
  -22.0482  -12.8234   22.0408 N   0  0  0  0  0  0
  -25.4274  -15.1870   20.4075 N   0  0  0  0  0  0
  -31.8752  -14.6159   20.1451 O   0  0  0  0  0  0
  -21.6636   -6.8870   21.4238 O   0  0  0  0  0  0
  -22.3538  -14.5541   20.6694 O   0  0  0  0  0  0
  -24.6143  -31.8684   23.2100 C   0  0  0  0  0  0
  -25.9037  -32.4825   23.8397 C   0  0  1  0  0  0
  -27.2327  -27.4423   20.1015 C   0  0  0  0  0  0
  -25.5891  -33.8622   24.2330 N   0  0  0  0  0  0
  -23.4029  -30.4912   21.5503 C   0  0  2  0  0  0
  -24.8516  -28.9589   20.1126 C   0  0  0  0  0  0
  -22.7411  -29.4659   22.4990 C   0  0  0  0  0  0
  -18.0273  -28.1376   22.8495 C   0  0  0  0  0  0
  -24.1486  -36.7320   23.2641 C   0  0  0  0  0  0
  -25.9306  -30.8370   21.3622 C   0  0  0  0  0  0
  -26.0108  -29.4720   20.7104 C   0  0  0  0  0  0
  -27.2083  -28.7202   20.7033 C   0  0  0  0  0  0
  -26.0638  -26.9429   19.4927 C   0  0  0  0  0  0
  -24.8727  -27.6934   19.4995 C   0  0  0  0  0  0
  -23.6115  -29.8233   20.1645 C   0  0  0  0  0  0
  -25.4105  -36.3114   24.0340 C   0  0  1  0  0  0
  -20.5864  -28.3663   23.1321 C   0  0  2  0  0  0
  -20.6764  -26.9400   22.5420 C   0  0  0  0  0  0
  -19.5742  -26.6387   21.5214 C   0  0  0  0  0  0
  -18.1920  -26.7924   22.1625 C   0  0  0  0  0  0
  -19.1522  -28.8835   23.2907 C   0  0  0  0  0  0
  -18.9450  -30.1442   23.8917 C   0  0  0  0  0  0
  -17.6453  -30.6583   24.0566 C   0  0  0  0  0  0
  -25.9029  -34.9477   23.5132 C   0  0  0  0  0  0
  -16.5344  -29.9087   23.6323 C   0  0  0  0  0  0
  -16.7264  -28.6502   23.0348 C   0  0  0  0  0  0
  -26.4467  -31.6599   25.0720 C   0  0  0  0  0  0
  -25.3736  -31.3702   26.1472 C   0  0  0  0  0  0
  -27.0297  -30.3044   24.6084 C   0  0  0  0  0  0
  -27.6049  -32.4315   25.7478 C   0  0  0  0  0  0
  -27.5578  -37.1815   24.8467 C   0  0  0  0  0  0
  -21.4138  -29.3033   22.3728 N   0  0  0  0  0  0
  -26.4295  -37.3793   23.9404 N   0  0  0  0  0  0
  -24.6675  -31.0791   22.0997 N   0  0  0  0  0  0
  -23.4184  -28.8207   23.3034 O   0  0  0  0  0  0
  -28.3632  -26.6602   20.1198 O   0  0  0  0  0  0
  -26.5593  -34.8928   22.4695 O   0  0  0  0  0  0
  -23.5335  -32.1433   23.7497 O   0  0  0  0  0  0
  -29.1462  -18.7043   20.7997 C   0  0  0  0  0  0
  -29.1424  -20.0973   21.0620 C   0  0  0  0  0  0
  -31.1682  -20.3463   19.7551 C   0  0  0  0  0  0
  -30.1436  -18.1258   19.9811 C   0  0  0  0  0  0
  -30.1493  -20.9462   20.5349 C   0  0  0  0  0  0
  -31.1645  -18.9662   19.4765 C   0  0  0  0  0  0
  -30.6711  -24.5839   20.9622 C   0  0  0  0  0  0
  -29.3294  -24.5364   20.9770 C   0  0  0  0  0  0
  -31.1699  -23.2195   20.8176 C   0  0  0  0  0  0
  -31.4662  -25.8351   21.0892 C   0  0  0  0  0  0
  -28.8486  -23.1115   20.8793 C   0  0  0  0  0  0
  -32.9713  -25.7982   20.8415 C   0  0  0  0  0  0
  -28.8922  -16.5826   18.4538 C   0  0  0  0  0  0
  -28.3197  -25.6709   21.1590 C   0  0  0  0  0  0
  -30.0399  -16.6775   19.4738 C   0  0  2  0  0  0
  -30.1059  -22.3754   20.7381 N   0  0  0  0  0  0
  -29.8869  -15.5922   20.4704 N   0  0  0  0  0  0
  -32.3544  -22.8650   20.8039 O   0  0  0  0  0  0
  -30.9785  -26.9300   21.3852 O   0  0  0  0  0  0
  -32.1312  -18.4675   18.6685 F   0  0  0  0  0  0
  -31.4660  -12.3661   19.1581 H   0  0  0  0  0  0
  -30.2981  -11.2968   19.8833 H   0  0  0  0  0  0
  -29.7427  -11.7141   17.4676 H   0  0  0  0  0  0
  -29.6864  -13.4317   17.7519 H   0  0  0  0  0  0
  -27.8252  -11.2920   18.8406 H   0  0  0  0  0  0
  -27.3759  -12.6034   17.7857 H   0  0  0  0  0  0
  -27.6732  -14.2405   19.5321 H   0  0  0  0  0  0
  -28.6700  -12.0409   21.4111 H   0  0  0  0  0  0
  -28.4771  -13.7238   21.8258 H   0  0  0  0  0  0
  -25.2751   -9.5681   22.4759 H   0  0  0  0  0  0
  -23.9997   -7.4627   22.7469 H   0  0  0  0  0  0
  -21.0835   -8.8768   19.8953 H   0  0  0  0  0  0
  -22.3685  -10.9668   19.6166 H   0  0  0  0  0  0
  -21.2007   -7.6144   23.9713 H   0  0  0  0  0  0
  -21.1478   -6.0520   25.9075 H   0  0  0  0  0  0
  -22.0600   -2.7607   23.2851 H   0  0  0  0  0  0
  -22.4088  -11.9896   22.4806 H   0  0  0  0  0  0
  -21.1099  -13.1268   22.2604 H   0  0  0  0  0  0
  -24.6569  -15.8381   20.5123 H   0  0  0  0  0  0
  -26.2707  -15.6265   20.0645 H   0  0  0  0  0  0
  -26.7114  -32.5547   23.1170 H   0  0  0  0  0  0
  -25.0038  -33.9783   25.0472 H   0  0  0  0  0  0
  -22.6913  -31.3078   21.4113 H   0  0  0  0  0  0
  -23.3735  -35.9667   23.3329 H   0  0  0  0  0  0
  -24.3579  -36.8906   22.2049 H   0  0  0  0  0  0
  -23.7255  -37.6542   23.6635 H   0  0  0  0  0  0
  -26.0397  -31.6023   20.5924 H   0  0  0  0  0  0
  -26.8194  -30.8927   21.9791 H   0  0  0  0  0  0
  -28.1032  -29.1059   21.1718 H   0  0  0  0  0  0
  -26.0735  -25.9674   19.0264 H   0  0  0  0  0  0
  -23.9820  -27.2924   19.0357 H   0  0  0  0  0  0
  -23.7165  -30.5981   19.4042 H   0  0  0  0  0  0
  -22.7362  -29.2411   19.8708 H   0  0  0  0  0  0
  -25.1282  -36.1984   25.0834 H   0  0  0  0  0  0
  -20.9958  -28.3229   24.1439 H   0  0  0  0  0  0
  -20.5670  -26.2268   23.3606 H   0  0  0  0  0  0
  -21.6635  -26.7448   22.1209 H   0  0  0  0  0  0
  -19.6903  -25.6302   21.1235 H   0  0  0  0  0  0
  -19.6680  -27.3209   20.6752 H   0  0  0  0  0  0
  -17.4191  -26.6678   21.4026 H   0  0  0  0  0  0
  -18.0320  -26.0060   22.9017 H   0  0  0  0  0  0
  -19.7926  -30.7253   24.2298 H   0  0  0  0  0  0
  -17.5008  -31.6265   24.5163 H   0  0  0  0  0  0
  -15.5345  -30.2994   23.7634 H   0  0  0  0  0  0
  -15.8664  -28.0827   22.7052 H   0  0  0  0  0  0
  -24.5895  -30.7067   25.7806 H   0  0  0  0  0  0
  -24.8942  -32.2857   26.4947 H   0  0  0  0  0  0
  -25.8087  -30.8846   27.0215 H   0  0  0  0  0  0
  -26.2836  -29.6810   24.1142 H   0  0  0  0  0  0
  -27.4080  -29.7274   25.4533 H   0  0  0  0  0  0
  -27.8666  -30.4370   23.9223 H   0  0  0  0  0  0
  -27.2672  -33.3602   26.2092 H   0  0  0  0  0  0
  -28.3833  -32.6899   25.0285 H   0  0  0  0  0  0
  -28.0747  -31.8419   26.5359 H   0  0  0  0  0  0
  -28.2615  -38.0093   24.7489 H   0  0  0  0  0  0
  -28.1052  -36.2624   24.6318 H   0  0  0  0  0  0
  -27.2296  -37.1504   25.8872 H   0  0  0  0  0  0
  -20.9297  -29.8750   21.6946 H   0  0  0  0  0  0
  -26.0189  -38.2879   24.1381 H   0  0  0  0  0  0
  -28.3418  -18.0899   21.1790 H   0  0  0  0  0  0
  -28.3409  -20.5067   21.6611 H   0  0  0  0  0  0
  -31.9494  -20.9410   19.3062 H   0  0  0  0  0  0
  -28.2020  -22.9702   20.0124 H   0  0  0  0  0  0
  -28.3140  -22.8276   21.7865 H   0  0  0  0  0  0
  -33.4706  -25.2225   21.6203 H   0  0  0  0  0  0
  -33.3865  -26.8058   20.8406 H   0  0  0  0  0  0
  -33.1861  -25.3404   19.8760 H   0  0  0  0  0  0
  -29.0267  -17.3102   17.6525 H   0  0  0  0  0  0
  -27.9233  -16.7782   18.9131 H   0  0  0  0  0  0
  -28.8501  -15.6011   17.9841 H   0  0  0  0  0  0
  -28.4953  -26.1504   22.1231 H   0  0  0  0  0  0
  -27.3270  -25.2213   21.2238 H   0  0  0  0  0  0
  -30.9442  -16.4878   18.8940 H   0  0  0  0  0  0
  -28.9509  -15.4325   20.8069 H   0  0  0  0  0  0
  1 25  1  0  0  0
  1 30  2  0  0  0
  1 87  1  0  0  0
  2  3  1  0  0  0
  2 25  1  0  0  0
  2 91  1  0  0  0
  2 92  1  0  0  0
  3  4  1  0  0  0
  3 93  1  0  0  0
  3 94  1  0  0  0
  4  5  1  0  0  0
  4 95  1  0  0  0
  4 96  1  0  0  0
  5  6  1  0  0  0
  5 26  1  0  0  0
  5 97  1  0  0  0
  6 25  1  0  0  0
  6 98  1  0  0  0
  6 99  1  0  0  0
  7  8  2  0  0  0
  7 26  1  0  0  0
  7 29  1  0  0  0
  8  9  1  0  0  0
  8 22  1  0  0  0
  9 10  1  0  0  0
  9 27  2  0  0  0
 10 11  2  0  0  0
 10 15  1  0  0  0
 11 12  1  0  0  0
 11100  1  0  0  0
 12 13  2  0  0  0
 12101  1  0  0  0
 13 14  1  0  0  0
 13 31  1  0  0  0
 14 15  2  0  0  0
 14102  1  0  0  0
 15103  1  0  0  0
 16 17  2  0  0  0
 16 21  1  0  0  0
 16 31  1  0  0  0
 17 18  1  0  0  0
 17104  1  0  0  0
 18 19  2  0  0  0
 18105  1  0  0  0
 19 20  1  0  0  0
 19 24  1  0  0  0
 20 21  2  0  0  0
 20106  1  0  0  0
 21 23  1  0  0  0
 22 28  1  0  0  0
 22 32  2  0  0  0
 26 27  1  0  0  0
 28107  1  0  0  0
 28108  1  0  0  0
 29109  1  0  0  0
 29110  1  0  0  0
 33 34  1  0  0  0
 33 66  1  0  0  0
 33 70  2  0  0  0
 34 36  1  0  0  0
 34 59  1  0  0  0
 34111  1  0  0  0
 35 44  2  0  0  0
 35 45  1  0  0  0
 35 68  1  0  0  0
 36 56  1  0  0  0
 36112  1  0  0  0
 37 39  1  0  0  0
 37 47  1  0  0  0
 37 66  1  0  0  0
 37113  1  0  0  0
 38 43  2  0  0  0
 38 46  1  0  0  0
 38 47  1  0  0  0
 39 64  1  0  0  0
 39 67  2  0  0  0
 40 52  1  0  0  0
 40 53  2  0  0  0
 40 58  1  0  0  0
 41114  1  0  0  0
 41115  1  0  0  0
 41116  1  0  0  0
 41 48  1  0  0  0
 42 43  1  0  0  0
 42 66  1  0  0  0
 42117  1  0  0  0
 42118  1  0  0  0
 43 44  1  0  0  0
 44119  1  0  0  0
 45 46  2  0  0  0
 45120  1  0  0  0
 46121  1  0  0  0
 47122  1  0  0  0
 47123  1  0  0  0
 48 56  1  0  0  0
 48 65  1  0  0  0
 48124  1  0  0  0
 49 50  1  0  0  0
 49 53  1  0  0  0
 49 64  1  0  0  0
 49125  1  0  0  0
 50 51  1  0  0  0
 50126  1  0  0  0
 50127  1  0  0  0
 51 52  1  0  0  0
 51128  1  0  0  0
 51129  1  0  0  0
 52130  1  0  0  0
 52131  1  0  0  0
 53 54  1  0  0  0
 54 55  2  0  0  0
 54132  1  0  0  0
 55 57  1  0  0  0
 55133  1  0  0  0
 56 69  2  0  0  0
 57 58  2  0  0  0
 57134  1  0  0  0
 58135  1  0  0  0
 59 60  1  0  0  0
 59 61  1  0  0  0
 59 62  1  0  0  0
 60136  1  0  0  0
 60137  1  0  0  0
 60138  1  0  0  0
 61139  1  0  0  0
 61140  1  0  0  0
 61141  1  0  0  0
 62142  1  0  0  0
 62143  1  0  0  0
 62144  1  0  0  0
 63 65  1  0  0  0
 63145  1  0  0  0
 63146  1  0  0  0
 63147  1  0  0  0
 64148  1  0  0  0
 65149  1  0  0  0
 68 84  1  0  0  0
 71 72  2  0  0  0
 71 74  1  0  0  0
 71150  1  0  0  0
 72 75  1  0  0  0
 72151  1  0  0  0
 73 75  2  0  0  0
 73 76  1  0  0  0
 73152  1  0  0  0
 74 76  2  0  0  0
 74 85  1  0  0  0
 75 86  1  0  0  0
 76 90  1  0  0  0
 77 78  2  0  0  0
 77 79  1  0  0  0
 77 80  1  0  0  0
 78 81  1  0  0  0
 78 84  1  0  0  0
 79 86  1  0  0  0
 79 88  2  0  0  0
 80 82  1  0  0  0
 80 89  2  0  0  0
 81 86  1  0  0  0
 81153  1  0  0  0
 81154  1  0  0  0
 82155  1  0  0  0
 82156  1  0  0  0
 82157  1  0  0  0
 83158  1  0  0  0
 83159  1  0  0  0
 83160  1  0  0  0
 83 85  1  0  0  0
 84161  1  0  0  0
 84162  1  0  0  0
 85 87  1  0  0  0
 85163  1  0  0  0
 87164  1  0  0  0
M  ISO  4   1 100  68 101  84 101  87 100
M  END
> <chiral flag>
0

> <version>
0

> <s_m_source_file>
/data/baiqing/PycharmProjects/Reinvent-master-3.2/result/LINK_invent/BTK/process_docking_weight1_custom_product_contain_oxygen_bond_distance_aromatic_linkinvent_7_9_3/rearranged_h_0074.sdf

> <i_m_source_file_index>
7

> <r_mmod_Potential_Energy-OPLS-2005>
53.213981628418

> <r_mmod_Stretch_Energy-OPLS-2005>
41.7268981933594

> <r_mmod_Bend_Energy-OPLS-2005>
142.980087280273

> <r_mmod_Torsional_Energy-OPLS-2005>
301.099212646484

> <r_mmod_Improper_Torsional_Energy-OPLS-2005>
14.0657548904419

> <r_mmod_Van_der_Waal_Energy-OPLS-2005>
151.434387207031

> <r_mmod_Electrostatic_Energy-OPLS-2005>
-386.917541503906

> <r_mmod_Solvation_Energy-OPLS-2005>
-232.203063964844

> <b_mmod_Minimization_Converged-OPLS-2005>
0

> <r_mmod_RMS_Derivative-OPLS-2005>
0.555259048938751

$$$$
7
                    3D
 Structure written by MMmdl.
159168  0  0  1  0            999 V2000
  -30.5921  -14.7005   20.5752 C   0  0  0  0  0  0
  -30.4410  -12.4509   19.4740 C   0  0  0  0  0  0
  -29.5176  -12.5425   18.2366 C   0  0  0  0  0  0
  -28.0400  -12.3500   18.6333 C   0  0  0  0  0  0
  -27.6503  -13.2109   19.8613 C   0  0  2  0  0  0
  -28.6780  -13.0461   20.9966 C   0  0  0  0  0  0
  -25.2559  -13.8141   20.5511 C   0  0  0  0  0  0
  -24.1852  -13.0454   20.9224 C   0  0  0  0  0  0
  -24.6391  -11.6914   20.8773 C   0  0  0  0  0  0
  -23.9053  -10.4300   21.0439 C   0  0  0  0  0  0
  -24.3607   -9.4211   21.9201 C   0  0  0  0  0  0
  -23.6283   -8.2244   22.0761 C   0  0  0  0  0  0
  -22.4267   -8.0287   21.3553 C   0  0  0  0  0  0
  -21.9904   -9.0263   20.4657 C   0  0  0  0  0  0
  -22.7232  -10.2143   20.3077 C   0  0  0  0  0  0
  -21.6851   -6.0733   22.5275 C   0  0  0  0  0  0
  -21.4010   -6.5639   23.8214 C   0  0  0  0  0  0
  -21.3658   -5.6795   24.9174 C   0  0  0  0  0  0
  -21.6048   -4.3054   24.7228 C   0  0  0  0  0  0
  -21.8820   -3.8146   23.4348 C   0  0  0  0  0  0
  -21.9189   -4.6959   22.3401 C   0  0  0  0  0  0
  -22.7894  -13.5274   21.1887 C   0  0  0  0  0  0
  -22.1662   -4.2146   21.0978 F   0  0  0  0  0  0
  -21.5634   -3.4539   25.7743 F   0  0  0  0  0  0
  -29.9930  -13.4570   20.4695 N   0  0  0  0  0  0
  -26.2950  -12.9290   20.3198 N   0  0  0  0  0  0
  -25.9301  -11.6469   20.5723 N   0  0  0  0  0  0
  -22.0504  -12.8263   22.0415 N   0  0  0  0  0  0
  -25.4326  -15.1809   20.3555 N   0  0  0  0  0  0
  -31.6830  -14.9105   20.0291 O   0  0  0  0  0  0
  -21.6644   -6.8873   21.4236 O   0  0  0  0  0  0
  -22.3623  -14.5588   20.6727 O   0  0  0  0  0  0
  -24.6322  -31.8552   23.2008 C   0  0  0  0  0  0
  -25.9152  -32.4752   23.8353 C   0  0  1  0  0  0
  -27.2107  -27.2699   20.1302 C   0  0  0  0  0  0
  -25.5943  -33.8550   24.2277 N   0  0  0  0  0  0
  -23.4288  -30.4795   21.5431 C   0  0  2  0  0  0
  -24.8791  -28.9334   20.1069 C   0  0  0  0  0  0
  -22.7515  -29.4616   22.4923 C   0  0  0  0  0  0
  -18.0301  -28.1384   22.8504 C   0  0  0  0  0  0
  -24.1484  -36.7275   23.2635 C   0  0  0  0  0  0
  -25.9752  -30.7705   21.3833 C   0  0  0  0  0  0
  -26.0504  -29.3959   20.7228 C   0  0  0  0  0  0
  -27.2242  -28.5734   20.7299 C   0  0  0  0  0  0
  -26.0264  -26.8856   19.4667 C   0  0  0  0  0  0
  -24.8714  -27.6866   19.4653 C   0  0  0  0  0  0
  -23.6466  -29.8137   20.1604 C   0  0  0  0  0  0
  -25.4111  -36.3069   24.0325 C   0  0  1  0  0  0
  -20.5913  -28.3706   23.1277 C   0  0  2  0  0  0
  -20.6807  -26.9429   22.5412 C   0  0  0  0  0  0
  -19.5771  -26.6394   21.5228 C   0  0  0  0  0  0
  -18.1946  -26.7933   22.1637 C   0  0  0  0  0  0
  -19.1555  -28.8863   23.2880 C   0  0  0  0  0  0
  -18.9472  -30.1468   23.8886 C   0  0  0  0  0  0
  -17.6468  -30.6580   24.0571 C   0  0  0  0  0  0
  -25.9050  -34.9437   23.5103 C   0  0  0  0  0  0
  -16.5359  -29.9076   23.6341 C   0  0  0  0  0  0
  -16.7288  -28.6495   23.0363 C   0  0  0  0  0  0
  -26.4526  -31.6567   25.0733 C   0  0  0  0  0  0
  -25.3748  -31.3685   26.1449 C   0  0  0  0  0  0
  -27.0390  -30.2979   24.6228 C   0  0  0  0  0  0
  -27.6076  -32.4313   25.7500 C   0  0  0  0  0  0
  -27.5579  -37.1789   24.8462 C   0  0  0  0  0  0
  -21.4223  -29.3041   22.3650 N   0  0  0  0  0  0
  -26.4291  -37.3767   23.9407 N   0  0  0  0  0  0
  -24.6977  -31.0520   22.0984 N   0  0  0  0  0  0
  -23.4220  -28.8178   23.3032 O   0  0  0  0  0  0
  -28.2356  -26.3008   20.2078 O   0  0  0  0  0  0
  -26.5618  -34.8917   22.4671 O   0  0  0  0  0  0
  -23.5466  -32.1367   23.7297 O   0  0  0  0  0  0
  -30.5142  -18.1920   20.4325 C   0  0  0  0  0  0
  -28.1509  -19.3641   21.2351 C   0  0  0  0  0  0
  -29.5772  -17.2945   21.0232 C   0  0  0  0  0  0
  -29.1177  -20.2940   20.7495 C   0  0  0  0  0  0
  -28.3447  -17.9453   21.3826 C   0  0  0  0  0  0
  -30.2957  -19.6104   20.3021 C   0  0  0  0  0  0
  -28.2518  -23.7188   20.5903 C   0  0  0  0  0  0
  -27.8315  -25.0381   20.7328 C   0  0  0  0  0  0
  -29.9141  -15.8274   21.4771 C   0  0  0  0  0  0
  -26.5897  -17.3921   23.0474 C   0  0  0  0  0  0
  -29.3222  -22.8442   19.8805 C   0  0  0  0  0  0
  -27.6524  -22.4272   21.1855 C   0  0  0  0  0  0
  -25.5068  -16.3823   23.4083 C   0  0  0  0  0  0
  -29.6681  -15.5378   22.6893 N   0  0  0  0  0  0
  -28.9246  -21.7725   20.8364 N   0  0  0  0  0  0
  -27.2545  -17.1774   21.8997 N   0  0  0  0  0  0
  -26.8221  -18.3342   23.8080 O   0  0  0  0  0  0
  -31.3015  -20.3545   19.7814 F   0  0  0  0  0  0
  -31.4815  -12.5973   19.1797 H   0  0  0  0  0  0
  -30.4001  -11.4502   19.9086 H   0  0  0  0  0  0
  -29.8094  -11.8022   17.4907 H   0  0  0  0  0  0
  -29.6418  -13.5174   17.7617 H   0  0  0  0  0  0
  -27.8899  -11.2935   18.8607 H   0  0  0  0  0  0
  -27.3883  -12.5733   17.7875 H   0  0  0  0  0  0
  -27.6796  -14.2512   19.5382 H   0  0  0  0  0  0
  -28.7146  -12.0069   21.3272 H   0  0  0  0  0  0
  -28.3511  -13.6012   21.8718 H   0  0  0  0  0  0
  -25.2747   -9.5689   22.4780 H   0  0  0  0  0  0
  -24.0000   -7.4632   22.7473 H   0  0  0  0  0  0
  -21.0843   -8.8781   19.8956 H   0  0  0  0  0  0
  -22.3691  -10.9686   19.6194 H   0  0  0  0  0  0
  -21.1999   -7.6149   23.9714 H   0  0  0  0  0  0
  -21.1482   -6.0524   25.9079 H   0  0  0  0  0  0
  -22.0596   -2.7608   23.2852 H   0  0  0  0  0  0
  -22.4088  -11.9907   22.4785 H   0  0  0  0  0  0
  -21.1133  -13.1314   22.2635 H   0  0  0  0  0  0
  -24.5693  -15.7121   20.3112 H   0  0  0  0  0  0
  -26.0511  -15.4353   19.5950 H   0  0  0  0  0  0
  -26.7212  -32.5430   23.1096 H   0  0  0  0  0  0
  -25.0115  -33.9668   25.0447 H   0  0  0  0  0  0
  -22.7244  -31.3012   21.3965 H   0  0  0  0  0  0
  -23.3749  -35.9602   23.3295 H   0  0  0  0  0  0
  -24.3558  -36.8906   22.2051 H   0  0  0  0  0  0
  -23.7261  -37.6483   23.6655 H   0  0  0  0  0  0
  -26.1160  -31.5361   20.6191 H   0  0  0  0  0  0
  -26.8512  -30.8173   22.0182 H   0  0  0  0  0  0
  -28.1158  -28.9078   21.2411 H   0  0  0  0  0  0
  -25.9782  -25.9217   18.9804 H   0  0  0  0  0  0
  -23.9761  -27.3291   18.9758 H   0  0  0  0  0  0
  -23.7599  -30.5870   19.4001 H   0  0  0  0  0  0
  -22.7688  -29.2370   19.8636 H   0  0  0  0  0  0
  -25.1312  -36.1906   25.0818 H   0  0  0  0  0  0
  -21.0015  -28.3302   24.1395 H   0  0  0  0  0  0
  -20.5756  -26.2308   23.3612 H   0  0  0  0  0  0
  -21.6663  -26.7483   22.1164 H   0  0  0  0  0  0
  -19.6935  -25.6306   21.1251 H   0  0  0  0  0  0
  -19.6702  -27.3210   20.6766 H   0  0  0  0  0  0
  -17.4232  -26.6707   21.4017 H   0  0  0  0  0  0
  -18.0306  -26.0044   22.9006 H   0  0  0  0  0  0
  -19.7938  -30.7308   24.2225 H   0  0  0  0  0  0
  -17.5009  -31.6259   24.5193 H   0  0  0  0  0  0
  -15.5356  -30.2983   23.7655 H   0  0  0  0  0  0
  -15.8687  -28.0816   22.7083 H   0  0  0  0  0  0
  -24.5971  -30.6973   25.7787 H   0  0  0  0  0  0
  -24.8870  -32.2818   26.4845 H   0  0  0  0  0  0
  -25.8078  -30.8913   27.0252 H   0  0  0  0  0  0
  -26.2984  -29.6682   24.1273 H   0  0  0  0  0  0
  -27.4106  -29.7281   25.4760 H   0  0  0  0  0  0
  -27.8848  -30.4250   23.9465 H   0  0  0  0  0  0
  -27.2704  -33.3649   26.2014 H   0  0  0  0  0  0
  -28.3913  -32.6812   25.0335 H   0  0  0  0  0  0
  -28.0704  -31.8476   26.5471 H   0  0  0  0  0  0
  -28.2599  -38.0089   24.7539 H   0  0  0  0  0  0
  -28.1091  -36.2627   24.6275 H   0  0  0  0  0  0
  -27.2279  -37.1436   25.8860 H   0  0  0  0  0  0
  -20.9406  -29.8691   21.6791 H   0  0  0  0  0  0
  -26.0168  -38.2836   24.1408 H   0  0  0  0  0  0
  -31.4764  -17.8050   20.1351 H   0  0  0  0  0  0
  -27.2060  -19.7691   21.5667 H   0  0  0  0  0  0
  -26.9760  -25.1888   21.3805 H   0  0  0  0  0  0
  -30.3694  -23.1261   19.9921 H   0  0  0  0  0  0
  -29.1132  -22.5424   18.8532 H   0  0  0  0  0  0
  -26.8121  -21.9878   20.6427 H   0  0  0  0  0  0
  -27.4554  -22.4087   22.2593 H   0  0  0  0  0  0
  -25.9117  -15.3695   23.4100 H   0  0  0  0  0  0
  -24.6878  -16.4217   22.6901 H   0  0  0  0  0  0
  -25.0944  -16.5851   24.3968 H   0  0  0  0  0  0
  -29.2580  -16.3249   23.1771 H   0  0  0  0  0  0
  -26.9818  -16.3401   21.3952 H   0  0  0  0  0  0
  1 25  1  0  0  0
  1 30  2  0  0  0
  1 79  1  0  0  0
  2  3  1  0  0  0
  2 25  1  0  0  0
  2 89  1  0  0  0
  2 90  1  0  0  0
  3  4  1  0  0  0
  3 91  1  0  0  0
  3 92  1  0  0  0
  4  5  1  0  0  0
  4 93  1  0  0  0
  4 94  1  0  0  0
  5  6  1  0  0  0
  5 26  1  0  0  0
  5 95  1  0  0  0
  6 25  1  0  0  0
  6 96  1  0  0  0
  6 97  1  0  0  0
  7  8  2  0  0  0
  7 26  1  0  0  0
  7 29  1  0  0  0
  8  9  1  0  0  0
  8 22  1  0  0  0
  9 10  1  0  0  0
  9 27  2  0  0  0
 10 11  2  0  0  0
 10 15  1  0  0  0
 11 12  1  0  0  0
 11 98  1  0  0  0
 12 13  2  0  0  0
 12 99  1  0  0  0
 13 14  1  0  0  0
 13 31  1  0  0  0
 14 15  2  0  0  0
 14100  1  0  0  0
 15101  1  0  0  0
 16 17  2  0  0  0
 16 21  1  0  0  0
 16 31  1  0  0  0
 17 18  1  0  0  0
 17102  1  0  0  0
 18 19  2  0  0  0
 18103  1  0  0  0
 19 20  1  0  0  0
 19 24  1  0  0  0
 20 21  2  0  0  0
 20104  1  0  0  0
 21 23  1  0  0  0
 22 28  1  0  0  0
 22 32  2  0  0  0
 26 27  1  0  0  0
 28105  1  0  0  0
 28106  1  0  0  0
 29107  1  0  0  0
 29108  1  0  0  0
 33 34  1  0  0  0
 33 66  1  0  0  0
 33 70  2  0  0  0
 34 36  1  0  0  0
 34 59  1  0  0  0
 34109  1  0  0  0
 35 44  2  0  0  0
 35 45  1  0  0  0
 35 68  1  0  0  0
 36 56  1  0  0  0
 36110  1  0  0  0
 37 39  1  0  0  0
 37 47  1  0  0  0
 37 66  1  0  0  0
 37111  1  0  0  0
 38 43  2  0  0  0
 38 46  1  0  0  0
 38 47  1  0  0  0
 39 64  1  0  0  0
 39 67  2  0  0  0
 40 52  1  0  0  0
 40 53  2  0  0  0
 40 58  1  0  0  0
 41112  1  0  0  0
 41113  1  0  0  0
 41114  1  0  0  0
 41 48  1  0  0  0
 42 43  1  0  0  0
 42 66  1  0  0  0
 42115  1  0  0  0
 42116  1  0  0  0
 43 44  1  0  0  0
 44117  1  0  0  0
 45 46  2  0  0  0
 45118  1  0  0  0
 46119  1  0  0  0
 47120  1  0  0  0
 47121  1  0  0  0
 48 56  1  0  0  0
 48 65  1  0  0  0
 48122  1  0  0  0
 49 50  1  0  0  0
 49 53  1  0  0  0
 49 64  1  0  0  0
 49123  1  0  0  0
 50 51  1  0  0  0
 50124  1  0  0  0
 50125  1  0  0  0
 51 52  1  0  0  0
 51126  1  0  0  0
 51127  1  0  0  0
 52128  1  0  0  0
 52129  1  0  0  0
 53 54  1  0  0  0
 54 55  2  0  0  0
 54130  1  0  0  0
 55 57  1  0  0  0
 55131  1  0  0  0
 56 69  2  0  0  0
 57 58  2  0  0  0
 57132  1  0  0  0
 58133  1  0  0  0
 59 60  1  0  0  0
 59 61  1  0  0  0
 59 62  1  0  0  0
 60134  1  0  0  0
 60135  1  0  0  0
 60136  1  0  0  0
 61137  1  0  0  0
 61138  1  0  0  0
 61139  1  0  0  0
 62140  1  0  0  0
 62141  1  0  0  0
 62142  1  0  0  0
 63 65  1  0  0  0
 63143  1  0  0  0
 63144  1  0  0  0
 63145  1  0  0  0
 64146  1  0  0  0
 65147  1  0  0  0
 68 78  1  0  0  0
 71 73  2  0  0  0
 71 76  1  0  0  0
 71148  1  0  0  0
 72 74  1  0  0  0
 72 75  2  0  0  0
 72149  1  0  0  0
 73 75  1  0  0  0
 73 79  1  0  0  0
 74 76  2  0  0  0
 74 85  1  0  0  0
 75 86  1  0  0  0
 76 88  1  0  0  0
 77 78  2  0  0  0
 77 81  1  0  0  0
 77 82  1  0  0  0
 78150  1  0  0  0
 79 84  2  0  0  0
 80 83  1  0  0  0
 80 86  1  0  0  0
 80 87  2  0  0  0
 81 85  1  0  0  0
 81151  1  0  0  0
 81152  1  0  0  0
 82 85  1  0  0  0
 82153  1  0  0  0
 82154  1  0  0  0
 83155  1  0  0  0
 83156  1  0  0  0
 83157  1  0  0  0
 84158  1  0  0  0
 86159  1  0  0  0
M  ISO  4   1 100  68 101  78 101  79 100
M  END
> <chiral flag>
0

> <version>
0

> <s_m_source_file>
/data/baiqing/PycharmProjects/Reinvent-master-3.2/result/LINK_invent/BTK/process_docking_weight1_custom_product_contain_oxygen_bond_distance_aromatic_linkinvent_7_9_3/rearranged_h_0074.sdf

> <i_m_source_file_index>
8

> <r_mmod_Potential_Energy-OPLS-2005>
390.607971191406

> <r_mmod_Stretch_Energy-OPLS-2005>
119.107139587402

> <r_mmod_Bend_Energy-OPLS-2005>
255.378204345703

> <r_mmod_Torsional_Energy-OPLS-2005>
279.716033935547

> <r_mmod_Improper_Torsional_Energy-OPLS-2005>
14.2132778167725

> <r_mmod_Van_der_Waal_Energy-OPLS-2005>
141.741775512695

> <r_mmod_Electrostatic_Energy-OPLS-2005>
-268.764343261719

> <r_mmod_Solvation_Energy-OPLS-2005>
-233.119979858398

> <b_mmod_Minimization_Converged-OPLS-2005>
0

> <r_mmod_RMS_Derivative-OPLS-2005>
2.16706395149231

$$$$
8
                    3D
 Structure written by MMmdl.
165174  0  0  1  0            999 V2000
  -30.6304  -14.7273   20.5529 C   0  0  0  0  0  0
  -30.4323  -12.4660   19.4739 C   0  0  0  0  0  0
  -29.5115  -12.5310   18.2355 C   0  0  0  0  0  0
  -28.0378  -12.3414   18.6402 C   0  0  0  0  0  0
  -27.6424  -13.2269   19.8493 C   0  0  2  0  0  0
  -28.6761  -13.1285   20.9864 C   0  0  0  0  0  0
  -25.2515  -13.8180   20.5671 C   0  0  0  0  0  0
  -24.1800  -13.0430   20.9179 C   0  0  0  0  0  0
  -24.6388  -11.6909   20.8714 C   0  0  0  0  0  0
  -23.9066  -10.4291   21.0393 C   0  0  0  0  0  0
  -24.3619   -9.4210   21.9174 C   0  0  0  0  0  0
  -23.6292   -8.2247   22.0750 C   0  0  0  0  0  0
  -22.4275   -8.0281   21.3545 C   0  0  0  0  0  0
  -21.9907   -9.0252   20.4648 C   0  0  0  0  0  0
  -22.7235  -10.2130   20.3050 C   0  0  0  0  0  0
  -21.6856   -6.0734   22.5279 C   0  0  0  0  0  0
  -21.4016   -6.5639   23.8210 C   0  0  0  0  0  0
  -21.3660   -5.6792   24.9173 C   0  0  0  0  0  0
  -21.6046   -4.3052   24.7223 C   0  0  0  0  0  0
  -21.8821   -3.8144   23.4344 C   0  0  0  0  0  0
  -21.9194   -4.6961   22.3401 C   0  0  0  0  0  0
  -22.7831  -13.5223   21.1859 C   0  0  0  0  0  0
  -22.1662   -4.2149   21.0976 F   0  0  0  0  0  0
  -21.5628   -3.4534   25.7733 F   0  0  0  0  0  0
  -29.9902  -13.5055   20.4375 N   0  0  0  0  0  0
  -26.2925  -12.9376   20.3226 N   0  0  0  0  0  0
  -25.9309  -11.6523   20.5691 N   0  0  0  0  0  0
  -22.0487  -12.8211   22.0424 N   0  0  0  0  0  0
  -25.4222  -15.1905   20.4134 N   0  0  0  0  0  0
  -31.7476  -14.8757   20.0461 O   0  0  0  0  0  0
  -21.6644   -6.8876   21.4240 O   0  0  0  0  0  0
  -22.3510  -14.5531   20.6716 O   0  0  0  0  0  0
  -24.6315  -31.8534   23.1954 C   0  0  0  0  0  0
  -25.9138  -32.4740   23.8304 C   0  0  1  0  0  0
  -27.2299  -27.2590   20.1122 C   0  0  0  0  0  0
  -25.5932  -33.8541   24.2235 N   0  0  0  0  0  0
  -23.4275  -30.4748   21.5391 C   0  0  2  0  0  0
  -24.8729  -28.9161   20.1081 C   0  0  0  0  0  0
  -22.7498  -29.4594   22.4908 C   0  0  0  0  0  0
  -18.0290  -28.1388   22.8484 C   0  0  0  0  0  0
  -24.1490  -36.7277   23.2641 C   0  0  0  0  0  0
  -25.9725  -30.7655   21.3720 C   0  0  0  0  0  0
  -26.0436  -29.3875   20.7116 C   0  0  0  0  0  0
  -27.2178  -28.5702   20.7025 C   0  0  0  0  0  0
  -26.0202  -26.8382   19.5191 C   0  0  0  0  0  0
  -24.8656  -27.6484   19.5046 C   0  0  0  0  0  0
  -23.6440  -29.8043   20.1560 C   0  0  0  0  0  0
  -25.4117  -36.3059   24.0324 C   0  0  1  0  0  0
  -20.5893  -28.3697   23.1271 C   0  0  2  0  0  0
  -20.6776  -26.9414   22.5409 C   0  0  0  0  0  0
  -19.5754  -26.6383   21.5211 C   0  0  0  0  0  0
  -18.1934  -26.7929   22.1623 C   0  0  0  0  0  0
  -19.1543  -28.8859   23.2872 C   0  0  0  0  0  0
  -18.9467  -30.1459   23.8891 C   0  0  0  0  0  0
  -17.6466  -30.6588   24.0562 C   0  0  0  0  0  0
  -25.9060  -34.9431   23.5085 C   0  0  0  0  0  0
  -16.5357  -29.9086   23.6331 C   0  0  0  0  0  0
  -16.7276  -28.6503   23.0351 C   0  0  0  0  0  0
  -26.4502  -31.6569   25.0701 C   0  0  0  0  0  0
  -25.3721  -31.3722   26.1421 C   0  0  0  0  0  0
  -27.0353  -30.2984   24.6193 C   0  0  0  0  0  0
  -27.6047  -32.4315   25.7483 C   0  0  0  0  0  0
  -27.5575  -37.1796   24.8465 C   0  0  0  0  0  0
  -21.4204  -29.3042   22.3657 N   0  0  0  0  0  0
  -26.4288  -37.3761   23.9407 N   0  0  0  0  0  0
  -24.6965  -31.0498   22.0922 N   0  0  0  0  0  0
  -23.4199  -28.8142   23.3012 O   0  0  0  0  0  0
  -28.3694  -26.4226   20.2096 O   0  0  0  0  0  0
  -26.5636  -34.8912   22.4658 O   0  0  0  0  0  0
  -23.5468  -32.1354   23.7257 O   0  0  0  0  0  0
  -30.7639  -18.1715   21.3843 C   0  0  0  0  0  0
  -28.4538  -19.9106   21.6076 C   0  0  0  0  0  0
  -28.7595  -17.5508   19.9204 C   0  0  0  0  0  0
  -30.8216  -19.6139   21.4955 C   0  0  0  0  0  0
  -28.1905  -20.0635   20.1577 C   0  0  0  0  0  0
  -29.7603  -20.5487   21.3282 C   0  0  0  0  0  0
  -29.8483  -17.2123   20.8041 C   0  0  0  0  0  0
  -28.1262  -18.7872   19.5161 C   0  0  0  0  0  0
  -28.5801  -23.7243   20.2110 C   0  0  0  0  0  0
  -32.1333  -20.1946   21.9889 C   0  0  0  0  0  0
  -30.2316  -25.4282   19.2947 C   0  0  0  0  0  0
  -28.1209  -25.0752   18.0385 C   0  0  0  0  0  0
  -29.9852  -15.6133   22.6865 C   0  0  0  0  0  0
  -29.2279  -22.4050   19.5482 C   0  0  0  0  0  0
  -28.7219  -25.1556   19.4601 C   0  0  0  0  0  0
  -29.3046  -20.9482   20.0463 N   0  0  0  0  0  0
  -30.0073  -15.7820   21.2237 N   0  0  0  0  0  0
  -27.9839  -23.6346   21.2872 O   0  0  0  0  0  0
  -27.2632  -18.6968   18.4752 F   0  0  0  0  0  0
  -31.4731  -12.5944   19.1726 H   0  0  0  0  0  0
  -30.3825  -11.4786   19.9354 H   0  0  0  0  0  0
  -29.8010  -11.7714   17.5082 H   0  0  0  0  0  0
  -29.6337  -13.4940   17.7372 H   0  0  0  0  0  0
  -27.8965  -11.2889   18.8896 H   0  0  0  0  0  0
  -27.3829  -12.5445   17.7920 H   0  0  0  0  0  0
  -27.6478  -14.2561   19.4899 H   0  0  0  0  0  0
  -28.7104  -12.1173   21.3945 H   0  0  0  0  0  0
  -28.3557  -13.7688   21.8054 H   0  0  0  0  0  0
  -25.2764   -9.5686   22.4743 H   0  0  0  0  0  0
  -24.0007   -7.4639   22.7467 H   0  0  0  0  0  0
  -21.0841   -8.8768   19.8952 H   0  0  0  0  0  0
  -22.3691  -10.9668   19.6156 H   0  0  0  0  0  0
  -21.2011   -7.6146   23.9711 H   0  0  0  0  0  0
  -21.1481   -6.0522   25.9078 H   0  0  0  0  0  0
  -22.0600   -2.7609   23.2841 H   0  0  0  0  0  0
  -22.4118  -11.9878   22.4811 H   0  0  0  0  0  0
  -21.1106  -13.1229   22.2643 H   0  0  0  0  0  0
  -24.6564  -15.8446   20.5304 H   0  0  0  0  0  0
  -26.2787  -15.6327   20.1085 H   0  0  0  0  0  0
  -26.7202  -32.5381   23.1040 H   0  0  0  0  0  0
  -25.0065  -33.9670   25.0371 H   0  0  0  0  0  0
  -22.7242  -31.2971   21.3915 H   0  0  0  0  0  0
  -23.3751  -35.9611   23.3302 H   0  0  0  0  0  0
  -24.3577  -36.8904   22.2056 H   0  0  0  0  0  0
  -23.7246  -37.6477   23.6672 H   0  0  0  0  0  0
  -26.1111  -31.5268   20.6032 H   0  0  0  0  0  0
  -26.8503  -30.8141   22.0051 H   0  0  0  0  0  0
  -28.1158  -28.9285   21.1857 H   0  0  0  0  0  0
  -25.9168  -25.8496   19.1092 H   0  0  0  0  0  0
  -23.9596  -27.2700   19.0517 H   0  0  0  0  0  0
  -23.7682  -30.5785   19.3980 H   0  0  0  0  0  0
  -22.7618  -29.2376   19.8528 H   0  0  0  0  0  0
  -25.1303  -36.1898   25.0816 H   0  0  0  0  0  0
  -20.9987  -28.3275   24.1391 H   0  0  0  0  0  0
  -20.5670  -26.2307   23.3614 H   0  0  0  0  0  0
  -21.6645  -26.7433   22.1208 H   0  0  0  0  0  0
  -19.6915  -25.6292   21.1243 H   0  0  0  0  0  0
  -19.6691  -27.3190   20.6739 H   0  0  0  0  0  0
  -17.4202  -26.6672   21.4028 H   0  0  0  0  0  0
  -18.0338  -26.0074   22.9023 H   0  0  0  0  0  0
  -19.7943  -30.7275   24.2258 H   0  0  0  0  0  0
  -17.5021  -31.6269   24.5165 H   0  0  0  0  0  0
  -15.5357  -30.2988   23.7660 H   0  0  0  0  0  0
  -15.8676  -28.0823   22.7070 H   0  0  0  0  0  0
  -24.5906  -30.7060   25.7751 H   0  0  0  0  0  0
  -24.8904  -32.2894   26.4820 H   0  0  0  0  0  0
  -25.8039  -30.8921   27.0211 H   0  0  0  0  0  0
  -26.2941  -29.6728   24.1210 H   0  0  0  0  0  0
  -27.4025  -29.7252   25.4716 H   0  0  0  0  0  0
  -27.8818  -30.4257   23.9441 H   0  0  0  0  0  0
  -27.2646  -33.3620   26.2042 H   0  0  0  0  0  0
  -28.3872  -32.6868   25.0325 H   0  0  0  0  0  0
  -28.0699  -31.8453   26.5418 H   0  0  0  0  0  0
  -28.2594  -38.0091   24.7504 H   0  0  0  0  0  0
  -28.1069  -36.2621   24.6303 H   0  0  0  0  0  0
  -27.2294  -37.1457   25.8869 H   0  0  0  0  0  0
  -20.9391  -29.8759   21.6858 H   0  0  0  0  0  0
  -26.0163  -38.2833   24.1406 H   0  0  0  0  0  0
  -31.6321  -17.6996   21.8223 H   0  0  0  0  0  0
  -28.2752  -19.0322   22.2105 H   0  0  0  0  0  0
  -28.3197  -16.6933   19.4352 H   0  0  0  0  0  0
  -32.1606  -21.2782   21.8654 H   0  0  0  0  0  0
  -32.9731  -19.7765   21.4338 H   0  0  0  0  0  0
  -32.2745  -19.9687   23.0461 H   0  0  0  0  0  0
  -30.7299  -24.6859   18.6718 H   0  0  0  0  0  0
  -30.7405  -25.4428   20.2595 H   0  0  0  0  0  0
  -30.4040  -26.3967   18.8238 H   0  0  0  0  0  0
  -28.7583  -24.4937   17.3718 H   0  0  0  0  0  0
  -28.0111  -26.0621   17.5895 H   0  0  0  0  0  0
  -27.1541  -24.5746   18.0243 H   0  0  0  0  0  0
  -30.0043  -14.5733   23.0173 H   0  0  0  0  0  0
  -30.8464  -16.0893   23.1545 H   0  0  0  0  0  0
  -29.0853  -16.0695   23.1013 H   0  0  0  0  0  0
  -30.2631  -22.6788   19.3489 H   0  0  0  0  0  0
  -28.7747  -22.3479   18.5582 H   0  0  0  0  0  0
  1 25  1  0  0  0
  1 30  2  0  0  0
  1 87  1  0  0  0
  2  3  1  0  0  0
  2 25  1  0  0  0
  2 90  1  0  0  0
  2 91  1  0  0  0
  3  4  1  0  0  0
  3 92  1  0  0  0
  3 93  1  0  0  0
  4  5  1  0  0  0
  4 94  1  0  0  0
  4 95  1  0  0  0
  5  6  1  0  0  0
  5 26  1  0  0  0
  5 96  1  0  0  0
  6 25  1  0  0  0
  6 97  1  0  0  0
  6 98  1  0  0  0
  7  8  2  0  0  0
  7 26  1  0  0  0
  7 29  1  0  0  0
  8  9  1  0  0  0
  8 22  1  0  0  0
  9 10  1  0  0  0
  9 27  2  0  0  0
 10 11  2  0  0  0
 10 15  1  0  0  0
 11 12  1  0  0  0
 11 99  1  0  0  0
 12 13  2  0  0  0
 12100  1  0  0  0
 13 14  1  0  0  0
 13 31  1  0  0  0
 14 15  2  0  0  0
 14101  1  0  0  0
 15102  1  0  0  0
 16 17  2  0  0  0
 16 21  1  0  0  0
 16 31  1  0  0  0
 17 18  1  0  0  0
 17103  1  0  0  0
 18 19  2  0  0  0
 18104  1  0  0  0
 19 20  1  0  0  0
 19 24  1  0  0  0
 20 21  2  0  0  0
 20105  1  0  0  0
 21 23  1  0  0  0
 22 28  1  0  0  0
 22 32  2  0  0  0
 26 27  1  0  0  0
 28106  1  0  0  0
 28107  1  0  0  0
 29108  1  0  0  0
 29109  1  0  0  0
 33 34  1  0  0  0
 33 66  1  0  0  0
 33 70  2  0  0  0
 34 36  1  0  0  0
 34 59  1  0  0  0
 34110  1  0  0  0
 35 44  2  0  0  0
 35 45  1  0  0  0
 35 68  1  0  0  0
 36 56  1  0  0  0
 36111  1  0  0  0
 37 39  1  0  0  0
 37 47  1  0  0  0
 37 66  1  0  0  0
 37112  1  0  0  0
 38 43  2  0  0  0
 38 46  1  0  0  0
 38 47  1  0  0  0
 39 64  1  0  0  0
 39 67  2  0  0  0
 40 52  1  0  0  0
 40 53  2  0  0  0
 40 58  1  0  0  0
 41113  1  0  0  0
 41114  1  0  0  0
 41115  1  0  0  0
 41 48  1  0  0  0
 42 43  1  0  0  0
 42 66  1  0  0  0
 42116  1  0  0  0
 42117  1  0  0  0
 43 44  1  0  0  0
 44118  1  0  0  0
 45 46  2  0  0  0
 45119  1  0  0  0
 46120  1  0  0  0
 47121  1  0  0  0
 47122  1  0  0  0
 48 56  1  0  0  0
 48 65  1  0  0  0
 48123  1  0  0  0
 49 50  1  0  0  0
 49 53  1  0  0  0
 49 64  1  0  0  0
 49124  1  0  0  0
 50 51  1  0  0  0
 50125  1  0  0  0
 50126  1  0  0  0
 51 52  1  0  0  0
 51127  1  0  0  0
 51128  1  0  0  0
 52129  1  0  0  0
 52130  1  0  0  0
 53 54  1  0  0  0
 54 55  2  0  0  0
 54131  1  0  0  0
 55 57  1  0  0  0
 55132  1  0  0  0
 56 69  2  0  0  0
 57 58  2  0  0  0
 57133  1  0  0  0
 58134  1  0  0  0
 59 60  1  0  0  0
 59 61  1  0  0  0
 59 62  1  0  0  0
 60135  1  0  0  0
 60136  1  0  0  0
 60137  1  0  0  0
 61138  1  0  0  0
 61139  1  0  0  0
 61140  1  0  0  0
 62141  1  0  0  0
 62142  1  0  0  0
 62143  1  0  0  0
 63 65  1  0  0  0
 63144  1  0  0  0
 63145  1  0  0  0
 63146  1  0  0  0
 64147  1  0  0  0
 65148  1  0  0  0
 68 85  1  0  0  0
 71 74  1  0  0  0
 71 77  2  0  0  0
 71149  1  0  0  0
 72 75  2  0  0  0
 72 76  1  0  0  0
 72150  1  0  0  0
 73 77  1  0  0  0
 73 78  2  0  0  0
 73151  1  0  0  0
 74 76  2  0  0  0
 74 80  1  0  0  0
 75 78  1  0  0  0
 75 86  1  0  0  0
 76 86  1  0  0  0
 77 87  1  0  0  0
 78 89  1  0  0  0
 79 84  1  0  0  0
 79 85  1  0  0  0
 79 88  2  0  0  0
 80152  1  0  0  0
 80153  1  0  0  0
 80154  1  0  0  0
 81155  1  0  0  0
 81156  1  0  0  0
 81157  1  0  0  0
 81 85  1  0  0  0
 82 85  1  0  0  0
 82158  1  0  0  0
 82159  1  0  0  0
 82160  1  0  0  0
 83 87  1  0  0  0
 83161  1  0  0  0
 83162  1  0  0  0
 83163  1  0  0  0
 84 86  1  0  0  0
 84164  1  0  0  0
 84165  1  0  0  0
M  ISO  4   1 100  68 101  85 101  87 100
M  END
> <chiral flag>
0

> <version>
0

> <s_m_source_file>
/data/baiqing/PycharmProjects/Reinvent-master-3.2/result/LINK_invent/BTK/process_docking_weight1_custom_product_contain_oxygen_bond_distance_aromatic_linkinvent_7_9_3/rearranged_h_0074.sdf

> <i_m_source_file_index>
9

> <r_mmod_Potential_Energy-OPLS-2005>
1343.16625976562

> <r_mmod_Stretch_Energy-OPLS-2005>
141.228317260742

> <r_mmod_Bend_Energy-OPLS-2005>
667.773986816406

> <r_mmod_Torsional_Energy-OPLS-2005>
714.673767089844

> <r_mmod_Improper_Torsional_Energy-OPLS-2005>
91.7449417114258

> <r_mmod_Van_der_Waal_Energy-OPLS-2005>
135.582336425781

> <r_mmod_Electrostatic_Energy-OPLS-2005>
-271.235870361328

> <r_mmod_Solvation_Energy-OPLS-2005>
-213.197952270508

> <b_mmod_Minimization_Converged-OPLS-2005>
0

> <r_mmod_RMS_Derivative-OPLS-2005>
0.667560219764709

$$$$
9
                    3D
 Structure written by MMmdl.
164172  0  0  1  0            999 V2000
  -30.7180  -14.4964   20.5614 C   0  0  0  0  0  0
  -30.4158  -12.3203   19.4322 C   0  0  0  0  0  0
  -29.4929  -12.5013   18.2105 C   0  0  0  0  0  0
  -28.0156  -12.3593   18.6241 C   0  0  0  0  0  0
  -27.6571  -13.2138   19.8700 C   0  0  2  0  0  0
  -28.7007  -13.0316   20.9960 C   0  0  0  0  0  0
  -25.2566  -13.8177   20.5684 C   0  0  0  0  0  0
  -24.1828  -13.0444   20.9187 C   0  0  0  0  0  0
  -24.6393  -11.6913   20.8743 C   0  0  0  0  0  0
  -23.9065  -10.4294   21.0409 C   0  0  0  0  0  0
  -24.3615   -9.4208   21.9187 C   0  0  0  0  0  0
  -23.6290   -8.2244   22.0756 C   0  0  0  0  0  0
  -22.4273   -8.0282   21.3546 C   0  0  0  0  0  0
  -21.9910   -9.0256   20.4647 C   0  0  0  0  0  0
  -22.7238  -10.2135   20.3057 C   0  0  0  0  0  0
  -21.6853   -6.0737   22.5279 C   0  0  0  0  0  0
  -21.4014   -6.5640   23.8212 C   0  0  0  0  0  0
  -21.3658   -5.6791   24.9174 C   0  0  0  0  0  0
  -21.6044   -4.3053   24.7223 C   0  0  0  0  0  0
  -21.8819   -3.8147   23.4343 C   0  0  0  0  0  0
  -21.9191   -4.6965   22.3401 C   0  0  0  0  0  0
  -22.7849  -13.5238   21.1847 C   0  0  0  0  0  0
  -22.1660   -4.2150   21.0979 F   0  0  0  0  0  0
  -21.5629   -3.4539   25.7736 F   0  0  0  0  0  0
  -30.0278  -13.3279   20.4347 N   0  0  0  0  0  0
  -26.3003  -12.9359   20.3355 N   0  0  0  0  0  0
  -25.9323  -11.6514   20.5776 N   0  0  0  0  0  0
  -22.0486  -12.8230   22.0398 N   0  0  0  0  0  0
  -25.4280  -15.1896   20.4075 N   0  0  0  0  0  0
  -31.8506  -14.6318   20.0910 O   0  0  0  0  0  0
  -21.6637   -6.8879   21.4240 O   0  0  0  0  0  0
  -22.3539  -14.5548   20.6697 O   0  0  0  0  0  0
  -24.6167  -31.8663   23.2087 C   0  0  0  0  0  0
  -25.9053  -32.4815   23.8389 C   0  0  1  0  0  0
  -27.2289  -27.4184   20.1015 C   0  0  0  0  0  0
  -25.5902  -33.8614   24.2323 N   0  0  0  0  0  0
  -23.4064  -30.4895   21.5491 C   0  0  2  0  0  0
  -24.8545  -28.9566   20.1098 C   0  0  0  0  0  0
  -22.7424  -29.4650   22.4977 C   0  0  0  0  0  0
  -18.0274  -28.1376   22.8488 C   0  0  0  0  0  0
  -24.1486  -36.7311   23.2639 C   0  0  0  0  0  0
  -25.9369  -30.8286   21.3636 C   0  0  0  0  0  0
  -26.0162  -29.4625   20.7087 C   0  0  0  0  0  0
  -27.2110  -28.7012   20.7009 C   0  0  0  0  0  0
  -26.0557  -26.9353   19.4870 C   0  0  0  0  0  0
  -24.8702  -27.6935   19.4932 C   0  0  0  0  0  0
  -23.6157  -29.8235   20.1627 C   0  0  0  0  0  0
  -25.4107  -36.3109   24.0338 C   0  0  1  0  0  0
  -20.5867  -28.3666   23.1312 C   0  0  2  0  0  0
  -20.6767  -26.9401   22.5416 C   0  0  0  0  0  0
  -19.5745  -26.6385   21.5212 C   0  0  0  0  0  0
  -18.1922  -26.7923   22.1620 C   0  0  0  0  0  0
  -19.1524  -28.8837   23.2898 C   0  0  0  0  0  0
  -18.9454  -30.1441   23.8911 C   0  0  0  0  0  0
  -17.6458  -30.6587   24.0563 C   0  0  0  0  0  0
  -25.9036  -34.9474   23.5129 C   0  0  0  0  0  0
  -16.5347  -29.9089   23.6329 C   0  0  0  0  0  0
  -16.7263  -28.6503   23.0351 C   0  0  0  0  0  0
  -26.4477  -31.6591   25.0717 C   0  0  0  0  0  0
  -25.3743  -31.3695   26.1463 C   0  0  0  0  0  0
  -27.0311  -30.3036   24.6089 C   0  0  0  0  0  0
  -27.6051  -32.4310   25.7484 C   0  0  0  0  0  0
  -27.5579  -37.1810   24.8467 C   0  0  0  0  0  0
  -21.4147  -29.3033   22.3719 N   0  0  0  0  0  0
  -26.4293  -37.3793   23.9408 N   0  0  0  0  0  0
  -24.6718  -31.0754   22.0991 N   0  0  0  0  0  0
  -23.4190  -28.8191   23.3025 O   0  0  0  0  0  0
  -28.3408  -26.6032   20.1389 O   0  0  0  0  0  0
  -26.5599  -34.8926   22.4692 O   0  0  0  0  0  0
  -23.5355  -32.1410   23.7475 O   0  0  0  0  0  0
  -32.3099  -18.4982   21.7491 C   0  0  0  0  0  0
  -31.3993  -19.5696   21.7147 C   0  0  0  0  0  0
  -31.8697  -17.1799   21.5362 C   0  0  0  0  0  0
  -29.5960  -17.9989   21.2168 C   0  0  0  0  0  0
  -30.0303  -19.3391   21.4529 C   0  0  0  0  0  0
  -30.5079  -16.9031   21.2564 C   0  0  0  0  0  0
  -29.0841  -20.4803   21.5528 C   0  0  0  0  0  0
  -28.9335  -24.2144   20.7512 C   0  0  0  0  0  0
  -30.8178  -23.6479   23.2349 C   0  0  0  0  0  0
  -28.8709  -22.4267   24.2805 C   0  0  0  0  0  0
  -28.1665  -25.5244   21.0861 C   0  0  0  0  0  0
  -28.7686  -23.0248   21.7594 C   0  0  2  0  0  0
  -29.2940  -23.4152   23.1797 C   0  0  0  0  0  0
  -30.0382  -15.5509   21.0757 N   0  0  0  0  0  0
  -29.4498  -21.7652   21.3133 N   0  0  0  0  0  0
  -27.8471  -20.2518   21.9955 N   0  3  0  0  0  0
  -29.6427  -24.1298   19.7429 O   0  0  0  0  0  0
  -31.4616  -12.4031   19.1308 H   0  0  0  0  0  0
  -30.3082  -11.3175   19.8486 H   0  0  0  0  0  0
  -29.7372  -11.7678   17.4410 H   0  0  0  0  0  0
  -29.6580  -13.4824   17.7623 H   0  0  0  0  0  0
  -27.8326  -11.3047   18.8334 H   0  0  0  0  0  0
  -27.3638  -12.6192   17.7891 H   0  0  0  0  0  0
  -27.6903  -14.2563   19.5528 H   0  0  0  0  0  0
  -28.6814  -12.0071   21.3707 H   0  0  0  0  0  0
  -28.4631  -13.6626   21.8536 H   0  0  0  0  0  0
  -25.2762   -9.5684   22.4758 H   0  0  0  0  0  0
  -23.9999   -7.4637   22.7476 H   0  0  0  0  0  0
  -21.0842   -8.8776   19.8951 H   0  0  0  0  0  0
  -22.3701  -10.9674   19.6162 H   0  0  0  0  0  0
  -21.2006   -7.6149   23.9717 H   0  0  0  0  0  0
  -21.1480   -6.0522   25.9077 H   0  0  0  0  0  0
  -22.0599   -2.7610   23.2844 H   0  0  0  0  0  0
  -22.4091  -11.9882   22.4780 H   0  0  0  0  0  0
  -21.1105  -13.1259   22.2602 H   0  0  0  0  0  0
  -24.6573  -15.8417   20.5038 H   0  0  0  0  0  0
  -26.2709  -15.6241   20.0546 H   0  0  0  0  0  0
  -26.7122  -32.5527   23.1151 H   0  0  0  0  0  0
  -25.0061  -33.9773   25.0476 H   0  0  0  0  0  0
  -22.6959  -31.3070   21.4096 H   0  0  0  0  0  0
  -23.3748  -35.9646   23.3315 H   0  0  0  0  0  0
  -24.3581  -36.8913   22.2052 H   0  0  0  0  0  0
  -23.7241  -37.6520   23.6644 H   0  0  0  0  0  0
  -26.0500  -31.5954   20.5961 H   0  0  0  0  0  0
  -26.8245  -30.8822   21.9819 H   0  0  0  0  0  0
  -28.1052  -29.0809   21.1753 H   0  0  0  0  0  0
  -26.0547  -25.9608   19.0192 H   0  0  0  0  0  0
  -23.9779  -27.2988   19.0272 H   0  0  0  0  0  0
  -23.7217  -30.5996   19.4037 H   0  0  0  0  0  0
  -22.7398  -29.2433   19.8674 H   0  0  0  0  0  0
  -25.1286  -36.1973   25.0831 H   0  0  0  0  0  0
  -20.9951  -28.3232   24.1435 H   0  0  0  0  0  0
  -20.5673  -26.2274   23.3603 H   0  0  0  0  0  0
  -21.6636  -26.7447   22.1204 H   0  0  0  0  0  0
  -19.6913  -25.6303   21.1227 H   0  0  0  0  0  0
  -19.6689  -27.3207   20.6752 H   0  0  0  0  0  0
  -17.4194  -26.6672   21.4020 H   0  0  0  0  0  0
  -18.0320  -26.0063   22.9011 H   0  0  0  0  0  0
  -19.7934  -30.7245   24.2287 H   0  0  0  0  0  0
  -17.5019  -31.6268   24.5160 H   0  0  0  0  0  0
  -15.5351  -30.2998   23.7648 H   0  0  0  0  0  0
  -15.8657  -28.0826   22.7067 H   0  0  0  0  0  0
  -24.5917  -30.7041   25.7800 H   0  0  0  0  0  0
  -24.8931  -32.2849   26.4918 H   0  0  0  0  0  0
  -25.8094  -30.8859   27.0217 H   0  0  0  0  0  0
  -26.2852  -29.6798   24.1147 H   0  0  0  0  0  0
  -27.4097  -29.7271   25.4539 H   0  0  0  0  0  0
  -27.8680  -30.4369   23.9229 H   0  0  0  0  0  0
  -27.2667  -33.3602   26.2083 H   0  0  0  0  0  0
  -28.3850  -32.6880   25.0303 H   0  0  0  0  0  0
  -28.0726  -31.8417   26.5382 H   0  0  0  0  0  0
  -28.2604  -38.0100   24.7506 H   0  0  0  0  0  0
  -28.1067  -36.2631   24.6301 H   0  0  0  0  0  0
  -27.2294  -37.1467   25.8870 H   0  0  0  0  0  0
  -20.9306  -29.8763   21.6947 H   0  0  0  0  0  0
  -26.0186  -38.2875   24.1404 H   0  0  0  0  0  0
  -33.3524  -18.6835   21.9672 H   0  0  0  0  0  0
  -31.7648  -20.5644   21.9293 H   0  0  0  0  0  0
  -32.6008  -16.3892   21.6134 H   0  0  0  0  0  0
  -28.5500  -17.8062   21.0249 H   0  0  0  0  0  0
  -31.1210  -23.9963   24.2231 H   0  0  0  0  0  0
  -31.1444  -24.4038   22.5207 H   0  0  0  0  0  0
  -31.3762  -22.7349   23.0302 H   0  0  0  0  0  0
  -29.0961  -22.8294   25.2688 H   0  0  0  0  0  0
  -29.3914  -21.4726   24.2021 H   0  0  0  0  0  0
  -27.7987  -22.2311   24.2518 H   0  0  0  0  0  0
  -28.4984  -25.8960   22.0543 H   0  0  0  0  0  0
  -27.1136  -25.2632   21.1999 H   0  0  0  0  0  0
  -27.6977  -22.8306   21.8304 H   0  0  0  0  0  0
  -28.8229  -24.3552   23.4658 H   0  0  0  0  0  0
  -29.0714  -15.3719   21.2972 H   0  0  0  0  0  0
  -30.3078  -21.9027   20.7932 H   0  0  0  0  0  0
  -27.5824  -19.3227   22.2791 H   0  0  0  0  0  0
  -27.1757  -20.9951   22.0727 H   0  0  0  0  0  0
  1 25  1  0  0  0
  1 30  2  0  0  0
  1 84  1  0  0  0
  2  3  1  0  0  0
  2 25  1  0  0  0
  2 88  1  0  0  0
  2 89  1  0  0  0
  3  4  1  0  0  0
  3 90  1  0  0  0
  3 91  1  0  0  0
  4  5  1  0  0  0
  4 92  1  0  0  0
  4 93  1  0  0  0
  5  6  1  0  0  0
  5 26  1  0  0  0
  5 94  1  0  0  0
  6 25  1  0  0  0
  6 95  1  0  0  0
  6 96  1  0  0  0
  7  8  2  0  0  0
  7 26  1  0  0  0
  7 29  1  0  0  0
  8  9  1  0  0  0
  8 22  1  0  0  0
  9 10  1  0  0  0
  9 27  2  0  0  0
 10 11  2  0  0  0
 10 15  1  0  0  0
 11 12  1  0  0  0
 11 97  1  0  0  0
 12 13  2  0  0  0
 12 98  1  0  0  0
 13 14  1  0  0  0
 13 31  1  0  0  0
 14 15  2  0  0  0
 14 99  1  0  0  0
 15100  1  0  0  0
 16 17  2  0  0  0
 16 21  1  0  0  0
 16 31  1  0  0  0
 17 18  1  0  0  0
 17101  1  0  0  0
 18 19  2  0  0  0
 18102  1  0  0  0
 19 20  1  0  0  0
 19 24  1  0  0  0
 20 21  2  0  0  0
 20103  1  0  0  0
 21 23  1  0  0  0
 22 28  1  0  0  0
 22 32  2  0  0  0
 26 27  1  0  0  0
 28104  1  0  0  0
 28105  1  0  0  0
 29106  1  0  0  0
 29107  1  0  0  0
 33 34  1  0  0  0
 33 66  1  0  0  0
 33 70  2  0  0  0
 34 36  1  0  0  0
 34 59  1  0  0  0
 34108  1  0  0  0
 35 44  2  0  0  0
 35 45  1  0  0  0
 35 68  1  0  0  0
 36 56  1  0  0  0
 36109  1  0  0  0
 37 39  1  0  0  0
 37 47  1  0  0  0
 37 66  1  0  0  0
 37110  1  0  0  0
 38 43  2  0  0  0
 38 46  1  0  0  0
 38 47  1  0  0  0
 39 64  1  0  0  0
 39 67  2  0  0  0
 40 52  1  0  0  0
 40 53  2  0  0  0
 40 58  1  0  0  0
 41111  1  0  0  0
 41112  1  0  0  0
 41113  1  0  0  0
 41 48  1  0  0  0
 42 43  1  0  0  0
 42 66  1  0  0  0
 42114  1  0  0  0
 42115  1  0  0  0
 43 44  1  0  0  0
 44116  1  0  0  0
 45 46  2  0  0  0
 45117  1  0  0  0
 46118  1  0  0  0
 47119  1  0  0  0
 47120  1  0  0  0
 48 56  1  0  0  0
 48 65  1  0  0  0
 48121  1  0  0  0
 49 50  1  0  0  0
 49 53  1  0  0  0
 49 64  1  0  0  0
 49122  1  0  0  0
 50 51  1  0  0  0
 50123  1  0  0  0
 50124  1  0  0  0
 51 52  1  0  0  0
 51125  1  0  0  0
 51126  1  0  0  0
 52127  1  0  0  0
 52128  1  0  0  0
 53 54  1  0  0  0
 54 55  2  0  0  0
 54129  1  0  0  0
 55 57  1  0  0  0
 55130  1  0  0  0
 56 69  2  0  0  0
 57 58  2  0  0  0
 57131  1  0  0  0
 58132  1  0  0  0
 59 60  1  0  0  0
 59 61  1  0  0  0
 59 62  1  0  0  0
 60133  1  0  0  0
 60134  1  0  0  0
 60135  1  0  0  0
 61136  1  0  0  0
 61137  1  0  0  0
 61138  1  0  0  0
 62139  1  0  0  0
 62140  1  0  0  0
 62141  1  0  0  0
 63 65  1  0  0  0
 63142  1  0  0  0
 63143  1  0  0  0
 63144  1  0  0  0
 64145  1  0  0  0
 65146  1  0  0  0
 68 81  1  0  0  0
 71 72  2  0  0  0
 71 73  1  0  0  0
 71147  1  0  0  0
 72 75  1  0  0  0
 72148  1  0  0  0
 73 76  2  0  0  0
 73149  1  0  0  0
 74 75  2  0  0  0
 74 76  1  0  0  0
 74150  1  0  0  0
 75 77  1  0  0  0
 76 84  1  0  0  0
 77 85  1  0  0  0
 77 86  2  0  0  0
 78 81  1  0  0  0
 78 82  1  0  0  0
 78 87  2  0  0  0
 79151  1  0  0  0
 79152  1  0  0  0
 79153  1  0  0  0
 79 83  1  0  0  0
 80 83  1  0  0  0
 80154  1  0  0  0
 80155  1  0  0  0
 80156  1  0  0  0
 81157  1  0  0  0
 81158  1  0  0  0
 82 83  1  0  0  0
 82 85  1  0  0  0
 82159  1  0  0  0
 83160  1  0  0  0
 84161  1  0  0  0
 85162  1  0  0  0
 86163  1  0  0  0
 86164  1  0  0  0
M  CHG  1  86   1
M  ISO  4   1 100  68 101  81 101  84 100
M  END
> <chiral flag>
0

> <version>
0

> <s_m_source_file>
/data/baiqing/PycharmProjects/Reinvent-master-3.2/result/LINK_invent/BTK/process_docking_weight1_custom_product_contain_oxygen_bond_distance_aromatic_linkinvent_7_9_3/rearranged_h_0074.sdf

> <i_m_source_file_index>
10

> <r_mmod_Potential_Energy-OPLS-2005>
-270.326446533203

> <r_mmod_Stretch_Energy-OPLS-2005>
48.9224853515625

> <r_mmod_Bend_Energy-OPLS-2005>
101.351249694824

> <r_mmod_Torsional_Energy-OPLS-2005>
250.568771362305

> <r_mmod_Improper_Torsional_Energy-OPLS-2005>
4.93600654602051

> <r_mmod_Van_der_Waal_Energy-OPLS-2005>
158.17626953125

> <r_mmod_Electrostatic_Energy-OPLS-2005>
-410.304443359375

> <r_mmod_Solvation_Energy-OPLS-2005>
-442.425537109375

> <b_mmod_Minimization_Converged-OPLS-2005>
0

> <r_mmod_RMS_Derivative-OPLS-2005>
0.591748118400574

$$$$
10
                    3D
 Structure written by MMmdl.
152160  0  0  1  0            999 V2000
  -30.5869  -14.8526   20.4222 C   0  0  0  0  0  0
  -30.4352  -12.5191   19.5016 C   0  0  0  0  0  0
  -29.5205  -12.5073   18.2553 C   0  0  0  0  0  0
  -28.0499  -12.3162   18.6706 C   0  0  0  0  0  0
  -27.6359  -13.2427   19.8432 C   0  0  2  0  0  0
  -28.6765  -13.2391   20.9848 C   0  0  0  0  0  0
  -25.2465  -13.8221   20.5680 C   0  0  0  0  0  0
  -24.1784  -13.0441   20.9208 C   0  0  0  0  0  0
  -24.6392  -11.6929   20.8749 C   0  0  0  0  0  0
  -23.9077  -10.4298   21.0408 C   0  0  0  0  0  0
  -24.3628   -9.4204   21.9181 C   0  0  0  0  0  0
  -23.6298   -8.2236   22.0756 C   0  0  0  0  0  0
  -22.4281   -8.0278   21.3544 C   0  0  0  0  0  0
  -21.9921   -9.0259   20.4651 C   0  0  0  0  0  0
  -22.7253  -10.2132   20.3058 C   0  0  0  0  0  0
  -21.6849   -6.0728   22.5274 C   0  0  0  0  0  0
  -21.4010   -6.5628   23.8209 C   0  0  0  0  0  0
  -21.3668   -5.6784   24.9166 C   0  0  0  0  0  0
  -21.6049   -4.3050   24.7220 C   0  0  0  0  0  0
  -21.8818   -3.8135   23.4343 C   0  0  0  0  0  0
  -21.9191   -4.6951   22.3395 C   0  0  0  0  0  0
  -22.7804  -13.5203   21.1864 C   0  0  0  0  0  0
  -22.1654   -4.2135   21.0972 F   0  0  0  0  0  0
  -21.5641   -3.4541   25.7733 F   0  0  0  0  0  0
  -29.9706  -13.6103   20.3997 N   0  0  0  0  0  0
  -26.2902  -12.9452   20.3248 N   0  0  0  0  0  0
  -25.9324  -11.6575   20.5747 N   0  0  0  0  0  0
  -22.0456  -12.8214   22.0440 N   0  0  0  0  0  0
  -25.4158  -15.1939   20.4083 N   0  0  0  0  0  0
  -31.7837  -14.9032   20.1240 O   0  0  0  0  0  0
  -21.6644   -6.8872   21.4238 O   0  0  0  0  0  0
  -22.3484  -14.5496   20.6696 O   0  0  0  0  0  0
  -24.6369  -31.8510   23.1951 C   0  0  0  0  0  0
  -25.9173  -32.4740   23.8322 C   0  0  1  0  0  0
  -27.2208  -27.2171   20.1423 C   0  0  0  0  0  0
  -25.5943  -33.8546   24.2238 N   0  0  0  0  0  0
  -23.4376  -30.4726   21.5366 C   0  0  2  0  0  0
  -24.8904  -28.9142   20.1073 C   0  0  0  0  0  0
  -22.7535  -29.4585   22.4863 C   0  0  0  0  0  0
  -18.0297  -28.1404   22.8475 C   0  0  0  0  0  0
  -24.1487  -36.7278   23.2641 C   0  0  0  0  0  0
  -25.9884  -30.7497   21.3842 C   0  0  0  0  0  0
  -26.0645  -29.3684   20.7257 C   0  0  0  0  0  0
  -27.2359  -28.5319   20.7337 C   0  0  0  0  0  0
  -26.0299  -26.8456   19.4862 C   0  0  0  0  0  0
  -24.8813  -27.6616   19.4735 C   0  0  0  0  0  0
  -23.6612  -29.8054   20.1544 C   0  0  0  0  0  0
  -25.4121  -36.3071   24.0321 C   0  0  1  0  0  0
  -20.5906  -28.3719   23.1241 C   0  0  2  0  0  0
  -20.6788  -26.9425   22.5403 C   0  0  0  0  0  0
  -19.5764  -26.6385   21.5218 C   0  0  0  0  0  0
  -18.1944  -26.7940   22.1629 C   0  0  0  0  0  0
  -19.1552  -28.8875   23.2856 C   0  0  0  0  0  0
  -18.9476  -30.1474   23.8876 C   0  0  0  0  0  0
  -17.6478  -30.6597   24.0562 C   0  0  0  0  0  0
  -25.9061  -34.9437   23.5086 C   0  0  0  0  0  0
  -16.5364  -29.9091   23.6343 C   0  0  0  0  0  0
  -16.7285  -28.6515   23.0346 C   0  0  0  0  0  0
  -26.4520  -31.6579   25.0724 C   0  0  0  0  0  0
  -25.3722  -31.3750   26.1432 C   0  0  0  0  0  0
  -27.0363  -30.2974   24.6261 C   0  0  0  0  0  0
  -27.6064  -32.4326   25.7513 C   0  0  0  0  0  0
  -27.5577  -37.1808   24.8474 C   0  0  0  0  0  0
  -21.4229  -29.3059   22.3616 N   0  0  0  0  0  0
  -26.4298  -37.3767   23.9399 N   0  0  0  0  0  0
  -24.7071  -31.0422   22.0943 N   0  0  0  0  0  0
  -23.4200  -28.8125   23.2988 O   0  0  0  0  0  0
  -28.2310  -26.2159   20.2108 O   0  0  0  0  0  0
  -26.5647  -34.8918   22.4660 O   0  0  0  0  0  0
  -23.5502  -32.1354   23.7209 O   0  0  0  0  0  0
  -31.1807  -18.9794   18.5750 C   0  0  0  0  0  0
  -30.5291  -20.1260   19.0724 C   0  0  0  0  0  0
  -30.9514  -17.6916   19.1011 C   0  0  0  0  0  0
  -29.3821  -18.6871   20.6600 C   0  0  0  0  0  0
  -29.5966  -20.0532   20.1306 C   0  0  0  0  0  0
  -30.0550  -17.4632   20.1709 C   0  0  0  0  0  0
  -27.9017  -25.0604   20.9947 C   0  0  0  0  0  0
  -28.1441  -23.6662   21.0674 C   0  0  0  0  0  0
  -28.9587  -22.6889   20.2249 C   0  0  0  0  0  0
  -27.4398  -22.9825   22.2446 C   0  0  0  0  0  0
  -28.9362  -21.3269   20.6182 N   0  0  0  0  0  0
  -29.8328  -16.0303   20.6221 N   0  0  0  0  0  0
  -29.6022  -23.0651   19.2438 O   0  0  0  0  0  0
  -31.4748  -12.6470   19.1972 H   0  0  0  0  0  0
  -30.3960  -11.5582   20.0169 H   0  0  0  0  0  0
  -29.8247  -11.7137   17.5715 H   0  0  0  0  0  0
  -29.6297  -13.4430   17.7053 H   0  0  0  0  0  0
  -27.9330  -11.2745   18.9702 H   0  0  0  0  0  0
  -27.3895  -12.4611   17.8149 H   0  0  0  0  0  0
  -27.6130  -14.2517   19.4323 H   0  0  0  0  0  0
  -28.7326  -12.2591   21.4596 H   0  0  0  0  0  0
  -28.3931  -13.9448   21.7668 H   0  0  0  0  0  0
  -25.2773   -9.5678   22.4757 H   0  0  0  0  0  0
  -24.0008   -7.4628   22.7474 H   0  0  0  0  0  0
  -21.0842   -8.8771   19.8961 H   0  0  0  0  0  0
  -22.3705  -10.9665   19.6166 H   0  0  0  0  0  0
  -21.2001   -7.6138   23.9704 H   0  0  0  0  0  0
  -21.1496   -6.0516   25.9072 H   0  0  0  0  0  0
  -22.0597   -2.7601   23.2842 H   0  0  0  0  0  0
  -22.4086  -11.9888   22.4837 H   0  0  0  0  0  0
  -21.1071  -13.1233   22.2638 H   0  0  0  0  0  0
  -24.6487  -15.8487   20.5164 H   0  0  0  0  0  0
  -26.2574  -15.6298   20.0552 H   0  0  0  0  0  0
  -26.7231  -32.5377   23.1061 H   0  0  0  0  0  0
  -25.0075  -33.9675   25.0378 H   0  0  0  0  0  0
  -22.7382  -31.2979   21.3870 H   0  0  0  0  0  0
  -23.3746  -35.9614   23.3339 H   0  0  0  0  0  0
  -24.3553  -36.8870   22.2046 H   0  0  0  0  0  0
  -23.7252  -37.6492   23.6645 H   0  0  0  0  0  0
  -26.1354  -31.5081   20.6145 H   0  0  0  0  0  0
  -26.8630  -30.7981   22.0215 H   0  0  0  0  0  0
  -28.1295  -28.8655   21.2435 H   0  0  0  0  0  0
  -25.9762  -25.8738   19.0159 H   0  0  0  0  0  0
  -23.9850  -27.3059   18.9833 H   0  0  0  0  0  0
  -23.7897  -30.5820   19.3998 H   0  0  0  0  0  0
  -22.7795  -29.2404   19.8462 H   0  0  0  0  0  0
  -25.1310  -36.1923   25.0813 H   0  0  0  0  0  0
  -21.0016  -28.3323   24.1356 H   0  0  0  0  0  0
  -20.5693  -26.2340   23.3619 H   0  0  0  0  0  0
  -21.6657  -26.7448   22.1200 H   0  0  0  0  0  0
  -19.6926  -25.6292   21.1257 H   0  0  0  0  0  0
  -19.6702  -27.3185   20.6735 H   0  0  0  0  0  0
  -17.4214  -26.6676   21.4032 H   0  0  0  0  0  0
  -18.0345  -26.0088   22.9029 H   0  0  0  0  0  0
  -19.7947  -30.7293   24.2237 H   0  0  0  0  0  0
  -17.5027  -31.6275   24.5171 H   0  0  0  0  0  0
  -15.5362  -30.2986   23.7682 H   0  0  0  0  0  0
  -15.8685  -28.0838   22.7059 H   0  0  0  0  0  0
  -24.5894  -30.7112   25.7759 H   0  0  0  0  0  0
  -24.8921  -32.2919   26.4849 H   0  0  0  0  0  0
  -25.8014  -30.8927   27.0224 H   0  0  0  0  0  0
  -26.2955  -29.6716   24.1269 H   0  0  0  0  0  0
  -27.3988  -29.7258   25.4822 H   0  0  0  0  0  0
  -27.8869  -30.4220   23.9556 H   0  0  0  0  0  0
  -27.2669  -33.3637   26.2068 H   0  0  0  0  0  0
  -28.3894  -32.6870   25.0356 H   0  0  0  0  0  0
  -28.0709  -31.8462   26.5453 H   0  0  0  0  0  0
  -28.2635  -38.0068   24.7473 H   0  0  0  0  0  0
  -28.1032  -36.2598   24.6365 H   0  0  0  0  0  0
  -27.2280  -37.1541   25.8874 H   0  0  0  0  0  0
  -20.9424  -29.8763   21.6800 H   0  0  0  0  0  0
  -26.0184  -38.2850   24.1363 H   0  0  0  0  0  0
  -31.8744  -19.0901   17.7536 H   0  0  0  0  0  0
  -30.7730  -21.0703   18.6097 H   0  0  0  0  0  0
  -31.4743  -16.8690   18.6346 H   0  0  0  0  0  0
  -28.6777  -18.5765   21.4720 H   0  0  0  0  0  0
  -27.2602  -25.4353   21.7788 H   0  0  0  0  0  0
  -28.1705  -22.5359   22.9206 H   0  0  0  0  0  0
  -26.7553  -22.2062   21.8979 H   0  0  0  0  0  0
  -26.8424  -23.6665   22.8470 H   0  0  0  0  0  0
  -28.3374  -21.1947   21.4219 H   0  0  0  0  0  0
  -28.9218  -15.8553   21.0192 H   0  0  0  0  0  0
  1 25  1  0  0  0
  1 30  2  0  0  0
  1 82  1  0  0  0
  2  3  1  0  0  0
  2 25  1  0  0  0
  2 84  1  0  0  0
  2 85  1  0  0  0
  3  4  1  0  0  0
  3 86  1  0  0  0
  3 87  1  0  0  0
  4  5  1  0  0  0
  4 88  1  0  0  0
  4 89  1  0  0  0
  5  6  1  0  0  0
  5 26  1  0  0  0
  5 90  1  0  0  0
  6 25  1  0  0  0
  6 91  1  0  0  0
  6 92  1  0  0  0
  7  8  2  0  0  0
  7 26  1  0  0  0
  7 29  1  0  0  0
  8  9  1  0  0  0
  8 22  1  0  0  0
  9 10  1  0  0  0
  9 27  2  0  0  0
 10 11  2  0  0  0
 10 15  1  0  0  0
 11 12  1  0  0  0
 11 93  1  0  0  0
 12 13  2  0  0  0
 12 94  1  0  0  0
 13 14  1  0  0  0
 13 31  1  0  0  0
 14 15  2  0  0  0
 14 95  1  0  0  0
 15 96  1  0  0  0
 16 17  2  0  0  0
 16 21  1  0  0  0
 16 31  1  0  0  0
 17 18  1  0  0  0
 17 97  1  0  0  0
 18 19  2  0  0  0
 18 98  1  0  0  0
 19 20  1  0  0  0
 19 24  1  0  0  0
 20 21  2  0  0  0
 20 99  1  0  0  0
 21 23  1  0  0  0
 22 28  1  0  0  0
 22 32  2  0  0  0
 26 27  1  0  0  0
 28100  1  0  0  0
 28101  1  0  0  0
 29102  1  0  0  0
 29103  1  0  0  0
 33 34  1  0  0  0
 33 66  1  0  0  0
 33 70  2  0  0  0
 34 36  1  0  0  0
 34 59  1  0  0  0
 34104  1  0  0  0
 35 44  2  0  0  0
 35 45  1  0  0  0
 35 68  1  0  0  0
 36 56  1  0  0  0
 36105  1  0  0  0
 37 39  1  0  0  0
 37 47  1  0  0  0
 37 66  1  0  0  0
 37106  1  0  0  0
 38 43  2  0  0  0
 38 46  1  0  0  0
 38 47  1  0  0  0
 39 64  1  0  0  0
 39 67  2  0  0  0
 40 52  1  0  0  0
 40 53  2  0  0  0
 40 58  1  0  0  0
 41107  1  0  0  0
 41108  1  0  0  0
 41109  1  0  0  0
 41 48  1  0  0  0
 42 43  1  0  0  0
 42 66  1  0  0  0
 42110  1  0  0  0
 42111  1  0  0  0
 43 44  1  0  0  0
 44112  1  0  0  0
 45 46  2  0  0  0
 45113  1  0  0  0
 46114  1  0  0  0
 47115  1  0  0  0
 47116  1  0  0  0
 48 56  1  0  0  0
 48 65  1  0  0  0
 48117  1  0  0  0
 49 50  1  0  0  0
 49 53  1  0  0  0
 49 64  1  0  0  0
 49118  1  0  0  0
 50 51  1  0  0  0
 50119  1  0  0  0
 50120  1  0  0  0
 51 52  1  0  0  0
 51121  1  0  0  0
 51122  1  0  0  0
 52123  1  0  0  0
 52124  1  0  0  0
 53 54  1  0  0  0
 54 55  2  0  0  0
 54125  1  0  0  0
 55 57  1  0  0  0
 55126  1  0  0  0
 56 69  2  0  0  0
 57 58  2  0  0  0
 57127  1  0  0  0
 58128  1  0  0  0
 59 60  1  0  0  0
 59 61  1  0  0  0
 59 62  1  0  0  0
 60129  1  0  0  0
 60130  1  0  0  0
 60131  1  0  0  0
 61132  1  0  0  0
 61133  1  0  0  0
 61134  1  0  0  0
 62135  1  0  0  0
 62136  1  0  0  0
 62137  1  0  0  0
 63 65  1  0  0  0
 63138  1  0  0  0
 63139  1  0  0  0
 63140  1  0  0  0
 64141  1  0  0  0
 65142  1  0  0  0
 68 77  1  0  0  0
 71 72  2  0  0  0
 71 73  1  0  0  0
 71143  1  0  0  0
 72 75  1  0  0  0
 72144  1  0  0  0
 73 76  2  0  0  0
 73145  1  0  0  0
 74 75  2  0  0  0
 74 76  1  0  0  0
 74146  1  0  0  0
 75 81  1  0  0  0
 76 82  1  0  0  0
 77 78  2  0  0  0
 77147  1  0  0  0
 78 79  1  0  0  0
 78 80  1  0  0  0
 79 81  1  0  0  0
 79 83  2  0  0  0
 80148  1  0  0  0
 80149  1  0  0  0
 80150  1  0  0  0
 81151  1  0  0  0
 82152  1  0  0  0
M  ISO  4   1 100  68 101  77 101  82 100
M  END
> <chiral flag>
0

> <version>
0

> <s_m_source_file>
/data/baiqing/PycharmProjects/Reinvent-master-3.2/result/LINK_invent/BTK/process_docking_weight1_custom_product_contain_oxygen_bond_distance_aromatic_linkinvent_7_9_3/rearranged_h_0074.sdf

> <i_m_source_file_index>
11

> <r_mmod_Potential_Energy-OPLS-2005>
357.323028564453

> <r_mmod_Stretch_Energy-OPLS-2005>
177.139907836914

> <r_mmod_Bend_Energy-OPLS-2005>
243.929534912109

> <r_mmod_Torsional_Energy-OPLS-2005>
245.151550292969

> <r_mmod_Improper_Torsional_Energy-OPLS-2005>
4.01139402389526

> <r_mmod_Van_der_Waal_Energy-OPLS-2005>
149.652465820312

> <r_mmod_Electrostatic_Energy-OPLS-2005>
-371.389953613281

> <r_mmod_Solvation_Energy-OPLS-2005>
-229.484222412109

> <b_mmod_Minimization_Converged-OPLS-2005>
0

> <r_mmod_RMS_Derivative-OPLS-2005>
2.22450256347656

$$$$
11
                    3D
 Structure written by MMmdl.
157165  0  0  1  0            999 V2000
  -30.7364  -14.4658   20.5198 C   0  0  0  0  0  0
  -30.4106  -12.2927   19.4160 C   0  0  0  0  0  0
  -29.4824  -12.4651   18.1987 C   0  0  0  0  0  0
  -28.0053  -12.3334   18.6213 C   0  0  0  0  0  0
  -27.6473  -13.1927   19.8644 C   0  0  2  0  0  0
  -28.7029  -13.0447   20.9830 C   0  0  0  0  0  0
  -25.2562  -13.8113   20.5715 C   0  0  0  0  0  0
  -24.1807  -13.0412   20.9213 C   0  0  0  0  0  0
  -24.6348  -11.6875   20.8779 C   0  0  0  0  0  0
  -23.9019  -10.4274   21.0430 C   0  0  0  0  0  0
  -24.3586   -9.4191   21.9198 C   0  0  0  0  0  0
  -23.6273   -8.2223   22.0756 C   0  0  0  0  0  0
  -22.4257   -8.0264   21.3542 C   0  0  0  0  0  0
  -21.9885   -9.0237   20.4647 C   0  0  0  0  0  0
  -22.7203  -10.2120   20.3065 C   0  0  0  0  0  0
  -21.6845   -6.0726   22.5280 C   0  0  0  0  0  0
  -21.4007   -6.5636   23.8212 C   0  0  0  0  0  0
  -21.3655   -5.6791   24.9176 C   0  0  0  0  0  0
  -21.6044   -4.3053   24.7228 C   0  0  0  0  0  0
  -21.8822   -3.8143   23.4351 C   0  0  0  0  0  0
  -21.9190   -4.6956   22.3406 C   0  0  0  0  0  0
  -22.7836  -13.5227   21.1862 C   0  0  0  0  0  0
  -22.1660   -4.2142   21.0984 F   0  0  0  0  0  0
  -21.5630   -3.4539   25.7742 F   0  0  0  0  0  0
  -30.0231  -13.3142   20.3959 N   0  0  0  0  0  0
  -26.2961  -12.9235   20.3392 N   0  0  0  0  0  0
  -25.9267  -11.6418   20.5827 N   0  0  0  0  0  0
  -22.0470  -12.8225   22.0417 N   0  0  0  0  0  0
  -25.4312  -15.1830   20.4102 N   0  0  0  0  0  0
  -31.9243  -14.5532   20.2070 O   0  0  0  0  0  0
  -21.6626   -6.8861   21.4238 O   0  0  0  0  0  0
  -22.3536  -14.5537   20.6705 O   0  0  0  0  0  0
  -24.6118  -31.8695   23.2115 C   0  0  0  0  0  0
  -25.9024  -32.4830   23.8402 C   0  0  1  0  0  0
  -27.2336  -27.4553   20.1010 C   0  0  0  0  0  0
  -25.5893  -33.8628   24.2338 N   0  0  0  0  0  0
  -23.3982  -30.4930   21.5515 C   0  0  2  0  0  0
  -24.8442  -28.9597   20.1162 C   0  0  0  0  0  0
  -22.7393  -29.4667   22.5003 C   0  0  0  0  0  0
  -18.0268  -28.1375   22.8496 C   0  0  0  0  0  0
  -24.1487  -36.7319   23.2638 C   0  0  0  0  0  0
  -25.9238  -30.8428   21.3600 C   0  0  0  0  0  0
  -26.0018  -29.4780   20.7097 C   0  0  0  0  0  0
  -27.2006  -28.7342   20.6955 C   0  0  0  0  0  0
  -26.0626  -26.9474   19.4958 C   0  0  0  0  0  0
  -24.8684  -27.6930   19.5056 C   0  0  0  0  0  0
  -23.6049  -29.8236   20.1660 C   0  0  0  0  0  0
  -25.4106  -36.3117   24.0340 C   0  0  1  0  0  0
  -20.5855  -28.3656   23.1330 C   0  0  2  0  0  0
  -20.6760  -26.9397   22.5421 C   0  0  0  0  0  0
  -19.5741  -26.6387   21.5215 C   0  0  0  0  0  0
  -18.1918  -26.7924   22.1625 C   0  0  0  0  0  0
  -19.1516  -28.8833   23.2911 C   0  0  0  0  0  0
  -18.9446  -30.1441   23.8919 C   0  0  0  0  0  0
  -17.6450  -30.6584   24.0568 C   0  0  0  0  0  0
  -25.9029  -34.9481   23.5136 C   0  0  0  0  0  0
  -16.5340  -29.9088   23.6325 C   0  0  0  0  0  0
  -16.7259  -28.6504   23.0347 C   0  0  0  0  0  0
  -26.4465  -31.6600   25.0718 C   0  0  0  0  0  0
  -25.3745  -31.3694   26.1475 C   0  0  0  0  0  0
  -27.0290  -30.3049   24.6066 C   0  0  0  0  0  0
  -27.6050  -32.4310   25.7475 C   0  0  0  0  0  0
  -27.5582  -37.1813   24.8467 C   0  0  0  0  0  0
  -21.4124  -29.3029   22.3741 N   0  0  0  0  0  0
  -26.4296  -37.3797   23.9408 N   0  0  0  0  0  0
  -24.6628  -31.0822   22.1000 N   0  0  0  0  0  0
  -23.4176  -28.8210   23.3037 O   0  0  0  0  0  0
  -28.4133  -26.7499   20.0948 O   0  0  0  0  0  0
  -26.5588  -34.8929   22.4694 O   0  0  0  0  0  0
  -23.5320  -32.1432   23.7531 O   0  0  0  0  0  0
  -31.7052  -20.2881   17.9286 C   0  0  0  0  0  0
  -29.9334  -20.8987   19.4877 C   0  0  0  0  0  0
  -31.2973  -22.6309   18.4345 C   0  0  0  0  0  0
  -30.6498  -19.9035   18.7812 C   0  0  0  0  0  0
  -32.0389  -21.6441   17.7609 C   0  0  0  0  0  0
  -30.2228  -22.2703   19.2823 C   0  0  0  0  0  0
  -30.3658  -18.4643   18.8861 C   0  0  0  0  0  0
  -29.8343  -17.7753   19.9178 C   0  0  0  0  0  0
  -29.6142  -16.3522   19.7170 C   0  0  0  0  0  0
  -29.1214  -24.4880   19.5277 C   0  0  0  0  0  0
  -33.1815  -22.0455   16.8496 C   0  0  0  0  0  0
  -28.3480  -25.3776   20.5100 C   0  0  0  0  0  0
  -29.4482  -23.2541   19.9606 N   0  0  0  0  0  0
  -30.0482  -15.5982   20.7452 N   0  0  0  0  0  0
  -29.1442  -15.8904   18.6720 O   0  0  0  0  0  0
  -29.3906  -24.9114   18.3979 O   0  0  0  0  0  0
  -31.4549  -12.3746   19.1087 H   0  0  0  0  0  0
  -30.3012  -11.2968   19.8482 H   0  0  0  0  0  0
  -29.7186  -11.7202   17.4378 H   0  0  0  0  0  0
  -29.6516  -13.4372   17.7337 H   0  0  0  0  0  0
  -27.8203  -11.2807   18.8370 H   0  0  0  0  0  0
  -27.3511  -12.5898   17.7875 H   0  0  0  0  0  0
  -27.6489  -14.2242   19.5351 H   0  0  0  0  0  0
  -28.6838  -12.0378   21.4025 H   0  0  0  0  0  0
  -28.4865  -13.7246   21.8088 H   0  0  0  0  0  0
  -25.2731   -9.5670   22.4771 H   0  0  0  0  0  0
  -23.9989   -7.4609   22.7465 H   0  0  0  0  0  0
  -21.0820   -8.8747   19.8949 H   0  0  0  0  0  0
  -22.3662  -10.9660   19.6175 H   0  0  0  0  0  0
  -21.1997   -7.6144   23.9711 H   0  0  0  0  0  0
  -21.1473   -6.0524   25.9077 H   0  0  0  0  0  0
  -22.0606   -2.7605   23.2854 H   0  0  0  0  0  0
  -22.4077  -11.9880   22.4802 H   0  0  0  0  0  0
  -21.1091  -13.1256   22.2625 H   0  0  0  0  0  0
  -24.6697  -15.8449   20.5132 H   0  0  0  0  0  0
  -26.2893  -15.6106   20.0843 H   0  0  0  0  0  0
  -26.7096  -32.5554   23.1172 H   0  0  0  0  0  0
  -25.0063  -33.9793   25.0496 H   0  0  0  0  0  0
  -22.6859  -31.3090   21.4135 H   0  0  0  0  0  0
  -23.3743  -35.9659   23.3315 H   0  0  0  0  0  0
  -24.3582  -36.8913   22.2049 H   0  0  0  0  0  0
  -23.7246  -37.6533   23.6638 H   0  0  0  0  0  0
  -26.0308  -31.6090   20.5908 H   0  0  0  0  0  0
  -26.8139  -30.8981   21.9748 H   0  0  0  0  0  0
  -28.0971  -29.1329   21.1497 H   0  0  0  0  0  0
  -26.0708  -25.9845   19.0050 H   0  0  0  0  0  0
  -23.9800  -27.2915   19.0376 H   0  0  0  0  0  0
  -23.7099  -30.5976   19.4048 H   0  0  0  0  0  0
  -22.7301  -29.2405   19.8724 H   0  0  0  0  0  0
  -25.1282  -36.1987   25.0834 H   0  0  0  0  0  0
  -20.9947  -28.3217   24.1451 H   0  0  0  0  0  0
  -20.5669  -26.2261   23.3600 H   0  0  0  0  0  0
  -21.6631  -26.7450   22.1210 H   0  0  0  0  0  0
  -19.6902  -25.6303   21.1230 H   0  0  0  0  0  0
  -19.6683  -27.3210   20.6755 H   0  0  0  0  0  0
  -17.4190  -26.6677   21.4024 H   0  0  0  0  0  0
  -18.0318  -26.0060   22.9015 H   0  0  0  0  0  0
  -19.7922  -30.7251   24.2297 H   0  0  0  0  0  0
  -17.5006  -31.6267   24.5164 H   0  0  0  0  0  0
  -15.5341  -30.2999   23.7638 H   0  0  0  0  0  0
  -15.8657  -28.0833   22.7049 H   0  0  0  0  0  0
  -24.5922  -30.7031   25.7818 H   0  0  0  0  0  0
  -24.8931  -32.2844   26.4936 H   0  0  0  0  0  0
  -25.8112  -30.8861   27.0223 H   0  0  0  0  0  0
  -26.2819  -29.6816   24.1138 H   0  0  0  0  0  0
  -27.4092  -29.7276   25.4504 H   0  0  0  0  0  0
  -27.8641  -30.4379   23.9183 H   0  0  0  0  0  0
  -27.2676  -33.3597   26.2090 H   0  0  0  0  0  0
  -28.3841  -32.6888   25.0287 H   0  0  0  0  0  0
  -28.0742  -31.8410   26.5358 H   0  0  0  0  0  0
  -28.2612  -38.0099   24.7505 H   0  0  0  0  0  0
  -28.1063  -36.2631   24.6303 H   0  0  0  0  0  0
  -27.2299  -37.1476   25.8870 H   0  0  0  0  0  0
  -20.9277  -29.8750   21.6967 H   0  0  0  0  0  0
  -26.0189  -38.2879   24.1400 H   0  0  0  0  0  0
  -32.2681  -19.5321   17.3975 H   0  0  0  0  0  0
  -29.1244  -20.6100   20.1440 H   0  0  0  0  0  0
  -31.5654  -23.6684   18.2923 H   0  0  0  0  0  0
  -30.6083  -17.9095   17.9881 H   0  0  0  0  0  0
  -29.5745  -18.2558   20.8498 H   0  0  0  0  0  0
  -33.8110  -21.1911   16.5991 H   0  0  0  0  0  0
  -33.8112  -22.7953   17.3294 H   0  0  0  0  0  0
  -32.7955  -22.4671   15.9211 H   0  0  0  0  0  0
  -28.8131  -25.3056   21.4938 H   0  0  0  0  0  0
  -27.3352  -24.9898   20.6229 H   0  0  0  0  0  0
  -29.0554  -22.9847   20.8524 H   0  0  0  0  0  0
  -30.4926  -16.1854   21.4325 H   0  0  0  0  0  0
  1 25  1  0  0  0
  1 30  2  0  0  0
  1 84  1  0  0  0
  2  3  1  0  0  0
  2 25  1  0  0  0
  2 87  1  0  0  0
  2 88  1  0  0  0
  3  4  1  0  0  0
  3 89  1  0  0  0
  3 90  1  0  0  0
  4  5  1  0  0  0
  4 91  1  0  0  0
  4 92  1  0  0  0
  5  6  1  0  0  0
  5 26  1  0  0  0
  5 93  1  0  0  0
  6 25  1  0  0  0
  6 94  1  0  0  0
  6 95  1  0  0  0
  7  8  2  0  0  0
  7 26  1  0  0  0
  7 29  1  0  0  0
  8  9  1  0  0  0
  8 22  1  0  0  0
  9 10  1  0  0  0
  9 27  2  0  0  0
 10 11  2  0  0  0
 10 15  1  0  0  0
 11 12  1  0  0  0
 11 96  1  0  0  0
 12 13  2  0  0  0
 12 97  1  0  0  0
 13 14  1  0  0  0
 13 31  1  0  0  0
 14 15  2  0  0  0
 14 98  1  0  0  0
 15 99  1  0  0  0
 16 17  2  0  0  0
 16 21  1  0  0  0
 16 31  1  0  0  0
 17 18  1  0  0  0
 17100  1  0  0  0
 18 19  2  0  0  0
 18101  1  0  0  0
 19 20  1  0  0  0
 19 24  1  0  0  0
 20 21  2  0  0  0
 20102  1  0  0  0
 21 23  1  0  0  0
 22 28  1  0  0  0
 22 32  2  0  0  0
 26 27  1  0  0  0
 28103  1  0  0  0
 28104  1  0  0  0
 29105  1  0  0  0
 29106  1  0  0  0
 33 34  1  0  0  0
 33 66  1  0  0  0
 33 70  2  0  0  0
 34 36  1  0  0  0
 34 59  1  0  0  0
 34107  1  0  0  0
 35 44  2  0  0  0
 35 45  1  0  0  0
 35 68  1  0  0  0
 36 56  1  0  0  0
 36108  1  0  0  0
 37 39  1  0  0  0
 37 47  1  0  0  0
 37 66  1  0  0  0
 37109  1  0  0  0
 38 43  2  0  0  0
 38 46  1  0  0  0
 38 47  1  0  0  0
 39 64  1  0  0  0
 39 67  2  0  0  0
 40 52  1  0  0  0
 40 53  2  0  0  0
 40 58  1  0  0  0
 41110  1  0  0  0
 41111  1  0  0  0
 41112  1  0  0  0
 41 48  1  0  0  0
 42 43  1  0  0  0
 42 66  1  0  0  0
 42113  1  0  0  0
 42114  1  0  0  0
 43 44  1  0  0  0
 44115  1  0  0  0
 45 46  2  0  0  0
 45116  1  0  0  0
 46117  1  0  0  0
 47118  1  0  0  0
 47119  1  0  0  0
 48 56  1  0  0  0
 48 65  1  0  0  0
 48120  1  0  0  0
 49 50  1  0  0  0
 49 53  1  0  0  0
 49 64  1  0  0  0
 49121  1  0  0  0
 50 51  1  0  0  0
 50122  1  0  0  0
 50123  1  0  0  0
 51 52  1  0  0  0
 51124  1  0  0  0
 51125  1  0  0  0
 52126  1  0  0  0
 52127  1  0  0  0
 53 54  1  0  0  0
 54 55  2  0  0  0
 54128  1  0  0  0
 55 57  1  0  0  0
 55129  1  0  0  0
 56 69  2  0  0  0
 57 58  2  0  0  0
 57130  1  0  0  0
 58131  1  0  0  0
 59 60  1  0  0  0
 59 61  1  0  0  0
 59 62  1  0  0  0
 60132  1  0  0  0
 60133  1  0  0  0
 60134  1  0  0  0
 61135  1  0  0  0
 61136  1  0  0  0
 61137  1  0  0  0
 62138  1  0  0  0
 62139  1  0  0  0
 62140  1  0  0  0
 63 65  1  0  0  0
 63141  1  0  0  0
 63142  1  0  0  0
 63143  1  0  0  0
 64144  1  0  0  0
 65145  1  0  0  0
 68 82  1  0  0  0
 71 74  2  0  0  0
 71 75  1  0  0  0
 71146  1  0  0  0
 72 74  1  0  0  0
 72 76  2  0  0  0
 72147  1  0  0  0
 73 75  2  0  0  0
 73 76  1  0  0  0
 73148  1  0  0  0
 74 77  1  0  0  0
 75 81  1  0  0  0
 76 83  1  0  0  0
 77 78  2  0  0  0
 77149  1  0  0  0
 78 79  1  0  0  0
 78150  1  0  0  0
 79 84  1  0  0  0
 79 85  2  0  0  0
 80 82  1  0  0  0
 80 83  1  0  0  0
 80 86  2  0  0  0
 81151  1  0  0  0
 81152  1  0  0  0
 81153  1  0  0  0
 82154  1  0  0  0
 82155  1  0  0  0
 83156  1  0  0  0
 84157  1  0  0  0
M  ISO  4   1 100  68 101  82 101  84 100
M  END
> <chiral flag>
0

> <version>
0

> <s_m_source_file>
/data/baiqing/PycharmProjects/Reinvent-master-3.2/result/LINK_invent/BTK/process_docking_weight1_custom_product_contain_oxygen_bond_distance_aromatic_linkinvent_7_9_3/rearranged_h_0074.sdf

> <i_m_source_file_index>
12

> <r_mmod_Potential_Energy-OPLS-2005>
-38.9302597045898

> <r_mmod_Stretch_Energy-OPLS-2005>
33.1626205444336

> <r_mmod_Bend_Energy-OPLS-2005>
103.636734008789

> <r_mmod_Torsional_Energy-OPLS-2005>
334.539306640625

> <r_mmod_Improper_Torsional_Energy-OPLS-2005>
11.0114850997925

> <r_mmod_Van_der_Waal_Energy-OPLS-2005>
161.858993530273

> <r_mmod_Electrostatic_Energy-OPLS-2005>
-458.123748779297

> <r_mmod_Solvation_Energy-OPLS-2005>
-244.605285644531

> <b_mmod_Minimization_Converged-OPLS-2005>
0

> <r_mmod_RMS_Derivative-OPLS-2005>
0.312372148036957

$$$$
12
                    3D
 Structure written by MMmdl.
163172  0  0  1  0            999 V2000
  -30.7584  -14.4673   20.4841 C   0  0  0  0  0  0
  -30.3979  -12.2784   19.4494 C   0  0  0  0  0  0
  -29.4988  -12.4894   18.2153 C   0  0  0  0  0  0
  -28.0170  -12.3665   18.6169 C   0  0  0  0  0  0
  -27.6596  -13.2228   19.8641 C   0  0  2  0  0  0
  -28.7017  -13.0706   20.9980 C   0  0  0  0  0  0
  -25.2571  -13.8183   20.5647 C   0  0  0  0  0  0
  -24.1849  -13.0443   20.9181 C   0  0  0  0  0  0
  -24.6424  -11.6924   20.8726 C   0  0  0  0  0  0
  -23.9082  -10.4306   21.0379 C   0  0  0  0  0  0
  -24.3619   -9.4228   21.9169 C   0  0  0  0  0  0
  -23.6294   -8.2270   22.0758 C   0  0  0  0  0  0
  -22.4276   -8.0299   21.3548 C   0  0  0  0  0  0
  -21.9910   -9.0269   20.4645 C   0  0  0  0  0  0
  -22.7246  -10.2136   20.3043 C   0  0  0  0  0  0
  -21.6854   -6.0753   22.5283 C   0  0  0  0  0  0
  -21.4020   -6.5647   23.8213 C   0  0  0  0  0  0
  -21.3660   -5.6786   24.9170 C   0  0  0  0  0  0
  -21.6041   -4.3053   24.7207 C   0  0  0  0  0  0
  -21.8829   -3.8156   23.4327 C   0  0  0  0  0  0
  -21.9203   -4.6990   22.3386 C   0  0  0  0  0  0
  -22.7870  -13.5224   21.1836 C   0  0  0  0  0  0
  -22.1670   -4.2176   21.0969 F   0  0  0  0  0  0
  -21.5626   -3.4535   25.7715 F   0  0  0  0  0  0
  -30.0369  -13.3143   20.4357 N   0  0  0  0  0  0
  -26.3035  -12.9401   20.3321 N   0  0  0  0  0  0
  -25.9358  -11.6542   20.5753 N   0  0  0  0  0  0
  -22.0497  -12.8210   22.0374 N   0  0  0  0  0  0
  -25.4260  -15.1894   20.4050 N   0  0  0  0  0  0
  -31.9382  -14.4840   20.1281 O   0  0  0  0  0  0
  -21.6651   -6.8900   21.4240 O   0  0  0  0  0  0
  -22.3591  -14.5571   20.6740 O   0  0  0  0  0  0
  -24.6086  -31.8712   23.2174 C   0  0  0  0  0  0
  -25.8981  -32.4871   23.8435 C   0  0  1  0  0  0
  -27.2264  -27.4430   20.1067 C   0  0  0  0  0  0
  -25.5848  -33.8652   24.2365 N   0  0  0  0  0  0
  -23.4016  -30.4963   21.5549 C   0  0  2  0  0  0
  -24.8523  -28.9669   20.1222 C   0  0  0  0  0  0
  -22.7421  -29.4646   22.5016 C   0  0  0  0  0  0
  -18.0283  -28.1342   22.8510 C   0  0  0  0  0  0
  -24.1458  -36.7354   23.2649 C   0  0  0  0  0  0
  -25.9289  -30.8418   21.3749 C   0  0  0  0  0  0
  -26.0093  -29.4703   20.7334 C   0  0  0  0  0  0
  -27.2017  -28.7093   20.7371 C   0  0  0  0  0  0
  -26.0727  -26.9782   19.4444 C   0  0  0  0  0  0
  -24.8787  -27.7166   19.4804 C   0  0  0  0  0  0
  -23.6106  -29.8304   20.1675 C   0  0  0  0  0  0
  -25.4095  -36.3183   24.0360 C   0  0  1  0  0  0
  -20.5857  -28.3647   23.1348 C   0  0  2  0  0  0
  -20.6732  -26.9376   22.5416 C   0  0  0  0  0  0
  -19.5704  -26.6350   21.5202 C   0  0  0  0  0  0
  -18.1902  -26.7899   22.1607 C   0  0  0  0  0  0
  -19.1526  -28.8816   23.2925 C   0  0  0  0  0  0
  -18.9417  -30.1411   23.8953 C   0  0  0  0  0  0
  -17.6413  -30.6535   24.0581 C   0  0  0  0  0  0
  -25.8997  -34.9520   23.5166 C   0  0  0  0  0  0
  -16.5314  -29.9038   23.6316 C   0  0  0  0  0  0
  -16.7271  -28.6444   23.0379 C   0  0  0  0  0  0
  -26.4381  -31.6644   25.0771 C   0  0  0  0  0  0
  -25.3596  -31.3804   26.1505 C   0  0  0  0  0  0
  -27.0294  -30.3117   24.6174 C   0  0  0  0  0  0
  -27.5954  -32.4372   25.7508 C   0  0  0  0  0  0
  -27.5579  -37.1850   24.8480 C   0  0  0  0  0  0
  -21.4151  -29.3050   22.3783 N   0  0  0  0  0  0
  -26.4318  -37.3847   23.9393 N   0  0  0  0  0  0
  -24.6633  -31.0872   22.1035 N   0  0  0  0  0  0
  -23.4205  -28.8123   23.3015 O   0  0  0  0  0  0
  -28.3419  -26.6439   20.1069 O   0  0  0  0  0  0
  -26.5576  -34.8965   22.4741 O   0  0  0  0  0  0
  -23.5281  -32.1368   23.7607 O   0  0  0  0  0  0
  -30.7760  -19.2472   20.7802 C   0  0  0  0  0  0
  -28.6338  -18.2470   21.3576 C   0  0  0  0  0  0
  -30.2877  -20.5256   21.1078 C   0  0  0  0  0  0
  -28.1455  -19.5343   21.6948 C   0  0  0  0  0  0
  -29.9469  -18.1010   20.8554 C   0  0  0  0  0  0
  -28.9553  -20.6839   21.5388 C   0  0  0  0  0  0
  -28.3536  -24.1170   23.0426 C   0  0  0  0  0  0
  -30.4530  -16.8194   20.2367 C   0  0  0  0  0  0
  -29.0419  -22.7601   22.7919 C   0  0  0  0  0  0
  -27.2920  -23.8758   20.7211 C   0  0  0  0  0  0
  -28.2683  -22.7122   20.4919 C   0  0  0  0  0  0
  -27.6659  -24.8700   21.8625 C   0  0  1  0  0  0
  -26.3560  -25.4817   22.4372 C   0  0  0  0  0  0
  -28.6435  -25.9948   21.3573 C   0  0  0  0  0  0
  -28.4127  -21.9657   21.7339 N   0  0  0  0  0  0
  -30.0902  -15.6160   20.7460 N   0  0  0  0  0  0
  -28.3911  -24.6112   24.1728 O   0  0  0  0  0  0
  -31.2007  -16.9506   19.2571 O   0  0  0  0  0  0
  -31.4480  -12.3080   19.1542 H   0  0  0  0  0  0
  -30.2456  -11.2826   19.8678 H   0  0  0  0  0  0
  -29.7371  -11.7576   17.4417 H   0  0  0  0  0  0
  -29.6871  -13.4696   17.7732 H   0  0  0  0  0  0
  -27.8215  -11.3131   18.8190 H   0  0  0  0  0  0
  -27.3770  -12.6406   17.7772 H   0  0  0  0  0  0
  -27.6852  -14.2625   19.5352 H   0  0  0  0  0  0
  -28.6599  -12.0695   21.4290 H   0  0  0  0  0  0
  -28.4836  -13.7599   21.8148 H   0  0  0  0  0  0
  -25.2765   -9.5724   22.4743 H   0  0  0  0  0  0
  -24.0017   -7.4676   22.7475 H   0  0  0  0  0  0
  -21.0852   -8.8768   19.8949 H   0  0  0  0  0  0
  -22.3695  -10.9671   19.6150 H   0  0  0  0  0  0
  -21.2007   -7.6157   23.9716 H   0  0  0  0  0  0
  -21.1467   -6.0521   25.9064 H   0  0  0  0  0  0
  -22.0605   -2.7631   23.2814 H   0  0  0  0  0  0
  -22.4070  -11.9845   22.4755 H   0  0  0  0  0  0
  -21.1143  -13.1307   22.2597 H   0  0  0  0  0  0
  -24.6389  -15.8266   20.4654 H   0  0  0  0  0  0
  -26.2527  -15.6153   20.0051 H   0  0  0  0  0  0
  -26.7089  -32.5651   23.1232 H   0  0  0  0  0  0
  -25.0063  -33.9724   25.0576 H   0  0  0  0  0  0
  -22.6944  -31.3177   21.4230 H   0  0  0  0  0  0
  -23.3746  -35.9648   23.3333 H   0  0  0  0  0  0
  -24.3554  -36.8940   22.2055 H   0  0  0  0  0  0
  -23.7152  -37.6555   23.6621 H   0  0  0  0  0  0
  -26.0392  -31.6032   20.6006 H   0  0  0  0  0  0
  -26.8130  -30.9033   21.9983 H   0  0  0  0  0  0
  -28.0991  -29.0839   21.2110 H   0  0  0  0  0  0
  -26.0862  -26.0363   18.9164 H   0  0  0  0  0  0
  -23.9971  -27.3367   18.9850 H   0  0  0  0  0  0
  -23.7095  -30.6012   19.4000 H   0  0  0  0  0  0
  -22.7333  -29.2445   19.8849 H   0  0  0  0  0  0
  -25.1251  -36.2092   25.0853 H   0  0  0  0  0  0
  -20.9980  -28.3168   24.1462 H   0  0  0  0  0  0
  -20.5633  -26.2254   23.3611 H   0  0  0  0  0  0
  -21.6596  -26.7391   22.1194 H   0  0  0  0  0  0
  -19.6847  -25.6265   21.1222 H   0  0  0  0  0  0
  -19.6594  -27.3151   20.6720 H   0  0  0  0  0  0
  -17.4169  -26.6729   21.3987 H   0  0  0  0  0  0
  -18.0263  -25.9991   22.8951 H   0  0  0  0  0  0
  -19.7885  -30.7212   24.2362 H   0  0  0  0  0  0
  -17.4952  -31.6211   24.5174 H   0  0  0  0  0  0
  -15.5312  -30.2937   23.7617 H   0  0  0  0  0  0
  -15.8672  -28.0751   22.7138 H   0  0  0  0  0  0
  -24.5704  -30.7262   25.7784 H   0  0  0  0  0  0
  -24.8864  -32.3011   26.4919 H   0  0  0  0  0  0
  -25.7794  -30.8908   27.0309 H   0  0  0  0  0  0
  -26.2926  -29.6882   24.1115 H   0  0  0  0  0  0
  -27.4027  -29.7331   25.4637 H   0  0  0  0  0  0
  -27.8699  -30.4528   23.9388 H   0  0  0  0  0  0
  -27.2582  -33.3684   26.2065 H   0  0  0  0  0  0
  -28.3691  -32.6934   25.0267 H   0  0  0  0  0  0
  -28.0682  -31.8546   26.5420 H   0  0  0  0  0  0
  -28.2663  -38.0101   24.7531 H   0  0  0  0  0  0
  -28.1024  -36.2652   24.6301 H   0  0  0  0  0  0
  -27.2294  -37.1478   25.8889 H   0  0  0  0  0  0
  -20.9325  -29.8968   21.7165 H   0  0  0  0  0  0
  -26.0255  -38.2955   24.1357 H   0  0  0  0  0  0
  -31.7866  -19.1645   20.4023 H   0  0  0  0  0  0
  -27.9769  -17.3921   21.4269 H   0  0  0  0  0  0
  -30.9289  -21.3848   20.9645 H   0  0  0  0  0  0
  -27.1207  -19.6344   22.0238 H   0  0  0  0  0  0
  -29.0201  -22.1988   23.7260 H   0  0  0  0  0  0
  -30.0911  -22.9564   22.5644 H   0  0  0  0  0  0
  -26.3026  -23.4582   20.9129 H   0  0  0  0  0  0
  -27.1887  -24.4108   19.7816 H   0  0  0  0  0  0
  -29.2379  -23.0906   20.1568 H   0  0  0  0  0  0
  -27.8977  -22.0619   19.6973 H   0  0  0  0  0  0
  -25.8474  -24.8001   23.1225 H   0  0  0  0  0  0
  -25.6217  -25.7167   21.6728 H   0  0  0  0  0  0
  -26.5599  -26.4028   22.9820 H   0  0  0  0  0  0
  -28.7525  -26.7563   22.1312 H   0  0  0  0  0  0
  -29.6397  -25.5669   21.2375 H   0  0  0  0  0  0
  -29.2636  -15.5662   21.3164 H   0  0  0  0  0  0
  1 25  1  0  0  0
  1 30  2  0  0  0
  1 86  1  0  0  0
  2  3  1  0  0  0
  2 25  1  0  0  0
  2 89  1  0  0  0
  2 90  1  0  0  0
  3  4  1  0  0  0
  3 91  1  0  0  0
  3 92  1  0  0  0
  4  5  1  0  0  0
  4 93  1  0  0  0
  4 94  1  0  0  0
  5  6  1  0  0  0
  5 26  1  0  0  0
  5 95  1  0  0  0
  6 25  1  0  0  0
  6 96  1  0  0  0
  6 97  1  0  0  0
  7  8  2  0  0  0
  7 26  1  0  0  0
  7 29  1  0  0  0
  8  9  1  0  0  0
  8 22  1  0  0  0
  9 10  1  0  0  0
  9 27  2  0  0  0
 10 11  2  0  0  0
 10 15  1  0  0  0
 11 12  1  0  0  0
 11 98  1  0  0  0
 12 13  2  0  0  0
 12 99  1  0  0  0
 13 14  1  0  0  0
 13 31  1  0  0  0
 14 15  2  0  0  0
 14100  1  0  0  0
 15101  1  0  0  0
 16 17  2  0  0  0
 16 21  1  0  0  0
 16 31  1  0  0  0
 17 18  1  0  0  0
 17102  1  0  0  0
 18 19  2  0  0  0
 18103  1  0  0  0
 19 20  1  0  0  0
 19 24  1  0  0  0
 20 21  2  0  0  0
 20104  1  0  0  0
 21 23  1  0  0  0
 22 28  1  0  0  0
 22 32  2  0  0  0
 26 27  1  0  0  0
 28105  1  0  0  0
 28106  1  0  0  0
 29107  1  0  0  0
 29108  1  0  0  0
 33 34  1  0  0  0
 33 66  1  0  0  0
 33 70  2  0  0  0
 34 36  1  0  0  0
 34 59  1  0  0  0
 34109  1  0  0  0
 35 44  2  0  0  0
 35 45  1  0  0  0
 35 68  1  0  0  0
 36 56  1  0  0  0
 36110  1  0  0  0
 37 39  1  0  0  0
 37 47  1  0  0  0
 37 66  1  0  0  0
 37111  1  0  0  0
 38 43  2  0  0  0
 38 46  1  0  0  0
 38 47  1  0  0  0
 39 64  1  0  0  0
 39 67  2  0  0  0
 40 52  1  0  0  0
 40 53  2  0  0  0
 40 58  1  0  0  0
 41112  1  0  0  0
 41113  1  0  0  0
 41114  1  0  0  0
 41 48  1  0  0  0
 42 43  1  0  0  0
 42 66  1  0  0  0
 42115  1  0  0  0
 42116  1  0  0  0
 43 44  1  0  0  0
 44117  1  0  0  0
 45 46  2  0  0  0
 45118  1  0  0  0
 46119  1  0  0  0
 47120  1  0  0  0
 47121  1  0  0  0
 48 56  1  0  0  0
 48 65  1  0  0  0
 48122  1  0  0  0
 49 50  1  0  0  0
 49 53  1  0  0  0
 49 64  1  0  0  0
 49123  1  0  0  0
 50 51  1  0  0  0
 50124  1  0  0  0
 50125  1  0  0  0
 51 52  1  0  0  0
 51126  1  0  0  0
 51127  1  0  0  0
 52128  1  0  0  0
 52129  1  0  0  0
 53 54  1  0  0  0
 54 55  2  0  0  0
 54130  1  0  0  0
 55 57  1  0  0  0
 55131  1  0  0  0
 56 69  2  0  0  0
 57 58  2  0  0  0
 57132  1  0  0  0
 58133  1  0  0  0
 59 60  1  0  0  0
 59 61  1  0  0  0
 59 62  1  0  0  0
 60134  1  0  0  0
 60135  1  0  0  0
 60136  1  0  0  0
 61137  1  0  0  0
 61138  1  0  0  0
 61139  1  0  0  0
 62140  1  0  0  0
 62141  1  0  0  0
 62142  1  0  0  0
 63 65  1  0  0  0
 63143  1  0  0  0
 63144  1  0  0  0
 63145  1  0  0  0
 64146  1  0  0  0
 65147  1  0  0  0
 68 84  1  0  0  0
 71 73  2  0  0  0
 71 75  1  0  0  0
 71148  1  0  0  0
 72 74  1  0  0  0
 72 75  2  0  0  0
 72149  1  0  0  0
 73 76  1  0  0  0
 73150  1  0  0  0
 74 76  2  0  0  0
 74151  1  0  0  0
 75 78  1  0  0  0
 76 85  1  0  0  0
 77 79  1  0  0  0
 77 82  1  0  0  0
 77 87  2  0  0  0
 78 86  1  0  0  0
 78 88  2  0  0  0
 79 85  1  0  0  0
 79152  1  0  0  0
 79153  1  0  0  0
 80 81  1  0  0  0
 80 82  1  0  0  0
 80154  1  0  0  0
 80155  1  0  0  0
 81 85  1  0  0  0
 81156  1  0  0  0
 81157  1  0  0  0
 82 83  1  0  0  0
 82 84  1  0  0  0
 83158  1  0  0  0
 83159  1  0  0  0
 83160  1  0  0  0
 84161  1  0  0  0
 84162  1  0  0  0
 86163  1  0  0  0
M  ISO  4   1 100  68 101  84 101  86 100
M  END
> <chiral flag>
0

> <version>
0

> <s_m_source_file>
/data/baiqing/PycharmProjects/Reinvent-master-3.2/result/LINK_invent/BTK/process_docking_weight1_custom_product_contain_oxygen_bond_distance_aromatic_linkinvent_7_9_3/rearranged_h_0074.sdf

> <i_m_source_file_index>
13

> <r_mmod_Potential_Energy-OPLS-2005>
43.656566619873

> <r_mmod_Stretch_Energy-OPLS-2005>
42.8940162658691

> <r_mmod_Bend_Energy-OPLS-2005>
110.287139892578

> <r_mmod_Torsional_Energy-OPLS-2005>
320.155975341797

> <r_mmod_Improper_Torsional_Energy-OPLS-2005>
10.7216396331787

> <r_mmod_Van_der_Waal_Energy-OPLS-2005>
171.579345703125

> <r_mmod_Electrostatic_Energy-OPLS-2005>
-396.455169677734

> <r_mmod_Solvation_Energy-OPLS-2005>
-239.105026245117

> <b_mmod_Minimization_Converged-OPLS-2005>
0

> <r_mmod_RMS_Derivative-OPLS-2005>
5.4153790473938

$$$$
13
                    3D
 Structure written by MMmdl.
172180  0  0  1  0            999 V2000
  -30.6085  -14.4865   20.5453 C   0  0  0  0  0  0
  -30.4560  -12.3091   19.3934 C   0  0  0  0  0  0
  -29.5052  -12.4811   18.1887 C   0  0  0  0  0  0
  -28.0232  -12.3330   18.6026 C   0  0  0  0  0  0
  -27.6589  -13.1656   19.8617 C   0  0  2  0  0  0
  -28.7048  -12.9109   20.9754 C   0  0  0  0  0  0
  -25.2573  -13.7982   20.5713 C   0  0  0  0  0  0
  -24.1793  -13.0317   20.9208 C   0  0  0  0  0  0
  -24.6324  -11.6784   20.8708 C   0  0  0  0  0  0
  -23.9001  -10.4187   21.0395 C   0  0  0  0  0  0
  -24.3610   -9.4092   21.9155 C   0  0  0  0  0  0
  -23.6235   -8.2169   22.0805 C   0  0  0  0  0  0
  -22.4198   -8.0222   21.3594 C   0  0  0  0  0  0
  -21.9834   -9.0193   20.4689 C   0  0  0  0  0  0
  -22.7192  -10.2039   20.3053 C   0  0  0  0  0  0
  -21.6787   -6.0655   22.5264 C   0  0  0  0  0  0
  -21.3935   -6.5582   23.8183 C   0  0  0  0  0  0
  -21.3688   -5.6757   24.9161 C   0  0  0  0  0  0
  -21.6088   -4.3017   24.7222 C   0  0  0  0  0  0
  -21.8837   -3.8088   23.4340 C   0  0  0  0  0  0
  -21.9200   -4.6897   22.3378 C   0  0  0  0  0  0
  -22.7861  -13.5172   21.1893 C   0  0  0  0  0  0
  -22.1702   -4.2113   21.0945 F   0  0  0  0  0  0
  -21.5644   -3.4527   25.7752 F   0  0  0  0  0  0
  -30.0307  -13.2596   20.4240 N   0  0  0  0  0  0
  -26.2961  -12.9112   20.3214 N   0  0  0  0  0  0
  -25.9192  -11.6308   20.5580 N   0  0  0  0  0  0
  -22.0427  -12.8209   22.0428 N   0  0  0  0  0  0
  -25.4207  -15.1696   20.4411 N   0  0  0  0  0  0
  -31.7568  -14.7507   20.1685 O   0  0  0  0  0  0
  -21.6589   -6.8802   21.4223 O   0  0  0  0  0  0
  -22.3620  -14.5556   20.6780 O   0  0  0  0  0  0
  -24.6134  -31.8741   23.2145 C   0  0  0  0  0  0
  -25.9054  -32.4837   23.8438 C   0  0  1  0  0  0
  -27.2484  -27.4835   20.0899 C   0  0  0  0  0  0
  -25.5921  -33.8634   24.2383 N   0  0  0  0  0  0
  -23.3951  -30.4931   21.5588 C   0  0  2  0  0  0
  -24.8399  -28.9627   20.1200 C   0  0  0  0  0  0
  -22.7403  -29.4672   22.5093 C   0  0  0  0  0  0
  -18.0264  -28.1369   22.8484 C   0  0  0  0  0  0
  -24.1508  -36.7314   23.2631 C   0  0  0  0  0  0
  -25.9154  -30.8511   21.3601 C   0  0  0  0  0  0
  -25.9928  -29.4868   20.7135 C   0  0  0  0  0  0
  -27.1929  -28.7511   20.7039 C   0  0  0  0  0  0
  -26.0749  -26.9542   19.5097 C   0  0  0  0  0  0
  -24.8717  -27.6889   19.5259 C   0  0  0  0  0  0
  -23.5974  -29.8241   20.1714 C   0  0  0  0  0  0
  -25.4088  -36.3100   24.0353 C   0  0  1  0  0  0
  -20.5855  -28.3633   23.1366 C   0  0  2  0  0  0
  -20.6781  -26.9366   22.5466 C   0  0  0  0  0  0
  -19.5747  -26.6363   21.5268 C   0  0  0  0  0  0
  -18.1908  -26.7912   22.1629 C   0  0  0  0  0  0
  -19.1513  -28.8823   23.2918 C   0  0  0  0  0  0
  -18.9425  -30.1445   23.8912 C   0  0  0  0  0  0
  -17.6419  -30.6560   24.0570 C   0  0  0  0  0  0
  -25.9025  -34.9480   23.5163 C   0  0  0  0  0  0
  -16.5321  -29.9051   23.6328 C   0  0  0  0  0  0
  -16.7253  -28.6486   23.0320 C   0  0  0  0  0  0
  -26.4455  -31.6574   25.0747 C   0  0  0  0  0  0
  -25.3716  -31.3696   26.1507 C   0  0  0  0  0  0
  -27.0245  -30.2999   24.6101 C   0  0  0  0  0  0
  -27.6115  -32.4229   25.7428 C   0  0  0  0  0  0
  -27.5581  -37.1780   24.8436 C   0  0  0  0  0  0
  -21.4141  -29.3011   22.3814 N   0  0  0  0  0  0
  -26.4263  -37.3787   23.9420 N   0  0  0  0  0  0
  -24.6579  -31.0893   22.1015 N   0  0  0  0  0  0
  -23.4212  -28.8256   23.3149 O   0  0  0  0  0  0
  -28.4768  -26.8631   20.0916 O   0  0  0  0  0  0
  -26.5588  -34.8922   22.4729 O   0  0  0  0  0  0
  -23.5360  -32.1497   23.7576 O   0  0  0  0  0  0
  -30.4172  -19.0149   21.7427 C   0  0  0  0  0  0
  -30.7060  -17.6452   21.4981 C   0  0  0  0  0  0
  -28.1994  -18.7174   20.7828 C   0  0  0  0  0  0
  -29.1354  -19.5460   21.4386 C   0  0  0  0  0  0
  -29.7091  -16.8174   20.9321 C   0  0  0  0  0  0
  -28.4953  -17.3836   20.5113 C   0  0  0  0  0  0
  -28.6944  -20.9050   21.7941 C   0  0  0  0  0  0
  -28.2949  -24.5220   20.6108 C   0  0  0  0  0  0
  -30.1582  -25.4834   19.2140 C   0  0  0  0  0  0
  -24.4413  -23.4355   20.7633 C   0  0  0  0  0  0
  -24.8102  -21.1738   21.7357 C   0  0  0  0  0  0
  -25.3490  -21.6108   19.3115 C   0  0  0  0  0  0
  -28.6634  -25.5644   19.5465 C   0  0  2  0  0  0
  -26.8293  -22.6078   21.1642 C   0  0  2  0  0  0
  -25.3770  -22.2084   20.7412 C   0  0  0  0  0  0
  -29.1942  -21.5397   22.8561 N   0  0  0  0  0  0
  -29.7141  -15.4017   20.9321 N   0  0  0  0  0  0
  -27.3361  -23.6491   20.2917 N   0  0  0  0  0  0
  -27.7250  -21.4452   21.0301 N   0  3  0  0  0  0
  -28.8874  -24.4982   21.6948 O   0  0  0  0  0  0
  -27.5719  -16.6132   19.8939 F   0  0  0  0  0  0
  -31.4908  -12.4700   19.0816 H   0  0  0  0  0  0
  -30.4189  -11.2868   19.7718 H   0  0  0  0  0  0
  -29.7501  -11.7599   17.4087 H   0  0  0  0  0  0
  -29.6639  -13.4646   17.7429 H   0  0  0  0  0  0
  -27.8346  -11.2750   18.7940 H   0  0  0  0  0  0
  -27.3823  -12.6045   17.7614 H   0  0  0  0  0  0
  -27.6989  -14.2060   19.5557 H   0  0  0  0  0  0
  -28.6907  -11.8640   21.2827 H   0  0  0  0  0  0
  -28.4665  -13.4679   21.8811 H   0  0  0  0  0  0
  -25.2781   -9.5533   22.4692 H   0  0  0  0  0  0
  -23.9929   -7.4543   22.7534 H   0  0  0  0  0  0
  -21.0767   -8.8691   19.9004 H   0  0  0  0  0  0
  -22.3662  -10.9567   19.6162 H   0  0  0  0  0  0
  -21.1838   -7.6084   23.9651 H   0  0  0  0  0  0
  -21.1562   -6.0496   25.9079 H   0  0  0  0  0  0
  -22.0631   -2.7553   23.2839 H   0  0  0  0  0  0
  -22.3941  -11.9787   22.4759 H   0  0  0  0  0  0
  -21.1099  -13.1360   22.2698 H   0  0  0  0  0  0
  -24.6947  -15.8276   20.6978 H   0  0  0  0  0  0
  -26.2620  -15.6308   20.1046 H   0  0  0  0  0  0
  -26.7174  -32.5580   23.1254 H   0  0  0  0  0  0
  -25.0054  -33.9825   25.0517 H   0  0  0  0  0  0
  -22.6794  -31.3061   21.4270 H   0  0  0  0  0  0
  -23.3777  -35.9649   23.3240 H   0  0  0  0  0  0
  -24.3649  -36.8991   22.2069 H   0  0  0  0  0  0
  -23.7243  -37.6484   23.6697 H   0  0  0  0  0  0
  -26.0276  -31.6142   20.5907 H   0  0  0  0  0  0
  -26.8057  -30.9132   21.9712 H   0  0  0  0  0  0
  -28.0835  -29.1588   21.1629 H   0  0  0  0  0  0
  -26.0642  -25.9874   19.0363 H   0  0  0  0  0  0
  -23.9842  -27.2732   19.0711 H   0  0  0  0  0  0
  -23.6872  -30.6028   19.4120 H   0  0  0  0  0  0
  -22.7214  -29.2360   19.8939 H   0  0  0  0  0  0
  -25.1229  -36.1966   25.0837 H   0  0  0  0  0  0
  -20.9907  -28.3198   24.1504 H   0  0  0  0  0  0
  -20.5739  -26.2216   23.3651 H   0  0  0  0  0  0
  -21.6647  -26.7477   22.1218 H   0  0  0  0  0  0
  -19.6923  -25.6302   21.1252 H   0  0  0  0  0  0
  -19.6658  -27.3208   20.6839 H   0  0  0  0  0  0
  -17.4198  -26.6713   21.4003 H   0  0  0  0  0  0
  -18.0224  -26.0049   22.9004 H   0  0  0  0  0  0
  -19.7890  -30.7286   24.2258 H   0  0  0  0  0  0
  -17.4946  -31.6231   24.5166 H   0  0  0  0  0  0
  -15.5318  -30.2914   23.7651 H   0  0  0  0  0  0
  -15.8669  -28.0814   22.6969 H   0  0  0  0  0  0
  -24.5840  -30.7104   25.7806 H   0  0  0  0  0  0
  -24.8961  -32.2889   26.4969 H   0  0  0  0  0  0
  -25.8046  -30.8794   27.0251 H   0  0  0  0  0  0
  -26.2790  -29.6755   24.1158 H   0  0  0  0  0  0
  -27.4012  -29.7209   25.4545 H   0  0  0  0  0  0
  -27.8639  -30.4268   23.9251 H   0  0  0  0  0  0
  -27.2836  -33.3553   26.2039 H   0  0  0  0  0  0
  -28.3858  -32.6734   25.0154 H   0  0  0  0  0  0
  -28.0856  -31.8301   26.5267 H   0  0  0  0  0  0
  -28.2540  -38.0124   24.7570 H   0  0  0  0  0  0
  -28.1141  -36.2693   24.6116 H   0  0  0  0  0  0
  -27.2387  -37.1265   25.8855 H   0  0  0  0  0  0
  -20.9340  -29.8648   21.6939 H   0  0  0  0  0  0
  -26.0156  -38.2872   24.1423 H   0  0  0  0  0  0
  -31.1662  -19.6332   22.2172 H   0  0  0  0  0  0
  -31.6577  -17.2315   21.8016 H   0  0  0  0  0  0
  -27.2122  -19.0665   20.5176 H   0  0  0  0  0  0
  -30.4167  -24.5124   18.7912 H   0  0  0  0  0  0
  -30.7656  -25.6433   20.1050 H   0  0  0  0  0  0
  -30.4349  -26.2492   18.4920 H   0  0  0  0  0  0
  -23.4076  -23.1563   20.5618 H   0  0  0  0  0  0
  -24.7095  -24.1773   20.0140 H   0  0  0  0  0  0
  -24.4567  -23.9345   21.7312 H   0  0  0  0  0  0
  -23.7865  -20.8939   21.4841 H   0  0  0  0  0  0
  -24.7830  -21.5770   22.7487 H   0  0  0  0  0  0
  -25.3941  -20.2547   21.7637 H   0  0  0  0  0  0
  -24.3613  -21.2260   19.0586 H   0  0  0  0  0  0
  -26.0375  -20.7766   19.1899 H   0  0  0  0  0  0
  -25.6014  -22.3500   18.5509 H   0  0  0  0  0  0
  -28.1046  -25.4126   18.6230 H   0  0  0  0  0  0
  -26.8026  -22.9638   22.1971 H   0  0  0  0  0  0
  -29.8587  -21.0676   23.4514 H   0  0  0  0  0  0
  -29.0720  -22.5326   22.9962 H   0  0  0  0  0  0
  -28.7815  -15.0131   21.0118 H   0  0  0  0  0  0
  -26.8802  -23.7548   19.3967 H   0  0  0  0  0  0
  -27.5434  -20.9290   20.1847 H   0  0  0  0  0  0
  1 25  1  0  0  0
  1 30  2  0  0  0
  1 87  1  0  0  0
  2  3  1  0  0  0
  2 25  1  0  0  0
  2 92  1  0  0  0
  2 93  1  0  0  0
  3  4  1  0  0  0
  3 94  1  0  0  0
  3 95  1  0  0  0
  4  5  1  0  0  0
  4 96  1  0  0  0
  4 97  1  0  0  0
  5  6  1  0  0  0
  5 26  1  0  0  0
  5 98  1  0  0  0
  6 25  1  0  0  0
  6 99  1  0  0  0
  6100  1  0  0  0
  7  8  2  0  0  0
  7 26  1  0  0  0
  7 29  1  0  0  0
  8  9  1  0  0  0
  8 22  1  0  0  0
  9 10  1  0  0  0
  9 27  2  0  0  0
 10 11  2  0  0  0
 10 15  1  0  0  0
 11 12  1  0  0  0
 11101  1  0  0  0
 12 13  2  0  0  0
 12102  1  0  0  0
 13 14  1  0  0  0
 13 31  1  0  0  0
 14 15  2  0  0  0
 14103  1  0  0  0
 15104  1  0  0  0
 16 17  2  0  0  0
 16 21  1  0  0  0
 16 31  1  0  0  0
 17 18  1  0  0  0
 17105  1  0  0  0
 18 19  2  0  0  0
 18106  1  0  0  0
 19 20  1  0  0  0
 19 24  1  0  0  0
 20 21  2  0  0  0
 20107  1  0  0  0
 21 23  1  0  0  0
 22 28  1  0  0  0
 22 32  2  0  0  0
 26 27  1  0  0  0
 28108  1  0  0  0
 28109  1  0  0  0
 29110  1  0  0  0
 29111  1  0  0  0
 33 34  1  0  0  0
 33 66  1  0  0  0
 33 70  2  0  0  0
 34 36  1  0  0  0
 34 59  1  0  0  0
 34112  1  0  0  0
 35 44  2  0  0  0
 35 45  1  0  0  0
 35 68  1  0  0  0
 36 56  1  0  0  0
 36113  1  0  0  0
 37 39  1  0  0  0
 37 47  1  0  0  0
 37 66  1  0  0  0
 37114  1  0  0  0
 38 43  2  0  0  0
 38 46  1  0  0  0
 38 47  1  0  0  0
 39 64  1  0  0  0
 39 67  2  0  0  0
 40 52  1  0  0  0
 40 53  2  0  0  0
 40 58  1  0  0  0
 41115  1  0  0  0
 41116  1  0  0  0
 41117  1  0  0  0
 41 48  1  0  0  0
 42 43  1  0  0  0
 42 66  1  0  0  0
 42118  1  0  0  0
 42119  1  0  0  0
 43 44  1  0  0  0
 44120  1  0  0  0
 45 46  2  0  0  0
 45121  1  0  0  0
 46122  1  0  0  0
 47123  1  0  0  0
 47124  1  0  0  0
 48 56  1  0  0  0
 48 65  1  0  0  0
 48125  1  0  0  0
 49 50  1  0  0  0
 49 53  1  0  0  0
 49 64  1  0  0  0
 49126  1  0  0  0
 50 51  1  0  0  0
 50127  1  0  0  0
 50128  1  0  0  0
 51 52  1  0  0  0
 51129  1  0  0  0
 51130  1  0  0  0
 52131  1  0  0  0
 52132  1  0  0  0
 53 54  1  0  0  0
 54 55  2  0  0  0
 54133  1  0  0  0
 55 57  1  0  0  0
 55134  1  0  0  0
 56 69  2  0  0  0
 57 58  2  0  0  0
 57135  1  0  0  0
 58136  1  0  0  0
 59 60  1  0  0  0
 59 61  1  0  0  0
 59 62  1  0  0  0
 60137  1  0  0  0
 60138  1  0  0  0
 60139  1  0  0  0
 61140  1  0  0  0
 61141  1  0  0  0
 61142  1  0  0  0
 62143  1  0  0  0
 62144  1  0  0  0
 62145  1  0  0  0
 63 65  1  0  0  0
 63146  1  0  0  0
 63147  1  0  0  0
 63148  1  0  0  0
 64149  1  0  0  0
 65150  1  0  0  0
 68 83  1  0  0  0
 71 72  2  0  0  0
 71 74  1  0  0  0
 71151  1  0  0  0
 72 75  1  0  0  0
 72152  1  0  0  0
 73 74  2  0  0  0
 73 76  1  0  0  0
 73153  1  0  0  0
 74 77  1  0  0  0
 75 76  2  0  0  0
 75 87  1  0  0  0
 76 91  1  0  0  0
 77 86  1  0  0  0
 77 89  2  0  0  0
 78 83  1  0  0  0
 78 88  1  0  0  0
 78 90  2  0  0  0
 79154  1  0  0  0
 79155  1  0  0  0
 79156  1  0  0  0
 79 83  1  0  0  0
 80157  1  0  0  0
 80158  1  0  0  0
 80159  1  0  0  0
 80 85  1  0  0  0
 81 85  1  0  0  0
 81160  1  0  0  0
 81161  1  0  0  0
 81162  1  0  0  0
 82 85  1  0  0  0
 82163  1  0  0  0
 82164  1  0  0  0
 82165  1  0  0  0
 83166  1  0  0  0
 84 85  1  0  0  0
 84 88  1  0  0  0
 84 89  1  0  0  0
 84167  1  0  0  0
 86168  1  0  0  0
 86169  1  0  0  0
 87170  1  0  0  0
 88171  1  0  0  0
 89172  1  0  0  0
M  CHG  1  89   1
M  ISO  4   1 100  68 101  83 101  87 100
M  END
> <chiral flag>
0

> <version>
0

> <s_m_source_file>
/data/baiqing/PycharmProjects/Reinvent-master-3.2/result/LINK_invent/BTK/process_docking_weight1_custom_product_contain_oxygen_bond_distance_aromatic_linkinvent_7_9_3/rearranged_h_0074.sdf

> <i_m_source_file_index>
14

> <r_mmod_Potential_Energy-OPLS-2005>
-416.830810546875

> <r_mmod_Stretch_Energy-OPLS-2005>
35.4158821105957

> <r_mmod_Bend_Energy-OPLS-2005>
143.193832397461

> <r_mmod_Torsional_Energy-OPLS-2005>
248.908279418945

> <r_mmod_Improper_Torsional_Energy-OPLS-2005>
7.27231550216675

> <r_mmod_Van_der_Waal_Energy-OPLS-2005>
162.458770751953

> <r_mmod_Electrostatic_Energy-OPLS-2005>
-610.241455078125

> <r_mmod_Solvation_Energy-OPLS-2005>
-422.708282470703

> <b_mmod_Minimization_Converged-OPLS-2005>
0

> <r_mmod_RMS_Derivative-OPLS-2005>
7.87842988967896

$$$$
14
                    3D
 Structure written by MMmdl.
175184  0  0  1  0            999 V2000
  -30.6208  -14.4740   20.6428 C   0  0  0  0  0  0
  -30.4556  -12.3342   19.3976 C   0  0  0  0  0  0
  -29.5071  -12.5120   18.1924 C   0  0  0  0  0  0
  -28.0254  -12.3529   18.6068 C   0  0  0  0  0  0
  -27.6641  -13.1787   19.8720 C   0  0  2  0  0  0
  -28.7073  -12.9089   20.9771 C   0  0  0  0  0  0
  -25.2619  -13.8013   20.5545 C   0  0  0  0  0  0
  -24.1859  -13.0366   20.9142 C   0  0  0  0  0  0
  -24.6385  -11.6831   20.8743 C   0  0  0  0  0  0
  -23.9010  -10.4272   21.0427 C   0  0  0  0  0  0
  -24.3567   -9.4207   21.9219 C   0  0  0  0  0  0
  -23.6245   -8.2244   22.0790 C   0  0  0  0  0  0
  -22.4244   -8.0285   21.3566 C   0  0  0  0  0  0
  -21.9867   -9.0246   20.4675 C   0  0  0  0  0  0
  -22.7176  -10.2125   20.3079 C   0  0  0  0  0  0
  -21.6836   -6.0736   22.5287 C   0  0  0  0  0  0
  -21.4003   -6.5648   23.8220 C   0  0  0  0  0  0
  -21.3644   -5.6802   24.9193 C   0  0  0  0  0  0
  -21.6039   -4.3063   24.7238 C   0  0  0  0  0  0
  -21.8817   -3.8155   23.4357 C   0  0  0  0  0  0
  -21.9195   -4.6974   22.3421 C   0  0  0  0  0  0
  -22.7885  -13.5241   21.1770 C   0  0  0  0  0  0
  -22.1656   -4.2158   21.0989 F   0  0  0  0  0  0
  -21.5623   -3.4545   25.7748 F   0  0  0  0  0  0
  -30.0183  -13.2796   20.4304 N   0  0  0  0  0  0
  -26.3044  -12.9151   20.3302 N   0  0  0  0  0  0
  -25.9309  -11.6356   20.5780 N   0  0  0  0  0  0
  -22.0445  -12.8324   22.0326 N   0  0  0  0  0  0
  -25.4268  -15.1678   20.3766 N   0  0  0  0  0  0
  -31.7796  -14.7231   20.2907 O   0  0  0  0  0  0
  -21.6615   -6.8872   21.4242 O   0  0  0  0  0  0
  -22.3622  -14.5554   20.6593 O   0  0  0  0  0  0
  -24.6165  -31.8710   23.2081 C   0  0  0  0  0  0
  -25.9071  -32.4823   23.8364 C   0  0  1  0  0  0
  -27.2384  -27.4581   20.0441 C   0  0  0  0  0  0
  -25.5946  -33.8616   24.2323 N   0  0  0  0  0  0
  -23.3998  -30.5004   21.5491 C   0  0  2  0  0  0
  -24.8434  -28.9588   20.1215 C   0  0  0  0  0  0
  -22.7384  -29.4770   22.5015 C   0  0  0  0  0  0
  -18.0316  -28.1329   22.8497 C   0  0  0  0  0  0
  -24.1506  -36.7302   23.2641 C   0  0  0  0  0  0
  -25.9326  -30.8317   21.3667 C   0  0  0  0  0  0
  -26.0055  -29.4642   20.7182 C   0  0  0  0  0  0
  -27.2013  -28.7125   20.6936 C   0  0  0  0  0  0
  -26.0450  -26.9464   19.4881 C   0  0  0  0  0  0
  -24.8538  -27.6935   19.5156 C   0  0  0  0  0  0
  -23.6064  -29.8256   20.1699 C   0  0  0  0  0  0
  -25.4121  -36.3085   24.0331 C   0  0  1  0  0  0
  -20.5875  -28.3743   23.1365 C   0  0  2  0  0  0
  -20.6896  -26.9464   22.5489 C   0  0  0  0  0  0
  -19.5881  -26.6274   21.5341 C   0  0  0  0  0  0
  -18.2032  -26.7831   22.1717 C   0  0  0  0  0  0
  -19.1516  -28.8838   23.2934 C   0  0  0  0  0  0
  -18.9355  -30.1457   23.8923 C   0  0  0  0  0  0
  -17.6337  -30.6526   24.0533 C   0  0  0  0  0  0
  -25.9034  -34.9460   23.5101 C   0  0  0  0  0  0
  -16.5289  -29.8951   23.6226 C   0  0  0  0  0  0
  -16.7256  -28.6389   23.0251 C   0  0  0  0  0  0
  -26.4506  -31.6562   25.0667 C   0  0  0  0  0  0
  -25.3759  -31.3660   26.1396 C   0  0  0  0  0  0
  -27.0350  -30.2995   24.6064 C   0  0  0  0  0  0
  -27.6074  -32.4290   25.7443 C   0  0  0  0  0  0
  -27.5580  -37.1814   24.8472 C   0  0  0  0  0  0
  -21.4097  -29.3132   22.3720 N   0  0  0  0  0  0
  -26.4305  -37.3777   23.9385 N   0  0  0  0  0  0
  -24.6677  -31.0814   22.0990 N   0  0  0  0  0  0
  -23.4155  -28.8372   23.3075 O   0  0  0  0  0  0
  -28.4433  -26.7881   19.9591 O   0  0  0  0  0  0
  -26.5599  -34.8932   22.4668 O   0  0  0  0  0  0
  -23.5389  -32.1484   23.7507 O   0  0  0  0  0  0
  -29.6699  -18.2345   24.1922 C   0  0  0  0  0  0
  -30.4292  -17.0570   24.3192 C   0  0  0  0  0  0
  -28.9864  -18.5038   22.9998 C   0  0  0  0  0  0
  -30.5118  -16.1520   23.2397 C   0  0  0  0  0  0
  -29.0202  -17.5794   21.9264 C   0  0  0  0  0  0
  -29.8190  -16.4085   22.0370 C   0  0  0  0  0  0
  -26.9172  -23.1991   17.6548 C   0  0  0  0  0  0
  -26.3572  -18.9619   19.7056 C   0  0  0  0  0  0
  -28.6442  -20.0638   19.8186 C   0  0  0  0  0  0
  -26.8864  -18.2366   20.9522 C   0  0  0  0  0  0
  -29.0600  -18.5854   19.7831 C   0  0  0  0  0  0
  -27.1365  -20.2879   19.4529 C   0  0  0  0  0  0
  -26.5444  -21.3571   20.4111 C   0  0  0  0  0  0
  -28.3535  -23.4277   18.1533 C   0  0  0  0  0  0
  -27.0060  -20.6768   17.9325 C   0  0  0  0  0  0
  -28.4340  -24.4421   19.3199 C   0  0  0  0  0  0
  -28.6339  -25.8875   18.8577 C   0  0  0  0  0  0
  -28.2817  -17.8163   20.7544 N   0  0  0  0  0  0
  -29.7489  -15.4372   20.9999 N   0  0  0  0  0  0
  -26.3796  -21.9680   17.6493 N   0  0  0  0  0  0
  -26.2482  -24.1596   17.2846 O   0  0  0  0  0  0
  -31.4897  -12.5004   19.0969 H   0  0  0  0  0  0
  -30.4097  -11.3112   19.7758 H   0  0  0  0  0  0
  -29.7596  -11.7940   17.4114 H   0  0  0  0  0  0
  -29.6553  -13.5014   17.7587 H   0  0  0  0  0  0
  -27.8490  -11.2935   18.7961 H   0  0  0  0  0  0
  -27.3704  -12.6256   17.7796 H   0  0  0  0  0  0
  -27.7132  -14.2279   19.5863 H   0  0  0  0  0  0
  -28.7139  -11.8491   21.2447 H   0  0  0  0  0  0
  -28.4732  -13.4405   21.9007 H   0  0  0  0  0  0
  -25.2718   -9.5707   22.4780 H   0  0  0  0  0  0
  -23.9968   -7.4660   22.7541 H   0  0  0  0  0  0
  -21.0783   -8.8771   19.8987 H   0  0  0  0  0  0
  -22.3648  -10.9672   19.6190 H   0  0  0  0  0  0
  -21.1974   -7.6151   23.9736 H   0  0  0  0  0  0
  -21.1457   -6.0523   25.9090 H   0  0  0  0  0  0
  -22.0602   -2.7616   23.2857 H   0  0  0  0  0  0
  -22.3937  -11.9937   22.4741 H   0  0  0  0  0  0
  -21.1102  -13.1499   22.2510 H   0  0  0  0  0  0
  -24.6443  -15.8083   20.4650 H   0  0  0  0  0  0
  -26.2746  -15.6198   20.0569 H   0  0  0  0  0  0
  -26.7147  -32.5530   23.1132 H   0  0  0  0  0  0
  -25.0120  -33.9789   25.0479 H   0  0  0  0  0  0
  -22.6901  -31.3187   21.4047 H   0  0  0  0  0  0
  -23.3759  -35.9648   23.3343 H   0  0  0  0  0  0
  -24.3607  -36.8876   22.2048 H   0  0  0  0  0  0
  -23.7282  -37.6538   23.6620 H   0  0  0  0  0  0
  -26.0456  -31.5975   20.5983 H   0  0  0  0  0  0
  -26.8210  -30.8810   21.9866 H   0  0  0  0  0  0
  -28.1063  -29.1023   21.1407 H   0  0  0  0  0  0
  -26.0168  -25.9779   19.0114 H   0  0  0  0  0  0
  -23.9553  -27.2929   19.0670 H   0  0  0  0  0  0
  -23.7047  -30.5903   19.3987 H   0  0  0  0  0  0
  -22.7316  -29.2442   19.8835 H   0  0  0  0  0  0
  -25.1308  -36.1951   25.0829 H   0  0  0  0  0  0
  -20.9990  -28.3400   24.1463 H   0  0  0  0  0  0
  -20.5890  -26.2388   23.3715 H   0  0  0  0  0  0
  -21.6797  -26.7613   22.1288 H   0  0  0  0  0  0
  -19.7127  -25.6147   21.1469 H   0  0  0  0  0  0
  -19.6854  -27.3065   20.6869 H   0  0  0  0  0  0
  -17.4363  -26.6524   21.4107 H   0  0  0  0  0  0
  -18.0446  -26.0035   22.9169 H   0  0  0  0  0  0
  -19.7797  -30.7303   24.2321 H   0  0  0  0  0  0
  -17.4826  -31.6230   24.5062 H   0  0  0  0  0  0
  -15.5273  -30.2814   23.7459 H   0  0  0  0  0  0
  -15.8727  -28.0633   22.6922 H   0  0  0  0  0  0
  -24.5965  -30.6994   25.7704 H   0  0  0  0  0  0
  -24.8932  -32.2803   26.4843 H   0  0  0  0  0  0
  -25.8119  -30.8813   27.0135 H   0  0  0  0  0  0
  -26.2876  -29.6710   24.1221 H   0  0  0  0  0  0
  -27.4196  -29.7305   25.4542 H   0  0  0  0  0  0
  -27.8679  -30.4305   23.9161 H   0  0  0  0  0  0
  -27.2676  -33.3593   26.2044 H   0  0  0  0  0  0
  -28.3874  -32.6872   25.0241 H   0  0  0  0  0  0
  -28.0741  -31.8377   26.5344 H   0  0  0  0  0  0
  -28.2614  -38.0103   24.7469 H   0  0  0  0  0  0
  -28.1070  -36.2620   24.6353 H   0  0  0  0  0  0
  -27.2283  -37.1515   25.8884 H   0  0  0  0  0  0
  -20.9237  -29.8700   21.6822 H   0  0  0  0  0  0
  -26.0201  -38.2863   24.1391 H   0  0  0  0  0  0
  -29.5906  -18.9363   25.0122 H   0  0  0  0  0  0
  -30.9324  -16.8404   25.2495 H   0  0  0  0  0  0
  -28.4226  -19.4235   22.9347 H   0  0  0  0  0  0
  -31.0553  -15.2273   23.3667 H   0  0  0  0  0  0
  -25.2874  -19.1552   19.7981 H   0  0  0  0  0  0
  -26.4544  -18.2796   18.8596 H   0  0  0  0  0  0
  -29.3210  -20.6016   19.1583 H   0  0  0  0  0  0
  -28.8569  -20.4496   20.8182 H   0  0  0  0  0  0
  -26.2724  -17.3701   21.1722 H   0  0  0  0  0  0
  -26.7509  -18.8813   21.8188 H   0  0  0  0  0  0
  -30.1358  -18.4919   19.9615 H   0  0  0  0  0  0
  -28.8989  -18.1784   18.7847 H   0  0  0  0  0  0
  -26.6457  -21.0846   21.4619 H   0  0  0  0  0  0
  -25.4814  -21.5236   20.2190 H   0  0  0  0  0  0
  -27.0573  -22.3066   20.3220 H   0  0  0  0  0  0
  -28.9861  -23.7370   17.3214 H   0  0  0  0  0  0
  -28.7702  -22.4957   18.5046 H   0  0  0  0  0  0
  -26.3841  -19.9468   17.4096 H   0  0  0  0  0  0
  -27.9631  -20.6187   17.4110 H   0  0  0  0  0  0
  -29.2507  -24.1667   19.9935 H   0  0  0  0  0  0
  -27.5304  -24.3946   19.9261 H   0  0  0  0  0  0
  -28.0018  -26.1218   18.0007 H   0  0  0  0  0  0
  -29.6559  -25.9833   18.4892 H   0  0  0  0  0  0
  -28.7966  -15.2576   20.7167 H   0  0  0  0  0  0
  -25.4191  -21.9166   17.3473 H   0  0  0  0  0  0
  1 25  1  0  0  0
  1 30  2  0  0  0
  1 89  1  0  0  0
  2  3  1  0  0  0
  2 25  1  0  0  0
  2 92  1  0  0  0
  2 93  1  0  0  0
  3  4  1  0  0  0
  3 94  1  0  0  0
  3 95  1  0  0  0
  4  5  1  0  0  0
  4 96  1  0  0  0
  4 97  1  0  0  0
  5  6  1  0  0  0
  5 26  1  0  0  0
  5 98  1  0  0  0
  6 25  1  0  0  0
  6 99  1  0  0  0
  6100  1  0  0  0
  7  8  2  0  0  0
  7 26  1  0  0  0
  7 29  1  0  0  0
  8  9  1  0  0  0
  8 22  1  0  0  0
  9 10  1  0  0  0
  9 27  2  0  0  0
 10 11  2  0  0  0
 10 15  1  0  0  0
 11 12  1  0  0  0
 11101  1  0  0  0
 12 13  2  0  0  0
 12102  1  0  0  0
 13 14  1  0  0  0
 13 31  1  0  0  0
 14 15  2  0  0  0
 14103  1  0  0  0
 15104  1  0  0  0
 16 17  2  0  0  0
 16 21  1  0  0  0
 16 31  1  0  0  0
 17 18  1  0  0  0
 17105  1  0  0  0
 18 19  2  0  0  0
 18106  1  0  0  0
 19 20  1  0  0  0
 19 24  1  0  0  0
 20 21  2  0  0  0
 20107  1  0  0  0
 21 23  1  0  0  0
 22 28  1  0  0  0
 22 32  2  0  0  0
 26 27  1  0  0  0
 28108  1  0  0  0
 28109  1  0  0  0
 29110  1  0  0  0
 29111  1  0  0  0
 33 34  1  0  0  0
 33 66  1  0  0  0
 33 70  2  0  0  0
 34 36  1  0  0  0
 34 59  1  0  0  0
 34112  1  0  0  0
 35 44  2  0  0  0
 35 45  1  0  0  0
 35 68  1  0  0  0
 36 56  1  0  0  0
 36113  1  0  0  0
 37 39  1  0  0  0
 37 47  1  0  0  0
 37 66  1  0  0  0
 37114  1  0  0  0
 38 43  2  0  0  0
 38 46  1  0  0  0
 38 47  1  0  0  0
 39 64  1  0  0  0
 39 67  2  0  0  0
 40 52  1  0  0  0
 40 53  2  0  0  0
 40 58  1  0  0  0
 41115  1  0  0  0
 41116  1  0  0  0
 41117  1  0  0  0
 41 48  1  0  0  0
 42 43  1  0  0  0
 42 66  1  0  0  0
 42118  1  0  0  0
 42119  1  0  0  0
 43 44  1  0  0  0
 44120  1  0  0  0
 45 46  2  0  0  0
 45121  1  0  0  0
 46122  1  0  0  0
 47123  1  0  0  0
 47124  1  0  0  0
 48 56  1  0  0  0
 48 65  1  0  0  0
 48125  1  0  0  0
 49 50  1  0  0  0
 49 53  1  0  0  0
 49 64  1  0  0  0
 49126  1  0  0  0
 50 51  1  0  0  0
 50127  1  0  0  0
 50128  1  0  0  0
 51 52  1  0  0  0
 51129  1  0  0  0
 51130  1  0  0  0
 52131  1  0  0  0
 52132  1  0  0  0
 53 54  1  0  0  0
 54 55  2  0  0  0
 54133  1  0  0  0
 55 57  1  0  0  0
 55134  1  0  0  0
 56 69  2  0  0  0
 57 58  2  0  0  0
 57135  1  0  0  0
 58136  1  0  0  0
 59 60  1  0  0  0
 59 61  1  0  0  0
 59 62  1  0  0  0
 60137  1  0  0  0
 60138  1  0  0  0
 60139  1  0  0  0
 61140  1  0  0  0
 61141  1  0  0  0
 61142  1  0  0  0
 62143  1  0  0  0
 62144  1  0  0  0
 62145  1  0  0  0
 63 65  1  0  0  0
 63146  1  0  0  0
 63147  1  0  0  0
 63148  1  0  0  0
 64149  1  0  0  0
 65150  1  0  0  0
 68 87  1  0  0  0
 71 72  2  0  0  0
 71 73  1  0  0  0
 71151  1  0  0  0
 72 74  1  0  0  0
 72152  1  0  0  0
 73 75  2  0  0  0
 73153  1  0  0  0
 74 76  2  0  0  0
 74154  1  0  0  0
 75 76  1  0  0  0
 75 88  1  0  0  0
 76 89  1  0  0  0
 77 84  1  0  0  0
 77 90  1  0  0  0
 77 91  2  0  0  0
 78 80  1  0  0  0
 78 82  1  0  0  0
 78155  1  0  0  0
 78156  1  0  0  0
 79 81  1  0  0  0
 79 82  1  0  0  0
 79157  1  0  0  0
 79158  1  0  0  0
 80 88  1  0  0  0
 80159  1  0  0  0
 80160  1  0  0  0
 81 88  1  0  0  0
 81161  1  0  0  0
 81162  1  0  0  0
 82 83  1  0  0  0
 82 85  1  0  0  0
 83163  1  0  0  0
 83164  1  0  0  0
 83165  1  0  0  0
 84 86  1  0  0  0
 84166  1  0  0  0
 84167  1  0  0  0
 85 90  1  0  0  0
 85168  1  0  0  0
 85169  1  0  0  0
 86 87  1  0  0  0
 86170  1  0  0  0
 86171  1  0  0  0
 87172  1  0  0  0
 87173  1  0  0  0
 89174  1  0  0  0
 90175  1  0  0  0
M  ISO  4   1 100  68 101  87 101  89 100
M  END
> <chiral flag>
0

> <version>
0

> <s_m_source_file>
/data/baiqing/PycharmProjects/Reinvent-master-3.2/result/LINK_invent/BTK/process_docking_weight1_custom_product_contain_oxygen_bond_distance_aromatic_linkinvent_7_9_3/rearranged_h_0074.sdf

> <i_m_source_file_index>
15

> <r_mmod_Potential_Energy-OPLS-2005>
-53.9413452148438

> <r_mmod_Stretch_Energy-OPLS-2005>
40.8404350280762

> <r_mmod_Bend_Energy-OPLS-2005>
119.932304382324

> <r_mmod_Torsional_Energy-OPLS-2005>
346.784240722656

> <r_mmod_Improper_Torsional_Energy-OPLS-2005>
12.9962882995605

> <r_mmod_Van_der_Waal_Energy-OPLS-2005>
187.67333984375

> <r_mmod_Electrostatic_Energy-OPLS-2005>
-557.962768554688

> <r_mmod_Solvation_Energy-OPLS-2005>
-224.385681152344

> <b_mmod_Minimization_Converged-OPLS-2005>
0

> <r_mmod_RMS_Derivative-OPLS-2005>
7.11783027648926

$$$$
15
                    3D
 Structure written by MMmdl.
156165  0  0  1  0            999 V2000
  -30.6185  -14.7655   20.3458 C   0  0  0  0  0  0
  -30.4466  -12.4346   19.4738 C   0  0  0  0  0  0
  -29.5127  -12.3706   18.2444 C   0  0  0  0  0  0
  -28.0275  -12.2882   18.6655 C   0  0  0  0  0  0
  -27.6333  -13.2121   19.8548 C   0  0  2  0  0  0
  -28.7008  -13.2064   20.9683 C   0  0  0  0  0  0
  -25.2512  -13.8133   20.5801 C   0  0  0  0  0  0
  -24.1765  -13.0401   20.9239 C   0  0  0  0  0  0
  -24.6339  -11.6882   20.8810 C   0  0  0  0  0  0
  -23.9020  -10.4263   21.0440 C   0  0  0  0  0  0
  -24.3590   -9.4175   21.9202 C   0  0  0  0  0  0
  -23.6268   -8.2210   22.0755 C   0  0  0  0  0  0
  -22.4253   -8.0255   21.3534 C   0  0  0  0  0  0
  -21.9890   -9.0229   20.4642 C   0  0  0  0  0  0
  -22.7212  -10.2107   20.3071 C   0  0  0  0  0  0
  -21.6839   -6.0719   22.5280 C   0  0  0  0  0  0
  -21.3991   -6.5630   23.8207 C   0  0  0  0  0  0
  -21.3663   -5.6791   24.9175 C   0  0  0  0  0  0
  -21.6058   -4.3048   24.7231 C   0  0  0  0  0  0
  -21.8823   -3.8137   23.4349 C   0  0  0  0  0  0
  -21.9187   -4.6950   22.3407 C   0  0  0  0  0  0
  -22.7785  -13.5187   21.1889 C   0  0  0  0  0  0
  -22.1655   -4.2141   21.0983 F   0  0  0  0  0  0
  -21.5649   -3.4545   25.7744 F   0  0  0  0  0  0
  -29.9843  -13.5412   20.3367 N   0  0  0  0  0  0
  -26.2921  -12.9284   20.3475 N   0  0  0  0  0  0
  -25.9277  -11.6455   20.5919 N   0  0  0  0  0  0
  -22.0438  -12.8155   22.0443 N   0  0  0  0  0  0
  -25.4217  -15.1856   20.4225 N   0  0  0  0  0  0
  -31.8487  -14.8123   20.2578 O   0  0  0  0  0  0
  -21.6616   -6.8851   21.4232 O   0  0  0  0  0  0
  -22.3454  -14.5506   20.6753 O   0  0  0  0  0  0
  -24.6265  -31.8580   23.2012 C   0  0  0  0  0  0
  -25.9105  -32.4764   23.8342 C   0  0  1  0  0  0
  -27.2267  -27.2990   20.1305 C   0  0  0  0  0  0
  -25.5920  -33.8570   24.2265 N   0  0  0  0  0  0
  -23.4221  -30.4806   21.5437 C   0  0  2  0  0  0
  -24.8727  -28.9373   20.1097 C   0  0  0  0  0  0
  -22.7475  -29.4604   22.4919 C   0  0  0  0  0  0
  -18.0283  -28.1382   22.8478 C   0  0  0  0  0  0
  -24.1498  -36.7296   23.2639 C   0  0  0  0  0  0
  -25.9656  -30.7854   21.3770 C   0  0  0  0  0  0
  -26.0410  -29.4123   20.7175 C   0  0  0  0  0  0
  -27.2209  -28.6049   20.7172 C   0  0  0  0  0  0
  -26.0370  -26.8898   19.4844 C   0  0  0  0  0  0
  -24.8748  -27.6830   19.4826 C   0  0  0  0  0  0
  -23.6393  -29.8154   20.1588 C   0  0  0  0  0  0
  -25.4123  -36.3077   24.0325 C   0  0  1  0  0  0
  -20.5886  -28.3683   23.1281 C   0  0  2  0  0  0
  -20.6779  -26.9401   22.5411 C   0  0  0  0  0  0
  -19.5758  -26.6379   21.5210 C   0  0  0  0  0  0
  -18.1934  -26.7921   22.1620 C   0  0  0  0  0  0
  -19.1536  -28.8852   23.2875 C   0  0  0  0  0  0
  -18.9462  -30.1456   23.8885 C   0  0  0  0  0  0
  -17.6463  -30.6585   24.0559 C   0  0  0  0  0  0
  -25.9055  -34.9447   23.5097 C   0  0  0  0  0  0
  -16.5351  -29.9079   23.6337 C   0  0  0  0  0  0
  -16.7269  -28.6502   23.0345 C   0  0  0  0  0  0
  -26.4481  -31.6576   25.0721 C   0  0  0  0  0  0
  -25.3709  -31.3727   26.1443 C   0  0  0  0  0  0
  -27.0325  -30.2985   24.6198 C   0  0  0  0  0  0
  -27.6042  -32.4304   25.7491 C   0  0  0  0  0  0
  -27.5579  -37.1807   24.8463 C   0  0  0  0  0  0
  -21.4186  -29.3036   22.3673 N   0  0  0  0  0  0
  -26.4297  -37.3772   23.9400 N   0  0  0  0  0  0
  -24.6898  -31.0585   22.0970 N   0  0  0  0  0  0
  -23.4197  -28.8146   23.2999 O   0  0  0  0  0  0
  -28.3311  -26.4247   20.2121 O   0  0  0  0  0  0
  -26.5627  -34.8912   22.4667 O   0  0  0  0  0  0
  -23.5428  -32.1388   23.7332 O   0  0  0  0  0  0
  -30.4737  -19.6422   19.6036 C   0  0  0  0  0  0
  -30.6607  -18.2324   19.4869 C   0  0  0  0  0  0
  -29.0274  -19.2970   21.4362 C   0  0  0  0  0  0
  -29.6060  -20.2666   20.5483 C   0  0  0  0  0  0
  -29.9857  -17.2824   20.3060 C   0  0  0  0  0  0
  -29.1915  -17.8688   21.3312 C   0  0  0  0  0  0
  -29.7036  -22.7970   19.6984 C   0  0  0  0  0  0
  -28.5031  -22.5788   21.3117 C   0  0  0  0  0  0
  -29.1168  -23.8710   20.6709 C   0  0  0  0  0  0
  -29.6058  -15.7972   18.4338 C   0  0  0  0  0  0
  -28.0889  -24.9529   20.0877 C   0  0  0  0  0  0
  -29.3612  -21.7314   20.5725 N   0  0  0  0  0  0
  -28.4957  -17.0410   22.2134 N   0  0  0  0  0  0
  -29.8864  -15.8623   19.8862 N   0  0  0  0  0  0
  -30.2543  -22.8035   18.6151 O   0  0  0  0  0  0
  -27.6393  -22.3261   22.1275 O   0  0  0  0  0  0
  -31.4797  -12.5727   19.1496 H   0  0  0  0  0  0
  -30.4266  -11.4948   20.0258 H   0  0  0  0  0  0
  -29.7635  -11.4924   17.6475 H   0  0  0  0  0  0
  -29.6910  -13.2069   17.5741 H   0  0  0  0  0  0
  -27.8496  -11.2529   18.9563 H   0  0  0  0  0  0
  -27.3784  -12.4762   17.8097 H   0  0  0  0  0  0
  -27.5746  -14.2239   19.4733 H   0  0  0  0  0  0
  -28.7535  -12.2342   21.4595 H   0  0  0  0  0  0
  -28.4526  -13.9401   21.7366 H   0  0  0  0  0  0
  -25.2739   -9.5649   22.4755 H   0  0  0  0  0  0
  -24.0001   -7.4592   22.7457 H   0  0  0  0  0  0
  -21.0828   -8.8731   19.8921 H   0  0  0  0  0  0
  -22.3683  -10.9646   19.6169 H   0  0  0  0  0  0
  -21.1948   -7.6137   23.9704 H   0  0  0  0  0  0
  -21.1491   -6.0522   25.9082 H   0  0  0  0  0  0
  -22.0598   -2.7608   23.2857 H   0  0  0  0  0  0
  -22.4083  -11.9814   22.4805 H   0  0  0  0  0  0
  -21.1060  -13.1139   22.2701 H   0  0  0  0  0  0
  -24.6664  -15.8474   20.5605 H   0  0  0  0  0  0
  -26.3048  -15.6309   20.2033 H   0  0  0  0  0  0
  -26.7177  -32.5438   23.1091 H   0  0  0  0  0  0
  -25.0033  -33.9715   25.0388 H   0  0  0  0  0  0
  -22.7157  -31.3014   21.3975 H   0  0  0  0  0  0
  -23.3753  -35.9633   23.3305 H   0  0  0  0  0  0
  -24.3579  -36.8918   22.2049 H   0  0  0  0  0  0
  -23.7272  -37.6506   23.6666 H   0  0  0  0  0  0
  -26.1001  -31.5503   20.6109 H   0  0  0  0  0  0
  -26.8440  -30.8314   22.0095 H   0  0  0  0  0  0
  -28.1130  -28.9612   21.2138 H   0  0  0  0  0  0
  -25.9725  -25.9321   18.9895 H   0  0  0  0  0  0
  -23.9800  -27.3136   19.0001 H   0  0  0  0  0  0
  -23.7574  -30.5920   19.4019 H   0  0  0  0  0  0
  -22.7604  -29.2432   19.8548 H   0  0  0  0  0  0
  -25.1314  -36.1923   25.0820 H   0  0  0  0  0  0
  -20.9972  -28.3259   24.1406 H   0  0  0  0  0  0
  -20.5690  -26.2279   23.3604 H   0  0  0  0  0  0
  -21.6645  -26.7444   22.1195 H   0  0  0  0  0  0
  -19.6923  -25.6294   21.1236 H   0  0  0  0  0  0
  -19.6706  -27.3193   20.6743 H   0  0  0  0  0  0
  -17.4202  -26.6653   21.4026 H   0  0  0  0  0  0
  -18.0346  -26.0073   22.9028 H   0  0  0  0  0  0
  -19.7939  -30.7273   24.2242 H   0  0  0  0  0  0
  -17.5021  -31.6267   24.5154 H   0  0  0  0  0  0
  -15.5352  -30.2978   23.7682 H   0  0  0  0  0  0
  -15.8666  -28.0830   22.7056 H   0  0  0  0  0  0
  -24.5873  -30.7086   25.7770 H   0  0  0  0  0  0
  -24.8910  -32.2898   26.4867 H   0  0  0  0  0  0
  -25.8018  -30.8899   27.0224 H   0  0  0  0  0  0
  -26.2907  -29.6744   24.1202 H   0  0  0  0  0  0
  -27.3982  -29.7249   25.4722 H   0  0  0  0  0  0
  -27.8798  -30.4244   23.9447 H   0  0  0  0  0  0
  -27.2639  -33.3607   26.2057 H   0  0  0  0  0  0
  -28.3848  -32.6857   25.0319 H   0  0  0  0  0  0
  -28.0700  -31.8441   26.5420 H   0  0  0  0  0  0
  -28.2597  -38.0103   24.7494 H   0  0  0  0  0  0
  -28.1072  -36.2628   24.6310 H   0  0  0  0  0  0
  -27.2282  -37.1480   25.8862 H   0  0  0  0  0  0
  -20.9360  -29.8745   21.6877 H   0  0  0  0  0  0
  -26.0173  -38.2846   24.1397 H   0  0  0  0  0  0
  -30.9951  -20.2636   18.8881 H   0  0  0  0  0  0
  -31.2832  -17.8817   18.6771 H   0  0  0  0  0  0
  -28.3761  -19.6691   22.2138 H   0  0  0  0  0  0
  -29.8705  -24.3256   21.3122 H   0  0  0  0  0  0
  -29.1578  -16.7164   18.0513 H   0  0  0  0  0  0
  -30.5145  -15.6133   17.8572 H   0  0  0  0  0  0
  -28.8840  -15.0439   18.1556 H   0  0  0  0  0  0
  -27.1224  -24.7484   20.5512 H   0  0  0  0  0  0
  -27.9418  -24.7579   19.0247 H   0  0  0  0  0  0
  -28.1397  -17.4337   23.0798 H   0  0  0  0  0  0
  -28.7665  -16.0705   22.2995 H   0  0  0  0  0  0
  1 25  1  0  0  0
  1 30  2  0  0  0
  1 84  1  0  0  0
  2  3  1  0  0  0
  2 25  1  0  0  0
  2 87  1  0  0  0
  2 88  1  0  0  0
  3  4  1  0  0  0
  3 89  1  0  0  0
  3 90  1  0  0  0
  4  5  1  0  0  0
  4 91  1  0  0  0
  4 92  1  0  0  0
  5  6  1  0  0  0
  5 26  1  0  0  0
  5 93  1  0  0  0
  6 25  1  0  0  0
  6 94  1  0  0  0
  6 95  1  0  0  0
  7  8  2  0  0  0
  7 26  1  0  0  0
  7 29  1  0  0  0
  8  9  1  0  0  0
  8 22  1  0  0  0
  9 10  1  0  0  0
  9 27  2  0  0  0
 10 11  2  0  0  0
 10 15  1  0  0  0
 11 12  1  0  0  0
 11 96  1  0  0  0
 12 13  2  0  0  0
 12 97  1  0  0  0
 13 14  1  0  0  0
 13 31  1  0  0  0
 14 15  2  0  0  0
 14 98  1  0  0  0
 15 99  1  0  0  0
 16 17  2  0  0  0
 16 21  1  0  0  0
 16 31  1  0  0  0
 17 18  1  0  0  0
 17100  1  0  0  0
 18 19  2  0  0  0
 18101  1  0  0  0
 19 20  1  0  0  0
 19 24  1  0  0  0
 20 21  2  0  0  0
 20102  1  0  0  0
 21 23  1  0  0  0
 22 28  1  0  0  0
 22 32  2  0  0  0
 26 27  1  0  0  0
 28103  1  0  0  0
 28104  1  0  0  0
 29105  1  0  0  0
 29106  1  0  0  0
 33 34  1  0  0  0
 33 66  1  0  0  0
 33 70  2  0  0  0
 34 36  1  0  0  0
 34 59  1  0  0  0
 34107  1  0  0  0
 35 44  2  0  0  0
 35 45  1  0  0  0
 35 68  1  0  0  0
 36 56  1  0  0  0
 36108  1  0  0  0
 37 39  1  0  0  0
 37 47  1  0  0  0
 37 66  1  0  0  0
 37109  1  0  0  0
 38 43  2  0  0  0
 38 46  1  0  0  0
 38 47  1  0  0  0
 39 64  1  0  0  0
 39 67  2  0  0  0
 40 52  1  0  0  0
 40 53  2  0  0  0
 40 58  1  0  0  0
 41110  1  0  0  0
 41111  1  0  0  0
 41112  1  0  0  0
 41 48  1  0  0  0
 42 43  1  0  0  0
 42 66  1  0  0  0
 42113  1  0  0  0
 42114  1  0  0  0
 43 44  1  0  0  0
 44115  1  0  0  0
 45 46  2  0  0  0
 45116  1  0  0  0
 46117  1  0  0  0
 47118  1  0  0  0
 47119  1  0  0  0
 48 56  1  0  0  0
 48 65  1  0  0  0
 48120  1  0  0  0
 49 50  1  0  0  0
 49 53  1  0  0  0
 49 64  1  0  0  0
 49121  1  0  0  0
 50 51  1  0  0  0
 50122  1  0  0  0
 50123  1  0  0  0
 51 52  1  0  0  0
 51124  1  0  0  0
 51125  1  0  0  0
 52126  1  0  0  0
 52127  1  0  0  0
 53 54  1  0  0  0
 54 55  2  0  0  0
 54128  1  0  0  0
 55 57  1  0  0  0
 55129  1  0  0  0
 56 69  2  0  0  0
 57 58  2  0  0  0
 57130  1  0  0  0
 58131  1  0  0  0
 59 60  1  0  0  0
 59 61  1  0  0  0
 59 62  1  0  0  0
 60132  1  0  0  0
 60133  1  0  0  0
 60134  1  0  0  0
 61135  1  0  0  0
 61136  1  0  0  0
 61137  1  0  0  0
 62138  1  0  0  0
 62139  1  0  0  0
 62140  1  0  0  0
 63 65  1  0  0  0
 63141  1  0  0  0
 63142  1  0  0  0
 63143  1  0  0  0
 64144  1  0  0  0
 65145  1  0  0  0
 68 81  1  0  0  0
 71 72  2  0  0  0
 71 74  1  0  0  0
 71146  1  0  0  0
 72 75  1  0  0  0
 72147  1  0  0  0
 73 74  2  0  0  0
 73 76  1  0  0  0
 73148  1  0  0  0
 74 82  1  0  0  0
 75 76  2  0  0  0
 75 84  1  0  0  0
 76 83  1  0  0  0
 77 79  1  0  0  0
 77 82  1  0  0  0
 77 85  2  0  0  0
 78 79  1  0  0  0
 78 82  1  0  0  0
 78 86  2  0  0  0
 79 81  1  0  0  0
 79149  1  0  0  0
 80 84  1  0  0  0
 80150  1  0  0  0
 80151  1  0  0  0
 80152  1  0  0  0
 81153  1  0  0  0
 81154  1  0  0  0
 83155  1  0  0  0
 83156  1  0  0  0
M  ISO  4   1 100  68 101  81 101  84 100
M  END
> <chiral flag>
0

> <version>
0

> <s_m_source_file>
/data/baiqing/PycharmProjects/Reinvent-master-3.2/result/LINK_invent/BTK/process_docking_weight1_custom_product_contain_oxygen_bond_distance_aromatic_linkinvent_7_9_3/rearranged_h_0074.sdf

> <i_m_source_file_index>
16

> <r_mmod_Potential_Energy-OPLS-2005>
240.760986328125

> <r_mmod_Stretch_Energy-OPLS-2005>
102.943176269531

> <r_mmod_Bend_Energy-OPLS-2005>
178.749328613281

> <r_mmod_Torsional_Energy-OPLS-2005>
323.246154785156

> <r_mmod_Improper_Torsional_Energy-OPLS-2005>
27.3877849578857

> <r_mmod_Van_der_Waal_Energy-OPLS-2005>
150.88916015625

> <r_mmod_Electrostatic_Energy-OPLS-2005>
-416.190460205078

> <r_mmod_Solvation_Energy-OPLS-2005>
-221.352172851562

> <b_mmod_Minimization_Converged-OPLS-2005>
0

> <r_mmod_RMS_Derivative-OPLS-2005>
2.65754461288452

$$$$
16
                    3D
 Structure written by MMmdl.
160169  0  0  1  0            999 V2000
  -30.7540  -14.4785   20.5585 C   0  0  0  0  0  0
  -30.4012  -12.3093   19.4361 C   0  0  0  0  0  0
  -29.4890  -12.4954   18.2093 C   0  0  0  0  0  0
  -28.0117  -12.3598   18.6220 C   0  0  0  0  0  0
  -27.6519  -13.2209   19.8635 C   0  0  2  0  0  0
  -28.6963  -13.0604   20.9922 C   0  0  0  0  0  0
  -25.2546  -13.8196   20.5712 C   0  0  0  0  0  0
  -24.1814  -13.0451   20.9205 C   0  0  0  0  0  0
  -24.6387  -11.6925   20.8743 C   0  0  0  0  0  0
  -23.9062  -10.4302   21.0405 C   0  0  0  0  0  0
  -24.3613   -9.4217   21.9182 C   0  0  0  0  0  0
  -23.6293   -8.2248   22.0749 C   0  0  0  0  0  0
  -22.4271   -8.0285   21.3545 C   0  0  0  0  0  0
  -21.9909   -9.0260   20.4647 C   0  0  0  0  0  0
  -22.7236  -10.2142   20.3058 C   0  0  0  0  0  0
  -21.6857   -6.0735   22.5280 C   0  0  0  0  0  0
  -21.4014   -6.5637   23.8213 C   0  0  0  0  0  0
  -21.3663   -5.6788   24.9174 C   0  0  0  0  0  0
  -21.6041   -4.3051   24.7224 C   0  0  0  0  0  0
  -21.8815   -3.8146   23.4345 C   0  0  0  0  0  0
  -21.9194   -4.6965   22.3402 C   0  0  0  0  0  0
  -22.7835  -13.5245   21.1850 C   0  0  0  0  0  0
  -22.1656   -4.2150   21.0979 F   0  0  0  0  0  0
  -21.5632   -3.4535   25.7736 F   0  0  0  0  0  0
  -30.0223  -13.3365   20.4222 N   0  0  0  0  0  0
  -26.2978  -12.9391   20.3336 N   0  0  0  0  0  0
  -25.9316  -11.6538   20.5759 N   0  0  0  0  0  0
  -22.0470  -12.8244   22.0407 N   0  0  0  0  0  0
  -25.4253  -15.1913   20.4124 N   0  0  0  0  0  0
  -31.9052  -14.5388   20.1165 O   0  0  0  0  0  0
  -21.6640   -6.8881   21.4242 O   0  0  0  0  0  0
  -22.3531  -14.5556   20.6701 O   0  0  0  0  0  0
  -24.6148  -31.8675   23.2109 C   0  0  0  0  0  0
  -25.9044  -32.4822   23.8396 C   0  0  1  0  0  0
  -27.2181  -27.4173   20.1057 C   0  0  0  0  0  0
  -25.5906  -33.8620   24.2338 N   0  0  0  0  0  0
  -23.4036  -30.4914   21.5504 C   0  0  2  0  0  0
  -24.8513  -28.9614   20.1092 C   0  0  0  0  0  0
  -22.7418  -29.4643   22.4969 C   0  0  0  0  0  0
  -18.0275  -28.1371   22.8489 C   0  0  0  0  0  0
  -24.1487  -36.7310   23.2634 C   0  0  0  0  0  0
  -25.9345  -30.8258   21.3714 C   0  0  0  0  0  0
  -26.0098  -29.4591   20.7202 C   0  0  0  0  0  0
  -27.1987  -28.6898   20.7247 C   0  0  0  0  0  0
  -26.0598  -26.9579   19.4509 C   0  0  0  0  0  0
  -24.8719  -27.7096   19.4711 C   0  0  0  0  0  0
  -23.6137  -29.8288   20.1626 C   0  0  0  0  0  0
  -25.4109  -36.3115   24.0337 C   0  0  1  0  0  0
  -20.5868  -28.3662   23.1315 C   0  0  2  0  0  0
  -20.6776  -26.9390   22.5428 C   0  0  0  0  0  0
  -19.5762  -26.6367   21.5221 C   0  0  0  0  0  0
  -18.1932  -26.7909   22.1626 C   0  0  0  0  0  0
  -19.1525  -28.8833   23.2895 C   0  0  0  0  0  0
  -18.9453  -30.1443   23.8896 C   0  0  0  0  0  0
  -17.6456  -30.6582   24.0552 C   0  0  0  0  0  0
  -25.9033  -34.9476   23.5134 C   0  0  0  0  0  0
  -16.5344  -29.9084   23.6322 C   0  0  0  0  0  0
  -16.7265  -28.6499   23.0346 C   0  0  0  0  0  0
  -26.4480  -31.6598   25.0721 C   0  0  0  0  0  0
  -25.3745  -31.3706   26.1468 C   0  0  0  0  0  0
  -27.0302  -30.3032   24.6105 C   0  0  0  0  0  0
  -27.6066  -32.4301   25.7482 C   0  0  0  0  0  0
  -27.5584  -37.1812   24.8465 C   0  0  0  0  0  0
  -21.4144  -29.3022   22.3708 N   0  0  0  0  0  0
  -26.4301  -37.3796   23.9407 N   0  0  0  0  0  0
  -24.6687  -31.0764   22.1021 N   0  0  0  0  0  0
  -23.4189  -28.8181   23.3007 O   0  0  0  0  0  0
  -28.3384  -26.6157   20.1054 O   0  0  0  0  0  0
  -26.5588  -34.8926   22.4691 O   0  0  0  0  0  0
  -23.5337  -32.1442   23.7493 O   0  0  0  0  0  0
  -30.3059  -19.1849   21.9544 C   0  0  0  0  0  0
  -28.6820  -18.1716   20.4736 C   0  0  0  0  0  0
  -29.6382  -20.4259   21.8592 C   0  0  0  0  0  0
  -28.0032  -19.4130   20.3930 C   0  0  0  0  0  0
  -29.8470  -18.0374   21.2626 C   0  0  0  0  0  0
  -28.4667  -20.5675   21.0789 C   0  0  0  0  0  0
  -26.3590  -24.2599   21.1225 C   0  0  0  0  0  0
  -26.3664  -21.8570   20.9575 C   0  0  0  0  0  0
  -25.6544  -22.9968   21.0106 C   0  0  0  0  0  0
  -27.7015  -24.3459   21.0400 C   0  0  0  0  0  0
  -30.6954  -16.7798   21.2589 C   0  0  0  0  0  0
  -28.5451  -23.0572   20.9335 C   0  0  0  0  0  0
  -24.1420  -22.9593   20.9537 C   0  0  0  0  0  0
  -28.4388  -25.6899   21.2114 C   0  0  0  0  0  0
  -27.7583  -21.7977   21.0042 N   0  0  0  0  0  0
  -30.1091  -15.5811   21.0128 N   0  0  0  0  0  0
  -31.9011  -16.9133   21.5068 O   0  0  0  0  0  0
  -31.4499  -12.3612   19.1371 H   0  0  0  0  0  0
  -30.2685  -11.3141   19.8635 H   0  0  0  0  0  0
  -29.7320  -11.7582   17.4428 H   0  0  0  0  0  0
  -29.6620  -13.4749   17.7603 H   0  0  0  0  0  0
  -27.8273  -11.3066   18.8365 H   0  0  0  0  0  0
  -27.3611  -12.6150   17.7847 H   0  0  0  0  0  0
  -27.6793  -14.2600   19.5355 H   0  0  0  0  0  0
  -28.6715  -12.0462   21.3937 H   0  0  0  0  0  0
  -28.4662  -13.7186   21.8313 H   0  0  0  0  0  0
  -25.2755   -9.5698   22.4762 H   0  0  0  0  0  0
  -24.0008   -7.4638   22.7463 H   0  0  0  0  0  0
  -21.0844   -8.8780   19.8947 H   0  0  0  0  0  0
  -22.3697  -10.9678   19.6165 H   0  0  0  0  0  0
  -21.1999   -7.6143   23.9723 H   0  0  0  0  0  0
  -21.1490   -6.0512   25.9079 H   0  0  0  0  0  0
  -22.0595   -2.7611   23.2843 H   0  0  0  0  0  0
  -22.4085  -11.9908   22.4798 H   0  0  0  0  0  0
  -21.1087  -13.1271   22.2610 H   0  0  0  0  0  0
  -24.6560  -15.8431   20.5196 H   0  0  0  0  0  0
  -26.2698  -15.6307   20.0713 H   0  0  0  0  0  0
  -26.7107  -32.5550   23.1149 H   0  0  0  0  0  0
  -25.0079  -33.9779   25.0501 H   0  0  0  0  0  0
  -22.6919  -31.3079   21.4137 H   0  0  0  0  0  0
  -23.3746  -35.9645   23.3306 H   0  0  0  0  0  0
  -24.3581  -36.8910   22.2046 H   0  0  0  0  0  0
  -23.7232  -37.6516   23.6637 H   0  0  0  0  0  0
  -26.0492  -31.5903   20.6017 H   0  0  0  0  0  0
  -26.8197  -30.8781   21.9925 H   0  0  0  0  0  0
  -28.0914  -29.0602   21.2074 H   0  0  0  0  0  0
  -26.0730  -26.0022   18.9453 H   0  0  0  0  0  0
  -23.9866  -27.3259   18.9843 H   0  0  0  0  0  0
  -23.7228  -30.6068   19.4062 H   0  0  0  0  0  0
  -22.7377  -29.2507   19.8640 H   0  0  0  0  0  0
  -25.1281  -36.1984   25.0829 H   0  0  0  0  0  0
  -20.9965  -28.3240   24.1437 H   0  0  0  0  0  0
  -20.5663  -26.2262   23.3612 H   0  0  0  0  0  0
  -21.6654  -26.7438   22.1229 H   0  0  0  0  0  0
  -19.6932  -25.6278   21.1255 H   0  0  0  0  0  0
  -19.6711  -27.3169   20.6744 H   0  0  0  0  0  0
  -17.4202  -26.6645   21.4028 H   0  0  0  0  0  0
  -18.0336  -26.0051   22.9026 H   0  0  0  0  0  0
  -19.7930  -30.7261   24.2259 H   0  0  0  0  0  0
  -17.5014  -31.6275   24.5129 H   0  0  0  0  0  0
  -15.5343  -30.2994   23.7634 H   0  0  0  0  0  0
  -15.8661  -28.0825   22.7064 H   0  0  0  0  0  0
  -24.5925  -30.7048   25.7798 H   0  0  0  0  0  0
  -24.8937  -32.2866   26.4917 H   0  0  0  0  0  0
  -25.8102  -30.8876   27.0223 H   0  0  0  0  0  0
  -26.2849  -29.6797   24.1154 H   0  0  0  0  0  0
  -27.4043  -29.7268   25.4575 H   0  0  0  0  0  0
  -27.8701  -30.4322   23.9270 H   0  0  0  0  0  0
  -27.2700  -33.3586   26.2100 H   0  0  0  0  0  0
  -28.3863  -32.6875   25.0301 H   0  0  0  0  0  0
  -28.0745  -31.8395   26.5368 H   0  0  0  0  0  0
  -28.2613  -38.0100   24.7511 H   0  0  0  0  0  0
  -28.1070  -36.2634   24.6296 H   0  0  0  0  0  0
  -27.2302  -37.1463   25.8868 H   0  0  0  0  0  0
  -20.9289  -29.8734   21.6934 H   0  0  0  0  0  0
  -26.0194  -38.2875   24.1410 H   0  0  0  0  0  0
  -31.2054  -19.1284   22.5518 H   0  0  0  0  0  0
  -28.3171  -17.3357   19.8938 H   0  0  0  0  0  0
  -30.0361  -21.2574   22.4204 H   0  0  0  0  0  0
  -27.1261  -19.4715   19.7655 H   0  0  0  0  0  0
  -25.7823  -25.1565   21.2926 H   0  0  0  0  0  0
  -25.8682  -20.8984   20.8929 H   0  0  0  0  0  0
  -29.2723  -23.0915   21.7435 H   0  0  0  0  0  0
  -29.1093  -23.0836   19.9996 H   0  0  0  0  0  0
  -23.7146  -23.9584   21.0468 H   0  0  0  0  0  0
  -23.7437  -22.3459   21.7626 H   0  0  0  0  0  0
  -23.8092  -22.5340   20.0062 H   0  0  0  0  0  0
  -29.4971  -25.4865   21.3741 H   0  0  0  0  0  0
  -28.0883  -26.1641   22.1299 H   0  0  0  0  0  0
  -29.1084  -15.5325   21.0935 H   0  0  0  0  0  0
  1 25  1  0  0  0
  1 30  2  0  0  0
  1 86  1  0  0  0
  2  3  1  0  0  0
  2 25  1  0  0  0
  2 88  1  0  0  0
  2 89  1  0  0  0
  3  4  1  0  0  0
  3 90  1  0  0  0
  3 91  1  0  0  0
  4  5  1  0  0  0
  4 92  1  0  0  0
  4 93  1  0  0  0
  5  6  1  0  0  0
  5 26  1  0  0  0
  5 94  1  0  0  0
  6 25  1  0  0  0
  6 95  1  0  0  0
  6 96  1  0  0  0
  7  8  2  0  0  0
  7 26  1  0  0  0
  7 29  1  0  0  0
  8  9  1  0  0  0
  8 22  1  0  0  0
  9 10  1  0  0  0
  9 27  2  0  0  0
 10 11  2  0  0  0
 10 15  1  0  0  0
 11 12  1  0  0  0
 11 97  1  0  0  0
 12 13  2  0  0  0
 12 98  1  0  0  0
 13 14  1  0  0  0
 13 31  1  0  0  0
 14 15  2  0  0  0
 14 99  1  0  0  0
 15100  1  0  0  0
 16 17  2  0  0  0
 16 21  1  0  0  0
 16 31  1  0  0  0
 17 18  1  0  0  0
 17101  1  0  0  0
 18 19  2  0  0  0
 18102  1  0  0  0
 19 20  1  0  0  0
 19 24  1  0  0  0
 20 21  2  0  0  0
 20103  1  0  0  0
 21 23  1  0  0  0
 22 28  1  0  0  0
 22 32  2  0  0  0
 26 27  1  0  0  0
 28104  1  0  0  0
 28105  1  0  0  0
 29106  1  0  0  0
 29107  1  0  0  0
 33 34  1  0  0  0
 33 66  1  0  0  0
 33 70  2  0  0  0
 34 36  1  0  0  0
 34 59  1  0  0  0
 34108  1  0  0  0
 35 44  2  0  0  0
 35 45  1  0  0  0
 35 68  1  0  0  0
 36 56  1  0  0  0
 36109  1  0  0  0
 37 39  1  0  0  0
 37 47  1  0  0  0
 37 66  1  0  0  0
 37110  1  0  0  0
 38 43  2  0  0  0
 38 46  1  0  0  0
 38 47  1  0  0  0
 39 64  1  0  0  0
 39 67  2  0  0  0
 40 52  1  0  0  0
 40 53  2  0  0  0
 40 58  1  0  0  0
 41111  1  0  0  0
 41112  1  0  0  0
 41113  1  0  0  0
 41 48  1  0  0  0
 42 43  1  0  0  0
 42 66  1  0  0  0
 42114  1  0  0  0
 42115  1  0  0  0
 43 44  1  0  0  0
 44116  1  0  0  0
 45 46  2  0  0  0
 45117  1  0  0  0
 46118  1  0  0  0
 47119  1  0  0  0
 47120  1  0  0  0
 48 56  1  0  0  0
 48 65  1  0  0  0
 48121  1  0  0  0
 49 50  1  0  0  0
 49 53  1  0  0  0
 49 64  1  0  0  0
 49122  1  0  0  0
 50 51  1  0  0  0
 50123  1  0  0  0
 50124  1  0  0  0
 51 52  1  0  0  0
 51125  1  0  0  0
 51126  1  0  0  0
 52127  1  0  0  0
 52128  1  0  0  0
 53 54  1  0  0  0
 54 55  2  0  0  0
 54129  1  0  0  0
 55 57  1  0  0  0
 55130  1  0  0  0
 56 69  2  0  0  0
 57 58  2  0  0  0
 57131  1  0  0  0
 58132  1  0  0  0
 59 60  1  0  0  0
 59 61  1  0  0  0
 59 62  1  0  0  0
 60133  1  0  0  0
 60134  1  0  0  0
 60135  1  0  0  0
 61136  1  0  0  0
 61137  1  0  0  0
 61138  1  0  0  0
 62139  1  0  0  0
 62140  1  0  0  0
 62141  1  0  0  0
 63 65  1  0  0  0
 63142  1  0  0  0
 63143  1  0  0  0
 63144  1  0  0  0
 64145  1  0  0  0
 65146  1  0  0  0
 68 84  1  0  0  0
 71 73  2  0  0  0
 71 75  1  0  0  0
 71147  1  0  0  0
 72 74  1  0  0  0
 72 75  2  0  0  0
 72148  1  0  0  0
 73 76  1  0  0  0
 73149  1  0  0  0
 74 76  2  0  0  0
 74150  1  0  0  0
 75 81  1  0  0  0
 76 85  1  0  0  0
 77 79  1  0  0  0
 77 80  2  0  0  0
 77151  1  0  0  0
 78 79  2  0  0  0
 78 85  1  0  0  0
 78152  1  0  0  0
 79 83  1  0  0  0
 80 82  1  0  0  0
 80 84  1  0  0  0
 81 86  1  0  0  0
 81 87  2  0  0  0
 82 85  1  0  0  0
 82153  1  0  0  0
 82154  1  0  0  0
 83155  1  0  0  0
 83156  1  0  0  0
 83157  1  0  0  0
 84158  1  0  0  0
 84159  1  0  0  0
 86160  1  0  0  0
M  ISO  4   1 100  68 101  84 101  86 100
M  END
> <chiral flag>
0

> <version>
0

> <s_m_source_file>
/data/baiqing/PycharmProjects/Reinvent-master-3.2/result/LINK_invent/BTK/process_docking_weight1_custom_product_contain_oxygen_bond_distance_aromatic_linkinvent_7_9_3/rearranged_h_0074.sdf

> <i_m_source_file_index>
17

> <r_mmod_Potential_Energy-OPLS-2005>
-37.9927062988281

> <r_mmod_Stretch_Energy-OPLS-2005>
45.413932800293

> <r_mmod_Bend_Energy-OPLS-2005>
106.51188659668

> <r_mmod_Torsional_Energy-OPLS-2005>
265.941009521484

> <r_mmod_Improper_Torsional_Energy-OPLS-2005>
4.94808626174927

> <r_mmod_Van_der_Waal_Energy-OPLS-2005>
176.003860473633

> <r_mmod_Electrostatic_Energy-OPLS-2005>
-435.945129394531

> <r_mmod_Solvation_Energy-OPLS-2005>
-221.939178466797

> <b_mmod_Minimization_Converged-OPLS-2005>
0

> <r_mmod_RMS_Derivative-OPLS-2005>
1.33213126659393

$$$$
17
                    3D
 Structure written by MMmdl.
168177  0  0  1  0            999 V2000
  -30.6738  -14.5525   20.5747 C   0  0  0  0  0  0
  -30.4463  -12.3519   19.4466 C   0  0  0  0  0  0
  -29.5236  -12.5214   18.2201 C   0  0  0  0  0  0
  -28.0383  -12.3849   18.6132 C   0  0  0  0  0  0
  -27.6698  -13.2163   19.8714 C   0  0  2  0  0  0
  -28.7089  -13.0077   20.9972 C   0  0  0  0  0  0
  -25.2639  -13.8136   20.5622 C   0  0  0  0  0  0
  -24.1885  -13.0456   20.9133 C   0  0  0  0  0  0
  -24.6432  -11.6922   20.8648 C   0  0  0  0  0  0
  -23.9083  -10.4321   21.0350 C   0  0  0  0  0  0
  -24.3621   -9.4273   21.9155 C   0  0  0  0  0  0
  -23.6297   -8.2320   22.0745 C   0  0  0  0  0  0
  -22.4267   -8.0323   21.3558 C   0  0  0  0  0  0
  -21.9916   -9.0292   20.4660 C   0  0  0  0  0  0
  -22.7248  -10.2163   20.3043 C   0  0  0  0  0  0
  -21.6883   -6.0751   22.5264 C   0  0  0  0  0  0
  -21.4031   -6.5632   23.8206 C   0  0  0  0  0  0
  -21.3667   -5.6763   24.9145 C   0  0  0  0  0  0
  -21.6048   -4.3031   24.7192 C   0  0  0  0  0  0
  -21.8828   -3.8149   23.4313 C   0  0  0  0  0  0
  -21.9214   -4.6976   22.3372 C   0  0  0  0  0  0
  -22.7916  -13.5290   21.1780 C   0  0  0  0  0  0
  -22.1662   -4.2175   21.0956 F   0  0  0  0  0  0
  -21.5638   -3.4502   25.7698 F   0  0  0  0  0  0
  -30.0458  -13.3409   20.4651 N   0  0  0  0  0  0
  -26.3066  -12.9342   20.3262 N   0  0  0  0  0  0
  -25.9362  -11.6497   20.5687 N   0  0  0  0  0  0
  -22.0509  -12.8319   22.0326 N   0  0  0  0  0  0
  -25.4412  -15.1814   20.4003 N   0  0  0  0  0  0
  -31.7479  -14.7988   20.0209 O   0  0  0  0  0  0
  -21.6663   -6.8897   21.4240 O   0  0  0  0  0  0
  -22.3600  -14.5588   20.6628 O   0  0  0  0  0  0
  -24.6249  -31.8622   23.2043 C   0  0  0  0  0  0
  -25.9105  -32.4782   23.8361 C   0  0  1  0  0  0
  -27.2330  -27.3559   20.0999 C   0  0  0  0  0  0
  -25.5912  -33.8579   24.2288 N   0  0  0  0  0  0
  -23.4131  -30.4871   21.5475 C   0  0  2  0  0  0
  -24.8583  -28.9454   20.1110 C   0  0  0  0  0  0
  -22.7451  -29.4638   22.4962 C   0  0  0  0  0  0
  -18.0271  -28.1385   22.8474 C   0  0  0  0  0  0
  -24.1472  -36.7296   23.2632 C   0  0  0  0  0  0
  -25.9499  -30.8034   21.3684 C   0  0  0  0  0  0
  -26.0246  -29.4321   20.7145 C   0  0  0  0  0  0
  -27.2117  -28.6474   20.7015 C   0  0  0  0  0  0
  -26.0397  -26.9083   19.4844 C   0  0  0  0  0  0
  -24.8661  -27.6857   19.4923 C   0  0  0  0  0  0
  -23.6248  -29.8223   20.1617 C   0  0  0  0  0  0
  -25.4089  -36.3078   24.0327 C   0  0  1  0  0  0
  -20.5868  -28.3679   23.1284 C   0  0  2  0  0  0
  -20.6768  -26.9406   22.5404 C   0  0  0  0  0  0
  -19.5755  -26.6376   21.5196 C   0  0  0  0  0  0
  -18.1926  -26.7928   22.1598 C   0  0  0  0  0  0
  -19.1524  -28.8851   23.2885 C   0  0  0  0  0  0
  -18.9471  -30.1451   23.8908 C   0  0  0  0  0  0
  -17.6475  -30.6593   24.0550 C   0  0  0  0  0  0
  -25.9034  -34.9453   23.5112 C   0  0  0  0  0  0
  -16.5356  -29.9085   23.6328 C   0  0  0  0  0  0
  -16.7257  -28.6493   23.0353 C   0  0  0  0  0  0
  -26.4500  -31.6585   25.0730 C   0  0  0  0  0  0
  -25.3755  -31.3706   26.1481 C   0  0  0  0  0  0
  -27.0344  -30.3017   24.6149 C   0  0  0  0  0  0
  -27.6048  -32.4310   25.7539 C   0  0  0  0  0  0
  -27.5564  -37.1798   24.8452 C   0  0  0  0  0  0
  -21.4169  -29.3051   22.3711 N   0  0  0  0  0  0
  -26.4258  -37.3777   23.9419 N   0  0  0  0  0  0
  -24.6808  -31.0665   22.0971 N   0  0  0  0  0  0
  -23.4197  -28.8170   23.3021 O   0  0  0  0  0  0
  -28.3837  -26.5594   20.1378 O   0  0  0  0  0  0
  -26.5602  -34.8914   22.4678 O   0  0  0  0  0  0
  -23.5427  -32.1400   23.7407 O   0  0  0  0  0  0
  -28.3949  -19.3654   20.8146 C   0  0  0  0  0  0
  -28.2770  -17.0566   21.5449 C   0  0  0  0  0  0
  -30.3330  -17.8979   20.5394 C   0  0  0  0  0  0
  -27.6590  -18.3198   21.4066 C   0  0  0  0  0  0
  -29.7338  -19.2049   20.4157 C   0  0  0  0  0  0
  -29.5917  -16.8059   21.0985 C   0  0  0  0  0  0
  -29.5874  -22.8318   19.4248 C   0  0  0  0  0  0
  -24.5101  -19.8809   20.7559 C   0  0  0  0  0  0
  -25.5744  -19.8220   21.5732 C   0  0  0  0  0  0
  -26.2639  -18.5562   21.8706 C   0  0  0  0  0  0
  -29.5527  -23.7356   21.6137 C   0  0  0  0  0  0
  -30.1560  -22.3113   21.5982 C   0  0  0  0  0  0
  -29.5285  -24.2166   20.1494 C   0  0  1  0  0  0
  -30.8204  -24.9895   19.7992 C   0  0  0  0  0  0
  -30.4726  -20.4483   19.8509 C   0  0  0  0  0  0
  -28.2788  -25.1312   19.8067 C   0  0  0  0  0  0
  -25.6197  -17.6942   22.5340 N   0  0  0  0  0  0
  -29.9758  -21.8154   20.2394 N   0  0  0  0  0  0
  -30.0378  -15.4541   21.3604 N   0  0  0  0  0  0
  -29.3868  -22.7175   18.2136 O   0  0  0  0  0  0
  -31.4956  -12.4530   19.1643 H   0  0  0  0  0  0
  -30.3523  -11.3479   19.8583 H   0  0  0  0  0  0
  -29.7778  -11.7813   17.4592 H   0  0  0  0  0  0
  -29.6961  -13.4972   17.7640 H   0  0  0  0  0  0
  -27.8315  -11.3298   18.7885 H   0  0  0  0  0  0
  -27.4066  -12.6811   17.7763 H   0  0  0  0  0  0
  -27.7132  -14.2629   19.5689 H   0  0  0  0  0  0
  -28.6992  -11.9689   21.3276 H   0  0  0  0  0  0
  -28.4371  -13.5837   21.8824 H   0  0  0  0  0  0
  -25.2770   -9.5783   22.4727 H   0  0  0  0  0  0
  -24.0048   -7.4725   22.7454 H   0  0  0  0  0  0
  -21.0864   -8.8821   19.8932 H   0  0  0  0  0  0
  -22.3732  -10.9699   19.6135 H   0  0  0  0  0  0
  -21.2036   -7.6134   23.9724 H   0  0  0  0  0  0
  -21.1444   -6.0462   25.9048 H   0  0  0  0  0  0
  -22.0617   -2.7628   23.2771 H   0  0  0  0  0  0
  -22.4081  -11.9985   22.4743 H   0  0  0  0  0  0
  -21.1133  -13.1389   22.2473 H   0  0  0  0  0  0
  -24.7030  -15.8530   20.5836 H   0  0  0  0  0  0
  -26.2832  -15.6069   20.0343 H   0  0  0  0  0  0
  -26.7185  -32.5450   23.1122 H   0  0  0  0  0  0
  -25.0083  -33.9723   25.0450 H   0  0  0  0  0  0
  -22.7063  -31.3080   21.4076 H   0  0  0  0  0  0
  -23.3731  -35.9629   23.3277 H   0  0  0  0  0  0
  -24.3586  -36.8948   22.2055 H   0  0  0  0  0  0
  -23.7237  -37.6490   23.6684 H   0  0  0  0  0  0
  -26.0770  -31.5661   20.5986 H   0  0  0  0  0  0
  -26.8338  -30.8567   21.9917 H   0  0  0  0  0  0
  -28.1060  -29.0189   21.1814 H   0  0  0  0  0  0
  -25.9854  -25.9472   18.9933 H   0  0  0  0  0  0
  -23.9700  -27.3042   19.0206 H   0  0  0  0  0  0
  -23.7408  -30.5973   19.4030 H   0  0  0  0  0  0
  -22.7444  -29.2504   19.8631 H   0  0  0  0  0  0
  -25.1265  -36.1920   25.0815 H   0  0  0  0  0  0
  -20.9966  -28.3246   24.1396 H   0  0  0  0  0  0
  -20.5662  -26.2276   23.3589 H   0  0  0  0  0  0
  -21.6646  -26.7442   22.1212 H   0  0  0  0  0  0
  -19.6912  -25.6282   21.1235 H   0  0  0  0  0  0
  -19.6693  -27.3168   20.6712 H   0  0  0  0  0  0
  -17.4196  -26.6680   21.3998 H   0  0  0  0  0  0
  -18.0319  -26.0073   22.8994 H   0  0  0  0  0  0
  -19.7968  -30.7258   24.2286 H   0  0  0  0  0  0
  -17.5042  -31.6285   24.5135 H   0  0  0  0  0  0
  -15.5364  -30.3002   23.7660 H   0  0  0  0  0  0
  -15.8636  -28.0804   22.7101 H   0  0  0  0  0  0
  -24.5912  -30.7064   25.7842 H   0  0  0  0  0  0
  -24.8955  -32.2863   26.4940 H   0  0  0  0  0  0
  -25.8108  -30.8877   27.0244 H   0  0  0  0  0  0
  -26.2911  -29.6785   24.1161 H   0  0  0  0  0  0
  -27.4067  -29.7255   25.4634 H   0  0  0  0  0  0
  -27.8773  -30.4335   23.9357 H   0  0  0  0  0  0
  -27.2644  -33.3608   26.2120 H   0  0  0  0  0  0
  -28.3885  -32.6874   25.0397 H   0  0  0  0  0  0
  -28.0691  -31.8426   26.5473 H   0  0  0  0  0  0
  -28.2546  -38.0127   24.7534 H   0  0  0  0  0  0
  -28.1090  -36.2659   24.6215 H   0  0  0  0  0  0
  -27.2301  -37.1389   25.8857 H   0  0  0  0  0  0
  -20.9333  -29.8788   21.6941 H   0  0  0  0  0  0
  -26.0130  -38.2842   24.1445 H   0  0  0  0  0  0
  -27.9288  -20.3278   20.6728 H   0  0  0  0  0  0
  -27.7232  -16.2501   21.9999 H   0  0  0  0  0  0
  -31.3579  -17.7423   20.2338 H   0  0  0  0  0  0
  -24.0295  -20.8238   20.5401 H   0  0  0  0  0  0
  -24.1171  -18.9860   20.2918 H   0  0  0  0  0  0
  -25.9822  -20.7080   22.0379 H   0  0  0  0  0  0
  -30.1112  -24.4018   22.2723 H   0  0  0  0  0  0
  -28.5361  -23.6899   22.0084 H   0  0  0  0  0  0
  -29.6757  -21.6640   22.3340 H   0  0  0  0  0  0
  -31.2242  -22.3422   21.8228 H   0  0  0  0  0  0
  -31.7068  -24.3548   19.8456 H   0  0  0  0  0  0
  -30.9804  -25.8211   20.4870 H   0  0  0  0  0  0
  -30.7667  -25.4032   18.7913 H   0  0  0  0  0  0
  -30.4748  -20.3616   18.7624 H   0  0  0  0  0  0
  -31.5212  -20.3753   20.1453 H   0  0  0  0  0  0
  -27.4030  -24.7116   20.3046 H   0  0  0  0  0  0
  -28.0785  -25.0534   18.7381 H   0  0  0  0  0  0
  -26.1710  -16.8567   22.6728 H   0  0  0  0  0  0
  -29.3936  -14.9516   21.9496 H   0  0  0  0  0  0
  1 25  1  0  0  0
  1 30  2  0  0  0
  1 89  1  0  0  0
  2  3  1  0  0  0
  2 25  1  0  0  0
  2 91  1  0  0  0
  2 92  1  0  0  0
  3  4  1  0  0  0
  3 93  1  0  0  0
  3 94  1  0  0  0
  4  5  1  0  0  0
  4 95  1  0  0  0
  4 96  1  0  0  0
  5  6  1  0  0  0
  5 26  1  0  0  0
  5 97  1  0  0  0
  6 25  1  0  0  0
  6 98  1  0  0  0
  6 99  1  0  0  0
  7  8  2  0  0  0
  7 26  1  0  0  0
  7 29  1  0  0  0
  8  9  1  0  0  0
  8 22  1  0  0  0
  9 10  1  0  0  0
  9 27  2  0  0  0
 10 11  2  0  0  0
 10 15  1  0  0  0
 11 12  1  0  0  0
 11100  1  0  0  0
 12 13  2  0  0  0
 12101  1  0  0  0
 13 14  1  0  0  0
 13 31  1  0  0  0
 14 15  2  0  0  0
 14102  1  0  0  0
 15103  1  0  0  0
 16 17  2  0  0  0
 16 21  1  0  0  0
 16 31  1  0  0  0
 17 18  1  0  0  0
 17104  1  0  0  0
 18 19  2  0  0  0
 18105  1  0  0  0
 19 20  1  0  0  0
 19 24  1  0  0  0
 20 21  2  0  0  0
 20106  1  0  0  0
 21 23  1  0  0  0
 22 28  1  0  0  0
 22 32  2  0  0  0
 26 27  1  0  0  0
 28107  1  0  0  0
 28108  1  0  0  0
 29109  1  0  0  0
 29110  1  0  0  0
 33 34  1  0  0  0
 33 66  1  0  0  0
 33 70  2  0  0  0
 34 36  1  0  0  0
 34 59  1  0  0  0
 34111  1  0  0  0
 35 44  2  0  0  0
 35 45  1  0  0  0
 35 68  1  0  0  0
 36 56  1  0  0  0
 36112  1  0  0  0
 37 39  1  0  0  0
 37 47  1  0  0  0
 37 66  1  0  0  0
 37113  1  0  0  0
 38 43  2  0  0  0
 38 46  1  0  0  0
 38 47  1  0  0  0
 39 64  1  0  0  0
 39 67  2  0  0  0
 40 52  1  0  0  0
 40 53  2  0  0  0
 40 58  1  0  0  0
 41114  1  0  0  0
 41115  1  0  0  0
 41116  1  0  0  0
 41 48  1  0  0  0
 42 43  1  0  0  0
 42 66  1  0  0  0
 42117  1  0  0  0
 42118  1  0  0  0
 43 44  1  0  0  0
 44119  1  0  0  0
 45 46  2  0  0  0
 45120  1  0  0  0
 46121  1  0  0  0
 47122  1  0  0  0
 47123  1  0  0  0
 48 56  1  0  0  0
 48 65  1  0  0  0
 48124  1  0  0  0
 49 50  1  0  0  0
 49 53  1  0  0  0
 49 64  1  0  0  0
 49125  1  0  0  0
 50 51  1  0  0  0
 50126  1  0  0  0
 50127  1  0  0  0
 51 52  1  0  0  0
 51128  1  0  0  0
 51129  1  0  0  0
 52130  1  0  0  0
 52131  1  0  0  0
 53 54  1  0  0  0
 54 55  2  0  0  0
 54132  1  0  0  0
 55 57  1  0  0  0
 55133  1  0  0  0
 56 69  2  0  0  0
 57 58  2  0  0  0
 57134  1  0  0  0
 58135  1  0  0  0
 59 60  1  0  0  0
 59 61  1  0  0  0
 59 62  1  0  0  0
 60136  1  0  0  0
 60137  1  0  0  0
 60138  1  0  0  0
 61139  1  0  0  0
 61140  1  0  0  0
 61141  1  0  0  0
 62142  1  0  0  0
 62143  1  0  0  0
 62144  1  0  0  0
 63 65  1  0  0  0
 63145  1  0  0  0
 63146  1  0  0  0
 63147  1  0  0  0
 64148  1  0  0  0
 65149  1  0  0  0
 68 86  1  0  0  0
 71 74  2  0  0  0
 71 75  1  0  0  0
 71150  1  0  0  0
 72 74  1  0  0  0
 72 76  2  0  0  0
 72151  1  0  0  0
 73 75  2  0  0  0
 73 76  1  0  0  0
 73152  1  0  0  0
 74 80  1  0  0  0
 75 85  1  0  0  0
 76 89  1  0  0  0
 77 83  1  0  0  0
 77 88  1  0  0  0
 77 90  2  0  0  0
 78 79  2  0  0  0
 78153  1  0  0  0
 78154  1  0  0  0
 79 80  1  0  0  0
 79155  1  0  0  0
 80 87  2  0  0  0
 81 82  1  0  0  0
 81 83  1  0  0  0
 81156  1  0  0  0
 81157  1  0  0  0
 82 88  1  0  0  0
 82158  1  0  0  0
 82159  1  0  0  0
 83 84  1  0  0  0
 83 86  1  0  0  0
 84160  1  0  0  0
 84161  1  0  0  0
 84162  1  0  0  0
 85 88  1  0  0  0
 85163  1  0  0  0
 85164  1  0  0  0
 86165  1  0  0  0
 86166  1  0  0  0
 87167  1  0  0  0
 89168  1  0  0  0
M  ISO  4   1 100  68 101  86 101  89 100
M  END
> <chiral flag>
0

> <version>
0

> <s_m_source_file>
/data/baiqing/PycharmProjects/Reinvent-master-3.2/result/LINK_invent/BTK/process_docking_weight1_custom_product_contain_oxygen_bond_distance_aromatic_linkinvent_7_9_3/rearranged_h_0074.sdf

> <i_m_source_file_index>
18

> <r_mmod_Potential_Energy-OPLS-2005>
67.3095321655273

> <r_mmod_Stretch_Energy-OPLS-2005>
66.6747817993164

> <r_mmod_Bend_Energy-OPLS-2005>
163.587097167969

> <r_mmod_Torsional_Energy-OPLS-2005>
283.482635498047

> <r_mmod_Improper_Torsional_Energy-OPLS-2005>
6.31311845779419

> <r_mmod_Van_der_Waal_Energy-OPLS-2005>
139.356384277344

> <r_mmod_Electrostatic_Energy-OPLS-2005>
-390.8828125

> <r_mmod_Solvation_Energy-OPLS-2005>
-229.213409423828

> <b_mmod_Minimization_Converged-OPLS-2005>
0

> <r_mmod_RMS_Derivative-OPLS-2005>
4.5504412651062

$$$$
18
                    3D
 Structure written by MMmdl.
158167  0  0  1  0            999 V2000
  -30.5673  -14.8181   20.4652 C   0  0  0  0  0  0
  -30.4286  -12.5071   19.4687 C   0  0  0  0  0  0
  -29.5039  -12.5077   18.2314 C   0  0  0  0  0  0
  -28.0317  -12.3208   18.6471 C   0  0  0  0  0  0
  -27.6272  -13.2343   19.8349 C   0  0  2  0  0  0
  -28.6710  -13.2070   20.9679 C   0  0  0  0  0  0
  -25.2463  -13.8181   20.5700 C   0  0  0  0  0  0
  -24.1765  -13.0416   20.9195 C   0  0  0  0  0  0
  -24.6380  -11.6899   20.8720 C   0  0  0  0  0  0
  -23.9058  -10.4280   21.0396 C   0  0  0  0  0  0
  -24.3623   -9.4212   21.9180 C   0  0  0  0  0  0
  -23.6302   -8.2245   22.0772 C   0  0  0  0  0  0
  -22.4282   -8.0271   21.3555 C   0  0  0  0  0  0
  -21.9899   -9.0236   20.4659 C   0  0  0  0  0  0
  -22.7223  -10.2112   20.3055 C   0  0  0  0  0  0
  -21.6853   -6.0726   22.5288 C   0  0  0  0  0  0
  -21.4009   -6.5645   23.8213 C   0  0  0  0  0  0
  -21.3662   -5.6808   24.9185 C   0  0  0  0  0  0
  -21.6061   -4.3067   24.7248 C   0  0  0  0  0  0
  -21.8819   -3.8150   23.4370 C   0  0  0  0  0  0
  -21.9194   -4.6958   22.3420 C   0  0  0  0  0  0
  -22.7799  -13.5192   21.1879 C   0  0  0  0  0  0
  -22.1654   -4.2130   21.0997 F   0  0  0  0  0  0
  -21.5634   -3.4567   25.7763 F   0  0  0  0  0  0
  -29.9559  -13.5842   20.3734 N   0  0  0  0  0  0
  -26.2859  -12.9387   20.3229 N   0  0  0  0  0  0
  -25.9293  -11.6537   20.5700 N   0  0  0  0  0  0
  -22.0468  -12.8144   22.0438 N   0  0  0  0  0  0
  -25.4176  -15.1901   20.4226 N   0  0  0  0  0  0
  -31.7704  -14.9049   20.1989 O   0  0  0  0  0  0
  -21.6651   -6.8852   21.4241 O   0  0  0  0  0  0
  -22.3497  -14.5521   20.6753 O   0  0  0  0  0  0
  -24.6368  -31.8502   23.1969 C   0  0  0  0  0  0
  -25.9150  -32.4745   23.8314 C   0  0  1  0  0  0
  -27.2087  -27.1935   20.1364 C   0  0  0  0  0  0
  -25.5926  -33.8549   24.2252 N   0  0  0  0  0  0
  -23.4373  -30.4757   21.5409 C   0  0  2  0  0  0
  -24.8818  -28.9145   20.1094 C   0  0  0  0  0  0
  -22.7525  -29.4581   22.4855 C   0  0  0  0  0  0
  -18.0318  -28.1404   22.8480 C   0  0  0  0  0  0
  -24.1505  -36.7291   23.2646 C   0  0  0  0  0  0
  -25.9878  -30.7421   21.3858 C   0  0  0  0  0  0
  -26.0548  -29.3584   20.7286 C   0  0  0  0  0  0
  -27.2164  -28.5100   20.7336 C   0  0  0  0  0  0
  -26.0083  -26.8375   19.4776 C   0  0  0  0  0  0
  -24.8687  -27.6648   19.4731 C   0  0  0  0  0  0
  -23.6614  -29.8167   20.1548 C   0  0  0  0  0  0
  -25.4132  -36.3080   24.0341 C   0  0  1  0  0  0
  -20.5918  -28.3729   23.1240 C   0  0  2  0  0  0
  -20.6821  -26.9425   22.5382 C   0  0  0  0  0  0
  -19.5787  -26.6358   21.5221 C   0  0  0  0  0  0
  -18.1978  -26.7928   22.1654 C   0  0  0  0  0  0
  -19.1559  -28.8881   23.2861 C   0  0  0  0  0  0
  -18.9472  -30.1476   23.8904 C   0  0  0  0  0  0
  -17.6469  -30.6612   24.0553 C   0  0  0  0  0  0
  -25.9059  -34.9440   23.5106 C   0  0  0  0  0  0
  -16.5373  -29.9088   23.6317 C   0  0  0  0  0  0
  -16.7301  -28.6491   23.0367 C   0  0  0  0  0  0
  -26.4511  -31.6561   25.0694 C   0  0  0  0  0  0
  -25.3736  -31.3691   26.1409 C   0  0  0  0  0  0
  -27.0385  -30.2997   24.6170 C   0  0  0  0  0  0
  -27.6066  -32.4292   25.7471 C   0  0  0  0  0  0
  -27.5597  -37.1807   24.8463 C   0  0  0  0  0  0
  -21.4215  -29.3072   22.3595 N   0  0  0  0  0  0
  -26.4308  -37.3775   23.9400 N   0  0  0  0  0  0
  -24.7077  -31.0416   22.0984 N   0  0  0  0  0  0
  -23.4169  -28.8083   23.2960 O   0  0  0  0  0  0
  -28.2958  -26.2702   20.2265 O   0  0  0  0  0  0
  -26.5635  -34.8921   22.4674 O   0  0  0  0  0  0
  -23.5507  -32.1353   23.7225 O   0  0  0  0  0  0
  -31.2513  -18.9022   22.5301 C   0  0  0  0  0  0
  -30.6186  -20.0316   21.9914 C   0  0  0  0  0  0
  -29.3685  -18.6066   20.5476 C   0  0  0  0  0  0
  -30.9564  -17.5964   22.1113 C   0  0  0  0  0  0
  -29.6198  -19.9976   20.9907 C   0  0  0  0  0  0
  -30.0483  -17.3810   21.0384 C   0  0  0  0  0  0
  -27.9144  -22.0478   20.1499 C   0  0  0  0  0  0
  -29.8093  -22.6333   20.7268 C   0  0  0  0  0  0
  -28.4688  -23.4756   20.6903 C   0  0  2  0  0  0
  -31.5909  -16.4816   22.9371 C   0  0  0  0  0  0
  -27.7954  -23.7938   22.0330 C   0  0  0  0  0  0
  -28.2701  -24.8096   19.7495 C   0  0  0  0  0  0
  -29.0410  -21.3649   20.6705 N   0  0  0  0  0  0
  -29.7630  -15.9651   20.6034 N   0  0  0  0  0  0
  -26.9304  -21.6387   19.5709 O   0  0  0  0  0  0
  -31.4645  -12.6519   19.1603 H   0  0  0  0  0  0
  -30.3933  -11.5421   19.9772 H   0  0  0  0  0  0
  -29.7973  -11.7160   17.5401 H   0  0  0  0  0  0
  -29.6139  -13.4474   17.6863 H   0  0  0  0  0  0
  -27.8954  -11.2745   18.9247 H   0  0  0  0  0  0
  -27.3711  -12.4921   17.7963 H   0  0  0  0  0  0
  -27.6019  -14.2445   19.4277 H   0  0  0  0  0  0
  -28.7311  -12.2212   21.4320 H   0  0  0  0  0  0
  -28.3907  -13.9047   21.7596 H   0  0  0  0  0  0
  -25.2769   -9.5700   22.4756 H   0  0  0  0  0  0
  -24.0030   -7.4637   22.7496 H   0  0  0  0  0  0
  -21.0834   -8.8736   19.8968 H   0  0  0  0  0  0
  -22.3665  -10.9651   19.6177 H   0  0  0  0  0  0
  -21.1972   -7.6152   23.9682 H   0  0  0  0  0  0
  -21.1494   -6.0564   25.9074 H   0  0  0  0  0  0
  -22.0586   -2.7613   23.2890 H   0  0  0  0  0  0
  -22.4138  -11.9816   22.4813 H   0  0  0  0  0  0
  -21.1103  -13.1158   22.2698 H   0  0  0  0  0  0
  -24.6506  -15.8451   20.5396 H   0  0  0  0  0  0
  -26.2814  -15.6386   20.1497 H   0  0  0  0  0  0
  -26.7184  -32.5388   23.1019 H   0  0  0  0  0  0
  -25.0039  -33.9658   25.0381 H   0  0  0  0  0  0
  -22.7380  -31.3048   21.3972 H   0  0  0  0  0  0
  -23.3772  -35.9618   23.3304 H   0  0  0  0  0  0
  -24.3622  -36.8904   22.2063 H   0  0  0  0  0  0
  -23.7250  -37.6492   23.6667 H   0  0  0  0  0  0
  -26.1293  -31.4948   20.6095 H   0  0  0  0  0  0
  -26.8639  -30.7959   22.0194 H   0  0  0  0  0  0
  -28.1075  -28.8469   21.2437 H   0  0  0  0  0  0
  -25.8910  -25.8935   18.9752 H   0  0  0  0  0  0
  -23.9720  -27.3188   18.9773 H   0  0  0  0  0  0
  -23.8064  -30.6022   19.4116 H   0  0  0  0  0  0
  -22.7750  -29.2681   19.8318 H   0  0  0  0  0  0
  -25.1326  -36.1940   25.0843 H   0  0  0  0  0  0
  -21.0034  -28.3322   24.1352 H   0  0  0  0  0  0
  -20.5749  -26.2323   23.3591 H   0  0  0  0  0  0
  -21.6672  -26.7430   22.1136 H   0  0  0  0  0  0
  -19.6724  -27.3128   20.6714 H   0  0  0  0  0  0
  -19.6950  -25.6273   21.1275 H   0  0  0  0  0  0
  -17.4227  -26.6605   21.4089 H   0  0  0  0  0  0
  -18.0415  -26.0117   22.9103 H   0  0  0  0  0  0
  -19.7948  -30.7283   24.2258 H   0  0  0  0  0  0
  -17.5019  -31.6304   24.5129 H   0  0  0  0  0  0
  -15.5362  -30.2990   23.7605 H   0  0  0  0  0  0
  -15.8718  -28.0776   22.7100 H   0  0  0  0  0  0
  -24.5888  -30.7081   25.7703 H   0  0  0  0  0  0
  -24.8959  -32.2852   26.4885 H   0  0  0  0  0  0
  -25.8048  -30.8798   27.0146 H   0  0  0  0  0  0
  -26.2969  -29.6700   24.1236 H   0  0  0  0  0  0
  -27.4130  -29.7294   25.4672 H   0  0  0  0  0  0
  -27.8819  -30.4303   23.9395 H   0  0  0  0  0  0
  -27.2664  -33.3554   26.2114 H   0  0  0  0  0  0
  -28.3845  -32.6891   25.0281 H   0  0  0  0  0  0
  -28.0768  -31.8363   26.5319 H   0  0  0  0  0  0
  -28.2610  -38.0108   24.7538 H   0  0  0  0  0  0
  -28.1097  -36.2641   24.6273 H   0  0  0  0  0  0
  -27.2315  -37.1445   25.8863 H   0  0  0  0  0  0
  -20.9407  -29.8787   21.6786 H   0  0  0  0  0  0
  -26.0196  -38.2859   24.1367 H   0  0  0  0  0  0
  -31.9599  -19.0522   23.3322 H   0  0  0  0  0  0
  -30.8996  -20.9676   22.4453 H   0  0  0  0  0  0
  -28.6091  -18.4757   19.7893 H   0  0  0  0  0  0
  -30.3898  -22.8185   21.6293 H   0  0  0  0  0  0
  -30.4298  -22.7631   19.8388 H   0  0  0  0  0  0
  -32.5597  -16.1891   22.5295 H   0  0  0  0  0  0
  -30.9547  -15.6029   23.0294 H   0  0  0  0  0  0
  -31.7548  -16.8263   23.9588 H   0  0  0  0  0  0
  -27.7571  -22.9325   22.6996 H   0  0  0  0  0  0
  -26.7716  -24.1377   21.8838 H   0  0  0  0  0  0
  -28.3231  -24.5889   22.5602 H   0  0  0  0  0  0
  -27.4156  -24.6161   19.1108 H   0  0  0  0  0  0
  -29.0907  -24.7948   19.0331 H   0  0  0  0  0  0
  -28.7887  -15.7759   20.4334 H   0  0  0  0  0  0
  1 25  1  0  0  0
  1 30  2  0  0  0
  1 84  1  0  0  0
  2  3  1  0  0  0
  2 25  1  0  0  0
  2 86  1  0  0  0
  2 87  1  0  0  0
  3  4  1  0  0  0
  3 88  1  0  0  0
  3 89  1  0  0  0
  4  5  1  0  0  0
  4 90  1  0  0  0
  4 91  1  0  0  0
  5  6  1  0  0  0
  5 26  1  0  0  0
  5 92  1  0  0  0
  6 25  1  0  0  0
  6 93  1  0  0  0
  6 94  1  0  0  0
  7  8  2  0  0  0
  7 26  1  0  0  0
  7 29  1  0  0  0
  8  9  1  0  0  0
  8 22  1  0  0  0
  9 10  1  0  0  0
  9 27  2  0  0  0
 10 11  2  0  0  0
 10 15  1  0  0  0
 11 12  1  0  0  0
 11 95  1  0  0  0
 12 13  2  0  0  0
 12 96  1  0  0  0
 13 14  1  0  0  0
 13 31  1  0  0  0
 14 15  2  0  0  0
 14 97  1  0  0  0
 15 98  1  0  0  0
 16 17  2  0  0  0
 16 21  1  0  0  0
 16 31  1  0  0  0
 17 18  1  0  0  0
 17 99  1  0  0  0
 18 19  2  0  0  0
 18100  1  0  0  0
 19 20  1  0  0  0
 19 24  1  0  0  0
 20 21  2  0  0  0
 20101  1  0  0  0
 21 23  1  0  0  0
 22 28  1  0  0  0
 22 32  2  0  0  0
 26 27  1  0  0  0
 28102  1  0  0  0
 28103  1  0  0  0
 29104  1  0  0  0
 29105  1  0  0  0
 33 34  1  0  0  0
 33 66  1  0  0  0
 33 70  2  0  0  0
 34 36  1  0  0  0
 34 59  1  0  0  0
 34106  1  0  0  0
 35 44  2  0  0  0
 35 45  1  0  0  0
 35 68  1  0  0  0
 36 56  1  0  0  0
 36107  1  0  0  0
 37 39  1  0  0  0
 37 47  1  0  0  0
 37 66  1  0  0  0
 37108  1  0  0  0
 38 43  2  0  0  0
 38 46  1  0  0  0
 38 47  1  0  0  0
 39 64  1  0  0  0
 39 67  2  0  0  0
 40 52  1  0  0  0
 40 53  2  0  0  0
 40 58  1  0  0  0
 41109  1  0  0  0
 41110  1  0  0  0
 41111  1  0  0  0
 41 48  1  0  0  0
 42 43  1  0  0  0
 42 66  1  0  0  0
 42112  1  0  0  0
 42113  1  0  0  0
 43 44  1  0  0  0
 44114  1  0  0  0
 45 46  2  0  0  0
 45115  1  0  0  0
 46116  1  0  0  0
 47117  1  0  0  0
 47118  1  0  0  0
 48 56  1  0  0  0
 48 65  1  0  0  0
 48119  1  0  0  0
 49 50  1  0  0  0
 49 53  1  0  0  0
 49 64  1  0  0  0
 49120  1  0  0  0
 50 51  1  0  0  0
 50121  1  0  0  0
 50122  1  0  0  0
 51 52  1  0  0  0
 51123  1  0  0  0
 51124  1  0  0  0
 52125  1  0  0  0
 52126  1  0  0  0
 53 54  1  0  0  0
 54 55  2  0  0  0
 54127  1  0  0  0
 55 57  1  0  0  0
 55128  1  0  0  0
 56 69  2  0  0  0
 57 58  2  0  0  0
 57129  1  0  0  0
 58130  1  0  0  0
 59 60  1  0  0  0
 59 61  1  0  0  0
 59 62  1  0  0  0
 60131  1  0  0  0
 60132  1  0  0  0
 60133  1  0  0  0
 61134  1  0  0  0
 61135  1  0  0  0
 61136  1  0  0  0
 62137  1  0  0  0
 62138  1  0  0  0
 62139  1  0  0  0
 63 65  1  0  0  0
 63140  1  0  0  0
 63141  1  0  0  0
 63142  1  0  0  0
 64143  1  0  0  0
 65144  1  0  0  0
 68 82  1  0  0  0
 71 72  2  0  0  0
 71 74  1  0  0  0
 71145  1  0  0  0
 72 75  1  0  0  0
 72146  1  0  0  0
 73 75  2  0  0  0
 73 76  1  0  0  0
 73147  1  0  0  0
 74 76  2  0  0  0
 74 80  1  0  0  0
 75 83  1  0  0  0
 76 84  1  0  0  0
 77 79  1  0  0  0
 77 83  1  0  0  0
 77 85  2  0  0  0
 78 79  1  0  0  0
 78 83  1  0  0  0
 78148  1  0  0  0
 78149  1  0  0  0
 79 81  1  0  0  0
 79 82  1  0  0  0
 80150  1  0  0  0
 80151  1  0  0  0
 80152  1  0  0  0
 81153  1  0  0  0
 81154  1  0  0  0
 81155  1  0  0  0
 82156  1  0  0  0
 82157  1  0  0  0
 84158  1  0  0  0
M  ISO  4   1 100  68 101  82 101  84 100
M  END
> <chiral flag>
0

> <version>
0

> <s_m_source_file>
/data/baiqing/PycharmProjects/Reinvent-master-3.2/result/LINK_invent/BTK/process_docking_weight1_custom_product_contain_oxygen_bond_distance_aromatic_linkinvent_7_9_3/rearranged_h_0074.sdf

> <i_m_source_file_index>
19

> <r_mmod_Potential_Energy-OPLS-2005>
369.478668212891

> <r_mmod_Stretch_Energy-OPLS-2005>
178.189590454102

> <r_mmod_Bend_Energy-OPLS-2005>
258.968811035156

> <r_mmod_Torsional_Energy-OPLS-2005>
255.286071777344

> <r_mmod_Improper_Torsional_Energy-OPLS-2005>
6.56768941879272

> <r_mmod_Van_der_Waal_Energy-OPLS-2005>
144.534652709961

> <r_mmod_Electrostatic_Energy-OPLS-2005>
-384.615356445312

> <r_mmod_Solvation_Energy-OPLS-2005>
-216.778381347656

> <b_mmod_Minimization_Converged-OPLS-2005>
0

> <r_mmod_RMS_Derivative-OPLS-2005>
4.11829996109009

$$$$
20
                    3D
 Structure written by MMmdl.
157165  0  0  1  0            999 V2000
  -30.5664  -14.6771   20.4935 C   0  0  0  0  0  0
  -30.4536  -12.4201   19.4480 C   0  0  0  0  0  0
  -29.5156  -12.5109   18.2211 C   0  0  0  0  0  0
  -28.0386  -12.3331   18.6337 C   0  0  0  0  0  0
  -27.6515  -13.2064   19.8571 C   0  0  2  0  0  0
  -28.6934  -13.0621   20.9891 C   0  0  0  0  0  0
  -25.2556  -13.8138   20.5644 C   0  0  0  0  0  0
  -24.1832  -13.0423   20.9209 C   0  0  0  0  0  0
  -24.6397  -11.6898   20.8759 C   0  0  0  0  0  0
  -23.9074  -10.4286   21.0435 C   0  0  0  0  0  0
  -24.3633   -9.4205   21.9209 C   0  0  0  0  0  0
  -23.6300   -8.2245   22.0760 C   0  0  0  0  0  0
  -22.4270   -8.0299   21.3567 C   0  0  0  0  0  0
  -21.9928   -9.0278   20.4668 C   0  0  0  0  0  0
  -22.7255  -10.2144   20.3083 C   0  0  0  0  0  0
  -21.6852   -6.0759   22.5299 C   0  0  0  0  0  0
  -21.4003   -6.5662   23.8234 C   0  0  0  0  0  0
  -21.3651   -5.6808   24.9195 C   0  0  0  0  0  0
  -21.6042   -4.3071   24.7245 C   0  0  0  0  0  0
  -21.8814   -3.8170   23.4362 C   0  0  0  0  0  0
  -21.9183   -4.6987   22.3418 C   0  0  0  0  0  0
  -22.7869  -13.5246   21.1888 C   0  0  0  0  0  0
  -22.1667   -4.2174   21.1000 F   0  0  0  0  0  0
  -21.5619   -3.4556   25.7757 F   0  0  0  0  0  0
  -30.0028  -13.4293   20.4262 N   0  0  0  0  0  0
  -26.2965  -12.9295   20.3245 N   0  0  0  0  0  0
  -25.9310  -11.6480   20.5742 N   0  0  0  0  0  0
  -22.0481  -12.8238   22.0418 N   0  0  0  0  0  0
  -25.4271  -15.1858   20.4039 N   0  0  0  0  0  0
  -31.7403  -14.8725   20.1626 O   0  0  0  0  0  0
  -21.6633   -6.8895   21.4258 O   0  0  0  0  0  0
  -22.3578  -14.5564   20.6729 O   0  0  0  0  0  0
  -24.6316  -31.8569   23.1994 C   0  0  0  0  0  0
  -25.9157  -32.4746   23.8334 C   0  0  1  0  0  0
  -27.2208  -27.3027   20.1119 C   0  0  0  0  0  0
  -25.5962  -33.8543   24.2266 N   0  0  0  0  0  0
  -23.4214  -30.4810   21.5478 C   0  0  2  0  0  0
  -24.8600  -28.9271   20.1156 C   0  0  0  0  0  0
  -22.7498  -29.4619   22.4997 C   0  0  0  0  0  0
  -18.0275  -28.1398   22.8487 C   0  0  0  0  0  0
  -24.1476  -36.7267   23.2643 C   0  0  0  0  0  0
  -25.9634  -30.7842   21.3650 C   0  0  0  0  0  0
  -26.0318  -29.4074   20.7141 C   0  0  0  0  0  0
  -27.2134  -28.6077   20.6984 C   0  0  0  0  0  0
  -26.0153  -26.8672   19.5147 C   0  0  0  0  0  0
  -24.8546  -27.6623   19.5062 C   0  0  0  0  0  0
  -23.6288  -29.8093   20.1653 C   0  0  0  0  0  0
  -25.4106  -36.3052   24.0324 C   0  0  1  0  0  0
  -20.5873  -28.3692   23.1294 C   0  0  2  0  0  0
  -20.6741  -26.9421   22.5413 C   0  0  0  0  0  0
  -19.5718  -26.6400   21.5203 C   0  0  0  0  0  0
  -18.1901  -26.7941   22.1616 C   0  0  0  0  0  0
  -19.1535  -28.8868   23.2873 C   0  0  0  0  0  0
  -18.9449  -30.1464   23.8902 C   0  0  0  0  0  0
  -17.6450  -30.6596   24.0564 C   0  0  0  0  0  0
  -25.9057  -34.9426   23.5090 C   0  0  0  0  0  0
  -16.5337  -29.9090   23.6343 C   0  0  0  0  0  0
  -16.7259  -28.6502   23.0369 C   0  0  0  0  0  0
  -26.4532  -31.6562   25.0714 C   0  0  0  0  0  0
  -25.3761  -31.3687   26.1441 C   0  0  0  0  0  0
  -27.0386  -30.2988   24.6163 C   0  0  0  0  0  0
  -27.6109  -32.4300   25.7477 C   0  0  0  0  0  0
  -27.5568  -37.1781   24.8485 C   0  0  0  0  0  0
  -21.4216  -29.3039   22.3720 N   0  0  0  0  0  0
  -26.4281  -37.3763   23.9426 N   0  0  0  0  0  0
  -24.6924  -31.0581   22.0938 N   0  0  0  0  0  0
  -23.4208  -28.8166   23.3093 O   0  0  0  0  0  0
  -28.3579  -26.4734   20.1482 O   0  0  0  0  0  0
  -26.5632  -34.8907   22.4660 O   0  0  0  0  0  0
  -23.5480  -32.1379   23.7311 O   0  0  0  0  0  0
  -28.4258  -19.2645   20.1514 C   0  0  0  0  0  0
  -30.4496  -19.3813   21.4433 C   0  0  0  0  0  0
  -28.5941  -17.8451   20.0622 C   0  0  0  0  0  0
  -30.6324  -17.9645   21.3279 C   0  0  0  0  0  0
  -29.3318  -20.0754   20.8806 C   0  0  0  0  0  0
  -29.6869  -17.1482   20.6566 C   0  0  0  0  0  0
  -29.0457  -21.5284   21.2558 C   0  0  0  0  0  0
  -28.3540  -25.1088   19.7486 C   0  0  0  0  0  0
  -28.2686  -24.8486   18.4150 C   0  0  0  0  0  0
  -28.4901  -24.0315   20.7925 C   0  0  0  0  0  0
  -28.2067  -23.5126   17.6799 C   0  0  0  0  0  0
  -29.6614  -15.6848   20.7227 N   0  0  0  0  0  0
  -28.7810  -22.6069   20.4224 N   0  0  0  0  0  0
  -29.0576  -21.7194   22.5778 N   0  3  0  0  0  0
  -28.3852  -24.3078   21.9950 O   0  0  0  0  0  0
  -28.2128  -25.8401   17.5104 O   0  0  0  0  0  0
  -31.4902  -12.5855   19.1436 H   0  0  0  0  0  0
  -30.4238  -11.4234   19.8903 H   0  0  0  0  0  0
  -29.7921  -11.7605   17.4787 H   0  0  0  0  0  0
  -29.6451  -13.4772   17.7322 H   0  0  0  0  0  0
  -27.8834  -11.2783   18.8665 H   0  0  0  0  0  0
  -27.3853  -12.5553   17.7901 H   0  0  0  0  0  0
  -27.6642  -14.2387   19.5060 H   0  0  0  0  0  0
  -28.7163  -12.0374   21.3627 H   0  0  0  0  0  0
  -28.4279  -13.6813   21.8478 H   0  0  0  0  0  0
  -25.2783   -9.5669   22.4784 H   0  0  0  0  0  0
  -24.0018   -7.4628   22.7470 H   0  0  0  0  0  0
  -21.0867   -8.8830   19.8970 H   0  0  0  0  0  0
  -22.3761  -10.9705   19.6203 H   0  0  0  0  0  0
  -21.1993   -7.6164   23.9755 H   0  0  0  0  0  0
  -21.1471   -6.0535   25.9103 H   0  0  0  0  0  0
  -22.0584   -2.7630   23.2868 H   0  0  0  0  0  0
  -22.4088  -11.9902   22.4807 H   0  0  0  0  0  0
  -21.1111  -13.1306   22.2632 H   0  0  0  0  0  0
  -24.6487  -15.8277   20.5038 H   0  0  0  0  0  0
  -26.2448  -15.6195   20.0003 H   0  0  0  0  0  0
  -26.7235  -32.5394   23.1089 H   0  0  0  0  0  0
  -25.0121  -33.9659   25.0415 H   0  0  0  0  0  0
  -22.7157  -31.3017   21.4060 H   0  0  0  0  0  0
  -23.3721  -35.9614   23.3318 H   0  0  0  0  0  0
  -24.3580  -36.8871   22.2061 H   0  0  0  0  0  0
  -23.7203  -37.6464   23.6651 H   0  0  0  0  0  0
  -26.0965  -31.5402   20.5902 H   0  0  0  0  0  0
  -26.8453  -30.8356   21.9915 H   0  0  0  0  0  0
  -28.1175  -28.9767   21.1602 H   0  0  0  0  0  0
  -25.9427  -25.8901   19.0606 H   0  0  0  0  0  0
  -23.9557  -27.2817   19.0385 H   0  0  0  0  0  0
  -23.7367  -30.5807   19.4033 H   0  0  0  0  0  0
  -22.7477  -29.2361   19.8730 H   0  0  0  0  0  0
  -25.1265  -36.1918   25.0808 H   0  0  0  0  0  0
  -20.9941  -28.3245   24.1417 H   0  0  0  0  0  0
  -20.5612  -26.2307   23.3608 H   0  0  0  0  0  0
  -21.6607  -26.7426   22.1222 H   0  0  0  0  0  0
  -19.6869  -25.6313   21.1220 H   0  0  0  0  0  0
  -19.6642  -27.3217   20.6736 H   0  0  0  0  0  0
  -17.4160  -26.6696   21.4023 H   0  0  0  0  0  0
  -18.0302  -26.0087   22.9020 H   0  0  0  0  0  0
  -19.7921  -30.7287   24.2262 H   0  0  0  0  0  0
  -17.4990  -31.6274   24.5176 H   0  0  0  0  0  0
  -15.5325  -30.2979   23.7687 H   0  0  0  0  0  0
  -15.8646  -28.0811   22.7109 H   0  0  0  0  0  0
  -24.5964  -30.7001   25.7767 H   0  0  0  0  0  0
  -24.8917  -32.2841   26.4856 H   0  0  0  0  0  0
  -25.8100  -30.8883   27.0214 H   0  0  0  0  0  0
  -26.2953  -29.6712   24.1234 H   0  0  0  0  0  0
  -27.4146  -29.7278   25.4659 H   0  0  0  0  0  0
  -27.8788  -30.4288   23.9337 H   0  0  0  0  0  0
  -27.2745  -33.3608   26.2042 H   0  0  0  0  0  0
  -28.3910  -32.6827   25.0291 H   0  0  0  0  0  0
  -28.0778  -31.8421   26.5389 H   0  0  0  0  0  0
  -28.2600  -38.0068   24.7514 H   0  0  0  0  0  0
  -28.1030  -36.2589   24.6309 H   0  0  0  0  0  0
  -27.2299  -37.1451   25.8896 H   0  0  0  0  0  0
  -20.9425  -29.8747   21.6902 H   0  0  0  0  0  0
  -26.0149  -38.2826   24.1432 H   0  0  0  0  0  0
  -27.5359  -19.7127   19.7306 H   0  0  0  0  0  0
  -31.1640  -19.9379   22.0355 H   0  0  0  0  0  0
  -27.8222  -17.2803   19.5602 H   0  0  0  0  0  0
  -31.4692  -17.4976   21.8288 H   0  0  0  0  0  0
  -27.9382  -23.6288   16.6288 H   0  0  0  0  0  0
  -27.4521  -22.8567   18.1175 H   0  0  0  0  0  0
  -29.1762  -23.0143   17.7029 H   0  0  0  0  0  0
  -28.7373  -15.3102   20.8565 H   0  0  0  0  0  0
  -28.8531  -22.3498   19.4502 H   0  0  0  0  0  0
  -28.8118  -22.6303   22.9455 H   0  0  0  0  0  0
  -29.1821  -20.9348   23.1982 H   0  0  0  0  0  0
  -28.0554  -25.4531   16.6590 H   0  0  0  0  0  0
  1 25  1  0  0  0
  1 30  2  0  0  0
  1 82  1  0  0  0
  2  3  1  0  0  0
  2 25  1  0  0  0
  2 87  1  0  0  0
  2 88  1  0  0  0
  3  4  1  0  0  0
  3 89  1  0  0  0
  3 90  1  0  0  0
  4  5  1  0  0  0
  4 91  1  0  0  0
  4 92  1  0  0  0
  5  6  1  0  0  0
  5 26  1  0  0  0
  5 93  1  0  0  0
  6 25  1  0  0  0
  6 94  1  0  0  0
  6 95  1  0  0  0
  7  8  2  0  0  0
  7 26  1  0  0  0
  7 29  1  0  0  0
  8  9  1  0  0  0
  8 22  1  0  0  0
  9 10  1  0  0  0
  9 27  2  0  0  0
 10 11  2  0  0  0
 10 15  1  0  0  0
 11 12  1  0  0  0
 11 96  1  0  0  0
 12 13  2  0  0  0
 12 97  1  0  0  0
 13 14  1  0  0  0
 13 31  1  0  0  0
 14 15  2  0  0  0
 14 98  1  0  0  0
 15 99  1  0  0  0
 16 17  2  0  0  0
 16 21  1  0  0  0
 16 31  1  0  0  0
 17 18  1  0  0  0
 17100  1  0  0  0
 18 19  2  0  0  0
 18101  1  0  0  0
 19 20  1  0  0  0
 19 24  1  0  0  0
 20 21  2  0  0  0
 20102  1  0  0  0
 21 23  1  0  0  0
 22 28  1  0  0  0
 22 32  2  0  0  0
 26 27  1  0  0  0
 28103  1  0  0  0
 28104  1  0  0  0
 29105  1  0  0  0
 29106  1  0  0  0
 33 34  1  0  0  0
 33 66  1  0  0  0
 33 70  2  0  0  0
 34 36  1  0  0  0
 34 59  1  0  0  0
 34107  1  0  0  0
 35 44  2  0  0  0
 35 45  1  0  0  0
 35 68  1  0  0  0
 36 56  1  0  0  0
 36108  1  0  0  0
 37 39  1  0  0  0
 37 47  1  0  0  0
 37 66  1  0  0  0
 37109  1  0  0  0
 38 43  2  0  0  0
 38 46  1  0  0  0
 38 47  1  0  0  0
 39 64  1  0  0  0
 39 67  2  0  0  0
 40 52  1  0  0  0
 40 53  2  0  0  0
 40 58  1  0  0  0
 41110  1  0  0  0
 41111  1  0  0  0
 41112  1  0  0  0
 41 48  1  0  0  0
 42 43  1  0  0  0
 42 66  1  0  0  0
 42113  1  0  0  0
 42114  1  0  0  0
 43 44  1  0  0  0
 44115  1  0  0  0
 45 46  2  0  0  0
 45116  1  0  0  0
 46117  1  0  0  0
 47118  1  0  0  0
 47119  1  0  0  0
 48 56  1  0  0  0
 48 65  1  0  0  0
 48120  1  0  0  0
 49 50  1  0  0  0
 49 53  1  0  0  0
 49 64  1  0  0  0
 49121  1  0  0  0
 50 51  1  0  0  0
 50122  1  0  0  0
 50123  1  0  0  0
 51 52  1  0  0  0
 51124  1  0  0  0
 51125  1  0  0  0
 52126  1  0  0  0
 52127  1  0  0  0
 53 54  1  0  0  0
 54 55  2  0  0  0
 54128  1  0  0  0
 55 57  1  0  0  0
 55129  1  0  0  0
 56 69  2  0  0  0
 57 58  2  0  0  0
 57130  1  0  0  0
 58131  1  0  0  0
 59 60  1  0  0  0
 59 61  1  0  0  0
 59 62  1  0  0  0
 60132  1  0  0  0
 60133  1  0  0  0
 60134  1  0  0  0
 61135  1  0  0  0
 61136  1  0  0  0
 61137  1  0  0  0
 62138  1  0  0  0
 62139  1  0  0  0
 62140  1  0  0  0
 63 65  1  0  0  0
 63141  1  0  0  0
 63142  1  0  0  0
 63143  1  0  0  0
 64144  1  0  0  0
 65145  1  0  0  0
 68 78  1  0  0  0
 71 73  2  0  0  0
 71 75  1  0  0  0
 71146  1  0  0  0
 72 74  1  0  0  0
 72 75  2  0  0  0
 72147  1  0  0  0
 73 76  1  0  0  0
 73148  1  0  0  0
 74 76  2  0  0  0
 74149  1  0  0  0
 75 77  1  0  0  0
 76 82  1  0  0  0
 77 83  1  0  0  0
 77 84  2  0  0  0
 78 79  2  0  0  0
 78 80  1  0  0  0
 79 81  1  0  0  0
 79 86  1  0  0  0
 80 83  1  0  0  0
 80 85  2  0  0  0
 81150  1  0  0  0
 81151  1  0  0  0
 81152  1  0  0  0
 82153  1  0  0  0
 83154  1  0  0  0
 84155  1  0  0  0
 84156  1  0  0  0
 86157  1  0  0  0
M  CHG  1  84   1
M  ISO  4   1 100  68 101  78 101  82 100
M  END
> <chiral flag>
0

> <version>
0

> <s_m_source_file>
/data/baiqing/PycharmProjects/Reinvent-master-3.2/result/LINK_invent/BTK/process_docking_weight1_custom_product_contain_oxygen_bond_distance_aromatic_linkinvent_7_9_3/rearranged_h_0074.sdf

> <i_m_source_file_index>
20

> <r_mmod_Potential_Energy-OPLS-2005>
-85.584342956543

> <r_mmod_Stretch_Energy-OPLS-2005>
92.9846649169922

> <r_mmod_Bend_Energy-OPLS-2005>
163.101577758789

> <r_mmod_Torsional_Energy-OPLS-2005>
251.240264892578

> <r_mmod_Improper_Torsional_Energy-OPLS-2005>
8.77020072937012

> <r_mmod_Van_der_Waal_Energy-OPLS-2005>
160.637390136719

> <r_mmod_Electrostatic_Energy-OPLS-2005>
-366.295104980469

> <r_mmod_Solvation_Energy-OPLS-2005>
-455.338684082031

> <b_mmod_Minimization_Converged-OPLS-2005>
0

> <r_mmod_RMS_Derivative-OPLS-2005>
3.270352602005

$$$$
21
                    3D
 Structure written by MMmdl.
163172  0  0  1  0            999 V2000
  -30.6291  -14.8196   20.4642 C   0  0  0  0  0  0
  -30.4482  -12.5273   19.4317 C   0  0  0  0  0  0
  -29.4965  -12.4976   18.2147 C   0  0  0  0  0  0
  -28.0340  -12.2520   18.6459 C   0  0  0  0  0  0
  -27.6228  -13.1435   19.8363 C   0  0  2  0  0  0
  -28.7082  -13.1306   20.9585 C   0  0  0  0  0  0
  -25.2379  -13.7815   20.5524 C   0  0  0  0  0  0
  -24.1693  -13.0197   20.9215 C   0  0  0  0  0  0
  -24.6260  -11.6701   20.8833 C   0  0  0  0  0  0
  -23.8943  -10.4163   21.0489 C   0  0  0  0  0  0
  -24.3523   -9.4089   21.9239 C   0  0  0  0  0  0
  -23.6221   -8.2107   22.0757 C   0  0  0  0  0  0
  -22.4192   -8.0161   21.3542 C   0  0  0  0  0  0
  -21.9831   -9.0129   20.4637 C   0  0  0  0  0  0
  -22.7133  -10.2015   20.3106 C   0  0  0  0  0  0
  -21.6785   -6.0657   22.5273 C   0  0  0  0  0  0
  -21.3983   -6.5593   23.8205 C   0  0  0  0  0  0
  -21.3651   -5.6760   24.9171 C   0  0  0  0  0  0
  -21.6057   -4.3022   24.7249 C   0  0  0  0  0  0
  -21.8817   -3.8082   23.4371 C   0  0  0  0  0  0
  -21.9180   -4.6895   22.3430 C   0  0  0  0  0  0
  -22.7748  -13.5093   21.1911 C   0  0  0  0  0  0
  -22.1659   -4.2076   21.0999 F   0  0  0  0  0  0
  -21.5678   -3.4511   25.7771 F   0  0  0  0  0  0
  -29.9771  -13.5896   20.3604 N   0  0  0  0  0  0
  -26.2831  -12.8904   20.3321 N   0  0  0  0  0  0
  -25.9152  -11.6163   20.5895 N   0  0  0  0  0  0
  -22.0405  -12.8167   22.0520 N   0  0  0  0  0  0
  -25.3763  -15.1464   20.3531 N   0  0  0  0  0  0
  -31.8406  -14.8439   20.2283 O   0  0  0  0  0  0
  -21.6557   -6.8778   21.4238 O   0  0  0  0  0  0
  -22.3456  -14.5393   20.6714 O   0  0  0  0  0  0
  -24.6272  -31.8564   23.1975 C   0  0  0  0  0  0
  -25.9096  -32.4781   23.8312 C   0  0  1  0  0  0
  -27.2591  -27.3248   20.1396 C   0  0  0  0  0  0
  -25.5906  -33.8566   24.2251 N   0  0  0  0  0  0
  -23.4263  -30.4744   21.5366 C   0  0  2  0  0  0
  -24.8851  -28.9203   20.1122 C   0  0  0  0  0  0
  -22.7528  -29.4599   22.4877 C   0  0  0  0  0  0
  -18.0318  -28.1323   22.8528 C   0  0  0  0  0  0
  -24.1479  -36.7296   23.2648 C   0  0  0  0  0  0
  -25.9628  -30.7904   21.3668 C   0  0  0  0  0  0
  -26.0467  -29.4126   20.7217 C   0  0  0  0  0  0
  -27.2398  -28.6316   20.7178 C   0  0  0  0  0  0
  -26.0754  -26.8768   19.5126 C   0  0  0  0  0  0
  -24.9017  -27.6558   19.4988 C   0  0  0  0  0  0
  -23.6478  -29.7983   20.1551 C   0  0  0  0  0  0
  -25.4105  -36.3076   24.0333 C   0  0  1  0  0  0
  -20.5892  -28.3794   23.1283 C   0  0  2  0  0  0
  -20.6813  -26.9454   22.5562 C   0  0  0  0  0  0
  -19.5811  -26.6253   21.5355 C   0  0  0  0  0  0
  -18.1956  -26.7903   22.1653 C   0  0  0  0  0  0
  -19.1521  -28.8906   23.2830 C   0  0  0  0  0  0
  -18.9372  -30.1541   23.8734 C   0  0  0  0  0  0
  -17.6344  -30.6582   24.0396 C   0  0  0  0  0  0
  -25.9046  -34.9461   23.5107 C   0  0  0  0  0  0
  -16.5283  -29.8985   23.6214 C   0  0  0  0  0  0
  -16.7267  -28.6334   23.0418 C   0  0  0  0  0  0
  -26.4491  -31.6606   25.0689 C   0  0  0  0  0  0
  -25.3690  -31.3756   26.1403 C   0  0  0  0  0  0
  -27.0351  -30.3040   24.6133 C   0  0  0  0  0  0
  -27.6074  -32.4332   25.7476 C   0  0  0  0  0  0
  -27.5581  -37.1807   24.8473 C   0  0  0  0  0  0
  -21.4211  -29.3151   22.3652 N   0  0  0  0  0  0
  -26.4289  -37.3773   23.9407 N   0  0  0  0  0  0
  -24.6898  -31.0566   22.0922 N   0  0  0  0  0  0
  -23.4219  -28.8080   23.2932 O   0  0  0  0  0  0
  -28.3842  -26.4869   20.1366 O   0  0  0  0  0  0
  -26.5624  -34.8926   22.4671 O   0  0  0  0  0  0
  -23.5436  -32.1373   23.7296 O   0  0  0  0  0  0
  -30.1262  -19.7004   21.5328 C   0  0  0  0  0  0
  -30.6214  -19.4675   19.2013 C   0  0  0  0  0  0
  -30.2883  -18.2864   21.7043 C   0  0  0  0  0  0
  -30.7653  -18.0541   19.3645 C   0  0  0  0  0  0
  -29.3267  -22.7237   20.9103 C   0  0  0  0  0  0
  -29.7400  -22.3532   18.7662 C   0  0  0  0  0  0
  -28.9620  -23.9045   20.2543 C   0  0  0  0  0  0
  -30.1924  -20.3269   20.2570 C   0  0  0  0  0  0
  -30.4838  -17.4061   20.5984 C   0  0  0  0  0  0
  -29.2714  -23.6395   18.8890 C   0  0  0  0  0  0
  -27.4987  -18.1671   19.2491 C   0  0  0  0  0  0
  -27.6900  -17.4358   20.3587 C   0  0  0  0  0  0
  -27.0638  -17.8357   21.6877 C   0  0  0  0  0  0
  -28.2642  -25.1896   20.8433 C   0  0  0  0  0  0
  -28.4691  -16.1140   20.3238 C   0  0  0  0  0  0
  -29.7927  -21.7305   20.0125 N   0  0  0  0  0  0
  -29.9220  -16.0431   20.6102 N   0  0  0  0  0  0
  -29.0980  -24.5125   17.8563 O   0  0  0  0  0  0
  -31.4723  -12.6968   19.0903 H   0  0  0  0  0  0
  -30.4595  -11.5591   19.9310 H   0  0  0  0  0  0
  -29.8106  -11.7203   17.5175 H   0  0  0  0  0  0
  -29.5685  -13.4412   17.6717 H   0  0  0  0  0  0
  -27.9386  -11.2042   18.9274 H   0  0  0  0  0  0
  -27.3504  -12.3986   17.8074 H   0  0  0  0  0  0
  -27.5277  -14.0857   19.3396 H   0  0  0  0  0  0
  -28.4334  -13.7014   21.8463 H   0  0  0  0  0  0
  -28.8133  -12.1124   21.3302 H   0  0  0  0  0  0
  -25.2673   -9.5577   22.4812 H   0  0  0  0  0  0
  -23.9891   -7.4511   22.7478 H   0  0  0  0  0  0
  -21.0764   -8.8670   19.8943 H   0  0  0  0  0  0
  -22.3625  -10.9574   19.6233 H   0  0  0  0  0  0
  -21.1951   -7.6094   23.9669 H   0  0  0  0  0  0
  -21.1485   -6.0524   25.9076 H   0  0  0  0  0  0
  -22.0609   -2.7535   23.2927 H   0  0  0  0  0  0
  -22.4078  -11.9882   22.4936 H   0  0  0  0  0  0
  -21.1001  -13.1123   22.2684 H   0  0  0  0  0  0
  -24.5699  -15.7588   20.4036 H   0  0  0  0  0  0
  -26.1927  -15.6031   19.9688 H   0  0  0  0  0  0
  -26.7161  -32.5464   23.1078 H   0  0  0  0  0  0
  -25.0027  -33.9673   25.0386 H   0  0  0  0  0  0
  -22.7174  -31.2906   21.3847 H   0  0  0  0  0  0
  -23.3745  -35.9633   23.3320 H   0  0  0  0  0  0
  -24.3583  -36.8912   22.2066 H   0  0  0  0  0  0
  -23.7231  -37.6499   23.6660 H   0  0  0  0  0  0
  -26.0816  -31.5459   20.5875 H   0  0  0  0  0  0
  -26.8485  -30.8524   21.9883 H   0  0  0  0  0  0
  -28.1375  -29.0186   21.1785 H   0  0  0  0  0  0
  -26.0666  -25.9094   19.0312 H   0  0  0  0  0  0
  -24.0176  -27.2694   19.0092 H   0  0  0  0  0  0
  -23.7629  -30.5680   19.3924 H   0  0  0  0  0  0
  -22.7695  -29.2210   19.8572 H   0  0  0  0  0  0
  -25.1287  -36.1939   25.0828 H   0  0  0  0  0  0
  -20.9962  -28.3502   24.1435 H   0  0  0  0  0  0
  -20.5700  -26.2445   23.3872 H   0  0  0  0  0  0
  -21.6708  -26.7450   22.1425 H   0  0  0  0  0  0
  -19.6804  -27.2830   20.6722 H   0  0  0  0  0  0
  -19.6959  -25.6028   21.1674 H   0  0  0  0  0  0
  -17.4366  -26.6730   21.3912 H   0  0  0  0  0  0
  -18.0083  -26.0076   22.9023 H   0  0  0  0  0  0
  -19.7816  -30.7542   24.1877 H   0  0  0  0  0  0
  -17.4782  -31.6335   24.4826 H   0  0  0  0  0  0
  -15.5259  -30.2823   23.7441 H   0  0  0  0  0  0
  -15.8712  -28.0573   22.7157 H   0  0  0  0  0  0
  -24.5860  -30.7145   25.7682 H   0  0  0  0  0  0
  -24.8899  -32.2938   26.4805 H   0  0  0  0  0  0
  -25.7971  -30.8911   27.0187 H   0  0  0  0  0  0
  -26.2917  -29.6807   24.1160 H   0  0  0  0  0  0
  -27.4080  -29.7300   25.4627 H   0  0  0  0  0  0
  -27.8767  -30.4383   23.9337 H   0  0  0  0  0  0
  -27.2696  -33.3628   26.2081 H   0  0  0  0  0  0
  -28.3880  -32.6902   25.0296 H   0  0  0  0  0  0
  -28.0749  -31.8429   26.5379 H   0  0  0  0  0  0
  -28.2599  -38.0102   24.7502 H   0  0  0  0  0  0
  -28.1063  -36.2628   24.6308 H   0  0  0  0  0  0
  -27.2298  -37.1483   25.8877 H   0  0  0  0  0  0
  -20.9446  -29.8950   21.6887 H   0  0  0  0  0  0
  -26.0182  -38.2854   24.1395 H   0  0  0  0  0  0
  -29.8572  -20.2883   22.3970 H   0  0  0  0  0  0
  -30.7596  -19.8677   18.2097 H   0  0  0  0  0  0
  -30.0703  -17.8696   22.6766 H   0  0  0  0  0  0
  -30.9447  -17.4548   18.4849 H   0  0  0  0  0  0
  -29.2541  -22.4851   21.9633 H   0  0  0  0  0  0
  -30.0183  -21.8278   17.8653 H   0  0  0  0  0  0
  -26.9212  -19.0785   19.2752 H   0  0  0  0  0  0
  -27.9236  -17.8672   18.3001 H   0  0  0  0  0  0
  -27.8038  -17.8655   22.4836 H   0  0  0  0  0  0
  -26.5889  -18.8180   21.6194 H   0  0  0  0  0  0
  -26.2949  -17.1225   21.9869 H   0  0  0  0  0  0
  -28.6517  -25.3407   21.8528 H   0  0  0  0  0  0
  -27.2125  -24.9301   20.9836 H   0  0  0  0  0  0
  -28.4080  -15.8145   19.2803 H   0  0  0  0  0  0
  -27.8989  -15.4835   20.9904 H   0  0  0  0  0  0
  -28.8451  -25.3818   18.1558 H   0  0  0  0  0  0
  1 25  1  0  0  0
  1 30  2  0  0  0
  1 87  1  0  0  0
  2  3  1  0  0  0
  2 25  1  0  0  0
  2 89  1  0  0  0
  2 90  1  0  0  0
  3  4  1  0  0  0
  3 91  1  0  0  0
  3 92  1  0  0  0
  4  5  1  0  0  0
  4 93  1  0  0  0
  4 94  1  0  0  0
  5  6  1  0  0  0
  5 26  1  0  0  0
  5 95  1  0  0  0
  6 25  1  0  0  0
  6 96  1  0  0  0
  6 97  1  0  0  0
  7  8  2  0  0  0
  7 26  1  0  0  0
  7 29  1  0  0  0
  8  9  1  0  0  0
  8 22  1  0  0  0
  9 10  1  0  0  0
  9 27  2  0  0  0
 10 11  2  0  0  0
 10 15  1  0  0  0
 11 12  1  0  0  0
 11 98  1  0  0  0
 12 13  2  0  0  0
 12 99  1  0  0  0
 13 14  1  0  0  0
 13 31  1  0  0  0
 14 15  2  0  0  0
 14100  1  0  0  0
 15101  1  0  0  0
 16 17  2  0  0  0
 16 21  1  0  0  0
 16 31  1  0  0  0
 17 18  1  0  0  0
 17102  1  0  0  0
 18 19  2  0  0  0
 18103  1  0  0  0
 19 20  1  0  0  0
 19 24  1  0  0  0
 20 21  2  0  0  0
 20104  1  0  0  0
 21 23  1  0  0  0
 22 28  1  0  0  0
 22 32  2  0  0  0
 26 27  1  0  0  0
 28105  1  0  0  0
 28106  1  0  0  0
 29107  1  0  0  0
 29108  1  0  0  0
 33 34  1  0  0  0
 33 66  1  0  0  0
 33 70  2  0  0  0
 34 36  1  0  0  0
 34 59  1  0  0  0
 34109  1  0  0  0
 35 44  2  0  0  0
 35 45  1  0  0  0
 35 68  1  0  0  0
 36 56  1  0  0  0
 36110  1  0  0  0
 37 39  1  0  0  0
 37 47  1  0  0  0
 37 66  1  0  0  0
 37111  1  0  0  0
 38 43  2  0  0  0
 38 46  1  0  0  0
 38 47  1  0  0  0
 39 64  1  0  0  0
 39 67  2  0  0  0
 40 52  1  0  0  0
 40 53  2  0  0  0
 40 58  1  0  0  0
 41112  1  0  0  0
 41113  1  0  0  0
 41114  1  0  0  0
 41 48  1  0  0  0
 42 43  1  0  0  0
 42 66  1  0  0  0
 42115  1  0  0  0
 42116  1  0  0  0
 43 44  1  0  0  0
 44117  1  0  0  0
 45 46  2  0  0  0
 45118  1  0  0  0
 46119  1  0  0  0
 47120  1  0  0  0
 47121  1  0  0  0
 48 56  1  0  0  0
 48 65  1  0  0  0
 48122  1  0  0  0
 49 50  1  0  0  0
 49 53  1  0  0  0
 49 64  1  0  0  0
 49123  1  0  0  0
 50 51  1  0  0  0
 50124  1  0  0  0
 50125  1  0  0  0
 51 52  1  0  0  0
 51126  1  0  0  0
 51127  1  0  0  0
 52128  1  0  0  0
 52129  1  0  0  0
 53 54  1  0  0  0
 54 55  2  0  0  0
 54130  1  0  0  0
 55 57  1  0  0  0
 55131  1  0  0  0
 56 69  2  0  0  0
 57 58  2  0  0  0
 57132  1  0  0  0
 58133  1  0  0  0
 59 60  1  0  0  0
 59 61  1  0  0  0
 59 62  1  0  0  0
 60134  1  0  0  0
 60135  1  0  0  0
 60136  1  0  0  0
 61137  1  0  0  0
 61138  1  0  0  0
 61139  1  0  0  0
 62140  1  0  0  0
 62141  1  0  0  0
 62142  1  0  0  0
 63 65  1  0  0  0
 63143  1  0  0  0
 63144  1  0  0  0
 63145  1  0  0  0
 64146  1  0  0  0
 65147  1  0  0  0
 68 84  1  0  0  0
 71 73  2  0  0  0
 71 78  1  0  0  0
 71148  1  0  0  0
 72 74  1  0  0  0
 72 78  2  0  0  0
 72149  1  0  0  0
 73 79  1  0  0  0
 73150  1  0  0  0
 74 79  2  0  0  0
 74151  1  0  0  0
 75 77  2  0  0  0
 75 86  1  0  0  0
 75152  1  0  0  0
 76 80  2  0  0  0
 76 86  1  0  0  0
 76153  1  0  0  0
 77 80  1  0  0  0
 77 84  1  0  0  0
 78 86  1  0  0  0
 79 87  1  0  0  0
 80 88  1  0  0  0
 81 82  2  0  0  0
 81154  1  0  0  0
 81155  1  0  0  0
 82 83  1  0  0  0
 82 85  1  0  0  0
 83156  1  0  0  0
 83157  1  0  0  0
 83158  1  0  0  0
 84159  1  0  0  0
 84160  1  0  0  0
 85 87  1  0  0  0
 85161  1  0  0  0
 85162  1  0  0  0
 88163  1  0  0  0
M  ISO  4   1 100  68 101  84 101  87 100
M  END
> <chiral flag>
0

> <version>
0

> <s_m_source_file>
/data/baiqing/PycharmProjects/Reinvent-master-3.2/result/LINK_invent/BTK/process_docking_weight1_custom_product_contain_oxygen_bond_distance_aromatic_linkinvent_7_9_3/rearranged_h_0074.sdf

> <i_m_source_file_index>
21

> <r_mmod_Potential_Energy-OPLS-2005>
392.38818359375

> <r_mmod_Stretch_Energy-OPLS-2005>
106.691230773926

> <r_mmod_Bend_Energy-OPLS-2005>
179.949691772461

> <r_mmod_Torsional_Energy-OPLS-2005>
372.057098388672

> <r_mmod_Improper_Torsional_Energy-OPLS-2005>
13.5787792205811

> <r_mmod_Van_der_Waal_Energy-OPLS-2005>
168.19287109375

> <r_mmod_Electrostatic_Energy-OPLS-2005>
-337.357574462891

> <r_mmod_Solvation_Energy-OPLS-2005>
-200.079940795898

> <b_mmod_Minimization_Converged-OPLS-2005>
0

> <r_mmod_RMS_Derivative-OPLS-2005>
6.34687328338623

$$$$
22
                    3D
 Structure written by MMmdl.
164173  0  0  1  0            999 V2000
  -30.5928  -14.7033   20.5067 C   0  0  0  0  0  0
  -30.4524  -12.4330   19.4675 C   0  0  0  0  0  0
  -29.5194  -12.5179   18.2363 C   0  0  0  0  0  0
  -28.0437  -12.3365   18.6475 C   0  0  0  0  0  0
  -27.6551  -13.2166   19.8643 C   0  0  2  0  0  0
  -28.6979  -13.0902   20.9983 C   0  0  0  0  0  0
  -25.2581  -13.8173   20.5688 C   0  0  0  0  0  0
  -24.1831  -13.0454   20.9186 C   0  0  0  0  0  0
  -24.6395  -11.6920   20.8735 C   0  0  0  0  0  0
  -23.9057  -10.4307   21.0409 C   0  0  0  0  0  0
  -24.3602   -9.4226   21.9192 C   0  0  0  0  0  0
  -23.6282   -8.2259   22.0762 C   0  0  0  0  0  0
  -22.4267   -8.0291   21.3551 C   0  0  0  0  0  0
  -21.9901   -9.0269   20.4658 C   0  0  0  0  0  0
  -22.7231  -10.2147   20.3063 C   0  0  0  0  0  0
  -21.6854   -6.0738   22.5284 C   0  0  0  0  0  0
  -21.4017   -6.5639   23.8219 C   0  0  0  0  0  0
  -21.3657   -5.6789   24.9177 C   0  0  0  0  0  0
  -21.6041   -4.3052   24.7226 C   0  0  0  0  0  0
  -21.8815   -3.8149   23.4348 C   0  0  0  0  0  0
  -21.9193   -4.6966   22.3406 C   0  0  0  0  0  0
  -22.7850  -13.5263   21.1835 C   0  0  0  0  0  0
  -22.1661   -4.2155   21.0983 F   0  0  0  0  0  0
  -21.5623   -3.4534   25.7738 F   0  0  0  0  0  0
  -30.0115  -13.4579   20.4400 N   0  0  0  0  0  0
  -26.2996  -12.9348   20.3311 N   0  0  0  0  0  0
  -25.9326  -11.6506   20.5746 N   0  0  0  0  0  0
  -22.0458  -12.8279   22.0385 N   0  0  0  0  0  0
  -25.4359  -15.1886   20.4115 N   0  0  0  0  0  0
  -31.7444  -14.8882   20.0980 O   0  0  0  0  0  0
  -21.6637   -6.8883   21.4249 O   0  0  0  0  0  0
  -22.3550  -14.5574   20.6682 O   0  0  0  0  0  0
  -24.6277  -31.8579   23.1991 C   0  0  0  0  0  0
  -25.9108  -32.4771   23.8341 C   0  0  1  0  0  0
  -27.2232  -27.2854   20.1275 C   0  0  0  0  0  0
  -25.5906  -33.8566   24.2260 N   0  0  0  0  0  0
  -23.4236  -30.4804   21.5432 C   0  0  2  0  0  0
  -24.8717  -28.9312   20.1105 C   0  0  0  0  0  0
  -22.7497  -29.4609   22.4929 C   0  0  0  0  0  0
  -18.0287  -28.1406   22.8483 C   0  0  0  0  0  0
  -24.1487  -36.7304   23.2638 C   0  0  0  0  0  0
  -25.9676  -30.7786   21.3752 C   0  0  0  0  0  0
  -26.0416  -29.4011   20.7212 C   0  0  0  0  0  0
  -27.2190  -28.5900   20.7202 C   0  0  0  0  0  0
  -26.0331  -26.8857   19.4744 C   0  0  0  0  0  0
  -24.8718  -27.6802   19.4774 C   0  0  0  0  0  0
  -23.6406  -29.8138   20.1592 C   0  0  0  0  0  0
  -25.4112  -36.3082   24.0321 C   0  0  1  0  0  0
  -20.5891  -28.3705   23.1277 C   0  0  2  0  0  0
  -20.6772  -26.9424   22.5412 C   0  0  0  0  0  0
  -19.5742  -26.6393   21.5218 C   0  0  0  0  0  0
  -18.1923  -26.7944   22.1628 C   0  0  0  0  0  0
  -19.1543  -28.8870   23.2873 C   0  0  0  0  0  0
  -18.9463  -30.1470   23.8892 C   0  0  0  0  0  0
  -17.6464  -30.6601   24.0573 C   0  0  0  0  0  0
  -25.9049  -34.9446   23.5097 C   0  0  0  0  0  0
  -16.5353  -29.9103   23.6342 C   0  0  0  0  0  0
  -16.7274  -28.6524   23.0356 C   0  0  0  0  0  0
  -26.4475  -31.6584   25.0721 C   0  0  0  0  0  0
  -25.3694  -31.3736   26.1443 C   0  0  0  0  0  0
  -27.0300  -30.2996   24.6190 C   0  0  0  0  0  0
  -27.6041  -32.4306   25.7497 C   0  0  0  0  0  0
  -27.5585  -37.1806   24.8459 C   0  0  0  0  0  0
  -21.4205  -29.3055   22.3674 N   0  0  0  0  0  0
  -26.4292  -37.3779   23.9410 N   0  0  0  0  0  0
  -24.6923  -31.0566   22.0957 N   0  0  0  0  0  0
  -23.4209  -28.8149   23.3016 O   0  0  0  0  0  0
  -28.3244  -26.4030   20.2071 O   0  0  0  0  0  0
  -26.5646  -34.8908   22.4680 O   0  0  0  0  0  0
  -23.5425  -32.1390   23.7295 O   0  0  0  0  0  0
  -30.4770  -19.4823   20.1135 C   0  0  0  0  0  0
  -30.6280  -18.0502   20.1124 C   0  0  0  0  0  0
  -28.7376  -17.9018   21.5413 C   0  0  0  0  0  0
  -29.4739  -20.2166   20.8289 C   0  0  0  0  0  0
  -29.7577  -17.2024   20.8487 C   0  0  0  0  0  0
  -28.5884  -19.3316   21.5321 C   0  0  0  0  0  0
  -24.2623  -20.2186   23.6086 C   0  0  0  0  0  0
  -25.5528  -20.4489   23.3105 C   0  0  0  0  0  0
  -26.3031  -19.5153   22.4893 C   0  0  0  0  0  0
  -28.3494  -22.5634   21.3501 C   0  0  0  0  0  0
  -29.6781  -22.6405   19.7885 C   0  0  0  0  0  0
  -29.0467  -23.7987   20.6700 C   0  0  0  0  0  0
  -30.0272  -24.5585   21.5713 C   0  0  0  0  0  0
  -28.0934  -24.9304   20.0322 C   0  0  0  0  0  0
  -29.4616  -21.7077   20.9083 N   0  0  0  0  0  0
  -27.5690  -19.9240   22.3218 N   0  0  0  0  0  0
  -29.7706  -15.7250   20.9325 N   0  0  0  0  0  0
  -25.8412  -18.4831   21.9962 O   0  0  0  0  0  0
  -31.4911  -12.5774   19.1638 H   0  0  0  0  0  0
  -30.4106  -11.4399   19.9184 H   0  0  0  0  0  0
  -29.7990  -11.7657   17.4977 H   0  0  0  0  0  0
  -29.6466  -13.4859   17.7488 H   0  0  0  0  0  0
  -27.8955  -11.2842   18.8940 H   0  0  0  0  0  0
  -27.3872  -12.5445   17.8024 H   0  0  0  0  0  0
  -27.6697  -14.2480   19.5117 H   0  0  0  0  0  0
  -28.7228  -12.0701   21.3835 H   0  0  0  0  0  0
  -28.4258  -13.7158   21.8492 H   0  0  0  0  0  0
  -25.2743   -9.5700   22.4774 H   0  0  0  0  0  0
  -23.9995   -7.4643   22.7473 H   0  0  0  0  0  0
  -21.0837   -8.8788   19.8957 H   0  0  0  0  0  0
  -22.3698  -10.9683   19.6166 H   0  0  0  0  0  0
  -21.2017   -7.6146   23.9723 H   0  0  0  0  0  0
  -21.1476   -6.0517   25.9078 H   0  0  0  0  0  0
  -22.0596   -2.7614   23.2845 H   0  0  0  0  0  0
  -22.4031  -11.9948   22.4822 H   0  0  0  0  0  0
  -21.1074  -13.1344   22.2548 H   0  0  0  0  0  0
  -24.6922  -15.8603   20.5668 H   0  0  0  0  0  0
  -26.3009  -15.6262   20.1218 H   0  0  0  0  0  0
  -26.7182  -32.5432   23.1094 H   0  0  0  0  0  0
  -24.9995  -33.9708   25.0365 H   0  0  0  0  0  0
  -22.7171  -31.3006   21.3978 H   0  0  0  0  0  0
  -23.3737  -35.9651   23.3292 H   0  0  0  0  0  0
  -24.3591  -36.8941   22.2059 H   0  0  0  0  0  0
  -23.7237  -37.6497   23.6674 H   0  0  0  0  0  0
  -26.1005  -31.5351   20.5998 H   0  0  0  0  0  0
  -26.8474  -30.8332   22.0042 H   0  0  0  0  0  0
  -28.1117  -28.9431   21.2166 H   0  0  0  0  0  0
  -25.9693  -25.9361   18.9649 H   0  0  0  0  0  0
  -23.9782  -27.3162   18.9885 H   0  0  0  0  0  0
  -23.7610  -30.5878   19.4008 H   0  0  0  0  0  0
  -22.7598  -29.2449   19.8571 H   0  0  0  0  0  0
  -25.1285  -36.1947   25.0812 H   0  0  0  0  0  0
  -20.9986  -28.3285   24.1398 H   0  0  0  0  0  0
  -20.5670  -26.2318   23.3618 H   0  0  0  0  0  0
  -21.6640  -26.7443   22.1211 H   0  0  0  0  0  0
  -19.6896  -25.6300   21.1258 H   0  0  0  0  0  0
  -19.6678  -27.3194   20.6739 H   0  0  0  0  0  0
  -17.4195  -26.6692   21.4032 H   0  0  0  0  0  0
  -18.0314  -26.0092   22.9028 H   0  0  0  0  0  0
  -19.7937  -30.7293   24.2256 H   0  0  0  0  0  0
  -17.5021  -31.6281   24.5178 H   0  0  0  0  0  0
  -15.5354  -30.3013   23.7666 H   0  0  0  0  0  0
  -15.8671  -28.0847   22.7080 H   0  0  0  0  0  0
  -24.5874  -30.7078   25.7780 H   0  0  0  0  0  0
  -24.8866  -32.2896   26.4856 H   0  0  0  0  0  0
  -25.7998  -30.8928   27.0234 H   0  0  0  0  0  0
  -26.2866  -29.6764   24.1204 H   0  0  0  0  0  0
  -27.3964  -29.7245   25.4706 H   0  0  0  0  0  0
  -27.8758  -30.4264   23.9426 H   0  0  0  0  0  0
  -27.2671  -33.3613   26.2073 H   0  0  0  0  0  0
  -28.3857  -32.6850   25.0326 H   0  0  0  0  0  0
  -28.0700  -31.8422   26.5413 H   0  0  0  0  0  0
  -28.2589  -38.0121   24.7523 H   0  0  0  0  0  0
  -28.1085  -36.2644   24.6251 H   0  0  0  0  0  0
  -27.2309  -37.1428   25.8865 H   0  0  0  0  0  0
  -20.9395  -29.8796   21.6894 H   0  0  0  0  0  0
  -26.0164  -38.2848   24.1421 H   0  0  0  0  0  0
  -31.2050  -20.0505   19.5535 H   0  0  0  0  0  0
  -31.4329  -17.6141   19.5375 H   0  0  0  0  0  0
  -28.0497  -17.3127   22.1297 H   0  0  0  0  0  0
  -23.7016  -20.9119   24.2181 H   0  0  0  0  0  0
  -23.7428  -19.3384   23.2536 H   0  0  0  0  0  0
  -26.0264  -21.3430   23.6920 H   0  0  0  0  0  0
  -27.4012  -22.2971   20.8782 H   0  0  0  0  0  0
  -28.2502  -22.6602   22.4326 H   0  0  0  0  0  0
  -30.7275  -22.7930   19.5312 H   0  0  0  0  0  0
  -29.0831  -22.3870   18.9087 H   0  0  0  0  0  0
  -30.7431  -23.8903   22.0496 H   0  0  0  0  0  0
  -29.5032  -25.0890   22.3664 H   0  0  0  0  0  0
  -30.6003  -25.2956   21.0100 H   0  0  0  0  0  0
  -27.0985  -24.7204   20.4261 H   0  0  0  0  0  0
  -28.0155  -24.7513   18.9591 H   0  0  0  0  0  0
  -27.7928  -20.8375   22.6859 H   0  0  0  0  0  0
  -28.9261  -15.3458   21.3333 H   0  0  0  0  0  0
  1 25  1  0  0  0
  1 30  2  0  0  0
  1 87  1  0  0  0
  2  3  1  0  0  0
  2 25  1  0  0  0
  2 89  1  0  0  0
  2 90  1  0  0  0
  3  4  1  0  0  0
  3 91  1  0  0  0
  3 92  1  0  0  0
  4  5  1  0  0  0
  4 93  1  0  0  0
  4 94  1  0  0  0
  5  6  1  0  0  0
  5 26  1  0  0  0
  5 95  1  0  0  0
  6 25  1  0  0  0
  6 96  1  0  0  0
  6 97  1  0  0  0
  7  8  2  0  0  0
  7 26  1  0  0  0
  7 29  1  0  0  0
  8  9  1  0  0  0
  8 22  1  0  0  0
  9 10  1  0  0  0
  9 27  2  0  0  0
 10 11  2  0  0  0
 10 15  1  0  0  0
 11 12  1  0  0  0
 11 98  1  0  0  0
 12 13  2  0  0  0
 12 99  1  0  0  0
 13 14  1  0  0  0
 13 31  1  0  0  0
 14 15  2  0  0  0
 14100  1  0  0  0
 15101  1  0  0  0
 16 17  2  0  0  0
 16 21  1  0  0  0
 16 31  1  0  0  0
 17 18  1  0  0  0
 17102  1  0  0  0
 18 19  2  0  0  0
 18103  1  0  0  0
 19 20  1  0  0  0
 19 24  1  0  0  0
 20 21  2  0  0  0
 20104  1  0  0  0
 21 23  1  0  0  0
 22 28  1  0  0  0
 22 32  2  0  0  0
 26 27  1  0  0  0
 28105  1  0  0  0
 28106  1  0  0  0
 29107  1  0  0  0
 29108  1  0  0  0
 33 34  1  0  0  0
 33 66  1  0  0  0
 33 70  2  0  0  0
 34 36  1  0  0  0
 34 59  1  0  0  0
 34109  1  0  0  0
 35 44  2  0  0  0
 35 45  1  0  0  0
 35 68  1  0  0  0
 36 56  1  0  0  0
 36110  1  0  0  0
 37 39  1  0  0  0
 37 47  1  0  0  0
 37 66  1  0  0  0
 37111  1  0  0  0
 38 43  2  0  0  0
 38 46  1  0  0  0
 38 47  1  0  0  0
 39 64  1  0  0  0
 39 67  2  0  0  0
 40 52  1  0  0  0
 40 53  2  0  0  0
 40 58  1  0  0  0
 41112  1  0  0  0
 41113  1  0  0  0
 41114  1  0  0  0
 41 48  1  0  0  0
 42 43  1  0  0  0
 42 66  1  0  0  0
 42115  1  0  0  0
 42116  1  0  0  0
 43 44  1  0  0  0
 44117  1  0  0  0
 45 46  2  0  0  0
 45118  1  0  0  0
 46119  1  0  0  0
 47120  1  0  0  0
 47121  1  0  0  0
 48 56  1  0  0  0
 48 65  1  0  0  0
 48122  1  0  0  0
 49 50  1  0  0  0
 49 53  1  0  0  0
 49 64  1  0  0  0
 49123  1  0  0  0
 50 51  1  0  0  0
 50124  1  0  0  0
 50125  1  0  0  0
 51 52  1  0  0  0
 51126  1  0  0  0
 51127  1  0  0  0
 52128  1  0  0  0
 52129  1  0  0  0
 53 54  1  0  0  0
 54 55  2  0  0  0
 54130  1  0  0  0
 55 57  1  0  0  0
 55131  1  0  0  0
 56 69  2  0  0  0
 57 58  2  0  0  0
 57132  1  0  0  0
 58133  1  0  0  0
 59 60  1  0  0  0
 59 61  1  0  0  0
 59 62  1  0  0  0
 60134  1  0  0  0
 60135  1  0  0  0
 60136  1  0  0  0
 61137  1  0  0  0
 61138  1  0  0  0
 61139  1  0  0  0
 62140  1  0  0  0
 62141  1  0  0  0
 62142  1  0  0  0
 63 65  1  0  0  0
 63143  1  0  0  0
 63144  1  0  0  0
 63145  1  0  0  0
 64146  1  0  0  0
 65147  1  0  0  0
 68 84  1  0  0  0
 71 72  2  0  0  0
 71 74  1  0  0  0
 71148  1  0  0  0
 72 75  1  0  0  0
 72149  1  0  0  0
 73 75  2  0  0  0
 73 76  1  0  0  0
 73150  1  0  0  0
 74 76  2  0  0  0
 74 85  1  0  0  0
 75 87  1  0  0  0
 76 86  1  0  0  0
 77 78  2  0  0  0
 77151  1  0  0  0
 77152  1  0  0  0
 78 79  1  0  0  0
 78153  1  0  0  0
 79 86  1  0  0  0
 79 88  2  0  0  0
 80 82  1  0  0  0
 80 85  1  0  0  0
 80154  1  0  0  0
 80155  1  0  0  0
 81 82  1  0  0  0
 81 85  1  0  0  0
 81156  1  0  0  0
 81157  1  0  0  0
 82 83  1  0  0  0
 82 84  1  0  0  0
 83158  1  0  0  0
 83159  1  0  0  0
 83160  1  0  0  0
 84161  1  0  0  0
 84162  1  0  0  0
 86163  1  0  0  0
 87164  1  0  0  0
M  ISO  4   1 100  68 101  84 101  87 100
M  END
> <chiral flag>
0

> <version>
0

> <s_m_source_file>
/data/baiqing/PycharmProjects/Reinvent-master-3.2/result/LINK_invent/BTK/process_docking_weight1_custom_product_contain_oxygen_bond_distance_aromatic_linkinvent_7_9_3/rearranged_h_0074.sdf

> <i_m_source_file_index>
22

> <r_mmod_Potential_Energy-OPLS-2005>
155.251449584961

> <r_mmod_Stretch_Energy-OPLS-2005>
106.894432067871

> <r_mmod_Bend_Energy-OPLS-2005>
232.121170043945

> <r_mmod_Torsional_Energy-OPLS-2005>
279.471649169922

> <r_mmod_Improper_Torsional_Energy-OPLS-2005>
10.0714597702026

> <r_mmod_Van_der_Waal_Energy-OPLS-2005>
152.076507568359

> <r_mmod_Electrostatic_Energy-OPLS-2005>
-461.785949707031

> <r_mmod_Solvation_Energy-OPLS-2005>
-233.681976318359

> <b_mmod_Minimization_Converged-OPLS-2005>
0

> <r_mmod_RMS_Derivative-OPLS-2005>
1.61577582359314

$$$$
23
                    3D
 Structure written by MMmdl.
153161  0  0  1  0            999 V2000
  -30.6991  -14.4989   20.5325 C   0  0  0  0  0  0
  -30.4239  -12.3127   19.4358 C   0  0  0  0  0  0
  -29.5020  -12.5085   18.2138 C   0  0  0  0  0  0
  -28.0206  -12.3785   18.6197 C   0  0  0  0  0  0
  -27.6649  -13.2149   19.8779 C   0  0  2  0  0  0
  -28.7098  -13.0100   21.0009 C   0  0  0  0  0  0
  -25.2611  -13.8179   20.5721 C   0  0  0  0  0  0
  -24.1858  -13.0447   20.9175 C   0  0  0  0  0  0
  -24.6414  -11.6912   20.8726 C   0  0  0  0  0  0
  -23.9059  -10.4295   21.0395 C   0  0  0  0  0  0
  -24.3614   -9.4215   21.9180 C   0  0  0  0  0  0
  -23.6292   -8.2244   22.0743 C   0  0  0  0  0  0
  -22.4278   -8.0281   21.3534 C   0  0  0  0  0  0
  -21.9905   -9.0261   20.4648 C   0  0  0  0  0  0
  -22.7223  -10.2143   20.3054 C   0  0  0  0  0  0
  -21.6854   -6.0735   22.5280 C   0  0  0  0  0  0
  -21.4023   -6.5638   23.8212 C   0  0  0  0  0  0
  -21.3655   -5.6789   24.9177 C   0  0  0  0  0  0
  -21.6046   -4.3049   24.7221 C   0  0  0  0  0  0
  -21.8819   -3.8147   23.4340 C   0  0  0  0  0  0
  -21.9192   -4.6963   22.3397 C   0  0  0  0  0  0
  -22.7871  -13.5249   21.1830 C   0  0  0  0  0  0
  -22.1660   -4.2159   21.0980 F   0  0  0  0  0  0
  -21.5616   -3.4532   25.7729 F   0  0  0  0  0  0
  -30.0392  -13.3098   20.4458 N   0  0  0  0  0  0
  -26.3057  -12.9360   20.3402 N   0  0  0  0  0  0
  -25.9354  -11.6507   20.5767 N   0  0  0  0  0  0
  -22.0494  -12.8273   22.0395 N   0  0  0  0  0  0
  -25.4341  -15.1901   20.4173 N   0  0  0  0  0  0
  -31.8413  -14.6536   20.0907 O   0  0  0  0  0  0
  -21.6635   -6.8881   21.4240 O   0  0  0  0  0  0
  -22.3565  -14.5545   20.6659 O   0  0  0  0  0  0
  -24.6152  -31.8661   23.2090 C   0  0  0  0  0  0
  -25.9045  -32.4809   23.8389 C   0  0  1  0  0  0
  -27.2328  -27.4225   20.1114 C   0  0  0  0  0  0
  -25.5903  -33.8607   24.2323 N   0  0  0  0  0  0
  -23.4050  -30.4882   21.5484 C   0  0  2  0  0  0
  -24.8537  -28.9485   20.1197 C   0  0  0  0  0  0
  -22.7421  -29.4646   22.4984 C   0  0  0  0  0  0
  -18.0278  -28.1388   22.8489 C   0  0  0  0  0  0
  -24.1498  -36.7321   23.2637 C   0  0  0  0  0  0
  -25.9341  -30.8270   21.3664 C   0  0  0  0  0  0
  -26.0130  -29.4600   20.7173 C   0  0  0  0  0  0
  -27.2070  -28.7013   20.7140 C   0  0  0  0  0  0
  -26.0600  -26.9256   19.5071 C   0  0  0  0  0  0
  -24.8712  -27.6798   19.5140 C   0  0  0  0  0  0
  -23.6163  -29.8160   20.1648 C   0  0  0  0  0  0
  -25.4113  -36.3106   24.0337 C   0  0  1  0  0  0
  -20.5872  -28.3676   23.1326 C   0  0  2  0  0  0
  -20.6782  -26.9414   22.5429 C   0  0  0  0  0  0
  -19.5754  -26.6388   21.5232 C   0  0  0  0  0  0
  -18.1931  -26.7937   22.1626 C   0  0  0  0  0  0
  -19.1528  -28.8850   23.2903 C   0  0  0  0  0  0
  -18.9452  -30.1459   23.8906 C   0  0  0  0  0  0
  -17.6453  -30.6597   24.0570 C   0  0  0  0  0  0
  -25.9029  -34.9464   23.5124 C   0  0  0  0  0  0
  -16.5346  -29.9096   23.6330 C   0  0  0  0  0  0
  -16.7266  -28.6520   23.0339 C   0  0  0  0  0  0
  -26.4490  -31.6580   25.0708 C   0  0  0  0  0  0
  -25.3775  -31.3678   26.1467 C   0  0  0  0  0  0
  -27.0315  -30.3017   24.6087 C   0  0  0  0  0  0
  -27.6068  -32.4294   25.7470 C   0  0  0  0  0  0
  -27.5583  -37.1825   24.8466 C   0  0  0  0  0  0
  -21.4150  -29.3034   22.3723 N   0  0  0  0  0  0
  -26.4303  -37.3785   23.9402 N   0  0  0  0  0  0
  -24.6691  -31.0758   22.0995 N   0  0  0  0  0  0
  -23.4178  -28.8196   23.3037 O   0  0  0  0  0  0
  -28.3822  -26.6614   20.1035 O   0  0  0  0  0  0
  -26.5584  -34.8919   22.4679 O   0  0  0  0  0  0
  -23.5341  -32.1425   23.7467 O   0  0  0  0  0  0
  -30.7843  -18.7631   19.1885 C   0  0  0  0  0  0
  -29.7421  -19.2955   21.3098 C   0  0  0  0  0  0
  -30.6970  -17.3848   19.4810 C   0  0  0  0  0  0
  -29.6472  -17.9107   21.6024 C   0  0  0  0  0  0
  -30.3023  -19.7429   20.0890 C   0  0  0  0  0  0
  -30.1324  -16.9334   20.7002 C   0  0  0  0  0  0
  -30.4792  -21.2134   19.7553 C   0  0  0  0  0  0
  -29.4125  -23.4034   19.9046 C   0  0  0  0  0  0
  -28.1413  -24.1359   20.3820 C   0  0  0  0  0  0
  -28.3721  -25.5419   21.0142 C   0  0  0  0  0  0
  -29.9825  -15.5380   21.0145 N   0  0  0  0  0  0
  -29.4981  -22.0661   20.1323 N   0  0  0  0  0  0
  -31.4820  -21.5449   19.1104 O   0  0  0  0  0  0
  -30.2785  -24.0705   19.3264 O   0  0  0  0  0  0
  -31.4713  -12.3971   19.1411 H   0  0  0  0  0  0
  -30.3116  -11.3070   19.8428 H   0  0  0  0  0  0
  -29.7460  -11.7778   17.4420 H   0  0  0  0  0  0
  -29.6769  -13.4900   17.7708 H   0  0  0  0  0  0
  -27.8191  -11.3229   18.8049 H   0  0  0  0  0  0
  -27.3764  -12.6676   17.7880 H   0  0  0  0  0  0
  -27.7039  -14.2627   19.5789 H   0  0  0  0  0  0
  -28.6873  -11.9789   21.3565 H   0  0  0  0  0  0
  -28.4770  -13.6254   21.8709 H   0  0  0  0  0  0
  -25.2757   -9.5701   22.4756 H   0  0  0  0  0  0
  -24.0006   -7.4641   22.7472 H   0  0  0  0  0  0
  -21.0824   -8.8775   19.8982 H   0  0  0  0  0  0
  -22.3665  -10.9677   19.6165 H   0  0  0  0  0  0
  -21.2030   -7.6153   23.9725 H   0  0  0  0  0  0
  -21.1470   -6.0515   25.9080 H   0  0  0  0  0  0
  -22.0605   -2.7611   23.2831 H   0  0  0  0  0  0
  -22.4072  -11.9951   22.4835 H   0  0  0  0  0  0
  -21.1111  -13.1346   22.2567 H   0  0  0  0  0  0
  -24.6744  -15.8491   20.5428 H   0  0  0  0  0  0
  -26.2956  -15.6311   20.1193 H   0  0  0  0  0  0
  -26.7106  -32.5535   23.1140 H   0  0  0  0  0  0
  -25.0095  -33.9764   25.0498 H   0  0  0  0  0  0
  -22.6949  -31.3053   21.4058 H   0  0  0  0  0  0
  -23.3738  -35.9679   23.3322 H   0  0  0  0  0  0
  -24.3600  -36.8908   22.2049 H   0  0  0  0  0  0
  -23.7283  -37.6547   23.6635 H   0  0  0  0  0  0
  -26.0478  -31.5906   20.5962 H   0  0  0  0  0  0
  -26.8214  -30.8815   21.9856 H   0  0  0  0  0  0
  -28.1002  -29.0838   21.1885 H   0  0  0  0  0  0
  -26.0623  -25.9552   19.0334 H   0  0  0  0  0  0
  -23.9782  -27.2775   19.0549 H   0  0  0  0  0  0
  -23.7303  -30.5882   19.4030 H   0  0  0  0  0  0
  -22.7421  -29.2340   19.8660 H   0  0  0  0  0  0
  -25.1294  -36.1972   25.0833 H   0  0  0  0  0  0
  -20.9952  -28.3261   24.1450 H   0  0  0  0  0  0
  -20.5744  -26.2272   23.3614 H   0  0  0  0  0  0
  -21.6652  -26.7507   22.1192 H   0  0  0  0  0  0
  -19.6923  -25.6303   21.1258 H   0  0  0  0  0  0
  -19.6704  -27.3209   20.6776 H   0  0  0  0  0  0
  -17.4216  -26.6701   21.4014 H   0  0  0  0  0  0
  -18.0313  -26.0083   22.9021 H   0  0  0  0  0  0
  -19.7933  -30.7279   24.2270 H   0  0  0  0  0  0
  -17.5014  -31.6278   24.5170 H   0  0  0  0  0  0
  -15.5347  -30.2995   23.7660 H   0  0  0  0  0  0
  -15.8672  -28.0853   22.7017 H   0  0  0  0  0  0
  -24.5946  -30.7016   25.7824 H   0  0  0  0  0  0
  -24.8969  -32.2824   26.4949 H   0  0  0  0  0  0
  -25.8152  -30.8839   27.0206 H   0  0  0  0  0  0
  -26.2843  -29.6759   24.1183 H   0  0  0  0  0  0
  -27.4125  -29.7269   25.4542 H   0  0  0  0  0  0
  -27.8674  -30.4325   23.9204 H   0  0  0  0  0  0
  -27.2699  -33.3597   26.2054 H   0  0  0  0  0  0
  -28.3880  -32.6837   25.0294 H   0  0  0  0  0  0
  -28.0731  -31.8407   26.5380 H   0  0  0  0  0  0
  -28.2613  -38.0107   24.7475 H   0  0  0  0  0  0
  -28.1059  -36.2632   24.6335 H   0  0  0  0  0  0
  -27.2287  -37.1530   25.8865 H   0  0  0  0  0  0
  -20.9317  -29.8716   21.6914 H   0  0  0  0  0  0
  -26.0186  -38.2865   24.1383 H   0  0  0  0  0  0
  -31.2322  -19.0713   18.2537 H   0  0  0  0  0  0
  -29.4005  -20.0128   22.0422 H   0  0  0  0  0  0
  -31.0674  -16.6831   18.7466 H   0  0  0  0  0  0
  -29.2125  -17.6063   22.5443 H   0  0  0  0  0  0
  -27.6580  -23.5081   21.1308 H   0  0  0  0  0  0
  -27.4405  -24.2003   19.5513 H   0  0  0  0  0  0
  -29.3226  -25.5486   21.5493 H   0  0  0  0  0  0
  -27.6220  -25.6978   21.7923 H   0  0  0  0  0  0
  -29.1472  -15.2839   21.5199 H   0  0  0  0  0  0
  -28.7279  -21.6391   20.6199 H   0  0  0  0  0  0
  1 25  1  0  0  0
  1 30  2  0  0  0
  1 81  1  0  0  0
  2  3  1  0  0  0
  2 25  1  0  0  0
  2 85  1  0  0  0
  2 86  1  0  0  0
  3  4  1  0  0  0
  3 87  1  0  0  0
  3 88  1  0  0  0
  4  5  1  0  0  0
  4 89  1  0  0  0
  4 90  1  0  0  0
  5  6  1  0  0  0
  5 26  1  0  0  0
  5 91  1  0  0  0
  6 25  1  0  0  0
  6 92  1  0  0  0
  6 93  1  0  0  0
  7  8  2  0  0  0
  7 26  1  0  0  0
  7 29  1  0  0  0
  8  9  1  0  0  0
  8 22  1  0  0  0
  9 10  1  0  0  0
  9 27  2  0  0  0
 10 11  2  0  0  0
 10 15  1  0  0  0
 11 12  1  0  0  0
 11 94  1  0  0  0
 12 13  2  0  0  0
 12 95  1  0  0  0
 13 14  1  0  0  0
 13 31  1  0  0  0
 14 15  2  0  0  0
 14 96  1  0  0  0
 15 97  1  0  0  0
 16 17  2  0  0  0
 16 21  1  0  0  0
 16 31  1  0  0  0
 17 18  1  0  0  0
 17 98  1  0  0  0
 18 19  2  0  0  0
 18 99  1  0  0  0
 19 20  1  0  0  0
 19 24  1  0  0  0
 20 21  2  0  0  0
 20100  1  0  0  0
 21 23  1  0  0  0
 22 28  1  0  0  0
 22 32  2  0  0  0
 26 27  1  0  0  0
 28101  1  0  0  0
 28102  1  0  0  0
 29103  1  0  0  0
 29104  1  0  0  0
 33 34  1  0  0  0
 33 66  1  0  0  0
 33 70  2  0  0  0
 34 36  1  0  0  0
 34 59  1  0  0  0
 34105  1  0  0  0
 35 44  2  0  0  0
 35 45  1  0  0  0
 35 68  1  0  0  0
 36 56  1  0  0  0
 36106  1  0  0  0
 37 39  1  0  0  0
 37 47  1  0  0  0
 37 66  1  0  0  0
 37107  1  0  0  0
 38 43  2  0  0  0
 38 46  1  0  0  0
 38 47  1  0  0  0
 39 64  1  0  0  0
 39 67  2  0  0  0
 40 52  1  0  0  0
 40 53  2  0  0  0
 40 58  1  0  0  0
 41108  1  0  0  0
 41109  1  0  0  0
 41110  1  0  0  0
 41 48  1  0  0  0
 42 43  1  0  0  0
 42 66  1  0  0  0
 42111  1  0  0  0
 42112  1  0  0  0
 43 44  1  0  0  0
 44113  1  0  0  0
 45 46  2  0  0  0
 45114  1  0  0  0
 46115  1  0  0  0
 47116  1  0  0  0
 47117  1  0  0  0
 48 56  1  0  0  0
 48 65  1  0  0  0
 48118  1  0  0  0
 49 50  1  0  0  0
 49 53  1  0  0  0
 49 64  1  0  0  0
 49119  1  0  0  0
 50 51  1  0  0  0
 50120  1  0  0  0
 50121  1  0  0  0
 51 52  1  0  0  0
 51122  1  0  0  0
 51123  1  0  0  0
 52124  1  0  0  0
 52125  1  0  0  0
 53 54  1  0  0  0
 54 55  2  0  0  0
 54126  1  0  0  0
 55 57  1  0  0  0
 55127  1  0  0  0
 56 69  2  0  0  0
 57 58  2  0  0  0
 57128  1  0  0  0
 58129  1  0  0  0
 59 60  1  0  0  0
 59 61  1  0  0  0
 59 62  1  0  0  0
 60130  1  0  0  0
 60131  1  0  0  0
 60132  1  0  0  0
 61133  1  0  0  0
 61134  1  0  0  0
 61135  1  0  0  0
 62136  1  0  0  0
 62137  1  0  0  0
 62138  1  0  0  0
 63 65  1  0  0  0
 63139  1  0  0  0
 63140  1  0  0  0
 63141  1  0  0  0
 64142  1  0  0  0
 65143  1  0  0  0
 68 80  1  0  0  0
 71 73  2  0  0  0
 71 75  1  0  0  0
 71144  1  0  0  0
 72 74  1  0  0  0
 72 75  2  0  0  0
 72145  1  0  0  0
 73 76  1  0  0  0
 73146  1  0  0  0
 74 76  2  0  0  0
 74147  1  0  0  0
 75 77  1  0  0  0
 76 81  1  0  0  0
 77 82  1  0  0  0
 77 83  2  0  0  0
 78 79  1  0  0  0
 78 82  1  0  0  0
 78 84  2  0  0  0
 79 80  1  0  0  0
 79148  1  0  0  0
 79149  1  0  0  0
 80150  1  0  0  0
 80151  1  0  0  0
 81152  1  0  0  0
 82153  1  0  0  0
M  ISO  4   1 100  68 101  80 101  81 100
M  END
> <chiral flag>
0

> <version>
0

> <s_m_source_file>
/data/baiqing/PycharmProjects/Reinvent-master-3.2/result/LINK_invent/BTK/process_docking_weight1_custom_product_contain_oxygen_bond_distance_aromatic_linkinvent_7_9_3/rearranged_h_0074.sdf

> <i_m_source_file_index>
23

> <r_mmod_Potential_Energy-OPLS-2005>
-154.687789916992

> <r_mmod_Stretch_Energy-OPLS-2005>
41.8427047729492

> <r_mmod_Bend_Energy-OPLS-2005>
101.263359069824

> <r_mmod_Torsional_Energy-OPLS-2005>
248.007904052734

> <r_mmod_Improper_Torsional_Energy-OPLS-2005>
3.83613705635071

> <r_mmod_Van_der_Waal_Energy-OPLS-2005>
157.202606201172

> <r_mmod_Electrostatic_Energy-OPLS-2005>
-439.849182128906

> <r_mmod_Solvation_Energy-OPLS-2005>
-282.654174804688

> <b_mmod_Minimization_Converged-OPLS-2005>
0

> <r_mmod_RMS_Derivative-OPLS-2005>
2.30342268943787

$$$$
24
                    3D
 Structure written by MMmdl.
161170  0  0  1  0            999 V2000
  -30.6201  -14.7408   20.4309 C   0  0  0  0  0  0
  -30.4289  -12.4473   19.4772 C   0  0  0  0  0  0
  -29.5099  -12.5042   18.2371 C   0  0  0  0  0  0
  -28.0358  -12.3311   18.6497 C   0  0  0  0  0  0
  -27.6412  -13.2344   19.8490 C   0  0  2  0  0  0
  -28.6857  -13.1763   20.9852 C   0  0  0  0  0  0
  -25.2507  -13.8206   20.5701 C   0  0  0  0  0  0
  -24.1800  -13.0444   20.9207 C   0  0  0  0  0  0
  -24.6397  -11.6924   20.8749 C   0  0  0  0  0  0
  -23.9077  -10.4295   21.0408 C   0  0  0  0  0  0
  -24.3626   -9.4208   21.9185 C   0  0  0  0  0  0
  -23.6297   -8.2245   22.0757 C   0  0  0  0  0  0
  -22.4280   -8.0283   21.3544 C   0  0  0  0  0  0
  -21.9917   -9.0259   20.4648 C   0  0  0  0  0  0
  -22.7250  -10.2136   20.3057 C   0  0  0  0  0  0
  -21.6854   -6.0737   22.5279 C   0  0  0  0  0  0
  -21.4016   -6.5642   23.8212 C   0  0  0  0  0  0
  -21.3660   -5.6795   24.9174 C   0  0  0  0  0  0
  -21.6044   -4.3057   24.7226 C   0  0  0  0  0  0
  -21.8820   -3.8147   23.4348 C   0  0  0  0  0  0
  -21.9193   -4.6963   22.3404 C   0  0  0  0  0  0
  -22.7820  -13.5221   21.1866 C   0  0  0  0  0  0
  -22.1662   -4.2148   21.0981 F   0  0  0  0  0  0
  -21.5625   -3.4541   25.7739 F   0  0  0  0  0  0
  -29.9889  -13.5171   20.4026 N   0  0  0  0  0  0
  -26.2936  -12.9418   20.3279 N   0  0  0  0  0  0
  -25.9328  -11.6558   20.5753 N   0  0  0  0  0  0
  -22.0472  -12.8207   22.0423 N   0  0  0  0  0  0
  -25.4194  -15.1931   20.4125 N   0  0  0  0  0  0
  -31.8253  -14.8018   20.1744 O   0  0  0  0  0  0
  -21.6642   -6.8881   21.4242 O   0  0  0  0  0  0
  -22.3501  -14.5527   20.6715 O   0  0  0  0  0  0
  -24.6329  -31.8558   23.2000 C   0  0  0  0  0  0
  -25.9153  -32.4757   23.8341 C   0  0  1  0  0  0
  -27.2106  -27.2526   20.1226 C   0  0  0  0  0  0
  -25.5946  -33.8559   24.2260 N   0  0  0  0  0  0
  -23.4288  -30.4816   21.5446 C   0  0  2  0  0  0
  -24.8733  -28.9339   20.1101 C   0  0  0  0  0  0
  -22.7508  -29.4611   22.4913 C   0  0  0  0  0  0
  -18.0294  -28.1389   22.8485 C   0  0  0  0  0  0
  -24.1491  -36.7280   23.2638 C   0  0  0  0  0  0
  -25.9778  -30.7662   21.3821 C   0  0  0  0  0  0
  -26.0489  -29.3903   20.7198 C   0  0  0  0  0  0
  -27.2213  -28.5636   20.7142 C   0  0  0  0  0  0
  -26.0069  -26.8746   19.4805 C   0  0  0  0  0  0
  -24.8586  -27.6843   19.4795 C   0  0  0  0  0  0
  -23.6461  -29.8220   20.1593 C   0  0  0  0  0  0
  -25.4119  -36.3069   24.0324 C   0  0  1  0  0  0
  -20.5900  -28.3703   23.1265 C   0  0  2  0  0  0
  -20.6784  -26.9420   22.5404 C   0  0  0  0  0  0
  -19.5755  -26.6385   21.5211 C   0  0  0  0  0  0
  -18.1937  -26.7931   22.1626 C   0  0  0  0  0  0
  -19.1548  -28.8863   23.2869 C   0  0  0  0  0  0
  -18.9468  -30.1463   23.8889 C   0  0  0  0  0  0
  -17.6466  -30.6589   24.0562 C   0  0  0  0  0  0
  -25.9063  -34.9440   23.5094 C   0  0  0  0  0  0
  -16.5358  -29.9084   23.6334 C   0  0  0  0  0  0
  -16.7280  -28.6502   23.0356 C   0  0  0  0  0  0
  -26.4512  -31.6582   25.0733 C   0  0  0  0  0  0
  -25.3726  -31.3736   26.1445 C   0  0  0  0  0  0
  -27.0360  -30.2994   24.6232 C   0  0  0  0  0  0
  -27.6062  -32.4324   25.7509 C   0  0  0  0  0  0
  -27.5580  -37.1798   24.8465 C   0  0  0  0  0  0
  -21.4215  -29.3050   22.3654 N   0  0  0  0  0  0
  -26.4292  -37.3770   23.9409 N   0  0  0  0  0  0
  -24.6992  -31.0521   22.0982 N   0  0  0  0  0  0
  -23.4205  -28.8144   23.3009 O   0  0  0  0  0  0
  -28.2900  -26.3316   20.1842 O   0  0  0  0  0  0
  -26.5631  -34.8915   22.4661 O   0  0  0  0  0  0
  -23.5477  -32.1386   23.7290 O   0  0  0  0  0  0
  -31.0182  -18.6337   18.2065 C   0  0  0  0  0  0
  -29.5549  -18.5167   20.5524 C   0  0  0  0  0  0
  -30.5722  -19.8497   18.7696 C   0  0  0  0  0  0
  -29.7560  -19.8363   19.9468 C   0  0  0  0  0  0
  -30.0744  -17.2603   20.0114 C   0  0  0  0  0  0
  -30.7587  -17.3798   18.7784 C   0  0  0  0  0  0
  -29.4394  -23.2121   21.5915 C   0  0  0  0  0  0
  -29.4162  -24.0109   22.6701 C   0  0  0  0  0  0
  -31.0643  -21.1037   18.0958 C   0  0  0  0  0  0
  -29.8179  -21.7228   21.6214 C   0  0  0  0  0  0
  -28.5261  -22.1694   19.6888 C   0  0  0  0  0  0
  -28.9941  -23.6069   20.1961 C   0  0  1  0  0  0
  -27.9766  -24.8635   20.0165 C   0  0  0  0  0  0
  -29.1724  -21.0640   20.4834 N   0  0  0  0  0  0
  -30.8305  -21.1919   16.7908 N   0  0  0  0  0  0
  -29.8580  -15.8960   20.5837 N   0  0  0  0  0  0
  -31.6675  -21.9850   18.7060 O   0  0  0  0  0  0
  -31.1560  -16.2876   18.0836 F   0  0  0  0  0  0
  -31.4713  -12.5620   19.1753 H   0  0  0  0  0  0
  -30.3641  -11.4729   19.9636 H   0  0  0  0  0  0
  -29.7911  -11.7310   17.5210 H   0  0  0  0  0  0
  -29.6390  -13.4592   17.7246 H   0  0  0  0  0  0
  -27.8920  -11.2827   18.9140 H   0  0  0  0  0  0
  -27.3792  -12.5217   17.8000 H   0  0  0  0  0  0
  -27.6332  -14.2547   19.4646 H   0  0  0  0  0  0
  -28.7172  -12.1831   21.4356 H   0  0  0  0  0  0
  -28.4245  -13.8682   21.7872 H   0  0  0  0  0  0
  -25.2772   -9.5683   22.4756 H   0  0  0  0  0  0
  -24.0005   -7.4637   22.7479 H   0  0  0  0  0  0
  -21.0849   -8.8786   19.8953 H   0  0  0  0  0  0
  -22.3714  -10.9678   19.6164 H   0  0  0  0  0  0
  -21.2014   -7.6150   23.9717 H   0  0  0  0  0  0
  -21.1479   -6.0524   25.9077 H   0  0  0  0  0  0
  -22.0599   -2.7609   23.2850 H   0  0  0  0  0  0
  -22.4100  -11.9870   22.4803 H   0  0  0  0  0  0
  -21.1089  -13.1223   22.2637 H   0  0  0  0  0  0
  -24.6511  -15.8458   20.5242 H   0  0  0  0  0  0
  -26.2646  -15.6339   20.0728 H   0  0  0  0  0  0
  -26.7218  -32.5401   23.1079 H   0  0  0  0  0  0
  -25.0090  -33.9698   25.0403 H   0  0  0  0  0  0
  -22.7257  -31.3049   21.4017 H   0  0  0  0  0  0
  -23.3758  -35.9608   23.3297 H   0  0  0  0  0  0
  -24.3578  -36.8908   22.2053 H   0  0  0  0  0  0
  -23.7241  -37.6477   23.6667 H   0  0  0  0  0  0
  -26.1209  -31.5291   20.6155 H   0  0  0  0  0  0
  -26.8539  -30.8107   22.0176 H   0  0  0  0  0  0
  -28.1192  -28.9072   21.2085 H   0  0  0  0  0  0
  -25.9030  -25.9249   18.9806 H   0  0  0  0  0  0
  -23.9593  -27.3301   18.9945 H   0  0  0  0  0  0
  -23.7723  -30.6011   19.4066 H   0  0  0  0  0  0
  -22.7632  -29.2585   19.8521 H   0  0  0  0  0  0
  -25.1302  -36.1914   25.0817 H   0  0  0  0  0  0
  -20.9991  -28.3281   24.1385 H   0  0  0  0  0  0
  -20.5687  -26.2314   23.3609 H   0  0  0  0  0  0
  -21.6651  -26.7446   22.1196 H   0  0  0  0  0  0
  -19.6919  -25.6293   21.1246 H   0  0  0  0  0  0
  -19.6690  -27.3192   20.6737 H   0  0  0  0  0  0
  -17.4205  -26.6676   21.4030 H   0  0  0  0  0  0
  -18.0341  -26.0074   22.9024 H   0  0  0  0  0  0
  -19.7942  -30.7282   24.2254 H   0  0  0  0  0  0
  -17.5019  -31.6269   24.5164 H   0  0  0  0  0  0
  -15.5357  -30.2984   23.7663 H   0  0  0  0  0  0
  -15.8680  -28.0817   22.7078 H   0  0  0  0  0  0
  -24.5905  -30.7082   25.7768 H   0  0  0  0  0  0
  -24.8913  -32.2906   26.4853 H   0  0  0  0  0  0
  -25.8034  -30.8920   27.0233 H   0  0  0  0  0  0
  -26.2950  -29.6737   24.1241 H   0  0  0  0  0  0
  -27.4015  -29.7262   25.4763 H   0  0  0  0  0  0
  -27.8842  -30.4258   23.9501 H   0  0  0  0  0  0
  -27.2670  -33.3632   26.2067 H   0  0  0  0  0  0
  -28.3884  -32.6871   25.0345 H   0  0  0  0  0  0
  -28.0717  -31.8460   26.5440 H   0  0  0  0  0  0
  -28.2595  -38.0098   24.7515 H   0  0  0  0  0  0
  -28.1080  -36.2628   24.6291 H   0  0  0  0  0  0
  -27.2297  -37.1444   25.8868 H   0  0  0  0  0  0
  -20.9401  -29.8776   21.6860 H   0  0  0  0  0  0
  -26.0169  -38.2843   24.1411 H   0  0  0  0  0  0
  -31.6015  -18.6525   17.2971 H   0  0  0  0  0  0
  -28.9679  -18.4672   21.4578 H   0  0  0  0  0  0
  -29.7131  -23.6437   23.6420 H   0  0  0  0  0  0
  -29.1053  -25.0436   22.6013 H   0  0  0  0  0  0
  -29.5133  -21.2659   22.5645 H   0  0  0  0  0  0
  -30.9020  -21.6275   21.5378 H   0  0  0  0  0  0
  -28.6612  -22.0646   18.6132 H   0  0  0  0  0  0
  -27.4508  -22.0819   19.8527 H   0  0  0  0  0  0
  -29.9059  -23.8532   19.6514 H   0  0  0  0  0  0
  -27.1014  -24.6434   20.6301 H   0  0  0  0  0  0
  -27.6505  -24.7616   18.9818 H   0  0  0  0  0  0
  -30.3277  -20.4586   16.3129 H   0  0  0  0  0  0
  -31.1444  -21.9986   16.2717 H   0  0  0  0  0  0
  -28.9501  -15.7452   20.9949 H   0  0  0  0  0  0
  1 25  1  0  0  0
  1 30  2  0  0  0
  1 86  1  0  0  0
  2  3  1  0  0  0
  2 25  1  0  0  0
  2 89  1  0  0  0
  2 90  1  0  0  0
  3  4  1  0  0  0
  3 91  1  0  0  0
  3 92  1  0  0  0
  4  5  1  0  0  0
  4 93  1  0  0  0
  4 94  1  0  0  0
  5  6  1  0  0  0
  5 26  1  0  0  0
  5 95  1  0  0  0
  6 25  1  0  0  0
  6 96  1  0  0  0
  6 97  1  0  0  0
  7  8  2  0  0  0
  7 26  1  0  0  0
  7 29  1  0  0  0
  8  9  1  0  0  0
  8 22  1  0  0  0
  9 10  1  0  0  0
  9 27  2  0  0  0
 10 11  2  0  0  0
 10 15  1  0  0  0
 11 12  1  0  0  0
 11 98  1  0  0  0
 12 13  2  0  0  0
 12 99  1  0  0  0
 13 14  1  0  0  0
 13 31  1  0  0  0
 14 15  2  0  0  0
 14100  1  0  0  0
 15101  1  0  0  0
 16 17  2  0  0  0
 16 21  1  0  0  0
 16 31  1  0  0  0
 17 18  1  0  0  0
 17102  1  0  0  0
 18 19  2  0  0  0
 18103  1  0  0  0
 19 20  1  0  0  0
 19 24  1  0  0  0
 20 21  2  0  0  0
 20104  1  0  0  0
 21 23  1  0  0  0
 22 28  1  0  0  0
 22 32  2  0  0  0
 26 27  1  0  0  0
 28105  1  0  0  0
 28106  1  0  0  0
 29107  1  0  0  0
 29108  1  0  0  0
 33 34  1  0  0  0
 33 66  1  0  0  0
 33 70  2  0  0  0
 34 36  1  0  0  0
 34 59  1  0  0  0
 34109  1  0  0  0
 35 44  2  0  0  0
 35 45  1  0  0  0
 35 68  1  0  0  0
 36 56  1  0  0  0
 36110  1  0  0  0
 37 39  1  0  0  0
 37 47  1  0  0  0
 37 66  1  0  0  0
 37111  1  0  0  0
 38 43  2  0  0  0
 38 46  1  0  0  0
 38 47  1  0  0  0
 39 64  1  0  0  0
 39 67  2  0  0  0
 40 52  1  0  0  0
 40 53  2  0  0  0
 40 58  1  0  0  0
 41112  1  0  0  0
 41113  1  0  0  0
 41114  1  0  0  0
 41 48  1  0  0  0
 42 43  1  0  0  0
 42 66  1  0  0  0
 42115  1  0  0  0
 42116  1  0  0  0
 43 44  1  0  0  0
 44117  1  0  0  0
 45 46  2  0  0  0
 45118  1  0  0  0
 46119  1  0  0  0
 47120  1  0  0  0
 47121  1  0  0  0
 48 56  1  0  0  0
 48 65  1  0  0  0
 48122  1  0  0  0
 49 50  1  0  0  0
 49 53  1  0  0  0
 49 64  1  0  0  0
 49123  1  0  0  0
 50 51  1  0  0  0
 50124  1  0  0  0
 50125  1  0  0  0
 51 52  1  0  0  0
 51126  1  0  0  0
 51127  1  0  0  0
 52128  1  0  0  0
 52129  1  0  0  0
 53 54  1  0  0  0
 54 55  2  0  0  0
 54130  1  0  0  0
 55 57  1  0  0  0
 55131  1  0  0  0
 56 69  2  0  0  0
 57 58  2  0  0  0
 57132  1  0  0  0
 58133  1  0  0  0
 59 60  1  0  0  0
 59 61  1  0  0  0
 59 62  1  0  0  0
 60134  1  0  0  0
 60135  1  0  0  0
 60136  1  0  0  0
 61137  1  0  0  0
 61138  1  0  0  0
 61139  1  0  0  0
 62140  1  0  0  0
 62141  1  0  0  0
 62142  1  0  0  0
 63 65  1  0  0  0
 63143  1  0  0  0
 63144  1  0  0  0
 63145  1  0  0  0
 64146  1  0  0  0
 65147  1  0  0  0
 68 83  1  0  0  0
 71 73  2  0  0  0
 71 76  1  0  0  0
 71148  1  0  0  0
 72 74  2  0  0  0
 72 75  1  0  0  0
 72149  1  0  0  0
 73 74  1  0  0  0
 73 79  1  0  0  0
 74 84  1  0  0  0
 75 76  2  0  0  0
 75 86  1  0  0  0
 76 88  1  0  0  0
 77 78  2  0  0  0
 77 80  1  0  0  0
 77 82  1  0  0  0
 78150  1  0  0  0
 78151  1  0  0  0
 79 85  1  0  0  0
 79 87  2  0  0  0
 80 84  1  0  0  0
 80152  1  0  0  0
 80153  1  0  0  0
 81 82  1  0  0  0
 81 84  1  0  0  0
 81154  1  0  0  0
 81155  1  0  0  0
 82 83  1  0  0  0
 82156  1  0  0  0
 83157  1  0  0  0
 83158  1  0  0  0
 85159  1  0  0  0
 85160  1  0  0  0
 86161  1  0  0  0
M  ISO  4   1 100  68 101  83 101  86 100
M  END
> <chiral flag>
0

> <version>
0

> <s_m_source_file>
/data/baiqing/PycharmProjects/Reinvent-master-3.2/result/LINK_invent/BTK/process_docking_weight1_custom_product_contain_oxygen_bond_distance_aromatic_linkinvent_7_9_3/rearranged_h_0074.sdf

> <i_m_source_file_index>
24

> <r_mmod_Potential_Energy-OPLS-2005>
147.468246459961

> <r_mmod_Stretch_Energy-OPLS-2005>
128.940002441406

> <r_mmod_Bend_Energy-OPLS-2005>
208.950180053711

> <r_mmod_Torsional_Energy-OPLS-2005>
289.490905761719

> <r_mmod_Improper_Torsional_Energy-OPLS-2005>
7.55838108062744

> <r_mmod_Van_der_Waal_Energy-OPLS-2005>
147.28059387207

> <r_mmod_Electrostatic_Energy-OPLS-2005>
-456.759674072266

> <r_mmod_Solvation_Energy-OPLS-2005>
-268.263610839844

> <b_mmod_Minimization_Converged-OPLS-2005>
0

> <r_mmod_RMS_Derivative-OPLS-2005>
0.317128866910934

$$$$
25
                    3D
 Structure written by MMmdl.
155164  0  0  1  0            999 V2000
  -30.6143  -14.6557   20.5026 C   0  0  0  0  0  0
  -30.4435  -12.4029   19.4538 C   0  0  0  0  0  0
  -29.5111  -12.5123   18.2257 C   0  0  0  0  0  0
  -28.0342  -12.3442   18.6372 C   0  0  0  0  0  0
  -27.6549  -13.2152   19.8638 C   0  0  2  0  0  0
  -28.7003  -13.0716   20.9935 C   0  0  0  0  0  0
  -25.2572  -13.8162   20.5676 C   0  0  0  0  0  0
  -24.1835  -13.0437   20.9192 C   0  0  0  0  0  0
  -24.6398  -11.6907   20.8744 C   0  0  0  0  0  0
  -23.9061  -10.4293   21.0408 C   0  0  0  0  0  0
  -24.3612   -9.4208   21.9185 C   0  0  0  0  0  0
  -23.6289   -8.2243   22.0754 C   0  0  0  0  0  0
  -22.4272   -8.0280   21.3544 C   0  0  0  0  0  0
  -21.9905   -9.0253   20.4646 C   0  0  0  0  0  0
  -22.7233  -10.2135   20.3057 C   0  0  0  0  0  0
  -21.6851   -6.0735   22.5280 C   0  0  0  0  0  0
  -21.4011   -6.5638   23.8214 C   0  0  0  0  0  0
  -21.3661   -5.6790   24.9175 C   0  0  0  0  0  0
  -21.6048   -4.3053   24.7225 C   0  0  0  0  0  0
  -21.8818   -3.8145   23.4345 C   0  0  0  0  0  0
  -21.9191   -4.6962   22.3402 C   0  0  0  0  0  0
  -22.7858  -13.5237   21.1851 C   0  0  0  0  0  0
  -22.1662   -4.2147   21.0980 F   0  0  0  0  0  0
  -21.5630   -3.4536   25.7738 F   0  0  0  0  0  0
  -30.0155  -13.4228   20.4322 N   0  0  0  0  0  0
  -26.2999  -12.9339   20.3314 N   0  0  0  0  0  0
  -25.9327  -11.6498   20.5755 N   0  0  0  0  0  0
  -22.0488  -12.8240   22.0407 N   0  0  0  0  0  0
  -25.4285  -15.1880   20.4064 N   0  0  0  0  0  0
  -31.7763  -14.8247   20.1197 O   0  0  0  0  0  0
  -21.6639   -6.8877   21.4242 O   0  0  0  0  0  0
  -22.3553  -14.5546   20.6697 O   0  0  0  0  0  0
  -24.6282  -31.8600   23.2051 C   0  0  0  0  0  0
  -25.9128  -32.4780   23.8375 C   0  0  1  0  0  0
  -27.2159  -27.3031   20.1137 C   0  0  0  0  0  0
  -25.5942  -33.8584   24.2294 N   0  0  0  0  0  0
  -23.4223  -30.4870   21.5481 C   0  0  2  0  0  0
  -24.8687  -28.9486   20.1107 C   0  0  0  0  0  0
  -22.7488  -29.4630   22.4936 C   0  0  0  0  0  0
  -18.0289  -28.1385   22.8483 C   0  0  0  0  0  0
  -24.1491  -36.7293   23.2636 C   0  0  0  0  0  0
  -25.9680  -30.7843   21.3832 C   0  0  0  0  0  0
  -26.0407  -29.4129   20.7214 C   0  0  0  0  0  0
  -27.2185  -28.6014   20.7170 C   0  0  0  0  0  0
  -26.0245  -26.9168   19.4532 C   0  0  0  0  0  0
  -24.8640  -27.7065   19.4664 C   0  0  0  0  0  0
  -23.6383  -29.8293   20.1617 C   0  0  0  0  0  0
  -25.4115  -36.3086   24.0330 C   0  0  1  0  0  0
  -20.5893  -28.3692   23.1275 C   0  0  2  0  0  0
  -20.6781  -26.9415   22.5404 C   0  0  0  0  0  0
  -19.5757  -26.6384   21.5208 C   0  0  0  0  0  0
  -18.1938  -26.7927   22.1622 C   0  0  0  0  0  0
  -19.1543  -28.8855   23.2875 C   0  0  0  0  0  0
  -18.9463  -30.1458   23.8892 C   0  0  0  0  0  0
  -17.6461  -30.6586   24.0558 C   0  0  0  0  0  0
  -25.9054  -34.9453   23.5109 C   0  0  0  0  0  0
  -16.5353  -29.9082   23.6328 C   0  0  0  0  0  0
  -16.7274  -28.6500   23.0348 C   0  0  0  0  0  0
  -26.4504  -31.6587   25.0745 C   0  0  0  0  0  0
  -25.3730  -31.3724   26.1464 C   0  0  0  0  0  0
  -27.0347  -30.3006   24.6215 C   0  0  0  0  0  0
  -27.6067  -32.4317   25.7510 C   0  0  0  0  0  0
  -27.5584  -37.1800   24.8461 C   0  0  0  0  0  0
  -21.4201  -29.3046   22.3670 N   0  0  0  0  0  0
  -26.4293  -37.3780   23.9411 N   0  0  0  0  0  0
  -24.6915  -31.0601   22.1017 N   0  0  0  0  0  0
  -23.4208  -28.8156   23.3007 O   0  0  0  0  0  0
  -28.3013  -26.4043   20.1675 O   0  0  0  0  0  0
  -26.5612  -34.8915   22.4670 O   0  0  0  0  0  0
  -23.5442  -32.1408   23.7366 O   0  0  0  0  0  0
  -28.6153  -19.3267   20.8591 C   0  0  0  0  0  0
  -30.9389  -19.3495   20.2809 C   0  0  0  0  0  0
  -28.6657  -17.9042   20.9632 C   0  0  0  0  0  0
  -30.9910  -17.9210   20.3755 C   0  0  0  0  0  0
  -29.7509  -20.1066   20.5165 C   0  0  0  0  0  0
  -29.8480  -17.1519   20.7229 C   0  0  0  0  0  0
  -28.6411  -22.4731   20.5455 C   0  0  0  0  0  0
  -28.9597  -23.7900   20.3823 C   0  0  0  0  0  0
  -30.3815  -23.7842   20.1211 C   0  0  0  0  0  0
  -31.1418  -24.8676   19.8961 C   0  0  0  0  0  0
  -30.9000  -22.3454   20.1371 C   0  0  0  0  0  0
  -27.9323  -24.9823   20.4276 C   0  0  0  0  0  0
  -29.7019  -21.5492   20.4207 N   0  0  0  0  0  0
  -29.7887  -15.6913   20.8628 N   0  0  0  0  0  0
  -31.4835  -12.5353   19.1511 H   0  0  0  0  0  0
  -30.3859  -11.4068   19.8952 H   0  0  0  0  0  0
  -29.7796  -11.7621   17.4807 H   0  0  0  0  0  0
  -29.6479  -13.4822   17.7452 H   0  0  0  0  0  0
  -27.8755  -11.2909   18.8705 H   0  0  0  0  0  0
  -27.3783  -12.5706   17.7957 H   0  0  0  0  0  0
  -27.6721  -14.2499   19.5214 H   0  0  0  0  0  0
  -28.7162  -12.0490   21.3733 H   0  0  0  0  0  0
  -28.4417  -13.6986   21.8483 H   0  0  0  0  0  0
  -25.2754   -9.5685   22.4763 H   0  0  0  0  0  0
  -23.9997   -7.4634   22.7474 H   0  0  0  0  0  0
  -21.0834   -8.8771   19.8954 H   0  0  0  0  0  0
  -22.3687  -10.9673   19.6169 H   0  0  0  0  0  0
  -21.2003   -7.6147   23.9717 H   0  0  0  0  0  0
  -21.1485   -6.0520   25.9078 H   0  0  0  0  0  0
  -22.0598   -2.7607   23.2844 H   0  0  0  0  0  0
  -22.4087  -11.9897   22.4800 H   0  0  0  0  0  0
  -21.1111  -13.1287   22.2608 H   0  0  0  0  0  0
  -24.6545  -15.8369   20.4969 H   0  0  0  0  0  0
  -26.2634  -15.6190   20.0307 H   0  0  0  0  0  0
  -26.7194  -32.5443   23.1119 H   0  0  0  0  0  0
  -25.0097  -33.9731   25.0446 H   0  0  0  0  0  0
  -22.7167  -31.3087   21.4075 H   0  0  0  0  0  0
  -23.3755  -35.9624   23.3297 H   0  0  0  0  0  0
  -24.3585  -36.8914   22.2050 H   0  0  0  0  0  0
  -23.7241  -37.6496   23.6655 H   0  0  0  0  0  0
  -26.1051  -31.5490   20.6176 H   0  0  0  0  0  0
  -26.8468  -30.8290   22.0147 H   0  0  0  0  0  0
  -28.1128  -28.9485   21.2156 H   0  0  0  0  0  0
  -25.9483  -25.9933   18.9030 H   0  0  0  0  0  0
  -23.9728  -27.3538   18.9655 H   0  0  0  0  0  0
  -23.7592  -30.6089   19.4089 H   0  0  0  0  0  0
  -22.7577  -29.2617   19.8555 H   0  0  0  0  0  0
  -25.1292  -36.1940   25.0821 H   0  0  0  0  0  0
  -20.9983  -28.3264   24.1396 H   0  0  0  0  0  0
  -20.5691  -26.2298   23.3602 H   0  0  0  0  0  0
  -21.6648  -26.7450   22.1188 H   0  0  0  0  0  0
  -19.6919  -25.6294   21.1241 H   0  0  0  0  0  0
  -19.6694  -27.3191   20.6738 H   0  0  0  0  0  0
  -17.4204  -26.6669   21.4027 H   0  0  0  0  0  0
  -18.0342  -26.0073   22.9021 H   0  0  0  0  0  0
  -19.7940  -30.7274   24.2263 H   0  0  0  0  0  0
  -17.5015  -31.6267   24.5158 H   0  0  0  0  0  0
  -15.5353  -30.2979   23.7661 H   0  0  0  0  0  0
  -15.8675  -28.0819   22.7064 H   0  0  0  0  0  0
  -24.5914  -30.7065   25.7787 H   0  0  0  0  0  0
  -24.8908  -32.2887   26.4883 H   0  0  0  0  0  0
  -25.8050  -30.8905   27.0244 H   0  0  0  0  0  0
  -26.2926  -29.6754   24.1234 H   0  0  0  0  0  0
  -27.4024  -29.7266   25.4731 H   0  0  0  0  0  0
  -27.8811  -30.4278   23.9461 H   0  0  0  0  0  0
  -27.2688  -33.3619   26.2088 H   0  0  0  0  0  0
  -28.3879  -32.6872   25.0339 H   0  0  0  0  0  0
  -28.0735  -31.8440   26.5424 H   0  0  0  0  0  0
  -28.2588  -38.0111   24.7528 H   0  0  0  0  0  0
  -28.1095  -36.2644   24.6262 H   0  0  0  0  0  0
  -27.2303  -37.1414   25.8863 H   0  0  0  0  0  0
  -20.9382  -29.8775   21.6884 H   0  0  0  0  0  0
  -26.0176  -38.2853   24.1421 H   0  0  0  0  0  0
  -27.6735  -19.8169   21.0555 H   0  0  0  0  0  0
  -31.8522  -19.8609   20.0161 H   0  0  0  0  0  0
  -27.7562  -17.3872   21.2357 H   0  0  0  0  0  0
  -31.9322  -17.4273   20.1813 H   0  0  0  0  0  0
  -27.6526  -22.0796   20.7414 H   0  0  0  0  0  0
  -30.7299  -25.8654   19.8945 H   0  0  0  0  0  0
  -32.2013  -24.7702   19.7074 H   0  0  0  0  0  0
  -31.6541  -22.2168   20.9150 H   0  0  0  0  0  0
  -31.3331  -22.0828   19.1708 H   0  0  0  0  0  0
  -27.4478  -24.9458   21.4042 H   0  0  0  0  0  0
  -27.1868  -24.6395   19.7171 H   0  0  0  0  0  0
  -28.8912  -15.3493   21.1701 H   0  0  0  0  0  0
  1 25  1  0  0  0
  1 30  2  0  0  0
  1 84  1  0  0  0
  2  3  1  0  0  0
  2 25  1  0  0  0
  2 85  1  0  0  0
  2 86  1  0  0  0
  3  4  1  0  0  0
  3 87  1  0  0  0
  3 88  1  0  0  0
  4  5  1  0  0  0
  4 89  1  0  0  0
  4 90  1  0  0  0
  5  6  1  0  0  0
  5 26  1  0  0  0
  5 91  1  0  0  0
  6 25  1  0  0  0
  6 92  1  0  0  0
  6 93  1  0  0  0
  7  8  2  0  0  0
  7 26  1  0  0  0
  7 29  1  0  0  0
  8  9  1  0  0  0
  8 22  1  0  0  0
  9 10  1  0  0  0
  9 27  2  0  0  0
 10 11  2  0  0  0
 10 15  1  0  0  0
 11 12  1  0  0  0
 11 94  1  0  0  0
 12 13  2  0  0  0
 12 95  1  0  0  0
 13 14  1  0  0  0
 13 31  1  0  0  0
 14 15  2  0  0  0
 14 96  1  0  0  0
 15 97  1  0  0  0
 16 17  2  0  0  0
 16 21  1  0  0  0
 16 31  1  0  0  0
 17 18  1  0  0  0
 17 98  1  0  0  0
 18 19  2  0  0  0
 18 99  1  0  0  0
 19 20  1  0  0  0
 19 24  1  0  0  0
 20 21  2  0  0  0
 20100  1  0  0  0
 21 23  1  0  0  0
 22 28  1  0  0  0
 22 32  2  0  0  0
 26 27  1  0  0  0
 28101  1  0  0  0
 28102  1  0  0  0
 29103  1  0  0  0
 29104  1  0  0  0
 33 34  1  0  0  0
 33 66  1  0  0  0
 33 70  2  0  0  0
 34 36  1  0  0  0
 34 59  1  0  0  0
 34105  1  0  0  0
 35 44  2  0  0  0
 35 45  1  0  0  0
 35 68  1  0  0  0
 36 56  1  0  0  0
 36106  1  0  0  0
 37 39  1  0  0  0
 37 47  1  0  0  0
 37 66  1  0  0  0
 37107  1  0  0  0
 38 43  2  0  0  0
 38 46  1  0  0  0
 38 47  1  0  0  0
 39 64  1  0  0  0
 39 67  2  0  0  0
 40 52  1  0  0  0
 40 53  2  0  0  0
 40 58  1  0  0  0
 41108  1  0  0  0
 41109  1  0  0  0
 41110  1  0  0  0
 41 48  1  0  0  0
 42 43  1  0  0  0
 42 66  1  0  0  0
 42111  1  0  0  0
 42112  1  0  0  0
 43 44  1  0  0  0
 44113  1  0  0  0
 45 46  2  0  0  0
 45114  1  0  0  0
 46115  1  0  0  0
 47116  1  0  0  0
 47117  1  0  0  0
 48 56  1  0  0  0
 48 65  1  0  0  0
 48118  1  0  0  0
 49 50  1  0  0  0
 49 53  1  0  0  0
 49 64  1  0  0  0
 49119  1  0  0  0
 50 51  1  0  0  0
 50120  1  0  0  0
 50121  1  0  0  0
 51 52  1  0  0  0
 51122  1  0  0  0
 51123  1  0  0  0
 52124  1  0  0  0
 52125  1  0  0  0
 53 54  1  0  0  0
 54 55  2  0  0  0
 54126  1  0  0  0
 55 57  1  0  0  0
 55127  1  0  0  0
 56 69  2  0  0  0
 57 58  2  0  0  0
 57128  1  0  0  0
 58129  1  0  0  0
 59 60  1  0  0  0
 59 61  1  0  0  0
 59 62  1  0  0  0
 60130  1  0  0  0
 60131  1  0  0  0
 60132  1  0  0  0
 61133  1  0  0  0
 61134  1  0  0  0
 61135  1  0  0  0
 62136  1  0  0  0
 62137  1  0  0  0
 62138  1  0  0  0
 63 65  1  0  0  0
 63139  1  0  0  0
 63140  1  0  0  0
 63141  1  0  0  0
 64142  1  0  0  0
 65143  1  0  0  0
 68 82  1  0  0  0
 71 73  2  0  0  0
 71 75  1  0  0  0
 71144  1  0  0  0
 72 74  1  0  0  0
 72 75  2  0  0  0
 72145  1  0  0  0
 73 76  1  0  0  0
 73146  1  0  0  0
 74 76  2  0  0  0
 74147  1  0  0  0
 75 83  1  0  0  0
 76 84  1  0  0  0
 77 78  2  0  0  0
 77 83  1  0  0  0
 77148  1  0  0  0
 78 79  1  0  0  0
 78 82  1  0  0  0
 79 80  2  0  0  0
 79 81  1  0  0  0
 80149  1  0  0  0
 80150  1  0  0  0
 81 83  1  0  0  0
 81151  1  0  0  0
 81152  1  0  0  0
 82153  1  0  0  0
 82154  1  0  0  0
 84155  1  0  0  0
M  ISO  4   1 100  68 101  82 101  84 100
M  END
> <chiral flag>
0

> <version>
0

> <s_m_source_file>
/data/baiqing/PycharmProjects/Reinvent-master-3.2/result/LINK_invent/BTK/process_docking_weight1_custom_product_contain_oxygen_bond_distance_aromatic_linkinvent_7_9_3/rearranged_h_0074.sdf

> <i_m_source_file_index>
25

> <r_mmod_Potential_Energy-OPLS-2005>
150.089111328125

> <r_mmod_Stretch_Energy-OPLS-2005>
81.1377410888672

> <r_mmod_Bend_Energy-OPLS-2005>
240.632843017578

> <r_mmod_Torsional_Energy-OPLS-2005>
205.569717407227

> <r_mmod_Improper_Torsional_Energy-OPLS-2005>
4.23102521896362

> <r_mmod_Van_der_Waal_Energy-OPLS-2005>
145.412002563477

> <r_mmod_Electrostatic_Energy-OPLS-2005>
-374.673614501953

> <r_mmod_Solvation_Energy-OPLS-2005>
-210.018157958984

> <b_mmod_Minimization_Converged-OPLS-2005>
0

> <r_mmod_RMS_Derivative-OPLS-2005>
0.630913197994232

$$$$
26
                    3D
 Structure written by MMmdl.
160169  0  0  1  0            999 V2000
  -30.6979  -14.5458   20.4737 C   0  0  0  0  0  0
  -30.4149  -12.3335   19.4561 C   0  0  0  0  0  0
  -29.4935  -12.4701   18.2250 C   0  0  0  0  0  0
  -28.0189  -12.3276   18.6404 C   0  0  0  0  0  0
  -27.6490  -13.2137   19.8604 C   0  0  2  0  0  0
  -28.6935  -13.0934   20.9945 C   0  0  0  0  0  0
  -25.2544  -13.8173   20.5691 C   0  0  0  0  0  0
  -24.1828  -13.0445   20.9236 C   0  0  0  0  0  0
  -24.6394  -11.6917   20.8795 C   0  0  0  0  0  0
  -23.9064  -10.4299   21.0442 C   0  0  0  0  0  0
  -24.3615   -9.4201   21.9207 C   0  0  0  0  0  0
  -23.6295   -8.2237   22.0759 C   0  0  0  0  0  0
  -22.4270   -8.0287   21.3554 C   0  0  0  0  0  0
  -21.9910   -9.0268   20.4665 C   0  0  0  0  0  0
  -22.7233  -10.2151   20.3090 C   0  0  0  0  0  0
  -21.6855   -6.0750   22.5295 C   0  0  0  0  0  0
  -21.4016   -6.5659   23.8235 C   0  0  0  0  0  0
  -21.3654   -5.6803   24.9190 C   0  0  0  0  0  0
  -21.6036   -4.3069   24.7241 C   0  0  0  0  0  0
  -21.8812   -3.8160   23.4358 C   0  0  0  0  0  0
  -21.9189   -4.6984   22.3416 C   0  0  0  0  0  0
  -22.7850  -13.5250   21.1861 C   0  0  0  0  0  0
  -22.1654   -4.2172   21.0986 F   0  0  0  0  0  0
  -21.5624   -3.4542   25.7741 F   0  0  0  0  0  0
  -30.0141  -13.3702   20.4218 N   0  0  0  0  0  0
  -26.2973  -12.9357   20.3340 N   0  0  0  0  0  0
  -25.9325  -11.6518   20.5831 N   0  0  0  0  0  0
  -22.0453  -12.8290   22.0429 N   0  0  0  0  0  0
  -25.4207  -15.1894   20.4030 N   0  0  0  0  0  0
  -31.9012  -14.6084   20.2127 O   0  0  0  0  0  0
  -21.6626   -6.8891   21.4254 O   0  0  0  0  0  0
  -22.3575  -14.5555   20.6681 O   0  0  0  0  0  0
  -24.6131  -31.8664   23.2074 C   0  0  0  0  0  0
  -25.9026  -32.4816   23.8364 C   0  0  1  0  0  0
  -27.2257  -27.4215   20.1113 C   0  0  0  0  0  0
  -25.5888  -33.8616   24.2302 N   0  0  0  0  0  0
  -23.4024  -30.4889   21.5468 C   0  0  2  0  0  0
  -24.8494  -28.9506   20.1152 C   0  0  0  0  0  0
  -22.7402  -29.4656   22.4967 C   0  0  0  0  0  0
  -18.0275  -28.1369   22.8480 C   0  0  0  0  0  0
  -24.1493  -36.7336   23.2631 C   0  0  0  0  0  0
  -25.9302  -30.8303   21.3597 C   0  0  0  0  0  0
  -26.0095  -29.4617   20.7132 C   0  0  0  0  0  0
  -27.2052  -28.7052   20.7072 C   0  0  0  0  0  0
  -26.0547  -26.9280   19.5051 C   0  0  0  0  0  0
  -24.8665  -27.6828   19.5074 C   0  0  0  0  0  0
  -23.6121  -29.8196   20.1618 C   0  0  0  0  0  0
  -25.4109  -36.3111   24.0325 C   0  0  1  0  0  0
  -20.5861  -28.3658   23.1309 C   0  0  2  0  0  0
  -20.6755  -26.9388   22.5422 C   0  0  0  0  0  0
  -19.5751  -26.6375   21.5200 C   0  0  0  0  0  0
  -18.1923  -26.7912   22.1605 C   0  0  0  0  0  0
  -19.1521  -28.8826   23.2894 C   0  0  0  0  0  0
  -18.9456  -30.1428   23.8908 C   0  0  0  0  0  0
  -17.6461  -30.6574   24.0563 C   0  0  0  0  0  0
  -25.9038  -34.9477   23.5118 C   0  0  0  0  0  0
  -16.5348  -29.9085   23.6320 C   0  0  0  0  0  0
  -16.7267  -28.6504   23.0336 C   0  0  0  0  0  0
  -26.4457  -31.6591   25.0691 C   0  0  0  0  0  0
  -25.3748  -31.3748   26.1475 C   0  0  0  0  0  0
  -27.0230  -30.3003   24.6056 C   0  0  0  0  0  0
  -27.6038  -32.4301   25.7453 C   0  0  0  0  0  0
  -27.5598  -37.1802   24.8440 C   0  0  0  0  0  0
  -21.4124  -29.3029   22.3714 N   0  0  0  0  0  0
  -26.4295  -37.3794   23.9409 N   0  0  0  0  0  0
  -24.6673  -31.0765   22.0971 N   0  0  0  0  0  0
  -23.4168  -28.8196   23.3011 O   0  0  0  0  0  0
  -28.3560  -26.6346   20.0827 O   0  0  0  0  0  0
  -26.5610  -34.8934   22.4686 O   0  0  0  0  0  0
  -23.5326  -32.1420   23.7470 O   0  0  0  0  0  0
  -29.5913  -18.8400   21.4505 C   0  0  0  0  0  0
  -28.9481  -19.0307   19.1336 C   0  0  0  0  0  0
  -29.1878  -20.1908   21.6497 C   0  0  0  0  0  0
  -28.5633  -20.3730   19.3499 C   0  0  0  0  0  0
  -29.5138  -18.2480   20.1697 C   0  0  0  0  0  0
  -28.7010  -21.0229   20.6003 C   0  0  0  0  0  0
  -28.4925  -24.4009   20.9956 C   0  0  0  0  0  0
  -28.2259  -23.5218   19.8839 C   0  0  0  0  0  0
  -30.1485  -16.9402   19.8260 C   0  0  0  0  0  0
  -28.5443  -25.7524   21.1296 C   0  0  0  0  0  0
  -28.7393  -23.2118   21.9149 C   0  0  0  0  0  0
  -28.9009  -26.4538   22.4287 C   0  0  0  0  0  0
  -31.6177  -16.1107   17.8377 C   0  0  0  0  0  0
  -28.3662  -22.4162   20.7358 N   0  0  0  0  0  0
  -29.9258  -15.7783   20.5216 N   0  0  0  0  0  0
  -30.9088  -17.0632   18.7111 N   0  3  0  0  0  0
  -28.0776  -23.7266   18.6966 O   0  0  0  0  0  0
  -31.4600  -12.4214   19.1527 H   0  0  0  0  0  0
  -30.3177  -11.3454   19.9074 H   0  0  0  0  0  0
  -29.7437  -11.7126   17.4794 H   0  0  0  0  0  0
  -29.6457  -13.4353   17.7428 H   0  0  0  0  0  0
  -27.8519  -11.2772   18.8844 H   0  0  0  0  0  0
  -27.3655  -12.5504   17.7968 H   0  0  0  0  0  0
  -27.6598  -14.2434   19.5029 H   0  0  0  0  0  0
  -28.6825  -12.0918   21.4254 H   0  0  0  0  0  0
  -28.4643  -13.7800   21.8108 H   0  0  0  0  0  0
  -25.2758   -9.5672   22.4796 H   0  0  0  0  0  0
  -24.0001   -7.4621   22.7463 H   0  0  0  0  0  0
  -21.0835   -8.8798   19.8979 H   0  0  0  0  0  0
  -22.3679  -10.9715   19.6219 H   0  0  0  0  0  0
  -21.2011   -7.6166   23.9752 H   0  0  0  0  0  0
  -21.1481   -6.0533   25.9100 H   0  0  0  0  0  0
  -22.0591   -2.7629   23.2860 H   0  0  0  0  0  0
  -22.4023  -11.9975   22.4887 H   0  0  0  0  0  0
  -21.1077  -13.1387   22.2573 H   0  0  0  0  0  0
  -24.6316  -15.8223   20.4759 H   0  0  0  0  0  0
  -26.2339  -15.6222   19.9862 H   0  0  0  0  0  0
  -26.7098  -32.5529   23.1130 H   0  0  0  0  0  0
  -25.0005  -33.9772   25.0420 H   0  0  0  0  0  0
  -22.6918  -31.3058   21.4046 H   0  0  0  0  0  0
  -23.3741  -35.9683   23.3270 H   0  0  0  0  0  0
  -24.3591  -36.8980   22.2051 H   0  0  0  0  0  0
  -23.7266  -37.6541   23.6664 H   0  0  0  0  0  0
  -26.0382  -31.5914   20.5856 H   0  0  0  0  0  0
  -26.8202  -30.8887   21.9749 H   0  0  0  0  0  0
  -28.1033  -29.0930   21.1672 H   0  0  0  0  0  0
  -26.0650  -25.9536   19.0373 H   0  0  0  0  0  0
  -23.9757  -27.2817   19.0431 H   0  0  0  0  0  0
  -23.7236  -30.5932   19.4006 H   0  0  0  0  0  0
  -22.7362  -29.2398   19.8655 H   0  0  0  0  0  0
  -25.1286  -36.1964   25.0812 H   0  0  0  0  0  0
  -20.9958  -28.3235   24.1427 H   0  0  0  0  0  0
  -20.5608  -26.2281   23.3617 H   0  0  0  0  0  0
  -21.6639  -26.7389   22.1262 H   0  0  0  0  0  0
  -19.6914  -25.6283   21.1228 H   0  0  0  0  0  0
  -19.6707  -27.3192   20.6737 H   0  0  0  0  0  0
  -17.4196  -26.6663   21.4003 H   0  0  0  0  0  0
  -18.0318  -26.0043   22.8989 H   0  0  0  0  0  0
  -19.7935  -30.7228   24.2293 H   0  0  0  0  0  0
  -17.5023  -31.6253   24.5169 H   0  0  0  0  0  0
  -15.5351  -30.2998   23.7626 H   0  0  0  0  0  0
  -15.8669  -28.0833   22.7032 H   0  0  0  0  0  0
  -24.5901  -30.7089   25.7873 H   0  0  0  0  0  0
  -24.8976  -32.2931   26.4906 H   0  0  0  0  0  0
  -25.8134  -30.8957   27.0237 H   0  0  0  0  0  0
  -26.2738  -29.6818   24.1091 H   0  0  0  0  0  0
  -27.3947  -29.7193   25.4504 H   0  0  0  0  0  0
  -27.8616  -30.4272   23.9206 H   0  0  0  0  0  0
  -27.2635  -33.3568   26.2085 H   0  0  0  0  0  0
  -28.3825  -32.6908   25.0276 H   0  0  0  0  0  0
  -28.0724  -31.8390   26.5329 H   0  0  0  0  0  0
  -28.2588  -38.0124   24.7507 H   0  0  0  0  0  0
  -28.1117  -36.2659   24.6210 H   0  0  0  0  0  0
  -27.2331  -37.1395   25.8844 H   0  0  0  0  0  0
  -20.9270  -29.8786   21.6976 H   0  0  0  0  0  0
  -26.0180  -38.2865   24.1433 H   0  0  0  0  0  0
  -30.0245  -18.2925   22.2769 H   0  0  0  0  0  0
  -28.8493  -18.6272   18.1338 H   0  0  0  0  0  0
  -29.3018  -20.6089   22.6396 H   0  0  0  0  0  0
  -28.1813  -20.9295   18.5050 H   0  0  0  0  0  0
  -28.0524  -23.0612   22.7496 H   0  0  0  0  0  0
  -29.7694  -23.0361   22.2277 H   0  0  0  0  0  0
  -29.3932  -25.7744   23.1232 H   0  0  0  0  0  0
  -28.0059  -26.8462   22.9127 H   0  0  0  0  0  0
  -29.5793  -27.2859   22.2404 H   0  0  0  0  0  0
  -31.7512  -16.5498   16.8486 H   0  0  0  0  0  0
  -31.0648  -15.1838   17.7050 H   0  0  0  0  0  0
  -32.6118  -15.8807   18.2243 H   0  0  0  0  0  0
  -29.0350  -15.8081   20.9865 H   0  0  0  0  0  0
  -30.9699  -18.0217   18.3925 H   0  0  0  0  0  0
  1 25  1  0  0  0
  1 30  2  0  0  0
  1 85  1  0  0  0
  2  3  1  0  0  0
  2 25  1  0  0  0
  2 88  1  0  0  0
  2 89  1  0  0  0
  3  4  1  0  0  0
  3 90  1  0  0  0
  3 91  1  0  0  0
  4  5  1  0  0  0
  4 92  1  0  0  0
  4 93  1  0  0  0
  5  6  1  0  0  0
  5 26  1  0  0  0
  5 94  1  0  0  0
  6 25  1  0  0  0
  6 95  1  0  0  0
  6 96  1  0  0  0
  7  8  2  0  0  0
  7 26  1  0  0  0
  7 29  1  0  0  0
  8  9  1  0  0  0
  8 22  1  0  0  0
  9 10  1  0  0  0
  9 27  2  0  0  0
 10 11  2  0  0  0
 10 15  1  0  0  0
 11 12  1  0  0  0
 11 97  1  0  0  0
 12 13  2  0  0  0
 12 98  1  0  0  0
 13 14  1  0  0  0
 13 31  1  0  0  0
 14 15  2  0  0  0
 14 99  1  0  0  0
 15100  1  0  0  0
 16 17  2  0  0  0
 16 21  1  0  0  0
 16 31  1  0  0  0
 17 18  1  0  0  0
 17101  1  0  0  0
 18 19  2  0  0  0
 18102  1  0  0  0
 19 20  1  0  0  0
 19 24  1  0  0  0
 20 21  2  0  0  0
 20103  1  0  0  0
 21 23  1  0  0  0
 22 28  1  0  0  0
 22 32  2  0  0  0
 26 27  1  0  0  0
 28104  1  0  0  0
 28105  1  0  0  0
 29106  1  0  0  0
 29107  1  0  0  0
 33 34  1  0  0  0
 33 66  1  0  0  0
 33 70  2  0  0  0
 34 36  1  0  0  0
 34 59  1  0  0  0
 34108  1  0  0  0
 35 44  2  0  0  0
 35 45  1  0  0  0
 35 68  1  0  0  0
 36 56  1  0  0  0
 36109  1  0  0  0
 37 39  1  0  0  0
 37 47  1  0  0  0
 37 66  1  0  0  0
 37110  1  0  0  0
 38 43  2  0  0  0
 38 46  1  0  0  0
 38 47  1  0  0  0
 39 64  1  0  0  0
 39 67  2  0  0  0
 40 52  1  0  0  0
 40 53  2  0  0  0
 40 58  1  0  0  0
 41111  1  0  0  0
 41112  1  0  0  0
 41113  1  0  0  0
 41 48  1  0  0  0
 42 43  1  0  0  0
 42 66  1  0  0  0
 42114  1  0  0  0
 42115  1  0  0  0
 43 44  1  0  0  0
 44116  1  0  0  0
 45 46  2  0  0  0
 45117  1  0  0  0
 46118  1  0  0  0
 47119  1  0  0  0
 47120  1  0  0  0
 48 56  1  0  0  0
 48 65  1  0  0  0
 48121  1  0  0  0
 49 50  1  0  0  0
 49 53  1  0  0  0
 49 64  1  0  0  0
 49122  1  0  0  0
 50 51  1  0  0  0
 50123  1  0  0  0
 50124  1  0  0  0
 51 52  1  0  0  0
 51125  1  0  0  0
 51126  1  0  0  0
 52127  1  0  0  0
 52128  1  0  0  0
 53 54  1  0  0  0
 54 55  2  0  0  0
 54129  1  0  0  0
 55 57  1  0  0  0
 55130  1  0  0  0
 56 69  2  0  0  0
 57 58  2  0  0  0
 57131  1  0  0  0
 58132  1  0  0  0
 59 60  1  0  0  0
 59 61  1  0  0  0
 59 62  1  0  0  0
 60133  1  0  0  0
 60134  1  0  0  0
 60135  1  0  0  0
 61136  1  0  0  0
 61137  1  0  0  0
 61138  1  0  0  0
 62139  1  0  0  0
 62140  1  0  0  0
 62141  1  0  0  0
 63 65  1  0  0  0
 63142  1  0  0  0
 63143  1  0  0  0
 63144  1  0  0  0
 64145  1  0  0  0
 65146  1  0  0  0
 68 80  1  0  0  0
 71 73  2  0  0  0
 71 75  1  0  0  0
 71147  1  0  0  0
 72 74  1  0  0  0
 72 75  2  0  0  0
 72148  1  0  0  0
 73 76  1  0  0  0
 73149  1  0  0  0
 74 76  2  0  0  0
 74150  1  0  0  0
 75 79  1  0  0  0
 76 84  1  0  0  0
 77 78  1  0  0  0
 77 80  2  0  0  0
 77 81  1  0  0  0
 78 84  1  0  0  0
 78 87  2  0  0  0
 79 85  1  0  0  0
 79 86  2  0  0  0
 80 82  1  0  0  0
 81 84  1  0  0  0
 81151  1  0  0  0
 81152  1  0  0  0
 82153  1  0  0  0
 82154  1  0  0  0
 82155  1  0  0  0
 83 86  1  0  0  0
 83156  1  0  0  0
 83157  1  0  0  0
 83158  1  0  0  0
 85159  1  0  0  0
 86160  1  0  0  0
M  CHG  1  86   1
M  ISO  4   1 100  68 101  80 101  85 100
M  END
> <chiral flag>
0

> <version>
0

> <s_m_source_file>
/data/baiqing/PycharmProjects/Reinvent-master-3.2/result/LINK_invent/BTK/process_docking_weight1_custom_product_contain_oxygen_bond_distance_aromatic_linkinvent_7_9_3/rearranged_h_0074.sdf

> <i_m_source_file_index>
26

> <r_mmod_Potential_Energy-OPLS-2005>
-50.7956199645996

> <r_mmod_Stretch_Energy-OPLS-2005>
45.0117797851562

> <r_mmod_Bend_Energy-OPLS-2005>
200.698089599609

> <r_mmod_Torsional_Energy-OPLS-2005>
278.564544677734

> <r_mmod_Improper_Torsional_Energy-OPLS-2005>
12.2658567428589

> <r_mmod_Van_der_Waal_Energy-OPLS-2005>
144.907897949219

> <r_mmod_Electrostatic_Energy-OPLS-2005>
-342.169647216797

> <r_mmod_Solvation_Energy-OPLS-2005>
-418.181976318359

> <b_mmod_Minimization_Converged-OPLS-2005>
0

> <r_mmod_RMS_Derivative-OPLS-2005>
2.51459813117981

$$$$
27
                    3D
 Structure written by MMmdl.
160169  0  0  1  0            999 V2000
  -30.5982  -14.7694   20.5163 C   0  0  0  0  0  0
  -30.4439  -12.4954   19.4530 C   0  0  0  0  0  0
  -29.5085  -12.5239   18.2222 C   0  0  0  0  0  0
  -28.0309  -12.3487   18.6323 C   0  0  0  0  0  0
  -27.6416  -13.2224   19.8535 C   0  0  2  0  0  0
  -28.6897  -13.0803   20.9709 C   0  0  0  0  0  0
  -25.2479  -13.8124   20.5587 C   0  0  0  0  0  0
  -24.1777  -13.0395   20.9176 C   0  0  0  0  0  0
  -24.6384  -11.6879   20.8762 C   0  0  0  0  0  0
  -23.9051  -10.4268   21.0415 C   0  0  0  0  0  0
  -24.3606   -9.4178   21.9192 C   0  0  0  0  0  0
  -23.6279   -8.2225   22.0765 C   0  0  0  0  0  0
  -22.4267   -8.0273   21.3556 C   0  0  0  0  0  0
  -21.9889   -9.0242   20.4662 C   0  0  0  0  0  0
  -22.7219  -10.2113   20.3064 C   0  0  0  0  0  0
  -21.6844   -6.0727   22.5283 C   0  0  0  0  0  0
  -21.4011   -6.5630   23.8215 C   0  0  0  0  0  0
  -21.3642   -5.6788   24.9174 C   0  0  0  0  0  0
  -21.6036   -4.3052   24.7227 C   0  0  0  0  0  0
  -21.8822   -3.8135   23.4351 C   0  0  0  0  0  0
  -21.9193   -4.6957   22.3401 C   0  0  0  0  0  0
  -22.7807  -13.5214   21.1829 C   0  0  0  0  0  0
  -22.1678   -4.2147   21.0982 F   0  0  0  0  0  0
  -21.5617   -3.4537   25.7737 F   0  0  0  0  0  0
  -29.9737  -13.5342   20.4058 N   0  0  0  0  0  0
  -26.2934  -12.9327   20.3284 N   0  0  0  0  0  0
  -25.9310  -11.6481   20.5774 N   0  0  0  0  0  0
  -22.0439  -12.8256   22.0408 N   0  0  0  0  0  0
  -25.4104  -15.1820   20.3802 N   0  0  0  0  0  0
  -31.7895  -14.8294   20.1858 O   0  0  0  0  0  0
  -21.6635   -6.8872   21.4246 O   0  0  0  0  0  0
  -22.3487  -14.5508   20.6646 O   0  0  0  0  0  0
  -24.6298  -31.8549   23.1972 C   0  0  0  0  0  0
  -25.9133  -32.4742   23.8310 C   0  0  1  0  0  0
  -27.2288  -27.2727   20.1351 C   0  0  0  0  0  0
  -25.5948  -33.8539   24.2254 N   0  0  0  0  0  0
  -23.4259  -30.4741   21.5400 C   0  0  2  0  0  0
  -24.8749  -28.9096   20.1203 C   0  0  0  0  0  0
  -22.7493  -29.4592   22.4926 C   0  0  0  0  0  0
  -18.0292  -28.1385   22.8475 C   0  0  0  0  0  0
  -24.1486  -36.7260   23.2639 C   0  0  0  0  0  0
  -25.9679  -30.7738   21.3700 C   0  0  0  0  0  0
  -26.0454  -29.3921   20.7208 C   0  0  0  0  0  0
  -27.2276  -28.5870   20.7093 C   0  0  0  0  0  0
  -26.0340  -26.8403   19.5278 C   0  0  0  0  0  0
  -24.8725  -27.6415   19.5136 C   0  0  0  0  0  0
  -23.6453  -29.7983   20.1592 C   0  0  0  0  0  0
  -25.4115  -36.3049   24.0327 C   0  0  1  0  0  0
  -20.5890  -28.3682   23.1274 C   0  0  2  0  0  0
  -20.6770  -26.9394   22.5419 C   0  0  0  0  0  0
  -19.5753  -26.6376   21.5204 C   0  0  0  0  0  0
  -18.1930  -26.7937   22.1607 C   0  0  0  0  0  0
  -19.1541  -28.8856   23.2865 C   0  0  0  0  0  0
  -18.9469  -30.1458   23.8876 C   0  0  0  0  0  0
  -17.6467  -30.6580   24.0561 C   0  0  0  0  0  0
  -25.9056  -34.9426   23.5096 C   0  0  0  0  0  0
  -16.5361  -29.9074   23.6333 C   0  0  0  0  0  0
  -16.7277  -28.6499   23.0344 C   0  0  0  0  0  0
  -26.4525  -31.6562   25.0690 C   0  0  0  0  0  0
  -25.3768  -31.3738   26.1432 C   0  0  0  0  0  0
  -27.0336  -30.2965   24.6162 C   0  0  0  0  0  0
  -27.6093  -32.4285   25.7455 C   0  0  0  0  0  0
  -27.5581  -37.1786   24.8465 C   0  0  0  0  0  0
  -21.4201  -29.3025   22.3666 N   0  0  0  0  0  0
  -26.4285  -37.3754   23.9421 N   0  0  0  0  0  0
  -24.6935  -31.0517   22.0930 N   0  0  0  0  0  0
  -23.4199  -28.8159   23.3032 O   0  0  0  0  0  0
  -28.3549  -26.4298   20.0907 O   0  0  0  0  0  0
  -26.5605  -34.8905   22.4640 O   0  0  0  0  0  0
  -23.5455  -32.1350   23.7282 O   0  0  0  0  0  0
  -31.2767  -18.7248   18.5440 C   0  0  0  0  0  0
  -30.6379  -19.9057   18.9617 C   0  0  0  0  0  0
  -30.9591  -17.4696   19.1027 C   0  0  0  0  0  0
  -29.3553  -18.5701   20.5390 C   0  0  0  0  0  0
  -29.6191  -19.8716   19.9329 C   0  0  0  0  0  0
  -30.0335  -17.3165   20.1672 C   0  0  0  0  0  0
  -27.6544  -21.3710   19.6339 C   0  0  0  0  0  0
  -27.9013  -16.3755   22.2140 C   0  0  0  0  0  0
  -29.1497  -15.9172   22.0144 C   0  0  0  0  0  0
  -27.2845  -22.8682   19.5422 C   0  0  0  0  0  0
  -29.4584  -22.4988   20.4714 C   0  0  0  0  0  0
  -28.5630  -23.6764   19.8532 C   0  0  2  0  0  0
  -28.3232  -25.0533   20.6887 C   0  0  0  0  0  0
  -28.8765  -21.1438   20.1576 N   0  0  0  0  0  0
  -29.8666  -15.9480   20.8072 N   0  0  0  0  0  0
  -26.8673  -20.4946   19.2647 O   0  0  0  0  0  0
  -29.2366  -24.0844   18.6667 O   0  0  0  0  0  0
  -31.4743  -12.6594   19.1330 H   0  0  0  0  0  0
  -30.4415  -11.5101   19.9222 H   0  0  0  0  0  0
  -29.7946  -11.7443   17.5150 H   0  0  0  0  0  0
  -29.6332  -13.4695   17.6937 H   0  0  0  0  0  0
  -27.8806  -11.2958   18.8737 H   0  0  0  0  0  0
  -27.3758  -12.5633   17.7868 H   0  0  0  0  0  0
  -27.6534  -14.2589   19.5154 H   0  0  0  0  0  0
  -28.7574  -12.0378   21.2807 H   0  0  0  0  0  0
  -28.3874  -13.6015   21.8725 H   0  0  0  0  0  0
  -25.2734   -9.5650   22.4794 H   0  0  0  0  0  0
  -23.9974   -7.4596   22.7469 H   0  0  0  0  0  0
  -21.0823   -8.8740   19.8977 H   0  0  0  0  0  0
  -22.3653  -10.9659   19.6190 H   0  0  0  0  0  0
  -21.2016   -7.6141   23.9717 H   0  0  0  0  0  0
  -21.1463   -6.0520   25.9078 H   0  0  0  0  0  0
  -22.0618   -2.7606   23.2856 H   0  0  0  0  0  0
  -22.4025  -11.9939   22.4874 H   0  0  0  0  0  0
  -21.1068  -13.1329   22.2610 H   0  0  0  0  0  0
  -24.6447  -15.8404   20.4631 H   0  0  0  0  0  0
  -26.2673  -15.6043   20.0494 H   0  0  0  0  0  0
  -26.7199  -32.5426   23.1051 H   0  0  0  0  0  0
  -25.0169  -33.9666   25.0454 H   0  0  0  0  0  0
  -22.7193  -31.2934   21.3893 H   0  0  0  0  0  0
  -23.3747  -35.9584   23.3291 H   0  0  0  0  0  0
  -24.3597  -36.8896   22.2059 H   0  0  0  0  0  0
  -23.7237  -37.6465   23.6658 H   0  0  0  0  0  0
  -26.0959  -31.5314   20.5951 H   0  0  0  0  0  0
  -26.8477  -30.8311   21.9998 H   0  0  0  0  0  0
  -28.1334  -28.9583   21.1680 H   0  0  0  0  0  0
  -26.0001  -25.8665   19.0600 H   0  0  0  0  0  0
  -23.9744  -27.2681   19.0411 H   0  0  0  0  0  0
  -23.7692  -30.5661   19.3941 H   0  0  0  0  0  0
  -22.7633  -29.2289   19.8615 H   0  0  0  0  0  0
  -25.1287  -36.1896   25.0817 H   0  0  0  0  0  0
  -20.9981  -28.3269   24.1394 H   0  0  0  0  0  0
  -20.5639  -26.2285   23.3618 H   0  0  0  0  0  0
  -21.6652  -26.7400   22.1239 H   0  0  0  0  0  0
  -19.6902  -25.6282   21.1238 H   0  0  0  0  0  0
  -19.6707  -27.3179   20.6727 H   0  0  0  0  0  0
  -17.4209  -26.6689   21.4007 H   0  0  0  0  0  0
  -18.0305  -26.0076   22.8994 H   0  0  0  0  0  0
  -19.7951  -30.7279   24.2231 H   0  0  0  0  0  0
  -17.5026  -31.6264   24.5157 H   0  0  0  0  0  0
  -15.5362  -30.2958   23.7678 H   0  0  0  0  0  0
  -15.8685  -28.0814   22.7052 H   0  0  0  0  0  0
  -24.5987  -30.7000   25.7838 H   0  0  0  0  0  0
  -24.8900  -32.2903   26.4763 H   0  0  0  0  0  0
  -25.8123  -30.9055   27.0265 H   0  0  0  0  0  0
  -26.2894  -29.6726   24.1197 H   0  0  0  0  0  0
  -27.4035  -29.7218   25.4671 H   0  0  0  0  0  0
  -27.8762  -30.4223   23.9353 H   0  0  0  0  0  0
  -27.2721  -33.3593   26.2014 H   0  0  0  0  0  0
  -28.3906  -32.6836   25.0284 H   0  0  0  0  0  0
  -28.0732  -31.8419   26.5399 H   0  0  0  0  0  0
  -28.2602  -38.0082   24.7497 H   0  0  0  0  0  0
  -28.1078  -36.2619   24.6279 H   0  0  0  0  0  0
  -27.2306  -37.1420   25.8872 H   0  0  0  0  0  0
  -20.9375  -29.8743   21.6880 H   0  0  0  0  0  0
  -26.0162  -38.2823   24.1436 H   0  0  0  0  0  0
  -32.0236  -18.7769   17.7644 H   0  0  0  0  0  0
  -30.8986  -20.8376   18.4811 H   0  0  0  0  0  0
  -31.4878  -16.6256   18.6894 H   0  0  0  0  0  0
  -28.6048  -18.5799   21.3106 H   0  0  0  0  0  0
  -27.4402  -16.3080   23.1892 H   0  0  0  0  0  0
  -27.3153  -16.8144   21.4215 H   0  0  0  0  0  0
  -29.7082  -15.4734   22.8298 H   0  0  0  0  0  0
  -26.5080  -23.0560   20.2837 H   0  0  0  0  0  0
  -26.8682  -23.1118   18.5640 H   0  0  0  0  0  0
  -29.4523  -22.5849   21.5584 H   0  0  0  0  0  0
  -30.5064  -22.5727   20.1772 H   0  0  0  0  0  0
  -29.1223  -25.0878   21.4279 H   0  0  0  0  0  0
  -27.4229  -24.9511   21.2947 H   0  0  0  0  0  0
  -29.4314  -23.3167   18.1418 H   0  0  0  0  0  0
  1 25  1  0  0  0
  1 30  2  0  0  0
  1 85  1  0  0  0
  2  3  1  0  0  0
  2 25  1  0  0  0
  2 88  1  0  0  0
  2 89  1  0  0  0
  3  4  1  0  0  0
  3 90  1  0  0  0
  3 91  1  0  0  0
  4  5  1  0  0  0
  4 92  1  0  0  0
  4 93  1  0  0  0
  5  6  1  0  0  0
  5 26  1  0  0  0
  5 94  1  0  0  0
  6 25  1  0  0  0
  6 95  1  0  0  0
  6 96  1  0  0  0
  7  8  2  0  0  0
  7 26  1  0  0  0
  7 29  1  0  0  0
  8  9  1  0  0  0
  8 22  1  0  0  0
  9 10  1  0  0  0
  9 27  2  0  0  0
 10 11  2  0  0  0
 10 15  1  0  0  0
 11 12  1  0  0  0
 11 97  1  0  0  0
 12 13  2  0  0  0
 12 98  1  0  0  0
 13 14  1  0  0  0
 13 31  1  0  0  0
 14 15  2  0  0  0
 14 99  1  0  0  0
 15100  1  0  0  0
 16 17  2  0  0  0
 16 21  1  0  0  0
 16 31  1  0  0  0
 17 18  1  0  0  0
 17101  1  0  0  0
 18 19  2  0  0  0
 18102  1  0  0  0
 19 20  1  0  0  0
 19 24  1  0  0  0
 20 21  2  0  0  0
 20103  1  0  0  0
 21 23  1  0  0  0
 22 28  1  0  0  0
 22 32  2  0  0  0
 26 27  1  0  0  0
 28104  1  0  0  0
 28105  1  0  0  0
 29106  1  0  0  0
 29107  1  0  0  0
 33 34  1  0  0  0
 33 66  1  0  0  0
 33 70  2  0  0  0
 34 36  1  0  0  0
 34 59  1  0  0  0
 34108  1  0  0  0
 35 44  2  0  0  0
 35 45  1  0  0  0
 35 68  1  0  0  0
 36 56  1  0  0  0
 36109  1  0  0  0
 37 39  1  0  0  0
 37 47  1  0  0  0
 37 66  1  0  0  0
 37110  1  0  0  0
 38 43  2  0  0  0
 38 46  1  0  0  0
 38 47  1  0  0  0
 39 64  1  0  0  0
 39 67  2  0  0  0
 40 52  1  0  0  0
 40 53  2  0  0  0
 40 58  1  0  0  0
 41111  1  0  0  0
 41112  1  0  0  0
 41113  1  0  0  0
 41 48  1  0  0  0
 42 43  1  0  0  0
 42 66  1  0  0  0
 42114  1  0  0  0
 42115  1  0  0  0
 43 44  1  0  0  0
 44116  1  0  0  0
 45 46  2  0  0  0
 45117  1  0  0  0
 46118  1  0  0  0
 47119  1  0  0  0
 47120  1  0  0  0
 48 56  1  0  0  0
 48 65  1  0  0  0
 48121  1  0  0  0
 49 50  1  0  0  0
 49 53  1  0  0  0
 49 64  1  0  0  0
 49122  1  0  0  0
 50 51  1  0  0  0
 50123  1  0  0  0
 50124  1  0  0  0
 51 52  1  0  0  0
 51125  1  0  0  0
 51126  1  0  0  0
 52127  1  0  0  0
 52128  1  0  0  0
 53 54  1  0  0  0
 54 55  2  0  0  0
 54129  1  0  0  0
 55 57  1  0  0  0
 55130  1  0  0  0
 56 69  2  0  0  0
 57 58  2  0  0  0
 57131  1  0  0  0
 58132  1  0  0  0
 59 60  1  0  0  0
 59 61  1  0  0  0
 59 62  1  0  0  0
 60133  1  0  0  0
 60134  1  0  0  0
 60135  1  0  0  0
 61136  1  0  0  0
 61137  1  0  0  0
 61138  1  0  0  0
 62139  1  0  0  0
 62140  1  0  0  0
 62141  1  0  0  0
 63 65  1  0  0  0
 63142  1  0  0  0
 63143  1  0  0  0
 63144  1  0  0  0
 64145  1  0  0  0
 65146  1  0  0  0
 68 83  1  0  0  0
 71 72  2  0  0  0
 71 73  1  0  0  0
 71147  1  0  0  0
 72 75  1  0  0  0
 72148  1  0  0  0
 73 76  2  0  0  0
 73149  1  0  0  0
 74 75  2  0  0  0
 74 76  1  0  0  0
 74150  1  0  0  0
 75 84  1  0  0  0
 76 85  1  0  0  0
 77 80  1  0  0  0
 77 84  1  0  0  0
 77 86  2  0  0  0
 78 79  2  0  0  0
 78151  1  0  0  0
 78152  1  0  0  0
 79 85  1  0  0  0
 79153  1  0  0  0
 80 82  1  0  0  0
 80154  1  0  0  0
 80155  1  0  0  0
 81 82  1  0  0  0
 81 84  1  0  0  0
 81156  1  0  0  0
 81157  1  0  0  0
 82 83  1  0  0  0
 82 87  1  0  0  0
 83158  1  0  0  0
 83159  1  0  0  0
 87160  1  0  0  0
M  ISO  4   1 100  68 101  83 101  85 100
M  END
> <chiral flag>
0

> <version>
0

> <s_m_source_file>
/data/baiqing/PycharmProjects/Reinvent-master-3.2/result/LINK_invent/BTK/process_docking_weight1_custom_product_contain_oxygen_bond_distance_aromatic_linkinvent_7_9_3/rearranged_h_0074.sdf

> <i_m_source_file_index>
27

> <r_mmod_Potential_Energy-OPLS-2005>
535.671630859375

> <r_mmod_Stretch_Energy-OPLS-2005>
143.394668579102

> <r_mmod_Bend_Energy-OPLS-2005>
208.400741577148

> <r_mmod_Torsional_Energy-OPLS-2005>
433.682830810547

> <r_mmod_Improper_Torsional_Energy-OPLS-2005>
5.92257738113403

> <r_mmod_Van_der_Waal_Energy-OPLS-2005>
150.18603515625

> <r_mmod_Electrostatic_Energy-OPLS-2005>
-253.264450073242

> <r_mmod_Solvation_Energy-OPLS-2005>
-230.618682861328

> <b_mmod_Minimization_Converged-OPLS-2005>
0

> <r_mmod_RMS_Derivative-OPLS-2005>
2.87125325202942

$$$$
28
                    3D
 Structure written by MMmdl.
158167  0  0  1  0            999 V2000
  -30.5896  -14.7938   20.4366 C   0  0  0  0  0  0
  -30.4304  -12.4802   19.4957 C   0  0  0  0  0  0
  -29.5156  -12.5136   18.2498 C   0  0  0  0  0  0
  -28.0422  -12.3334   18.6603 C   0  0  0  0  0  0
  -27.6384  -13.2398   19.8542 C   0  0  2  0  0  0
  -28.6788  -13.1934   20.9947 C   0  0  0  0  0  0
  -25.2493  -13.8216   20.5743 C   0  0  0  0  0  0
  -24.1782  -13.0445   20.9226 C   0  0  0  0  0  0
  -24.6387  -11.6922   20.8750 C   0  0  0  0  0  0
  -23.9070  -10.4294   21.0417 C   0  0  0  0  0  0
  -24.3618   -9.4201   21.9189 C   0  0  0  0  0  0
  -23.6286   -8.2243   22.0749 C   0  0  0  0  0  0
  -22.4268   -8.0287   21.3548 C   0  0  0  0  0  0
  -21.9907   -9.0268   20.4654 C   0  0  0  0  0  0
  -22.7246  -10.2139   20.3063 C   0  0  0  0  0  0
  -21.6853   -6.0742   22.5285 C   0  0  0  0  0  0
  -21.4020   -6.5637   23.8226 C   0  0  0  0  0  0
  -21.3660   -5.6790   24.9181 C   0  0  0  0  0  0
  -21.6041   -4.3053   24.7234 C   0  0  0  0  0  0
  -21.8816   -3.8142   23.4352 C   0  0  0  0  0  0
  -21.9195   -4.6964   22.3406 C   0  0  0  0  0  0
  -22.7807  -13.5232   21.1886 C   0  0  0  0  0  0
  -22.1659   -4.2149   21.0986 F   0  0  0  0  0  0
  -21.5622   -3.4537   25.7743 F   0  0  0  0  0  0
  -29.9767  -13.5549   20.4165 N   0  0  0  0  0  0
  -26.2919  -12.9436   20.3297 N   0  0  0  0  0  0
  -25.9321  -11.6569   20.5743 N   0  0  0  0  0  0
  -22.0442  -12.8229   22.0441 N   0  0  0  0  0  0
  -25.4211  -15.1949   20.4237 N   0  0  0  0  0  0
  -31.7817  -14.8614   20.1200 O   0  0  0  0  0  0
  -21.6634   -6.8884   21.4246 O   0  0  0  0  0  0
  -22.3504  -14.5545   20.6738 O   0  0  0  0  0  0
  -24.6381  -31.8511   23.1947 C   0  0  0  0  0  0
  -25.9180  -32.4731   23.8305 C   0  0  1  0  0  0
  -27.2004  -27.2035   20.1338 C   0  0  0  0  0  0
  -25.5949  -33.8534   24.2223 N   0  0  0  0  0  0
  -23.4359  -30.4757   21.5393 C   0  0  2  0  0  0
  -24.8797  -28.9206   20.1054 C   0  0  0  0  0  0
  -22.7535  -29.4587   22.4873 C   0  0  0  0  0  0
  -18.0305  -28.1400   22.8473 C   0  0  0  0  0  0
  -24.1493  -36.7277   23.2631 C   0  0  0  0  0  0
  -25.9872  -30.7470   21.3822 C   0  0  0  0  0  0
  -26.0562  -29.3667   20.7206 C   0  0  0  0  0  0
  -27.2207  -28.5226   20.7203 C   0  0  0  0  0  0
  -26.0005  -26.8467   19.4789 C   0  0  0  0  0  0
  -24.8599  -27.6709   19.4713 C   0  0  0  0  0  0
  -23.6558  -29.8155   20.1539 C   0  0  0  0  0  0
  -25.4114  -36.3050   24.0317 C   0  0  1  0  0  0
  -20.5910  -28.3718   23.1245 C   0  0  2  0  0  0
  -20.6796  -26.9430   22.5396 C   0  0  0  0  0  0
  -19.5767  -26.6383   21.5207 C   0  0  0  0  0  0
  -18.1952  -26.7935   22.1628 C   0  0  0  0  0  0
  -19.1559  -28.8876   23.2853 C   0  0  0  0  0  0
  -18.9475  -30.1475   23.8881 C   0  0  0  0  0  0
  -17.6470  -30.6592   24.0565 C   0  0  0  0  0  0
  -25.9066  -34.9425   23.5076 C   0  0  0  0  0  0
  -16.5365  -29.9088   23.6335 C   0  0  0  0  0  0
  -16.7287  -28.6512   23.0346 C   0  0  0  0  0  0
  -26.4512  -31.6577   25.0725 C   0  0  0  0  0  0
  -25.3708  -31.3763   26.1430 C   0  0  0  0  0  0
  -27.0350  -30.2976   24.6258 C   0  0  0  0  0  0
  -27.6066  -32.4313   25.7503 C   0  0  0  0  0  0
  -27.5583  -37.1776   24.8443 C   0  0  0  0  0  0
  -21.4234  -29.3053   22.3622 N   0  0  0  0  0  0
  -26.4274  -37.3761   23.9423 N   0  0  0  0  0  0
  -24.7071  -31.0429   22.0946 N   0  0  0  0  0  0
  -23.4211  -28.8121   23.2989 O   0  0  0  0  0  0
  -28.2563  -26.2466   20.2130 O   0  0  0  0  0  0
  -26.5645  -34.8911   22.4649 O   0  0  0  0  0  0
  -23.5520  -32.1352   23.7210 O   0  0  0  0  0  0
  -30.3480  -19.8348   18.6936 C   0  0  0  0  0  0
  -30.6834  -17.4179   18.8323 C   0  0  0  0  0  0
  -29.4534  -18.6204   20.5538 C   0  0  0  0  0  0
  -30.8545  -18.6332   18.1501 C   0  0  0  0  0  0
  -29.6230  -19.9413   19.9091 C   0  0  0  0  0  0
  -29.9930  -17.3372   20.0579 C   0  0  0  0  0  0
  -28.1876  -22.0904   20.9147 C   0  0  0  0  0  0
  -31.5696  -18.6223   16.8525 C   0  0  0  0  0  0
  -29.6008  -22.5471   19.4944 C   0  0  0  0  0  0
  -28.8900  -23.5024   20.5290 C   0  0  2  0  0  0
  -29.7159  -23.9821   21.7251 C   0  0  0  0  0  0
  -27.9358  -24.7562   20.0630 C   0  0  0  0  0  0
  -31.7159  -19.6180   16.0842 N   0  0  0  0  0  0
  -29.2243  -21.3540   20.2927 N   0  0  0  0  0  0
  -29.8318  -15.9585   20.6468 N   0  0  0  0  0  0
  -27.1628  -21.7241   21.4502 O   0  0  0  0  0  0
  -31.4734  -12.5996   19.1974 H   0  0  0  0  0  0
  -30.3748  -11.5079   19.9874 H   0  0  0  0  0  0
  -29.8024  -11.7317   17.5448 H   0  0  0  0  0  0
  -29.6413  -13.4629   17.7262 H   0  0  0  0  0  0
  -27.9042  -11.2863   18.9309 H   0  0  0  0  0  0
  -27.3865  -12.5184   17.8084 H   0  0  0  0  0  0
  -27.6274  -14.2576   19.4646 H   0  0  0  0  0  0
  -28.7200  -12.1988   21.4410 H   0  0  0  0  0  0
  -28.4069  -13.8791   21.7987 H   0  0  0  0  0  0
  -25.2760   -9.5667   22.4770 H   0  0  0  0  0  0
  -23.9997   -7.4624   22.7453 H   0  0  0  0  0  0
  -21.0837   -8.8790   19.8961 H   0  0  0  0  0  0
  -22.3704  -10.9683   19.6170 H   0  0  0  0  0  0
  -21.2011   -7.6149   23.9724 H   0  0  0  0  0  0
  -21.1486   -6.0523   25.9088 H   0  0  0  0  0  0
  -22.0592   -2.7609   23.2856 H   0  0  0  0  0  0
  -22.4041  -11.9888   22.4849 H   0  0  0  0  0  0
  -21.1064  -13.1262   22.2643 H   0  0  0  0  0  0
  -24.6582  -15.8514   20.5499 H   0  0  0  0  0  0
  -26.2749  -15.6393   20.1120 H   0  0  0  0  0  0
  -26.7252  -32.5353   23.1043 H   0  0  0  0  0  0
  -25.0065  -33.9647   25.0353 H   0  0  0  0  0  0
  -22.7359  -31.3007   21.3934 H   0  0  0  0  0  0
  -23.3759  -35.9600   23.3239 H   0  0  0  0  0  0
  -24.3605  -36.8959   22.2058 H   0  0  0  0  0  0
  -23.7232  -37.6455   23.6694 H   0  0  0  0  0  0
  -26.1333  -31.5061   20.6129 H   0  0  0  0  0  0
  -26.8634  -30.7939   22.0170 H   0  0  0  0  0  0
  -28.1184  -28.8552   21.2225 H   0  0  0  0  0  0
  -25.9013  -25.8947   18.9804 H   0  0  0  0  0  0
  -23.9607  -27.3263   18.9798 H   0  0  0  0  0  0
  -23.7879  -30.5948   19.4024 H   0  0  0  0  0  0
  -22.7708  -29.2569   19.8439 H   0  0  0  0  0  0
  -25.1288  -36.1874   25.0802 H   0  0  0  0  0  0
  -21.0002  -28.3306   24.1365 H   0  0  0  0  0  0
  -20.5708  -26.2326   23.3604 H   0  0  0  0  0  0
  -21.6664  -26.7451   22.1187 H   0  0  0  0  0  0
  -19.6932  -25.6286   21.1260 H   0  0  0  0  0  0
  -19.6707  -27.3177   20.6722 H   0  0  0  0  0  0
  -17.4211  -26.6659   21.4045 H   0  0  0  0  0  0
  -18.0370  -26.0093   22.9045 H   0  0  0  0  0  0
  -19.7947  -30.7300   24.2241 H   0  0  0  0  0  0
  -17.5021  -31.6272   24.5169 H   0  0  0  0  0  0
  -15.5366  -30.2987   23.7660 H   0  0  0  0  0  0
  -15.8690  -28.0827   22.7060 H   0  0  0  0  0  0
  -24.5861  -30.7145   25.7744 H   0  0  0  0  0  0
  -24.8935  -32.2954   26.4843 H   0  0  0  0  0  0
  -25.7994  -30.8926   27.0217 H   0  0  0  0  0  0
  -26.2947  -29.6727   24.1253 H   0  0  0  0  0  0
  -27.3958  -29.7246   25.4809 H   0  0  0  0  0  0
  -27.8860  -30.4215   23.9559 H   0  0  0  0  0  0
  -27.2684  -33.3624   26.2059 H   0  0  0  0  0  0
  -28.3899  -32.6850   25.0348 H   0  0  0  0  0  0
  -28.0707  -31.8448   26.5441 H   0  0  0  0  0  0
  -28.2529  -38.0142   24.7581 H   0  0  0  0  0  0
  -28.1154  -36.2680   24.6144 H   0  0  0  0  0  0
  -27.2324  -37.1266   25.8847 H   0  0  0  0  0  0
  -20.9428  -29.8772   21.6819 H   0  0  0  0  0  0
  -26.0139  -38.2815   24.1484 H   0  0  0  0  0  0
  -30.5356  -20.7260   18.1191 H   0  0  0  0  0  0
  -31.0795  -16.5236   18.3719 H   0  0  0  0  0  0
  -28.9033  -18.5961   21.4850 H   0  0  0  0  0  0
  -31.9949  -17.6613   16.5500 H   0  0  0  0  0  0
  -30.6778  -22.7057   19.4145 H   0  0  0  0  0  0
  -29.1284  -22.5592   18.5079 H   0  0  0  0  0  0
  -30.3242  -23.1855   22.1542 H   0  0  0  0  0  0
  -29.0764  -24.3646   22.5206 H   0  0  0  0  0  0
  -30.3956  -24.7836   21.4373 H   0  0  0  0  0  0
  -26.9780  -24.6062   20.5625 H   0  0  0  0  0  0
  -27.7199  -24.6130   19.0035 H   0  0  0  0  0  0
  -31.2743  -20.4471   16.4636 H   0  0  0  0  0  0
  -28.9559  -15.7967   21.1214 H   0  0  0  0  0  0
  1 25  1  0  0  0
  1 30  2  0  0  0
  1 85  1  0  0  0
  2  3  1  0  0  0
  2 25  1  0  0  0
  2 87  1  0  0  0
  2 88  1  0  0  0
  3  4  1  0  0  0
  3 89  1  0  0  0
  3 90  1  0  0  0
  4  5  1  0  0  0
  4 91  1  0  0  0
  4 92  1  0  0  0
  5  6  1  0  0  0
  5 26  1  0  0  0
  5 93  1  0  0  0
  6 25  1  0  0  0
  6 94  1  0  0  0
  6 95  1  0  0  0
  7  8  2  0  0  0
  7 26  1  0  0  0
  7 29  1  0  0  0
  8  9  1  0  0  0
  8 22  1  0  0  0
  9 10  1  0  0  0
  9 27  2  0  0  0
 10 11  2  0  0  0
 10 15  1  0  0  0
 11 12  1  0  0  0
 11 96  1  0  0  0
 12 13  2  0  0  0
 12 97  1  0  0  0
 13 14  1  0  0  0
 13 31  1  0  0  0
 14 15  2  0  0  0
 14 98  1  0  0  0
 15 99  1  0  0  0
 16 17  2  0  0  0
 16 21  1  0  0  0
 16 31  1  0  0  0
 17 18  1  0  0  0
 17100  1  0  0  0
 18 19  2  0  0  0
 18101  1  0  0  0
 19 20  1  0  0  0
 19 24  1  0  0  0
 20 21  2  0  0  0
 20102  1  0  0  0
 21 23  1  0  0  0
 22 28  1  0  0  0
 22 32  2  0  0  0
 26 27  1  0  0  0
 28103  1  0  0  0
 28104  1  0  0  0
 29105  1  0  0  0
 29106  1  0  0  0
 33 34  1  0  0  0
 33 66  1  0  0  0
 33 70  2  0  0  0
 34 36  1  0  0  0
 34 59  1  0  0  0
 34107  1  0  0  0
 35 44  2  0  0  0
 35 45  1  0  0  0
 35 68  1  0  0  0
 36 56  1  0  0  0
 36108  1  0  0  0
 37 39  1  0  0  0
 37 47  1  0  0  0
 37 66  1  0  0  0
 37109  1  0  0  0
 38 43  2  0  0  0
 38 46  1  0  0  0
 38 47  1  0  0  0
 39 64  1  0  0  0
 39 67  2  0  0  0
 40 52  1  0  0  0
 40 53  2  0  0  0
 40 58  1  0  0  0
 41110  1  0  0  0
 41111  1  0  0  0
 41112  1  0  0  0
 41 48  1  0  0  0
 42 43  1  0  0  0
 42 66  1  0  0  0
 42113  1  0  0  0
 42114  1  0  0  0
 43 44  1  0  0  0
 44115  1  0  0  0
 45 46  2  0  0  0
 45116  1  0  0  0
 46117  1  0  0  0
 47118  1  0  0  0
 47119  1  0  0  0
 48 56  1  0  0  0
 48 65  1  0  0  0
 48120  1  0  0  0
 49 50  1  0  0  0
 49 53  1  0  0  0
 49 64  1  0  0  0
 49121  1  0  0  0
 50 51  1  0  0  0
 50122  1  0  0  0
 50123  1  0  0  0
 51 52  1  0  0  0
 51124  1  0  0  0
 51125  1  0  0  0
 52126  1  0  0  0
 52127  1  0  0  0
 53 54  1  0  0  0
 54 55  2  0  0  0
 54128  1  0  0  0
 55 57  1  0  0  0
 55129  1  0  0  0
 56 69  2  0  0  0
 57 58  2  0  0  0
 57130  1  0  0  0
 58131  1  0  0  0
 59 60  1  0  0  0
 59 61  1  0  0  0
 59 62  1  0  0  0
 60132  1  0  0  0
 60133  1  0  0  0
 60134  1  0  0  0
 61135  1  0  0  0
 61136  1  0  0  0
 61137  1  0  0  0
 62138  1  0  0  0
 62139  1  0  0  0
 62140  1  0  0  0
 63 65  1  0  0  0
 63141  1  0  0  0
 63142  1  0  0  0
 63143  1  0  0  0
 64144  1  0  0  0
 65145  1  0  0  0
 68 82  1  0  0  0
 71 74  2  0  0  0
 71 75  1  0  0  0
 71146  1  0  0  0
 72 74  1  0  0  0
 72 76  2  0  0  0
 72147  1  0  0  0
 73 75  2  0  0  0
 73 76  1  0  0  0
 73148  1  0  0  0
 74 78  1  0  0  0
 75 84  1  0  0  0
 76 85  1  0  0  0
 77 80  1  0  0  0
 77 84  1  0  0  0
 77 86  2  0  0  0
 78 83  2  0  0  0
 78149  1  0  0  0
 79 80  1  0  0  0
 79 84  1  0  0  0
 79150  1  0  0  0
 79151  1  0  0  0
 80 81  1  0  0  0
 80 82  1  0  0  0
 81152  1  0  0  0
 81153  1  0  0  0
 81154  1  0  0  0
 82155  1  0  0  0
 82156  1  0  0  0
 83157  1  0  0  0
 85158  1  0  0  0
M  ISO  4   1 100  68 101  82 101  85 100
M  END
> <chiral flag>
0

> <version>
0

> <s_m_source_file>
/data/baiqing/PycharmProjects/Reinvent-master-3.2/result/LINK_invent/BTK/process_docking_weight1_custom_product_contain_oxygen_bond_distance_aromatic_linkinvent_7_9_3/rearranged_h_0074.sdf

> <i_m_source_file_index>
28

> <r_mmod_Potential_Energy-OPLS-2005>
307.181854248047

> <r_mmod_Stretch_Energy-OPLS-2005>
170.6865234375

> <r_mmod_Bend_Energy-OPLS-2005>
224.288665771484

> <r_mmod_Torsional_Energy-OPLS-2005>
255.161880493164

> <r_mmod_Improper_Torsional_Energy-OPLS-2005>
6.2061710357666

> <r_mmod_Van_der_Waal_Energy-OPLS-2005>
148.818023681641

> <r_mmod_Electrostatic_Energy-OPLS-2005>
-376.489227294922

> <r_mmod_Solvation_Energy-OPLS-2005>
-240.113342285156

> <b_mmod_Minimization_Converged-OPLS-2005>
0

> <r_mmod_RMS_Derivative-OPLS-2005>
2.11301469802856

$$$$
29
                    3D
 Structure written by MMmdl.
165173  0  0  1  0            999 V2000
  -30.7251  -14.4997   20.5604 C   0  0  0  0  0  0
  -30.4195  -12.3229   19.4335 C   0  0  0  0  0  0
  -29.5013  -12.5106   18.2104 C   0  0  0  0  0  0
  -28.0227  -12.3695   18.6200 C   0  0  0  0  0  0
  -27.6619  -13.2159   19.8714 C   0  0  2  0  0  0
  -28.7061  -13.0328   20.9970 C   0  0  0  0  0  0
  -25.2588  -13.8169   20.5678 C   0  0  0  0  0  0
  -24.1838  -13.0438   20.9157 C   0  0  0  0  0  0
  -24.6403  -11.6910   20.8708 C   0  0  0  0  0  0
  -23.9059  -10.4299   21.0380 C   0  0  0  0  0  0
  -24.3608   -9.4214   21.9166 C   0  0  0  0  0  0
  -23.6282   -8.2249   22.0750 C   0  0  0  0  0  0
  -22.4261   -8.0283   21.3543 C   0  0  0  0  0  0
  -21.9898   -9.0256   20.4643 C   0  0  0  0  0  0
  -22.7229  -10.2135   20.3035 C   0  0  0  0  0  0
  -21.6867   -6.0718   22.5268 C   0  0  0  0  0  0
  -21.4030   -6.5621   23.8203 C   0  0  0  0  0  0
  -21.3663   -5.6780   24.9167 C   0  0  0  0  0  0
  -21.6038   -4.3042   24.7222 C   0  0  0  0  0  0
  -21.8823   -3.8137   23.4347 C   0  0  0  0  0  0
  -21.9199   -4.6947   22.3394 C   0  0  0  0  0  0
  -22.7853  -13.5235   21.1809 C   0  0  0  0  0  0
  -22.1663   -4.2129   21.0971 F   0  0  0  0  0  0
  -21.5627   -3.4530   25.7739 F   0  0  0  0  0  0
  -30.0323  -13.3311   20.4343 N   0  0  0  0  0  0
  -26.3038  -12.9362   20.3350 N   0  0  0  0  0  0
  -25.9335  -11.6510   20.5734 N   0  0  0  0  0  0
  -22.0484  -12.8238   22.0370 N   0  0  0  0  0  0
  -25.4293  -15.1889   20.4086 N   0  0  0  0  0  0
  -31.8615  -14.6323   20.0987 O   0  0  0  0  0  0
  -21.6642   -6.8866   21.4234 O   0  0  0  0  0  0
  -22.3536  -14.5533   20.6645 O   0  0  0  0  0  0
  -24.6218  -31.8663   23.2102 C   0  0  0  0  0  0
  -25.9101  -32.4807   23.8401 C   0  0  1  0  0  0
  -27.2204  -27.3893   20.0864 C   0  0  0  0  0  0
  -25.5943  -33.8606   24.2334 N   0  0  0  0  0  0
  -23.4095  -30.4945   21.5529 C   0  0  2  0  0  0
  -24.8518  -28.9640   20.1125 C   0  0  0  0  0  0
  -22.7446  -29.4651   22.4971 C   0  0  0  0  0  0
  -18.0282  -28.1374   22.8481 C   0  0  0  0  0  0
  -24.1484  -36.7289   23.2611 C   0  0  0  0  0  0
  -25.9474  -30.8156   21.3743 C   0  0  0  0  0  0
  -26.0200  -29.4509   20.7130 C   0  0  0  0  0  0
  -27.2079  -28.6726   20.6965 C   0  0  0  0  0  0
  -26.0269  -26.9425   19.4674 C   0  0  0  0  0  0
  -24.8525  -27.7104   19.4871 C   0  0  0  0  0  0
  -23.6194  -29.8378   20.1647 C   0  0  0  0  0  0
  -25.4090  -36.3089   24.0335 C   0  0  1  0  0  0
  -20.5879  -28.3667   23.1298 C   0  0  2  0  0  0
  -20.6777  -26.9396   22.5405 C   0  0  0  0  0  0
  -19.5751  -26.6388   21.5198 C   0  0  0  0  0  0
  -18.1929  -26.7925   22.1608 C   0  0  0  0  0  0
  -19.1532  -28.8835   23.2889 C   0  0  0  0  0  0
  -18.9460  -30.1445   23.8895 C   0  0  0  0  0  0
  -17.6458  -30.6578   24.0562 C   0  0  0  0  0  0
  -25.9043  -34.9463   23.5126 C   0  0  0  0  0  0
  -16.5351  -29.9075   23.6324 C   0  0  0  0  0  0
  -16.7268  -28.6492   23.0343 C   0  0  0  0  0  0
  -26.4500  -31.6585   25.0743 C   0  0  0  0  0  0
  -25.3756  -31.3707   26.1485 C   0  0  0  0  0  0
  -27.0333  -30.3015   24.6154 C   0  0  0  0  0  0
  -27.6077  -32.4299   25.7509 C   0  0  0  0  0  0
  -27.5614  -37.1738   24.8402 C   0  0  0  0  0  0
  -21.4164  -29.3042   22.3714 N   0  0  0  0  0  0
  -26.4239  -37.3818   23.9482 N   0  0  0  0  0  0
  -24.6780  -31.0739   22.1029 N   0  0  0  0  0  0
  -23.4198  -28.8172   23.3008 O   0  0  0  0  0  0
  -28.3565  -26.5850   20.1140 O   0  0  0  0  0  0
  -26.5597  -34.8923   22.4683 O   0  0  0  0  0  0
  -23.5403  -32.1436   23.7474 O   0  0  0  0  0  0
  -32.2774  -18.4906   21.8776 C   0  0  0  0  0  0
  -31.4113  -19.5785   21.6539 C   0  0  0  0  0  0
  -31.8360  -17.1703   21.6712 C   0  0  0  0  0  0
  -29.6508  -18.0176   21.0132 C   0  0  0  0  0  0
  -30.0845  -19.3641   21.2107 C   0  0  0  0  0  0
  -30.5178  -16.9093   21.2282 C   0  0  0  0  0  0
  -29.1210  -20.5303   21.0537 C   0  0  0  0  0  0
  -29.2514  -24.2174   20.3442 C   0  0  0  0  0  0
  -28.4791  -22.2901   23.7498 C   0  0  0  0  0  0
  -28.2013  -24.6820   23.1898 C   0  0  0  0  0  0
  -30.4982  -23.6785   23.2224 C   0  0  0  0  0  0
  -28.1031  -25.1649   19.9154 C   0  0  0  0  0  0
  -28.8870  -23.0417   21.3184 C   0  0  2  0  0  0
  -29.0220  -23.4170   22.8429 C   0  0  0  0  0  0
  -30.0424  -15.5591   21.0563 N   0  0  0  0  0  0
  -29.6282  -21.7839   21.0292 N   0  0  0  0  0  0
  -27.9083  -20.3176   20.9955 O   0  0  0  0  0  0
  -30.3922  -24.3883   19.9014 O   0  0  0  0  0  0
  -31.4672  -12.4023   19.1372 H   0  0  0  0  0  0
  -30.3039  -11.3212   19.8483 H   0  0  0  0  0  0
  -29.7492  -11.7817   17.4376 H   0  0  0  0  0  0
  -29.6727  -13.4942   17.7690 H   0  0  0  0  0  0
  -27.8357  -11.3136   18.8207 H   0  0  0  0  0  0
  -27.3748  -12.6391   17.7845 H   0  0  0  0  0  0
  -27.6974  -14.2606   19.5604 H   0  0  0  0  0  0
  -28.6875  -12.0088   21.3712 H   0  0  0  0  0  0
  -28.4699  -13.6634   21.8544 H   0  0  0  0  0  0
  -25.2757   -9.5689   22.4727 H   0  0  0  0  0  0
  -23.9998   -7.4650   22.7470 H   0  0  0  0  0  0
  -21.0830   -8.8774   19.8951 H   0  0  0  0  0  0
  -22.3689  -10.9660   19.6125 H   0  0  0  0  0  0
  -21.2032   -7.6129   23.9699 H   0  0  0  0  0  0
  -21.1477   -6.0510   25.9069 H   0  0  0  0  0  0
  -22.0599   -2.7597   23.2860 H   0  0  0  0  0  0
  -22.4086  -11.9911   22.4795 H   0  0  0  0  0  0
  -21.1089  -13.1262   22.2521 H   0  0  0  0  0  0
  -24.6608  -15.8423   20.5104 H   0  0  0  0  0  0
  -26.2787  -15.6293   20.0819 H   0  0  0  0  0  0
  -26.7171  -32.5502   23.1156 H   0  0  0  0  0  0
  -25.0137  -33.9761   25.0510 H   0  0  0  0  0  0
  -22.6993  -31.3136   21.4183 H   0  0  0  0  0  0
  -23.3797  -35.9558   23.3139 H   0  0  0  0  0  0
  -24.3635  -36.9042   22.2058 H   0  0  0  0  0  0
  -23.7150  -37.6415   23.6715 H   0  0  0  0  0  0
  -26.0789  -31.5844   20.6113 H   0  0  0  0  0  0
  -26.8289  -30.8573   22.0030 H   0  0  0  0  0  0
  -28.1052  -29.0428   21.1719 H   0  0  0  0  0  0
  -25.9660  -25.9934   18.9571 H   0  0  0  0  0  0
  -23.9568  -27.3319   19.0131 H   0  0  0  0  0  0
  -23.7391  -30.6193   19.4129 H   0  0  0  0  0  0
  -22.7393  -29.2693   19.8602 H   0  0  0  0  0  0
  -25.1235  -36.1913   25.0814 H   0  0  0  0  0  0
  -20.9960  -28.3232   24.1421 H   0  0  0  0  0  0
  -20.5672  -26.2265   23.3592 H   0  0  0  0  0  0
  -21.6651  -26.7446   22.1204 H   0  0  0  0  0  0
  -19.6911  -25.6303   21.1217 H   0  0  0  0  0  0
  -19.6684  -27.3201   20.6732 H   0  0  0  0  0  0
  -17.4201  -26.6681   21.4007 H   0  0  0  0  0  0
  -18.0314  -26.0067   22.8995 H   0  0  0  0  0  0
  -19.7934  -30.7268   24.2255 H   0  0  0  0  0  0
  -17.5012  -31.6255   24.5174 H   0  0  0  0  0  0
  -15.5347  -30.2969   23.7652 H   0  0  0  0  0  0
  -15.8671  -28.0814   22.7055 H   0  0  0  0  0  0
  -24.5920  -30.7057   25.7837 H   0  0  0  0  0  0
  -24.8958  -32.2869   26.4936 H   0  0  0  0  0  0
  -25.8101  -30.8878   27.0245 H   0  0  0  0  0  0
  -26.2895  -29.6781   24.1177 H   0  0  0  0  0  0
  -27.4055  -29.7246   25.4633 H   0  0  0  0  0  0
  -27.8756  -30.4322   23.9354 H   0  0  0  0  0  0
  -27.2710  -33.3593   26.2118 H   0  0  0  0  0  0
  -28.3869  -32.6865   25.0318 H   0  0  0  0  0  0
  -28.0764  -31.8403   26.5402 H   0  0  0  0  0  0
  -28.2401  -38.0255   24.7812 H   0  0  0  0  0  0
  -28.1331  -36.2836   24.5740 H   0  0  0  0  0  0
  -27.2421  -37.0794   25.8794 H   0  0  0  0  0  0
  -20.9318  -29.8786   21.6967 H   0  0  0  0  0  0
  -26.0100  -38.2831   24.1708 H   0  0  0  0  0  0
  -33.2853  -18.6690   22.2282 H   0  0  0  0  0  0
  -31.7797  -20.5756   21.8544 H   0  0  0  0  0  0
  -32.5257  -16.3617   21.8716 H   0  0  0  0  0  0
  -28.6333  -17.8374   20.6951 H   0  0  0  0  0  0
  -28.4294  -22.6039   24.7936 H   0  0  0  0  0  0
  -29.1110  -21.4022   23.7281 H   0  0  0  0  0  0
  -27.4732  -21.9889   23.4533 H   0  0  0  0  0  0
  -28.2350  -24.8954   24.2594 H   0  0  0  0  0  0
  -27.1506  -24.5649   22.9202 H   0  0  0  0  0  0
  -28.5751  -25.5766   22.6920 H   0  0  0  0  0  0
  -30.5994  -23.9278   24.2792 H   0  0  0  0  0  0
  -30.9255  -24.5069   22.6570 H   0  0  0  0  0  0
  -31.1250  -22.8050   23.0401 H   0  0  0  0  0  0
  -27.2088  -24.8676   20.4642 H   0  0  0  0  0  0
  -27.9087  -24.9844   18.8581 H   0  0  0  0  0  0
  -27.8313  -22.8314   21.1411 H   0  0  0  0  0  0
  -29.0667  -15.3924   21.2477 H   0  0  0  0  0  0
  -30.6317  -21.8719   20.9742 H   0  0  0  0  0  0
  1 25  1  0  0  0
  1 30  2  0  0  0
  1 85  1  0  0  0
  2  3  1  0  0  0
  2 25  1  0  0  0
  2 89  1  0  0  0
  2 90  1  0  0  0
  3  4  1  0  0  0
  3 91  1  0  0  0
  3 92  1  0  0  0
  4  5  1  0  0  0
  4 93  1  0  0  0
  4 94  1  0  0  0
  5  6  1  0  0  0
  5 26  1  0  0  0
  5 95  1  0  0  0
  6 25  1  0  0  0
  6 96  1  0  0  0
  6 97  1  0  0  0
  7  8  2  0  0  0
  7 26  1  0  0  0
  7 29  1  0  0  0
  8  9  1  0  0  0
  8 22  1  0  0  0
  9 10  1  0  0  0
  9 27  2  0  0  0
 10 11  2  0  0  0
 10 15  1  0  0  0
 11 12  1  0  0  0
 11 98  1  0  0  0
 12 13  2  0  0  0
 12 99  1  0  0  0
 13 14  1  0  0  0
 13 31  1  0  0  0
 14 15  2  0  0  0
 14100  1  0  0  0
 15101  1  0  0  0
 16 17  2  0  0  0
 16 21  1  0  0  0
 16 31  1  0  0  0
 17 18  1  0  0  0
 17102  1  0  0  0
 18 19  2  0  0  0
 18103  1  0  0  0
 19 20  1  0  0  0
 19 24  1  0  0  0
 20 21  2  0  0  0
 20104  1  0  0  0
 21 23  1  0  0  0
 22 28  1  0  0  0
 22 32  2  0  0  0
 26 27  1  0  0  0
 28105  1  0  0  0
 28106  1  0  0  0
 29107  1  0  0  0
 29108  1  0  0  0
 33 34  1  0  0  0
 33 66  1  0  0  0
 33 70  2  0  0  0
 34 36  1  0  0  0
 34 59  1  0  0  0
 34109  1  0  0  0
 35 44  2  0  0  0
 35 45  1  0  0  0
 35 68  1  0  0  0
 36 56  1  0  0  0
 36110  1  0  0  0
 37 39  1  0  0  0
 37 47  1  0  0  0
 37 66  1  0  0  0
 37111  1  0  0  0
 38 43  2  0  0  0
 38 46  1  0  0  0
 38 47  1  0  0  0
 39 64  1  0  0  0
 39 67  2  0  0  0
 40 52  1  0  0  0
 40 53  2  0  0  0
 40 58  1  0  0  0
 41112  1  0  0  0
 41113  1  0  0  0
 41114  1  0  0  0
 41 48  1  0  0  0
 42 43  1  0  0  0
 42 66  1  0  0  0
 42115  1  0  0  0
 42116  1  0  0  0
 43 44  1  0  0  0
 44117  1  0  0  0
 45 46  2  0  0  0
 45118  1  0  0  0
 46119  1  0  0  0
 47120  1  0  0  0
 47121  1  0  0  0
 48 56  1  0  0  0
 48 65  1  0  0  0
 48122  1  0  0  0
 49 50  1  0  0  0
 49 53  1  0  0  0
 49 64  1  0  0  0
 49123  1  0  0  0
 50 51  1  0  0  0
 50124  1  0  0  0
 50125  1  0  0  0
 51 52  1  0  0  0
 51126  1  0  0  0
 51127  1  0  0  0
 52128  1  0  0  0
 52129  1  0  0  0
 53 54  1  0  0  0
 54 55  2  0  0  0
 54130  1  0  0  0
 55 57  1  0  0  0
 55131  1  0  0  0
 56 69  2  0  0  0
 57 58  2  0  0  0
 57132  1  0  0  0
 58133  1  0  0  0
 59 60  1  0  0  0
 59 61  1  0  0  0
 59 62  1  0  0  0
 60134  1  0  0  0
 60135  1  0  0  0
 60136  1  0  0  0
 61137  1  0  0  0
 61138  1  0  0  0
 61139  1  0  0  0
 62140  1  0  0  0
 62141  1  0  0  0
 62142  1  0  0  0
 63 65  1  0  0  0
 63143  1  0  0  0
 63144  1  0  0  0
 63145  1  0  0  0
 64146  1  0  0  0
 65147  1  0  0  0
 68 82  1  0  0  0
 71 72  2  0  0  0
 71 73  1  0  0  0
 71148  1  0  0  0
 72 75  1  0  0  0
 72149  1  0  0  0
 73 76  2  0  0  0
 73150  1  0  0  0
 74 75  2  0  0  0
 74 76  1  0  0  0
 74151  1  0  0  0
 75 77  1  0  0  0
 76 85  1  0  0  0
 77 86  1  0  0  0
 77 87  2  0  0  0
 78 82  1  0  0  0
 78 83  1  0  0  0
 78 88  2  0  0  0
 79152  1  0  0  0
 79153  1  0  0  0
 79154  1  0  0  0
 79 84  1  0  0  0
 80 84  1  0  0  0
 80155  1  0  0  0
 80156  1  0  0  0
 80157  1  0  0  0
 81 84  1  0  0  0
 81158  1  0  0  0
 81159  1  0  0  0
 81160  1  0  0  0
 82161  1  0  0  0
 82162  1  0  0  0
 83 84  1  0  0  0
 83 86  1  0  0  0
 83163  1  0  0  0
 85164  1  0  0  0
 86165  1  0  0  0
M  ISO  4   1 100  68 101  82 101  85 100
M  END
> <chiral flag>
0

> <version>
0

> <s_m_source_file>
/data/baiqing/PycharmProjects/Reinvent-master-3.2/result/LINK_invent/BTK/process_docking_weight1_custom_product_contain_oxygen_bond_distance_aromatic_linkinvent_7_9_3/rearranged_h_0074.sdf

> <i_m_source_file_index>
29

> <r_mmod_Potential_Energy-OPLS-2005>
-97.43017578125

> <r_mmod_Stretch_Energy-OPLS-2005>
53.5153656005859

> <r_mmod_Bend_Energy-OPLS-2005>
107.993614196777

> <r_mmod_Torsional_Energy-OPLS-2005>
225.452056884766

> <r_mmod_Improper_Torsional_Energy-OPLS-2005>
4.6200966835022

> <r_mmod_Van_der_Waal_Energy-OPLS-2005>
165.38786315918

> <r_mmod_Electrostatic_Energy-OPLS-2005>
-447.150177001953

> <r_mmod_Solvation_Energy-OPLS-2005>
-228.558029174805

> <b_mmod_Minimization_Converged-OPLS-2005>
0

> <r_mmod_RMS_Derivative-OPLS-2005>
1.93118965625763

$$$$
30
                    3D
 Structure written by MMmdl.
162171  0  0  1  0            999 V2000
  -30.6720  -14.5485   20.5370 C   0  0  0  0  0  0
  -30.4263  -12.3474   19.4306 C   0  0  0  0  0  0
  -29.4947  -12.5062   18.2108 C   0  0  0  0  0  0
  -28.0178  -12.3561   18.6255 C   0  0  0  0  0  0
  -27.6546  -13.2109   19.8686 C   0  0  2  0  0  0
  -28.7010  -13.0388   20.9929 C   0  0  0  0  0  0
  -25.2566  -13.8151   20.5698 C   0  0  0  0  0  0
  -24.1825  -13.0431   20.9192 C   0  0  0  0  0  0
  -24.6381  -11.6894   20.8738 C   0  0  0  0  0  0
  -23.9046  -10.4292   21.0404 C   0  0  0  0  0  0
  -24.3605   -9.4209   21.9180 C   0  0  0  0  0  0
  -23.6292   -8.2239   22.0749 C   0  0  0  0  0  0
  -22.4274   -8.0277   21.3538 C   0  0  0  0  0  0
  -21.9899   -9.0247   20.4639 C   0  0  0  0  0  0
  -22.7218  -10.2133   20.3053 C   0  0  0  0  0  0
  -21.6856   -6.0728   22.5275 C   0  0  0  0  0  0
  -21.4018   -6.5634   23.8206 C   0  0  0  0  0  0
  -21.3661   -5.6791   24.9169 C   0  0  0  0  0  0
  -21.6048   -4.3053   24.7222 C   0  0  0  0  0  0
  -21.8819   -3.8140   23.4342 C   0  0  0  0  0  0
  -21.9194   -4.6955   22.3396 C   0  0  0  0  0  0
  -22.7847  -13.5227   21.1857 C   0  0  0  0  0  0
  -22.1665   -4.2138   21.0975 F   0  0  0  0  0  0
  -21.5627   -3.4538   25.7737 F   0  0  0  0  0  0
  -30.0200  -13.3555   20.4241 N   0  0  0  0  0  0
  -26.2994  -12.9327   20.3353 N   0  0  0  0  0  0
  -25.9310  -11.6481   20.5760 N   0  0  0  0  0  0
  -22.0502  -12.8222   22.0417 N   0  0  0  0  0  0
  -25.4274  -15.1877   20.4099 N   0  0  0  0  0  0
  -31.8305  -14.7040   20.1424 O   0  0  0  0  0  0
  -21.6642   -6.8871   21.4237 O   0  0  0  0  0  0
  -22.3526  -14.5542   20.6719 O   0  0  0  0  0  0
  -24.6194  -31.8666   23.2076 C   0  0  0  0  0  0
  -25.9077  -32.4813   23.8369 C   0  0  1  0  0  0
  -27.2220  -27.3863   20.1001 C   0  0  0  0  0  0
  -25.5930  -33.8607   24.2305 N   0  0  0  0  0  0
  -23.4068  -30.4919   21.5523 C   0  0  2  0  0  0
  -24.8502  -28.9583   20.1138 C   0  0  0  0  0  0
  -22.7435  -29.4651   22.5002 C   0  0  0  0  0  0
  -18.0271  -28.1369   22.8504 C   0  0  0  0  0  0
  -24.1499  -36.7300   23.2629 C   0  0  0  0  0  0
  -25.9420  -30.8202   21.3672 C   0  0  0  0  0  0
  -26.0178  -29.4529   20.7089 C   0  0  0  0  0  0
  -27.2069  -28.6775   20.6935 C   0  0  0  0  0  0
  -26.0292  -26.9276   19.4906 C   0  0  0  0  0  0
  -24.8539  -27.6977   19.4999 C   0  0  0  0  0  0
  -23.6152  -29.8294   20.1659 C   0  0  0  0  0  0
  -25.4122  -36.3095   24.0324 C   0  0  1  0  0  0
  -20.5865  -28.3653   23.1328 C   0  0  2  0  0  0
  -20.6769  -26.9394   22.5419 C   0  0  0  0  0  0
  -19.5743  -26.6384   21.5221 C   0  0  0  0  0  0
  -18.1921  -26.7919   22.1630 C   0  0  0  0  0  0
  -19.1520  -28.8830   23.2909 C   0  0  0  0  0  0
  -18.9445  -30.1438   23.8914 C   0  0  0  0  0  0
  -17.6443  -30.6578   24.0557 C   0  0  0  0  0  0
  -25.9050  -34.9466   23.5106 C   0  0  0  0  0  0
  -16.5336  -29.9073   23.6328 C   0  0  0  0  0  0
  -16.7258  -28.6485   23.0368 C   0  0  0  0  0  0
  -26.4491  -31.6598   25.0703 C   0  0  0  0  0  0
  -25.3741  -31.3718   26.1435 C   0  0  0  0  0  0
  -27.0317  -30.3032   24.6097 C   0  0  0  0  0  0
  -27.6060  -32.4318   25.7478 C   0  0  0  0  0  0
  -27.5591  -37.1803   24.8459 C   0  0  0  0  0  0
  -21.4159  -29.3014   22.3740 N   0  0  0  0  0  0
  -26.4303  -37.3787   23.9401 N   0  0  0  0  0  0
  -24.6746  -31.0737   22.1001 N   0  0  0  0  0  0
  -23.4201  -28.8201   23.3053 O   0  0  0  0  0  0
  -28.3687  -26.5963   20.1414 O   0  0  0  0  0  0
  -26.5603  -34.8928   22.4660 O   0  0  0  0  0  0
  -23.5381  -32.1430   23.7453 O   0  0  0  0  0  0
  -31.0702  -19.5685   22.0172 C   0  0  0  0  0  0
  -31.6632  -18.4346   22.6046 C   0  0  0  0  0  0
  -29.7297  -18.1121   20.6018 C   0  0  0  0  0  0
  -30.0997  -19.4383   21.0008 C   0  0  0  0  0  0
  -30.3250  -16.9511   21.1923 C   0  0  0  0  0  0
  -31.2971  -17.1373   22.2023 C   0  0  0  0  0  0
  -29.3139  -22.7597   20.0077 C   0  0  0  0  0  0
  -29.2078  -20.6239   19.0088 C   0  0  0  0  0  0
  -28.9736  -22.1105   18.6827 C   0  0  0  0  0  0
  -27.4992  -22.3092   18.2692 C   0  0  0  0  0  0
  -29.9366  -22.6066   17.5866 C   0  0  0  0  0  0
  -29.4390  -24.2806   20.2603 C   0  0  0  0  0  0
  -28.2152  -25.1711   19.8800 C   0  0  0  0  0  0
  -29.6196  -21.8744   20.9041 N   0  0  0  0  0  0
  -29.5556  -20.6214   20.4183 N   0  0  0  0  0  0
  -29.8951  -15.6151   20.8593 N   0  0  0  0  0  0
  -31.8558  -16.0732   22.8290 F   0  0  0  0  0  0
  -31.4692  -12.4574   19.1288 H   0  0  0  0  0  0
  -30.3396  -11.3449   19.8525 H   0  0  0  0  0  0
  -29.7421  -11.7677   17.4478 H   0  0  0  0  0  0
  -29.6489  -13.4843   17.7515 H   0  0  0  0  0  0
  -27.8417  -11.3013   18.8374 H   0  0  0  0  0  0
  -27.3631  -12.6099   17.7907 H   0  0  0  0  0  0
  -27.6804  -14.2505   19.5437 H   0  0  0  0  0  0
  -28.6959  -12.0151   21.3695 H   0  0  0  0  0  0
  -28.4623  -13.6710   21.8500 H   0  0  0  0  0  0
  -25.2748   -9.5685   22.4751 H   0  0  0  0  0  0
  -24.0003   -7.4623   22.7465 H   0  0  0  0  0  0
  -21.0824   -8.8754   19.8945 H   0  0  0  0  0  0
  -22.3663  -10.9671   19.6164 H   0  0  0  0  0  0
  -21.2017   -7.6143   23.9704 H   0  0  0  0  0  0
  -21.1486   -6.0522   25.9072 H   0  0  0  0  0  0
  -22.0598   -2.7603   23.2842 H   0  0  0  0  0  0
  -22.4135  -11.9883   22.4792 H   0  0  0  0  0  0
  -21.1120  -13.1233   22.2644 H   0  0  0  0  0  0
  -24.6567  -15.8388   20.5142 H   0  0  0  0  0  0
  -26.2682  -15.6282   20.0604 H   0  0  0  0  0  0
  -26.7144  -32.5521   23.1127 H   0  0  0  0  0  0
  -25.0117  -33.9768   25.0477 H   0  0  0  0  0  0
  -22.6953  -31.3090   21.4150 H   0  0  0  0  0  0
  -23.3763  -35.9634   23.3300 H   0  0  0  0  0  0
  -24.3596  -36.8906   22.2042 H   0  0  0  0  0  0
  -23.7256  -37.6506   23.6645 H   0  0  0  0  0  0
  -26.0610  -31.5901   20.6031 H   0  0  0  0  0  0
  -26.8280  -30.8695   21.9891 H   0  0  0  0  0  0
  -28.1081  -29.0554   21.1560 H   0  0  0  0  0  0
  -25.9746  -25.9656   19.0043 H   0  0  0  0  0  0
  -23.9565  -27.3122   19.0350 H   0  0  0  0  0  0
  -23.7227  -30.6044   19.4059 H   0  0  0  0  0  0
  -22.7381  -29.2502   19.8710 H   0  0  0  0  0  0
  -25.1308  -36.1943   25.0819 H   0  0  0  0  0  0
  -20.9949  -28.3209   24.1453 H   0  0  0  0  0  0
  -20.5690  -26.2255   23.3600 H   0  0  0  0  0  0
  -21.6643  -26.7453   22.1202 H   0  0  0  0  0  0
  -19.6900  -25.6298   21.1239 H   0  0  0  0  0  0
  -19.6681  -27.3208   20.6761 H   0  0  0  0  0  0
  -17.4198  -26.6679   21.4020 H   0  0  0  0  0  0
  -18.0303  -26.0046   22.9007 H   0  0  0  0  0  0
  -19.7917  -30.7250   24.2307 H   0  0  0  0  0  0
  -17.4992  -31.6268   24.5138 H   0  0  0  0  0  0
  -15.5335  -30.2973   23.7643 H   0  0  0  0  0  0
  -15.8663  -28.0794   22.7100 H   0  0  0  0  0  0
  -24.5916  -30.7070   25.7762 H   0  0  0  0  0  0
  -24.8934  -32.2881   26.4867 H   0  0  0  0  0  0
  -25.8074  -30.8887   27.0197 H   0  0  0  0  0  0
  -26.2875  -29.6817   24.1104 H   0  0  0  0  0  0
  -27.4015  -29.7242   25.4567 H   0  0  0  0  0  0
  -27.8745  -30.4329   23.9302 H   0  0  0  0  0  0
  -27.2667  -33.3593   26.2105 H   0  0  0  0  0  0
  -28.3859  -32.6922   25.0310 H   0  0  0  0  0  0
  -28.0750  -31.8411   26.5356 H   0  0  0  0  0  0
  -28.2597  -38.0112   24.7536 H   0  0  0  0  0  0
  -28.1099  -36.2643   24.6260 H   0  0  0  0  0  0
  -27.2306  -37.1428   25.8860 H   0  0  0  0  0  0
  -20.9327  -29.8719   21.6949 H   0  0  0  0  0  0
  -26.0182  -38.2859   24.1416 H   0  0  0  0  0  0
  -31.3792  -20.5469   22.3563 H   0  0  0  0  0  0
  -32.3968  -18.5620   23.3856 H   0  0  0  0  0  0
  -28.9728  -17.9802   19.8434 H   0  0  0  0  0  0
  -30.0149  -20.1937   18.4129 H   0  0  0  0  0  0
  -28.3138  -20.0220   18.8417 H   0  0  0  0  0  0
  -27.2794  -23.3147   17.9240 H   0  0  0  0  0  0
  -26.8135  -22.0806   19.0862 H   0  0  0  0  0  0
  -27.2432  -21.6476   17.4417 H   0  0  0  0  0  0
  -30.9791  -22.4804   17.8839 H   0  0  0  0  0  0
  -29.7876  -23.6654   17.3695 H   0  0  0  0  0  0
  -29.7983  -22.0578   16.6559 H   0  0  0  0  0  0
  -30.3022  -24.6484   19.7071 H   0  0  0  0  0  0
  -29.6739  -24.4507   21.3105 H   0  0  0  0  0  0
  -28.0339  -25.0822   18.8116 H   0  0  0  0  0  0
  -27.3419  -24.7855   20.4103 H   0  0  0  0  0  0
  -28.9082  -15.4301   20.9397 H   0  0  0  0  0  0
  1 25  1  0  0  0
  1 30  2  0  0  0
  1 86  1  0  0  0
  2  3  1  0  0  0
  2 25  1  0  0  0
  2 88  1  0  0  0
  2 89  1  0  0  0
  3  4  1  0  0  0
  3 90  1  0  0  0
  3 91  1  0  0  0
  4  5  1  0  0  0
  4 92  1  0  0  0
  4 93  1  0  0  0
  5  6  1  0  0  0
  5 26  1  0  0  0
  5 94  1  0  0  0
  6 25  1  0  0  0
  6 95  1  0  0  0
  6 96  1  0  0  0
  7  8  2  0  0  0
  7 26  1  0  0  0
  7 29  1  0  0  0
  8  9  1  0  0  0
  8 22  1  0  0  0
  9 10  1  0  0  0
  9 27  2  0  0  0
 10 11  2  0  0  0
 10 15  1  0  0  0
 11 12  1  0  0  0
 11 97  1  0  0  0
 12 13  2  0  0  0
 12 98  1  0  0  0
 13 14  1  0  0  0
 13 31  1  0  0  0
 14 15  2  0  0  0
 14 99  1  0  0  0
 15100  1  0  0  0
 16 17  2  0  0  0
 16 21  1  0  0  0
 16 31  1  0  0  0
 17 18  1  0  0  0
 17101  1  0  0  0
 18 19  2  0  0  0
 18102  1  0  0  0
 19 20  1  0  0  0
 19 24  1  0  0  0
 20 21  2  0  0  0
 20103  1  0  0  0
 21 23  1  0  0  0
 22 28  1  0  0  0
 22 32  2  0  0  0
 26 27  1  0  0  0
 28104  1  0  0  0
 28105  1  0  0  0
 29106  1  0  0  0
 29107  1  0  0  0
 33 34  1  0  0  0
 33 66  1  0  0  0
 33 70  2  0  0  0
 34 36  1  0  0  0
 34 59  1  0  0  0
 34108  1  0  0  0
 35 44  2  0  0  0
 35 45  1  0  0  0
 35 68  1  0  0  0
 36 56  1  0  0  0
 36109  1  0  0  0
 37 39  1  0  0  0
 37 47  1  0  0  0
 37 66  1  0  0  0
 37110  1  0  0  0
 38 43  2  0  0  0
 38 46  1  0  0  0
 38 47  1  0  0  0
 39 64  1  0  0  0
 39 67  2  0  0  0
 40 52  1  0  0  0
 40 53  2  0  0  0
 40 58  1  0  0  0
 41111  1  0  0  0
 41112  1  0  0  0
 41113  1  0  0  0
 41 48  1  0  0  0
 42 43  1  0  0  0
 42 66  1  0  0  0
 42114  1  0  0  0
 42115  1  0  0  0
 43 44  1  0  0  0
 44116  1  0  0  0
 45 46  2  0  0  0
 45117  1  0  0  0
 46118  1  0  0  0
 47119  1  0  0  0
 47120  1  0  0  0
 48 56  1  0  0  0
 48 65  1  0  0  0
 48121  1  0  0  0
 49 50  1  0  0  0
 49 53  1  0  0  0
 49 64  1  0  0  0
 49122  1  0  0  0
 50 51  1  0  0  0
 50123  1  0  0  0
 50124  1  0  0  0
 51 52  1  0  0  0
 51125  1  0  0  0
 51126  1  0  0  0
 52127  1  0  0  0
 52128  1  0  0  0
 53 54  1  0  0  0
 54 55  2  0  0  0
 54129  1  0  0  0
 55 57  1  0  0  0
 55130  1  0  0  0
 56 69  2  0  0  0
 57 58  2  0  0  0
 57131  1  0  0  0
 58132  1  0  0  0
 59 60  1  0  0  0
 59 61  1  0  0  0
 59 62  1  0  0  0
 60133  1  0  0  0
 60134  1  0  0  0
 60135  1  0  0  0
 61136  1  0  0  0
 61137  1  0  0  0
 61138  1  0  0  0
 62139  1  0  0  0
 62140  1  0  0  0
 62141  1  0  0  0
 63 65  1  0  0  0
 63142  1  0  0  0
 63143  1  0  0  0
 63144  1  0  0  0
 64145  1  0  0  0
 65146  1  0  0  0
 68 83  1  0  0  0
 71 72  2  0  0  0
 71 74  1  0  0  0
 71147  1  0  0  0
 72 76  1  0  0  0
 72148  1  0  0  0
 73 74  2  0  0  0
 73 75  1  0  0  0
 73149  1  0  0  0
 74 85  1  0  0  0
 75 76  2  0  0  0
 75 86  1  0  0  0
 76 87  1  0  0  0
 77 79  1  0  0  0
 77 82  1  0  0  0
 77 84  2  0  0  0
 78 79  1  0  0  0
 78 85  1  0  0  0
 78150  1  0  0  0
 78151  1  0  0  0
 79 80  1  0  0  0
 79 81  1  0  0  0
 80152  1  0  0  0
 80153  1  0  0  0
 80154  1  0  0  0
 81155  1  0  0  0
 81156  1  0  0  0
 81157  1  0  0  0
 82 83  1  0  0  0
 82158  1  0  0  0
 82159  1  0  0  0
 83160  1  0  0  0
 83161  1  0  0  0
 84 85  1  0  0  0
 86162  1  0  0  0
M  ISO  4   1 100  68 101  83 101  86 100
M  END
> <chiral flag>
0

> <version>
0

> <s_m_source_file>
/data/baiqing/PycharmProjects/Reinvent-master-3.2/result/LINK_invent/BTK/process_docking_weight1_custom_product_contain_oxygen_bond_distance_aromatic_linkinvent_7_9_3/rearranged_h_0074.sdf

> <i_m_source_file_index>
30

> <r_mmod_Potential_Energy-OPLS-2005>
-22.8647613525391

> <r_mmod_Stretch_Energy-OPLS-2005>
53.1443557739258

> <r_mmod_Bend_Energy-OPLS-2005>
138.081558227539

> <r_mmod_Torsional_Energy-OPLS-2005>
253.057434082031

> <r_mmod_Improper_Torsional_Energy-OPLS-2005>
8.38502311706543

> <r_mmod_Van_der_Waal_Energy-OPLS-2005>
153.083419799805

> <r_mmod_Electrostatic_Energy-OPLS-2005>
-438.265441894531

> <r_mmod_Solvation_Energy-OPLS-2005>
-215.459350585938

> <b_mmod_Minimization_Converged-OPLS-2005>
0

> <r_mmod_RMS_Derivative-OPLS-2005>
1.74766600131989

$$$$
31
                    3D
 Structure written by MMmdl.
155164  0  0  1  0            999 V2000
  -30.5698  -14.7429   20.4918 C   0  0  0  0  0  0
  -30.4523  -12.4582   19.4655 C   0  0  0  0  0  0
  -29.5161  -12.5242   18.2355 C   0  0  0  0  0  0
  -28.0409  -12.3441   18.6477 C   0  0  0  0  0  0
  -27.6532  -13.2230   19.8663 C   0  0  2  0  0  0
  -28.7004  -13.0978   20.9959 C   0  0  0  0  0  0
  -25.2545  -13.8177   20.5668 C   0  0  0  0  0  0
  -24.1822  -13.0434   20.9180 C   0  0  0  0  0  0
  -24.6407  -11.6910   20.8745 C   0  0  0  0  0  0
  -23.9075  -10.4290   21.0406 C   0  0  0  0  0  0
  -24.3623   -9.4204   21.9185 C   0  0  0  0  0  0
  -23.6295   -8.2242   22.0755 C   0  0  0  0  0  0
  -22.4277   -8.0282   21.3543 C   0  0  0  0  0  0
  -21.9913   -9.0257   20.4645 C   0  0  0  0  0  0
  -22.7246  -10.2134   20.3055 C   0  0  0  0  0  0
  -21.6853   -6.0736   22.5280 C   0  0  0  0  0  0
  -21.4013   -6.5641   23.8214 C   0  0  0  0  0  0
  -21.3659   -5.6793   24.9175 C   0  0  0  0  0  0
  -21.6045   -4.3056   24.7225 C   0  0  0  0  0  0
  -21.8821   -3.8148   23.4346 C   0  0  0  0  0  0
  -21.9192   -4.6964   22.3402 C   0  0  0  0  0  0
  -22.7844  -13.5221   21.1849 C   0  0  0  0  0  0
  -22.1662   -4.2149   21.0980 F   0  0  0  0  0  0
  -21.5628   -3.4540   25.7738 F   0  0  0  0  0  0
  -30.0053  -13.4855   20.4343 N   0  0  0  0  0  0
  -26.2998  -12.9373   20.3353 N   0  0  0  0  0  0
  -25.9342  -11.6520   20.5780 N   0  0  0  0  0  0
  -22.0494  -12.8210   22.0411 N   0  0  0  0  0  0
  -25.4213  -15.1892   20.4025 N   0  0  0  0  0  0
  -31.7188  -14.9306   20.0782 O   0  0  0  0  0  0
  -21.6640   -6.8879   21.4242 O   0  0  0  0  0  0
  -22.3520  -14.5527   20.6703 O   0  0  0  0  0  0
  -24.6322  -31.8550   23.1979 C   0  0  0  0  0  0
  -25.9142  -32.4756   23.8335 C   0  0  1  0  0  0
  -27.2275  -27.2655   20.1321 C   0  0  0  0  0  0
  -25.5933  -33.8559   24.2261 N   0  0  0  0  0  0
  -23.4307  -30.4759   21.5411 C   0  0  2  0  0  0
  -24.8827  -28.9221   20.1113 C   0  0  0  0  0  0
  -22.7511  -29.4599   22.4913 C   0  0  0  0  0  0
  -18.0294  -28.1390   22.8487 C   0  0  0  0  0  0
  -24.1486  -36.7284   23.2637 C   0  0  0  0  0  0
  -25.9767  -30.7685   21.3787 C   0  0  0  0  0  0
  -26.0543  -29.3901   20.7224 C   0  0  0  0  0  0
  -27.2329  -28.5738   20.7237 C   0  0  0  0  0  0
  -26.0368  -26.8654   19.4903 C   0  0  0  0  0  0
  -24.8783  -27.6666   19.4838 C   0  0  0  0  0  0
  -23.6515  -29.8076   20.1583 C   0  0  0  0  0  0
  -25.4112  -36.3071   24.0327 C   0  0  1  0  0  0
  -20.5898  -28.3706   23.1263 C   0  0  2  0  0  0
  -20.6781  -26.9423   22.5405 C   0  0  0  0  0  0
  -19.5754  -26.6387   21.5212 C   0  0  0  0  0  0
  -18.1937  -26.7932   22.1628 C   0  0  0  0  0  0
  -19.1548  -28.8864   23.2871 C   0  0  0  0  0  0
  -18.9468  -30.1463   23.8892 C   0  0  0  0  0  0
  -17.6466  -30.6590   24.0562 C   0  0  0  0  0  0
  -25.9055  -34.9442   23.5099 C   0  0  0  0  0  0
  -16.5357  -29.9088   23.6332 C   0  0  0  0  0  0
  -16.7280  -28.6505   23.0358 C   0  0  0  0  0  0
  -26.4506  -31.6579   25.0726 C   0  0  0  0  0  0
  -25.3725  -31.3726   26.1442 C   0  0  0  0  0  0
  -27.0356  -30.2993   24.6215 C   0  0  0  0  0  0
  -27.6059  -32.4320   25.7501 C   0  0  0  0  0  0
  -27.5579  -37.1792   24.8461 C   0  0  0  0  0  0
  -21.4218  -29.3048   22.3653 N   0  0  0  0  0  0
  -26.4285  -37.3772   23.9416 N   0  0  0  0  0  0
  -24.6990  -31.0509   22.0959 N   0  0  0  0  0  0
  -23.4204  -28.8146   23.3022 O   0  0  0  0  0  0
  -28.2832  -26.3247   20.1698 O   0  0  0  0  0  0
  -26.5633  -34.8920   22.4670 O   0  0  0  0  0  0
  -23.5468  -32.1368   23.7269 O   0  0  0  0  0  0
  -30.1169  -19.5277   19.8575 C   0  0  0  0  0  0
  -30.3312  -18.0991   19.9282 C   0  0  0  0  0  0
  -28.6107  -19.3990   21.6488 C   0  0  0  0  0  0
  -28.8024  -17.9774   21.7644 C   0  0  0  0  0  0
  -29.2292  -20.2699   20.7047 C   0  0  0  0  0  0
  -29.6706  -17.2554   20.8728 C   0  0  0  0  0  0
  -28.4579  -23.7605   20.6496 C   0  0  0  0  0  0
  -28.0343  -22.5923   21.4157 C   0  0  0  0  0  0
  -27.9982  -25.0724   20.7905 C   0  0  0  0  0  0
  -28.0162  -17.2721   22.8327 C   0  0  0  0  0  0
  -29.4233  -22.8339   19.8460 C   0  0  0  0  0  0
  -27.6454  -18.0612   24.0846 C   0  0  0  0  0  0
  -28.8995  -21.7298   20.7078 N   0  0  0  0  0  0
  -29.7432  -15.7627   20.9321 N   0  0  0  0  0  0
  -27.2243  -22.4838   22.3130 O   0  0  0  0  0  0
  -27.6857  -16.0844   22.7757 O   0  0  0  0  0  0
  -31.4881  -12.6124   19.1585 H   0  0  0  0  0  0
  -30.4215  -11.4676   19.9216 H   0  0  0  0  0  0
  -29.7956  -11.7620   17.5068 H   0  0  0  0  0  0
  -29.6390  -13.4856   17.7341 H   0  0  0  0  0  0
  -27.8927  -11.2915   18.8919 H   0  0  0  0  0  0
  -27.3828  -12.5544   17.8039 H   0  0  0  0  0  0
  -27.6627  -14.2552   19.5160 H   0  0  0  0  0  0
  -28.7386  -12.0737   21.3700 H   0  0  0  0  0  0
  -28.4281  -13.7112   21.8546 H   0  0  0  0  0  0
  -25.2768   -9.5679   22.4760 H   0  0  0  0  0  0
  -24.0002   -7.4632   22.7474 H   0  0  0  0  0  0
  -21.0844   -8.8779   19.8950 H   0  0  0  0  0  0
  -22.3707  -10.9675   19.6165 H   0  0  0  0  0  0
  -21.2007   -7.6150   23.9717 H   0  0  0  0  0  0
  -21.1480   -6.0524   25.9078 H   0  0  0  0  0  0
  -22.0600   -2.7609   23.2848 H   0  0  0  0  0  0
  -22.4115  -11.9870   22.4794 H   0  0  0  0  0  0
  -21.1114  -13.1232   22.2623 H   0  0  0  0  0  0
  -24.6611  -15.8470   20.5319 H   0  0  0  0  0  0
  -26.2901  -15.6335   20.1359 H   0  0  0  0  0  0
  -26.7216  -32.5413   23.1087 H   0  0  0  0  0  0
  -25.0068  -33.9695   25.0398 H   0  0  0  0  0  0
  -22.7275  -31.2981   21.3924 H   0  0  0  0  0  0
  -23.3754  -35.9609   23.3290 H   0  0  0  0  0  0
  -24.3575  -36.8915   22.2053 H   0  0  0  0  0  0
  -23.7234  -37.6480   23.6668 H   0  0  0  0  0  0
  -26.1131  -31.5280   20.6076 H   0  0  0  0  0  0
  -26.8548  -30.8206   22.0109 H   0  0  0  0  0  0
  -28.1287  -28.9226   21.2179 H   0  0  0  0  0  0
  -25.9938  -25.8960   19.0142 H   0  0  0  0  0  0
  -23.9824  -27.3012   19.0009 H   0  0  0  0  0  0
  -23.7757  -30.5829   19.4011 H   0  0  0  0  0  0
  -22.7706  -29.2398   19.8538 H   0  0  0  0  0  0
  -25.1291  -36.1915   25.0818 H   0  0  0  0  0  0
  -20.9989  -28.3288   24.1385 H   0  0  0  0  0  0
  -20.5678  -26.2323   23.3615 H   0  0  0  0  0  0
  -21.6651  -26.7446   22.1202 H   0  0  0  0  0  0
  -19.6918  -25.6297   21.1250 H   0  0  0  0  0  0
  -19.6685  -27.3192   20.6739 H   0  0  0  0  0  0
  -17.4204  -26.6680   21.4032 H   0  0  0  0  0  0
  -18.0339  -26.0071   22.9023 H   0  0  0  0  0  0
  -19.7941  -30.7281   24.2263 H   0  0  0  0  0  0
  -17.5019  -31.6267   24.5168 H   0  0  0  0  0  0
  -15.5357  -30.2990   23.7651 H   0  0  0  0  0  0
  -15.8683  -28.0816   22.7084 H   0  0  0  0  0  0
  -24.5913  -30.7062   25.7771 H   0  0  0  0  0  0
  -24.8901  -32.2890   26.4850 H   0  0  0  0  0  0
  -25.8036  -30.8920   27.0231 H   0  0  0  0  0  0
  -26.2943  -29.6738   24.1228 H   0  0  0  0  0  0
  -27.4023  -29.7259   25.4740 H   0  0  0  0  0  0
  -27.8827  -30.4269   23.9472 H   0  0  0  0  0  0
  -27.2670  -33.3625   26.2067 H   0  0  0  0  0  0
  -28.3875  -32.6870   25.0332 H   0  0  0  0  0  0
  -28.0724  -31.8453   26.5424 H   0  0  0  0  0  0
  -28.2582  -38.0104   24.7534 H   0  0  0  0  0  0
  -28.1091  -36.2638   24.6253 H   0  0  0  0  0  0
  -27.2303  -37.1397   25.8864 H   0  0  0  0  0  0
  -20.9414  -29.8762   21.6841 H   0  0  0  0  0  0
  -26.0162  -38.2842   24.1431 H   0  0  0  0  0  0
  -30.6547  -20.0709   19.0935 H   0  0  0  0  0  0
  -31.0025  -17.6482   19.2109 H   0  0  0  0  0  0
  -27.9157  -19.8691   22.3285 H   0  0  0  0  0  0
  -27.2502  -25.2319   21.5568 H   0  0  0  0  0  0
  -30.4956  -22.9806   19.9853 H   0  0  0  0  0  0
  -29.1968  -22.6646   18.7920 H   0  0  0  0  0  0
  -28.4623  -18.7192   24.3796 H   0  0  0  0  0  0
  -27.4418  -17.3813   24.9113 H   0  0  0  0  0  0
  -26.7534  -18.6604   23.9051 H   0  0  0  0  0  0
  -28.9309  -15.3704   21.3927 H   0  0  0  0  0  0
  1 25  1  0  0  0
  1 30  2  0  0  0
  1 84  1  0  0  0
  2  3  1  0  0  0
  2 25  1  0  0  0
  2 87  1  0  0  0
  2 88  1  0  0  0
  3  4  1  0  0  0
  3 89  1  0  0  0
  3 90  1  0  0  0
  4  5  1  0  0  0
  4 91  1  0  0  0
  4 92  1  0  0  0
  5  6  1  0  0  0
  5 26  1  0  0  0
  5 93  1  0  0  0
  6 25  1  0  0  0
  6 94  1  0  0  0
  6 95  1  0  0  0
  7  8  2  0  0  0
  7 26  1  0  0  0
  7 29  1  0  0  0
  8  9  1  0  0  0
  8 22  1  0  0  0
  9 10  1  0  0  0
  9 27  2  0  0  0
 10 11  2  0  0  0
 10 15  1  0  0  0
 11 12  1  0  0  0
 11 96  1  0  0  0
 12 13  2  0  0  0
 12 97  1  0  0  0
 13 14  1  0  0  0
 13 31  1  0  0  0
 14 15  2  0  0  0
 14 98  1  0  0  0
 15 99  1  0  0  0
 16 17  2  0  0  0
 16 21  1  0  0  0
 16 31  1  0  0  0
 17 18  1  0  0  0
 17100  1  0  0  0
 18 19  2  0  0  0
 18101  1  0  0  0
 19 20  1  0  0  0
 19 24  1  0  0  0
 20 21  2  0  0  0
 20102  1  0  0  0
 21 23  1  0  0  0
 22 28  1  0  0  0
 22 32  2  0  0  0
 26 27  1  0  0  0
 28103  1  0  0  0
 28104  1  0  0  0
 29105  1  0  0  0
 29106  1  0  0  0
 33 34  1  0  0  0
 33 66  1  0  0  0
 33 70  2  0  0  0
 34 36  1  0  0  0
 34 59  1  0  0  0
 34107  1  0  0  0
 35 44  2  0  0  0
 35 45  1  0  0  0
 35 68  1  0  0  0
 36 56  1  0  0  0
 36108  1  0  0  0
 37 39  1  0  0  0
 37 47  1  0  0  0
 37 66  1  0  0  0
 37109  1  0  0  0
 38 43  2  0  0  0
 38 46  1  0  0  0
 38 47  1  0  0  0
 39 64  1  0  0  0
 39 67  2  0  0  0
 40 52  1  0  0  0
 40 53  2  0  0  0
 40 58  1  0  0  0
 41110  1  0  0  0
 41111  1  0  0  0
 41112  1  0  0  0
 41 48  1  0  0  0
 42 43  1  0  0  0
 42 66  1  0  0  0
 42113  1  0  0  0
 42114  1  0  0  0
 43 44  1  0  0  0
 44115  1  0  0  0
 45 46  2  0  0  0
 45116  1  0  0  0
 46117  1  0  0  0
 47118  1  0  0  0
 47119  1  0  0  0
 48 56  1  0  0  0
 48 65  1  0  0  0
 48120  1  0  0  0
 49 50  1  0  0  0
 49 53  1  0  0  0
 49 64  1  0  0  0
 49121  1  0  0  0
 50 51  1  0  0  0
 50122  1  0  0  0
 50123  1  0  0  0
 51 52  1  0  0  0
 51124  1  0  0  0
 51125  1  0  0  0
 52126  1  0  0  0
 52127  1  0  0  0
 53 54  1  0  0  0
 54 55  2  0  0  0
 54128  1  0  0  0
 55 57  1  0  0  0
 55129  1  0  0  0
 56 69  2  0  0  0
 57 58  2  0  0  0
 57130  1  0  0  0
 58131  1  0  0  0
 59 60  1  0  0  0
 59 61  1  0  0  0
 59 62  1  0  0  0
 60132  1  0  0  0
 60133  1  0  0  0
 60134  1  0  0  0
 61135  1  0  0  0
 61136  1  0  0  0
 61137  1  0  0  0
 62138  1  0  0  0
 62139  1  0  0  0
 62140  1  0  0  0
 63 65  1  0  0  0
 63141  1  0  0  0
 63142  1  0  0  0
 63143  1  0  0  0
 64144  1  0  0  0
 65145  1  0  0  0
 68 79  1  0  0  0
 71 72  2  0  0  0
 71 75  1  0  0  0
 71146  1  0  0  0
 72 76  1  0  0  0
 72147  1  0  0  0
 73 74  1  0  0  0
 73 75  2  0  0  0
 73148  1  0  0  0
 74 76  2  0  0  0
 74 80  1  0  0  0
 75 83  1  0  0  0
 76 84  1  0  0  0
 77 78  1  0  0  0
 77 79  2  0  0  0
 77 81  1  0  0  0
 78 83  1  0  0  0
 78 85  2  0  0  0
 79149  1  0  0  0
 80 82  1  0  0  0
 80 86  2  0  0  0
 81 83  1  0  0  0
 81150  1  0  0  0
 81151  1  0  0  0
 82152  1  0  0  0
 82153  1  0  0  0
 82154  1  0  0  0
 84155  1  0  0  0
M  ISO  4   1 100  68 101  79 101  84 100
M  END
> <chiral flag>
0

> <version>
0

> <s_m_source_file>
/data/baiqing/PycharmProjects/Reinvent-master-3.2/result/LINK_invent/BTK/process_docking_weight1_custom_product_contain_oxygen_bond_distance_aromatic_linkinvent_7_9_3/rearranged_h_0074.sdf

> <i_m_source_file_index>
31

> <r_mmod_Potential_Energy-OPLS-2005>
257.891174316406

> <r_mmod_Stretch_Energy-OPLS-2005>
113.704444885254

> <r_mmod_Bend_Energy-OPLS-2005>
272.292358398438

> <r_mmod_Torsional_Energy-OPLS-2005>
251.012771606445

> <r_mmod_Improper_Torsional_Energy-OPLS-2005>
3.07366871833801

> <r_mmod_Van_der_Waal_Energy-OPLS-2005>
138.987762451172

> <r_mmod_Electrostatic_Energy-OPLS-2005>
-395.087036132812

> <r_mmod_Solvation_Energy-OPLS-2005>
-213.341415405273

> <b_mmod_Minimization_Converged-OPLS-2005>
0

> <r_mmod_RMS_Derivative-OPLS-2005>
0.51182222366333

$$$$
32
                    3D
 Structure written by MMmdl.
152160  0  0  1  0            999 V2000
  -30.6155  -14.6567   20.4910 C   0  0  0  0  0  0
  -30.4405  -12.4016   19.4537 C   0  0  0  0  0  0
  -29.5084  -12.5066   18.2255 C   0  0  0  0  0  0
  -28.0313  -12.3429   18.6383 C   0  0  0  0  0  0
  -27.6516  -13.2180   19.8625 C   0  0  2  0  0  0
  -28.6981  -13.0809   20.9919 C   0  0  0  0  0  0
  -25.2542  -13.8163   20.5691 C   0  0  0  0  0  0
  -24.1811  -13.0420   20.9167 C   0  0  0  0  0  0
  -24.6392  -11.6898   20.8726 C   0  0  0  0  0  0
  -23.9065  -10.4283   21.0397 C   0  0  0  0  0  0
  -24.3616   -9.4203   21.9179 C   0  0  0  0  0  0
  -23.6290   -8.2240   22.0754 C   0  0  0  0  0  0
  -22.4272   -8.0278   21.3544 C   0  0  0  0  0  0
  -21.9905   -9.0251   20.4646 C   0  0  0  0  0  0
  -22.7235  -10.2127   20.3050 C   0  0  0  0  0  0
  -21.6852   -6.0733   22.5279 C   0  0  0  0  0  0
  -21.4014   -6.5637   23.8213 C   0  0  0  0  0  0
  -21.3659   -5.6791   24.9175 C   0  0  0  0  0  0
  -21.6044   -4.3053   24.7225 C   0  0  0  0  0  0
  -21.8820   -3.8145   23.4347 C   0  0  0  0  0  0
  -21.9193   -4.6961   22.3402 C   0  0  0  0  0  0
  -22.7836  -13.5216   21.1843 C   0  0  0  0  0  0
  -22.1662   -4.2147   21.0980 F   0  0  0  0  0  0
  -21.5628   -3.4537   25.7738 F   0  0  0  0  0  0
  -30.0124  -13.4264   20.4267 N   0  0  0  0  0  0
  -26.2984  -12.9356   20.3331 N   0  0  0  0  0  0
  -25.9326  -11.6506   20.5759 N   0  0  0  0  0  0
  -22.0486  -12.8211   22.0408 N   0  0  0  0  0  0
  -25.4197  -15.1892   20.4185 N   0  0  0  0  0  0
  -31.7839  -14.8154   20.1246 O   0  0  0  0  0  0
  -21.6637   -6.8876   21.4242 O   0  0  0  0  0  0
  -22.3517  -14.5526   20.6703 O   0  0  0  0  0  0
  -24.6259  -31.8596   23.2019 C   0  0  0  0  0  0
  -25.9106  -32.4778   23.8351 C   0  0  1  0  0  0
  -27.2257  -27.3166   20.1247 C   0  0  0  0  0  0
  -25.5921  -33.8579   24.2279 N   0  0  0  0  0  0
  -23.4201  -30.4820   21.5445 C   0  0  2  0  0  0
  -24.8677  -28.9336   20.1141 C   0  0  0  0  0  0
  -22.7473  -29.4622   22.4938 C   0  0  0  0  0  0
  -18.0286  -28.1385   22.8487 C   0  0  0  0  0  0
  -24.1489  -36.7295   23.2639 C   0  0  0  0  0  0
  -25.9608  -30.7896   21.3733 C   0  0  0  0  0  0
  -26.0361  -29.4153   20.7186 C   0  0  0  0  0  0
  -27.2197  -28.6192   20.7121 C   0  0  0  0  0  0
  -26.0389  -26.8898   19.4895 C   0  0  0  0  0  0
  -24.8709  -27.6761   19.4902 C   0  0  0  0  0  0
  -23.6357  -29.8143   20.1608 C   0  0  0  0  0  0
  -25.4114  -36.3085   24.0329 C   0  0  1  0  0  0
  -20.5885  -28.3689   23.1284 C   0  0  2  0  0  0
  -20.6775  -26.9413   22.5409 C   0  0  0  0  0  0
  -19.5750  -26.6385   21.5212 C   0  0  0  0  0  0
  -18.1931  -26.7927   22.1627 C   0  0  0  0  0  0
  -19.1538  -28.8854   23.2881 C   0  0  0  0  0  0
  -18.9461  -30.1457   23.8897 C   0  0  0  0  0  0
  -17.6461  -30.6587   24.0563 C   0  0  0  0  0  0
  -25.9050  -34.9452   23.5105 C   0  0  0  0  0  0
  -16.5352  -29.9086   23.6329 C   0  0  0  0  0  0
  -16.7273  -28.6503   23.0351 C   0  0  0  0  0  0
  -26.4492  -31.6588   25.0721 C   0  0  0  0  0  0
  -25.3727  -31.3725   26.1450 C   0  0  0  0  0  0
  -27.0336  -30.3013   24.6173 C   0  0  0  0  0  0
  -27.6053  -32.4322   25.7491 C   0  0  0  0  0  0
  -27.5578  -37.1805   24.8467 C   0  0  0  0  0  0
  -21.4187  -29.3043   22.3680 N   0  0  0  0  0  0
  -26.4294  -37.3777   23.9405 N   0  0  0  0  0  0
  -24.6877  -31.0605   22.0970 N   0  0  0  0  0  0
  -23.4196  -28.8162   23.3019 O   0  0  0  0  0  0
  -28.3457  -26.4730   20.1391 O   0  0  0  0  0  0
  -26.5620  -34.8919   22.4673 O   0  0  0  0  0  0
  -23.5422  -32.1394   23.7346 O   0  0  0  0  0  0
  -31.0547  -19.3145   20.2511 C   0  0  0  0  0  0
  -31.0803  -17.8996   20.4544 C   0  0  0  0  0  0
  -28.6531  -19.3216   20.3500 C   0  0  0  0  0  0
  -29.8447  -20.0703   20.1682 C   0  0  0  0  0  0
  -29.8835  -17.1516   20.5981 C   0  0  0  0  0  0
  -28.6778  -17.9072   20.5594 C   0  0  0  0  0  0
  -29.8777  -21.5398   19.7662 C   0  0  0  0  0  0
  -29.1464  -24.0218   19.8643 C   0  0  0  0  0  0
  -28.1516  -25.0493   20.5329 C   0  0  0  0  0  0
  -29.7921  -15.7042   20.8071 N   0  0  0  0  0  0
  -29.1077  -22.5813   20.2580 N   0  0  0  0  0  0
  -30.7690  -21.8112   18.8069 N   0  3  0  0  0  0
  -29.9485  -24.4192   19.0077 O   0  0  0  0  0  0
  -27.5037  -17.2455   20.6988 F   0  0  0  0  0  0
  -31.4809  -12.5313   19.1501 H   0  0  0  0  0  0
  -30.3810  -11.4079   19.9004 H   0  0  0  0  0  0
  -29.7745  -11.7509   17.4851 H   0  0  0  0  0  0
  -29.6478  -13.4731   17.7385 H   0  0  0  0  0  0
  -27.8713  -11.2903   18.8747 H   0  0  0  0  0  0
  -27.3761  -12.5669   17.7957 H   0  0  0  0  0  0
  -27.6635  -14.2512   19.5153 H   0  0  0  0  0  0
  -28.7129  -12.0608   21.3787 H   0  0  0  0  0  0
  -28.4426  -13.7163   21.8414 H   0  0  0  0  0  0
  -25.2763   -9.5680   22.4750 H   0  0  0  0  0  0
  -23.9999   -7.4633   22.7475 H   0  0  0  0  0  0
  -21.0835   -8.8770   19.8953 H   0  0  0  0  0  0
  -22.3696  -10.9666   19.6158 H   0  0  0  0  0  0
  -21.2007   -7.6146   23.9716 H   0  0  0  0  0  0
  -21.1479   -6.0520   25.9078 H   0  0  0  0  0  0
  -22.0599   -2.7607   23.2848 H   0  0  0  0  0  0
  -22.4104  -11.9871   22.4791 H   0  0  0  0  0  0
  -21.1109  -13.1244   22.2625 H   0  0  0  0  0  0
  -24.6526  -15.8351   20.5652 H   0  0  0  0  0  0
  -26.2866  -15.6648   20.1971 H   0  0  0  0  0  0
  -26.7174  -32.5450   23.1100 H   0  0  0  0  0  0
  -25.0066  -33.9724   25.0422 H   0  0  0  0  0  0
  -22.7140  -31.3024   21.4000 H   0  0  0  0  0  0
  -23.3747  -35.9633   23.3311 H   0  0  0  0  0  0
  -24.3579  -36.8906   22.2052 H   0  0  0  0  0  0
  -23.7249  -37.6503   23.6655 H   0  0  0  0  0  0
  -26.0910  -31.5514   20.6034 H   0  0  0  0  0  0
  -26.8416  -30.8406   22.0017 H   0  0  0  0  0  0
  -28.1180  -28.9859   21.1890 H   0  0  0  0  0  0
  -26.0016  -25.9364   18.9832 H   0  0  0  0  0  0
  -23.9781  -27.3047   19.0062 H   0  0  0  0  0  0
  -23.7552  -30.5895   19.4030 H   0  0  0  0  0  0
  -22.7557  -29.2433   19.8591 H   0  0  0  0  0  0
  -25.1295  -36.1939   25.0822 H   0  0  0  0  0  0
  -20.9978  -28.3263   24.1405 H   0  0  0  0  0  0
  -20.5678  -26.2298   23.3608 H   0  0  0  0  0  0
  -21.6644  -26.7445   22.1200 H   0  0  0  0  0  0
  -19.6911  -25.6296   21.1240 H   0  0  0  0  0  0
  -19.6684  -27.3196   20.6742 H   0  0  0  0  0  0
  -17.4198  -26.6670   21.4033 H   0  0  0  0  0  0
  -18.0336  -26.0071   22.9026 H   0  0  0  0  0  0
  -19.7937  -30.7273   24.2265 H   0  0  0  0  0  0
  -17.5015  -31.6268   24.5165 H   0  0  0  0  0  0
  -15.5353  -30.2987   23.7653 H   0  0  0  0  0  0
  -15.8674  -28.0822   22.7065 H   0  0  0  0  0  0
  -24.5899  -30.7078   25.7779 H   0  0  0  0  0  0
  -24.8923  -32.2891   26.4882 H   0  0  0  0  0  0
  -25.8054  -30.8897   27.0221 H   0  0  0  0  0  0
  -26.2909  -29.6762   24.1202 H   0  0  0  0  0  0
  -27.4042  -29.7272   25.4675 H   0  0  0  0  0  0
  -27.8774  -30.4303   23.9391 H   0  0  0  0  0  0
  -27.2667  -33.3625   26.2063 H   0  0  0  0  0  0
  -28.3865  -32.6876   25.0319 H   0  0  0  0  0  0
  -28.0717  -31.8449   26.5410 H   0  0  0  0  0  0
  -28.2604  -38.0094   24.7504 H   0  0  0  0  0  0
  -28.1067  -36.2625   24.6308 H   0  0  0  0  0  0
  -27.2294  -37.1472   25.8870 H   0  0  0  0  0  0
  -20.9364  -29.8767   21.6891 H   0  0  0  0  0  0
  -26.0177  -38.2855   24.1394 H   0  0  0  0  0  0
  -32.0028  -19.8209   20.1293 H   0  0  0  0  0  0
  -32.0355  -17.3961   20.4915 H   0  0  0  0  0  0
  -27.6950  -19.8156   20.2845 H   0  0  0  0  0  0
  -28.2880  -24.9873   21.6125 H   0  0  0  0  0  0
  -27.1421  -24.6907   20.3421 H   0  0  0  0  0  0
  -28.8648  -15.4061   21.0663 H   0  0  0  0  0  0
  -28.4674  -22.2678   20.9716 H   0  0  0  0  0  0
  -31.2946  -21.0728   18.3666 H   0  0  0  0  0  0
  -30.8580  -22.7668   18.4813 H   0  0  0  0  0  0
  1 25  1  0  0  0
  1 30  2  0  0  0
  1 80  1  0  0  0
  2  3  1  0  0  0
  2 25  1  0  0  0
  2 85  1  0  0  0
  2 86  1  0  0  0
  3  4  1  0  0  0
  3 87  1  0  0  0
  3 88  1  0  0  0
  4  5  1  0  0  0
  4 89  1  0  0  0
  4 90  1  0  0  0
  5  6  1  0  0  0
  5 26  1  0  0  0
  5 91  1  0  0  0
  6 25  1  0  0  0
  6 92  1  0  0  0
  6 93  1  0  0  0
  7  8  2  0  0  0
  7 26  1  0  0  0
  7 29  1  0  0  0
  8  9  1  0  0  0
  8 22  1  0  0  0
  9 10  1  0  0  0
  9 27  2  0  0  0
 10 11  2  0  0  0
 10 15  1  0  0  0
 11 12  1  0  0  0
 11 94  1  0  0  0
 12 13  2  0  0  0
 12 95  1  0  0  0
 13 14  1  0  0  0
 13 31  1  0  0  0
 14 15  2  0  0  0
 14 96  1  0  0  0
 15 97  1  0  0  0
 16 17  2  0  0  0
 16 21  1  0  0  0
 16 31  1  0  0  0
 17 18  1  0  0  0
 17 98  1  0  0  0
 18 19  2  0  0  0
 18 99  1  0  0  0
 19 20  1  0  0  0
 19 24  1  0  0  0
 20 21  2  0  0  0
 20100  1  0  0  0
 21 23  1  0  0  0
 22 28  1  0  0  0
 22 32  2  0  0  0
 26 27  1  0  0  0
 28101  1  0  0  0
 28102  1  0  0  0
 29103  1  0  0  0
 29104  1  0  0  0
 33 34  1  0  0  0
 33 66  1  0  0  0
 33 70  2  0  0  0
 34 36  1  0  0  0
 34 59  1  0  0  0
 34105  1  0  0  0
 35 44  2  0  0  0
 35 45  1  0  0  0
 35 68  1  0  0  0
 36 56  1  0  0  0
 36106  1  0  0  0
 37 39  1  0  0  0
 37 47  1  0  0  0
 37 66  1  0  0  0
 37107  1  0  0  0
 38 43  2  0  0  0
 38 46  1  0  0  0
 38 47  1  0  0  0
 39 64  1  0  0  0
 39 67  2  0  0  0
 40 52  1  0  0  0
 40 53  2  0  0  0
 40 58  1  0  0  0
 41108  1  0  0  0
 41109  1  0  0  0
 41110  1  0  0  0
 41 48  1  0  0  0
 42 43  1  0  0  0
 42 66  1  0  0  0
 42111  1  0  0  0
 42112  1  0  0  0
 43 44  1  0  0  0
 44113  1  0  0  0
 45 46  2  0  0  0
 45114  1  0  0  0
 46115  1  0  0  0
 47116  1  0  0  0
 47117  1  0  0  0
 48 56  1  0  0  0
 48 65  1  0  0  0
 48118  1  0  0  0
 49 50  1  0  0  0
 49 53  1  0  0  0
 49 64  1  0  0  0
 49119  1  0  0  0
 50 51  1  0  0  0
 50120  1  0  0  0
 50121  1  0  0  0
 51 52  1  0  0  0
 51122  1  0  0  0
 51123  1  0  0  0
 52124  1  0  0  0
 52125  1  0  0  0
 53 54  1  0  0  0
 54 55  2  0  0  0
 54126  1  0  0  0
 55 57  1  0  0  0
 55127  1  0  0  0
 56 69  2  0  0  0
 57 58  2  0  0  0
 57128  1  0  0  0
 58129  1  0  0  0
 59 60  1  0  0  0
 59 61  1  0  0  0
 59 62  1  0  0  0
 60130  1  0  0  0
 60131  1  0  0  0
 60132  1  0  0  0
 61133  1  0  0  0
 61134  1  0  0  0
 61135  1  0  0  0
 62136  1  0  0  0
 62137  1  0  0  0
 62138  1  0  0  0
 63 65  1  0  0  0
 63139  1  0  0  0
 63140  1  0  0  0
 63141  1  0  0  0
 64142  1  0  0  0
 65143  1  0  0  0
 68 79  1  0  0  0
 71 72  2  0  0  0
 71 74  1  0  0  0
 71144  1  0  0  0
 72 75  1  0  0  0
 72145  1  0  0  0
 73 74  2  0  0  0
 73 76  1  0  0  0
 73146  1  0  0  0
 74 77  1  0  0  0
 75 76  2  0  0  0
 75 80  1  0  0  0
 76 84  1  0  0  0
 77 81  1  0  0  0
 77 82  2  0  0  0
 78 79  1  0  0  0
 78 81  1  0  0  0
 78 83  2  0  0  0
 79147  1  0  0  0
 79148  1  0  0  0
 80149  1  0  0  0
 81150  1  0  0  0
 82151  1  0  0  0
 82152  1  0  0  0
M  CHG  1  82   1
M  ISO  4   1 100  68 101  79 101  80 100
M  END
> <chiral flag>
0

> <version>
0

> <s_m_source_file>
/data/baiqing/PycharmProjects/Reinvent-master-3.2/result/LINK_invent/BTK/process_docking_weight1_custom_product_contain_oxygen_bond_distance_aromatic_linkinvent_7_9_3/rearranged_h_0074.sdf

> <i_m_source_file_index>
32

> <r_mmod_Potential_Energy-OPLS-2005>
-295.271911621094

> <r_mmod_Stretch_Energy-OPLS-2005>
84.8024520874023

> <r_mmod_Bend_Energy-OPLS-2005>
146.015975952148

> <r_mmod_Torsional_Energy-OPLS-2005>
224.659088134766

> <r_mmod_Improper_Torsional_Energy-OPLS-2005>
4.950608253479

> <r_mmod_Van_der_Waal_Energy-OPLS-2005>
155.929885864258

> <r_mmod_Electrostatic_Energy-OPLS-2005>
-497.979583740234

> <r_mmod_Solvation_Energy-OPLS-2005>
-464.569702148438

> <b_mmod_Minimization_Converged-OPLS-2005>
0

> <r_mmod_RMS_Derivative-OPLS-2005>
0.166535586118698

$$$$
33
                    3D
 Structure written by MMmdl.
158167  0  0  1  0            999 V2000
  -30.6488  -14.5755   20.5048 C   0  0  0  0  0  0
  -30.4358  -12.3488   19.4618 C   0  0  0  0  0  0
  -29.5066  -12.4919   18.2352 C   0  0  0  0  0  0
  -28.0305  -12.3352   18.6466 C   0  0  0  0  0  0
  -27.6608  -13.2053   19.8764 C   0  0  2  0  0  0
  -28.7029  -13.0422   21.0087 C   0  0  0  0  0  0
  -25.2597  -13.8133   20.5711 C   0  0  0  0  0  0
  -24.1854  -13.0424   20.9220 C   0  0  0  0  0  0
  -24.6405  -11.6894   20.8775 C   0  0  0  0  0  0
  -23.9061  -10.4295   21.0430 C   0  0  0  0  0  0
  -24.3604   -9.4199   21.9201 C   0  0  0  0  0  0
  -23.6288   -8.2229   22.0744 C   0  0  0  0  0  0
  -22.4276   -8.0276   21.3526 C   0  0  0  0  0  0
  -21.9922   -9.0255   20.4628 C   0  0  0  0  0  0
  -22.7243  -10.2142   20.3063 C   0  0  0  0  0  0
  -21.6847   -6.0743   22.5278 C   0  0  0  0  0  0
  -21.4002   -6.5646   23.8209 C   0  0  0  0  0  0
  -21.3662   -5.6799   24.9176 C   0  0  0  0  0  0
  -21.6050   -4.3061   24.7224 C   0  0  0  0  0  0
  -21.8818   -3.8155   23.4341 C   0  0  0  0  0  0
  -21.9187   -4.6974   22.3399 C   0  0  0  0  0  0
  -22.7884  -13.5244   21.1878 C   0  0  0  0  0  0
  -22.1666   -4.2152   21.0980 F   0  0  0  0  0  0
  -21.5636   -3.4546   25.7737 F   0  0  0  0  0  0
  -30.0312  -13.3571   20.4577 N   0  0  0  0  0  0
  -26.3028  -12.9302   20.3403 N   0  0  0  0  0  0
  -25.9326  -11.6464   20.5812 N   0  0  0  0  0  0
  -22.0511  -12.8237   22.0427 N   0  0  0  0  0  0
  -25.4338  -15.1843   20.4082 N   0  0  0  0  0  0
  -31.7774  -14.7610   20.0423 O   0  0  0  0  0  0
  -21.6625   -6.8881   21.4240 O   0  0  0  0  0  0
  -22.3587  -14.5564   20.6735 O   0  0  0  0  0  0
  -24.6216  -31.8621   23.2034 C   0  0  0  0  0  0
  -25.9081  -32.4787   23.8359 C   0  0  1  0  0  0
  -27.2319  -27.3871   20.1091 C   0  0  0  0  0  0
  -25.5910  -33.8588   24.2290 N   0  0  0  0  0  0
  -23.4136  -30.4852   21.5435 C   0  0  2  0  0  0
  -24.8655  -28.9576   20.0928 C   0  0  0  0  0  0
  -22.7461  -29.4636   22.4935 C   0  0  0  0  0  0
  -18.0284  -28.1381   22.8488 C   0  0  0  0  0  0
  -24.1488  -36.7309   23.2644 C   0  0  0  0  0  0
  -25.9482  -30.8218   21.3585 C   0  0  0  0  0  0
  -26.0306  -29.4628   20.6828 C   0  0  0  0  0  0
  -27.2265  -28.6970   20.6646 C   0  0  0  0  0  0
  -26.0573  -26.9223   19.4827 C   0  0  0  0  0  0
  -24.8799  -27.6952   19.4736 C   0  0  0  0  0  0
  -23.6227  -29.8206   20.1561 C   0  0  0  0  0  0
  -25.4106  -36.3091   24.0338 C   0  0  1  0  0  0
  -20.5877  -28.3681   23.1290 C   0  0  2  0  0  0
  -20.6768  -26.9403   22.5415 C   0  0  0  0  0  0
  -19.5748  -26.6381   21.5215 C   0  0  0  0  0  0
  -18.1931  -26.7923   22.1630 C   0  0  0  0  0  0
  -19.1534  -28.8849   23.2889 C   0  0  0  0  0  0
  -18.9461  -30.1453   23.8903 C   0  0  0  0  0  0
  -17.6461  -30.6588   24.0560 C   0  0  0  0  0  0
  -25.9036  -34.9457   23.5114 C   0  0  0  0  0  0
  -16.5350  -29.9085   23.6330 C   0  0  0  0  0  0
  -16.7271  -28.6503   23.0347 C   0  0  0  0  0  0
  -26.4483  -31.6575   25.0706 C   0  0  0  0  0  0
  -25.3740  -31.3697   26.1448 C   0  0  0  0  0  0
  -27.0315  -30.3003   24.6121 C   0  0  0  0  0  0
  -27.6046  -32.4299   25.7478 C   0  0  0  0  0  0
  -27.5572  -37.1812   24.8471 C   0  0  0  0  0  0
  -21.4174  -29.3040   22.3694 N   0  0  0  0  0  0
  -26.4295  -37.3773   23.9401 N   0  0  0  0  0  0
  -24.6794  -31.0701   22.0933 N   0  0  0  0  0  0
  -23.4210  -28.8180   23.2998 O   0  0  0  0  0  0
  -28.2599  -26.4677   20.3283 O   0  0  0  0  0  0
  -26.5608  -34.8925   22.4680 O   0  0  0  0  0  0
  -23.5393  -32.1376   23.7409 O   0  0  0  0  0  0
  -31.9319  -19.7713   20.7301 C   0  0  0  0  0  0
  -31.4481  -18.4571   20.5577 C   0  0  0  0  0  0
  -31.0532  -20.8763   20.7488 C   0  0  0  0  0  0
  -29.1860  -19.3488   20.4265 C   0  0  0  0  0  0
  -30.0699  -18.2223   20.3812 C   0  0  0  0  0  0
  -29.6590  -20.6884   20.6283 C   0  0  0  0  0  0
  -27.4989  -23.2183   22.2156 C   0  0  0  0  0  0
  -28.1375  -24.1488   21.2630 C   0  0  0  0  0  0
  -27.9325  -21.7914   21.9085 C   0  0  0  0  0  0
  -27.9587  -25.5189   21.3261 C   0  0  0  0  0  0
  -28.9089  -23.2112   20.3110 C   0  0  0  0  0  0
  -27.3613  -26.1932   22.5748 C   0  0  0  0  0  0
  -29.5635  -16.8032   20.0113 C   0  0  0  0  0  0
  -28.7636  -21.8143   20.8504 N   0  0  0  0  0  0
  -29.8591  -15.6166   20.8644 N   0  0  0  0  0  0
  -26.6632  -23.4734   23.0943 O   0  0  0  0  0  0
  -27.5551  -20.8005   22.5537 O   0  0  0  0  0  0
  -30.3623  -11.3491   19.8927 H   0  0  0  0  0  0
  -31.4776  -12.4642   19.1584 H   0  0  0  0  0  0
  -29.7644  -11.7431   17.4850 H   0  0  0  0  0  0
  -29.6566  -13.4656   17.7645 H   0  0  0  0  0  0
  -27.8705  -11.2829   18.8843 H   0  0  0  0  0  0
  -27.3724  -12.5601   17.8061 H   0  0  0  0  0  0
  -27.6867  -14.2421   19.5418 H   0  0  0  0  0  0
  -28.4537  -13.6809   21.8575 H   0  0  0  0  0  0
  -28.6960  -12.0219   21.3953 H   0  0  0  0  0  0
  -25.2747   -9.5679   22.4781 H   0  0  0  0  0  0
  -23.9996   -7.4623   22.7465 H   0  0  0  0  0  0
  -21.0853   -8.8786   19.8925 H   0  0  0  0  0  0
  -22.3717  -10.9685   19.6175 H   0  0  0  0  0  0
  -21.1982   -7.6152   23.9721 H   0  0  0  0  0  0
  -21.1494   -6.0524   25.9078 H   0  0  0  0  0  0
  -22.0594   -2.7614   23.2838 H   0  0  0  0  0  0
  -22.4114  -11.9871   22.4777 H   0  0  0  0  0  0
  -21.1118  -13.1234   22.2606 H   0  0  0  0  0  0
  -24.6713  -15.8439   20.5170 H   0  0  0  0  0  0
  -26.2866  -15.6149   20.0758 H   0  0  0  0  0  0
  -26.7154  -32.5473   23.1117 H   0  0  0  0  0  0
  -25.0042  -33.9733   25.0423 H   0  0  0  0  0  0
  -22.7049  -31.3045   21.4043 H   0  0  0  0  0  0
  -23.3738  -35.9656   23.3328 H   0  0  0  0  0  0
  -24.3577  -36.8905   22.2055 H   0  0  0  0  0  0
  -23.7266  -37.6531   23.6646 H   0  0  0  0  0  0
  -26.0728  -31.5962   20.6003 H   0  0  0  0  0  0
  -26.8303  -30.8631   21.9866 H   0  0  0  0  0  0
  -28.1128  -29.0653   21.1614 H   0  0  0  0  0  0
  -26.0371  -25.9281   19.0593 H   0  0  0  0  0  0
  -23.9853  -27.3002   19.0129 H   0  0  0  0  0  0
  -23.7218  -30.5989   19.3990 H   0  0  0  0  0  0
  -22.7484  -29.2362   19.8637 H   0  0  0  0  0  0
  -25.1287  -36.1947   25.0835 H   0  0  0  0  0  0
  -20.9981  -28.3246   24.1402 H   0  0  0  0  0  0
  -20.5658  -26.2288   23.3611 H   0  0  0  0  0  0
  -21.6639  -26.7419   22.1216 H   0  0  0  0  0  0
  -19.6906  -25.6295   21.1243 H   0  0  0  0  0  0
  -19.6688  -27.3189   20.6747 H   0  0  0  0  0  0
  -17.4194  -26.6668   21.4039 H   0  0  0  0  0  0
  -18.0336  -26.0062   22.9027 H   0  0  0  0  0  0
  -19.7937  -30.7272   24.2268 H   0  0  0  0  0  0
  -17.5014  -31.6264   24.5162 H   0  0  0  0  0  0
  -15.5350  -30.2988   23.7660 H   0  0  0  0  0  0
  -15.8671  -28.0833   22.7051 H   0  0  0  0  0  0
  -24.5913  -30.7044   25.7785 H   0  0  0  0  0  0
  -24.8934  -32.2859   26.4892 H   0  0  0  0  0  0
  -25.8084  -30.8868   27.0213 H   0  0  0  0  0  0
  -26.2877  -29.6762   24.1153 H   0  0  0  0  0  0
  -27.4040  -29.7231   25.4598 H   0  0  0  0  0  0
  -27.8724  -30.4300   23.9303 H   0  0  0  0  0  0
  -27.2655  -33.3589   26.2076 H   0  0  0  0  0  0
  -28.3846  -32.6882   25.0301 H   0  0  0  0  0  0
  -28.0728  -31.8415   26.5383 H   0  0  0  0  0  0
  -28.2613  -38.0081   24.7465 H   0  0  0  0  0  0
  -28.1043  -36.2614   24.6354 H   0  0  0  0  0  0
  -27.2291  -37.1527   25.8876 H   0  0  0  0  0  0
  -20.9343  -29.8757   21.6905 H   0  0  0  0  0  0
  -26.0185  -38.2862   24.1363 H   0  0  0  0  0  0
  -32.9929  -19.9329   20.8511 H   0  0  0  0  0  0
  -32.1471  -17.6314   20.5268 H   0  0  0  0  0  0
  -31.4615  -21.8631   20.9150 H   0  0  0  0  0  0
  -28.1235  -19.1812   20.3150 H   0  0  0  0  0  0
  -29.9546  -23.5140   20.2655 H   0  0  0  0  0  0
  -28.4913  -23.2733   19.3063 H   0  0  0  0  0  0
  -27.6691  -25.6934   23.4937 H   0  0  0  0  0  0
  -27.7191  -27.2124   22.7030 H   0  0  0  0  0  0
  -26.2706  -26.2079   22.5344 H   0  0  0  0  0  0
  -28.4766  -16.8518   19.9374 H   0  0  0  0  0  0
  -29.8968  -16.5956   18.9921 H   0  0  0  0  0  0
  -29.0633  -15.3265   21.4109 H   0  0  0  0  0  0
  1 25  1  0  0  0
  1 30  2  0  0  0
  1 85  1  0  0  0
  2  3  1  0  0  0
  2 25  1  0  0  0
  2 88  1  0  0  0
  2 89  1  0  0  0
  3  4  1  0  0  0
  3 90  1  0  0  0
  3 91  1  0  0  0
  4  5  1  0  0  0
  4 92  1  0  0  0
  4 93  1  0  0  0
  5  6  1  0  0  0
  5 26  1  0  0  0
  5 94  1  0  0  0
  6 25  1  0  0  0
  6 95  1  0  0  0
  6 96  1  0  0  0
  7  8  2  0  0  0
  7 26  1  0  0  0
  7 29  1  0  0  0
  8  9  1  0  0  0
  8 22  1  0  0  0
  9 10  1  0  0  0
  9 27  2  0  0  0
 10 11  2  0  0  0
 10 15  1  0  0  0
 11 12  1  0  0  0
 11 97  1  0  0  0
 12 13  2  0  0  0
 12 98  1  0  0  0
 13 14  1  0  0  0
 13 31  1  0  0  0
 14 15  2  0  0  0
 14 99  1  0  0  0
 15100  1  0  0  0
 16 17  2  0  0  0
 16 21  1  0  0  0
 16 31  1  0  0  0
 17 18  1  0  0  0
 17101  1  0  0  0
 18 19  2  0  0  0
 18102  1  0  0  0
 19 20  1  0  0  0
 19 24  1  0  0  0
 20 21  2  0  0  0
 20103  1  0  0  0
 21 23  1  0  0  0
 22 28  1  0  0  0
 22 32  2  0  0  0
 26 27  1  0  0  0
 28104  1  0  0  0
 28105  1  0  0  0
 29106  1  0  0  0
 29107  1  0  0  0
 33 34  1  0  0  0
 33 66  1  0  0  0
 33 70  2  0  0  0
 34 36  1  0  0  0
 34 59  1  0  0  0
 34108  1  0  0  0
 35 44  2  0  0  0
 35 45  1  0  0  0
 35 68  1  0  0  0
 36 56  1  0  0  0
 36109  1  0  0  0
 37 39  1  0  0  0
 37 47  1  0  0  0
 37 66  1  0  0  0
 37110  1  0  0  0
 38 43  2  0  0  0
 38 46  1  0  0  0
 38 47  1  0  0  0
 39 64  1  0  0  0
 39 67  2  0  0  0
 40 52  1  0  0  0
 40 53  2  0  0  0
 40 58  1  0  0  0
 41111  1  0  0  0
 41112  1  0  0  0
 41113  1  0  0  0
 41 48  1  0  0  0
 42 43  1  0  0  0
 42 66  1  0  0  0
 42114  1  0  0  0
 42115  1  0  0  0
 43 44  1  0  0  0
 44116  1  0  0  0
 45 46  2  0  0  0
 45117  1  0  0  0
 46118  1  0  0  0
 47119  1  0  0  0
 47120  1  0  0  0
 48 56  1  0  0  0
 48 65  1  0  0  0
 48121  1  0  0  0
 49 50  1  0  0  0
 49 53  1  0  0  0
 49 64  1  0  0  0
 49122  1  0  0  0
 50 51  1  0  0  0
 50123  1  0  0  0
 50124  1  0  0  0
 51 52  1  0  0  0
 51125  1  0  0  0
 51126  1  0  0  0
 52127  1  0  0  0
 52128  1  0  0  0
 53 54  1  0  0  0
 54 55  2  0  0  0
 54129  1  0  0  0
 55 57  1  0  0  0
 55130  1  0  0  0
 56 69  2  0  0  0
 57 58  2  0  0  0
 57131  1  0  0  0
 58132  1  0  0  0
 59 60  1  0  0  0
 59 61  1  0  0  0
 59 62  1  0  0  0
 60133  1  0  0  0
 60134  1  0  0  0
 60135  1  0  0  0
 61136  1  0  0  0
 61137  1  0  0  0
 61138  1  0  0  0
 62139  1  0  0  0
 62140  1  0  0  0
 62141  1  0  0  0
 63 65  1  0  0  0
 63142  1  0  0  0
 63143  1  0  0  0
 63144  1  0  0  0
 64145  1  0  0  0
 65146  1  0  0  0
 68 80  1  0  0  0
 71 72  2  0  0  0
 71 73  1  0  0  0
 71147  1  0  0  0
 72 75  1  0  0  0
 72148  1  0  0  0
 73 76  2  0  0  0
 73149  1  0  0  0
 74 75  2  0  0  0
 74 76  1  0  0  0
 74150  1  0  0  0
 75 83  1  0  0  0
 76 84  1  0  0  0
 77 78  1  0  0  0
 77 79  1  0  0  0
 77 86  2  0  0  0
 78 80  2  0  0  0
 78 81  1  0  0  0
 79 84  1  0  0  0
 79 87  2  0  0  0
 80 82  1  0  0  0
 81 84  1  0  0  0
 81151  1  0  0  0
 81152  1  0  0  0
 82153  1  0  0  0
 82154  1  0  0  0
 82155  1  0  0  0
 83 85  1  0  0  0
 83156  1  0  0  0
 83157  1  0  0  0
 85158  1  0  0  0
M  ISO  4   1 100  68 101  80 101  85 100
M  END
> <chiral flag>
0

> <version>
0

> <s_m_source_file>
/data/baiqing/PycharmProjects/Reinvent-master-3.2/result/LINK_invent/BTK/process_docking_weight1_custom_product_contain_oxygen_bond_distance_aromatic_linkinvent_7_9_3/rearranged_h_0074.sdf

> <i_m_source_file_index>
33

> <r_mmod_Potential_Energy-OPLS-2005>
201.125961303711

> <r_mmod_Stretch_Energy-OPLS-2005>
65.7961807250977

> <r_mmod_Bend_Energy-OPLS-2005>
150.393783569336

> <r_mmod_Torsional_Energy-OPLS-2005>
323.104217529297

> <r_mmod_Improper_Torsional_Energy-OPLS-2005>
12.1203479766846

> <r_mmod_Van_der_Waal_Energy-OPLS-2005>
153.879364013672

> <r_mmod_Electrostatic_Energy-OPLS-2005>
-304.946685791016

> <r_mmod_Solvation_Energy-OPLS-2005>
-243.195770263672

> <b_mmod_Minimization_Converged-OPLS-2005>
0

> <r_mmod_RMS_Derivative-OPLS-2005>
2.32116889953613

$$$$
34
                    3D
 Structure written by MMmdl.
158166  0  0  1  0            999 V2000
  -30.6898  -14.5453   20.5562 C   0  0  0  0  0  0
  -30.4189  -12.3447   19.4478 C   0  0  0  0  0  0
  -29.4996  -12.5187   18.2207 C   0  0  0  0  0  0
  -28.0218  -12.3668   18.6289 C   0  0  0  0  0  0
  -27.6583  -13.2175   19.8758 C   0  0  2  0  0  0
  -28.7012  -13.0364   21.0043 C   0  0  0  0  0  0
  -25.2552  -13.8167   20.5681 C   0  0  0  0  0  0
  -24.1822  -13.0428   20.9196 C   0  0  0  0  0  0
  -24.6385  -11.6910   20.8742 C   0  0  0  0  0  0
  -23.9043  -10.4296   21.0403 C   0  0  0  0  0  0
  -24.3604   -9.4218   21.9176 C   0  0  0  0  0  0
  -23.6290   -8.2253   22.0749 C   0  0  0  0  0  0
  -22.4276   -8.0284   21.3537 C   0  0  0  0  0  0
  -21.9903   -9.0254   20.4640 C   0  0  0  0  0  0
  -22.7219  -10.2137   20.3047 C   0  0  0  0  0  0
  -21.6851   -6.0733   22.5285 C   0  0  0  0  0  0
  -21.4015   -6.5633   23.8221 C   0  0  0  0  0  0
  -21.3666   -5.6788   24.9185 C   0  0  0  0  0  0
  -21.6041   -4.3051   24.7234 C   0  0  0  0  0  0
  -21.8816   -3.8137   23.4357 C   0  0  0  0  0  0
  -21.9193   -4.6957   22.3410 C   0  0  0  0  0  0
  -22.7859  -13.5237   21.1865 C   0  0  0  0  0  0
  -22.1662   -4.2142   21.0989 F   0  0  0  0  0  0
  -21.5630   -3.4538   25.7744 F   0  0  0  0  0  0
  -30.0255  -13.3549   20.4495 N   0  0  0  0  0  0
  -26.3006  -12.9358   20.3381 N   0  0  0  0  0  0
  -25.9318  -11.6515   20.5801 N   0  0  0  0  0  0
  -22.0485  -12.8229   22.0413 N   0  0  0  0  0  0
  -25.4213  -15.1885   20.4001 N   0  0  0  0  0  0
  -31.8298  -14.6806   20.1015 O   0  0  0  0  0  0
  -21.6641   -6.8877   21.4247 O   0  0  0  0  0  0
  -22.3565  -14.5554   20.6726 O   0  0  0  0  0  0
  -24.6205  -31.8646   23.2121 C   0  0  0  0  0  0
  -25.9065  -32.4819   23.8406 C   0  0  1  0  0  0
  -27.2091  -27.3469   20.1211 C   0  0  0  0  0  0
  -25.5913  -33.8629   24.2343 N   0  0  0  0  0  0
  -23.4139  -30.4898   21.5534 C   0  0  2  0  0  0
  -24.8572  -28.9529   20.1145 C   0  0  0  0  0  0
  -22.7452  -29.4631   22.4977 C   0  0  0  0  0  0
  -18.0276  -28.1376   22.8497 C   0  0  0  0  0  0
  -24.1496  -36.7300   23.2636 C   0  0  0  0  0  0
  -25.9530  -30.7935   21.3897 C   0  0  0  0  0  0
  -26.0201  -29.4220   20.7401 C   0  0  0  0  0  0
  -27.1969  -28.6237   20.7497 C   0  0  0  0  0  0
  -26.0546  -26.9685   19.4027 C   0  0  0  0  0  0
  -24.8734  -27.7260   19.4385 C   0  0  0  0  0  0
  -23.6261  -29.8320   20.1654 C   0  0  0  0  0  0
  -25.4110  -36.3102   24.0346 C   0  0  1  0  0  0
  -20.5877  -28.3680   23.1309 C   0  0  2  0  0  0
  -20.6804  -26.9407   22.5434 C   0  0  0  0  0  0
  -19.5772  -26.6370   21.5245 C   0  0  0  0  0  0
  -18.1942  -26.7899   22.1654 C   0  0  0  0  0  0
  -19.1526  -28.8841   23.2899 C   0  0  0  0  0  0
  -18.9441  -30.1456   23.8906 C   0  0  0  0  0  0
  -17.6440  -30.6594   24.0555 C   0  0  0  0  0  0
  -25.9039  -34.9481   23.5144 C   0  0  0  0  0  0
  -16.5345  -29.9074   23.6345 C   0  0  0  0  0  0
  -16.7262  -28.6496   23.0366 C   0  0  0  0  0  0
  -26.4481  -31.6617   25.0753 C   0  0  0  0  0  0
  -25.3726  -31.3711   26.1483 C   0  0  0  0  0  0
  -27.0342  -30.3060   24.6180 C   0  0  0  0  0  0
  -27.6055  -32.4349   25.7493 C   0  0  0  0  0  0
  -27.5585  -37.1802   24.8475 C   0  0  0  0  0  0
  -21.4169  -29.3056   22.3732 N   0  0  0  0  0  0
  -26.4303  -37.3787   23.9413 N   0  0  0  0  0  0
  -24.6818  -31.0671   22.1076 N   0  0  0  0  0  0
  -23.4210  -28.8081   23.2955 O   0  0  0  0  0  0
  -28.3369  -26.5264   20.1131 O   0  0  0  0  0  0
  -26.5610  -34.8925   22.4703 O   0  0  0  0  0  0
  -23.5371  -32.1433   23.7462 O   0  0  0  0  0  0
  -31.8080  -18.9077   20.5373 C   0  0  0  0  0  0
  -30.7393  -19.8166   20.4065 C   0  0  0  0  0  0
  -31.5763  -17.5374   20.7723 C   0  0  0  0  0  0
  -29.1925  -17.9757   20.8464 C   0  0  0  0  0  0
  -29.4117  -19.3704   20.5642 C   0  0  0  0  0  0
  -30.2588  -17.0266   20.8940 C   0  0  0  0  0  0
  -28.2714  -20.3138   20.3404 C   0  0  0  0  0  0
  -27.1362  -22.5802   20.4288 C   0  0  0  0  0  0
  -28.3277  -25.1399   20.6569 C   0  0  0  0  0  0
  -27.1474  -24.1536   20.2987 C   0  0  2  0  0  0
  -29.9859  -15.6049   21.0507 N   0  0  0  0  0  0
  -28.3014  -21.6882   20.5209 N   0  0  0  0  0  0
  -27.1668  -19.7165   19.8760 N   0  3  0  0  0  0
  -25.9186  -24.5693   21.0149 N   0  3  0  0  0  0
  -26.0056  -22.0696   20.3981 O   0  0  0  0  0  0
  -31.4647  -12.4273   19.1501 H   0  0  0  0  0  0
  -30.3092  -11.3427   19.8658 H   0  0  0  0  0  0
  -29.7531  -11.7884   17.4512 H   0  0  0  0  0  0
  -29.6578  -13.5024   17.7738 H   0  0  0  0  0  0
  -27.8489  -11.3106   18.8399 H   0  0  0  0  0  0
  -27.3693  -12.6212   17.7925 H   0  0  0  0  0  0
  -27.6910  -14.2623   19.5631 H   0  0  0  0  0  0
  -28.6915  -12.0071   21.3688 H   0  0  0  0  0  0
  -28.4604  -13.6598   21.8663 H   0  0  0  0  0  0
  -25.2748   -9.5717   22.4755 H   0  0  0  0  0  0
  -24.0001   -7.4651   22.7468 H   0  0  0  0  0  0
  -21.0835   -8.8757   19.8955 H   0  0  0  0  0  0
  -22.3654  -10.9672   19.6165 H   0  0  0  0  0  0
  -21.2001   -7.6141   23.9726 H   0  0  0  0  0  0
  -21.1494   -6.0519   25.9089 H   0  0  0  0  0  0
  -22.0584   -2.7603   23.2860 H   0  0  0  0  0  0
  -22.4097  -11.9888   22.4804 H   0  0  0  0  0  0
  -21.1108  -13.1280   22.2601 H   0  0  0  0  0  0
  -24.6339  -15.8255   20.4557 H   0  0  0  0  0  0
  -26.2435  -15.6076   19.9872 H   0  0  0  0  0  0
  -26.7108  -32.5497   23.1121 H   0  0  0  0  0  0
  -25.0099  -33.9818   25.0510 H   0  0  0  0  0  0
  -22.7069  -31.3104   21.4179 H   0  0  0  0  0  0
  -23.3767  -35.9634   23.3324 H   0  0  0  0  0  0
  -24.3589  -36.8882   22.2046 H   0  0  0  0  0  0
  -23.7251  -37.6508   23.6646 H   0  0  0  0  0  0
  -26.0883  -31.5525   20.6190 H   0  0  0  0  0  0
  -26.8371  -30.8430   22.0143 H   0  0  0  0  0  0
  -28.0895  -28.9733   21.2497 H   0  0  0  0  0  0
  -26.0501  -26.0896   18.7788 H   0  0  0  0  0  0
  -23.9979  -27.3875   18.9014 H   0  0  0  0  0  0
  -23.7449  -30.6139   19.4139 H   0  0  0  0  0  0
  -22.7444  -29.2644   19.8619 H   0  0  0  0  0  0
  -25.1285  -36.1963   25.0845 H   0  0  0  0  0  0
  -20.9971  -28.3223   24.1433 H   0  0  0  0  0  0
  -20.5722  -26.2278   23.3626 H   0  0  0  0  0  0
  -21.6671  -26.7465   22.1211 H   0  0  0  0  0  0
  -19.6978  -25.6272   21.1308 H   0  0  0  0  0  0
  -19.6705  -27.3186   20.6777 H   0  0  0  0  0  0
  -17.4231  -26.6615   21.4034 H   0  0  0  0  0  0
  -18.0351  -26.0024   22.9033 H   0  0  0  0  0  0
  -19.7898  -30.7288   24.2276 H   0  0  0  0  0  0
  -17.4976  -31.6269   24.5125 H   0  0  0  0  0  0
  -15.5344  -30.2998   23.7652 H   0  0  0  0  0  0
  -15.8639  -28.0829   22.7095 H   0  0  0  0  0  0
  -24.5900  -30.7067   25.7799 H   0  0  0  0  0  0
  -24.8899  -32.2856   26.4937 H   0  0  0  0  0  0
  -25.8048  -30.8856   27.0237 H   0  0  0  0  0  0
  -26.2921  -29.6796   24.1222 H   0  0  0  0  0  0
  -27.4086  -29.7318   25.4659 H   0  0  0  0  0  0
  -27.8776  -30.4393   23.9401 H   0  0  0  0  0  0
  -27.2696  -33.3641   26.2103 H   0  0  0  0  0  0
  -28.3828  -32.6933   25.0294 H   0  0  0  0  0  0
  -28.0791  -31.8470   26.5356 H   0  0  0  0  0  0
  -28.2609  -38.0087   24.7502 H   0  0  0  0  0  0
  -28.1072  -36.2617   24.6332 H   0  0  0  0  0  0
  -27.2309  -37.1487   25.8879 H   0  0  0  0  0  0
  -20.9371  -29.8788   21.6937 H   0  0  0  0  0  0
  -26.0188  -38.2881   24.1360 H   0  0  0  0  0  0
  -32.8245  -19.2614   20.4309 H   0  0  0  0  0  0
  -30.9493  -20.8515   20.1727 H   0  0  0  0  0  0
  -32.4382  -16.8916   20.8417 H   0  0  0  0  0  0
  -28.1817  -17.6151   20.9770 H   0  0  0  0  0  0
  -29.2464  -24.6889   20.2820 H   0  0  0  0  0  0
  -28.4625  -25.1923   21.7388 H   0  0  0  0  0  0
  -26.9888  -24.2719   19.2283 H   0  0  0  0  0  0
  -29.0697  -15.3623   21.3957 H   0  0  0  0  0  0
  -29.2304  -22.0444   20.6871 H   0  0  0  0  0  0
  -27.1817  -18.7477   19.6037 H   0  0  0  0  0  0
  -26.3191  -20.2639   19.7955 H   0  0  0  0  0  0
  -26.0301  -24.4926   22.0117 H   0  0  0  0  0  0
  -25.2085  -23.9045   20.7416 H   0  0  0  0  0  0
  -25.6298  -25.5035   20.7722 H   0  0  0  0  0  0
  1 25  1  0  0  0
  1 30  2  0  0  0
  1 81  1  0  0  0
  2  3  1  0  0  0
  2 25  1  0  0  0
  2 86  1  0  0  0
  2 87  1  0  0  0
  3  4  1  0  0  0
  3 88  1  0  0  0
  3 89  1  0  0  0
  4  5  1  0  0  0
  4 90  1  0  0  0
  4 91  1  0  0  0
  5  6  1  0  0  0
  5 26  1  0  0  0
  5 92  1  0  0  0
  6 25  1  0  0  0
  6 93  1  0  0  0
  6 94  1  0  0  0
  7  8  2  0  0  0
  7 26  1  0  0  0
  7 29  1  0  0  0
  8  9  1  0  0  0
  8 22  1  0  0  0
  9 10  1  0  0  0
  9 27  2  0  0  0
 10 11  2  0  0  0
 10 15  1  0  0  0
 11 12  1  0  0  0
 11 95  1  0  0  0
 12 13  2  0  0  0
 12 96  1  0  0  0
 13 14  1  0  0  0
 13 31  1  0  0  0
 14 15  2  0  0  0
 14 97  1  0  0  0
 15 98  1  0  0  0
 16 17  2  0  0  0
 16 21  1  0  0  0
 16 31  1  0  0  0
 17 18  1  0  0  0
 17 99  1  0  0  0
 18 19  2  0  0  0
 18100  1  0  0  0
 19 20  1  0  0  0
 19 24  1  0  0  0
 20 21  2  0  0  0
 20101  1  0  0  0
 21 23  1  0  0  0
 22 28  1  0  0  0
 22 32  2  0  0  0
 26 27  1  0  0  0
 28102  1  0  0  0
 28103  1  0  0  0
 29104  1  0  0  0
 29105  1  0  0  0
 33 34  1  0  0  0
 33 66  1  0  0  0
 33 70  2  0  0  0
 34 36  1  0  0  0
 34 59  1  0  0  0
 34106  1  0  0  0
 35 44  2  0  0  0
 35 45  1  0  0  0
 35 68  1  0  0  0
 36 56  1  0  0  0
 36107  1  0  0  0
 37 39  1  0  0  0
 37 47  1  0  0  0
 37 66  1  0  0  0
 37108  1  0  0  0
 38 43  2  0  0  0
 38 46  1  0  0  0
 38 47  1  0  0  0
 39 64  1  0  0  0
 39 67  2  0  0  0
 40 52  1  0  0  0
 40 53  2  0  0  0
 40 58  1  0  0  0
 41109  1  0  0  0
 41110  1  0  0  0
 41111  1  0  0  0
 41 48  1  0  0  0
 42 43  1  0  0  0
 42 66  1  0  0  0
 42112  1  0  0  0
 42113  1  0  0  0
 43 44  1  0  0  0
 44114  1  0  0  0
 45 46  2  0  0  0
 45115  1  0  0  0
 46116  1  0  0  0
 47117  1  0  0  0
 47118  1  0  0  0
 48 56  1  0  0  0
 48 65  1  0  0  0
 48119  1  0  0  0
 49 50  1  0  0  0
 49 53  1  0  0  0
 49 64  1  0  0  0
 49120  1  0  0  0
 50 51  1  0  0  0
 50121  1  0  0  0
 50122  1  0  0  0
 51 52  1  0  0  0
 51123  1  0  0  0
 51124  1  0  0  0
 52125  1  0  0  0
 52126  1  0  0  0
 53 54  1  0  0  0
 54 55  2  0  0  0
 54127  1  0  0  0
 55 57  1  0  0  0
 55128  1  0  0  0
 56 69  2  0  0  0
 57 58  2  0  0  0
 57129  1  0  0  0
 58130  1  0  0  0
 59 60  1  0  0  0
 59 61  1  0  0  0
 59 62  1  0  0  0
 60131  1  0  0  0
 60132  1  0  0  0
 60133  1  0  0  0
 61134  1  0  0  0
 61135  1  0  0  0
 61136  1  0  0  0
 62137  1  0  0  0
 62138  1  0  0  0
 62139  1  0  0  0
 63 65  1  0  0  0
 63140  1  0  0  0
 63141  1  0  0  0
 63142  1  0  0  0
 64143  1  0  0  0
 65144  1  0  0  0
 68 79  1  0  0  0
 71 72  2  0  0  0
 71 73  1  0  0  0
 71145  1  0  0  0
 72 75  1  0  0  0
 72146  1  0  0  0
 73 76  2  0  0  0
 73147  1  0  0  0
 74 75  2  0  0  0
 74 76  1  0  0  0
 74148  1  0  0  0
 75 77  1  0  0  0
 76 81  1  0  0  0
 77 82  1  0  0  0
 77 83  2  0  0  0
 78 80  1  0  0  0
 78 82  1  0  0  0
 78 85  2  0  0  0
 79 80  1  0  0  0
 79149  1  0  0  0
 79150  1  0  0  0
 80 84  1  0  0  0
 80151  1  0  0  0
 81152  1  0  0  0
 82153  1  0  0  0
 83154  1  0  0  0
 83155  1  0  0  0
 84156  1  0  0  0
 84157  1  0  0  0
 84158  1  0  0  0
M  CHG  2  83   1  84   1
M  ISO  4   1 100  68 101  79 101  81 100
M  END
> <chiral flag>
0

> <version>
0

> <s_m_source_file>
/data/baiqing/PycharmProjects/Reinvent-master-3.2/result/LINK_invent/BTK/process_docking_weight1_custom_product_contain_oxygen_bond_distance_aromatic_linkinvent_7_9_3/rearranged_h_0074.sdf

> <i_m_source_file_index>
34

> <r_mmod_Potential_Energy-OPLS-2005>
-502.408508300781

> <r_mmod_Stretch_Energy-OPLS-2005>
71.8785781860352

> <r_mmod_Bend_Energy-OPLS-2005>
186.362945556641

> <r_mmod_Torsional_Energy-OPLS-2005>
251.129623413086

> <r_mmod_Improper_Torsional_Energy-OPLS-2005>
5.21906757354736

> <r_mmod_Van_der_Waal_Energy-OPLS-2005>
187.602401733398

> <r_mmod_Electrostatic_Energy-OPLS-2005>
-280.642517089844

> <r_mmod_Solvation_Energy-OPLS-2005>
-954.256958007812

> <b_mmod_Minimization_Converged-OPLS-2005>
0

> <r_mmod_RMS_Derivative-OPLS-2005>
3.69258570671082

$$$$
35
                    3D
 Structure written by MMmdl.
163172  0  0  1  0            999 V2000
  -30.6038  -14.7518   20.4689 C   0  0  0  0  0  0
  -30.4302  -12.4544   19.5029 C   0  0  0  0  0  0
  -29.5189  -12.5127   18.2557 C   0  0  0  0  0  0
  -28.0440  -12.3348   18.6598 C   0  0  0  0  0  0
  -27.6430  -13.2344   19.8588 C   0  0  2  0  0  0
  -28.6791  -13.1697   21.0047 C   0  0  0  0  0  0
  -25.2498  -13.8200   20.5695 C   0  0  0  0  0  0
  -24.1778  -13.0442   20.9164 C   0  0  0  0  0  0
  -24.6374  -11.6916   20.8723 C   0  0  0  0  0  0
  -23.9056  -10.4291   21.0397 C   0  0  0  0  0  0
  -24.3609   -9.4212   21.9184 C   0  0  0  0  0  0
  -23.6278   -8.2250   22.0760 C   0  0  0  0  0  0
  -22.4263   -8.0284   21.3548 C   0  0  0  0  0  0
  -21.9893   -9.0256   20.4658 C   0  0  0  0  0  0
  -22.7226  -10.2127   20.3063 C   0  0  0  0  0  0
  -21.6853   -6.0723   22.5270 C   0  0  0  0  0  0
  -21.4019   -6.5629   23.8204 C   0  0  0  0  0  0
  -21.3663   -5.6786   24.9171 C   0  0  0  0  0  0
  -21.6043   -4.3043   24.7228 C   0  0  0  0  0  0
  -21.8823   -3.8133   23.4346 C   0  0  0  0  0  0
  -21.9190   -4.6948   22.3397 C   0  0  0  0  0  0
  -22.7807  -13.5239   21.1837 C   0  0  0  0  0  0
  -22.1660   -4.2135   21.0975 F   0  0  0  0  0  0
  -21.5627   -3.4531   25.7739 F   0  0  0  0  0  0
  -29.9917  -13.5157   20.4432 N   0  0  0  0  0  0
  -26.2932  -12.9411   20.3293 N   0  0  0  0  0  0
  -25.9312  -11.6549   20.5743 N   0  0  0  0  0  0
  -22.0454  -12.8240   22.0407 N   0  0  0  0  0  0
  -25.4212  -15.1931   20.4163 N   0  0  0  0  0  0
  -31.7568  -14.8697   20.0425 O   0  0  0  0  0  0
  -21.6646   -6.8867   21.4233 O   0  0  0  0  0  0
  -22.3494  -14.5539   20.6685 O   0  0  0  0  0  0
  -24.6346  -31.8535   23.1973 C   0  0  0  0  0  0
  -25.9161  -32.4748   23.8324 C   0  0  1  0  0  0
  -27.2107  -27.2306   20.1287 C   0  0  0  0  0  0
  -25.5942  -33.8548   24.2248 N   0  0  0  0  0  0
  -23.4331  -30.4770   21.5416 C   0  0  2  0  0  0
  -24.8784  -28.9241   20.1059 C   0  0  0  0  0  0
  -22.7524  -29.4593   22.4894 C   0  0  0  0  0  0
  -18.0301  -28.1394   22.8483 C   0  0  0  0  0  0
  -24.1484  -36.7276   23.2640 C   0  0  0  0  0  0
  -25.9821  -30.7558   21.3831 C   0  0  0  0  0  0
  -26.0517  -29.3768   20.7224 C   0  0  0  0  0  0
  -27.2193  -28.5416   20.7246 C   0  0  0  0  0  0
  -26.0181  -26.8660   19.4622 C   0  0  0  0  0  0
  -24.8687  -27.6784   19.4637 C   0  0  0  0  0  0
  -23.6530  -29.8165   20.1560 C   0  0  0  0  0  0
  -25.4110  -36.3065   24.0329 C   0  0  1  0  0  0
  -20.5907  -28.3706   23.1256 C   0  0  2  0  0  0
  -20.6785  -26.9415   22.5408 C   0  0  0  0  0  0
  -19.5759  -26.6383   21.5210 C   0  0  0  0  0  0
  -18.1939  -26.7939   22.1621 C   0  0  0  0  0  0
  -19.1555  -28.8868   23.2867 C   0  0  0  0  0  0
  -18.9475  -30.1465   23.8891 C   0  0  0  0  0  0
  -17.6471  -30.6592   24.0566 C   0  0  0  0  0  0
  -25.9060  -34.9435   23.5097 C   0  0  0  0  0  0
  -16.5363  -29.9087   23.6333 C   0  0  0  0  0  0
  -16.7284  -28.6506   23.0350 C   0  0  0  0  0  0
  -26.4509  -31.6582   25.0727 C   0  0  0  0  0  0
  -25.3724  -31.3751   26.1449 C   0  0  0  0  0  0
  -27.0356  -30.2991   24.6241 C   0  0  0  0  0  0
  -27.6065  -32.4324   25.7499 C   0  0  0  0  0  0
  -27.5574  -37.1792   24.8464 C   0  0  0  0  0  0
  -21.4227  -29.3042   22.3637 N   0  0  0  0  0  0
  -26.4280  -37.3767   23.9419 N   0  0  0  0  0  0
  -24.7025  -31.0471   22.0966 N   0  0  0  0  0  0
  -23.4209  -28.8131   23.3001 O   0  0  0  0  0  0
  -28.2833  -26.3005   20.2158 O   0  0  0  0  0  0
  -26.5631  -34.8919   22.4665 O   0  0  0  0  0  0
  -23.5489  -32.1365   23.7250 O   0  0  0  0  0  0
  -28.4982  -17.9435   18.0841 C   0  0  0  0  0  0
  -29.0968  -16.9041   18.8098 C   0  0  0  0  0  0
  -29.4947  -18.4854   20.6168 C   0  0  0  0  0  0
  -28.3653  -19.2577   18.5941 C   0  0  0  0  0  0
  -28.9571  -19.6199   19.8516 C   0  0  0  0  0  0
  -29.5587  -17.1060   20.1208 C   0  0  0  0  0  0
  -29.0852  -22.2524   19.6358 C   0  0  0  0  0  0
  -27.4248  -20.1358   17.8291 C   0  0  0  0  0  0
  -28.4523  -22.9415   21.7884 C   0  0  0  0  0  0
  -28.7918  -21.4197   21.7369 C   0  0  0  0  0  0
  -28.9686  -23.5938   20.4841 C   0  0  1  0  0  0
  -27.5304  -20.1188   16.3097 C   0  0  0  0  0  0
  -30.3997  -24.1385   20.6633 C   0  0  0  0  0  0
  -28.0482  -24.8282   19.9169 C   0  0  0  0  0  0
  -28.9312  -21.0568   20.3298 N   0  0  0  0  0  0
  -29.8859  -15.8701   20.8796 N   0  0  0  0  0  0
  -29.3744  -22.3173   18.4365 O   0  0  0  0  0  0
  -26.5728  -20.8510   18.3643 O   0  0  0  0  0  0
  -31.4771  -12.5638   19.2146 H   0  0  0  0  0  0
  -30.3572  -11.4768   19.9817 H   0  0  0  0  0  0
  -29.8055  -11.7400   17.5418 H   0  0  0  0  0  0
  -29.6486  -13.4672   17.7432 H   0  0  0  0  0  0
  -27.9019  -11.2854   18.9222 H   0  0  0  0  0  0
  -27.3924  -12.5265   17.8067 H   0  0  0  0  0  0
  -27.6373  -14.2556   19.4780 H   0  0  0  0  0  0
  -28.7019  -12.1748   21.4512 H   0  0  0  0  0  0
  -28.3997  -13.8527   21.8081 H   0  0  0  0  0  0
  -25.2752   -9.5677   22.4756 H   0  0  0  0  0  0
  -23.9977   -7.4643   22.7486 H   0  0  0  0  0  0
  -21.0815   -8.8784   19.8970 H   0  0  0  0  0  0
  -22.3687  -10.9665   19.6170 H   0  0  0  0  0  0
  -21.2025   -7.6136   23.9698 H   0  0  0  0  0  0
  -21.1480   -6.0522   25.9068 H   0  0  0  0  0  0
  -22.0597   -2.7592   23.2864 H   0  0  0  0  0  0
  -22.4063  -11.9902   22.4799 H   0  0  0  0  0  0
  -21.1087  -13.1287   22.2639 H   0  0  0  0  0  0
  -24.6563  -15.8485   20.5326 H   0  0  0  0  0  0
  -26.2824  -15.6354   20.1201 H   0  0  0  0  0  0
  -26.7233  -32.5388   23.1066 H   0  0  0  0  0  0
  -25.0068  -33.9671   25.0383 H   0  0  0  0  0  0
  -22.7309  -31.3003   21.3967 H   0  0  0  0  0  0
  -23.3753  -35.9600   23.3294 H   0  0  0  0  0  0
  -24.3576  -36.8907   22.2056 H   0  0  0  0  0  0
  -23.7229  -37.6473   23.6669 H   0  0  0  0  0  0
  -26.1267  -31.5159   20.6140 H   0  0  0  0  0  0
  -26.8583  -30.8033   22.0178 H   0  0  0  0  0  0
  -28.1134  -28.8771   21.2306 H   0  0  0  0  0  0
  -25.9350  -25.9235   18.9433 H   0  0  0  0  0  0
  -23.9734  -27.3320   18.9648 H   0  0  0  0  0  0
  -23.7860  -30.5966   19.4057 H   0  0  0  0  0  0
  -22.7690  -29.2583   19.8432 H   0  0  0  0  0  0
  -25.1288  -36.1908   25.0820 H   0  0  0  0  0  0
  -20.9999  -28.3293   24.1376 H   0  0  0  0  0  0
  -20.5674  -26.2312   23.3616 H   0  0  0  0  0  0
  -21.6656  -26.7426   22.1207 H   0  0  0  0  0  0
  -19.6913  -25.6291   21.1240 H   0  0  0  0  0  0
  -19.6693  -27.3191   20.6737 H   0  0  0  0  0  0
  -17.4204  -26.6685   21.4027 H   0  0  0  0  0  0
  -18.0330  -26.0081   22.9014 H   0  0  0  0  0  0
  -19.7949  -30.7283   24.2256 H   0  0  0  0  0  0
  -17.5026  -31.6265   24.5175 H   0  0  0  0  0  0
  -15.5365  -30.2982   23.7668 H   0  0  0  0  0  0
  -15.8684  -28.0822   22.7069 H   0  0  0  0  0  0
  -24.5895  -30.7099   25.7789 H   0  0  0  0  0  0
  -24.8919  -32.2924   26.4858 H   0  0  0  0  0  0
  -25.8031  -30.8942   27.0241 H   0  0  0  0  0  0
  -26.2944  -29.6735   24.1252 H   0  0  0  0  0  0
  -27.4010  -29.7263   25.4776 H   0  0  0  0  0  0
  -27.8836  -30.4257   23.9508 H   0  0  0  0  0  0
  -27.2679  -33.3627   26.2071 H   0  0  0  0  0  0
  -28.3872  -32.6881   25.0324 H   0  0  0  0  0  0
  -28.0737  -31.8457   26.5420 H   0  0  0  0  0  0
  -28.2594  -38.0087   24.7520 H   0  0  0  0  0  0
  -28.1070  -36.2627   24.6270 H   0  0  0  0  0  0
  -27.2306  -37.1422   25.8870 H   0  0  0  0  0  0
  -20.9419  -29.8760   21.6836 H   0  0  0  0  0  0
  -26.0159  -38.2841   24.1432 H   0  0  0  0  0  0
  -28.0594  -17.6802   17.1322 H   0  0  0  0  0  0
  -29.1016  -15.9153   18.3715 H   0  0  0  0  0  0
  -29.8557  -18.6776   21.6172 H   0  0  0  0  0  0
  -28.8614  -23.4137   22.6822 H   0  0  0  0  0  0
  -27.3688  -23.0487   21.8513 H   0  0  0  0  0  0
  -28.0210  -20.8196   22.2214 H   0  0  0  0  0  0
  -29.7360  -21.2211   22.2452 H   0  0  0  0  0  0
  -28.5684  -19.9958   16.0027 H   0  0  0  0  0  0
  -27.1531  -21.0525   15.8946 H   0  0  0  0  0  0
  -26.9458  -19.2955   15.9022 H   0  0  0  0  0  0
  -31.0935  -23.3682   21.0033 H   0  0  0  0  0  0
  -30.4244  -24.9470   21.3940 H   0  0  0  0  0  0
  -30.7838  -24.5358   19.7230 H   0  0  0  0  0  0
  -27.0323  -24.5842   20.2268 H   0  0  0  0  0  0
  -28.0364  -24.7504   18.8289 H   0  0  0  0  0  0
  -29.1648  -15.6254   21.5415 H   0  0  0  0  0  0
  1 25  1  0  0  0
  1 30  2  0  0  0
  1 86  1  0  0  0
  2  3  1  0  0  0
  2 25  1  0  0  0
  2 89  1  0  0  0
  2 90  1  0  0  0
  3  4  1  0  0  0
  3 91  1  0  0  0
  3 92  1  0  0  0
  4  5  1  0  0  0
  4 93  1  0  0  0
  4 94  1  0  0  0
  5  6  1  0  0  0
  5 26  1  0  0  0
  5 95  1  0  0  0
  6 25  1  0  0  0
  6 96  1  0  0  0
  6 97  1  0  0  0
  7  8  2  0  0  0
  7 26  1  0  0  0
  7 29  1  0  0  0
  8  9  1  0  0  0
  8 22  1  0  0  0
  9 10  1  0  0  0
  9 27  2  0  0  0
 10 11  2  0  0  0
 10 15  1  0  0  0
 11 12  1  0  0  0
 11 98  1  0  0  0
 12 13  2  0  0  0
 12 99  1  0  0  0
 13 14  1  0  0  0
 13 31  1  0  0  0
 14 15  2  0  0  0
 14100  1  0  0  0
 15101  1  0  0  0
 16 17  2  0  0  0
 16 21  1  0  0  0
 16 31  1  0  0  0
 17 18  1  0  0  0
 17102  1  0  0  0
 18 19  2  0  0  0
 18103  1  0  0  0
 19 20  1  0  0  0
 19 24  1  0  0  0
 20 21  2  0  0  0
 20104  1  0  0  0
 21 23  1  0  0  0
 22 28  1  0  0  0
 22 32  2  0  0  0
 26 27  1  0  0  0
 28105  1  0  0  0
 28106  1  0  0  0
 29107  1  0  0  0
 29108  1  0  0  0
 33 34  1  0  0  0
 33 66  1  0  0  0
 33 70  2  0  0  0
 34 36  1  0  0  0
 34 59  1  0  0  0
 34109  1  0  0  0
 35 44  2  0  0  0
 35 45  1  0  0  0
 35 68  1  0  0  0
 36 56  1  0  0  0
 36110  1  0  0  0
 37 39  1  0  0  0
 37 47  1  0  0  0
 37 66  1  0  0  0
 37111  1  0  0  0
 38 43  2  0  0  0
 38 46  1  0  0  0
 38 47  1  0  0  0
 39 64  1  0  0  0
 39 67  2  0  0  0
 40 52  1  0  0  0
 40 53  2  0  0  0
 40 58  1  0  0  0
 41112  1  0  0  0
 41113  1  0  0  0
 41114  1  0  0  0
 41 48  1  0  0  0
 42 43  1  0  0  0
 42 66  1  0  0  0
 42115  1  0  0  0
 42116  1  0  0  0
 43 44  1  0  0  0
 44117  1  0  0  0
 45 46  2  0  0  0
 45118  1  0  0  0
 46119  1  0  0  0
 47120  1  0  0  0
 47121  1  0  0  0
 48 56  1  0  0  0
 48 65  1  0  0  0
 48122  1  0  0  0
 49 50  1  0  0  0
 49 53  1  0  0  0
 49 64  1  0  0  0
 49123  1  0  0  0
 50 51  1  0  0  0
 50124  1  0  0  0
 50125  1  0  0  0
 51 52  1  0  0  0
 51126  1  0  0  0
 51127  1  0  0  0
 52128  1  0  0  0
 52129  1  0  0  0
 53 54  1  0  0  0
 54 55  2  0  0  0
 54130  1  0  0  0
 55 57  1  0  0  0
 55131  1  0  0  0
 56 69  2  0  0  0
 57 58  2  0  0  0
 57132  1  0  0  0
 58133  1  0  0  0
 59 60  1  0  0  0
 59 61  1  0  0  0
 59 62  1  0  0  0
 60134  1  0  0  0
 60135  1  0  0  0
 60136  1  0  0  0
 61137  1  0  0  0
 61138  1  0  0  0
 61139  1  0  0  0
 62140  1  0  0  0
 62141  1  0  0  0
 62142  1  0  0  0
 63 65  1  0  0  0
 63143  1  0  0  0
 63144  1  0  0  0
 63145  1  0  0  0
 64146  1  0  0  0
 65147  1  0  0  0
 68 84  1  0  0  0
 71 72  2  0  0  0
 71 74  1  0  0  0
 71148  1  0  0  0
 72 76  1  0  0  0
 72149  1  0  0  0
 73 75  1  0  0  0
 73 76  2  0  0  0
 73150  1  0  0  0
 74 75  2  0  0  0
 74 78  1  0  0  0
 75 85  1  0  0  0
 76 86  1  0  0  0
 77 81  1  0  0  0
 77 85  1  0  0  0
 77 87  2  0  0  0
 78 82  1  0  0  0
 78 88  2  0  0  0
 79 80  1  0  0  0
 79 81  1  0  0  0
 79151  1  0  0  0
 79152  1  0  0  0
 80 85  1  0  0  0
 80153  1  0  0  0
 80154  1  0  0  0
 81 83  1  0  0  0
 81 84  1  0  0  0
 82155  1  0  0  0
 82156  1  0  0  0
 82157  1  0  0  0
 83158  1  0  0  0
 83159  1  0  0  0
 83160  1  0  0  0
 84161  1  0  0  0
 84162  1  0  0  0
 86163  1  0  0  0
M  ISO  4   1 100  68 101  84 101  86 100
M  END
> <chiral flag>
0

> <version>
0

> <s_m_source_file>
/data/baiqing/PycharmProjects/Reinvent-master-3.2/result/LINK_invent/BTK/process_docking_weight1_custom_product_contain_oxygen_bond_distance_aromatic_linkinvent_7_9_3/rearranged_h_0074.sdf

> <i_m_source_file_index>
35

> <r_mmod_Potential_Energy-OPLS-2005>
399.244812011719

> <r_mmod_Stretch_Energy-OPLS-2005>
149.403854370117

> <r_mmod_Bend_Energy-OPLS-2005>
202.992904663086

> <r_mmod_Torsional_Energy-OPLS-2005>
363.360229492188

> <r_mmod_Improper_Torsional_Energy-OPLS-2005>
7.14306306838989

> <r_mmod_Van_der_Waal_Energy-OPLS-2005>
143.149505615234

> <r_mmod_Electrostatic_Energy-OPLS-2005>
-336.823852539062

> <r_mmod_Solvation_Energy-OPLS-2005>
-228.541748046875

> <b_mmod_Minimization_Converged-OPLS-2005>
0

> <r_mmod_RMS_Derivative-OPLS-2005>
1.785200715065

$$$$
36
                    3D
 Structure written by MMmdl.
154162  0  0  1  0            999 V2000
  -30.6134  -14.6513   20.4881 C   0  0  0  0  0  0
  -30.4380  -12.3970   19.4546 C   0  0  0  0  0  0
  -29.5067  -12.5025   18.2255 C   0  0  0  0  0  0
  -28.0300  -12.3403   18.6382 C   0  0  0  0  0  0
  -27.6521  -13.2147   19.8627 C   0  0  2  0  0  0
  -28.6974  -13.0757   20.9930 C   0  0  0  0  0  0
  -25.2565  -13.8166   20.5689 C   0  0  0  0  0  0
  -24.1831  -13.0437   20.9200 C   0  0  0  0  0  0
  -24.6393  -11.6905   20.8750 C   0  0  0  0  0  0
  -23.9061  -10.4290   21.0411 C   0  0  0  0  0  0
  -24.3613   -9.4207   21.9188 C   0  0  0  0  0  0
  -23.6290   -8.2244   22.0757 C   0  0  0  0  0  0
  -22.4275   -8.0279   21.3543 C   0  0  0  0  0  0
  -21.9908   -9.0254   20.4648 C   0  0  0  0  0  0
  -22.7235  -10.2137   20.3060 C   0  0  0  0  0  0
  -21.6852   -6.0736   22.5276 C   0  0  0  0  0  0
  -21.4013   -6.5643   23.8211 C   0  0  0  0  0  0
  -21.3660   -5.6795   24.9173 C   0  0  0  0  0  0
  -21.6045   -4.3056   24.7223 C   0  0  0  0  0  0
  -21.8819   -3.8149   23.4345 C   0  0  0  0  0  0
  -21.9194   -4.6965   22.3400 C   0  0  0  0  0  0
  -22.7855  -13.5235   21.1860 C   0  0  0  0  0  0
  -22.1663   -4.2152   21.0976 F   0  0  0  0  0  0
  -21.5631   -3.4539   25.7738 F   0  0  0  0  0  0
  -30.0104  -13.4214   20.4279 N   0  0  0  0  0  0
  -26.2984  -12.9339   20.3316 N   0  0  0  0  0  0
  -25.9317  -11.6499   20.5765 N   0  0  0  0  0  0
  -22.0494  -12.8226   22.0412 N   0  0  0  0  0  0
  -25.4282  -15.1886   20.4081 N   0  0  0  0  0  0
  -31.7803  -14.8040   20.1148 O   0  0  0  0  0  0
  -21.6640   -6.8878   21.4239 O   0  0  0  0  0  0
  -22.3544  -14.5544   20.6709 O   0  0  0  0  0  0
  -24.6263  -31.8592   23.2030 C   0  0  0  0  0  0
  -25.9117  -32.4774   23.8349 C   0  0  1  0  0  0
  -27.2242  -27.3169   20.1153 C   0  0  0  0  0  0
  -25.5937  -33.8574   24.2279 N   0  0  0  0  0  0
  -23.4199  -30.4825   21.5454 C   0  0  2  0  0  0
  -24.8663  -28.9372   20.1108 C   0  0  0  0  0  0
  -22.7479  -29.4615   22.4944 C   0  0  0  0  0  0
  -18.0289  -28.1369   22.8481 C   0  0  0  0  0  0
  -24.1492  -36.7289   23.2640 C   0  0  0  0  0  0
  -25.9612  -30.7887   21.3750 C   0  0  0  0  0  0
  -26.0352  -29.4162   20.7159 C   0  0  0  0  0  0
  -27.2170  -28.6173   20.7087 C   0  0  0  0  0  0
  -26.0325  -26.8918   19.4837 C   0  0  0  0  0  0
  -24.8669  -27.6808   19.4866 C   0  0  0  0  0  0
  -23.6347  -29.8177   20.1600 C   0  0  0  0  0  0
  -25.4113  -36.3078   24.0327 C   0  0  1  0  0  0
  -20.5887  -28.3675   23.1284 C   0  0  2  0  0  0
  -20.6779  -26.9396   22.5409 C   0  0  0  0  0  0
  -19.5755  -26.6373   21.5208 C   0  0  0  0  0  0
  -18.1935  -26.7913   22.1618 C   0  0  0  0  0  0
  -19.1539  -28.8843   23.2877 C   0  0  0  0  0  0
  -18.9464  -30.1448   23.8884 C   0  0  0  0  0  0
  -17.6465  -30.6578   24.0556 C   0  0  0  0  0  0
  -25.9051  -34.9449   23.5100 C   0  0  0  0  0  0
  -16.5357  -29.9069   23.6331 C   0  0  0  0  0  0
  -16.7277  -28.6489   23.0345 C   0  0  0  0  0  0
  -26.4501  -31.6587   25.0721 C   0  0  0  0  0  0
  -25.3729  -31.3728   26.1450 C   0  0  0  0  0  0
  -27.0353  -30.3012   24.6177 C   0  0  0  0  0  0
  -27.6056  -32.4327   25.7492 C   0  0  0  0  0  0
  -27.5577  -37.1802   24.8466 C   0  0  0  0  0  0
  -21.4192  -29.3033   22.3687 N   0  0  0  0  0  0
  -26.4293  -37.3771   23.9405 N   0  0  0  0  0  0
  -24.6875  -31.0603   22.0981 N   0  0  0  0  0  0
  -23.4204  -28.8156   23.3021 O   0  0  0  0  0  0
  -28.3442  -26.4719   20.1686 O   0  0  0  0  0  0
  -26.5618  -34.8918   22.4666 O   0  0  0  0  0  0
  -23.5428  -32.1395   23.7364 O   0  0  0  0  0  0
  -31.0469  -19.2597   19.9841 C   0  0  0  0  0  0
  -31.0188  -17.8391   20.1037 C   0  0  0  0  0  0
  -28.8127  -18.0025   21.0343 C   0  0  0  0  0  0
  -29.9736  -20.1079   20.3913 C   0  0  0  0  0  0
  -29.8992  -17.1608   20.6490 C   0  0  0  0  0  0
  -28.8402  -19.4305   20.9168 C   0  0  0  0  0  0
  -30.1571  -21.6471   20.3537 C   0  0  0  0  0  0
  -29.5554  -24.3602   22.0525 C   0  0  0  0  0  0
  -28.1436  -25.0072   20.0326 C   0  0  0  0  0  0
  -29.2993  -24.0541   20.5670 C   0  0  2  0  0  0
  -29.7946  -15.7037   20.8201 N   0  0  0  0  0  0
  -29.1283  -22.5535   20.4030 N   0  0  0  0  0  0
  -31.3140  -22.0685   20.2644 O   0  0  0  0  0  0
  -27.7636  -20.1413   21.3333 F   0  0  0  0  0  0
  -31.4784  -12.5244   19.1515 H   0  0  0  0  0  0
  -30.3769  -11.4033   19.9012 H   0  0  0  0  0  0
  -29.7717  -11.7452   17.4864 H   0  0  0  0  0  0
  -29.6470  -13.4682   17.7369 H   0  0  0  0  0  0
  -27.8696  -11.2879   18.8754 H   0  0  0  0  0  0
  -27.3738  -12.5652   17.7962 H   0  0  0  0  0  0
  -27.6682  -14.2481   19.5161 H   0  0  0  0  0  0
  -28.7126  -12.0556   21.3797 H   0  0  0  0  0  0
  -28.4420  -13.7110   21.8421 H   0  0  0  0  0  0
  -25.2758   -9.5690   22.4762 H   0  0  0  0  0  0
  -24.0004   -7.4637   22.7476 H   0  0  0  0  0  0
  -21.0841   -8.8772   19.8951 H   0  0  0  0  0  0
  -22.3690  -10.9678   19.6173 H   0  0  0  0  0  0
  -21.2002   -7.6151   23.9715 H   0  0  0  0  0  0
  -21.1482   -6.0525   25.9077 H   0  0  0  0  0  0
  -22.0598   -2.7611   23.2842 H   0  0  0  0  0  0
  -22.4109  -11.9881   22.4790 H   0  0  0  0  0  0
  -21.1116  -13.1259   22.2623 H   0  0  0  0  0  0
  -24.6556  -15.8385   20.5042 H   0  0  0  0  0  0
  -26.2636  -15.6213   20.0361 H   0  0  0  0  0  0
  -26.7181  -32.5445   23.1091 H   0  0  0  0  0  0
  -25.0092  -33.9714   25.0430 H   0  0  0  0  0  0
  -22.7128  -31.3023   21.4022 H   0  0  0  0  0  0
  -23.3755  -35.9626   23.3310 H   0  0  0  0  0  0
  -24.3586  -36.8904   22.2057 H   0  0  0  0  0  0
  -23.7252  -37.6493   23.6658 H   0  0  0  0  0  0
  -26.0938  -31.5541   20.6093 H   0  0  0  0  0  0
  -26.8409  -30.8354   22.0052 H   0  0  0  0  0  0
  -28.1133  -28.9786   21.1937 H   0  0  0  0  0  0
  -25.9762  -25.9338   18.9882 H   0  0  0  0  0  0
  -23.9711  -27.3100   19.0076 H   0  0  0  0  0  0
  -23.7555  -30.5950   19.4041 H   0  0  0  0  0  0
  -22.7548  -29.2470   19.8580 H   0  0  0  0  0  0
  -25.1296  -36.1925   25.0819 H   0  0  0  0  0  0
  -20.9973  -28.3252   24.1404 H   0  0  0  0  0  0
  -20.5693  -26.2274   23.3605 H   0  0  0  0  0  0
  -21.6646  -26.7435   22.1192 H   0  0  0  0  0  0
  -19.6923  -25.6285   21.1232 H   0  0  0  0  0  0
  -19.6699  -27.3192   20.6744 H   0  0  0  0  0  0
  -17.4205  -26.6663   21.4021 H   0  0  0  0  0  0
  -18.0337  -26.0051   22.9009 H   0  0  0  0  0  0
  -19.7947  -30.7261   24.2245 H   0  0  0  0  0  0
  -17.5024  -31.6260   24.5158 H   0  0  0  0  0  0
  -15.5357  -30.2964   23.7667 H   0  0  0  0  0  0
  -15.8675  -28.0815   22.7045 H   0  0  0  0  0  0
  -24.5897  -30.7082   25.7781 H   0  0  0  0  0  0
  -24.8929  -32.2902   26.4867 H   0  0  0  0  0  0
  -25.8054  -30.8909   27.0225 H   0  0  0  0  0  0
  -26.2932  -29.6757   24.1202 H   0  0  0  0  0  0
  -27.4061  -29.7271   25.4677 H   0  0  0  0  0  0
  -27.8792  -30.4308   23.9396 H   0  0  0  0  0  0
  -27.2658  -33.3624   26.2063 H   0  0  0  0  0  0
  -28.3868  -32.6894   25.0324 H   0  0  0  0  0  0
  -28.0718  -31.8456   26.5413 H   0  0  0  0  0  0
  -28.2593  -38.0099   24.7502 H   0  0  0  0  0  0
  -28.1075  -36.2628   24.6303 H   0  0  0  0  0  0
  -27.2296  -37.1459   25.8871 H   0  0  0  0  0  0
  -20.9371  -29.8748   21.6892 H   0  0  0  0  0  0
  -26.0175  -38.2844   24.1406 H   0  0  0  0  0  0
  -31.9454  -19.7094   19.5849 H   0  0  0  0  0  0
  -31.8867  -17.2850   19.7758 H   0  0  0  0  0  0
  -27.9222  -17.5539   21.4495 H   0  0  0  0  0  0
  -29.7543  -25.4214   22.2047 H   0  0  0  0  0  0
  -30.4184  -23.8132   22.4328 H   0  0  0  0  0  0
  -28.6934  -24.0954   22.6655 H   0  0  0  0  0  0
  -27.2264  -24.7252   20.5530 H   0  0  0  0  0  0
  -27.9808  -24.7885   18.9764 H   0  0  0  0  0  0
  -30.1958  -24.3410   20.0152 H   0  0  0  0  0  0
  -28.8969  -15.3894   21.1553 H   0  0  0  0  0  0
  -28.1910  -22.1757   20.4567 H   0  0  0  0  0  0
  1 25  1  0  0  0
  1 30  2  0  0  0
  1 81  1  0  0  0
  2  3  1  0  0  0
  2 25  1  0  0  0
  2 85  1  0  0  0
  2 86  1  0  0  0
  3  4  1  0  0  0
  3 87  1  0  0  0
  3 88  1  0  0  0
  4  5  1  0  0  0
  4 89  1  0  0  0
  4 90  1  0  0  0
  5  6  1  0  0  0
  5 26  1  0  0  0
  5 91  1  0  0  0
  6 25  1  0  0  0
  6 92  1  0  0  0
  6 93  1  0  0  0
  7  8  2  0  0  0
  7 26  1  0  0  0
  7 29  1  0  0  0
  8  9  1  0  0  0
  8 22  1  0  0  0
  9 10  1  0  0  0
  9 27  2  0  0  0
 10 11  2  0  0  0
 10 15  1  0  0  0
 11 12  1  0  0  0
 11 94  1  0  0  0
 12 13  2  0  0  0
 12 95  1  0  0  0
 13 14  1  0  0  0
 13 31  1  0  0  0
 14 15  2  0  0  0
 14 96  1  0  0  0
 15 97  1  0  0  0
 16 17  2  0  0  0
 16 21  1  0  0  0
 16 31  1  0  0  0
 17 18  1  0  0  0
 17 98  1  0  0  0
 18 19  2  0  0  0
 18 99  1  0  0  0
 19 20  1  0  0  0
 19 24  1  0  0  0
 20 21  2  0  0  0
 20100  1  0  0  0
 21 23  1  0  0  0
 22 28  1  0  0  0
 22 32  2  0  0  0
 26 27  1  0  0  0
 28101  1  0  0  0
 28102  1  0  0  0
 29103  1  0  0  0
 29104  1  0  0  0
 33 34  1  0  0  0
 33 66  1  0  0  0
 33 70  2  0  0  0
 34 36  1  0  0  0
 34 59  1  0  0  0
 34105  1  0  0  0
 35 44  2  0  0  0
 35 45  1  0  0  0
 35 68  1  0  0  0
 36 56  1  0  0  0
 36106  1  0  0  0
 37 39  1  0  0  0
 37 47  1  0  0  0
 37 66  1  0  0  0
 37107  1  0  0  0
 38 43  2  0  0  0
 38 46  1  0  0  0
 38 47  1  0  0  0
 39 64  1  0  0  0
 39 67  2  0  0  0
 40 52  1  0  0  0
 40 53  2  0  0  0
 40 58  1  0  0  0
 41108  1  0  0  0
 41109  1  0  0  0
 41110  1  0  0  0
 41 48  1  0  0  0
 42 43  1  0  0  0
 42 66  1  0  0  0
 42111  1  0  0  0
 42112  1  0  0  0
 43 44  1  0  0  0
 44113  1  0  0  0
 45 46  2  0  0  0
 45114  1  0  0  0
 46115  1  0  0  0
 47116  1  0  0  0
 47117  1  0  0  0
 48 56  1  0  0  0
 48 65  1  0  0  0
 48118  1  0  0  0
 49 50  1  0  0  0
 49 53  1  0  0  0
 49 64  1  0  0  0
 49119  1  0  0  0
 50 51  1  0  0  0
 50120  1  0  0  0
 50121  1  0  0  0
 51 52  1  0  0  0
 51122  1  0  0  0
 51123  1  0  0  0
 52124  1  0  0  0
 52125  1  0  0  0
 53 54  1  0  0  0
 54 55  2  0  0  0
 54126  1  0  0  0
 55 57  1  0  0  0
 55127  1  0  0  0
 56 69  2  0  0  0
 57 58  2  0  0  0
 57128  1  0  0  0
 58129  1  0  0  0
 59 60  1  0  0  0
 59 61  1  0  0  0
 59 62  1  0  0  0
 60130  1  0  0  0
 60131  1  0  0  0
 60132  1  0  0  0
 61133  1  0  0  0
 61134  1  0  0  0
 61135  1  0  0  0
 62136  1  0  0  0
 62137  1  0  0  0
 62138  1  0  0  0
 63 65  1  0  0  0
 63139  1  0  0  0
 63140  1  0  0  0
 63141  1  0  0  0
 64142  1  0  0  0
 65143  1  0  0  0
 68 79  1  0  0  0
 71 72  2  0  0  0
 71 74  1  0  0  0
 71144  1  0  0  0
 72 75  1  0  0  0
 72145  1  0  0  0
 73 75  2  0  0  0
 73 76  1  0  0  0
 73146  1  0  0  0
 74 76  2  0  0  0
 74 77  1  0  0  0
 75 81  1  0  0  0
 76 84  1  0  0  0
 77 82  1  0  0  0
 77 83  2  0  0  0
 78147  1  0  0  0
 78148  1  0  0  0
 78149  1  0  0  0
 78 80  1  0  0  0
 79 80  1  0  0  0
 79150  1  0  0  0
 79151  1  0  0  0
 80 82  1  0  0  0
 80152  1  0  0  0
 81153  1  0  0  0
 82154  1  0  0  0
M  ISO  4   1 100  68 101  79 101  81 100
M  END
> <chiral flag>
0

> <version>
0

> <s_m_source_file>
/data/baiqing/PycharmProjects/Reinvent-master-3.2/result/LINK_invent/BTK/process_docking_weight1_custom_product_contain_oxygen_bond_distance_aromatic_linkinvent_7_9_3/rearranged_h_0074.sdf

> <i_m_source_file_index>
36

> <r_mmod_Potential_Energy-OPLS-2005>
33.3698387145996

> <r_mmod_Stretch_Energy-OPLS-2005>
82.9409027099609

> <r_mmod_Bend_Energy-OPLS-2005>
141.578002929688

> <r_mmod_Torsional_Energy-OPLS-2005>
217.661529541016

> <r_mmod_Improper_Torsional_Energy-OPLS-2005>
4.67412614822388

> <r_mmod_Van_der_Waal_Energy-OPLS-2005>
149.074493408203

> <r_mmod_Electrostatic_Energy-OPLS-2005>
-393.501586914062

> <r_mmod_Solvation_Energy-OPLS-2005>
-220.019912719727

> <b_mmod_Minimization_Converged-OPLS-2005>
0

> <r_mmod_RMS_Derivative-OPLS-2005>
0.854442298412323

$$$$
37
                    3D
 Structure written by MMmdl.
157166  0  0  1  0            999 V2000
  -30.6135  -14.7223   20.4508 C   0  0  0  0  0  0
  -30.4343  -12.4347   19.4832 C   0  0  0  0  0  0
  -29.5177  -12.4968   18.2399 C   0  0  0  0  0  0
  -28.0389  -12.3385   18.6463 C   0  0  0  0  0  0
  -27.6466  -13.2314   19.8544 C   0  0  2  0  0  0
  -28.6878  -13.1490   20.9931 C   0  0  0  0  0  0
  -25.2539  -13.8197   20.5704 C   0  0  0  0  0  0
  -24.1822  -13.0451   20.9204 C   0  0  0  0  0  0
  -24.6406  -11.6936   20.8749 C   0  0  0  0  0  0
  -23.9087  -10.4313   21.0414 C   0  0  0  0  0  0
  -24.3636   -9.4226   21.9182 C   0  0  0  0  0  0
  -23.6321   -8.2254   22.0744 C   0  0  0  0  0  0
  -22.4305   -8.0288   21.3540 C   0  0  0  0  0  0
  -21.9938   -9.0266   20.4645 C   0  0  0  0  0  0
  -22.7259  -10.2153   20.3066 C   0  0  0  0  0  0
  -21.6863   -6.0751   22.5280 C   0  0  0  0  0  0
  -21.4012   -6.5649   23.8219 C   0  0  0  0  0  0
  -21.3665   -5.6798   24.9172 C   0  0  0  0  0  0
  -21.6046   -4.3057   24.7214 C   0  0  0  0  0  0
  -21.8818   -3.8155   23.4332 C   0  0  0  0  0  0
  -21.9190   -4.6980   22.3397 C   0  0  0  0  0  0
  -22.7844  -13.5246   21.1863 C   0  0  0  0  0  0
  -22.1659   -4.2168   21.0977 F   0  0  0  0  0  0
  -21.5634   -3.4536   25.7722 F   0  0  0  0  0  0
  -29.9961  -13.4927   20.4235 N   0  0  0  0  0  0
  -26.2962  -12.9401   20.3282 N   0  0  0  0  0  0
  -25.9331  -11.6550   20.5758 N   0  0  0  0  0  0
  -22.0466  -12.8256   22.0421 N   0  0  0  0  0  0
  -25.4252  -15.1925   20.4154 N   0  0  0  0  0  0
  -31.7900  -14.8288   20.0903 O   0  0  0  0  0  0
  -21.6654   -6.8892   21.4248 O   0  0  0  0  0  0
  -22.3540  -14.5540   20.6679 O   0  0  0  0  0  0
  -24.6291  -31.8577   23.1998 C   0  0  0  0  0  0
  -25.9115  -32.4770   23.8365 C   0  0  1  0  0  0
  -27.2209  -27.2558   20.1346 C   0  0  0  0  0  0
  -25.5907  -33.8570   24.2278 N   0  0  0  0  0  0
  -23.4272  -30.4781   21.5429 C   0  0  2  0  0  0
  -24.8785  -28.9317   20.1107 C   0  0  0  0  0  0
  -22.7498  -29.4593   22.4909 C   0  0  0  0  0  0
  -18.0293  -28.1394   22.8481 C   0  0  0  0  0  0
  -24.1482  -36.7281   23.2634 C   0  0  0  0  0  0
  -25.9747  -30.7691   21.3819 C   0  0  0  0  0  0
  -26.0499  -29.3908   20.7251 C   0  0  0  0  0  0
  -27.2218  -28.5633   20.7324 C   0  0  0  0  0  0
  -26.0288  -26.8841   19.4649 C   0  0  0  0  0  0
  -24.8733  -27.6854   19.4714 C   0  0  0  0  0  0
  -23.6479  -29.8162   20.1587 C   0  0  0  0  0  0
  -25.4109  -36.3065   24.0327 C   0  0  1  0  0  0
  -20.5897  -28.3686   23.1266 C   0  0  2  0  0  0
  -20.6776  -26.9409   22.5392 C   0  0  0  0  0  0
  -19.5753  -26.6386   21.5197 C   0  0  0  0  0  0
  -18.1941  -26.7935   22.1629 C   0  0  0  0  0  0
  -19.1548  -28.8857   23.2872 C   0  0  0  0  0  0
  -18.9468  -30.1459   23.8896 C   0  0  0  0  0  0
  -17.6470  -30.6593   24.0552 C   0  0  0  0  0  0
  -25.9048  -34.9440   23.5105 C   0  0  0  0  0  0
  -16.5357  -29.9088   23.6327 C   0  0  0  0  0  0
  -16.7280  -28.6505   23.0353 C   0  0  0  0  0  0
  -26.4482  -31.6596   25.0755 C   0  0  0  0  0  0
  -25.3695  -31.3743   26.1466 C   0  0  0  0  0  0
  -27.0326  -30.3018   24.6233 C   0  0  0  0  0  0
  -27.6068  -32.4305   25.7516 C   0  0  0  0  0  0
  -27.5581  -37.1778   24.8459 C   0  0  0  0  0  0
  -21.4201  -29.3035   22.3650 N   0  0  0  0  0  0
  -26.4277  -37.3772   23.9416 N   0  0  0  0  0  0
  -24.6957  -31.0531   22.0980 N   0  0  0  0  0  0
  -23.4209  -28.8139   23.3007 O   0  0  0  0  0  0
  -28.2993  -26.3364   20.2313 O   0  0  0  0  0  0
  -26.5626  -34.8903   22.4678 O   0  0  0  0  0  0
  -23.5429  -32.1405   23.7269 O   0  0  0  0  0  0
  -30.0920  -18.4457   17.9866 C   0  0  0  0  0  0
  -29.8079  -19.6672   18.6280 C   0  0  0  0  0  0
  -30.1430  -17.2322   18.6983 C   0  0  0  0  0  0
  -29.6032  -18.4615   20.7284 C   0  0  0  0  0  0
  -29.5639  -19.7389   20.0183 C   0  0  0  0  0  0
  -29.8987  -17.1848   20.0887 C   0  0  0  0  0  0
  -29.7318  -23.8227   21.5420 C   0  0  0  0  0  0
  -28.8889  -23.6855   20.5042 C   0  0  0  0  0  0
  -30.4776  -22.6443   22.1644 C   0  0  0  0  0  0
  -28.6933  -22.2337   19.9036 C   0  0  0  0  0  0
  -29.7614  -21.2804   21.9851 C   0  0  0  0  0  0
  -28.0401  -24.8886   19.9036 C   0  0  0  0  0  0
  -29.3424  -21.0546   20.6026 N   0  0  0  0  0  0
  -29.8541  -15.8488   20.7343 N   0  0  0  0  0  0
  -31.4780  -12.5502   19.1869 H   0  0  0  0  0  0
  -30.3706  -11.4553   19.9591 H   0  0  0  0  0  0
  -29.7960  -11.7141   17.5315 H   0  0  0  0  0  0
  -29.6613  -13.4443   17.7180 H   0  0  0  0  0  0
  -27.8836  -11.2885   18.8991 H   0  0  0  0  0  0
  -27.3861  -12.5420   17.7958 H   0  0  0  0  0  0
  -27.6484  -14.2580   19.4860 H   0  0  0  0  0  0
  -28.7126  -12.1473   21.4254 H   0  0  0  0  0  0
  -28.4250  -13.8269   21.8056 H   0  0  0  0  0  0
  -25.2771   -9.5708   22.4769 H   0  0  0  0  0  0
  -24.0024   -7.4657   22.7475 H   0  0  0  0  0  0
  -21.0852   -8.8788   19.8982 H   0  0  0  0  0  0
  -22.3695  -10.9687   19.6190 H   0  0  0  0  0  0
  -21.2006   -7.6163   23.9722 H   0  0  0  0  0  0
  -21.1491   -6.0526   25.9080 H   0  0  0  0  0  0
  -22.0593   -2.7614   23.2823 H   0  0  0  0  0  0
  -22.4041  -11.9929   22.4856 H   0  0  0  0  0  0
  -21.1078  -13.1287   22.2579 H   0  0  0  0  0  0
  -24.6606  -15.8466   20.5422 H   0  0  0  0  0  0
  -26.2768  -15.6344   20.0917 H   0  0  0  0  0  0
  -26.7185  -32.5433   23.1116 H   0  0  0  0  0  0
  -24.9998  -33.9733   25.0374 H   0  0  0  0  0  0
  -22.7228  -31.2991   21.3959 H   0  0  0  0  0  0
  -23.3758  -35.9596   23.3256 H   0  0  0  0  0  0
  -24.3583  -36.8941   22.2059 H   0  0  0  0  0  0
  -23.7217  -37.6462   23.6682 H   0  0  0  0  0  0
  -26.1071  -31.5281   20.6095 H   0  0  0  0  0  0
  -26.8538  -30.8263   22.0121 H   0  0  0  0  0  0
  -28.1122  -28.9029   21.2429 H   0  0  0  0  0  0
  -25.9444  -25.9446   18.9405 H   0  0  0  0  0  0
  -23.9789  -27.3299   18.9785 H   0  0  0  0  0  0
  -23.7708  -30.5944   19.4044 H   0  0  0  0  0  0
  -22.7688  -29.2470   19.8507 H   0  0  0  0  0  0
  -25.1275  -36.1911   25.0818 H   0  0  0  0  0  0
  -21.0003  -28.3260   24.1384 H   0  0  0  0  0  0
  -20.5665  -26.2299   23.3592 H   0  0  0  0  0  0
  -21.6641  -26.7424   22.1190 H   0  0  0  0  0  0
  -19.6902  -25.6289   21.1245 H   0  0  0  0  0  0
  -19.6697  -27.3174   20.6712 H   0  0  0  0  0  0
  -17.4194  -26.6656   21.4052 H   0  0  0  0  0  0
  -18.0366  -26.0092   22.9048 H   0  0  0  0  0  0
  -19.7938  -30.7267   24.2291 H   0  0  0  0  0  0
  -17.5016  -31.6280   24.5134 H   0  0  0  0  0  0
  -15.5357  -30.2989   23.7641 H   0  0  0  0  0  0
  -15.8683  -28.0808   22.7090 H   0  0  0  0  0  0
  -24.5876  -30.7095   25.7765 H   0  0  0  0  0  0
  -24.8875  -32.2911   26.4879 H   0  0  0  0  0  0
  -25.7988  -30.8921   27.0259 H   0  0  0  0  0  0
  -26.2919  -29.6785   24.1222 H   0  0  0  0  0  0
  -27.3969  -29.7260   25.4747 H   0  0  0  0  0  0
  -27.8803  -30.4296   23.9501 H   0  0  0  0  0  0
  -27.2730  -33.3605   26.2126 H   0  0  0  0  0  0
  -28.3874  -32.6865   25.0339 H   0  0  0  0  0  0
  -28.0752  -31.8413   26.5411 H   0  0  0  0  0  0
  -28.2554  -38.0114   24.7544 H   0  0  0  0  0  0
  -28.1117  -36.2650   24.6221 H   0  0  0  0  0  0
  -27.2310  -37.1333   25.8861 H   0  0  0  0  0  0
  -20.9381  -29.8781   21.6875 H   0  0  0  0  0  0
  -26.0155  -38.2825   24.1480 H   0  0  0  0  0  0
  -30.2778  -18.4400   16.9220 H   0  0  0  0  0  0
  -29.8162  -20.5557   18.0157 H   0  0  0  0  0  0
  -30.3476  -16.3266   18.1416 H   0  0  0  0  0  0
  -29.3930  -18.4575   21.7878 H   0  0  0  0  0  0
  -29.8991  -24.7965   21.9801 H   0  0  0  0  0  0
  -30.6202  -22.8375   23.2285 H   0  0  0  0  0  0
  -31.4752  -22.6048   21.7231 H   0  0  0  0  0  0
  -29.0218  -22.2906   18.8667 H   0  0  0  0  0  0
  -27.6198  -22.0376   19.8677 H   0  0  0  0  0  0
  -28.8743  -21.2486   22.6206 H   0  0  0  0  0  0
  -30.4219  -20.4838   22.3309 H   0  0  0  0  0  0
  -27.0296  -24.6281   20.2179 H   0  0  0  0  0  0
  -28.0668  -24.7886   18.8182 H   0  0  0  0  0  0
  -29.0011  -15.6555   21.2364 H   0  0  0  0  0  0
  1 25  1  0  0  0
  1 30  2  0  0  0
  1 84  1  0  0  0
  2  3  1  0  0  0
  2 25  1  0  0  0
  2 85  1  0  0  0
  2 86  1  0  0  0
  3  4  1  0  0  0
  3 87  1  0  0  0
  3 88  1  0  0  0
  4  5  1  0  0  0
  4 89  1  0  0  0
  4 90  1  0  0  0
  5  6  1  0  0  0
  5 26  1  0  0  0
  5 91  1  0  0  0
  6 25  1  0  0  0
  6 92  1  0  0  0
  6 93  1  0  0  0
  7  8  2  0  0  0
  7 26  1  0  0  0
  7 29  1  0  0  0
  8  9  1  0  0  0
  8 22  1  0  0  0
  9 10  1  0  0  0
  9 27  2  0  0  0
 10 11  2  0  0  0
 10 15  1  0  0  0
 11 12  1  0  0  0
 11 94  1  0  0  0
 12 13  2  0  0  0
 12 95  1  0  0  0
 13 14  1  0  0  0
 13 31  1  0  0  0
 14 15  2  0  0  0
 14 96  1  0  0  0
 15 97  1  0  0  0
 16 17  2  0  0  0
 16 21  1  0  0  0
 16 31  1  0  0  0
 17 18  1  0  0  0
 17 98  1  0  0  0
 18 19  2  0  0  0
 18 99  1  0  0  0
 19 20  1  0  0  0
 19 24  1  0  0  0
 20 21  2  0  0  0
 20100  1  0  0  0
 21 23  1  0  0  0
 22 28  1  0  0  0
 22 32  2  0  0  0
 26 27  1  0  0  0
 28101  1  0  0  0
 28102  1  0  0  0
 29103  1  0  0  0
 29104  1  0  0  0
 33 34  1  0  0  0
 33 66  1  0  0  0
 33 70  2  0  0  0
 34 36  1  0  0  0
 34 59  1  0  0  0
 34105  1  0  0  0
 35 44  2  0  0  0
 35 45  1  0  0  0
 35 68  1  0  0  0
 36 56  1  0  0  0
 36106  1  0  0  0
 37 39  1  0  0  0
 37 47  1  0  0  0
 37 66  1  0  0  0
 37107  1  0  0  0
 38 43  2  0  0  0
 38 46  1  0  0  0
 38 47  1  0  0  0
 39 64  1  0  0  0
 39 67  2  0  0  0
 40 52  1  0  0  0
 40 53  2  0  0  0
 40 58  1  0  0  0
 41108  1  0  0  0
 41109  1  0  0  0
 41110  1  0  0  0
 41 48  1  0  0  0
 42 43  1  0  0  0
 42 66  1  0  0  0
 42111  1  0  0  0
 42112  1  0  0  0
 43 44  1  0  0  0
 44113  1  0  0  0
 45 46  2  0  0  0
 45114  1  0  0  0
 46115  1  0  0  0
 47116  1  0  0  0
 47117  1  0  0  0
 48 56  1  0  0  0
 48 65  1  0  0  0
 48118  1  0  0  0
 49 50  1  0  0  0
 49 53  1  0  0  0
 49 64  1  0  0  0
 49119  1  0  0  0
 50 51  1  0  0  0
 50120  1  0  0  0
 50121  1  0  0  0
 51 52  1  0  0  0
 51122  1  0  0  0
 51123  1  0  0  0
 52124  1  0  0  0
 52125  1  0  0  0
 53 54  1  0  0  0
 54 55  2  0  0  0
 54126  1  0  0  0
 55 57  1  0  0  0
 55127  1  0  0  0
 56 69  2  0  0  0
 57 58  2  0  0  0
 57128  1  0  0  0
 58129  1  0  0  0
 59 60  1  0  0  0
 59 61  1  0  0  0
 59 62  1  0  0  0
 60130  1  0  0  0
 60131  1  0  0  0
 60132  1  0  0  0
 61133  1  0  0  0
 61134  1  0  0  0
 61135  1  0  0  0
 62136  1  0  0  0
 62137  1  0  0  0
 62138  1  0  0  0
 63 65  1  0  0  0
 63139  1  0  0  0
 63140  1  0  0  0
 63141  1  0  0  0
 64142  1  0  0  0
 65143  1  0  0  0
 68 82  1  0  0  0
 71 72  2  0  0  0
 71 73  1  0  0  0
 71144  1  0  0  0
 72 75  1  0  0  0
 72145  1  0  0  0
 73 76  2  0  0  0
 73146  1  0  0  0
 74 75  2  0  0  0
 74 76  1  0  0  0
 74147  1  0  0  0
 75 83  1  0  0  0
 76 84  1  0  0  0
 77 78  2  0  0  0
 77 79  1  0  0  0
 77148  1  0  0  0
 78 80  1  0  0  0
 78 82  1  0  0  0
 79 81  1  0  0  0
 79149  1  0  0  0
 79150  1  0  0  0
 80 83  1  0  0  0
 80151  1  0  0  0
 80152  1  0  0  0
 81 83  1  0  0  0
 81153  1  0  0  0
 81154  1  0  0  0
 82155  1  0  0  0
 82156  1  0  0  0
 84157  1  0  0  0
M  ISO  4   1 100  68 101  82 101  84 100
M  END
> <chiral flag>
0

> <version>
0

> <s_m_source_file>
/data/baiqing/PycharmProjects/Reinvent-master-3.2/result/LINK_invent/BTK/process_docking_weight1_custom_product_contain_oxygen_bond_distance_aromatic_linkinvent_7_9_3/rearranged_h_0074.sdf

> <i_m_source_file_index>
37

> <r_mmod_Potential_Energy-OPLS-2005>
202.491073608398

> <r_mmod_Stretch_Energy-OPLS-2005>
120.363975524902

> <r_mmod_Bend_Energy-OPLS-2005>
166.019760131836

> <r_mmod_Torsional_Energy-OPLS-2005>
237.667144775391

> <r_mmod_Improper_Torsional_Energy-OPLS-2005>
4.8375415802002

> <r_mmod_Van_der_Waal_Energy-OPLS-2005>
151.502517700195

> <r_mmod_Electrostatic_Energy-OPLS-2005>
-333.910583496094

> <r_mmod_Solvation_Energy-OPLS-2005>
-228.745544433594

> <b_mmod_Minimization_Converged-OPLS-2005>
0

> <r_mmod_RMS_Derivative-OPLS-2005>
2.41476917266846

$$$$
38
                    3D
 Structure written by MMmdl.
149157  0  0  1  0            999 V2000
  -30.5960  -14.6835   20.4932 C   0  0  0  0  0  0
  -30.4450  -12.4185   19.4592 C   0  0  0  0  0  0
  -29.5126  -12.5137   18.2295 C   0  0  0  0  0  0
  -28.0359  -12.3430   18.6402 C   0  0  0  0  0  0
  -27.6532  -13.2175   19.8634 C   0  0  2  0  0  0
  -28.6979  -13.0818   20.9944 C   0  0  0  0  0  0
  -25.2564  -13.8168   20.5685 C   0  0  0  0  0  0
  -24.1831  -13.0436   20.9194 C   0  0  0  0  0  0
  -24.6398  -11.6906   20.8740 C   0  0  0  0  0  0
  -23.9066  -10.4290   21.0406 C   0  0  0  0  0  0
  -24.3617   -9.4206   21.9184 C   0  0  0  0  0  0
  -23.6292   -8.2243   22.0753 C   0  0  0  0  0  0
  -22.4274   -8.0281   21.3545 C   0  0  0  0  0  0
  -21.9909   -9.0255   20.4647 C   0  0  0  0  0  0
  -22.7238  -10.2133   20.3056 C   0  0  0  0  0  0
  -21.6853   -6.0736   22.5279 C   0  0  0  0  0  0
  -21.4013   -6.5639   23.8213 C   0  0  0  0  0  0
  -21.3660   -5.6792   24.9176 C   0  0  0  0  0  0
  -21.6045   -4.3056   24.7226 C   0  0  0  0  0  0
  -21.8819   -3.8147   23.4347 C   0  0  0  0  0  0
  -21.9192   -4.6964   22.3403 C   0  0  0  0  0  0
  -22.7853  -13.5232   21.1855 C   0  0  0  0  0  0
  -22.1661   -4.2150   21.0980 F   0  0  0  0  0  0
  -21.5630   -3.4539   25.7739 F   0  0  0  0  0  0
  -30.0101  -13.4421   20.4328 N   0  0  0  0  0  0
  -26.2990  -12.9348   20.3315 N   0  0  0  0  0  0
  -25.9328  -11.6504   20.5755 N   0  0  0  0  0  0
  -22.0492  -12.8227   22.0411 N   0  0  0  0  0  0
  -25.4280  -15.1890   20.4094 N   0  0  0  0  0  0
  -31.7563  -14.8562   20.1058 O   0  0  0  0  0  0
  -21.6639   -6.8879   21.4241 O   0  0  0  0  0  0
  -22.3542  -14.5539   20.6702 O   0  0  0  0  0  0
  -24.6273  -31.8583   23.2012 C   0  0  0  0  0  0
  -25.9114  -32.4772   23.8348 C   0  0  1  0  0  0
  -27.2274  -27.3031   20.1262 C   0  0  0  0  0  0
  -25.5925  -33.8573   24.2273 N   0  0  0  0  0  0
  -23.4231  -30.4805   21.5432 C   0  0  2  0  0  0
  -24.8726  -28.9310   20.1120 C   0  0  0  0  0  0
  -22.7482  -29.4616   22.4925 C   0  0  0  0  0  0
  -18.0288  -28.1385   22.8487 C   0  0  0  0  0  0
  -24.1489  -36.7291   23.2637 C   0  0  0  0  0  0
  -25.9652  -30.7829   21.3766 C   0  0  0  0  0  0
  -26.0408  -29.4074   20.7220 C   0  0  0  0  0  0
  -27.2220  -28.6039   20.7221 C   0  0  0  0  0  0
  -26.0407  -26.8858   19.4849 C   0  0  0  0  0  0
  -24.8744  -27.6753   19.4844 C   0  0  0  0  0  0
  -23.6406  -29.8129   20.1594 C   0  0  0  0  0  0
  -25.4114  -36.3081   24.0328 C   0  0  1  0  0  0
  -20.5890  -28.3694   23.1276 C   0  0  2  0  0  0
  -20.6776  -26.9414   22.5409 C   0  0  0  0  0  0
  -19.5752  -26.6385   21.5211 C   0  0  0  0  0  0
  -18.1933  -26.7928   22.1624 C   0  0  0  0  0  0
  -19.1540  -28.8856   23.2878 C   0  0  0  0  0  0
  -18.9463  -30.1457   23.8896 C   0  0  0  0  0  0
  -17.6462  -30.6588   24.0563 C   0  0  0  0  0  0
  -25.9055  -34.9449   23.5104 C   0  0  0  0  0  0
  -16.5354  -29.9086   23.6328 C   0  0  0  0  0  0
  -16.7275  -28.6502   23.0354 C   0  0  0  0  0  0
  -26.4495  -31.6586   25.0723 C   0  0  0  0  0  0
  -25.3727  -31.3724   26.1448 C   0  0  0  0  0  0
  -27.0340  -30.3007   24.6189 C   0  0  0  0  0  0
  -27.6055  -32.4322   25.7495 C   0  0  0  0  0  0
  -27.5584  -37.1795   24.8459 C   0  0  0  0  0  0
  -21.4194  -29.3044   22.3666 N   0  0  0  0  0  0
  -26.4289  -37.3780   23.9414 N   0  0  0  0  0  0
  -24.6905  -31.0577   22.0972 N   0  0  0  0  0  0
  -23.4196  -28.8158   23.3015 O   0  0  0  0  0  0
  -28.3280  -26.4274   20.1468 O   0  0  0  0  0  0
  -26.5626  -34.8920   22.4672 O   0  0  0  0  0  0
  -23.5431  -32.1388   23.7328 O   0  0  0  0  0  0
  -30.7071  -19.3871   19.9810 C   0  0  0  0  0  0
  -28.5500  -19.3504   21.0195 C   0  0  0  0  0  0
  -30.8134  -17.9623   20.1118 C   0  0  0  0  0  0
  -28.6553  -17.9303   21.1505 C   0  0  0  0  0  0
  -29.5753  -20.1366   20.4240 C   0  0  0  0  0  0
  -29.7813  -17.1826   20.7025 C   0  0  0  0  0  0
  -28.9449  -23.9855   20.1961 C   0  0  0  0  0  0
  -28.1091  -25.0570   20.4423 C   0  0  0  0  0  0
  -28.6037  -22.5690   20.5568 C   0  0  0  0  0  0
  -29.5409  -21.6069   20.2437 N   0  0  0  0  0  0
  -29.7660  -15.7171   20.8655 N   0  0  0  0  0  0
  -27.5413  -22.2683   21.1055 O   0  0  0  0  0  0
  -31.4845  -12.5560   19.1565 H   0  0  0  0  0  0
  -30.3938  -11.4247   19.9068 H   0  0  0  0  0  0
  -29.7847  -11.7590   17.4905 H   0  0  0  0  0  0
  -29.6465  -13.4807   17.7415 H   0  0  0  0  0  0
  -27.8798  -11.2900   18.8775 H   0  0  0  0  0  0
  -27.3804  -12.5642   17.7969 H   0  0  0  0  0  0
  -27.6678  -14.2510   19.5170 H   0  0  0  0  0  0
  -28.7199  -12.0598   21.3757 H   0  0  0  0  0  0
  -28.4350  -13.7092   21.8473 H   0  0  0  0  0  0
  -25.2761   -9.5684   22.4758 H   0  0  0  0  0  0
  -24.0002   -7.4634   22.7471 H   0  0  0  0  0  0
  -21.0840   -8.8774   19.8954 H   0  0  0  0  0  0
  -22.3696  -10.9673   19.6166 H   0  0  0  0  0  0
  -21.2003   -7.6146   23.9718 H   0  0  0  0  0  0
  -21.1484   -6.0522   25.9079 H   0  0  0  0  0  0
  -22.0597   -2.7609   23.2847 H   0  0  0  0  0  0
  -22.4102  -11.9888   22.4804 H   0  0  0  0  0  0
  -21.1111  -13.1261   22.2613 H   0  0  0  0  0  0
  -24.6571  -15.8405   20.5092 H   0  0  0  0  0  0
  -26.2684  -15.6249   20.0518 H   0  0  0  0  0  0
  -26.7181  -32.5440   23.1096 H   0  0  0  0  0  0
  -25.0065  -33.9717   25.0413 H   0  0  0  0  0  0
  -22.7180  -31.3015   21.3974 H   0  0  0  0  0  0
  -23.3757  -35.9617   23.3287 H   0  0  0  0  0  0
  -24.3585  -36.8926   22.2054 H   0  0  0  0  0  0
  -23.7234  -37.6486   23.6667 H   0  0  0  0  0  0
  -26.0986  -31.5437   20.6064 H   0  0  0  0  0  0
  -26.8446  -30.8336   22.0068 H   0  0  0  0  0  0
  -28.1185  -28.9624   21.2082 H   0  0  0  0  0  0
  -26.0060  -25.9229   18.9952 H   0  0  0  0  0  0
  -23.9809  -27.3054   19.0004 H   0  0  0  0  0  0
  -23.7617  -30.5883   19.4022 H   0  0  0  0  0  0
  -22.7606  -29.2426   19.8565 H   0  0  0  0  0  0
  -25.1292  -36.1930   25.0820 H   0  0  0  0  0  0
  -20.9985  -28.3270   24.1395 H   0  0  0  0  0  0
  -20.5673  -26.2305   23.3612 H   0  0  0  0  0  0
  -21.6645  -26.7440   22.1202 H   0  0  0  0  0  0
  -19.6914  -25.6294   21.1244 H   0  0  0  0  0  0
  -19.6689  -27.3192   20.6739 H   0  0  0  0  0  0
  -17.4202  -26.6674   21.4028 H   0  0  0  0  0  0
  -18.0336  -26.0069   22.9020 H   0  0  0  0  0  0
  -19.7939  -30.7271   24.2267 H   0  0  0  0  0  0
  -17.5017  -31.6269   24.5163 H   0  0  0  0  0  0
  -15.5355  -30.2989   23.7651 H   0  0  0  0  0  0
  -15.8675  -28.0820   22.7073 H   0  0  0  0  0  0
  -24.5906  -30.7070   25.7773 H   0  0  0  0  0  0
  -24.8915  -32.2889   26.4872 H   0  0  0  0  0  0
  -25.8052  -30.8901   27.0224 H   0  0  0  0  0  0
  -26.2916  -29.6757   24.1213 H   0  0  0  0  0  0
  -27.4029  -29.7267   25.4700 H   0  0  0  0  0  0
  -27.8790  -30.4288   23.9421 H   0  0  0  0  0  0
  -27.2666  -33.3620   26.2075 H   0  0  0  0  0  0
  -28.3865  -32.6885   25.0323 H   0  0  0  0  0  0
  -28.0724  -31.8445   26.5410 H   0  0  0  0  0  0
  -28.2580  -38.0113   24.7542 H   0  0  0  0  0  0
  -28.1104  -36.2649   24.6238 H   0  0  0  0  0  0
  -27.2309  -37.1384   25.8862 H   0  0  0  0  0  0
  -20.9374  -29.8767   21.6873 H   0  0  0  0  0  0
  -26.0169  -38.2850   24.1437 H   0  0  0  0  0  0
  -31.5311  -19.9114   19.5177 H   0  0  0  0  0  0
  -27.6514  -19.8209   21.3890 H   0  0  0  0  0  0
  -31.7052  -17.4765   19.7421 H   0  0  0  0  0  0
  -27.8280  -17.4082   21.6105 H   0  0  0  0  0  0
  -29.8927  -24.1819   19.7171 H   0  0  0  0  0  0
  -27.1524  -24.9057   20.9261 H   0  0  0  0  0  0
  -30.3643  -21.9896   19.8002 H   0  0  0  0  0  0
  -28.8935  -15.3631   21.2264 H   0  0  0  0  0  0
  1 25  1  0  0  0
  1 30  2  0  0  0
  1 81  1  0  0  0
  2  3  1  0  0  0
  2 25  1  0  0  0
  2 83  1  0  0  0
  2 84  1  0  0  0
  3  4  1  0  0  0
  3 85  1  0  0  0
  3 86  1  0  0  0
  4  5  1  0  0  0
  4 87  1  0  0  0
  4 88  1  0  0  0
  5  6  1  0  0  0
  5 26  1  0  0  0
  5 89  1  0  0  0
  6 25  1  0  0  0
  6 90  1  0  0  0
  6 91  1  0  0  0
  7  8  2  0  0  0
  7 26  1  0  0  0
  7 29  1  0  0  0
  8  9  1  0  0  0
  8 22  1  0  0  0
  9 10  1  0  0  0
  9 27  2  0  0  0
 10 11  2  0  0  0
 10 15  1  0  0  0
 11 12  1  0  0  0
 11 92  1  0  0  0
 12 13  2  0  0  0
 12 93  1  0  0  0
 13 14  1  0  0  0
 13 31  1  0  0  0
 14 15  2  0  0  0
 14 94  1  0  0  0
 15 95  1  0  0  0
 16 17  2  0  0  0
 16 21  1  0  0  0
 16 31  1  0  0  0
 17 18  1  0  0  0
 17 96  1  0  0  0
 18 19  2  0  0  0
 18 97  1  0  0  0
 19 20  1  0  0  0
 19 24  1  0  0  0
 20 21  2  0  0  0
 20 98  1  0  0  0
 21 23  1  0  0  0
 22 28  1  0  0  0
 22 32  2  0  0  0
 26 27  1  0  0  0
 28 99  1  0  0  0
 28100  1  0  0  0
 29101  1  0  0  0
 29102  1  0  0  0
 33 34  1  0  0  0
 33 66  1  0  0  0
 33 70  2  0  0  0
 34 36  1  0  0  0
 34 59  1  0  0  0
 34103  1  0  0  0
 35 44  2  0  0  0
 35 45  1  0  0  0
 35 68  1  0  0  0
 36 56  1  0  0  0
 36104  1  0  0  0
 37 39  1  0  0  0
 37 47  1  0  0  0
 37 66  1  0  0  0
 37105  1  0  0  0
 38 43  2  0  0  0
 38 46  1  0  0  0
 38 47  1  0  0  0
 39 64  1  0  0  0
 39 67  2  0  0  0
 40 52  1  0  0  0
 40 53  2  0  0  0
 40 58  1  0  0  0
 41106  1  0  0  0
 41107  1  0  0  0
 41108  1  0  0  0
 41 48  1  0  0  0
 42 43  1  0  0  0
 42 66  1  0  0  0
 42109  1  0  0  0
 42110  1  0  0  0
 43 44  1  0  0  0
 44111  1  0  0  0
 45 46  2  0  0  0
 45112  1  0  0  0
 46113  1  0  0  0
 47114  1  0  0  0
 47115  1  0  0  0
 48 56  1  0  0  0
 48 65  1  0  0  0
 48116  1  0  0  0
 49 50  1  0  0  0
 49 53  1  0  0  0
 49 64  1  0  0  0
 49117  1  0  0  0
 50 51  1  0  0  0
 50118  1  0  0  0
 50119  1  0  0  0
 51 52  1  0  0  0
 51120  1  0  0  0
 51121  1  0  0  0
 52122  1  0  0  0
 52123  1  0  0  0
 53 54  1  0  0  0
 54 55  2  0  0  0
 54124  1  0  0  0
 55 57  1  0  0  0
 55125  1  0  0  0
 56 69  2  0  0  0
 57 58  2  0  0  0
 57126  1  0  0  0
 58127  1  0  0  0
 59 60  1  0  0  0
 59 61  1  0  0  0
 59 62  1  0  0  0
 60128  1  0  0  0
 60129  1  0  0  0
 60130  1  0  0  0
 61131  1  0  0  0
 61132  1  0  0  0
 61133  1  0  0  0
 62134  1  0  0  0
 62135  1  0  0  0
 62136  1  0  0  0
 63 65  1  0  0  0
 63137  1  0  0  0
 63138  1  0  0  0
 63139  1  0  0  0
 64140  1  0  0  0
 65141  1  0  0  0
 68 78  1  0  0  0
 71 73  2  0  0  0
 71 75  1  0  0  0
 71142  1  0  0  0
 72 74  1  0  0  0
 72 75  2  0  0  0
 72143  1  0  0  0
 73 76  1  0  0  0
 73144  1  0  0  0
 74 76  2  0  0  0
 74145  1  0  0  0
 75 80  1  0  0  0
 76 81  1  0  0  0
 77 78  2  0  0  0
 77 79  1  0  0  0
 77146  1  0  0  0
 78147  1  0  0  0
 79 80  1  0  0  0
 79 82  2  0  0  0
 80148  1  0  0  0
 81149  1  0  0  0
M  ISO  4   1 100  68 101  78 101  81 100
M  END
> <chiral flag>
0

> <version>
0

> <s_m_source_file>
/data/baiqing/PycharmProjects/Reinvent-master-3.2/result/LINK_invent/BTK/process_docking_weight1_custom_product_contain_oxygen_bond_distance_aromatic_linkinvent_7_9_3/rearranged_h_0074.sdf

> <i_m_source_file_index>
38

> <r_mmod_Potential_Energy-OPLS-2005>
11.3707761764526

> <r_mmod_Stretch_Energy-OPLS-2005>
87.9112396240234

> <r_mmod_Bend_Energy-OPLS-2005>
146.262603759766

> <r_mmod_Torsional_Energy-OPLS-2005>
214.702743530273

> <r_mmod_Improper_Torsional_Energy-OPLS-2005>
3.73163509368896

> <r_mmod_Van_der_Waal_Energy-OPLS-2005>
143.300109863281

> <r_mmod_Electrostatic_Energy-OPLS-2005>
-419.176147460938

> <r_mmod_Solvation_Energy-OPLS-2005>
-225.779449462891

> <b_mmod_Minimization_Converged-OPLS-2005>
0

> <r_mmod_RMS_Derivative-OPLS-2005>
0.261982887983322

$$$$
39
                    3D
 Structure written by MMmdl.
159168  0  0  1  0            999 V2000
  -30.6110  -14.5862   20.5381 C   0  0  0  0  0  0
  -30.4481  -12.3730   19.4220 C   0  0  0  0  0  0
  -29.5003  -12.5186   18.2092 C   0  0  0  0  0  0
  -28.0236  -12.3490   18.6249 C   0  0  0  0  0  0
  -27.6539  -13.2001   19.8664 C   0  0  2  0  0  0
  -28.7031  -13.0110   20.9869 C   0  0  0  0  0  0
  -25.2559  -13.8129   20.5683 C   0  0  0  0  0  0
  -24.1817  -13.0422   20.9181 C   0  0  0  0  0  0
  -24.6359  -11.6878   20.8728 C   0  0  0  0  0  0
  -23.9008  -10.4292   21.0427 C   0  0  0  0  0  0
  -24.3582   -9.4198   21.9198 C   0  0  0  0  0  0
  -23.6278   -8.2231   22.0746 C   0  0  0  0  0  0
  -22.4267   -8.0271   21.3542 C   0  0  0  0  0  0
  -21.9889   -9.0239   20.4657 C   0  0  0  0  0  0
  -22.7182  -10.2125   20.3072 C   0  0  0  0  0  0
  -21.6842   -6.0718   22.5282 C   0  0  0  0  0  0
  -21.4017   -6.5626   23.8206 C   0  0  0  0  0  0
  -21.3660   -5.6786   24.9173 C   0  0  0  0  0  0
  -21.6046   -4.3048   24.7231 C   0  0  0  0  0  0
  -21.8811   -3.8131   23.4354 C   0  0  0  0  0  0
  -21.9195   -4.6952   22.3410 C   0  0  0  0  0  0
  -22.7834  -13.5229   21.1872 C   0  0  0  0  0  0
  -22.1654   -4.2119   21.0990 F   0  0  0  0  0  0
  -21.5633   -3.4542   25.7742 F   0  0  0  0  0  0
  -30.0218  -13.3591   20.4277 N   0  0  0  0  0  0
  -26.2984  -12.9286   20.3316 N   0  0  0  0  0  0
  -25.9283  -11.6443   20.5723 N   0  0  0  0  0  0
  -22.0504  -12.8227   22.0442 N   0  0  0  0  0  0
  -25.4244  -15.1861   20.4079 N   0  0  0  0  0  0
  -31.7704  -14.8045   20.1728 O   0  0  0  0  0  0
  -21.6634   -6.8859   21.4244 O   0  0  0  0  0  0
  -22.3510  -14.5553   20.6733 O   0  0  0  0  0  0
  -24.6168  -31.8654   23.2056 C   0  0  0  0  0  0
  -25.9046  -32.4795   23.8381 C   0  0  1  0  0  0
  -27.2402  -27.3842   20.1271 C   0  0  0  0  0  0
  -25.5881  -33.8602   24.2310 N   0  0  0  0  0  0
  -23.4091  -30.4847   21.5460 C   0  0  2  0  0  0
  -24.8593  -28.9377   20.1223 C   0  0  0  0  0  0
  -22.7434  -29.4657   22.4996 C   0  0  0  0  0  0
  -18.0276  -28.1396   22.8487 C   0  0  0  0  0  0
  -24.1489  -36.7277   23.2637 C   0  0  0  0  0  0
  -25.9414  -30.8137   21.3694 C   0  0  0  0  0  0
  -26.0207  -29.4435   20.7192 C   0  0  0  0  0  0
  -27.2145  -28.6784   20.7092 C   0  0  0  0  0  0
  -26.0593  -26.9021   19.5254 C   0  0  0  0  0  0
  -24.8764  -27.6677   19.5191 C   0  0  0  0  0  0
  -23.6225  -29.8081   20.1653 C   0  0  0  0  0  0
  -25.4105  -36.3089   24.0346 C   0  0  1  0  0  0
  -20.5855  -28.3673   23.1310 C   0  0  2  0  0  0
  -20.6765  -26.9400   22.5419 C   0  0  0  0  0  0
  -19.5743  -26.6400   21.5203 C   0  0  0  0  0  0
  -18.1929  -26.7947   22.1624 C   0  0  0  0  0  0
  -19.1517  -28.8855   23.2895 C   0  0  0  0  0  0
  -18.9447  -30.1462   23.8904 C   0  0  0  0  0  0
  -17.6449  -30.6593   24.0567 C   0  0  0  0  0  0
  -25.9038  -34.9463   23.5122 C   0  0  0  0  0  0
  -16.5347  -29.9085   23.6323 C   0  0  0  0  0  0
  -16.7267  -28.6497   23.0354 C   0  0  0  0  0  0
  -26.4460  -31.6579   25.0713 C   0  0  0  0  0  0
  -25.3714  -31.3703   26.1450 C   0  0  0  0  0  0
  -27.0286  -30.3004   24.6133 C   0  0  0  0  0  0
  -27.6055  -32.4283   25.7466 C   0  0  0  0  0  0
  -27.5580  -37.1783   24.8465 C   0  0  0  0  0  0
  -21.4155  -29.3027   22.3727 N   0  0  0  0  0  0
  -26.4290  -37.3776   23.9417 N   0  0  0  0  0  0
  -24.6731  -31.0717   22.0972 N   0  0  0  0  0  0
  -23.4185  -28.8239   23.3098 O   0  0  0  0  0  0
  -28.4215  -26.6555   20.0813 O   0  0  0  0  0  0
  -26.5619  -34.8910   22.4696 O   0  0  0  0  0  0
  -23.5334  -32.1477   23.7377 O   0  0  0  0  0  0
  -29.4810  -19.4157   22.6259 C   0  0  0  0  0  0
  -29.6015  -18.2398   23.3911 C   0  0  0  0  0  0
  -29.7667  -18.0956   20.5938 C   0  0  0  0  0  0
  -29.5773  -19.3757   21.2174 C   0  0  0  0  0  0
  -29.7816  -16.9870   22.7745 C   0  0  0  0  0  0
  -29.8603  -16.8906   21.3656 C   0  0  0  0  0  0
  -30.0512  -22.5480   19.2827 C   0  0  0  0  0  0
  -30.4600  -21.1204   19.6968 C   0  0  0  0  0  0
  -28.4442  -21.6701   20.7589 C   0  0  0  0  0  0
  -28.5883  -22.7191   19.6225 C   0  0  2  0  0  0
  -27.9642  -24.1715   19.6605 C   0  0  0  0  0  0
  -28.4783  -25.2977   20.6080 C   0  0  0  0  0  0
  -29.4766  -20.6291   20.4874 N   0  0  0  0  0  0
  -29.8083  -15.8414   23.5707 N   0  0  0  0  0  0
  -29.7192  -15.5784   20.7909 N   0  0  0  0  0  0
  -30.7738  -23.4079   18.7608 O   0  0  0  0  0  0
  -31.4999  -20.5504   19.3397 O   0  0  0  0  0  0
  -31.4844  -12.5211   19.1126 H   0  0  0  0  0  0
  -30.3949  -11.3648   19.8357 H   0  0  0  0  0  0
  -29.7587  -11.7915   17.4385 H   0  0  0  0  0  0
  -29.6294  -13.5044   17.7580 H   0  0  0  0  0  0
  -27.8604  -11.2914   18.8353 H   0  0  0  0  0  0
  -27.3662  -12.5977   17.7917 H   0  0  0  0  0  0
  -27.6794  -14.2411   19.5417 H   0  0  0  0  0  0
  -28.7050  -11.9764   21.3309 H   0  0  0  0  0  0
  -28.4567  -13.6086   21.8664 H   0  0  0  0  0  0
  -25.2739   -9.5658   22.4740 H   0  0  0  0  0  0
  -23.9992   -7.4609   22.7454 H   0  0  0  0  0  0
  -21.0805   -8.8762   19.8964 H   0  0  0  0  0  0
  -22.3662  -10.9667   19.6180 H   0  0  0  0  0  0
  -21.2000   -7.6132   23.9691 H   0  0  0  0  0  0
  -21.1498   -6.0528   25.9066 H   0  0  0  0  0  0
  -22.0593   -2.7594   23.2868 H   0  0  0  0  0  0
  -22.4170  -11.9913   22.4831 H   0  0  0  0  0  0
  -21.1124  -13.1229   22.2702 H   0  0  0  0  0  0
  -24.6540  -15.8335   20.5338 H   0  0  0  0  0  0
  -26.2605  -15.6319   20.0583 H   0  0  0  0  0  0
  -26.7121  -32.5511   23.1155 H   0  0  0  0  0  0
  -25.0032  -33.9805   25.0454 H   0  0  0  0  0  0
  -22.6944  -31.2966   21.3985 H   0  0  0  0  0  0
  -23.3760  -35.9601   23.3324 H   0  0  0  0  0  0
  -24.3587  -36.8860   22.2044 H   0  0  0  0  0  0
  -23.7228  -37.6484   23.6636 H   0  0  0  0  0  0
  -26.0693  -31.5790   20.6025 H   0  0  0  0  0  0
  -26.8225  -30.8640   21.9975 H   0  0  0  0  0  0
  -28.1142  -29.0721   21.1629 H   0  0  0  0  0  0
  -26.0456  -25.9394   19.0395 H   0  0  0  0  0  0
  -23.9884  -27.2733   19.0446 H   0  0  0  0  0  0
  -23.7340  -30.5778   19.4011 H   0  0  0  0  0  0
  -22.7459  -29.2277   19.8698 H   0  0  0  0  0  0
  -25.1277  -36.1964   25.0842 H   0  0  0  0  0  0
  -20.9959  -28.3262   24.1431 H   0  0  0  0  0  0
  -20.5645  -26.2286   23.3631 H   0  0  0  0  0  0
  -21.6641  -26.7456   22.1210 H   0  0  0  0  0  0
  -19.6898  -25.6310   21.1225 H   0  0  0  0  0  0
  -19.6673  -27.3235   20.6748 H   0  0  0  0  0  0
  -17.4194  -26.6681   21.4043 H   0  0  0  0  0  0
  -18.0324  -26.0098   22.9015 H   0  0  0  0  0  0
  -19.7923  -30.7269   24.2280 H   0  0  0  0  0  0
  -17.5001  -31.6274   24.5173 H   0  0  0  0  0  0
  -15.5343  -30.2989   23.7644 H   0  0  0  0  0  0
  -15.8670  -28.0827   22.7063 H   0  0  0  0  0  0
  -24.5942  -30.6972   25.7791 H   0  0  0  0  0  0
  -24.8829  -32.2846   26.4825 H   0  0  0  0  0  0
  -25.8058  -30.8949   27.0253 H   0  0  0  0  0  0
  -26.2851  -29.6776   24.1128 H   0  0  0  0  0  0
  -27.3960  -29.7222   25.4618 H   0  0  0  0  0  0
  -27.8732  -30.4278   23.9359 H   0  0  0  0  0  0
  -27.2730  -33.3607   26.2052 H   0  0  0  0  0  0
  -28.3871  -32.6798   25.0279 H   0  0  0  0  0  0
  -28.0727  -31.8389   26.5376 H   0  0  0  0  0  0
  -28.2594  -38.0083   24.7534 H   0  0  0  0  0  0
  -28.1084  -36.2618   24.6275 H   0  0  0  0  0  0
  -27.2311  -37.1416   25.8872 H   0  0  0  0  0  0
  -20.9336  -29.8703   21.6896 H   0  0  0  0  0  0
  -26.0178  -38.2851   24.1432 H   0  0  0  0  0  0
  -29.3233  -20.3531   23.1436 H   0  0  0  0  0  0
  -29.5159  -18.3035   24.4675 H   0  0  0  0  0  0
  -29.7782  -18.0302   19.5152 H   0  0  0  0  0  0
  -27.4449  -21.2317   20.7514 H   0  0  0  0  0  0
  -28.6055  -22.1290   21.7374 H   0  0  0  0  0  0
  -28.0922  -22.2638   18.7647 H   0  0  0  0  0  0
  -26.8936  -24.0611   19.8273 H   0  0  0  0  0  0
  -28.0561  -24.5616   18.6470 H   0  0  0  0  0  0
  -29.5268  -25.1122   20.8493 H   0  0  0  0  0  0
  -27.9525  -25.2512   21.5611 H   0  0  0  0  0  0
  -29.8829  -15.9581   24.5758 H   0  0  0  0  0  0
  -30.3150  -15.0329   23.2329 H   0  0  0  0  0  0
  -28.8076  -15.1858   20.9607 H   0  0  0  0  0  0
  1 25  1  0  0  0
  1 30  2  0  0  0
  1 85  1  0  0  0
  2  3  1  0  0  0
  2 25  1  0  0  0
  2 88  1  0  0  0
  2 89  1  0  0  0
  3  4  1  0  0  0
  3 90  1  0  0  0
  3 91  1  0  0  0
  4  5  1  0  0  0
  4 92  1  0  0  0
  4 93  1  0  0  0
  5  6  1  0  0  0
  5 26  1  0  0  0
  5 94  1  0  0  0
  6 25  1  0  0  0
  6 95  1  0  0  0
  6 96  1  0  0  0
  7  8  2  0  0  0
  7 26  1  0  0  0
  7 29  1  0  0  0
  8  9  1  0  0  0
  8 22  1  0  0  0
  9 10  1  0  0  0
  9 27  2  0  0  0
 10 11  2  0  0  0
 10 15  1  0  0  0
 11 12  1  0  0  0
 11 97  1  0  0  0
 12 13  2  0  0  0
 12 98  1  0  0  0
 13 14  1  0  0  0
 13 31  1  0  0  0
 14 15  2  0  0  0
 14 99  1  0  0  0
 15100  1  0  0  0
 16 17  2  0  0  0
 16 21  1  0  0  0
 16 31  1  0  0  0
 17 18  1  0  0  0
 17101  1  0  0  0
 18 19  2  0  0  0
 18102  1  0  0  0
 19 20  1  0  0  0
 19 24  1  0  0  0
 20 21  2  0  0  0
 20103  1  0  0  0
 21 23  1  0  0  0
 22 28  1  0  0  0
 22 32  2  0  0  0
 26 27  1  0  0  0
 28104  1  0  0  0
 28105  1  0  0  0
 29106  1  0  0  0
 29107  1  0  0  0
 33 34  1  0  0  0
 33 66  1  0  0  0
 33 70  2  0  0  0
 34 36  1  0  0  0
 34 59  1  0  0  0
 34108  1  0  0  0
 35 44  2  0  0  0
 35 45  1  0  0  0
 35 68  1  0  0  0
 36 56  1  0  0  0
 36109  1  0  0  0
 37 39  1  0  0  0
 37 47  1  0  0  0
 37 66  1  0  0  0
 37110  1  0  0  0
 38 43  2  0  0  0
 38 46  1  0  0  0
 38 47  1  0  0  0
 39 64  1  0  0  0
 39 67  2  0  0  0
 40 52  1  0  0  0
 40 53  2  0  0  0
 40 58  1  0  0  0
 41111  1  0  0  0
 41112  1  0  0  0
 41113  1  0  0  0
 41 48  1  0  0  0
 42 43  1  0  0  0
 42 66  1  0  0  0
 42114  1  0  0  0
 42115  1  0  0  0
 43 44  1  0  0  0
 44116  1  0  0  0
 45 46  2  0  0  0
 45117  1  0  0  0
 46118  1  0  0  0
 47119  1  0  0  0
 47120  1  0  0  0
 48 56  1  0  0  0
 48 65  1  0  0  0
 48121  1  0  0  0
 49 50  1  0  0  0
 49 53  1  0  0  0
 49 64  1  0  0  0
 49122  1  0  0  0
 50 51  1  0  0  0
 50123  1  0  0  0
 50124  1  0  0  0
 51 52  1  0  0  0
 51125  1  0  0  0
 51126  1  0  0  0
 52127  1  0  0  0
 52128  1  0  0  0
 53 54  1  0  0  0
 54 55  2  0  0  0
 54129  1  0  0  0
 55 57  1  0  0  0
 55130  1  0  0  0
 56 69  2  0  0  0
 57 58  2  0  0  0
 57131  1  0  0  0
 58132  1  0  0  0
 59 60  1  0  0  0
 59 61  1  0  0  0
 59 62  1  0  0  0
 60133  1  0  0  0
 60134  1  0  0  0
 60135  1  0  0  0
 61136  1  0  0  0
 61137  1  0  0  0
 61138  1  0  0  0
 62139  1  0  0  0
 62140  1  0  0  0
 62141  1  0  0  0
 63 65  1  0  0  0
 63142  1  0  0  0
 63143  1  0  0  0
 63144  1  0  0  0
 64145  1  0  0  0
 65146  1  0  0  0
 68 82  1  0  0  0
 71 72  2  0  0  0
 71 74  1  0  0  0
 71147  1  0  0  0
 72 75  1  0  0  0
 72148  1  0  0  0
 73 74  2  0  0  0
 73 76  1  0  0  0
 73149  1  0  0  0
 74 83  1  0  0  0
 75 76  2  0  0  0
 75 84  1  0  0  0
 76 85  1  0  0  0
 77 78  1  0  0  0
 77 80  1  0  0  0
 77 86  2  0  0  0
 78 83  1  0  0  0
 78 87  2  0  0  0
 79 80  1  0  0  0
 79 83  1  0  0  0
 79150  1  0  0  0
 79151  1  0  0  0
 80 81  1  0  0  0
 80152  1  0  0  0
 81 82  1  0  0  0
 81153  1  0  0  0
 81154  1  0  0  0
 82155  1  0  0  0
 82156  1  0  0  0
 84157  1  0  0  0
 84158  1  0  0  0
 85159  1  0  0  0
M  ISO  4   1 100  68 101  82 101  85 100
M  END
> <chiral flag>
0

> <version>
0

> <s_m_source_file>
/data/baiqing/PycharmProjects/Reinvent-master-3.2/result/LINK_invent/BTK/process_docking_weight1_custom_product_contain_oxygen_bond_distance_aromatic_linkinvent_7_9_3/rearranged_h_0074.sdf

> <i_m_source_file_index>
39

> <r_mmod_Potential_Energy-OPLS-2005>
64.658805847168

> <r_mmod_Stretch_Energy-OPLS-2005>
56.4687309265137

> <r_mmod_Bend_Energy-OPLS-2005>
181.900360107422

> <r_mmod_Torsional_Energy-OPLS-2005>
306.706420898438

> <r_mmod_Improper_Torsional_Energy-OPLS-2005>
15.3947696685791

> <r_mmod_Van_der_Waal_Energy-OPLS-2005>
135.821044921875

> <r_mmod_Electrostatic_Energy-OPLS-2005>
-400.457611083984

> <r_mmod_Solvation_Energy-OPLS-2005>
-259.325744628906

> <b_mmod_Minimization_Converged-OPLS-2005>
0

> <r_mmod_RMS_Derivative-OPLS-2005>
4.47705841064453

$$$$
40
                    3D
 Structure written by MMmdl.
169178  0  0  1  0            999 V2000
  -30.7891  -14.4754   20.4494 C   0  0  0  0  0  0
  -30.3890  -12.2853   19.4314 C   0  0  0  0  0  0
  -29.4807  -12.4769   18.2036 C   0  0  0  0  0  0
  -28.0066  -12.3454   18.6194 C   0  0  0  0  0  0
  -27.6510  -13.2182   19.8515 C   0  0  2  0  0  0
  -28.7087  -13.0731   20.9746 C   0  0  0  0  0  0
  -25.2573  -13.8156   20.5710 C   0  0  0  0  0  0
  -24.1853  -13.0430   20.9260 C   0  0  0  0  0  0
  -24.6426  -11.6912   20.8803 C   0  0  0  0  0  0
  -23.9112  -10.4286   21.0448 C   0  0  0  0  0  0
  -24.3655   -9.4192   21.9212 C   0  0  0  0  0  0
  -23.6323   -8.2224   22.0777 C   0  0  0  0  0  0
  -22.4303   -8.0291   21.3555 C   0  0  0  0  0  0
  -21.9966   -9.0263   20.4660 C   0  0  0  0  0  0
  -22.7302  -10.2144   20.3076 C   0  0  0  0  0  0
  -21.6844   -6.0782   22.5298 C   0  0  0  0  0  0
  -21.4003   -6.5668   23.8237 C   0  0  0  0  0  0
  -21.3655   -5.6821   24.9181 C   0  0  0  0  0  0
  -21.6048   -4.3089   24.7232 C   0  0  0  0  0  0
  -21.8809   -3.8204   23.4352 C   0  0  0  0  0  0
  -21.9195   -4.7013   22.3409 C   0  0  0  0  0  0
  -22.7870  -13.5225   21.1876 C   0  0  0  0  0  0
  -22.1669   -4.2226   21.0982 F   0  0  0  0  0  0
  -21.5631   -3.4562   25.7738 F   0  0  0  0  0  0
  -30.0306  -13.3418   20.3955 N   0  0  0  0  0  0
  -26.3017  -12.9359   20.3340 N   0  0  0  0  0  0
  -25.9375  -11.6515   20.5839 N   0  0  0  0  0  0
  -22.0480  -12.8212   22.0409 N   0  0  0  0  0  0
  -25.4275  -15.1852   20.4062 N   0  0  0  0  0  0
  -31.9818  -14.4140   20.1479 O   0  0  0  0  0  0
  -21.6630   -6.8918   21.4260 O   0  0  0  0  0  0
  -22.3554  -14.5527   20.6723 O   0  0  0  0  0  0
  -24.6152  -31.8684   23.2104 C   0  0  0  0  0  0
  -25.9034  -32.4829   23.8419 C   0  0  1  0  0  0
  -27.2340  -27.4588   20.0622 C   0  0  0  0  0  0
  -25.5878  -33.8634   24.2342 N   0  0  0  0  0  0
  -23.4031  -30.4932   21.5522 C   0  0  2  0  0  0
  -24.8456  -28.9595   20.1268 C   0  0  0  0  0  0
  -22.7405  -29.4683   22.5010 C   0  0  0  0  0  0
  -18.0282  -28.1376   22.8528 C   0  0  0  0  0  0
  -24.1471  -36.7320   23.2648 C   0  0  0  0  0  0
  -25.9314  -30.8396   21.3616 C   0  0  0  0  0  0
  -26.0106  -29.4741   20.7109 C   0  0  0  0  0  0
  -27.2124  -28.7302   20.6779 C   0  0  0  0  0  0
  -26.0341  -26.9330   19.5364 C   0  0  0  0  0  0
  -24.8489  -27.6841   19.5449 C   0  0  0  0  0  0
  -23.6119  -29.8272   20.1693 C   0  0  0  0  0  0
  -25.4102  -36.3114   24.0340 C   0  0  1  0  0  0
  -20.5858  -28.3675   23.1315 C   0  0  2  0  0  0
  -20.6758  -26.9411   22.5420 C   0  0  0  0  0  0
  -19.5734  -26.6391   21.5220 C   0  0  0  0  0  0
  -18.1916  -26.7935   22.1633 C   0  0  0  0  0  0
  -19.1525  -28.8840   23.2915 C   0  0  0  0  0  0
  -18.9455  -30.1442   23.8925 C   0  0  0  0  0  0
  -17.6461  -30.6587   24.0572 C   0  0  0  0  0  0
  -25.9027  -34.9478   23.5145 C   0  0  0  0  0  0
  -16.5350  -29.9098   23.6320 C   0  0  0  0  0  0
  -16.7270  -28.6494   23.0378 C   0  0  0  0  0  0
  -26.4454  -31.6621   25.0754 C   0  0  0  0  0  0
  -25.3707  -31.3714   26.1489 C   0  0  0  0  0  0
  -27.0324  -30.3079   24.6147 C   0  0  0  0  0  0
  -27.6032  -32.4348   25.7508 C   0  0  0  0  0  0
  -27.5588  -37.1789   24.8460 C   0  0  0  0  0  0
  -21.4132  -29.3052   22.3731 N   0  0  0  0  0  0
  -26.4279  -37.3809   23.9438 N   0  0  0  0  0  0
  -24.6681  -31.0811   22.0996 N   0  0  0  0  0  0
  -23.4158  -28.8221   23.3055 O   0  0  0  0  0  0
  -28.4029  -26.7341   19.9703 O   0  0  0  0  0  0
  -26.5611  -34.8930   22.4714 O   0  0  0  0  0  0
  -23.5340  -32.1432   23.7481 O   0  0  0  0  0  0
  -27.6571  -21.6383   19.3696 C   0  0  0  0  0  0
  -28.0014  -21.0340   17.0319 C   0  0  0  0  0  0
  -27.9627  -20.3130   19.7513 C   0  0  0  0  0  0
  -28.3237  -19.7182   17.4172 C   0  0  0  0  0  0
  -27.6940  -22.0081   18.0065 C   0  0  0  0  0  0
  -28.3244  -19.3530   18.7817 C   0  0  0  0  0  0
  -28.8027  -16.2789   20.7658 C   0  0  0  0  0  0
  -28.1777  -17.2617   20.0841 C   0  0  0  0  0  0
  -27.4666  -23.3931   17.5826 C   0  0  0  0  0  0
  -28.2618  -25.7564   17.7083 C   0  0  0  0  0  0
  -30.8327  -16.7036   19.3479 C   0  0  0  0  0  0
  -30.2664  -18.1098   19.1298 C   0  0  0  0  0  0
  -30.2923  -15.9524   20.6229 C   0  0  2  0  0  0
  -30.9995  -16.5331   21.8688 C   0  0  0  0  0  0
  -30.4932  -26.3718   18.7591 C   0  0  0  0  0  0
  -28.9985  -26.7176   18.6597 C   0  0  2  0  0  0
  -28.8057  -18.0886   19.1619 N   0  0  0  0  0  0
  -28.1861  -24.3884   18.1427 N   0  0  0  0  0  0
  -26.5749  -23.6104   16.6080 N   0  3  0  0  0  0
  -27.7142  -26.1544   16.6724 O   0  0  0  0  0  0
  -31.4357  -12.2993   19.1252 H   0  0  0  0  0  0
  -30.2400  -11.3012   19.8746 H   0  0  0  0  0  0
  -29.7208  -11.7440   17.4329 H   0  0  0  0  0  0
  -29.6549  -13.4561   17.7561 H   0  0  0  0  0  0
  -27.8215  -11.2959   18.8443 H   0  0  0  0  0  0
  -27.3524  -12.5942   17.7829 H   0  0  0  0  0  0
  -27.6643  -14.2466   19.4941 H   0  0  0  0  0  0
  -28.6888  -12.0549   21.3673 H   0  0  0  0  0  0
  -28.5101  -13.7085   21.8323 H   0  0  0  0  0  0
  -25.2780   -9.5684   22.4845 H   0  0  0  0  0  0
  -24.0049   -7.4611   22.7490 H   0  0  0  0  0  0
  -21.0910   -8.8773   19.8948 H   0  0  0  0  0  0
  -22.3744  -10.9707   19.6228 H   0  0  0  0  0  0
  -21.1973   -7.6180   23.9770 H   0  0  0  0  0  0
  -21.1494   -6.0540   25.9093 H   0  0  0  0  0  0
  -22.0603   -2.7684   23.2812 H   0  0  0  0  0  0
  -22.4051  -11.9864   22.4821 H   0  0  0  0  0  0
  -21.1092  -13.1242   22.2582 H   0  0  0  0  0  0
  -24.6596  -15.8384   20.5058 H   0  0  0  0  0  0
  -26.2731  -15.6127   20.0539 H   0  0  0  0  0  0
  -26.7119  -32.5543   23.1209 H   0  0  0  0  0  0
  -24.9991  -33.9799   25.0458 H   0  0  0  0  0  0
  -22.6950  -31.3100   21.4057 H   0  0  0  0  0  0
  -23.3735  -35.9641   23.3262 H   0  0  0  0  0  0
  -24.3579  -36.8996   22.2076 H   0  0  0  0  0  0
  -23.7172  -37.6493   23.6686 H   0  0  0  0  0  0
  -26.0397  -31.6050   20.5918 H   0  0  0  0  0  0
  -26.8217  -30.8974   21.9751 H   0  0  0  0  0  0
  -28.1201  -29.1395   21.1012 H   0  0  0  0  0  0
  -25.9988  -25.9425   19.1117 H   0  0  0  0  0  0
  -23.9494  -27.2699   19.1131 H   0  0  0  0  0  0
  -23.7249  -30.5978   19.4049 H   0  0  0  0  0  0
  -22.7392  -29.2442   19.8727 H   0  0  0  0  0  0
  -25.1254  -36.2000   25.0827 H   0  0  0  0  0  0
  -20.9962  -28.3234   24.1415 H   0  0  0  0  0  0
  -20.5667  -26.2282   23.3609 H   0  0  0  0  0  0
  -21.6628  -26.7447   22.1192 H   0  0  0  0  0  0
  -19.6886  -25.6294   21.1260 H   0  0  0  0  0  0
  -19.6670  -27.3211   20.6756 H   0  0  0  0  0  0
  -17.4178  -26.6718   21.4033 H   0  0  0  0  0  0
  -18.0309  -26.0062   22.9011 H   0  0  0  0  0  0
  -19.7914  -30.7278   24.2311 H   0  0  0  0  0  0
  -17.4994  -31.6277   24.5168 H   0  0  0  0  0  0
  -15.5356  -30.3019   23.7597 H   0  0  0  0  0  0
  -15.8676  -28.0827   22.7096 H   0  0  0  0  0  0
  -24.5878  -30.7082   25.7783 H   0  0  0  0  0  0
  -24.8897  -32.2870   26.4955 H   0  0  0  0  0  0
  -25.8049  -30.8845   27.0234 H   0  0  0  0  0  0
  -26.2905  -29.6818   24.1185 H   0  0  0  0  0  0
  -27.4086  -29.7349   25.4631 H   0  0  0  0  0  0
  -27.8716  -30.4427   23.9322 H   0  0  0  0  0  0
  -27.2672  -33.3653   26.2107 H   0  0  0  0  0  0
  -28.3827  -32.6923   25.0317 H   0  0  0  0  0  0
  -28.0719  -31.8457   26.5407 H   0  0  0  0  0  0
  -28.2536  -38.0150   24.7600 H   0  0  0  0  0  0
  -28.1140  -36.2683   24.6155 H   0  0  0  0  0  0
  -27.2321  -37.1305   25.8861 H   0  0  0  0  0  0
  -20.9287  -29.8788   21.6969 H   0  0  0  0  0  0
  -26.0159  -38.2860   24.1520 H   0  0  0  0  0  0
  -27.4157  -22.3657   20.1327 H   0  0  0  0  0  0
  -28.0455  -21.3025   15.9834 H   0  0  0  0  0  0
  -27.9735  -20.0523   20.8014 H   0  0  0  0  0  0
  -28.5993  -18.9939   16.6641 H   0  0  0  0  0  0
  -28.2375  -15.7358   21.5054 H   0  0  0  0  0  0
  -27.1338  -17.4951   20.2506 H   0  0  0  0  0  0
  -31.9200  -16.7873   19.3604 H   0  0  0  0  0  0
  -30.6077  -16.1196   18.4514 H   0  0  0  0  0  0
  -30.6308  -18.5028   18.1774 H   0  0  0  0  0  0
  -30.6320  -18.7866   19.9064 H   0  0  0  0  0  0
  -30.7724  -17.5911   21.9928 H   0  0  0  0  0  0
  -32.0857  -16.4463   21.8015 H   0  0  0  0  0  0
  -30.6847  -16.0192   22.7792 H   0  0  0  0  0  0
  -30.9360  -26.2378   17.7712 H   0  0  0  0  0  0
  -30.6606  -25.4562   19.3256 H   0  0  0  0  0  0
  -31.0476  -27.1725   19.2502 H   0  0  0  0  0  0
  -28.9228  -27.7171   18.2277 H   0  0  0  0  0  0
  -28.6985  -24.0778   18.9532 H   0  0  0  0  0  0
  -26.0236  -22.8538   16.2322 H   0  0  0  0  0  0
  -26.4616  -24.5461   16.2416 H   0  0  0  0  0  0
  1 25  1  0  0  0
  1 30  2  0  0  0
  1 83  1  0  0  0
  2  3  1  0  0  0
  2 25  1  0  0  0
  2 91  1  0  0  0
  2 92  1  0  0  0
  3  4  1  0  0  0
  3 93  1  0  0  0
  3 94  1  0  0  0
  4  5  1  0  0  0
  4 95  1  0  0  0
  4 96  1  0  0  0
  5  6  1  0  0  0
  5 26  1  0  0  0
  5 97  1  0  0  0
  6 25  1  0  0  0
  6 98  1  0  0  0
  6 99  1  0  0  0
  7  8  2  0  0  0
  7 26  1  0  0  0
  7 29  1  0  0  0
  8  9  1  0  0  0
  8 22  1  0  0  0
  9 10  1  0  0  0
  9 27  2  0  0  0
 10 11  2  0  0  0
 10 15  1  0  0  0
 11 12  1  0  0  0
 11100  1  0  0  0
 12 13  2  0  0  0
 12101  1  0  0  0
 13 14  1  0  0  0
 13 31  1  0  0  0
 14 15  2  0  0  0
 14102  1  0  0  0
 15103  1  0  0  0
 16 17  2  0  0  0
 16 21  1  0  0  0
 16 31  1  0  0  0
 17 18  1  0  0  0
 17104  1  0  0  0
 18 19  2  0  0  0
 18105  1  0  0  0
 19 20  1  0  0  0
 19 24  1  0  0  0
 20 21  2  0  0  0
 20106  1  0  0  0
 21 23  1  0  0  0
 22 28  1  0  0  0
 22 32  2  0  0  0
 26 27  1  0  0  0
 28107  1  0  0  0
 28108  1  0  0  0
 29109  1  0  0  0
 29110  1  0  0  0
 33 34  1  0  0  0
 33 66  1  0  0  0
 33 70  2  0  0  0
 34 36  1  0  0  0
 34 59  1  0  0  0
 34111  1  0  0  0
 35 44  2  0  0  0
 35 45  1  0  0  0
 35 68  1  0  0  0
 36 56  1  0  0  0
 36112  1  0  0  0
 37 39  1  0  0  0
 37 47  1  0  0  0
 37 66  1  0  0  0
 37113  1  0  0  0
 38 43  2  0  0  0
 38 46  1  0  0  0
 38 47  1  0  0  0
 39 64  1  0  0  0
 39 67  2  0  0  0
 40 52  1  0  0  0
 40 53  2  0  0  0
 40 58  1  0  0  0
 41114  1  0  0  0
 41115  1  0  0  0
 41116  1  0  0  0
 41 48  1  0  0  0
 42 43  1  0  0  0
 42 66  1  0  0  0
 42117  1  0  0  0
 42118  1  0  0  0
 43 44  1  0  0  0
 44119  1  0  0  0
 45 46  2  0  0  0
 45120  1  0  0  0
 46121  1  0  0  0
 47122  1  0  0  0
 47123  1  0  0  0
 48 56  1  0  0  0
 48 65  1  0  0  0
 48124  1  0  0  0
 49 50  1  0  0  0
 49 53  1  0  0  0
 49 64  1  0  0  0
 49125  1  0  0  0
 50 51  1  0  0  0
 50126  1  0  0  0
 50127  1  0  0  0
 51 52  1  0  0  0
 51128  1  0  0  0
 51129  1  0  0  0
 52130  1  0  0  0
 52131  1  0  0  0
 53 54  1  0  0  0
 54 55  2  0  0  0
 54132  1  0  0  0
 55 57  1  0  0  0
 55133  1  0  0  0
 56 69  2  0  0  0
 57 58  2  0  0  0
 57134  1  0  0  0
 58135  1  0  0  0
 59 60  1  0  0  0
 59 61  1  0  0  0
 59 62  1  0  0  0
 60136  1  0  0  0
 60137  1  0  0  0
 60138  1  0  0  0
 61139  1  0  0  0
 61140  1  0  0  0
 61141  1  0  0  0
 62142  1  0  0  0
 62143  1  0  0  0
 62144  1  0  0  0
 63 65  1  0  0  0
 63145  1  0  0  0
 63146  1  0  0  0
 63147  1  0  0  0
 64148  1  0  0  0
 65149  1  0  0  0
 68 86  1  0  0  0
 71 73  2  0  0  0
 71 75  1  0  0  0
 71150  1  0  0  0
 72 74  1  0  0  0
 72 75  2  0  0  0
 72151  1  0  0  0
 73 76  1  0  0  0
 73152  1  0  0  0
 74 76  2  0  0  0
 74153  1  0  0  0
 75 79  1  0  0  0
 76 87  1  0  0  0
 77 78  2  0  0  0
 77 83  1  0  0  0
 77154  1  0  0  0
 78 87  1  0  0  0
 78155  1  0  0  0
 79 88  1  0  0  0
 79 89  2  0  0  0
 80 86  1  0  0  0
 80 88  1  0  0  0
 80 90  2  0  0  0
 81 82  1  0  0  0
 81 83  1  0  0  0
 81156  1  0  0  0
 81157  1  0  0  0
 82 87  1  0  0  0
 82158  1  0  0  0
 82159  1  0  0  0
 83 84  1  0  0  0
 84160  1  0  0  0
 84161  1  0  0  0
 84162  1  0  0  0
 85163  1  0  0  0
 85164  1  0  0  0
 85165  1  0  0  0
 85 86  1  0  0  0
 86166  1  0  0  0
 88167  1  0  0  0
 89168  1  0  0  0
 89169  1  0  0  0
M  CHG  1  89   1
M  ISO  4   1 100  68 101  83 100  86 101
M  END
> <chiral flag>
0

> <version>
0

> <s_m_source_file>
/data/baiqing/PycharmProjects/Reinvent-master-3.2/result/LINK_invent/BTK/process_docking_weight1_custom_product_contain_oxygen_bond_distance_aromatic_linkinvent_7_9_3/rearranged_h_0074.sdf

> <i_m_source_file_index>
40

> <r_mmod_Potential_Energy-OPLS-2005>
-159.398025512695

> <r_mmod_Stretch_Energy-OPLS-2005>
40.4272308349609

> <r_mmod_Bend_Energy-OPLS-2005>
135.471313476562

> <r_mmod_Torsional_Energy-OPLS-2005>
261.774017333984

> <r_mmod_Improper_Torsional_Energy-OPLS-2005>
8.83920860290527

> <r_mmod_Van_der_Waal_Energy-OPLS-2005>
181.463195800781

> <r_mmod_Electrostatic_Energy-OPLS-2005>
-404.205322265625

> <r_mmod_Solvation_Energy-OPLS-2005>
-413.164428710938

> <b_mmod_Minimization_Converged-OPLS-2005>
0

> <r_mmod_RMS_Derivative-OPLS-2005>
3.98274087905884

$$$$
41
                    3D
 Structure written by MMmdl.
154162  0  0  1  0            999 V2000
  -30.5861  -14.6744   20.4821 C   0  0  0  0  0  0
  -30.4421  -12.4088   19.4566 C   0  0  0  0  0  0
  -29.5139  -12.5090   18.2242 C   0  0  0  0  0  0
  -28.0370  -12.3363   18.6363 C   0  0  0  0  0  0
  -27.6509  -13.2111   19.8598 C   0  0  2  0  0  0
  -28.6944  -13.0724   20.9915 C   0  0  0  0  0  0
  -25.2568  -13.8132   20.5687 C   0  0  0  0  0  0
  -24.1833  -13.0418   20.9196 C   0  0  0  0  0  0
  -24.6383  -11.6882   20.8737 C   0  0  0  0  0  0
  -23.9036  -10.4288   21.0407 C   0  0  0  0  0  0
  -24.3595   -9.4209   21.9188 C   0  0  0  0  0  0
  -23.6283   -8.2240   22.0766 C   0  0  0  0  0  0
  -22.4267   -8.0270   21.3554 C   0  0  0  0  0  0
  -21.9893   -9.0242   20.4657 C   0  0  0  0  0  0
  -22.7209  -10.2123   20.3060 C   0  0  0  0  0  0
  -21.6854   -6.0730   22.5286 C   0  0  0  0  0  0
  -21.4014   -6.5640   23.8216 C   0  0  0  0  0  0
  -21.3660   -5.6797   24.9180 C   0  0  0  0  0  0
  -21.6036   -4.3059   24.7233 C   0  0  0  0  0  0
  -21.8817   -3.8146   23.4357 C   0  0  0  0  0  0
  -21.9190   -4.6958   22.3410 C   0  0  0  0  0  0
  -22.7862  -13.5243   21.1858 C   0  0  0  0  0  0
  -22.1660   -4.2135   21.0989 F   0  0  0  0  0  0
  -21.5624   -3.4541   25.7752 F   0  0  0  0  0  0
  -30.0057  -13.4315   20.4282 N   0  0  0  0  0  0
  -26.2973  -12.9302   20.3275 N   0  0  0  0  0  0
  -25.9308  -11.6463   20.5729 N   0  0  0  0  0  0
  -22.0474  -12.8258   22.0394 N   0  0  0  0  0  0
  -25.4273  -15.1858   20.4086 N   0  0  0  0  0  0
  -31.7545  -14.8466   20.1181 O   0  0  0  0  0  0
  -21.6632   -6.8863   21.4249 O   0  0  0  0  0  0
  -22.3562  -14.5562   20.6701 O   0  0  0  0  0  0
  -24.6262  -31.8583   23.2024 C   0  0  0  0  0  0
  -25.9104  -32.4776   23.8353 C   0  0  1  0  0  0
  -27.2253  -27.3032   20.1162 C   0  0  0  0  0  0
  -25.5915  -33.8585   24.2272 N   0  0  0  0  0  0
  -23.4211  -30.4806   21.5451 C   0  0  2  0  0  0
  -24.8646  -28.9297   20.1147 C   0  0  0  0  0  0
  -22.7476  -29.4610   22.4948 C   0  0  0  0  0  0
  -18.0297  -28.1376   22.8513 C   0  0  0  0  0  0
  -24.1476  -36.7276   23.2642 C   0  0  0  0  0  0
  -25.9614  -30.7826   21.3735 C   0  0  0  0  0  0
  -26.0330  -29.4069   20.7194 C   0  0  0  0  0  0
  -27.2127  -28.6055   20.7101 C   0  0  0  0  0  0
  -26.0264  -26.8738   19.5015 C   0  0  0  0  0  0
  -24.8640  -27.6700   19.4975 C   0  0  0  0  0  0
  -23.6351  -29.8131   20.1611 C   0  0  0  0  0  0
  -25.4111  -36.3083   24.0329 C   0  0  1  0  0  0
  -20.5894  -28.3680   23.1289 C   0  0  2  0  0  0
  -20.6766  -26.9407   22.5413 C   0  0  0  0  0  0
  -19.5735  -26.6386   21.5221 C   0  0  0  0  0  0
  -18.1923  -26.7925   22.1648 C   0  0  0  0  0  0
  -19.1548  -28.8847   23.2896 C   0  0  0  0  0  0
  -18.9468  -30.1449   23.8921 C   0  0  0  0  0  0
  -17.6465  -30.6586   24.0571 C   0  0  0  0  0  0
  -25.9053  -34.9457   23.5107 C   0  0  0  0  0  0
  -16.5358  -29.9091   23.6327 C   0  0  0  0  0  0
  -16.7284  -28.6494   23.0381 C   0  0  0  0  0  0
  -26.4495  -31.6584   25.0727 C   0  0  0  0  0  0
  -25.3721  -31.3743   26.1446 C   0  0  0  0  0  0
  -27.0326  -30.3014   24.6154 C   0  0  0  0  0  0
  -27.6054  -32.4309   25.7505 C   0  0  0  0  0  0
  -27.5573  -37.1805   24.8481 C   0  0  0  0  0  0
  -21.4190  -29.3039   22.3682 N   0  0  0  0  0  0
  -26.4289  -37.3779   23.9418 N   0  0  0  0  0  0
  -24.6888  -31.0576   22.0978 N   0  0  0  0  0  0
  -23.4184  -28.8154   23.3045 O   0  0  0  0  0  0
  -28.3763  -26.4955   20.1616 O   0  0  0  0  0  0
  -26.5628  -34.8928   22.4680 O   0  0  0  0  0  0
  -23.5420  -32.1386   23.7342 O   0  0  0  0  0  0
  -30.8575  -19.3699   20.1993 C   0  0  0  0  0  0
  -28.5607  -19.3631   20.8938 C   0  0  0  0  0  0
  -30.9042  -17.9412   20.2507 C   0  0  0  0  0  0
  -28.6061  -17.9327   20.9474 C   0  0  0  0  0  0
  -29.6968  -20.1326   20.5266 C   0  0  0  0  0  0
  -29.7771  -17.1738   20.6465 C   0  0  0  0  0  0
  -29.7728  -21.6806   20.6248 C   0  0  0  0  0  0
  -27.3609  -24.0489   21.8464 C   0  0  0  0  0  0
  -28.4117  -25.0628   19.7503 C   0  0  0  0  0  0
  -28.5507  -23.9483   20.8818 C   0  0  2  0  0  0
  -29.7317  -15.7099   20.7842 N   0  0  0  0  0  0
  -28.6860  -22.4954   20.4578 N   0  0  0  0  0  0
  -30.8739  -22.1822   20.8647 O   0  0  0  0  0  0
  -31.4844  -12.5429   19.1599 H   0  0  0  0  0  0
  -30.3795  -11.4138   19.9002 H   0  0  0  0  0  0
  -29.7861  -11.7535   17.4864 H   0  0  0  0  0  0
  -29.6539  -13.4743   17.7355 H   0  0  0  0  0  0
  -27.8895  -11.2836   18.8780 H   0  0  0  0  0  0
  -27.3794  -12.5439   17.7908 H   0  0  0  0  0  0
  -27.6629  -14.2432   19.5123 H   0  0  0  0  0  0
  -28.7178  -12.0486   21.3711 H   0  0  0  0  0  0
  -28.4334  -13.6995   21.8459 H   0  0  0  0  0  0
  -25.2730   -9.5693   22.4769 H   0  0  0  0  0  0
  -23.9986   -7.4635   22.7502 H   0  0  0  0  0  0
  -21.0816   -8.8763   19.8977 H   0  0  0  0  0  0
  -22.3663  -10.9666   19.6180 H   0  0  0  0  0  0
  -21.2013   -7.6148   23.9723 H   0  0  0  0  0  0
  -21.1480   -6.0524   25.9083 H   0  0  0  0  0  0
  -22.0594   -2.7604   23.2866 H   0  0  0  0  0  0
  -22.4056  -11.9926   22.4829 H   0  0  0  0  0  0
  -21.1099  -13.1342   22.2569 H   0  0  0  0  0  0
  -24.6496  -15.8306   20.5008 H   0  0  0  0  0  0
  -26.2554  -15.6226   20.0259 H   0  0  0  0  0  0
  -26.7178  -32.5421   23.1098 H   0  0  0  0  0  0
  -25.0103  -33.9745   25.0438 H   0  0  0  0  0  0
  -22.7163  -31.3023   21.4015 H   0  0  0  0  0  0
  -23.3755  -35.9593   23.3317 H   0  0  0  0  0  0
  -24.3566  -36.8879   22.2058 H   0  0  0  0  0  0
  -23.7212  -37.6480   23.6641 H   0  0  0  0  0  0
  -26.0885  -31.5411   20.5995 H   0  0  0  0  0  0
  -26.8452  -30.8373   21.9976 H   0  0  0  0  0  0
  -28.1111  -28.9719   21.1887 H   0  0  0  0  0  0
  -25.9359  -25.9132   19.0216 H   0  0  0  0  0  0
  -23.9691  -27.2959   19.0183 H   0  0  0  0  0  0
  -23.7571  -30.5865   19.4031 H   0  0  0  0  0  0
  -22.7522  -29.2461   19.8591 H   0  0  0  0  0  0
  -25.1290  -36.1960   25.0823 H   0  0  0  0  0  0
  -21.0007  -28.3252   24.1402 H   0  0  0  0  0  0
  -20.5659  -26.2310   23.3621 H   0  0  0  0  0  0
  -21.6630  -26.7421   22.1209 H   0  0  0  0  0  0
  -19.6887  -25.6298   21.1246 H   0  0  0  0  0  0
  -19.6646  -27.3201   20.6749 H   0  0  0  0  0  0
  -17.4191  -26.6707   21.4050 H   0  0  0  0  0  0
  -18.0305  -26.0049   22.9022 H   0  0  0  0  0  0
  -19.7945  -30.7256   24.2297 H   0  0  0  0  0  0
  -17.5029  -31.6276   24.5158 H   0  0  0  0  0  0
  -15.5358  -30.3009   23.7616 H   0  0  0  0  0  0
  -15.8691  -28.0800   22.7111 H   0  0  0  0  0  0
  -24.5897  -30.7086   25.7788 H   0  0  0  0  0  0
  -24.8903  -32.2922   26.4826 H   0  0  0  0  0  0
  -25.8030  -30.8964   27.0247 H   0  0  0  0  0  0
  -26.2891  -29.6810   24.1139 H   0  0  0  0  0  0
  -27.4018  -29.7219   25.4626 H   0  0  0  0  0  0
  -27.8758  -30.4345   23.9371 H   0  0  0  0  0  0
  -27.2670  -33.3610   26.2078 H   0  0  0  0  0  0
  -28.3870  -32.6870   25.0344 H   0  0  0  0  0  0
  -28.0711  -31.8445   26.5430 H   0  0  0  0  0  0
  -28.2618  -38.0076   24.7495 H   0  0  0  0  0  0
  -28.1026  -36.2607   24.6322 H   0  0  0  0  0  0
  -27.2280  -37.1476   25.8881 H   0  0  0  0  0  0
  -20.9365  -29.8780   21.6907 H   0  0  0  0  0  0
  -26.0169  -38.2854   24.1416 H   0  0  0  0  0  0
  -31.7625  -19.8965   19.9254 H   0  0  0  0  0  0
  -27.6481  -19.8676   21.1802 H   0  0  0  0  0  0
  -31.8335  -17.4476   20.0034 H   0  0  0  0  0  0
  -27.7104  -17.4134   21.2589 H   0  0  0  0  0  0
  -27.4645  -23.3546   22.6811 H   0  0  0  0  0  0
  -26.4201  -23.8306   21.3402 H   0  0  0  0  0  0
  -27.2838  -25.0504   22.2708 H   0  0  0  0  0  0
  -29.2997  -24.9740   19.1235 H   0  0  0  0  0  0
  -27.6022  -24.7834   19.0828 H   0  0  0  0  0  0
  -29.4368  -24.2056   21.4635 H   0  0  0  0  0  0
  -28.8341  -15.3629   21.0809 H   0  0  0  0  0  0
  -27.8308  -22.0313   20.1871 H   0  0  0  0  0  0
  1 25  1  0  0  0
  1 30  2  0  0  0
  1 81  1  0  0  0
  2  3  1  0  0  0
  2 25  1  0  0  0
  2 84  1  0  0  0
  2 85  1  0  0  0
  3  4  1  0  0  0
  3 86  1  0  0  0
  3 87  1  0  0  0
  4  5  1  0  0  0
  4 88  1  0  0  0
  4 89  1  0  0  0
  5  6  1  0  0  0
  5 26  1  0  0  0
  5 90  1  0  0  0
  6 25  1  0  0  0
  6 91  1  0  0  0
  6 92  1  0  0  0
  7  8  2  0  0  0
  7 26  1  0  0  0
  7 29  1  0  0  0
  8  9  1  0  0  0
  8 22  1  0  0  0
  9 10  1  0  0  0
  9 27  2  0  0  0
 10 11  2  0  0  0
 10 15  1  0  0  0
 11 12  1  0  0  0
 11 93  1  0  0  0
 12 13  2  0  0  0
 12 94  1  0  0  0
 13 14  1  0  0  0
 13 31  1  0  0  0
 14 15  2  0  0  0
 14 95  1  0  0  0
 15 96  1  0  0  0
 16 17  2  0  0  0
 16 21  1  0  0  0
 16 31  1  0  0  0
 17 18  1  0  0  0
 17 97  1  0  0  0
 18 19  2  0  0  0
 18 98  1  0  0  0
 19 20  1  0  0  0
 19 24  1  0  0  0
 20 21  2  0  0  0
 20 99  1  0  0  0
 21 23  1  0  0  0
 22 28  1  0  0  0
 22 32  2  0  0  0
 26 27  1  0  0  0
 28100  1  0  0  0
 28101  1  0  0  0
 29102  1  0  0  0
 29103  1  0  0  0
 33 34  1  0  0  0
 33 66  1  0  0  0
 33 70  2  0  0  0
 34 36  1  0  0  0
 34 59  1  0  0  0
 34104  1  0  0  0
 35 44  2  0  0  0
 35 45  1  0  0  0
 35 68  1  0  0  0
 36 56  1  0  0  0
 36105  1  0  0  0
 37 39  1  0  0  0
 37 47  1  0  0  0
 37 66  1  0  0  0
 37106  1  0  0  0
 38 43  2  0  0  0
 38 46  1  0  0  0
 38 47  1  0  0  0
 39 64  1  0  0  0
 39 67  2  0  0  0
 40 52  1  0  0  0
 40 53  2  0  0  0
 40 58  1  0  0  0
 41107  1  0  0  0
 41108  1  0  0  0
 41109  1  0  0  0
 41 48  1  0  0  0
 42 43  1  0  0  0
 42 66  1  0  0  0
 42110  1  0  0  0
 42111  1  0  0  0
 43 44  1  0  0  0
 44112  1  0  0  0
 45 46  2  0  0  0
 45113  1  0  0  0
 46114  1  0  0  0
 47115  1  0  0  0
 47116  1  0  0  0
 48 56  1  0  0  0
 48 65  1  0  0  0
 48117  1  0  0  0
 49 50  1  0  0  0
 49 53  1  0  0  0
 49 64  1  0  0  0
 49118  1  0  0  0
 50 51  1  0  0  0
 50119  1  0  0  0
 50120  1  0  0  0
 51 52  1  0  0  0
 51121  1  0  0  0
 51122  1  0  0  0
 52123  1  0  0  0
 52124  1  0  0  0
 53 54  1  0  0  0
 54 55  2  0  0  0
 54125  1  0  0  0
 55 57  1  0  0  0
 55126  1  0  0  0
 56 69  2  0  0  0
 57 58  2  0  0  0
 57127  1  0  0  0
 58128  1  0  0  0
 59 60  1  0  0  0
 59 61  1  0  0  0
 59 62  1  0  0  0
 60129  1  0  0  0
 60130  1  0  0  0
 60131  1  0  0  0
 61132  1  0  0  0
 61133  1  0  0  0
 61134  1  0  0  0
 62135  1  0  0  0
 62136  1  0  0  0
 62137  1  0  0  0
 63 65  1  0  0  0
 63138  1  0  0  0
 63139  1  0  0  0
 63140  1  0  0  0
 64141  1  0  0  0
 65142  1  0  0  0
 68 79  1  0  0  0
 71 73  2  0  0  0
 71 75  1  0  0  0
 71143  1  0  0  0
 72 74  1  0  0  0
 72 75  2  0  0  0
 72144  1  0  0  0
 73 76  1  0  0  0
 73145  1  0  0  0
 74 76  2  0  0  0
 74146  1  0  0  0
 75 77  1  0  0  0
 76 81  1  0  0  0
 77 82  1  0  0  0
 77 83  2  0  0  0
 78147  1  0  0  0
 78148  1  0  0  0
 78149  1  0  0  0
 78 80  1  0  0  0
 79 80  1  0  0  0
 79150  1  0  0  0
 79151  1  0  0  0
 80 82  1  0  0  0
 80152  1  0  0  0
 81153  1  0  0  0
 82154  1  0  0  0
M  ISO  4   1 100  68 101  79 101  81 100
M  END
> <chiral flag>
0

> <version>
0

> <s_m_source_file>
/data/baiqing/PycharmProjects/Reinvent-master-3.2/result/LINK_invent/BTK/process_docking_weight1_custom_product_contain_oxygen_bond_distance_aromatic_linkinvent_7_9_3/rearranged_h_0074.sdf

> <i_m_source_file_index>
41

> <r_mmod_Potential_Energy-OPLS-2005>
16.2020835876465

> <r_mmod_Stretch_Energy-OPLS-2005>
86.9369125366211

> <r_mmod_Bend_Energy-OPLS-2005>
160.122589111328

> <r_mmod_Torsional_Energy-OPLS-2005>
217.440811157227

> <r_mmod_Improper_Torsional_Energy-OPLS-2005>
5.54198837280273

> <r_mmod_Van_der_Waal_Energy-OPLS-2005>
140.146850585938

> <r_mmod_Electrostatic_Energy-OPLS-2005>
-418.150939941406

> <r_mmod_Solvation_Energy-OPLS-2005>
-231.530487060547

> <b_mmod_Minimization_Converged-OPLS-2005>
0

> <r_mmod_RMS_Derivative-OPLS-2005>
2.45797801017761

$$$$
42
                    3D
 Structure written by MMmdl.
162171  0  0  1  0            999 V2000
  -30.6437  -14.5328   20.5611 C   0  0  0  0  0  0
  -30.4417  -12.3411   19.4254 C   0  0  0  0  0  0
  -29.5034  -12.5119   18.2099 C   0  0  0  0  0  0
  -28.0244  -12.3595   18.6219 C   0  0  0  0  0  0
  -27.6633  -13.2016   19.8746 C   0  0  2  0  0  0
  -28.7056  -12.9759   20.9938 C   0  0  0  0  0  0
  -25.2602  -13.8144   20.5672 C   0  0  0  0  0  0
  -24.1847  -13.0435   20.9181 C   0  0  0  0  0  0
  -24.6389  -11.6898   20.8730 C   0  0  0  0  0  0
  -23.9049  -10.4289   21.0402 C   0  0  0  0  0  0
  -24.3604   -9.4207   21.9179 C   0  0  0  0  0  0
  -23.6282   -8.2244   22.0751 C   0  0  0  0  0  0
  -22.4260   -8.0280   21.3548 C   0  0  0  0  0  0
  -21.9897   -9.0253   20.4650 C   0  0  0  0  0  0
  -22.7224  -10.2132   20.3052 C   0  0  0  0  0  0
  -21.6853   -6.0727   22.5279 C   0  0  0  0  0  0
  -21.4009   -6.5628   23.8212 C   0  0  0  0  0  0
  -21.3655   -5.6782   24.9174 C   0  0  0  0  0  0
  -21.6044   -4.3044   24.7224 C   0  0  0  0  0  0
  -21.8822   -3.8138   23.4346 C   0  0  0  0  0  0
  -21.9196   -4.6956   22.3401 C   0  0  0  0  0  0
  -22.7872  -13.5253   21.1846 C   0  0  0  0  0  0
  -22.1666   -4.2144   21.0980 F   0  0  0  0  0  0
  -21.5631   -3.4527   25.7736 F   0  0  0  0  0  0
  -30.0338  -13.3169   20.4498 N   0  0  0  0  0  0
  -26.3031  -12.9299   20.3347 N   0  0  0  0  0  0
  -25.9310  -11.6466   20.5743 N   0  0  0  0  0  0
  -22.0490  -12.8257   22.0396 N   0  0  0  0  0  0
  -25.4321  -15.1862   20.4061 N   0  0  0  0  0  0
  -31.7677  -14.7568   20.0990 O   0  0  0  0  0  0
  -21.6636   -6.8871   21.4240 O   0  0  0  0  0  0
  -22.3572  -14.5567   20.6696 O   0  0  0  0  0  0
  -24.6179  -31.8662   23.2082 C   0  0  0  0  0  0
  -25.9066  -32.4810   23.8384 C   0  0  1  0  0  0
  -27.2363  -27.4103   20.1080 C   0  0  0  0  0  0
  -25.5914  -33.8606   24.2325 N   0  0  0  0  0  0
  -23.4078  -30.4874   21.5496 C   0  0  2  0  0  0
  -24.8566  -28.9449   20.1202 C   0  0  0  0  0  0
  -22.7429  -29.4653   22.4996 C   0  0  0  0  0  0
  -18.0277  -28.1383   22.8488 C   0  0  0  0  0  0
  -24.1484  -36.7293   23.2641 C   0  0  0  0  0  0
  -25.9385  -30.8228   21.3660 C   0  0  0  0  0  0
  -26.0179  -29.4529   20.7178 C   0  0  0  0  0  0
  -27.2143  -28.6936   20.7076 C   0  0  0  0  0  0
  -26.0616  -26.9193   19.5057 C   0  0  0  0  0  0
  -24.8738  -27.6771   19.5113 C   0  0  0  0  0  0
  -23.6192  -29.8153   20.1663 C   0  0  0  0  0  0
  -25.4103  -36.3102   24.0346 C   0  0  1  0  0  0
  -20.5868  -28.3672   23.1317 C   0  0  2  0  0  0
  -20.6762  -26.9404   22.5429 C   0  0  0  0  0  0
  -19.5749  -26.6389   21.5215 C   0  0  0  0  0  0
  -18.1919  -26.7934   22.1611 C   0  0  0  0  0  0
  -19.1527  -28.8844   23.2896 C   0  0  0  0  0  0
  -18.9455  -30.1452   23.8902 C   0  0  0  0  0  0
  -17.6458  -30.6587   24.0571 C   0  0  0  0  0  0
  -25.9034  -34.9468   23.5130 C   0  0  0  0  0  0
  -16.5348  -29.9086   23.6335 C   0  0  0  0  0  0
  -16.7268  -28.6507   23.0345 C   0  0  0  0  0  0
  -26.4484  -31.6589   25.0715 C   0  0  0  0  0  0
  -25.3745  -31.3709   26.1465 C   0  0  0  0  0  0
  -27.0315  -30.3029   24.6103 C   0  0  0  0  0  0
  -27.6067  -32.4300   25.7472 C   0  0  0  0  0  0
  -27.5583  -37.1793   24.8462 C   0  0  0  0  0  0
  -21.4155  -29.3036   22.3727 N   0  0  0  0  0  0
  -26.4287  -37.3789   23.9422 N   0  0  0  0  0  0
  -24.6729  -31.0738   22.0995 N   0  0  0  0  0  0
  -23.4184  -28.8201   23.3058 O   0  0  0  0  0  0
  -28.3775  -26.6353   20.0639 O   0  0  0  0  0  0
  -26.5587  -34.8927   22.4687 O   0  0  0  0  0  0
  -23.5366  -32.1429   23.7460 O   0  0  0  0  0  0
  -28.4240  -18.9531   21.1521 C   0  0  0  0  0  0
  -28.5893  -17.5546   21.2776 C   0  0  0  0  0  0
  -30.8766  -17.7432   20.5073 C   0  0  0  0  0  0
  -29.4830  -19.7815   20.7094 C   0  0  0  0  0  0
  -29.8103  -16.9190   20.9525 C   0  0  0  0  0  0
  -30.7171  -19.1520   20.3951 C   0  0  0  0  0  0
  -28.3594  -21.7867   19.8303 C   0  0  0  0  0  0
  -28.0279  -23.3037   19.9365 C   0  0  0  0  0  0
  -29.6605  -23.4391   21.8010 C   0  0  0  0  0  0
  -30.2474  -22.0725   21.3761 C   0  0  0  0  0  0
  -29.0853  -24.2270   20.5995 C   0  0  2  0  0  0
  -31.2426  -25.2162   19.9854 C   0  0  0  0  0  0
  -28.4642  -25.6006   21.0674 C   0  0  0  0  0  0
  -29.3052  -21.2188   20.6331 N   0  0  0  0  0  0
  -29.8670  -15.4881   21.1266 N   0  0  0  0  0  0
  -27.7013  -21.1209   19.0224 O   0  0  0  0  0  0
  -30.1002  -24.4496   19.6094 O   0  0  0  0  0  0
  -31.7652  -19.8984   19.9699 F   0  0  0  0  0  0
  -31.4817  -12.4720   19.1212 H   0  0  0  0  0  0
  -30.3729  -11.3284   19.8242 H   0  0  0  0  0  0
  -29.7531  -11.7835   17.4369 H   0  0  0  0  0  0
  -29.6583  -13.4950   17.7625 H   0  0  0  0  0  0
  -27.8454  -11.3031   18.8243 H   0  0  0  0  0  0
  -27.3727  -12.6241   17.7881 H   0  0  0  0  0  0
  -27.7078  -14.2489   19.5758 H   0  0  0  0  0  0
  -28.6983  -11.9314   21.3099 H   0  0  0  0  0  0
  -28.4529  -13.5454   21.8888 H   0  0  0  0  0  0
  -25.2748   -9.5685   22.4751 H   0  0  0  0  0  0
  -23.9996   -7.4632   22.7464 H   0  0  0  0  0  0
  -21.0831   -8.8766   19.8954 H   0  0  0  0  0  0
  -22.3681  -10.9665   19.6157 H   0  0  0  0  0  0
  -21.1994   -7.6131   23.9711 H   0  0  0  0  0  0
  -21.1475   -6.0508   25.9078 H   0  0  0  0  0  0
  -22.0604   -2.7600   23.2848 H   0  0  0  0  0  0
  -22.4065  -11.9901   22.4784 H   0  0  0  0  0  0
  -21.1121  -13.1327   22.2601 H   0  0  0  0  0  0
  -24.6589  -15.8358   20.4969 H   0  0  0  0  0  0
  -26.2697  -15.6179   20.0370 H   0  0  0  0  0  0
  -26.7135  -32.5523   23.1142 H   0  0  0  0  0  0
  -25.0094  -33.9758   25.0494 H   0  0  0  0  0  0
  -22.6979  -31.3049   21.4069 H   0  0  0  0  0  0
  -23.3758  -35.9612   23.3297 H   0  0  0  0  0  0
  -24.3591  -36.8910   22.2057 H   0  0  0  0  0  0
  -23.7215  -37.6490   23.6653 H   0  0  0  0  0  0
  -26.0534  -31.5857   20.5948 H   0  0  0  0  0  0
  -26.8251  -30.8787   21.9855 H   0  0  0  0  0  0
  -28.1134  -29.0844   21.1634 H   0  0  0  0  0  0
  -26.0696  -25.9477   19.0319 H   0  0  0  0  0  0
  -23.9826  -27.2792   19.0460 H   0  0  0  0  0  0
  -23.7301  -30.5878   19.4046 H   0  0  0  0  0  0
  -22.7426  -29.2361   19.8709 H   0  0  0  0  0  0
  -25.1275  -36.1961   25.0839 H   0  0  0  0  0  0
  -20.9953  -28.3241   24.1441 H   0  0  0  0  0  0
  -20.5658  -26.2281   23.3620 H   0  0  0  0  0  0
  -21.6638  -26.7442   22.1232 H   0  0  0  0  0  0
  -19.6905  -25.6302   21.1240 H   0  0  0  0  0  0
  -19.6692  -27.3204   20.6750 H   0  0  0  0  0  0
  -17.4205  -26.6717   21.3996 H   0  0  0  0  0  0
  -18.0290  -26.0064   22.8989 H   0  0  0  0  0  0
  -19.7935  -30.7268   24.2266 H   0  0  0  0  0  0
  -17.5016  -31.6264   24.5179 H   0  0  0  0  0  0
  -15.5347  -30.2984   23.7661 H   0  0  0  0  0  0
  -15.8672  -28.0830   22.7045 H   0  0  0  0  0  0
  -24.5940  -30.7019   25.7822 H   0  0  0  0  0  0
  -24.8904  -32.2866   26.4871 H   0  0  0  0  0  0
  -25.8106  -30.8929   27.0245 H   0  0  0  0  0  0
  -26.2860  -29.6780   24.1170 H   0  0  0  0  0  0
  -27.4100  -29.7275   25.4561 H   0  0  0  0  0  0
  -27.8689  -30.4346   23.9246 H   0  0  0  0  0  0
  -27.2701  -33.3591   26.2082 H   0  0  0  0  0  0
  -28.3858  -32.6869   25.0282 H   0  0  0  0  0  0
  -28.0756  -31.8398   26.5357 H   0  0  0  0  0  0
  -28.2600  -38.0093   24.7533 H   0  0  0  0  0  0
  -28.1079  -36.2631   24.6245 H   0  0  0  0  0  0
  -27.2318  -37.1403   25.8870 H   0  0  0  0  0  0
  -20.9324  -29.8750   21.6935 H   0  0  0  0  0  0
  -26.0176  -38.2868   24.1431 H   0  0  0  0  0  0
  -27.4725  -19.3919   21.4165 H   0  0  0  0  0  0
  -27.7517  -16.9689   21.6312 H   0  0  0  0  0  0
  -31.8344  -17.3133   20.2557 H   0  0  0  0  0  0
  -27.1042  -23.3569   20.5127 H   0  0  0  0  0  0
  -27.7764  -23.6861   18.9470 H   0  0  0  0  0  0
  -30.4160  -24.0181   22.3327 H   0  0  0  0  0  0
  -28.8682  -23.2691   22.5318 H   0  0  0  0  0  0
  -30.5938  -21.5405   22.2628 H   0  0  0  0  0  0
  -31.1272  -22.2334   20.7523 H   0  0  0  0  0  0
  -31.8703  -25.3651   19.1070 H   0  0  0  0  0  0
  -31.8529  -24.7057   20.7298 H   0  0  0  0  0  0
  -30.9819  -26.2035   20.3656 H   0  0  0  0  0  0
  -29.0879  -26.0173   21.8590 H   0  0  0  0  0  0
  -27.4971  -25.4232   21.5426 H   0  0  0  0  0  0
  -29.0349  -15.0912   21.5352 H   0  0  0  0  0  0
  1 25  1  0  0  0
  1 30  2  0  0  0
  1 85  1  0  0  0
  2  3  1  0  0  0
  2 25  1  0  0  0
  2 89  1  0  0  0
  2 90  1  0  0  0
  3  4  1  0  0  0
  3 91  1  0  0  0
  3 92  1  0  0  0
  4  5  1  0  0  0
  4 93  1  0  0  0
  4 94  1  0  0  0
  5  6  1  0  0  0
  5 26  1  0  0  0
  5 95  1  0  0  0
  6 25  1  0  0  0
  6 96  1  0  0  0
  6 97  1  0  0  0
  7  8  2  0  0  0
  7 26  1  0  0  0
  7 29  1  0  0  0
  8  9  1  0  0  0
  8 22  1  0  0  0
  9 10  1  0  0  0
  9 27  2  0  0  0
 10 11  2  0  0  0
 10 15  1  0  0  0
 11 12  1  0  0  0
 11 98  1  0  0  0
 12 13  2  0  0  0
 12 99  1  0  0  0
 13 14  1  0  0  0
 13 31  1  0  0  0
 14 15  2  0  0  0
 14100  1  0  0  0
 15101  1  0  0  0
 16 17  2  0  0  0
 16 21  1  0  0  0
 16 31  1  0  0  0
 17 18  1  0  0  0
 17102  1  0  0  0
 18 19  2  0  0  0
 18103  1  0  0  0
 19 20  1  0  0  0
 19 24  1  0  0  0
 20 21  2  0  0  0
 20104  1  0  0  0
 21 23  1  0  0  0
 22 28  1  0  0  0
 22 32  2  0  0  0
 26 27  1  0  0  0
 28105  1  0  0  0
 28106  1  0  0  0
 29107  1  0  0  0
 29108  1  0  0  0
 33 34  1  0  0  0
 33 66  1  0  0  0
 33 70  2  0  0  0
 34 36  1  0  0  0
 34 59  1  0  0  0
 34109  1  0  0  0
 35 44  2  0  0  0
 35 45  1  0  0  0
 35 68  1  0  0  0
 36 56  1  0  0  0
 36110  1  0  0  0
 37 39  1  0  0  0
 37 47  1  0  0  0
 37 66  1  0  0  0
 37111  1  0  0  0
 38 43  2  0  0  0
 38 46  1  0  0  0
 38 47  1  0  0  0
 39 64  1  0  0  0
 39 67  2  0  0  0
 40 52  1  0  0  0
 40 53  2  0  0  0
 40 58  1  0  0  0
 41112  1  0  0  0
 41113  1  0  0  0
 41114  1  0  0  0
 41 48  1  0  0  0
 42 43  1  0  0  0
 42 66  1  0  0  0
 42115  1  0  0  0
 42116  1  0  0  0
 43 44  1  0  0  0
 44117  1  0  0  0
 45 46  2  0  0  0
 45118  1  0  0  0
 46119  1  0  0  0
 47120  1  0  0  0
 47121  1  0  0  0
 48 56  1  0  0  0
 48 65  1  0  0  0
 48122  1  0  0  0
 49 50  1  0  0  0
 49 53  1  0  0  0
 49 64  1  0  0  0
 49123  1  0  0  0
 50 51  1  0  0  0
 50124  1  0  0  0
 50125  1  0  0  0
 51 52  1  0  0  0
 51126  1  0  0  0
 51127  1  0  0  0
 52128  1  0  0  0
 52129  1  0  0  0
 53 54  1  0  0  0
 54 55  2  0  0  0
 54130  1  0  0  0
 55 57  1  0  0  0
 55131  1  0  0  0
 56 69  2  0  0  0
 57 58  2  0  0  0
 57132  1  0  0  0
 58133  1  0  0  0
 59 60  1  0  0  0
 59 61  1  0  0  0
 59 62  1  0  0  0
 60134  1  0  0  0
 60135  1  0  0  0
 60136  1  0  0  0
 61137  1  0  0  0
 61138  1  0  0  0
 61139  1  0  0  0
 62140  1  0  0  0
 62141  1  0  0  0
 62142  1  0  0  0
 63 65  1  0  0  0
 63143  1  0  0  0
 63144  1  0  0  0
 63145  1  0  0  0
 64146  1  0  0  0
 65147  1  0  0  0
 68 83  1  0  0  0
 71 72  2  0  0  0
 71 74  1  0  0  0
 71148  1  0  0  0
 72 75  1  0  0  0
 72149  1  0  0  0
 73 75  2  0  0  0
 73 76  1  0  0  0
 73150  1  0  0  0
 74 76  2  0  0  0
 74 84  1  0  0  0
 75 85  1  0  0  0
 76 88  1  0  0  0
 77 78  1  0  0  0
 77 84  1  0  0  0
 77 86  2  0  0  0
 78 81  1  0  0  0
 78151  1  0  0  0
 78152  1  0  0  0
 79 80  1  0  0  0
 79 81  1  0  0  0
 79153  1  0  0  0
 79154  1  0  0  0
 80 84  1  0  0  0
 80155  1  0  0  0
 80156  1  0  0  0
 81 83  1  0  0  0
 81 87  1  0  0  0
 82 87  1  0  0  0
 82157  1  0  0  0
 82158  1  0  0  0
 82159  1  0  0  0
 83160  1  0  0  0
 83161  1  0  0  0
 85162  1  0  0  0
M  ISO  4   1 100  68 101  83 101  85 100
M  END
> <chiral flag>
0

> <version>
0

> <s_m_source_file>
/data/baiqing/PycharmProjects/Reinvent-master-3.2/result/LINK_invent/BTK/process_docking_weight1_custom_product_contain_oxygen_bond_distance_aromatic_linkinvent_7_9_3/rearranged_h_0074.sdf

> <i_m_source_file_index>
42

> <r_mmod_Potential_Energy-OPLS-2005>
65.5887756347656

> <r_mmod_Stretch_Energy-OPLS-2005>
52.1528053283691

> <r_mmod_Bend_Energy-OPLS-2005>
123.05322265625

> <r_mmod_Torsional_Energy-OPLS-2005>
307.941589355469

> <r_mmod_Improper_Torsional_Energy-OPLS-2005>
4.16380262374878

> <r_mmod_Van_der_Waal_Energy-OPLS-2005>
155.540802001953

> <r_mmod_Electrostatic_Energy-OPLS-2005>
-371.1044921875

> <r_mmod_Solvation_Energy-OPLS-2005>
-224.747940063477

> <b_mmod_Minimization_Converged-OPLS-2005>
0

> <r_mmod_RMS_Derivative-OPLS-2005>
0.974288582801819

$$$$
43
                    3D
 Structure written by MMmdl.
168177  0  0  1  0            999 V2000
  -30.6175  -14.7724   20.4443 C   0  0  0  0  0  0
  -30.4440  -12.4733   19.4570 C   0  0  0  0  0  0
  -29.5096  -12.4494   18.2266 C   0  0  0  0  0  0
  -28.0298  -12.3280   18.6384 C   0  0  0  0  0  0
  -27.6446  -13.2325   19.8428 C   0  0  2  0  0  0
  -28.6985  -13.1684   20.9654 C   0  0  0  0  0  0
  -25.2543  -13.8220   20.5565 C   0  0  0  0  0  0
  -24.1843  -13.0484   20.9146 C   0  0  0  0  0  0
  -24.6428  -11.6958   20.8745 C   0  0  0  0  0  0
  -23.9099  -10.4342   21.0413 C   0  0  0  0  0  0
  -24.3654   -9.4256   21.9179 C   0  0  0  0  0  0
  -23.6323   -8.2289   22.0779 C   0  0  0  0  0  0
  -22.4308   -8.0328   21.3562 C   0  0  0  0  0  0
  -21.9936   -9.0285   20.4664 C   0  0  0  0  0  0
  -22.7277  -10.2171   20.3059 C   0  0  0  0  0  0
  -21.6884   -6.0778   22.5256 C   0  0  0  0  0  0
  -21.4010   -6.5663   23.8190 C   0  0  0  0  0  0
  -21.3666   -5.6814   24.9148 C   0  0  0  0  0  0
  -21.6051   -4.3072   24.7198 C   0  0  0  0  0  0
  -21.8826   -3.8181   23.4309 C   0  0  0  0  0  0
  -21.9205   -4.7001   22.3381 C   0  0  0  0  0  0
  -22.7871  -13.5276   21.1813 C   0  0  0  0  0  0
  -22.1682   -4.2195   21.0955 F   0  0  0  0  0  0
  -21.5627   -3.4553   25.7709 F   0  0  0  0  0  0
  -29.9723  -13.5541   20.3545 N   0  0  0  0  0  0
  -26.2989  -12.9431   20.3260 N   0  0  0  0  0  0
  -25.9370  -11.6585   20.5779 N   0  0  0  0  0  0
  -22.0532  -12.8244   22.0375 N   0  0  0  0  0  0
  -25.4252  -15.1936   20.3802 N   0  0  0  0  0  0
  -31.8457  -14.7922   20.3138 O   0  0  0  0  0  0
  -21.6674   -6.8922   21.4237 O   0  0  0  0  0  0
  -22.3546  -14.5579   20.6672 O   0  0  0  0  0  0
  -24.6347  -31.8560   23.2002 C   0  0  0  0  0  0
  -25.9168  -32.4762   23.8348 C   0  0  1  0  0  0
  -27.2115  -27.2484   20.1402 C   0  0  0  0  0  0
  -25.5953  -33.8570   24.2259 N   0  0  0  0  0  0
  -23.4311  -30.4807   21.5441 C   0  0  2  0  0  0
  -24.8773  -28.9327   20.1113 C   0  0  0  0  0  0
  -22.7534  -29.4601   22.4920 C   0  0  0  0  0  0
  -18.0304  -28.1408   22.8500 C   0  0  0  0  0  0
  -24.1486  -36.7276   23.2638 C   0  0  0  0  0  0
  -25.9811  -30.7636   21.3866 C   0  0  0  0  0  0
  -26.0518  -29.3902   20.7226 C   0  0  0  0  0  0
  -27.2242  -28.5653   20.7169 C   0  0  0  0  0  0
  -26.0080  -26.8642   19.5002 C   0  0  0  0  0  0
  -24.8632  -27.6797   19.4860 C   0  0  0  0  0  0
  -23.6500  -29.8213   20.1588 C   0  0  0  0  0  0
  -25.4123  -36.3072   24.0320 C   0  0  1  0  0  0
  -20.5909  -28.3720   23.1279 C   0  0  2  0  0  0
  -20.6801  -26.9435   22.5437 C   0  0  0  0  0  0
  -19.5763  -26.6382   21.5250 C   0  0  0  0  0  0
  -18.1939  -26.7950   22.1637 C   0  0  0  0  0  0
  -19.1559  -28.8886   23.2878 C   0  0  0  0  0  0
  -18.9476  -30.1487   23.8895 C   0  0  0  0  0  0
  -17.6470  -30.6609   24.0573 C   0  0  0  0  0  0
  -25.9071  -34.9450   23.5089 C   0  0  0  0  0  0
  -16.5361  -29.9106   23.6347 C   0  0  0  0  0  0
  -16.7281  -28.6522   23.0364 C   0  0  0  0  0  0
  -26.4495  -31.6619   25.0772 C   0  0  0  0  0  0
  -25.3676  -31.3846   26.1467 C   0  0  0  0  0  0
  -27.0345  -30.3011   24.6348 C   0  0  0  0  0  0
  -27.6018  -32.4387   25.7558 C   0  0  0  0  0  0
  -27.5590  -37.1802   24.8449 C   0  0  0  0  0  0
  -21.4242  -29.3043   22.3656 N   0  0  0  0  0  0
  -26.4292  -37.3780   23.9409 N   0  0  0  0  0  0
  -24.7008  -31.0513   22.0980 N   0  0  0  0  0  0
  -23.4225  -28.8141   23.3021 O   0  0  0  0  0  0
  -28.2946  -26.3333   20.2086 O   0  0  0  0  0  0
  -26.5644  -34.8917   22.4661 O   0  0  0  0  0  0
  -23.5491  -32.1394   23.7274 O   0  0  0  0  0  0
  -27.5726  -17.9989   22.1286 C   0  0  0  0  0  0
  -27.9367  -19.3328   21.8488 C   0  0  0  0  0  0
  -28.3021  -16.9061   21.6160 C   0  0  0  0  0  0
  -29.0813  -19.6474   21.0827 C   0  0  0  0  0  0
  -29.4133  -17.0990   20.7663 C   0  0  0  0  0  0
  -29.7986  -18.4966   20.5337 C   0  0  0  0  0  0
  -28.5003  -22.1280   20.5874 C   0  0  0  0  0  0
  -30.9970  -22.8825   21.7739 C   0  0  0  0  0  0
  -29.0495  -23.6531   20.4331 C   0  0  1  0  0  0
  -30.3641  -21.4982   22.1101 C   0  0  0  0  0  0
  -31.5218  -20.5087   22.3793 C   0  0  0  0  0  0
  -29.5630  -21.6349   23.4321 C   0  0  0  0  0  0
  -30.1696  -16.2178   18.5993 C   0  0  0  0  0  0
  -27.9714  -24.8547   20.2320 C   0  0  0  0  0  0
  -29.4954  -21.0497   20.9865 N   0  0  0  0  0  0
  -29.9200  -15.9114   20.0140 N   0  0  0  0  0  0
  -29.9826  -23.9403   21.5465 N   0  3  0  0  0  0
  -30.8851  -18.7563   19.7654 F   0  0  0  0  0  0
  -31.4779  -12.6217   19.1358 H   0  0  0  0  0  0
  -30.4286  -11.5111   19.9716 H   0  0  0  0  0  0
  -29.7776  -11.6149   17.5781 H   0  0  0  0  0  0
  -29.6482  -13.3444   17.6241 H   0  0  0  0  0  0
  -27.8466  -11.2810   18.8816 H   0  0  0  0  0  0
  -27.3926  -12.5538   17.7843 H   0  0  0  0  0  0
  -27.6412  -14.2551   19.4634 H   0  0  0  0  0  0
  -28.7643  -12.1616   21.3817 H   0  0  0  0  0  0
  -28.4480  -13.8222   21.7976 H   0  0  0  0  0  0
  -25.2818   -9.5734   22.4730 H   0  0  0  0  0  0
  -24.0035   -7.4693   22.7492 H   0  0  0  0  0  0
  -21.0881   -8.8789   19.8968 H   0  0  0  0  0  0
  -22.3714  -10.9682   19.6153 H   0  0  0  0  0  0
  -21.1971   -7.6174   23.9680 H   0  0  0  0  0  0
  -21.1491   -6.0562   25.9044 H   0  0  0  0  0  0
  -22.0596   -2.7643   23.2791 H   0  0  0  0  0  0
  -22.4155  -11.9893   22.4721 H   0  0  0  0  0  0
  -21.1148  -13.1249   22.2565 H   0  0  0  0  0  0
  -24.6514  -15.8488   20.4221 H   0  0  0  0  0  0
  -26.2678  -15.6058   20.0026 H   0  0  0  0  0  0
  -26.7243  -32.5389   23.1088 H   0  0  0  0  0  0
  -25.0095  -33.9718   25.0396 H   0  0  0  0  0  0
  -22.7285  -31.3039   21.4008 H   0  0  0  0  0  0
  -23.3775  -35.9580   23.3273 H   0  0  0  0  0  0
  -24.3568  -36.8942   22.2060 H   0  0  0  0  0  0
  -23.7211  -37.6452   23.6694 H   0  0  0  0  0  0
  -26.1385  -31.5290   20.6260 H   0  0  0  0  0  0
  -26.8512  -30.7981   22.0303 H   0  0  0  0  0  0
  -28.1236  -28.9136   21.2062 H   0  0  0  0  0  0
  -25.9007  -25.9091   19.0125 H   0  0  0  0  0  0
  -23.9653  -27.3279   18.9966 H   0  0  0  0  0  0
  -23.7779  -30.6012   19.4067 H   0  0  0  0  0  0
  -22.7684  -29.2571   19.8491 H   0  0  0  0  0  0
  -25.1310  -36.1916   25.0813 H   0  0  0  0  0  0
  -20.9998  -28.3308   24.1392 H   0  0  0  0  0  0
  -20.5752  -26.2325   23.3646 H   0  0  0  0  0  0
  -21.6663  -26.7489   22.1188 H   0  0  0  0  0  0
  -19.6930  -25.6284   21.1300 H   0  0  0  0  0  0
  -19.6721  -27.3186   20.6779 H   0  0  0  0  0  0
  -17.4238  -26.6758   21.4004 H   0  0  0  0  0  0
  -18.0279  -26.0081   22.9007 H   0  0  0  0  0  0
  -19.7949  -30.7329   24.2245 H   0  0  0  0  0  0
  -17.5015  -31.6284   24.5177 H   0  0  0  0  0  0
  -15.5364  -30.3005   23.7670 H   0  0  0  0  0  0
  -15.8673  -28.0836   22.7079 H   0  0  0  0  0  0
  -24.5785  -30.7283   25.7780 H   0  0  0  0  0  0
  -24.8953  -32.3071   26.4872 H   0  0  0  0  0  0
  -25.7909  -30.8997   27.0275 H   0  0  0  0  0  0
  -26.2978  -29.6776   24.1269 H   0  0  0  0  0  0
  -27.3856  -29.7272   25.4942 H   0  0  0  0  0  0
  -27.8932  -30.4246   23.9737 H   0  0  0  0  0  0
  -27.2579  -33.3665   26.2147 H   0  0  0  0  0  0
  -28.3823  -32.7016   25.0405 H   0  0  0  0  0  0
  -28.0703  -31.8546   26.5486 H   0  0  0  0  0  0
  -28.2577  -38.0132   24.7538 H   0  0  0  0  0  0
  -28.1121  -36.2668   24.6210 H   0  0  0  0  0  0
  -27.2316  -37.1367   25.8852 H   0  0  0  0  0  0
  -20.9449  -29.8722   21.6818 H   0  0  0  0  0  0
  -26.0163  -38.2851   24.1436 H   0  0  0  0  0  0
  -26.7024  -17.8066   22.7401 H   0  0  0  0  0  0
  -27.3446  -20.1232   22.2839 H   0  0  0  0  0  0
  -27.9325  -15.9157   21.8311 H   0  0  0  0  0  0
  -28.0248  -21.8271   19.6530 H   0  0  0  0  0  0
  -27.6944  -22.1344   21.3227 H   0  0  0  0  0  0
  -31.6418  -22.8031   20.8973 H   0  0  0  0  0  0
  -31.6400  -23.2058   22.5944 H   0  0  0  0  0  0
  -29.6673  -23.6586   19.5343 H   0  0  0  0  0  0
  -32.2104  -20.9047   23.1281 H   0  0  0  0  0  0
  -32.1023  -20.3086   21.4792 H   0  0  0  0  0  0
  -31.1714  -19.5543   22.7751 H   0  0  0  0  0  0
  -30.1917  -22.0260   24.2332 H   0  0  0  0  0  0
  -29.1852  -20.6771   23.7889 H   0  0  0  0  0  0
  -28.7114  -22.3093   23.3489 H   0  0  0  0  0  0
  -29.3193  -16.7461   18.1656 H   0  0  0  0  0  0
  -30.3291  -15.3277   17.9954 H   0  0  0  0  0  0
  -31.0592  -16.8332   18.4717 H   0  0  0  0  0  0
  -27.1887  -24.7125   20.9781 H   0  0  0  0  0  0
  -27.5125  -24.6206   19.2720 H   0  0  0  0  0  0
  -30.4639  -24.8050   21.3562 H   0  0  0  0  0  0
  -29.4654  -24.0629   22.4032 H   0  0  0  0  0  0
  1 25  1  0  0  0
  1 30  2  0  0  0
  1 86  1  0  0  0
  2  3  1  0  0  0
  2 25  1  0  0  0
  2 89  1  0  0  0
  2 90  1  0  0  0
  3  4  1  0  0  0
  3 91  1  0  0  0
  3 92  1  0  0  0
  4  5  1  0  0  0
  4 93  1  0  0  0
  4 94  1  0  0  0
  5  6  1  0  0  0
  5 26  1  0  0  0
  5 95  1  0  0  0
  6 25  1  0  0  0
  6 96  1  0  0  0
  6 97  1  0  0  0
  7  8  2  0  0  0
  7 26  1  0  0  0
  7 29  1  0  0  0
  8  9  1  0  0  0
  8 22  1  0  0  0
  9 10  1  0  0  0
  9 27  2  0  0  0
 10 11  2  0  0  0
 10 15  1  0  0  0
 11 12  1  0  0  0
 11 98  1  0  0  0
 12 13  2  0  0  0
 12 99  1  0  0  0
 13 14  1  0  0  0
 13 31  1  0  0  0
 14 15  2  0  0  0
 14100  1  0  0  0
 15101  1  0  0  0
 16 17  2  0  0  0
 16 21  1  0  0  0
 16 31  1  0  0  0
 17 18  1  0  0  0
 17102  1  0  0  0
 18 19  2  0  0  0
 18103  1  0  0  0
 19 20  1  0  0  0
 19 24  1  0  0  0
 20 21  2  0  0  0
 20104  1  0  0  0
 21 23  1  0  0  0
 22 28  1  0  0  0
 22 32  2  0  0  0
 26 27  1  0  0  0
 28105  1  0  0  0
 28106  1  0  0  0
 29107  1  0  0  0
 29108  1  0  0  0
 33 34  1  0  0  0
 33 66  1  0  0  0
 33 70  2  0  0  0
 34 36  1  0  0  0
 34 59  1  0  0  0
 34109  1  0  0  0
 35 44  2  0  0  0
 35 45  1  0  0  0
 35 68  1  0  0  0
 36 56  1  0  0  0
 36110  1  0  0  0
 37 39  1  0  0  0
 37 47  1  0  0  0
 37 66  1  0  0  0
 37111  1  0  0  0
 38 43  2  0  0  0
 38 46  1  0  0  0
 38 47  1  0  0  0
 39 64  1  0  0  0
 39 67  2  0  0  0
 40 52  1  0  0  0
 40 53  2  0  0  0
 40 58  1  0  0  0
 41112  1  0  0  0
 41113  1  0  0  0
 41114  1  0  0  0
 41 48  1  0  0  0
 42 43  1  0  0  0
 42 66  1  0  0  0
 42115  1  0  0  0
 42116  1  0  0  0
 43 44  1  0  0  0
 44117  1  0  0  0
 45 46  2  0  0  0
 45118  1  0  0  0
 46119  1  0  0  0
 47120  1  0  0  0
 47121  1  0  0  0
 48 56  1  0  0  0
 48 65  1  0  0  0
 48122  1  0  0  0
 49 50  1  0  0  0
 49 53  1  0  0  0
 49 64  1  0  0  0
 49123  1  0  0  0
 50 51  1  0  0  0
 50124  1  0  0  0
 50125  1  0  0  0
 51 52  1  0  0  0
 51126  1  0  0  0
 51127  1  0  0  0
 52128  1  0  0  0
 52129  1  0  0  0
 53 54  1  0  0  0
 54 55  2  0  0  0
 54130  1  0  0  0
 55 57  1  0  0  0
 55131  1  0  0  0
 56 69  2  0  0  0
 57 58  2  0  0  0
 57132  1  0  0  0
 58133  1  0  0  0
 59 60  1  0  0  0
 59 61  1  0  0  0
 59 62  1  0  0  0
 60134  1  0  0  0
 60135  1  0  0  0
 60136  1  0  0  0
 61137  1  0  0  0
 61138  1  0  0  0
 61139  1  0  0  0
 62140  1  0  0  0
 62141  1  0  0  0
 62142  1  0  0  0
 63 65  1  0  0  0
 63143  1  0  0  0
 63144  1  0  0  0
 63145  1  0  0  0
 64146  1  0  0  0
 65147  1  0  0  0
 68 84  1  0  0  0
 71 72  2  0  0  0
 71 73  1  0  0  0
 71148  1  0  0  0
 72 74  1  0  0  0
 72149  1  0  0  0
 73 75  2  0  0  0
 73150  1  0  0  0
 74 76  2  0  0  0
 74 85  1  0  0  0
 75 76  1  0  0  0
 75 86  1  0  0  0
 76 88  1  0  0  0
 77 79  1  0  0  0
 77 85  1  0  0  0
 77151  1  0  0  0
 77152  1  0  0  0
 78 80  1  0  0  0
 78 87  1  0  0  0
 78153  1  0  0  0
 78154  1  0  0  0
 79 84  1  0  0  0
 79 87  1  0  0  0
 79155  1  0  0  0
 80 81  1  0  0  0
 80 82  1  0  0  0
 80 85  1  0  0  0
 81156  1  0  0  0
 81157  1  0  0  0
 81158  1  0  0  0
 82159  1  0  0  0
 82160  1  0  0  0
 82161  1  0  0  0
 83 86  1  0  0  0
 83162  1  0  0  0
 83163  1  0  0  0
 83164  1  0  0  0
 84165  1  0  0  0
 84166  1  0  0  0
 87167  1  0  0  0
 87168  1  0  0  0
M  CHG  1  87   1
M  ISO  4   1 100  68 101  84 101  86 100
M  END
> <chiral flag>
0

> <version>
0

> <s_m_source_file>
/data/baiqing/PycharmProjects/Reinvent-master-3.2/result/LINK_invent/BTK/process_docking_weight1_custom_product_contain_oxygen_bond_distance_aromatic_linkinvent_7_9_3/rearranged_h_0074.sdf

> <i_m_source_file_index>
43

> <r_mmod_Potential_Energy-OPLS-2005>
382.626007080078

> <r_mmod_Stretch_Energy-OPLS-2005>
145.350769042969

> <r_mmod_Bend_Energy-OPLS-2005>
182.363052368164

> <r_mmod_Torsional_Energy-OPLS-2005>
410.449737548828

> <r_mmod_Improper_Torsional_Energy-OPLS-2005>
32.1167411804199

> <r_mmod_Van_der_Waal_Energy-OPLS-2005>
152.871719360352

> <r_mmod_Electrostatic_Energy-OPLS-2005>
-219.324172973633

> <r_mmod_Solvation_Energy-OPLS-2005>
-424.846374511719

> <b_mmod_Minimization_Converged-OPLS-2005>
0

> <r_mmod_RMS_Derivative-OPLS-2005>
3.30693006515503

$$$$
44
                    3D
 Structure written by MMmdl.
151159  0  0  1  0            999 V2000
  -30.6174  -14.8248   20.4404 C   0  0  0  0  0  0
  -30.4279  -12.5069   19.4888 C   0  0  0  0  0  0
  -29.5133  -12.5166   18.2453 C   0  0  0  0  0  0
  -28.0407  -12.3326   18.6571 C   0  0  0  0  0  0
  -27.6350  -13.2468   19.8442 C   0  0  2  0  0  0
  -28.6795  -13.2356   20.9821 C   0  0  0  0  0  0
  -25.2472  -13.8224   20.5713 C   0  0  0  0  0  0
  -24.1782  -13.0449   20.9227 C   0  0  0  0  0  0
  -24.6397  -11.6935   20.8766 C   0  0  0  0  0  0
  -23.9085  -10.4306   21.0421 C   0  0  0  0  0  0
  -24.3632   -9.4215   21.9191 C   0  0  0  0  0  0
  -23.6310   -8.2248   22.0755 C   0  0  0  0  0  0
  -22.4290   -8.0289   21.3548 C   0  0  0  0  0  0
  -21.9929   -9.0257   20.4642 C   0  0  0  0  0  0
  -22.7264  -10.2139   20.3059 C   0  0  0  0  0  0
  -21.6851   -6.0748   22.5281 C   0  0  0  0  0  0
  -21.4012   -6.5645   23.8215 C   0  0  0  0  0  0
  -21.3664   -5.6798   24.9174 C   0  0  0  0  0  0
  -21.6044   -4.3059   24.7226 C   0  0  0  0  0  0
  -21.8817   -3.8155   23.4343 C   0  0  0  0  0  0
  -21.9192   -4.6977   22.3401 C   0  0  0  0  0  0
  -22.7802  -13.5217   21.1889 C   0  0  0  0  0  0
  -22.1659   -4.2161   21.0981 F   0  0  0  0  0  0
  -21.5631   -3.4540   25.7737 F   0  0  0  0  0  0
  -29.9723  -13.5996   20.3896 N   0  0  0  0  0  0
  -26.2905  -12.9459   20.3267 N   0  0  0  0  0  0
  -25.9330  -11.6590   20.5745 N   0  0  0  0  0  0
  -22.0445  -12.8194   22.0433 N   0  0  0  0  0  0
  -25.4129  -15.1954   20.4137 N   0  0  0  0  0  0
  -31.8148  -14.8413   20.1479 O   0  0  0  0  0  0
  -21.6648   -6.8891   21.4244 O   0  0  0  0  0  0
  -22.3492  -14.5533   20.6759 O   0  0  0  0  0  0
  -24.6365  -31.8524   23.1962 C   0  0  0  0  0  0
  -25.9163  -32.4736   23.8331 C   0  0  1  0  0  0
  -27.2141  -27.2192   20.1259 C   0  0  0  0  0  0
  -25.5943  -33.8543   24.2247 N   0  0  0  0  0  0
  -23.4368  -30.4748   21.5395 C   0  0  2  0  0  0
  -24.8875  -28.9249   20.1012 C   0  0  0  0  0  0
  -22.7543  -29.4579   22.4876 C   0  0  0  0  0  0
  -18.0304  -28.1392   22.8461 C   0  0  0  0  0  0
  -24.1492  -36.7275   23.2639 C   0  0  0  0  0  0
  -25.9881  -30.7484   21.3879 C   0  0  0  0  0  0
  -26.0605  -29.3673   20.7297 C   0  0  0  0  0  0
  -27.2258  -28.5217   20.7451 C   0  0  0  0  0  0
  -26.0300  -26.8794   19.4337 C   0  0  0  0  0  0
  -24.8791  -27.6894   19.4407 C   0  0  0  0  0  0
  -23.6588  -29.8142   20.1541 C   0  0  0  0  0  0
  -25.4113  -36.3055   24.0327 C   0  0  1  0  0  0
  -20.5913  -28.3707   23.1236 C   0  0  2  0  0  0
  -20.6791  -26.9417   22.5402 C   0  0  0  0  0  0
  -19.5768  -26.6385   21.5202 C   0  0  0  0  0  0
  -18.1944  -26.7926   22.1608 C   0  0  0  0  0  0
  -19.1558  -28.8862   23.2844 C   0  0  0  0  0  0
  -18.9478  -30.1458   23.8872 C   0  0  0  0  0  0
  -17.6476  -30.6583   24.0554 C   0  0  0  0  0  0
  -25.9059  -34.9429   23.5086 C   0  0  0  0  0  0
  -16.5369  -29.9078   23.6334 C   0  0  0  0  0  0
  -16.7289  -28.6500   23.0344 C   0  0  0  0  0  0
  -26.4508  -31.6568   25.0732 C   0  0  0  0  0  0
  -25.3704  -31.3740   26.1426 C   0  0  0  0  0  0
  -27.0362  -30.2973   24.6253 C   0  0  0  0  0  0
  -27.6059  -32.4309   25.7507 C   0  0  0  0  0  0
  -27.5573  -37.1790   24.8469 C   0  0  0  0  0  0
  -21.4243  -29.3043   22.3617 N   0  0  0  0  0  0
  -26.4286  -37.3753   23.9413 N   0  0  0  0  0  0
  -24.7062  -31.0450   22.0966 N   0  0  0  0  0  0
  -23.4219  -28.8115   23.2992 O   0  0  0  0  0  0
  -28.2111  -26.2010   20.1983 O   0  0  0  0  0  0
  -26.5639  -34.8910   22.4661 O   0  0  0  0  0  0
  -23.5500  -32.1375   23.7219 O   0  0  0  0  0  0
  -32.0644  -19.1681   20.2158 C   0  0  0  0  0  0
  -31.1694  -20.2530   20.2555 C   0  0  0  0  0  0
  -31.6331  -17.8321   20.3346 C   0  0  0  0  0  0
  -29.3627  -18.6493   20.5446 C   0  0  0  0  0  0
  -29.7814  -20.0615   20.4223 C   0  0  0  0  0  0
  -30.2693  -17.4846   20.4952 C   0  0  0  0  0  0
  -27.9013  -23.6673   20.7263 C   0  0  0  0  0  0
  -29.0850  -22.6624   20.2802 C   0  0  0  0  0  0
  -26.7540  -22.8605   21.3286 C   0  0  0  0  0  0
  -27.5794  -24.9693   20.7503 N   0  0  0  0  0  0
  -28.8967  -21.2794   20.5180 N   0  0  0  0  0  0
  -29.8845  -16.0191   20.6091 N   0  0  0  0  0  0
  -30.0978  -23.1146   19.7377 O   0  0  0  0  0  0
  -31.4686  -12.6235   19.1817 H   0  0  0  0  0  0
  -30.3751  -11.5441   19.9985 H   0  0  0  0  0  0
  -29.8092  -11.7296   17.5497 H   0  0  0  0  0  0
  -29.6312  -13.4602   17.7095 H   0  0  0  0  0  0
  -27.9063  -11.2867   18.9340 H   0  0  0  0  0  0
  -27.3855  -12.5068   17.8029 H   0  0  0  0  0  0
  -27.6109  -14.2594   19.4408 H   0  0  0  0  0  0
  -28.7309  -12.2547   21.4569 H   0  0  0  0  0  0
  -28.4040  -13.9445   21.7650 H   0  0  0  0  0  0
  -25.2772   -9.5691   22.4773 H   0  0  0  0  0  0
  -24.0017   -7.4638   22.7471 H   0  0  0  0  0  0
  -21.0861   -8.8782   19.8942 H   0  0  0  0  0  0
  -22.3725  -10.9681   19.6169 H   0  0  0  0  0  0
  -21.2000   -7.6151   23.9723 H   0  0  0  0  0  0
  -21.1488   -6.0525   25.9080 H   0  0  0  0  0  0
  -22.0594   -2.7619   23.2838 H   0  0  0  0  0  0
  -22.4061  -11.9849   22.4807 H   0  0  0  0  0  0
  -21.1050  -13.1196   22.2632 H   0  0  0  0  0  0
  -24.6416  -15.8450   20.5225 H   0  0  0  0  0  0
  -26.2511  -15.6343   20.0554 H   0  0  0  0  0  0
  -26.7228  -32.5367   23.1073 H   0  0  0  0  0  0
  -25.0085  -33.9688   25.0388 H   0  0  0  0  0  0
  -22.7338  -31.2971   21.3921 H   0  0  0  0  0  0
  -23.3752  -35.9609   23.3300 H   0  0  0  0  0  0
  -24.3579  -36.8908   22.2053 H   0  0  0  0  0  0
  -23.7263  -37.6479   23.6675 H   0  0  0  0  0  0
  -26.1369  -31.5062   20.6173 H   0  0  0  0  0  0
  -26.8624  -30.7970   22.0253 H   0  0  0  0  0  0
  -28.1115  -28.8406   21.2764 H   0  0  0  0  0  0
  -25.9723  -25.9284   18.9240 H   0  0  0  0  0  0
  -23.9871  -27.3485   18.9320 H   0  0  0  0  0  0
  -23.7832  -30.5939   19.4013 H   0  0  0  0  0  0
  -22.7768  -29.2502   19.8456 H   0  0  0  0  0  0
  -25.1300  -36.1891   25.0822 H   0  0  0  0  0  0
  -20.9999  -28.3296   24.1361 H   0  0  0  0  0  0
  -20.5698  -26.2311   23.3610 H   0  0  0  0  0  0
  -21.6650  -26.7447   22.1180 H   0  0  0  0  0  0
  -19.6942  -25.6301   21.1227 H   0  0  0  0  0  0
  -19.6705  -27.3187   20.6724 H   0  0  0  0  0  0
  -17.4216  -26.6663   21.4012 H   0  0  0  0  0  0
  -18.0348  -26.0092   22.9026 H   0  0  0  0  0  0
  -19.7968  -30.7275   24.2226 H   0  0  0  0  0  0
  -17.5043  -31.6261   24.5160 H   0  0  0  0  0  0
  -15.5364  -30.2969   23.7680 H   0  0  0  0  0  0
  -15.8692  -28.0818   22.7054 H   0  0  0  0  0  0
  -24.5910  -30.7054   25.7758 H   0  0  0  0  0  0
  -24.8846  -32.2908   26.4775 H   0  0  0  0  0  0
  -25.7984  -30.8985   27.0256 H   0  0  0  0  0  0
  -26.2961  -29.6709   24.1254 H   0  0  0  0  0  0
  -27.4002  -29.7255   25.4798 H   0  0  0  0  0  0
  -27.8861  -30.4237   23.9544 H   0  0  0  0  0  0
  -27.2678  -33.3640   26.2027 H   0  0  0  0  0  0
  -28.3890  -32.6808   25.0340 H   0  0  0  0  0  0
  -28.0688  -31.8463   26.5469 H   0  0  0  0  0  0
  -28.2579  -38.0093   24.7499 H   0  0  0  0  0  0
  -28.1079  -36.2619   24.6308 H   0  0  0  0  0  0
  -27.2288  -37.1445   25.8872 H   0  0  0  0  0  0
  -20.9441  -29.8786   21.6827 H   0  0  0  0  0  0
  -26.0160  -38.2829   24.1415 H   0  0  0  0  0  0
  -33.1205  -19.3671   20.1019 H   0  0  0  0  0  0
  -31.5895  -21.2440   20.1758 H   0  0  0  0  0  0
  -32.4104  -17.0862   20.3060 H   0  0  0  0  0  0
  -28.3083  -18.4565   20.6833 H   0  0  0  0  0  0
  -27.0596  -22.3926   22.2644 H   0  0  0  0  0  0
  -26.4099  -22.0959   20.6315 H   0  0  0  0  0  0
  -25.8880  -23.4880   21.5472 H   0  0  0  0  0  0
  -27.9703  -21.0871   20.8742 H   0  0  0  0  0  0
  -28.9061  -15.8558   20.7912 H   0  0  0  0  0  0
  1 25  1  0  0  0
  1 30  2  0  0  0
  1 82  1  0  0  0
  2  3  1  0  0  0
  2 25  1  0  0  0
  2 84  1  0  0  0
  2 85  1  0  0  0
  3  4  1  0  0  0
  3 86  1  0  0  0
  3 87  1  0  0  0
  4  5  1  0  0  0
  4 88  1  0  0  0
  4 89  1  0  0  0
  5  6  1  0  0  0
  5 26  1  0  0  0
  5 90  1  0  0  0
  6 25  1  0  0  0
  6 91  1  0  0  0
  6 92  1  0  0  0
  7  8  2  0  0  0
  7 26  1  0  0  0
  7 29  1  0  0  0
  8  9  1  0  0  0
  8 22  1  0  0  0
  9 10  1  0  0  0
  9 27  2  0  0  0
 10 11  2  0  0  0
 10 15  1  0  0  0
 11 12  1  0  0  0
 11 93  1  0  0  0
 12 13  2  0  0  0
 12 94  1  0  0  0
 13 14  1  0  0  0
 13 31  1  0  0  0
 14 15  2  0  0  0
 14 95  1  0  0  0
 15 96  1  0  0  0
 16 17  2  0  0  0
 16 21  1  0  0  0
 16 31  1  0  0  0
 17 18  1  0  0  0
 17 97  1  0  0  0
 18 19  2  0  0  0
 18 98  1  0  0  0
 19 20  1  0  0  0
 19 24  1  0  0  0
 20 21  2  0  0  0
 20 99  1  0  0  0
 21 23  1  0  0  0
 22 28  1  0  0  0
 22 32  2  0  0  0
 26 27  1  0  0  0
 28100  1  0  0  0
 28101  1  0  0  0
 29102  1  0  0  0
 29103  1  0  0  0
 33 34  1  0  0  0
 33 66  1  0  0  0
 33 70  2  0  0  0
 34 36  1  0  0  0
 34 59  1  0  0  0
 34104  1  0  0  0
 35 44  2  0  0  0
 35 45  1  0  0  0
 35 68  1  0  0  0
 36 56  1  0  0  0
 36105  1  0  0  0
 37 39  1  0  0  0
 37 47  1  0  0  0
 37 66  1  0  0  0
 37106  1  0  0  0
 38 43  2  0  0  0
 38 46  1  0  0  0
 38 47  1  0  0  0
 39 64  1  0  0  0
 39 67  2  0  0  0
 40 52  1  0  0  0
 40 53  2  0  0  0
 40 58  1  0  0  0
 41107  1  0  0  0
 41108  1  0  0  0
 41109  1  0  0  0
 41 48  1  0  0  0
 42 43  1  0  0  0
 42 66  1  0  0  0
 42110  1  0  0  0
 42111  1  0  0  0
 43 44  1  0  0  0
 44112  1  0  0  0
 45 46  2  0  0  0
 45113  1  0  0  0
 46114  1  0  0  0
 47115  1  0  0  0
 47116  1  0  0  0
 48 56  1  0  0  0
 48 65  1  0  0  0
 48117  1  0  0  0
 49 50  1  0  0  0
 49 53  1  0  0  0
 49 64  1  0  0  0
 49118  1  0  0  0
 50 51  1  0  0  0
 50119  1  0  0  0
 50120  1  0  0  0
 51 52  1  0  0  0
 51121  1  0  0  0
 51122  1  0  0  0
 52123  1  0  0  0
 52124  1  0  0  0
 53 54  1  0  0  0
 54 55  2  0  0  0
 54125  1  0  0  0
 55 57  1  0  0  0
 55126  1  0  0  0
 56 69  2  0  0  0
 57 58  2  0  0  0
 57127  1  0  0  0
 58128  1  0  0  0
 59 60  1  0  0  0
 59 61  1  0  0  0
 59 62  1  0  0  0
 60129  1  0  0  0
 60130  1  0  0  0
 60131  1  0  0  0
 61132  1  0  0  0
 61133  1  0  0  0
 61134  1  0  0  0
 62135  1  0  0  0
 62136  1  0  0  0
 62137  1  0  0  0
 63 65  1  0  0  0
 63138  1  0  0  0
 63139  1  0  0  0
 63140  1  0  0  0
 64141  1  0  0  0
 65142  1  0  0  0
 68 80  1  0  0  0
 71 72  2  0  0  0
 71 73  1  0  0  0
 71143  1  0  0  0
 72 75  1  0  0  0
 72144  1  0  0  0
 73 76  2  0  0  0
 73145  1  0  0  0
 74 75  2  0  0  0
 74 76  1  0  0  0
 74146  1  0  0  0
 75 81  1  0  0  0
 76 82  1  0  0  0
 77 78  1  0  0  0
 77 79  1  0  0  0
 77 80  2  0  0  0
 78 81  1  0  0  0
 78 83  2  0  0  0
 79147  1  0  0  0
 79148  1  0  0  0
 79149  1  0  0  0
 81150  1  0  0  0
 82151  1  0  0  0
M  ISO  4   1 100  68 101  80 101  82 100
M  END
> <chiral flag>
0

> <version>
0

> <s_m_source_file>
/data/baiqing/PycharmProjects/Reinvent-master-3.2/result/LINK_invent/BTK/process_docking_weight1_custom_product_contain_oxygen_bond_distance_aromatic_linkinvent_7_9_3/rearranged_h_0074.sdf

> <i_m_source_file_index>
44

> <r_mmod_Potential_Energy-OPLS-2005>
380.473876953125

> <r_mmod_Stretch_Energy-OPLS-2005>
181.674453735352

> <r_mmod_Bend_Energy-OPLS-2005>
280.380157470703

> <r_mmod_Torsional_Energy-OPLS-2005>
218.215423583984

> <r_mmod_Improper_Torsional_Energy-OPLS-2005>
4.87973546981812

> <r_mmod_Van_der_Waal_Energy-OPLS-2005>
154.124725341797

> <r_mmod_Electrostatic_Energy-OPLS-2005>
-333.81982421875

> <r_mmod_Solvation_Energy-OPLS-2005>
-256.352905273438

> <b_mmod_Minimization_Converged-OPLS-2005>
0

> <r_mmod_RMS_Derivative-OPLS-2005>
1.69421088695526

$$$$
45
                    3D
 Structure written by MMmdl.
154162  0  0  1  0            999 V2000
  -30.6545  -14.5377   20.5534 C   0  0  0  0  0  0
  -30.4372  -12.3423   19.4300 C   0  0  0  0  0  0
  -29.5009  -12.5048   18.2123 C   0  0  0  0  0  0
  -28.0240  -12.3421   18.6255 C   0  0  0  0  0  0
  -27.6601  -13.1888   19.8720 C   0  0  2  0  0  0
  -28.7037  -12.9959   20.9958 C   0  0  0  0  0  0
  -25.2617  -13.8116   20.5667 C   0  0  0  0  0  0
  -24.1849  -13.0425   20.9182 C   0  0  0  0  0  0
  -24.6375  -11.6882   20.8744 C   0  0  0  0  0  0
  -23.9035  -10.4282   21.0417 C   0  0  0  0  0  0
  -24.3595   -9.4200   21.9190 C   0  0  0  0  0  0
  -23.6278   -8.2233   22.0755 C   0  0  0  0  0  0
  -22.4262   -8.0273   21.3544 C   0  0  0  0  0  0
  -21.9891   -9.0246   20.4649 C   0  0  0  0  0  0
  -22.7212  -10.2128   20.3062 C   0  0  0  0  0  0
  -21.6848   -6.0730   22.5279 C   0  0  0  0  0  0
  -21.4010   -6.5636   23.8212 C   0  0  0  0  0  0
  -21.3658   -5.6790   24.9176 C   0  0  0  0  0  0
  -21.6044   -4.3053   24.7227 C   0  0  0  0  0  0
  -21.8819   -3.8144   23.4349 C   0  0  0  0  0  0
  -21.9191   -4.6959   22.3404 C   0  0  0  0  0  0
  -22.7878  -13.5248   21.1844 C   0  0  0  0  0  0
  -22.1661   -4.2145   21.0982 F   0  0  0  0  0  0
  -21.5629   -3.4538   25.7740 F   0  0  0  0  0  0
  -30.0296  -13.3290   20.4447 N   0  0  0  0  0  0
  -26.3015  -12.9234   20.3343 N   0  0  0  0  0  0
  -25.9292  -11.6420   20.5769 N   0  0  0  0  0  0
  -22.0508  -12.8251   22.0402 N   0  0  0  0  0  0
  -25.4391  -15.1825   20.4053 N   0  0  0  0  0  0
  -31.7858  -14.7445   20.1031 O   0  0  0  0  0  0
  -21.6630   -6.8869   21.4239 O   0  0  0  0  0  0
  -22.3570  -14.5555   20.6689 O   0  0  0  0  0  0
  -24.6169  -31.8659   23.2082 C   0  0  0  0  0  0
  -25.9050  -32.4814   23.8389 C   0  0  1  0  0  0
  -27.2387  -27.4139   20.1054 C   0  0  0  0  0  0
  -25.5897  -33.8613   24.2320 N   0  0  0  0  0  0
  -23.4080  -30.4875   21.5482 C   0  0  2  0  0  0
  -24.8591  -28.9494   20.1157 C   0  0  0  0  0  0
  -22.7428  -29.4645   22.4976 C   0  0  0  0  0  0
  -18.0276  -28.1380   22.8491 C   0  0  0  0  0  0
  -24.1487  -36.7314   23.2639 C   0  0  0  0  0  0
  -25.9389  -30.8247   21.3663 C   0  0  0  0  0  0
  -26.0196  -29.4559   20.7168 C   0  0  0  0  0  0
  -27.2153  -28.6946   20.7119 C   0  0  0  0  0  0
  -26.0655  -26.9280   19.4962 C   0  0  0  0  0  0
  -24.8773  -27.6844   19.5021 C   0  0  0  0  0  0
  -23.6203  -29.8177   20.1640 C   0  0  0  0  0  0
  -25.4107  -36.3108   24.0338 C   0  0  1  0  0  0
  -20.5868  -28.3670   23.1311 C   0  0  2  0  0  0
  -20.6765  -26.9403   22.5417 C   0  0  0  0  0  0
  -19.5743  -26.6386   21.5214 C   0  0  0  0  0  0
  -18.1922  -26.7925   22.1626 C   0  0  0  0  0  0
  -19.1526  -28.8842   23.2898 C   0  0  0  0  0  0
  -18.9453  -30.1448   23.8908 C   0  0  0  0  0  0
  -17.6454  -30.6585   24.0566 C   0  0  0  0  0  0
  -25.9034  -34.9472   23.5127 C   0  0  0  0  0  0
  -16.5345  -29.9087   23.6327 C   0  0  0  0  0  0
  -16.7264  -28.6504   23.0347 C   0  0  0  0  0  0
  -26.4473  -31.6596   25.0722 C   0  0  0  0  0  0
  -25.3737  -31.3706   26.1470 C   0  0  0  0  0  0
  -27.0305  -30.3036   24.6106 C   0  0  0  0  0  0
  -27.6048  -32.4316   25.7483 C   0  0  0  0  0  0
  -27.5580  -37.1811   24.8465 C   0  0  0  0  0  0
  -21.4152  -29.3034   22.3715 N   0  0  0  0  0  0
  -26.4294  -37.3791   23.9407 N   0  0  0  0  0  0
  -24.6726  -31.0741   22.0993 N   0  0  0  0  0  0
  -23.4186  -28.8189   23.3032 O   0  0  0  0  0  0
  -28.3600  -26.6083   20.0895 O   0  0  0  0  0  0
  -26.5598  -34.8925   22.4690 O   0  0  0  0  0  0
  -23.5353  -32.1419   23.7459 O   0  0  0  0  0  0
  -30.6668  -19.2435   20.9227 C   0  0  0  0  0  0
  -30.7908  -17.8626   21.2480 C   0  0  0  0  0  0
  -28.7584  -18.7334   19.5168 C   0  0  0  0  0  0
  -29.6537  -19.6940   20.0391 C   0  0  0  0  0  0
  -29.8923  -16.9047   20.7127 C   0  0  0  0  0  0
  -28.8635  -17.3688   19.8605 C   0  0  0  0  0  0
  -28.9682  -24.5126   21.2050 C   0  0  0  0  0  0
  -28.5348  -25.7996   21.1933 C   0  0  0  0  0  0
  -29.5366  -21.1022   19.5835 C   0  0  0  0  0  0
  -29.3417  -23.6148   20.0225 C   0  0  0  0  0  0
  -29.4885  -21.3252   18.2719 N   0  0  0  0  0  0
  -29.9053  -15.5214   21.0974 N   0  0  0  0  0  0
  -29.4548  -22.1701   20.4118 N   0  3  0  0  0  0
  -27.9539  -16.4986   19.3643 F   0  0  0  0  0  0
  -31.4780  -12.4668   19.1256 H   0  0  0  0  0  0
  -30.3654  -11.3329   19.8381 H   0  0  0  0  0  0
  -29.7549  -11.7754   17.4420 H   0  0  0  0  0  0
  -29.6488  -13.4879   17.7623 H   0  0  0  0  0  0
  -27.8516  -11.2856   18.8347 H   0  0  0  0  0  0
  -27.3686  -12.5975   17.7919 H   0  0  0  0  0  0
  -27.6942  -14.2243   19.5518 H   0  0  0  0  0  0
  -28.6998  -11.9607   21.3406 H   0  0  0  0  0  0
  -28.4494  -13.5918   21.8734 H   0  0  0  0  0  0
  -25.2743   -9.5677   22.4761 H   0  0  0  0  0  0
  -23.9992   -7.4622   22.7470 H   0  0  0  0  0  0
  -21.0824   -8.8762   19.8955 H   0  0  0  0  0  0
  -22.3672  -10.9668   19.6172 H   0  0  0  0  0  0
  -21.2001   -7.6144   23.9714 H   0  0  0  0  0  0
  -21.1481   -6.0521   25.9078 H   0  0  0  0  0  0
  -22.0601   -2.7606   23.2850 H   0  0  0  0  0  0
  -22.4111  -11.9908   22.4793 H   0  0  0  0  0  0
  -21.1131  -13.1293   22.2605 H   0  0  0  0  0  0
  -24.6716  -15.8380   20.4975 H   0  0  0  0  0  0
  -26.2825  -15.6103   20.0376 H   0  0  0  0  0  0
  -26.7123  -32.5527   23.1156 H   0  0  0  0  0  0
  -25.0051  -33.9772   25.0467 H   0  0  0  0  0  0
  -22.6977  -31.3047   21.4060 H   0  0  0  0  0  0
  -23.3742  -35.9654   23.3312 H   0  0  0  0  0  0
  -24.3581  -36.8917   22.2051 H   0  0  0  0  0  0
  -23.7246  -37.6526   23.6645 H   0  0  0  0  0  0
  -26.0530  -31.5881   20.5955 H   0  0  0  0  0  0
  -26.8258  -30.8810   21.9857 H   0  0  0  0  0  0
  -28.1117  -29.0780   21.1789 H   0  0  0  0  0  0
  -26.0730  -25.9539   19.0278 H   0  0  0  0  0  0
  -23.9863  -27.2875   19.0352 H   0  0  0  0  0  0
  -23.7300  -30.5916   19.4034 H   0  0  0  0  0  0
  -22.7446  -29.2373   19.8675 H   0  0  0  0  0  0
  -25.1284  -36.1975   25.0831 H   0  0  0  0  0  0
  -20.9960  -28.3237   24.1432 H   0  0  0  0  0  0
  -20.5669  -26.2277   23.3606 H   0  0  0  0  0  0
  -21.6635  -26.7445   22.1210 H   0  0  0  0  0  0
  -19.6905  -25.6300   21.1236 H   0  0  0  0  0  0
  -19.6683  -27.3203   20.6749 H   0  0  0  0  0  0
  -17.4193  -26.6674   21.4027 H   0  0  0  0  0  0
  -18.0322  -26.0065   22.9020 H   0  0  0  0  0  0
  -19.7929  -30.7261   24.2281 H   0  0  0  0  0  0
  -17.5010  -31.6266   24.5165 H   0  0  0  0  0  0
  -15.5346  -30.2993   23.7645 H   0  0  0  0  0  0
  -15.8664  -28.0830   22.7053 H   0  0  0  0  0  0
  -24.5902  -30.7062   25.7807 H   0  0  0  0  0  0
  -24.8938  -32.2864   26.4931 H   0  0  0  0  0  0
  -25.8090  -30.8864   27.0221 H   0  0  0  0  0  0
  -26.2854  -29.6798   24.1155 H   0  0  0  0  0  0
  -27.4066  -29.7271   25.4568 H   0  0  0  0  0  0
  -27.8693  -30.4352   23.9266 H   0  0  0  0  0  0
  -27.2666  -33.3605   26.2089 H   0  0  0  0  0  0
  -28.3841  -32.6896   25.0300 H   0  0  0  0  0  0
  -28.0735  -31.8424   26.5375 H   0  0  0  0  0  0
  -28.2606  -38.0100   24.7506 H   0  0  0  0  0  0
  -28.1068  -36.2632   24.6298 H   0  0  0  0  0  0
  -27.2299  -37.1472   25.8869 H   0  0  0  0  0  0
  -20.9315  -29.8759   21.6938 H   0  0  0  0  0  0
  -26.0185  -38.2873   24.1399 H   0  0  0  0  0  0
  -31.3734  -19.9517   21.3336 H   0  0  0  0  0  0
  -31.5711  -17.5449   21.9247 H   0  0  0  0  0  0
  -27.9681  -19.0401   18.8468 H   0  0  0  0  0  0
  -29.0708  -24.0557   22.1784 H   0  0  0  0  0  0
  -28.2911  -26.3197   22.1106 H   0  0  0  0  0  0
  -30.2966  -23.9519   19.6160 H   0  0  0  0  0  0
  -28.5932  -23.7470   19.2395 H   0  0  0  0  0  0
  -29.5960  -20.5473   17.6380 H   0  0  0  0  0  0
  -29.4117  -22.2484   17.8813 H   0  0  0  0  0  0
  -29.0108  -15.1773   21.4088 H   0  0  0  0  0  0
  -29.4737  -21.9581   21.4021 H   0  0  0  0  0  0
  1 25  1  0  0  0
  1 30  2  0  0  0
  1 82  1  0  0  0
  2  3  1  0  0  0
  2 25  1  0  0  0
  2 85  1  0  0  0
  2 86  1  0  0  0
  3  4  1  0  0  0
  3 87  1  0  0  0
  3 88  1  0  0  0
  4  5  1  0  0  0
  4 89  1  0  0  0
  4 90  1  0  0  0
  5  6  1  0  0  0
  5 26  1  0  0  0
  5 91  1  0  0  0
  6 25  1  0  0  0
  6 92  1  0  0  0
  6 93  1  0  0  0
  7  8  2  0  0  0
  7 26  1  0  0  0
  7 29  1  0  0  0
  8  9  1  0  0  0
  8 22  1  0  0  0
  9 10  1  0  0  0
  9 27  2  0  0  0
 10 11  2  0  0  0
 10 15  1  0  0  0
 11 12  1  0  0  0
 11 94  1  0  0  0
 12 13  2  0  0  0
 12 95  1  0  0  0
 13 14  1  0  0  0
 13 31  1  0  0  0
 14 15  2  0  0  0
 14 96  1  0  0  0
 15 97  1  0  0  0
 16 17  2  0  0  0
 16 21  1  0  0  0
 16 31  1  0  0  0
 17 18  1  0  0  0
 17 98  1  0  0  0
 18 19  2  0  0  0
 18 99  1  0  0  0
 19 20  1  0  0  0
 19 24  1  0  0  0
 20 21  2  0  0  0
 20100  1  0  0  0
 21 23  1  0  0  0
 22 28  1  0  0  0
 22 32  2  0  0  0
 26 27  1  0  0  0
 28101  1  0  0  0
 28102  1  0  0  0
 29103  1  0  0  0
 29104  1  0  0  0
 33 34  1  0  0  0
 33 66  1  0  0  0
 33 70  2  0  0  0
 34 36  1  0  0  0
 34 59  1  0  0  0
 34105  1  0  0  0
 35 44  2  0  0  0
 35 45  1  0  0  0
 35 68  1  0  0  0
 36 56  1  0  0  0
 36106  1  0  0  0
 37 39  1  0  0  0
 37 47  1  0  0  0
 37 66  1  0  0  0
 37107  1  0  0  0
 38 43  2  0  0  0
 38 46  1  0  0  0
 38 47  1  0  0  0
 39 64  1  0  0  0
 39 67  2  0  0  0
 40 52  1  0  0  0
 40 53  2  0  0  0
 40 58  1  0  0  0
 41108  1  0  0  0
 41109  1  0  0  0
 41110  1  0  0  0
 41 48  1  0  0  0
 42 43  1  0  0  0
 42 66  1  0  0  0
 42111  1  0  0  0
 42112  1  0  0  0
 43 44  1  0  0  0
 44113  1  0  0  0
 45 46  2  0  0  0
 45114  1  0  0  0
 46115  1  0  0  0
 47116  1  0  0  0
 47117  1  0  0  0
 48 56  1  0  0  0
 48 65  1  0  0  0
 48118  1  0  0  0
 49 50  1  0  0  0
 49 53  1  0  0  0
 49 64  1  0  0  0
 49119  1  0  0  0
 50 51  1  0  0  0
 50120  1  0  0  0
 50121  1  0  0  0
 51 52  1  0  0  0
 51122  1  0  0  0
 51123  1  0  0  0
 52124  1  0  0  0
 52125  1  0  0  0
 53 54  1  0  0  0
 54 55  2  0  0  0
 54126  1  0  0  0
 55 57  1  0  0  0
 55127  1  0  0  0
 56 69  2  0  0  0
 57 58  2  0  0  0
 57128  1  0  0  0
 58129  1  0  0  0
 59 60  1  0  0  0
 59 61  1  0  0  0
 59 62  1  0  0  0
 60130  1  0  0  0
 60131  1  0  0  0
 60132  1  0  0  0
 61133  1  0  0  0
 61134  1  0  0  0
 61135  1  0  0  0
 62136  1  0  0  0
 62137  1  0  0  0
 62138  1  0  0  0
 63 65  1  0  0  0
 63139  1  0  0  0
 63140  1  0  0  0
 63141  1  0  0  0
 64142  1  0  0  0
 65143  1  0  0  0
 68 78  1  0  0  0
 71 72  2  0  0  0
 71 74  1  0  0  0
 71144  1  0  0  0
 72 75  1  0  0  0
 72145  1  0  0  0
 73 74  2  0  0  0
 73 76  1  0  0  0
 73146  1  0  0  0
 74 79  1  0  0  0
 75 76  2  0  0  0
 75 82  1  0  0  0
 76 84  1  0  0  0
 77 78  2  0  0  0
 77 80  1  0  0  0
 77147  1  0  0  0
 78148  1  0  0  0
 79 81  1  0  0  0
 79 83  2  0  0  0
 80 83  1  0  0  0
 80149  1  0  0  0
 80150  1  0  0  0
 81151  1  0  0  0
 81152  1  0  0  0
 82153  1  0  0  0
 83154  1  0  0  0
M  CHG  1  83   1
M  ISO  4   1 100  68 101  78 101  82 100
M  END
> <chiral flag>
0

> <version>
0

> <s_m_source_file>
/data/baiqing/PycharmProjects/Reinvent-master-3.2/result/LINK_invent/BTK/process_docking_weight1_custom_product_contain_oxygen_bond_distance_aromatic_linkinvent_7_9_3/rearranged_h_0074.sdf

> <i_m_source_file_index>
45

> <r_mmod_Potential_Energy-OPLS-2005>
-310.328094482422

> <r_mmod_Stretch_Energy-OPLS-2005>
42.3826179504395

> <r_mmod_Bend_Energy-OPLS-2005>
102.316566467285

> <r_mmod_Torsional_Energy-OPLS-2005>
253.917449951172

> <r_mmod_Improper_Torsional_Energy-OPLS-2005>
5.94672727584839

> <r_mmod_Van_der_Waal_Energy-OPLS-2005>
142.918014526367

> <r_mmod_Electrostatic_Energy-OPLS-2005>
-467.896057128906

> <r_mmod_Solvation_Energy-OPLS-2005>
-409.936645507812

> <b_mmod_Minimization_Converged-OPLS-2005>
0

> <r_mmod_RMS_Derivative-OPLS-2005>
0.150040060281754

$$$$
46
                    3D
 Structure written by MMmdl.
167175  0  0  1  0            999 V2000
  -30.6738  -14.4817   20.5727 C   0  0  0  0  0  0
  -30.4331  -12.3127   19.4193 C   0  0  0  0  0  0
  -29.4986  -12.5126   18.2063 C   0  0  0  0  0  0
  -28.0186  -12.3672   18.6164 C   0  0  0  0  0  0
  -27.6633  -13.1996   19.8767 C   0  0  2  0  0  0
  -28.7048  -12.9641   20.9952 C   0  0  0  0  0  0
  -25.2582  -13.8124   20.5664 C   0  0  0  0  0  0
  -24.1839  -13.0417   20.9191 C   0  0  0  0  0  0
  -24.6387  -11.6884   20.8738 C   0  0  0  0  0  0
  -23.9050  -10.4281   21.0408 C   0  0  0  0  0  0
  -24.3603   -9.4200   21.9186 C   0  0  0  0  0  0
  -23.6283   -8.2233   22.0753 C   0  0  0  0  0  0
  -22.4265   -8.0271   21.3543 C   0  0  0  0  0  0
  -21.9898   -9.0245   20.4646 C   0  0  0  0  0  0
  -22.7223  -10.2127   20.3057 C   0  0  0  0  0  0
  -21.6849   -6.0729   22.5279 C   0  0  0  0  0  0
  -21.4010   -6.5634   23.8211 C   0  0  0  0  0  0
  -21.3660   -5.6789   24.9174 C   0  0  0  0  0  0
  -21.6043   -4.3051   24.7227 C   0  0  0  0  0  0
  -21.8819   -3.8142   23.4348 C   0  0  0  0  0  0
  -21.9192   -4.6958   22.3404 C   0  0  0  0  0  0
  -22.7864  -13.5229   21.1848 C   0  0  0  0  0  0
  -22.1662   -4.2145   21.0982 F   0  0  0  0  0  0
  -21.5631   -3.4535   25.7739 F   0  0  0  0  0  0
  -30.0383  -13.2832   20.4516 N   0  0  0  0  0  0
  -26.3022  -12.9290   20.3352 N   0  0  0  0  0  0
  -25.9311  -11.6459   20.5757 N   0  0  0  0  0  0
  -22.0496  -12.8231   22.0404 N   0  0  0  0  0  0
  -25.4266  -15.1834   20.4015 N   0  0  0  0  0  0
  -31.7971  -14.6997   20.1070 O   0  0  0  0  0  0
  -21.6630   -6.8869   21.4239 O   0  0  0  0  0  0
  -22.3564  -14.5541   20.6696 O   0  0  0  0  0  0
  -24.6155  -31.8669   23.2090 C   0  0  0  0  0  0
  -25.9048  -32.4815   23.8384 C   0  0  1  0  0  0
  -27.2411  -27.4264   20.0850 C   0  0  0  0  0  0
  -25.5903  -33.8612   24.2323 N   0  0  0  0  0  0
  -23.4032  -30.4902   21.5502 C   0  0  2  0  0  0
  -24.8484  -28.9531   20.1150 C   0  0  0  0  0  0
  -22.7409  -29.4654   22.4990 C   0  0  0  0  0  0
  -18.0269  -28.1379   22.8494 C   0  0  0  0  0  0
  -24.1487  -36.7313   23.2639 C   0  0  0  0  0  0
  -25.9327  -30.8282   21.3634 C   0  0  0  0  0  0
  -26.0076  -29.4614   20.7110 C   0  0  0  0  0  0
  -27.2006  -28.7032   20.6960 C   0  0  0  0  0  0
  -26.0530  -26.9261   19.5002 C   0  0  0  0  0  0
  -24.8662  -27.6845   19.5109 C   0  0  0  0  0  0
  -23.6115  -29.8217   20.1648 C   0  0  0  0  0  0
  -25.4106  -36.3107   24.0341 C   0  0  1  0  0  0
  -20.5860  -28.3662   23.1325 C   0  0  2  0  0  0
  -20.6760  -26.9401   22.5422 C   0  0  0  0  0  0
  -19.5743  -26.6387   21.5214 C   0  0  0  0  0  0
  -18.1918  -26.7928   22.1622 C   0  0  0  0  0  0
  -19.1519  -28.8837   23.2907 C   0  0  0  0  0  0
  -18.9446  -30.1445   23.8915 C   0  0  0  0  0  0
  -17.6450  -30.6589   24.0563 C   0  0  0  0  0  0
  -25.9033  -34.9472   23.5129 C   0  0  0  0  0  0
  -16.5339  -29.9090   23.6327 C   0  0  0  0  0  0
  -16.7257  -28.6506   23.0347 C   0  0  0  0  0  0
  -26.4475  -31.6592   25.0715 C   0  0  0  0  0  0
  -25.3745  -31.3700   26.1469 C   0  0  0  0  0  0
  -27.0299  -30.3031   24.6091 C   0  0  0  0  0  0
  -27.6059  -32.4304   25.7474 C   0  0  0  0  0  0
  -27.5584  -37.1809   24.8465 C   0  0  0  0  0  0
  -21.4135  -29.3029   22.3733 N   0  0  0  0  0  0
  -26.4294  -37.3791   23.9412 N   0  0  0  0  0  0
  -24.6687  -31.0764   22.0992 N   0  0  0  0  0  0
  -23.4180  -28.8197   23.3035 O   0  0  0  0  0  0
  -28.4402  -26.7361   20.1114 O   0  0  0  0  0  0
  -26.5591  -34.8926   22.4688 O   0  0  0  0  0  0
  -23.5348  -32.1422   23.7487 O   0  0  0  0  0  0
  -30.8997  -19.0744   20.6945 C   0  0  0  0  0  0
  -28.6815  -18.7050   19.7680 C   0  0  0  0  0  0
  -30.9824  -17.7037   21.0472 C   0  0  0  0  0  0
  -28.7535  -17.3462   20.1450 C   0  0  0  0  0  0
  -29.7553  -19.5840   20.0335 C   0  0  0  0  0  0
  -29.9120  -16.8234   20.7624 C   0  0  0  0  0  0
  -29.7040  -20.9800   19.5541 C   0  0  0  0  0  0
  -28.9193  -24.3150   20.2605 C   0  0  0  0  0  0
  -31.8102  -25.4521   20.2189 C   0  0  0  0  0  0
  -31.4122  -23.9637   22.1898 C   0  0  0  0  0  0
  -32.7010  -23.1411   20.1983 C   0  0  0  0  0  0
  -28.6446  -25.5323   19.3464 C   0  0  0  0  0  0
  -30.1914  -23.4566   19.9669 C   0  0  1  0  0  0
  -31.4982  -24.0013   20.6468 C   0  0  0  0  0  0
  -29.9278  -15.4490   21.1397 N   0  0  0  0  0  0
  -29.9976  -22.0270   20.3474 N   0  0  0  0  0  0
  -29.3927  -21.2024   18.2769 N   0  3  0  0  0  0
  -28.1358  -24.0363   21.1738 O   0  0  0  0  0  0
  -31.4758  -12.4280   19.1171 H   0  0  0  0  0  0
  -30.3461  -11.2967   19.8075 H   0  0  0  0  0  0
  -29.7407  -11.7942   17.4217 H   0  0  0  0  0  0
  -29.6629  -13.5014   17.7746 H   0  0  0  0  0  0
  -27.8292  -11.3102   18.8064 H   0  0  0  0  0  0
  -27.3687  -12.6459   17.7860 H   0  0  0  0  0  0
  -27.7104  -14.2485   19.5854 H   0  0  0  0  0  0
  -28.6841  -11.9214   21.3159 H   0  0  0  0  0  0
  -28.4594  -13.5402   21.8884 H   0  0  0  0  0  0
  -25.2750   -9.5676   22.4756 H   0  0  0  0  0  0
  -23.9994   -7.4623   22.7471 H   0  0  0  0  0  0
  -21.0827   -8.8763   19.8956 H   0  0  0  0  0  0
  -22.3682  -10.9661   19.6163 H   0  0  0  0  0  0
  -21.1999   -7.6143   23.9711 H   0  0  0  0  0  0
  -21.1484   -6.0520   25.9077 H   0  0  0  0  0  0
  -22.0600   -2.7605   23.2846 H   0  0  0  0  0  0
  -22.4093  -11.9883   22.4790 H   0  0  0  0  0  0
  -21.1120  -13.1274   22.2614 H   0  0  0  0  0  0
  -24.6469  -15.8271   20.4839 H   0  0  0  0  0  0
  -26.2482  -15.6079   19.9967 H   0  0  0  0  0  0
  -26.7119  -32.5521   23.1146 H   0  0  0  0  0  0
  -25.0066  -33.9765   25.0478 H   0  0  0  0  0  0
  -22.6927  -31.3076   21.4111 H   0  0  0  0  0  0
  -23.3749  -35.9647   23.3300 H   0  0  0  0  0  0
  -24.3586  -36.8923   22.2054 H   0  0  0  0  0  0
  -23.7239  -37.6519   23.6649 H   0  0  0  0  0  0
  -26.0468  -31.5932   20.5941 H   0  0  0  0  0  0
  -26.8207  -30.8813   21.9815 H   0  0  0  0  0  0
  -28.0971  -29.0964   21.1549 H   0  0  0  0  0  0
  -26.0016  -25.9499   19.0448 H   0  0  0  0  0  0
  -23.9702  -27.2828   19.0577 H   0  0  0  0  0  0
  -23.7216  -30.5962   19.4046 H   0  0  0  0  0  0
  -22.7349  -29.2425   19.8695 H   0  0  0  0  0  0
  -25.1283  -36.1972   25.0833 H   0  0  0  0  0  0
  -20.9951  -28.3223   24.1446 H   0  0  0  0  0  0
  -20.5670  -26.2263   23.3599 H   0  0  0  0  0  0
  -21.6630  -26.7450   22.1213 H   0  0  0  0  0  0
  -19.6904  -25.6302   21.1236 H   0  0  0  0  0  0
  -19.6692  -27.3204   20.6750 H   0  0  0  0  0  0
  -17.4193  -26.6681   21.4017 H   0  0  0  0  0  0
  -18.0318  -26.0067   22.9014 H   0  0  0  0  0  0
  -19.7921  -30.7256   24.2295 H   0  0  0  0  0  0
  -17.5004  -31.6271   24.5159 H   0  0  0  0  0  0
  -15.5340  -30.2996   23.7644 H   0  0  0  0  0  0
  -15.8654  -28.0834   22.7052 H   0  0  0  0  0  0
  -24.5911  -30.7054   25.7810 H   0  0  0  0  0  0
  -24.8943  -32.2855   26.4934 H   0  0  0  0  0  0
  -25.8102  -30.8857   27.0217 H   0  0  0  0  0  0
  -26.2834  -29.6796   24.1157 H   0  0  0  0  0  0
  -27.4077  -29.7267   25.4546 H   0  0  0  0  0  0
  -27.8669  -30.4343   23.9229 H   0  0  0  0  0  0
  -27.2690  -33.3598   26.2078 H   0  0  0  0  0  0
  -28.3855  -32.6870   25.0289 H   0  0  0  0  0  0
  -28.0744  -31.8408   26.5364 H   0  0  0  0  0  0
  -28.2604  -38.0105   24.7513 H   0  0  0  0  0  0
  -28.1074  -36.2635   24.6284 H   0  0  0  0  0  0
  -27.2305  -37.1459   25.8870 H   0  0  0  0  0  0
  -20.9294  -29.8744   21.6951 H   0  0  0  0  0  0
  -26.0184  -38.2872   24.1404 H   0  0  0  0  0  0
  -31.7390  -19.7242   20.9021 H   0  0  0  0  0  0
  -27.7929  -19.0688   19.2693 H   0  0  0  0  0  0
  -31.8709  -17.3324   21.5391 H   0  0  0  0  0  0
  -27.9128  -16.7042   19.9328 H   0  0  0  0  0  0
  -32.7800  -25.7769   20.5984 H   0  0  0  0  0  0
  -31.0796  -26.1651   20.6011 H   0  0  0  0  0  0
  -31.8433  -25.5524   19.1334 H   0  0  0  0  0  0
  -32.3316  -24.3364   22.6437 H   0  0  0  0  0  0
  -31.2616  -22.9537   22.5713 H   0  0  0  0  0  0
  -30.5992  -24.5828   22.5708 H   0  0  0  0  0  0
  -33.6396  -23.5241   20.6007 H   0  0  0  0  0  0
  -32.7963  -23.1257   19.1120 H   0  0  0  0  0  0
  -32.6198  -22.1069   20.5331 H   0  0  0  0  0  0
  -27.8367  -25.2943   18.6604 H   0  0  0  0  0  0
  -29.5154  -25.6923   18.7119 H   0  0  0  0  0  0
  -30.3587  -23.4942   18.8896 H   0  0  0  0  0  0
  -29.0519  -15.0948   21.4909 H   0  0  0  0  0  0
  -30.0136  -21.8280   21.3379 H   0  0  0  0  0  0
  -29.2363  -20.4115   17.6709 H   0  0  0  0  0  0
  -29.3950  -22.1241   17.8789 H   0  0  0  0  0  0
  1 25  1  0  0  0
  1 30  2  0  0  0
  1 85  1  0  0  0
  2  3  1  0  0  0
  2 25  1  0  0  0
  2 89  1  0  0  0
  2 90  1  0  0  0
  3  4  1  0  0  0
  3 91  1  0  0  0
  3 92  1  0  0  0
  4  5  1  0  0  0
  4 93  1  0  0  0
  4 94  1  0  0  0
  5  6  1  0  0  0
  5 26  1  0  0  0
  5 95  1  0  0  0
  6 25  1  0  0  0
  6 96  1  0  0  0
  6 97  1  0  0  0
  7  8  2  0  0  0
  7 26  1  0  0  0
  7 29  1  0  0  0
  8  9  1  0  0  0
  8 22  1  0  0  0
  9 10  1  0  0  0
  9 27  2  0  0  0
 10 11  2  0  0  0
 10 15  1  0  0  0
 11 12  1  0  0  0
 11 98  1  0  0  0
 12 13  2  0  0  0
 12 99  1  0  0  0
 13 14  1  0  0  0
 13 31  1  0  0  0
 14 15  2  0  0  0
 14100  1  0  0  0
 15101  1  0  0  0
 16 17  2  0  0  0
 16 21  1  0  0  0
 16 31  1  0  0  0
 17 18  1  0  0  0
 17102  1  0  0  0
 18 19  2  0  0  0
 18103  1  0  0  0
 19 20  1  0  0  0
 19 24  1  0  0  0
 20 21  2  0  0  0
 20104  1  0  0  0
 21 23  1  0  0  0
 22 28  1  0  0  0
 22 32  2  0  0  0
 26 27  1  0  0  0
 28105  1  0  0  0
 28106  1  0  0  0
 29107  1  0  0  0
 29108  1  0  0  0
 33 34  1  0  0  0
 33 66  1  0  0  0
 33 70  2  0  0  0
 34 36  1  0  0  0
 34 59  1  0  0  0
 34109  1  0  0  0
 35 44  2  0  0  0
 35 45  1  0  0  0
 35 68  1  0  0  0
 36 56  1  0  0  0
 36110  1  0  0  0
 37 39  1  0  0  0
 37 47  1  0  0  0
 37 66  1  0  0  0
 37111  1  0  0  0
 38 43  2  0  0  0
 38 46  1  0  0  0
 38 47  1  0  0  0
 39 64  1  0  0  0
 39 67  2  0  0  0
 40 52  1  0  0  0
 40 53  2  0  0  0
 40 58  1  0  0  0
 41112  1  0  0  0
 41113  1  0  0  0
 41114  1  0  0  0
 41 48  1  0  0  0
 42 43  1  0  0  0
 42 66  1  0  0  0
 42115  1  0  0  0
 42116  1  0  0  0
 43 44  1  0  0  0
 44117  1  0  0  0
 45 46  2  0  0  0
 45118  1  0  0  0
 46119  1  0  0  0
 47120  1  0  0  0
 47121  1  0  0  0
 48 56  1  0  0  0
 48 65  1  0  0  0
 48122  1  0  0  0
 49 50  1  0  0  0
 49 53  1  0  0  0
 49 64  1  0  0  0
 49123  1  0  0  0
 50 51  1  0  0  0
 50124  1  0  0  0
 50125  1  0  0  0
 51 52  1  0  0  0
 51126  1  0  0  0
 51127  1  0  0  0
 52128  1  0  0  0
 52129  1  0  0  0
 53 54  1  0  0  0
 54 55  2  0  0  0
 54130  1  0  0  0
 55 57  1  0  0  0
 55131  1  0  0  0
 56 69  2  0  0  0
 57 58  2  0  0  0
 57132  1  0  0  0
 58133  1  0  0  0
 59 60  1  0  0  0
 59 61  1  0  0  0
 59 62  1  0  0  0
 60134  1  0  0  0
 60135  1  0  0  0
 60136  1  0  0  0
 61137  1  0  0  0
 61138  1  0  0  0
 61139  1  0  0  0
 62140  1  0  0  0
 62141  1  0  0  0
 62142  1  0  0  0
 63 65  1  0  0  0
 63143  1  0  0  0
 63144  1  0  0  0
 63145  1  0  0  0
 64146  1  0  0  0
 65147  1  0  0  0
 68 82  1  0  0  0
 71 73  2  0  0  0
 71 75  1  0  0  0
 71148  1  0  0  0
 72 74  1  0  0  0
 72 75  2  0  0  0
 72149  1  0  0  0
 73 76  1  0  0  0
 73150  1  0  0  0
 74 76  2  0  0  0
 74151  1  0  0  0
 75 77  1  0  0  0
 76 85  1  0  0  0
 77 86  1  0  0  0
 77 87  2  0  0  0
 78 82  1  0  0  0
 78 83  1  0  0  0
 78 88  2  0  0  0
 79152  1  0  0  0
 79153  1  0  0  0
 79154  1  0  0  0
 79 84  1  0  0  0
 80 84  1  0  0  0
 80155  1  0  0  0
 80156  1  0  0  0
 80157  1  0  0  0
 81 84  1  0  0  0
 81158  1  0  0  0
 81159  1  0  0  0
 81160  1  0  0  0
 82161  1  0  0  0
 82162  1  0  0  0
 83 84  1  0  0  0
 83 86  1  0  0  0
 83163  1  0  0  0
 85164  1  0  0  0
 86165  1  0  0  0
 87166  1  0  0  0
 87167  1  0  0  0
M  CHG  1  87   1
M  ISO  4   1 100  68 101  82 101  85 100
M  END
> <chiral flag>
0

> <version>
0

> <s_m_source_file>
/data/baiqing/PycharmProjects/Reinvent-master-3.2/result/LINK_invent/BTK/process_docking_weight1_custom_product_contain_oxygen_bond_distance_aromatic_linkinvent_7_9_3/rearranged_h_0074.sdf

> <i_m_source_file_index>
46

> <r_mmod_Potential_Energy-OPLS-2005>
-266.367614746094

> <r_mmod_Stretch_Energy-OPLS-2005>
43.1916885375977

> <r_mmod_Bend_Energy-OPLS-2005>
113.373825073242

> <r_mmod_Torsional_Energy-OPLS-2005>
242.335510253906

> <r_mmod_Improper_Torsional_Energy-OPLS-2005>
6.17432880401611

> <r_mmod_Van_der_Waal_Energy-OPLS-2005>
151.375915527344

> <r_mmod_Electrostatic_Energy-OPLS-2005>
-396.313293457031

> <r_mmod_Solvation_Energy-OPLS-2005>
-440.047210693359

> <b_mmod_Minimization_Converged-OPLS-2005>
0

> <r_mmod_RMS_Derivative-OPLS-2005>
0.581770718097687

$$$$
47
                    3D
 Structure written by MMmdl.
162171  0  0  1  0            999 V2000
  -30.7071  -14.4848   20.5937 C   0  0  0  0  0  0
  -30.4180  -12.3185   19.4369 C   0  0  0  0  0  0
  -29.5009  -12.5322   18.2144 C   0  0  0  0  0  0
  -28.0159  -12.3967   18.6066 C   0  0  0  0  0  0
  -27.6611  -13.2141   19.8797 C   0  0  2  0  0  0
  -28.6956  -12.9708   20.9980 C   0  0  0  0  0  0
  -25.2573  -13.8184   20.5652 C   0  0  0  0  0  0
  -24.1819  -13.0443   20.9141 C   0  0  0  0  0  0
  -24.6398  -11.6922   20.8710 C   0  0  0  0  0  0
  -23.9063  -10.4309   21.0367 C   0  0  0  0  0  0
  -24.3632   -9.4233   21.9147 C   0  0  0  0  0  0
  -23.6310   -8.2262   22.0741 C   0  0  0  0  0  0
  -22.4287   -8.0287   21.3536 C   0  0  0  0  0  0
  -21.9916   -9.0258   20.4631 C   0  0  0  0  0  0
  -22.7238  -10.2142   20.3026 C   0  0  0  0  0  0
  -21.6882   -6.0741   22.5281 C   0  0  0  0  0  0
  -21.4020   -6.5637   23.8213 C   0  0  0  0  0  0
  -21.3665   -5.6786   24.9167 C   0  0  0  0  0  0
  -21.6048   -4.3050   24.7231 C   0  0  0  0  0  0
  -21.8822   -3.8155   23.4348 C   0  0  0  0  0  0
  -21.9200   -4.6967   22.3401 C   0  0  0  0  0  0
  -22.7845  -13.5237   21.1808 C   0  0  0  0  0  0
  -22.1662   -4.2143   21.0984 F   0  0  0  0  0  0
  -21.5629   -3.4533   25.7753 F   0  0  0  0  0  0
  -30.0285  -13.3022   20.4665 N   0  0  0  0  0  0
  -26.3009  -12.9357   20.3358 N   0  0  0  0  0  0
  -25.9316  -11.6503   20.5724 N   0  0  0  0  0  0
  -22.0494  -12.8223   22.0373 N   0  0  0  0  0  0
  -25.4321  -15.1908   20.4106 N   0  0  0  0  0  0
  -31.8108  -14.6395   20.0606 O   0  0  0  0  0  0
  -21.6661   -6.8881   21.4244 O   0  0  0  0  0  0
  -22.3512  -14.5535   20.6664 O   0  0  0  0  0  0
  -24.6190  -31.8635   23.2086 C   0  0  0  0  0  0
  -25.9064  -32.4807   23.8394 C   0  0  1  0  0  0
  -27.2206  -27.3818   20.1226 C   0  0  0  0  0  0
  -25.5892  -33.8594   24.2316 N   0  0  0  0  0  0
  -23.4106  -30.4878   21.5494 C   0  0  2  0  0  0
  -24.8628  -28.9589   20.1059 C   0  0  0  0  0  0
  -22.7440  -29.4618   22.4953 C   0  0  0  0  0  0
  -18.0284  -28.1362   22.8534 C   0  0  0  0  0  0
  -24.1478  -36.7295   23.2632 C   0  0  0  0  0  0
  -25.9463  -30.8135   21.3758 C   0  0  0  0  0  0
  -26.0226  -29.4462   20.7222 C   0  0  0  0  0  0
  -27.2064  -28.6635   20.7331 C   0  0  0  0  0  0
  -26.0543  -26.9445   19.4569 C   0  0  0  0  0  0
  -24.8773  -27.7114   19.4634 C   0  0  0  0  0  0
  -23.6241  -29.8235   20.1626 C   0  0  0  0  0  0
  -25.4101  -36.3089   24.0327 C   0  0  1  0  0  0
  -20.5888  -28.3642   23.1337 C   0  0  2  0  0  0
  -20.6785  -26.9374   22.5428 C   0  0  0  0  0  0
  -19.5742  -26.6380   21.5246 C   0  0  0  0  0  0
  -18.1919  -26.7921   22.1651 C   0  0  0  0  0  0
  -19.1537  -28.8826   23.2937 C   0  0  0  0  0  0
  -18.9442  -30.1440   23.8933 C   0  0  0  0  0  0
  -17.6432  -30.6581   24.0559 C   0  0  0  0  0  0
  -25.9028  -34.9461   23.5115 C   0  0  0  0  0  0
  -16.5330  -29.9063   23.6335 C   0  0  0  0  0  0
  -16.7264  -28.6477   23.0383 C   0  0  0  0  0  0
  -26.4489  -31.6592   25.0730 C   0  0  0  0  0  0
  -25.3745  -31.3681   26.1463 C   0  0  0  0  0  0
  -27.0317  -30.3031   24.6133 C   0  0  0  0  0  0
  -27.6058  -32.4313   25.7493 C   0  0  0  0  0  0
  -27.5583  -37.1794   24.8452 C   0  0  0  0  0  0
  -21.4163  -29.3000   22.3726 N   0  0  0  0  0  0
  -26.4283  -37.3788   23.9414 N   0  0  0  0  0  0
  -24.6766  -31.0708   22.1018 N   0  0  0  0  0  0
  -23.4200  -28.8138   23.2990 O   0  0  0  0  0  0
  -28.3324  -26.5540   20.1734 O   0  0  0  0  0  0
  -26.5590  -34.8917   22.4682 O   0  0  0  0  0  0
  -23.5374  -32.1386   23.7462 O   0  0  0  0  0  0
  -29.0596  -20.5605   23.0020 C   0  0  0  0  0  0
  -29.0700  -19.3590   23.7317 C   0  0  0  0  0  0
  -29.9429  -19.3658   21.0705 C   0  0  0  0  0  0
  -29.9466  -18.1303   21.7888 C   0  0  0  0  0  0
  -29.4981  -20.5846   21.6638 C   0  0  0  0  0  0
  -29.5082  -18.1552   23.1453 C   0  0  0  0  0  0
  -28.5198  -22.6470   20.6402 C   0  0  0  0  0  0
  -30.4176  -16.8802   21.1028 C   0  0  0  0  0  0
  -30.0473  -15.5856   21.3160 C   0  0  0  0  0  0
  -30.4182  -24.0542   20.7081 C   0  0  0  0  0  0
  -30.8157  -22.5707   20.8251 C   0  0  0  0  0  0
  -28.9802  -24.0534   20.1587 C   0  0  1  0  0  0
  -28.9890  -24.0989   18.6155 C   0  0  0  0  0  0
  -28.0788  -25.2169   20.7075 C   0  0  0  0  0  0
  -29.5617  -21.8531   20.9877 N   0  0  0  0  0  0
  -29.5595  -17.0310   23.9694 N   0  0  0  0  0  0
  -27.3318  -22.3129   20.6803 O   0  0  0  0  0  0
  -31.4630  -12.4091   19.1372 H   0  0  0  0  0  0
  -30.3147  -11.3023   19.8197 H   0  0  0  0  0  0
  -29.7457  -11.8220   17.4243 H   0  0  0  0  0  0
  -29.6821  -13.5238   17.7961 H   0  0  0  0  0  0
  -27.8043  -11.3392   18.7629 H   0  0  0  0  0  0
  -27.3846  -12.7083   17.7751 H   0  0  0  0  0  0
  -27.7126  -14.2690   19.6107 H   0  0  0  0  0  0
  -28.6698  -11.9191   21.2941 H   0  0  0  0  0  0
  -28.4259  -13.5118   21.9028 H   0  0  0  0  0  0
  -25.2789   -9.5712   22.4696 H   0  0  0  0  0  0
  -24.0035   -7.4673   22.7464 H   0  0  0  0  0  0
  -21.0853   -8.8772   19.8942 H   0  0  0  0  0  0
  -22.3698  -10.9665   19.6129 H   0  0  0  0  0  0
  -21.2004   -7.6153   23.9713 H   0  0  0  0  0  0
  -21.1476   -6.0516   25.9066 H   0  0  0  0  0  0
  -22.0596   -2.7613   23.2866 H   0  0  0  0  0  0
  -22.4160  -11.9926   22.4808 H   0  0  0  0  0  0
  -21.1090  -13.1196   22.2524 H   0  0  0  0  0  0
  -24.6796  -15.8580   20.5370 H   0  0  0  0  0  0
  -26.3057  -15.6280   20.1442 H   0  0  0  0  0  0
  -26.7114  -32.5519   23.1137 H   0  0  0  0  0  0
  -25.0056  -33.9740   25.0473 H   0  0  0  0  0  0
  -22.7021  -31.3073   21.4097 H   0  0  0  0  0  0
  -23.3761  -35.9605   23.3259 H   0  0  0  0  0  0
  -24.3584  -36.8957   22.2056 H   0  0  0  0  0  0
  -23.7204  -37.6476   23.6675 H   0  0  0  0  0  0
  -26.0690  -31.5782   20.6073 H   0  0  0  0  0  0
  -26.8295  -30.8647   22.0008 H   0  0  0  0  0  0
  -28.0923  -29.0169   21.2431 H   0  0  0  0  0  0
  -26.0478  -25.9969   18.9361 H   0  0  0  0  0  0
  -23.9929  -27.3424   18.9626 H   0  0  0  0  0  0
  -23.7195  -30.5973   19.4000 H   0  0  0  0  0  0
  -22.7541  -29.2325   19.8725 H   0  0  0  0  0  0
  -25.1283  -36.1947   25.0822 H   0  0  0  0  0  0
  -20.9992  -28.3193   24.1454 H   0  0  0  0  0  0
  -20.5759  -26.2207   23.3593 H   0  0  0  0  0  0
  -21.6635  -26.7446   22.1160 H   0  0  0  0  0  0
  -19.6883  -25.6303   21.1244 H   0  0  0  0  0  0
  -19.6694  -27.3238   20.6817 H   0  0  0  0  0  0
  -17.4204  -26.6735   21.4030 H   0  0  0  0  0  0
  -18.0266  -26.0039   22.9013 H   0  0  0  0  0  0
  -19.7891  -30.7279   24.2316 H   0  0  0  0  0  0
  -17.4953  -31.6277   24.5111 H   0  0  0  0  0  0
  -15.5323  -30.2953   23.7629 H   0  0  0  0  0  0
  -15.8677  -28.0781   22.7094 H   0  0  0  0  0  0
  -24.5912  -30.7055   25.7773 H   0  0  0  0  0  0
  -24.8948  -32.2823   26.4965 H   0  0  0  0  0  0
  -25.8081  -30.8792   27.0194 H   0  0  0  0  0  0
  -26.2859  -29.6803   24.1179 H   0  0  0  0  0  0
  -27.4062  -29.7272   25.4607 H   0  0  0  0  0  0
  -27.8712  -30.4351   23.9302 H   0  0  0  0  0  0
  -27.2679  -33.3603   26.2102 H   0  0  0  0  0  0
  -28.3850  -32.6895   25.0305 H   0  0  0  0  0  0
  -28.0743  -31.8415   26.5390 H   0  0  0  0  0  0
  -28.2560  -38.0134   24.7560 H   0  0  0  0  0  0
  -28.1114  -36.2667   24.6192 H   0  0  0  0  0  0
  -27.2293  -37.1331   25.8850 H   0  0  0  0  0  0
  -20.9309  -29.8701   21.6946 H   0  0  0  0  0  0
  -26.0162  -38.2849   24.1477 H   0  0  0  0  0  0
  -28.7491  -21.4732   23.4927 H   0  0  0  0  0  0
  -28.7632  -19.3808   24.7683 H   0  0  0  0  0  0
  -30.2941  -19.3767   20.0492 H   0  0  0  0  0  0
  -31.1846  -17.0554   20.3587 H   0  0  0  0  0  0
  -29.2725  -15.3846   22.0378 H   0  0  0  0  0  0
  -31.1199  -24.6065   20.0842 H   0  0  0  0  0  0
  -30.4392  -24.5079   21.7008 H   0  0  0  0  0  0
  -31.4967  -22.3951   21.6592 H   0  0  0  0  0  0
  -31.2979  -22.2279   19.9081 H   0  0  0  0  0  0
  -29.4903  -23.2331   18.1843 H   0  0  0  0  0  0
  -29.5135  -24.9833   18.2529 H   0  0  0  0  0  0
  -27.9784  -24.1394   18.2119 H   0  0  0  0  0  0
  -28.1721  -25.2683   21.7932 H   0  0  0  0  0  0
  -27.0432  -24.9121   20.5524 H   0  0  0  0  0  0
  -29.5172  -17.1911   24.9708 H   0  0  0  0  0  0
  -30.2559  -16.3332   23.7287 H   0  0  0  0  0  0
  1 25  1  0  0  0
  1 30  2  0  0  0
  1 79  1  0  0  0
  2  3  1  0  0  0
  2 25  1  0  0  0
  2 88  1  0  0  0
  2 89  1  0  0  0
  3  4  1  0  0  0
  3 90  1  0  0  0
  3 91  1  0  0  0
  4  5  1  0  0  0
  4 92  1  0  0  0
  4 93  1  0  0  0
  5  6  1  0  0  0
  5 26  1  0  0  0
  5 94  1  0  0  0
  6 25  1  0  0  0
  6 95  1  0  0  0
  6 96  1  0  0  0
  7  8  2  0  0  0
  7 26  1  0  0  0
  7 29  1  0  0  0
  8  9  1  0  0  0
  8 22  1  0  0  0
  9 10  1  0  0  0
  9 27  2  0  0  0
 10 11  2  0  0  0
 10 15  1  0  0  0
 11 12  1  0  0  0
 11 97  1  0  0  0
 12 13  2  0  0  0
 12 98  1  0  0  0
 13 14  1  0  0  0
 13 31  1  0  0  0
 14 15  2  0  0  0
 14 99  1  0  0  0
 15100  1  0  0  0
 16 17  2  0  0  0
 16 21  1  0  0  0
 16 31  1  0  0  0
 17 18  1  0  0  0
 17101  1  0  0  0
 18 19  2  0  0  0
 18102  1  0  0  0
 19 20  1  0  0  0
 19 24  1  0  0  0
 20 21  2  0  0  0
 20103  1  0  0  0
 21 23  1  0  0  0
 22 28  1  0  0  0
 22 32  2  0  0  0
 26 27  1  0  0  0
 28104  1  0  0  0
 28105  1  0  0  0
 29106  1  0  0  0
 29107  1  0  0  0
 33 34  1  0  0  0
 33 66  1  0  0  0
 33 70  2  0  0  0
 34 36  1  0  0  0
 34 59  1  0  0  0
 34108  1  0  0  0
 35 44  2  0  0  0
 35 45  1  0  0  0
 35 68  1  0  0  0
 36 56  1  0  0  0
 36109  1  0  0  0
 37 39  1  0  0  0
 37 47  1  0  0  0
 37 66  1  0  0  0
 37110  1  0  0  0
 38 43  2  0  0  0
 38 46  1  0  0  0
 38 47  1  0  0  0
 39 64  1  0  0  0
 39 67  2  0  0  0
 40 52  1  0  0  0
 40 53  2  0  0  0
 40 58  1  0  0  0
 41111  1  0  0  0
 41112  1  0  0  0
 41113  1  0  0  0
 41 48  1  0  0  0
 42 43  1  0  0  0
 42 66  1  0  0  0
 42114  1  0  0  0
 42115  1  0  0  0
 43 44  1  0  0  0
 44116  1  0  0  0
 45 46  2  0  0  0
 45117  1  0  0  0
 46118  1  0  0  0
 47119  1  0  0  0
 47120  1  0  0  0
 48 56  1  0  0  0
 48 65  1  0  0  0
 48121  1  0  0  0
 49 50  1  0  0  0
 49 53  1  0  0  0
 49 64  1  0  0  0
 49122  1  0  0  0
 50 51  1  0  0  0
 50123  1  0  0  0
 50124  1  0  0  0
 51 52  1  0  0  0
 51125  1  0  0  0
 51126  1  0  0  0
 52127  1  0  0  0
 52128  1  0  0  0
 53 54  1  0  0  0
 54 55  2  0  0  0
 54129  1  0  0  0
 55 57  1  0  0  0
 55130  1  0  0  0
 56 69  2  0  0  0
 57 58  2  0  0  0
 57131  1  0  0  0
 58132  1  0  0  0
 59 60  1  0  0  0
 59 61  1  0  0  0
 59 62  1  0  0  0
 60133  1  0  0  0
 60134  1  0  0  0
 60135  1  0  0  0
 61136  1  0  0  0
 61137  1  0  0  0
 61138  1  0  0  0
 62139  1  0  0  0
 62140  1  0  0  0
 62141  1  0  0  0
 63 65  1  0  0  0
 63142  1  0  0  0
 63143  1  0  0  0
 63144  1  0  0  0
 64145  1  0  0  0
 65146  1  0  0  0
 68 84  1  0  0  0
 71 72  2  0  0  0
 71 75  1  0  0  0
 71147  1  0  0  0
 72 76  1  0  0  0
 72148  1  0  0  0
 73 74  1  0  0  0
 73 75  2  0  0  0
 73149  1  0  0  0
 74 76  2  0  0  0
 74 78  1  0  0  0
 75 85  1  0  0  0
 76 86  1  0  0  0
 77 82  1  0  0  0
 77 85  1  0  0  0
 77 87  2  0  0  0
 78 79  2  0  0  0
 78150  1  0  0  0
 79151  1  0  0  0
 80 81  1  0  0  0
 80 82  1  0  0  0
 80152  1  0  0  0
 80153  1  0  0  0
 81 85  1  0  0  0
 81154  1  0  0  0
 81155  1  0  0  0
 82 83  1  0  0  0
 82 84  1  0  0  0
 83156  1  0  0  0
 83157  1  0  0  0
 83158  1  0  0  0
 84159  1  0  0  0
 84160  1  0  0  0
 86161  1  0  0  0
 86162  1  0  0  0
M  ISO  4   1 100  68 101  79 100  84 101
M  END
> <chiral flag>
0

> <version>
0

> <s_m_source_file>
/data/baiqing/PycharmProjects/Reinvent-master-3.2/result/LINK_invent/BTK/process_docking_weight1_custom_product_contain_oxygen_bond_distance_aromatic_linkinvent_7_9_3/rearranged_h_0074.sdf

> <i_m_source_file_index>
47

> <r_mmod_Potential_Energy-OPLS-2005>
115.917335510254

> <r_mmod_Stretch_Energy-OPLS-2005>
52.8704223632812

> <r_mmod_Bend_Energy-OPLS-2005>
134.679580688477

> <r_mmod_Torsional_Energy-OPLS-2005>
295.207336425781

> <r_mmod_Improper_Torsional_Energy-OPLS-2005>
7.14211893081665

> <r_mmod_Van_der_Waal_Energy-OPLS-2005>
155.84147644043

> <r_mmod_Electrostatic_Energy-OPLS-2005>
-342.451873779297

> <r_mmod_Solvation_Energy-OPLS-2005>
-208.276916503906

> <b_mmod_Minimization_Converged-OPLS-2005>
0

> <r_mmod_RMS_Derivative-OPLS-2005>
3.47774934768677

$$$$
48
                    3D
 Structure written by MMmdl.
158167  0  0  1  0            999 V2000
  -30.5602  -14.7835   20.4582 C   0  0  0  0  0  0
  -30.4345  -12.4739   19.4612 C   0  0  0  0  0  0
  -29.4998  -12.4715   18.2261 C   0  0  0  0  0  0
  -28.0407  -12.2423   18.6761 C   0  0  0  0  0  0
  -27.6394  -13.1962   19.8282 C   0  0  2  0  0  0
  -28.6794  -13.1787   20.9643 C   0  0  0  0  0  0
  -25.2654  -13.8053   20.5726 C   0  0  0  0  0  0
  -24.1873  -13.0405   20.9138 C   0  0  0  0  0  0
  -24.6428  -11.6870   20.8800 C   0  0  0  0  0  0
  -23.9136  -10.4295   21.0520 C   0  0  0  0  0  0
  -24.3669   -9.4164   21.9284 C   0  0  0  0  0  0
  -23.6269   -8.2275   22.0898 C   0  0  0  0  0  0
  -22.4274   -8.0353   21.3635 C   0  0  0  0  0  0
  -21.9905   -9.0389   20.4784 C   0  0  0  0  0  0
  -22.7323  -10.2193   20.3143 C   0  0  0  0  0  0
  -21.6791   -6.0766   22.5288 C   0  0  0  0  0  0
  -21.4001   -6.5694   23.8232 C   0  0  0  0  0  0
  -21.3628   -5.6852   24.9183 C   0  0  0  0  0  0
  -21.5982   -4.3134   24.7248 C   0  0  0  0  0  0
  -21.8783   -3.8186   23.4383 C   0  0  0  0  0  0
  -21.9167   -4.7004   22.3421 C   0  0  0  0  0  0
  -22.7939  -13.5357   21.1733 C   0  0  0  0  0  0
  -22.1587   -4.2147   21.1014 F   0  0  0  0  0  0
  -21.5613   -3.4637   25.7777 F   0  0  0  0  0  0
  -29.9694  -13.5435   20.3713 N   0  0  0  0  0  0
  -26.2983  -12.9175   20.3200 N   0  0  0  0  0  0
  -25.9330  -11.6375   20.5771 N   0  0  0  0  0  0
  -22.0543  -12.8474   22.0301 N   0  0  0  0  0  0
  -25.4565  -15.1796   20.4516 N   0  0  0  0  0  0
  -31.7653  -14.9052   20.2183 O   0  0  0  0  0  0
  -21.6629   -6.8958   21.4284 O   0  0  0  0  0  0
  -22.3712  -14.5694   20.6615 O   0  0  0  0  0  0
  -24.6365  -31.8594   23.2025 C   0  0  0  0  0  0
  -25.9136  -32.4777   23.8456 C   0  0  1  0  0  0
  -27.1706  -27.2282   20.0956 C   0  0  0  0  0  0
  -25.5935  -33.8583   24.2343 N   0  0  0  0  0  0
  -23.4295  -30.4927   21.5474 C   0  0  2  0  0  0
  -24.8681  -28.9509   20.0992 C   0  0  0  0  0  0
  -22.7534  -29.4627   22.4881 C   0  0  0  0  0  0
  -18.0301  -28.1346   22.8527 C   0  0  0  0  0  0
  -24.1475  -36.7261   23.2649 C   0  0  0  0  0  0
  -25.9834  -30.7595   21.3948 C   0  0  0  0  0  0
  -26.0466  -29.3814   20.7228 C   0  0  0  0  0  0
  -27.2051  -28.5298   20.7151 C   0  0  0  0  0  0
  -25.9848  -26.8948   19.4162 C   0  0  0  0  0  0
  -24.8476  -27.7158   19.4365 C   0  0  0  0  0  0
  -23.6454  -29.8463   20.1593 C   0  0  0  0  0  0
  -25.4095  -36.3091   24.0354 C   0  0  1  0  0  0
  -20.5946  -28.3584   23.1342 C   0  0  2  0  0  0
  -20.6736  -26.9288   22.5496 C   0  0  0  0  0  0
  -19.5739  -26.6559   21.5229 C   0  0  0  0  0  0
  -18.1915  -26.7943   22.1576 C   0  0  0  0  0  0
  -19.1566  -28.8743   23.2936 C   0  0  0  0  0  0
  -18.9483  -30.1398   23.8929 C   0  0  0  0  0  0
  -17.6449  -30.6471   24.0627 C   0  0  0  0  0  0
  -25.9011  -34.9439   23.5158 C   0  0  0  0  0  0
  -16.5326  -29.9009   23.6384 C   0  0  0  0  0  0
  -16.7301  -28.6455   23.0335 C   0  0  0  0  0  0
  -26.4448  -31.6620   25.0859 C   0  0  0  0  0  0
  -25.3626  -31.3865   26.1567 C   0  0  0  0  0  0
  -27.0269  -30.3043   24.6355 C   0  0  0  0  0  0
  -27.6004  -32.4411   25.7579 C   0  0  0  0  0  0
  -27.5584  -37.1820   24.8465 C   0  0  0  0  0  0
  -21.4205  -29.2933   22.3677 N   0  0  0  0  0  0
  -26.4281  -37.3805   23.9418 N   0  0  0  0  0  0
  -24.7045  -31.0546   22.1028 N   0  0  0  0  0  0
  -23.4255  -28.8227   23.2981 O   0  0  0  0  0  0
  -28.1940  -26.2480   20.1059 O   0  0  0  0  0  0
  -26.5574  -34.8907   22.4724 O   0  0  0  0  0  0
  -23.5488  -32.1456   23.7165 O   0  0  0  0  0  0
  -30.0680  -19.9049   22.1744 C   0  0  0  0  0  0
  -30.4778  -17.4752   22.2407 C   0  0  0  0  0  0
  -29.3233  -18.5048   20.3341 C   0  0  0  0  0  0
  -30.5781  -18.7525   22.8347 C   0  0  0  0  0  0
  -29.4201  -19.8541   20.9060 C   0  0  0  0  0  0
  -29.8708  -17.2974   20.9722 C   0  0  0  0  0  0
  -28.9179  -22.4690   20.8193 C   0  0  0  0  0  0
  -28.3243  -23.4483   20.0557 C   0  0  0  0  0  0
  -27.8801  -22.6955   18.8831 C   0  0  0  0  0  0
  -27.2751  -23.2097   17.7903 C   0  0  0  0  0  0
  -28.2120  -21.1968   19.0404 C   0  0  0  0  0  0
  -31.2147  -18.8875   24.2252 C   0  0  0  0  0  0
  -27.7839  -24.8696   20.5870 C   0  0  0  0  0  0
  -28.9388  -21.1202   20.3227 N   0  0  0  0  0  0
  -29.7048  -15.8928   20.4906 N   0  0  0  0  0  0
  -31.4718  -12.6050   19.1487 H   0  0  0  0  0  0
  -30.3929  -11.5166   19.9817 H   0  0  0  0  0  0
  -29.8019  -11.6977   17.5170 H   0  0  0  0  0  0
  -29.5738  -13.4157   17.6815 H   0  0  0  0  0  0
  -27.9735  -11.2072   19.0248 H   0  0  0  0  0  0
  -27.3423  -12.3336   17.8391 H   0  0  0  0  0  0
  -27.6253  -14.1922   19.3818 H   0  0  0  0  0  0
  -28.7378  -12.2081   21.4604 H   0  0  0  0  0  0
  -28.3906  -13.9047   21.7274 H   0  0  0  0  0  0
  -25.2873   -9.5494   22.4797 H   0  0  0  0  0  0
  -23.9866   -7.4652   22.7656 H   0  0  0  0  0  0
  -21.0769   -8.9034   19.9144 H   0  0  0  0  0  0
  -22.3934  -10.9773   19.6200 H   0  0  0  0  0  0
  -21.2009   -7.6216   23.9678 H   0  0  0  0  0  0
  -21.1416   -6.0654   25.9068 H   0  0  0  0  0  0
  -22.0551   -2.7652   23.2923 H   0  0  0  0  0  0
  -22.4141  -12.0106   22.4580 H   0  0  0  0  0  0
  -21.1301  -13.1779   22.2660 H   0  0  0  0  0  0
  -24.7460  -15.8272   20.7765 H   0  0  0  0  0  0
  -26.3735  -15.6020   20.4125 H   0  0  0  0  0  0
  -26.7168  -32.5422   23.1193 H   0  0  0  0  0  0
  -25.0124  -33.9755   25.0507 H   0  0  0  0  0  0
  -22.7347  -31.3213   21.4148 H   0  0  0  0  0  0
  -23.3789  -35.9563   23.3301 H   0  0  0  0  0  0
  -24.3573  -36.8853   22.2072 H   0  0  0  0  0  0
  -23.7155  -37.6433   23.6648 H   0  0  0  0  0  0
  -26.1431  -31.5263   20.6316 H   0  0  0  0  0  0
  -26.8528  -30.8012   22.0412 H   0  0  0  0  0  0
  -28.1054  -28.8380   21.2213 H   0  0  0  0  0  0
  -25.9275  -25.9750   18.8521 H   0  0  0  0  0  0
  -23.9550  -27.4073   18.9117 H   0  0  0  0  0  0
  -23.7484  -30.6391   19.4174 H   0  0  0  0  0  0
  -22.7647  -29.2892   19.8446 H   0  0  0  0  0  0
  -25.1285  -36.1984   25.0859 H   0  0  0  0  0  0
  -21.0049  -28.3058   24.1426 H   0  0  0  0  0  0
  -20.5524  -26.2217   23.3740 H   0  0  0  0  0  0
  -21.6596  -26.7372   22.1189 H   0  0  0  0  0  0
  -19.7028  -25.6698   21.0797 H   0  0  0  0  0  0
  -19.6460  -27.3839   20.7161 H   0  0  0  0  0  0
  -17.4258  -26.6889   21.3877 H   0  0  0  0  0  0
  -18.0204  -26.0017   22.8888 H   0  0  0  0  0  0
  -19.8024  -30.7138   24.2206 H   0  0  0  0  0  0
  -17.4998  -31.6195   24.5188 H   0  0  0  0  0  0
  -15.5262  -30.2813   23.7651 H   0  0  0  0  0  0
  -15.8747  -28.0755   22.7002 H   0  0  0  0  0  0
  -24.5788  -30.7189   25.8001 H   0  0  0  0  0  0
  -24.8802  -32.3043   26.4939 H   0  0  0  0  0  0
  -25.7878  -30.9160   27.0414 H   0  0  0  0  0  0
  -26.2875  -29.6880   24.1237 H   0  0  0  0  0  0
  -27.3787  -29.7252   25.4892 H   0  0  0  0  0  0
  -27.8815  -30.4370   23.9721 H   0  0  0  0  0  0
  -27.2599  -33.3749   26.2087 H   0  0  0  0  0  0
  -28.3767  -32.6938   25.0341 H   0  0  0  0  0  0
  -28.0705  -31.8621   26.5530 H   0  0  0  0  0  0
  -28.2628  -38.0104   24.7525 H   0  0  0  0  0  0
  -28.1046  -36.2648   24.6245 H   0  0  0  0  0  0
  -27.2316  -37.1386   25.8873 H   0  0  0  0  0  0
  -20.9277  -29.8668   21.7000 H   0  0  0  0  0  0
  -26.0170  -38.2902   24.1407 H   0  0  0  0  0  0
  -30.1847  -20.8507   22.6851 H   0  0  0  0  0  0
  -30.8464  -16.6147   22.7944 H   0  0  0  0  0  0
  -28.8062  -18.3928   19.3860 H   0  0  0  0  0  0
  -29.2504  -22.6370   21.8337 H   0  0  0  0  0  0
  -27.0713  -24.2655   17.6668 H   0  0  0  0  0  0
  -26.9893  -22.5745   16.9577 H   0  0  0  0  0  0
  -28.8244  -20.8473   18.2098 H   0  0  0  0  0  0
  -27.2963  -20.6037   19.0385 H   0  0  0  0  0  0
  -30.5380  -19.3726   24.9321 H   0  0  0  0  0  0
  -32.1401  -19.4647   24.2115 H   0  0  0  0  0  0
  -31.4739  -17.9211   24.6559 H   0  0  0  0  0  0
  -28.0435  -24.8785   21.6463 H   0  0  0  0  0  0
  -26.6971  -24.7606   20.5970 H   0  0  0  0  0  0
  -28.7481  -15.6398   20.3070 H   0  0  0  0  0  0
  1 25  1  0  0  0
  1 30  2  0  0  0
  1 85  1  0  0  0
  2  3  1  0  0  0
  2 25  1  0  0  0
  2 86  1  0  0  0
  2 87  1  0  0  0
  3  4  1  0  0  0
  3 88  1  0  0  0
  3 89  1  0  0  0
  4  5  1  0  0  0
  4 90  1  0  0  0
  4 91  1  0  0  0
  5  6  1  0  0  0
  5 26  1  0  0  0
  5 92  1  0  0  0
  6 25  1  0  0  0
  6 93  1  0  0  0
  6 94  1  0  0  0
  7  8  2  0  0  0
  7 26  1  0  0  0
  7 29  1  0  0  0
  8  9  1  0  0  0
  8 22  1  0  0  0
  9 10  1  0  0  0
  9 27  2  0  0  0
 10 11  2  0  0  0
 10 15  1  0  0  0
 11 12  1  0  0  0
 11 95  1  0  0  0
 12 13  2  0  0  0
 12 96  1  0  0  0
 13 14  1  0  0  0
 13 31  1  0  0  0
 14 15  2  0  0  0
 14 97  1  0  0  0
 15 98  1  0  0  0
 16 17  2  0  0  0
 16 21  1  0  0  0
 16 31  1  0  0  0
 17 18  1  0  0  0
 17 99  1  0  0  0
 18 19  2  0  0  0
 18100  1  0  0  0
 19 20  1  0  0  0
 19 24  1  0  0  0
 20 21  2  0  0  0
 20101  1  0  0  0
 21 23  1  0  0  0
 22 28  1  0  0  0
 22 32  2  0  0  0
 26 27  1  0  0  0
 28102  1  0  0  0
 28103  1  0  0  0
 29104  1  0  0  0
 29105  1  0  0  0
 33 34  1  0  0  0
 33 66  1  0  0  0
 33 70  2  0  0  0
 34 36  1  0  0  0
 34 59  1  0  0  0
 34106  1  0  0  0
 35 44  2  0  0  0
 35 45  1  0  0  0
 35 68  1  0  0  0
 36 56  1  0  0  0
 36107  1  0  0  0
 37 39  1  0  0  0
 37 47  1  0  0  0
 37 66  1  0  0  0
 37108  1  0  0  0
 38 43  2  0  0  0
 38 46  1  0  0  0
 38 47  1  0  0  0
 39 64  1  0  0  0
 39 67  2  0  0  0
 40 52  1  0  0  0
 40 53  2  0  0  0
 40 58  1  0  0  0
 41109  1  0  0  0
 41110  1  0  0  0
 41111  1  0  0  0
 41 48  1  0  0  0
 42 43  1  0  0  0
 42 66  1  0  0  0
 42112  1  0  0  0
 42113  1  0  0  0
 43 44  1  0  0  0
 44114  1  0  0  0
 45 46  2  0  0  0
 45115  1  0  0  0
 46116  1  0  0  0
 47117  1  0  0  0
 47118  1  0  0  0
 48 56  1  0  0  0
 48 65  1  0  0  0
 48119  1  0  0  0
 49 50  1  0  0  0
 49 53  1  0  0  0
 49 64  1  0  0  0
 49120  1  0  0  0
 50 51  1  0  0  0
 50121  1  0  0  0
 50122  1  0  0  0
 51 52  1  0  0  0
 51123  1  0  0  0
 51124  1  0  0  0
 52125  1  0  0  0
 52126  1  0  0  0
 53 54  1  0  0  0
 54 55  2  0  0  0
 54127  1  0  0  0
 55 57  1  0  0  0
 55128  1  0  0  0
 56 69  2  0  0  0
 57 58  2  0  0  0
 57129  1  0  0  0
 58130  1  0  0  0
 59 60  1  0  0  0
 59 61  1  0  0  0
 59 62  1  0  0  0
 60131  1  0  0  0
 60132  1  0  0  0
 60133  1  0  0  0
 61134  1  0  0  0
 61135  1  0  0  0
 61136  1  0  0  0
 62137  1  0  0  0
 62138  1  0  0  0
 62139  1  0  0  0
 63 65  1  0  0  0
 63140  1  0  0  0
 63141  1  0  0  0
 63142  1  0  0  0
 64143  1  0  0  0
 65144  1  0  0  0
 68 83  1  0  0  0
 71 74  2  0  0  0
 71 75  1  0  0  0
 71145  1  0  0  0
 72 74  1  0  0  0
 72 76  2  0  0  0
 72146  1  0  0  0
 73 75  2  0  0  0
 73 76  1  0  0  0
 73147  1  0  0  0
 74 82  1  0  0  0
 75 84  1  0  0  0
 76 85  1  0  0  0
 77 78  2  0  0  0
 77 84  1  0  0  0
 77148  1  0  0  0
 78 79  1  0  0  0
 78 83  1  0  0  0
 79 80  2  0  0  0
 79 81  1  0  0  0
 80149  1  0  0  0
 80150  1  0  0  0
 81 84  1  0  0  0
 81151  1  0  0  0
 81152  1  0  0  0
 82153  1  0  0  0
 82154  1  0  0  0
 82155  1  0  0  0
 83156  1  0  0  0
 83157  1  0  0  0
 85158  1  0  0  0
M  ISO  4   1 100  68 101  83 101  85 100
M  END
> <chiral flag>
0

> <version>
0

> <s_m_source_file>
/data/baiqing/PycharmProjects/Reinvent-master-3.2/result/LINK_invent/BTK/process_docking_weight1_custom_product_contain_oxygen_bond_distance_aromatic_linkinvent_7_9_3/rearranged_h_0074.sdf

> <i_m_source_file_index>
48

> <r_mmod_Potential_Energy-OPLS-2005>
392.217041015625

> <r_mmod_Stretch_Energy-OPLS-2005>
143.512451171875

> <r_mmod_Bend_Energy-OPLS-2005>
268.172302246094

> <r_mmod_Torsional_Energy-OPLS-2005>
251.808898925781

> <r_mmod_Improper_Torsional_Energy-OPLS-2005>
12.4836359024048

> <r_mmod_Van_der_Waal_Energy-OPLS-2005>
131.932540893555

> <r_mmod_Electrostatic_Energy-OPLS-2005>
-320.711334228516

> <r_mmod_Solvation_Energy-OPLS-2005>
-216.085388183594

> <b_mmod_Minimization_Converged-OPLS-2005>
0

> <r_mmod_RMS_Derivative-OPLS-2005>
11.8052234649658

$$$$
49
                    3D
 Structure written by MMmdl.
157166  0  0  1  0            999 V2000
  -30.5924  -14.7932   20.4069 C   0  0  0  0  0  0
  -30.4322  -12.4724   19.4913 C   0  0  0  0  0  0
  -29.5188  -12.5054   18.2455 C   0  0  0  0  0  0
  -28.0443  -12.3264   18.6547 C   0  0  0  0  0  0
  -27.6412  -13.2370   19.8458 C   0  0  2  0  0  0
  -28.6832  -13.1970   20.9857 C   0  0  0  0  0  0
  -25.2518  -13.8208   20.5695 C   0  0  0  0  0  0
  -24.1809  -13.0446   20.9199 C   0  0  0  0  0  0
  -24.6404  -11.6922   20.8729 C   0  0  0  0  0  0
  -23.9085  -10.4298   21.0397 C   0  0  0  0  0  0
  -24.3631   -9.4207   21.9174 C   0  0  0  0  0  0
  -23.6300   -8.2246   22.0751 C   0  0  0  0  0  0
  -22.4277   -8.0293   21.3547 C   0  0  0  0  0  0
  -21.9910   -9.0264   20.4647 C   0  0  0  0  0  0
  -22.7250  -10.2137   20.3051 C   0  0  0  0  0  0
  -21.6855   -6.0742   22.5277 C   0  0  0  0  0  0
  -21.4019   -6.5639   23.8213 C   0  0  0  0  0  0
  -21.3656   -5.6791   24.9171 C   0  0  0  0  0  0
  -21.6044   -4.3052   24.7213 C   0  0  0  0  0  0
  -21.8822   -3.8148   23.4333 C   0  0  0  0  0  0
  -21.9193   -4.6973   22.3394 C   0  0  0  0  0  0
  -22.7832  -13.5229   21.1860 C   0  0  0  0  0  0
  -22.1663   -4.2162   21.0972 F   0  0  0  0  0  0
  -21.5619   -3.4533   25.7720 F   0  0  0  0  0  0
  -29.9835  -13.5527   20.4055 N   0  0  0  0  0  0
  -26.2940  -12.9419   20.3252 N   0  0  0  0  0  0
  -25.9335  -11.6557   20.5727 N   0  0  0  0  0  0
  -22.0482  -12.8224   22.0420 N   0  0  0  0  0  0
  -25.4218  -15.1938   20.4136 N   0  0  0  0  0  0
  -31.7800  -14.8705   20.0782 O   0  0  0  0  0  0
  -21.6643   -6.8890   21.4238 O   0  0  0  0  0  0
  -22.3512  -14.5531   20.6705 O   0  0  0  0  0  0
  -24.6349  -31.8505   23.1947 C   0  0  0  0  0  0
  -25.9155  -32.4728   23.8303 C   0  0  1  0  0  0
  -27.2250  -27.2313   20.1190 C   0  0  0  0  0  0
  -25.5933  -33.8533   24.2225 N   0  0  0  0  0  0
  -23.4339  -30.4717   21.5394 C   0  0  2  0  0  0
  -24.8812  -28.9140   20.1051 C   0  0  0  0  0  0
  -22.7521  -29.4568   22.4897 C   0  0  0  0  0  0
  -18.0294  -28.1388   22.8484 C   0  0  0  0  0  0
  -24.1488  -36.7266   23.2638 C   0  0  0  0  0  0
  -25.9824  -30.7526   21.3799 C   0  0  0  0  0  0
  -26.0544  -29.3744   20.7156 C   0  0  0  0  0  0
  -27.2252  -28.5442   20.7131 C   0  0  0  0  0  0
  -26.0222  -26.8398   19.4912 C   0  0  0  0  0  0
  -24.8719  -27.6558   19.4819 C   0  0  0  0  0  0
  -23.6530  -29.8046   20.1558 C   0  0  0  0  0  0
  -25.4114  -36.3047   24.0321 C   0  0  1  0  0  0
  -20.5899  -28.3693   23.1264 C   0  0  2  0  0  0
  -20.6780  -26.9404   22.5414 C   0  0  0  0  0  0
  -19.5758  -26.6373   21.5217 C   0  0  0  0  0  0
  -18.1937  -26.7931   22.1621 C   0  0  0  0  0  0
  -19.1549  -28.8857   23.2867 C   0  0  0  0  0  0
  -18.9465  -30.1458   23.8890 C   0  0  0  0  0  0
  -17.6463  -30.6584   24.0560 C   0  0  0  0  0  0
  -25.9057  -34.9422   23.5075 C   0  0  0  0  0  0
  -16.5354  -29.9079   23.6334 C   0  0  0  0  0  0
  -16.7282  -28.6495   23.0357 C   0  0  0  0  0  0
  -26.4509  -31.6579   25.0714 C   0  0  0  0  0  0
  -25.3716  -31.3757   26.1427 C   0  0  0  0  0  0
  -27.0365  -30.2985   24.6250 C   0  0  0  0  0  0
  -27.6057  -32.4329   25.7489 C   0  0  0  0  0  0
  -27.5578  -37.1776   24.8452 C   0  0  0  0  0  0
  -21.4220  -29.3022   22.3638 N   0  0  0  0  0  0
  -26.4278  -37.3755   23.9412 N   0  0  0  0  0  0
  -24.7031  -31.0437   22.0940 N   0  0  0  0  0  0
  -23.4197  -28.8112   23.3015 O   0  0  0  0  0  0
  -28.3035  -26.3083   20.2369 O   0  0  0  0  0  0
  -26.5638  -34.8910   22.4649 O   0  0  0  0  0  0
  -23.5487  -32.1343   23.7219 O   0  0  0  0  0  0
  -29.9534  -19.7323   18.3905 C   0  0  0  0  0  0
  -29.4662  -18.5919   20.4810 C   0  0  0  0  0  0
  -30.3832  -17.3230   18.6124 C   0  0  0  0  0  0
  -29.4851  -19.8552   19.7214 C   0  0  0  0  0  0
  -30.3947  -18.5080   17.8493 C   0  0  0  0  0  0
  -29.9165  -17.2954   19.9478 C   0  0  0  0  0  0
  -28.6697  -23.2817   21.3938 C   0  0  0  0  0  0
  -28.6223  -23.7640   20.0094 C   0  0  0  0  0  0
  -28.9450  -21.7237   21.4160 C   0  0  0  0  0  0
  -28.4132  -25.0654   19.5229 C   0  0  0  0  0  0
  -28.8928  -22.4383   19.2196 C   0  0  0  0  0  0
  -28.4614  -25.3147   18.0247 C   0  0  0  0  0  0
  -29.0809  -21.2514   20.1504 N   0  0  0  0  0  0
  -30.8428  -18.4698   16.5276 N   0  0  0  0  0  0
  -29.8334  -15.9506   20.6158 N   0  0  0  0  0  0
  -28.5196  -23.9681   22.4133 O   0  0  0  0  0  0
  -29.0224  -21.0568   22.4576 O   0  0  0  0  0  0
  -31.4759  -12.5843   19.1940 H   0  0  0  0  0  0
  -30.3704  -11.5032   19.9885 H   0  0  0  0  0  0
  -29.8077  -11.7229   17.5421 H   0  0  0  0  0  0
  -29.6449  -13.4527   17.7189 H   0  0  0  0  0  0
  -27.9086  -11.2794   18.9291 H   0  0  0  0  0  0
  -27.3910  -12.5043   17.7997 H   0  0  0  0  0  0
  -27.6280  -14.2533   19.4508 H   0  0  0  0  0  0
  -28.7239  -12.2052   21.4391 H   0  0  0  0  0  0
  -28.4124  -13.8894   21.7838 H   0  0  0  0  0  0
  -25.2777   -9.5670   22.4743 H   0  0  0  0  0  0
  -24.0004   -7.4630   22.7460 H   0  0  0  0  0  0
  -21.0843   -8.8784   19.8950 H   0  0  0  0  0  0
  -22.3718  -10.9668   19.6153 H   0  0  0  0  0  0
  -21.2023   -7.6148   23.9719 H   0  0  0  0  0  0
  -21.1471   -6.0519   25.9077 H   0  0  0  0  0  0
  -22.0606   -2.7610   23.2833 H   0  0  0  0  0  0
  -22.4096  -11.9892   22.4824 H   0  0  0  0  0  0
  -21.1095  -13.1237   22.2611 H   0  0  0  0  0  0
  -24.6576  -15.8501   20.5322 H   0  0  0  0  0  0
  -26.2713  -15.6319   20.0805 H   0  0  0  0  0  0
  -26.7218  -32.5362   23.1037 H   0  0  0  0  0  0
  -25.0073  -33.9657   25.0368 H   0  0  0  0  0  0
  -22.7325  -31.2954   21.3919 H   0  0  0  0  0  0
  -23.3759  -35.9587   23.3276 H   0  0  0  0  0  0
  -24.3588  -36.8918   22.2058 H   0  0  0  0  0  0
  -23.7231  -37.6450   23.6692 H   0  0  0  0  0  0
  -26.1296  -31.5162   20.6152 H   0  0  0  0  0  0
  -26.8559  -30.7962   22.0189 H   0  0  0  0  0  0
  -28.1194  -28.8858   21.2154 H   0  0  0  0  0  0
  -25.9425  -25.8642   19.0359 H   0  0  0  0  0  0
  -23.9706  -27.2933   19.0072 H   0  0  0  0  0  0
  -23.7779  -30.5816   19.4005 H   0  0  0  0  0  0
  -22.7702  -29.2406   19.8497 H   0  0  0  0  0  0
  -25.1298  -36.1883   25.0814 H   0  0  0  0  0  0
  -20.9990  -28.3276   24.1383 H   0  0  0  0  0  0
  -20.5677  -26.2295   23.3616 H   0  0  0  0  0  0
  -21.6651  -26.7421   22.1213 H   0  0  0  0  0  0
  -19.6916  -25.6282   21.1249 H   0  0  0  0  0  0
  -19.6702  -27.3177   20.6745 H   0  0  0  0  0  0
  -17.4206  -26.6677   21.4024 H   0  0  0  0  0  0
  -18.0324  -26.0075   22.9015 H   0  0  0  0  0  0
  -19.7938  -30.7277   24.2253 H   0  0  0  0  0  0
  -17.5015  -31.6267   24.5154 H   0  0  0  0  0  0
  -15.5356  -30.2973   23.7666 H   0  0  0  0  0  0
  -15.8681  -28.0810   22.7083 H   0  0  0  0  0  0
  -24.5883  -30.7116   25.7756 H   0  0  0  0  0  0
  -24.8920  -32.2940   26.4828 H   0  0  0  0  0  0
  -25.8010  -30.8946   27.0222 H   0  0  0  0  0  0
  -26.2966  -29.6714   24.1261 H   0  0  0  0  0  0
  -27.4005  -29.7275   25.4803 H   0  0  0  0  0  0
  -27.8864  -30.4243   23.9536 H   0  0  0  0  0  0
  -27.2664  -33.3634   26.2057 H   0  0  0  0  0  0
  -28.3874  -32.6880   25.0321 H   0  0  0  0  0  0
  -28.0723  -31.8463   26.5414 H   0  0  0  0  0  0
  -28.2564  -38.0103   24.7537 H   0  0  0  0  0  0
  -28.1104  -36.2635   24.6225 H   0  0  0  0  0  0
  -27.2304  -37.1362   25.8854 H   0  0  0  0  0  0
  -20.9405  -29.8733   21.6837 H   0  0  0  0  0  0
  -26.0149  -38.2815   24.1452 H   0  0  0  0  0  0
  -29.9919  -20.5994   17.7497 H   0  0  0  0  0  0
  -29.0919  -18.6134   21.4947 H   0  0  0  0  0  0
  -30.7082  -16.4064   18.1409 H   0  0  0  0  0  0
  -29.7899  -22.5879   18.6192 H   0  0  0  0  0  0
  -28.0643  -22.2449   18.5371 H   0  0  0  0  0  0
  -27.6238  -24.8229   17.5301 H   0  0  0  0  0  0
  -29.3860  -24.9181   17.6042 H   0  0  0  0  0  0
  -28.4233  -26.3774   17.7864 H   0  0  0  0  0  0
  -30.5959  -19.2279   15.8976 H   0  0  0  0  0  0
  -30.9201  -17.5744   16.0550 H   0  0  0  0  0  0
  -28.9762  -15.7879   21.1243 H   0  0  0  0  0  0
  1 25  1  0  0  0
  1 30  2  0  0  0
  1 85  1  0  0  0
  2  3  1  0  0  0
  2 25  1  0  0  0
  2 88  1  0  0  0
  2 89  1  0  0  0
  3  4  1  0  0  0
  3 90  1  0  0  0
  3 91  1  0  0  0
  4  5  1  0  0  0
  4 92  1  0  0  0
  4 93  1  0  0  0
  5  6  1  0  0  0
  5 26  1  0  0  0
  5 94  1  0  0  0
  6 25  1  0  0  0
  6 95  1  0  0  0
  6 96  1  0  0  0
  7  8  2  0  0  0
  7 26  1  0  0  0
  7 29  1  0  0  0
  8  9  1  0  0  0
  8 22  1  0  0  0
  9 10  1  0  0  0
  9 27  2  0  0  0
 10 11  2  0  0  0
 10 15  1  0  0  0
 11 12  1  0  0  0
 11 97  1  0  0  0
 12 13  2  0  0  0
 12 98  1  0  0  0
 13 14  1  0  0  0
 13 31  1  0  0  0
 14 15  2  0  0  0
 14 99  1  0  0  0
 15100  1  0  0  0
 16 17  2  0  0  0
 16 21  1  0  0  0
 16 31  1  0  0  0
 17 18  1  0  0  0
 17101  1  0  0  0
 18 19  2  0  0  0
 18102  1  0  0  0
 19 20  1  0  0  0
 19 24  1  0  0  0
 20 21  2  0  0  0
 20103  1  0  0  0
 21 23  1  0  0  0
 22 28  1  0  0  0
 22 32  2  0  0  0
 26 27  1  0  0  0
 28104  1  0  0  0
 28105  1  0  0  0
 29106  1  0  0  0
 29107  1  0  0  0
 33 34  1  0  0  0
 33 66  1  0  0  0
 33 70  2  0  0  0
 34 36  1  0  0  0
 34 59  1  0  0  0
 34108  1  0  0  0
 35 44  2  0  0  0
 35 45  1  0  0  0
 35 68  1  0  0  0
 36 56  1  0  0  0
 36109  1  0  0  0
 37 39  1  0  0  0
 37 47  1  0  0  0
 37 66  1  0  0  0
 37110  1  0  0  0
 38 43  2  0  0  0
 38 46  1  0  0  0
 38 47  1  0  0  0
 39 64  1  0  0  0
 39 67  2  0  0  0
 40 52  1  0  0  0
 40 53  2  0  0  0
 40 58  1  0  0  0
 41111  1  0  0  0
 41112  1  0  0  0
 41113  1  0  0  0
 41 48  1  0  0  0
 42 43  1  0  0  0
 42 66  1  0  0  0
 42114  1  0  0  0
 42115  1  0  0  0
 43 44  1  0  0  0
 44116  1  0  0  0
 45 46  2  0  0  0
 45117  1  0  0  0
 46118  1  0  0  0
 47119  1  0  0  0
 47120  1  0  0  0
 48 56  1  0  0  0
 48 65  1  0  0  0
 48121  1  0  0  0
 49 50  1  0  0  0
 49 53  1  0  0  0
 49 64  1  0  0  0
 49122  1  0  0  0
 50 51  1  0  0  0
 50123  1  0  0  0
 50124  1  0  0  0
 51 52  1  0  0  0
 51125  1  0  0  0
 51126  1  0  0  0
 52127  1  0  0  0
 52128  1  0  0  0
 53 54  1  0  0  0
 54 55  2  0  0  0
 54129  1  0  0  0
 55 57  1  0  0  0
 55130  1  0  0  0
 56 69  2  0  0  0
 57 58  2  0  0  0
 57131  1  0  0  0
 58132  1  0  0  0
 59 60  1  0  0  0
 59 61  1  0  0  0
 59 62  1  0  0  0
 60133  1  0  0  0
 60134  1  0  0  0
 60135  1  0  0  0
 61136  1  0  0  0
 61137  1  0  0  0
 61138  1  0  0  0
 62139  1  0  0  0
 62140  1  0  0  0
 62141  1  0  0  0
 63 65  1  0  0  0
 63142  1  0  0  0
 63143  1  0  0  0
 63144  1  0  0  0
 64145  1  0  0  0
 65146  1  0  0  0
 68 80  1  0  0  0
 71 74  2  0  0  0
 71 75  1  0  0  0
 71147  1  0  0  0
 72 74  1  0  0  0
 72 76  2  0  0  0
 72148  1  0  0  0
 73 75  2  0  0  0
 73 76  1  0  0  0
 73149  1  0  0  0
 74 83  1  0  0  0
 75 84  1  0  0  0
 76 85  1  0  0  0
 77 78  1  0  0  0
 77 79  1  0  0  0
 77 86  2  0  0  0
 78 80  2  0  0  0
 78 81  1  0  0  0
 79 83  1  0  0  0
 79 87  2  0  0  0
 80 82  1  0  0  0
 81 83  1  0  0  0
 81150  1  0  0  0
 81151  1  0  0  0
 82152  1  0  0  0
 82153  1  0  0  0
 82154  1  0  0  0
 84155  1  0  0  0
 84156  1  0  0  0
 85157  1  0  0  0
M  ISO  4   1 100  68 101  80 101  85 100
M  END
> <chiral flag>
0

> <version>
0

> <s_m_source_file>
/data/baiqing/PycharmProjects/Reinvent-master-3.2/result/LINK_invent/BTK/process_docking_weight1_custom_product_contain_oxygen_bond_distance_aromatic_linkinvent_7_9_3/rearranged_h_0074.sdf

> <i_m_source_file_index>
49

> <r_mmod_Potential_Energy-OPLS-2005>
385.193420410156

> <r_mmod_Stretch_Energy-OPLS-2005>
149.923782348633

> <r_mmod_Bend_Energy-OPLS-2005>
213.090606689453

> <r_mmod_Torsional_Energy-OPLS-2005>
273.375152587891

> <r_mmod_Improper_Torsional_Energy-OPLS-2005>
7.79164600372314

> <r_mmod_Van_der_Waal_Energy-OPLS-2005>
132.479614257812

> <r_mmod_Electrostatic_Energy-OPLS-2005>
-243.475234985352

> <r_mmod_Solvation_Energy-OPLS-2005>
-258.088439941406

> <b_mmod_Minimization_Converged-OPLS-2005>
0

> <r_mmod_RMS_Derivative-OPLS-2005>
1.50831878185272

$$$$
50
                    3D
 Structure written by MMmdl.
166175  0  0  1  0            999 V2000
  -30.5979  -14.7532   20.4777 C   0  0  0  0  0  0
  -30.4305  -12.4585   19.4878 C   0  0  0  0  0  0
  -29.5100  -12.5223   18.2468 C   0  0  0  0  0  0
  -28.0335  -12.3441   18.6488 C   0  0  0  0  0  0
  -27.6434  -13.2185   19.8693 C   0  0  2  0  0  0
  -28.6874  -13.1442   21.0056 C   0  0  0  0  0  0
  -25.2544  -13.8214   20.5597 C   0  0  0  0  0  0
  -24.1788  -13.0470   20.9045 C   0  0  0  0  0  0
  -24.6356  -11.6923   20.8679 C   0  0  0  0  0  0
  -23.9026  -10.4307   21.0376 C   0  0  0  0  0  0
  -24.3589   -9.4233   21.9164 C   0  0  0  0  0  0
  -23.6266   -8.2265   22.0747 C   0  0  0  0  0  0
  -22.4250   -8.0290   21.3538 C   0  0  0  0  0  0
  -21.9873   -9.0257   20.4636 C   0  0  0  0  0  0
  -22.7196  -10.2139   20.3032 C   0  0  0  0  0  0
  -21.6864   -6.0728   22.5269 C   0  0  0  0  0  0
  -21.4030   -6.5642   23.8201 C   0  0  0  0  0  0
  -21.3659   -5.6792   24.9158 C   0  0  0  0  0  0
  -21.6050   -4.3052   24.7212 C   0  0  0  0  0  0
  -21.8821   -3.8141   23.4333 C   0  0  0  0  0  0
  -21.9197   -4.6951   22.3394 C   0  0  0  0  0  0
  -22.7829  -13.5255   21.1755 C   0  0  0  0  0  0
  -22.1649   -4.2136   21.0961 F   0  0  0  0  0  0
  -21.5636   -3.4542   25.7727 F   0  0  0  0  0  0
  -29.9927  -13.5116   20.4396 N   0  0  0  0  0  0
  -26.2950  -12.9342   20.3385 N   0  0  0  0  0  0
  -25.9301  -11.6506   20.5804 N   0  0  0  0  0  0
  -22.0504  -12.8254   22.0348 N   0  0  0  0  0  0
  -25.4419  -15.1958   20.3990 N   0  0  0  0  0  0
  -31.7420  -14.8875   20.0358 O   0  0  0  0  0  0
  -21.6640   -6.8861   21.4228 O   0  0  0  0  0  0
  -22.3534  -14.5583   20.6636 O   0  0  0  0  0  0
  -24.6367  -31.8524   23.1985 C   0  0  0  0  0  0
  -25.9176  -32.4737   23.8349 C   0  0  1  0  0  0
  -27.2077  -27.2139   20.1349 C   0  0  0  0  0  0
  -25.5971  -33.8550   24.2261 N   0  0  0  0  0  0
  -23.4357  -30.4774   21.5425 C   0  0  2  0  0  0
  -24.8821  -28.9283   20.1096 C   0  0  0  0  0  0
  -22.7539  -29.4589   22.4900 C   0  0  0  0  0  0
  -18.0289  -28.1387   22.8464 C   0  0  0  0  0  0
  -24.1485  -36.7265   23.2645 C   0  0  0  0  0  0
  -25.9881  -30.7484   21.3905 C   0  0  0  0  0  0
  -26.0577  -29.3711   20.7280 C   0  0  0  0  0  0
  -27.2217  -28.5259   20.7359 C   0  0  0  0  0  0
  -26.0116  -26.8761   19.4537 C   0  0  0  0  0  0
  -24.8670  -27.6895   19.4605 C   0  0  0  0  0  0
  -23.6567  -29.8194   20.1570 C   0  0  0  0  0  0
  -25.4111  -36.3055   24.0330 C   0  0  1  0  0  0
  -20.5900  -28.3708   23.1236 C   0  0  2  0  0  0
  -20.6774  -26.9422   22.5399 C   0  0  0  0  0  0
  -19.5750  -26.6373   21.5205 C   0  0  0  0  0  0
  -18.1925  -26.7924   22.1613 C   0  0  0  0  0  0
  -19.1548  -28.8865   23.2838 C   0  0  0  0  0  0
  -18.9469  -30.1464   23.8866 C   0  0  0  0  0  0
  -17.6470  -30.6591   24.0544 C   0  0  0  0  0  0
  -25.9059  -34.9432   23.5087 C   0  0  0  0  0  0
  -16.5362  -29.9078   23.6342 C   0  0  0  0  0  0
  -16.7273  -28.6497   23.0355 C   0  0  0  0  0  0
  -26.4513  -31.6581   25.0766 C   0  0  0  0  0  0
  -25.3721  -31.3762   26.1479 C   0  0  0  0  0  0
  -27.0380  -30.2985   24.6324 C   0  0  0  0  0  0
  -27.6056  -32.4342   25.7542 C   0  0  0  0  0  0
  -27.5570  -37.1791   24.8467 C   0  0  0  0  0  0
  -21.4245  -29.3052   22.3639 N   0  0  0  0  0  0
  -26.4278  -37.3759   23.9419 N   0  0  0  0  0  0
  -24.7059  -31.0447   22.0990 N   0  0  0  0  0  0
  -23.4217  -28.8120   23.3008 O   0  0  0  0  0  0
  -28.2542  -26.2433   20.2320 O   0  0  0  0  0  0
  -26.5619  -34.8911   22.4656 O   0  0  0  0  0  0
  -23.5504  -32.1387   23.7233 O   0  0  0  0  0  0
  -28.2330  -19.3043   18.8479 C   0  0  0  0  0  0
  -28.6873  -16.9029   19.0833 C   0  0  0  0  0  0
  -29.6353  -18.4979   20.6606 C   0  0  0  0  0  0
  -28.0304  -17.9667   18.4394 C   0  0  0  0  0  0
  -29.0346  -19.6474   19.9658 C   0  0  0  0  0  0
  -29.4861  -17.1027   20.2239 C   0  0  0  0  0  0
  -28.5460  -22.2375   19.6861 C   0  0  0  0  0  0
  -28.6546  -23.4479   20.3242 C   0  0  0  0  0  0
  -29.3900  -23.0946   21.5237 C   0  0  0  0  0  0
  -29.7068  -23.9482   22.5096 C   0  0  0  0  0  0
  -27.0947  -17.6606   17.3561 C   0  0  0  0  0  0
  -25.0874  -16.3344   16.6599 C   0  0  0  0  0  0
  -29.7313  -21.5883   21.5315 C   0  0  0  0  0  0
  -24.0766  -15.3520   17.2414 C   0  0  0  0  0  0
  -27.8908  -24.8026   19.9007 C   0  0  0  0  0  0
  -29.1285  -21.0769   20.2979 N   0  0  0  0  0  0
  -29.8826  -15.8542   20.9366 N   0  0  0  0  0  0
  -26.0929  -16.7775   17.5812 N   0  0  0  0  0  0
  -27.2676  -18.2689   16.1786 N   0  3  0  0  0  0
  -25.0366  -16.7153   15.4838 O   0  0  0  0  0  0
  -31.4725  -12.5799   19.1889 H   0  0  0  0  0  0
  -30.3711  -11.4759   19.9574 H   0  0  0  0  0  0
  -29.7927  -11.7579   17.5215 H   0  0  0  0  0  0
  -29.6428  -13.4808   17.7441 H   0  0  0  0  0  0
  -27.8789  -11.2903   18.8834 H   0  0  0  0  0  0
  -27.3806  -12.5644   17.8023 H   0  0  0  0  0  0
  -27.6265  -14.2388   19.5074 H   0  0  0  0  0  0
  -28.7257  -12.1377   21.4254 H   0  0  0  0  0  0
  -28.4116  -13.8081   21.8273 H   0  0  0  0  0  0
  -25.2733   -9.5732   22.4733 H   0  0  0  0  0  0
  -23.9987   -7.4670   22.7471 H   0  0  0  0  0  0
  -21.0807   -8.8752   19.8945 H   0  0  0  0  0  0
  -22.3637  -10.9661   19.6131 H   0  0  0  0  0  0
  -21.2026   -7.6151   23.9701 H   0  0  0  0  0  0
  -21.1480   -6.0514   25.9058 H   0  0  0  0  0  0
  -22.0604   -2.7604   23.2821 H   0  0  0  0  0  0
  -22.4124  -11.9937   22.4768 H   0  0  0  0  0  0
  -21.1130  -13.1278   22.2567 H   0  0  0  0  0  0
  -24.6608  -15.7331   20.7604 H   0  0  0  0  0  0
  -26.3065  -15.5149   20.8164 H   0  0  0  0  0  0
  -26.7255  -32.5344   23.1091 H   0  0  0  0  0  0
  -25.0141  -33.9702   25.0421 H   0  0  0  0  0  0
  -22.7341  -31.3009   21.3950 H   0  0  0  0  0  0
  -23.3758  -35.9586   23.3293 H   0  0  0  0  0  0
  -24.3574  -36.8904   22.2065 H   0  0  0  0  0  0
  -23.7224  -37.6455   23.6676 H   0  0  0  0  0  0
  -26.1395  -31.5068   20.6221 H   0  0  0  0  0  0
  -26.8620  -30.7922   22.0288 H   0  0  0  0  0  0
  -28.1116  -28.8519   21.2560 H   0  0  0  0  0  0
  -25.9025  -25.9455   18.9200 H   0  0  0  0  0  0
  -23.9714  -27.3478   18.9607 H   0  0  0  0  0  0
  -23.7874  -30.5987   19.4052 H   0  0  0  0  0  0
  -22.7724  -29.2577   19.8472 H   0  0  0  0  0  0
  -25.1286  -36.1898   25.0822 H   0  0  0  0  0  0
  -20.9962  -28.3277   24.1367 H   0  0  0  0  0  0
  -20.5637  -26.2337   23.3620 H   0  0  0  0  0  0
  -21.6638  -26.7414   22.1210 H   0  0  0  0  0  0
  -19.6911  -25.6271   21.1256 H   0  0  0  0  0  0
  -19.6686  -27.3158   20.6715 H   0  0  0  0  0  0
  -17.4201  -26.6671   21.4013 H   0  0  0  0  0  0
  -18.0320  -26.0067   22.9012 H   0  0  0  0  0  0
  -19.7957  -30.7276   24.2224 H   0  0  0  0  0  0
  -17.5033  -31.6267   24.5146 H   0  0  0  0  0  0
  -15.5361  -30.2968   23.7684 H   0  0  0  0  0  0
  -15.8669  -28.0800   22.7095 H   0  0  0  0  0  0
  -24.5950  -30.7029   25.7837 H   0  0  0  0  0  0
  -24.8849  -32.2937   26.4805 H   0  0  0  0  0  0
  -25.8049  -30.9055   27.0321 H   0  0  0  0  0  0
  -26.3017  -29.6724   24.1280 H   0  0  0  0  0  0
  -27.3948  -29.7259   25.4898 H   0  0  0  0  0  0
  -27.8934  -30.4230   23.9679 H   0  0  0  0  0  0
  -27.2665  -33.3677   26.2047 H   0  0  0  0  0  0
  -28.3906  -32.6851   25.0393 H   0  0  0  0  0  0
  -28.0678  -31.8518   26.5523 H   0  0  0  0  0  0
  -28.2566  -38.0105   24.7511 H   0  0  0  0  0  0
  -28.1084  -36.2637   24.6278 H   0  0  0  0  0  0
  -27.2296  -37.1408   25.8871 H   0  0  0  0  0  0
  -20.9455  -29.8813   21.6865 H   0  0  0  0  0  0
  -26.0148  -38.2831   24.1427 H   0  0  0  0  0  0
  -27.7126  -20.0715   18.2944 H   0  0  0  0  0  0
  -28.5371  -15.9082   18.6987 H   0  0  0  0  0  0
  -30.2104  -18.6902   21.5535 H   0  0  0  0  0  0
  -27.9871  -22.0942   18.7730 H   0  0  0  0  0  0
  -29.4328  -24.9916   22.4686 H   0  0  0  0  0  0
  -30.2400  -23.6057   23.3844 H   0  0  0  0  0  0
  -29.3089  -21.0968   22.4087 H   0  0  0  0  0  0
  -30.8125  -21.4407   21.5299 H   0  0  0  0  0  0
  -23.4956  -15.8317   18.0294 H   0  0  0  0  0  0
  -24.5818  -14.4829   17.6604 H   0  0  0  0  0  0
  -23.3912  -15.0075   16.4670 H   0  0  0  0  0  0
  -26.8985  -24.6172   20.3142 H   0  0  0  0  0  0
  -27.7951  -24.7517   18.8156 H   0  0  0  0  0  0
  -29.1740  -15.5553   21.5899 H   0  0  0  0  0  0
  -26.0683  -16.4458   18.5387 H   0  0  0  0  0  0
  -28.0891  -18.8251   16.0045 H   0  0  0  0  0  0
  -26.6348  -18.0473   15.4197 H   0  0  0  0  0  0
  1 25  1  0  0  0
  1 30  2  0  0  0
  1 87  1  0  0  0
  2  3  1  0  0  0
  2 25  1  0  0  0
  2 91  1  0  0  0
  2 92  1  0  0  0
  3  4  1  0  0  0
  3 93  1  0  0  0
  3 94  1  0  0  0
  4  5  1  0  0  0
  4 95  1  0  0  0
  4 96  1  0  0  0
  5  6  1  0  0  0
  5 26  1  0  0  0
  5 97  1  0  0  0
  6 25  1  0  0  0
  6 98  1  0  0  0
  6 99  1  0  0  0
  7  8  2  0  0  0
  7 26  1  0  0  0
  7 29  1  0  0  0
  8  9  1  0  0  0
  8 22  1  0  0  0
  9 10  1  0  0  0
  9 27  2  0  0  0
 10 11  2  0  0  0
 10 15  1  0  0  0
 11 12  1  0  0  0
 11100  1  0  0  0
 12 13  2  0  0  0
 12101  1  0  0  0
 13 14  1  0  0  0
 13 31  1  0  0  0
 14 15  2  0  0  0
 14102  1  0  0  0
 15103  1  0  0  0
 16 17  2  0  0  0
 16 21  1  0  0  0
 16 31  1  0  0  0
 17 18  1  0  0  0
 17104  1  0  0  0
 18 19  2  0  0  0
 18105  1  0  0  0
 19 20  1  0  0  0
 19 24  1  0  0  0
 20 21  2  0  0  0
 20106  1  0  0  0
 21 23  1  0  0  0
 22 28  1  0  0  0
 22 32  2  0  0  0
 26 27  1  0  0  0
 28107  1  0  0  0
 28108  1  0  0  0
 29109  1  0  0  0
 29110  1  0  0  0
 33 34  1  0  0  0
 33 66  1  0  0  0
 33 70  2  0  0  0
 34 36  1  0  0  0
 34 59  1  0  0  0
 34111  1  0  0  0
 35 44  2  0  0  0
 35 45  1  0  0  0
 35 68  1  0  0  0
 36 56  1  0  0  0
 36112  1  0  0  0
 37 39  1  0  0  0
 37 47  1  0  0  0
 37 66  1  0  0  0
 37113  1  0  0  0
 38 43  2  0  0  0
 38 46  1  0  0  0
 38 47  1  0  0  0
 39 64  1  0  0  0
 39 67  2  0  0  0
 40 52  1  0  0  0
 40 53  2  0  0  0
 40 58  1  0  0  0
 41114  1  0  0  0
 41115  1  0  0  0
 41116  1  0  0  0
 41 48  1  0  0  0
 42 43  1  0  0  0
 42 66  1  0  0  0
 42117  1  0  0  0
 42118  1  0  0  0
 43 44  1  0  0  0
 44119  1  0  0  0
 45 46  2  0  0  0
 45120  1  0  0  0
 46121  1  0  0  0
 47122  1  0  0  0
 47123  1  0  0  0
 48 56  1  0  0  0
 48 65  1  0  0  0
 48124  1  0  0  0
 49 50  1  0  0  0
 49 53  1  0  0  0
 49 64  1  0  0  0
 49125  1  0  0  0
 50 51  1  0  0  0
 50126  1  0  0  0
 50127  1  0  0  0
 51 52  1  0  0  0
 51128  1  0  0  0
 51129  1  0  0  0
 52130  1  0  0  0
 52131  1  0  0  0
 53 54  1  0  0  0
 54 55  2  0  0  0
 54132  1  0  0  0
 55 57  1  0  0  0
 55133  1  0  0  0
 56 69  2  0  0  0
 57 58  2  0  0  0
 57134  1  0  0  0
 58135  1  0  0  0
 59 60  1  0  0  0
 59 61  1  0  0  0
 59 62  1  0  0  0
 60136  1  0  0  0
 60137  1  0  0  0
 60138  1  0  0  0
 61139  1  0  0  0
 61140  1  0  0  0
 61141  1  0  0  0
 62142  1  0  0  0
 62143  1  0  0  0
 62144  1  0  0  0
 63 65  1  0  0  0
 63145  1  0  0  0
 63146  1  0  0  0
 63147  1  0  0  0
 64148  1  0  0  0
 65149  1  0  0  0
 68 85  1  0  0  0
 71 74  2  0  0  0
 71 75  1  0  0  0
 71150  1  0  0  0
 72 74  1  0  0  0
 72 76  2  0  0  0
 72151  1  0  0  0
 73 75  2  0  0  0
 73 76  1  0  0  0
 73152  1  0  0  0
 74 81  1  0  0  0
 75 86  1  0  0  0
 76 87  1  0  0  0
 77 78  2  0  0  0
 77 86  1  0  0  0
 77153  1  0  0  0
 78 79  1  0  0  0
 78 85  1  0  0  0
 79 80  2  0  0  0
 79 83  1  0  0  0
 80154  1  0  0  0
 80155  1  0  0  0
 81 88  1  0  0  0
 81 89  2  0  0  0
 82 84  1  0  0  0
 82 88  1  0  0  0
 82 90  2  0  0  0
 83 86  1  0  0  0
 83156  1  0  0  0
 83157  1  0  0  0
 84158  1  0  0  0
 84159  1  0  0  0
 84160  1  0  0  0
 85161  1  0  0  0
 85162  1  0  0  0
 87163  1  0  0  0
 88164  1  0  0  0
 89165  1  0  0  0
 89166  1  0  0  0
M  CHG  1  89   1
M  ISO  4   1 100  68 101  85 101  87 100
M  END
> <chiral flag>
0

> <version>
0

> <s_m_source_file>
/data/baiqing/PycharmProjects/Reinvent-master-3.2/result/LINK_invent/BTK/process_docking_weight1_custom_product_contain_oxygen_bond_distance_aromatic_linkinvent_7_9_3/rearranged_h_0074.sdf

> <i_m_source_file_index>
50

> <r_mmod_Potential_Energy-OPLS-2005>
25.3431663513184

> <r_mmod_Stretch_Energy-OPLS-2005>
142.783477783203

> <r_mmod_Bend_Energy-OPLS-2005>
295.411346435547

> <r_mmod_Torsional_Energy-OPLS-2005>
264.138336181641

> <r_mmod_Improper_Torsional_Energy-OPLS-2005>
12.9271059036255

> <r_mmod_Van_der_Waal_Energy-OPLS-2005>
137.526184082031

> <r_mmod_Electrostatic_Energy-OPLS-2005>
-478.342437744141

> <r_mmod_Solvation_Energy-OPLS-2005>
-455.820495605469

> <b_mmod_Minimization_Converged-OPLS-2005>
0

> <r_mmod_RMS_Derivative-OPLS-2005>
2.60226082801819

$$$$
51
                    3D
 Structure written by MMmdl.
158166  0  0  1  0            999 V2000
  -30.5449  -14.8933   20.4546 C   0  0  0  0  0  0
  -30.4457  -12.5469   19.5026 C   0  0  0  0  0  0
  -29.5276  -12.5122   18.2569 C   0  0  0  0  0  0
  -28.0532  -12.3131   18.6629 C   0  0  0  0  0  0
  -27.6320  -13.2383   19.8331 C   0  0  2  0  0  0
  -28.6735  -13.2364   20.9734 C   0  0  0  0  0  0
  -25.2482  -13.8180   20.5666 C   0  0  0  0  0  0
  -24.1802  -13.0454   20.9197 C   0  0  0  0  0  0
  -24.6402  -11.6913   20.8706 C   0  0  0  0  0  0
  -23.9079  -10.4311   21.0383 C   0  0  0  0  0  0
  -24.3632   -9.4229   21.9178 C   0  0  0  0  0  0
  -23.6275   -8.2270   22.0765 C   0  0  0  0  0  0
  -22.4274   -8.0306   21.3545 C   0  0  0  0  0  0
  -21.9898   -9.0289   20.4662 C   0  0  0  0  0  0
  -22.7237  -10.2161   20.3057 C   0  0  0  0  0  0
  -21.6880   -6.0719   22.5274 C   0  0  0  0  0  0
  -21.4024   -6.5620   23.8190 C   0  0  0  0  0  0
  -21.3668   -5.6792   24.9174 C   0  0  0  0  0  0
  -21.6051   -4.3044   24.7231 C   0  0  0  0  0  0
  -21.8813   -3.8125   23.4360 C   0  0  0  0  0  0
  -21.9200   -4.6924   22.3404 C   0  0  0  0  0  0
  -22.7835  -13.5232   21.1916 C   0  0  0  0  0  0
  -22.1671   -4.2105   21.0977 F   0  0  0  0  0  0
  -21.5634   -3.4550   25.7750 F   0  0  0  0  0  0
  -29.9622  -13.6322   20.3906 N   0  0  0  0  0  0
  -26.2907  -12.9410   20.3201 N   0  0  0  0  0  0
  -25.9334  -11.6537   20.5706 N   0  0  0  0  0  0
  -22.0479  -12.8201   22.0466 N   0  0  0  0  0  0
  -25.4152  -15.1945   20.4117 N   0  0  0  0  0  0
  -31.7476  -15.0039   20.2039 O   0  0  0  0  0  0
  -21.6654   -6.8884   21.4246 O   0  0  0  0  0  0
  -22.3509  -14.5542   20.6791 O   0  0  0  0  0  0
  -24.6428  -31.8522   23.1838 C   0  0  0  0  0  0
  -25.9183  -32.4723   23.8333 C   0  0  1  0  0  0
  -27.2260  -27.1787   20.1622 C   0  0  0  0  0  0
  -25.5945  -33.8528   24.2272 N   0  0  0  0  0  0
  -23.4518  -30.4593   21.5333 C   0  0  2  0  0  0
  -24.8961  -28.8826   20.1235 C   0  0  0  0  0  0
  -22.7651  -29.4542   22.4936 C   0  0  0  0  0  0
  -18.0348  -28.1352   22.8355 C   0  0  0  0  0  0
  -24.1474  -36.7263   23.2661 C   0  0  0  0  0  0
  -26.0065  -30.7288   21.3847 C   0  0  0  0  0  0
  -26.0701  -29.3396   20.7397 C   0  0  0  0  0  0
  -27.2403  -28.5024   20.7390 C   0  0  0  0  0  0
  -26.0332  -26.8031   19.5235 C   0  0  0  0  0  0
  -24.8868  -27.6243   19.4980 C   0  0  0  0  0  0
  -23.6773  -29.7869   20.1529 C   0  0  0  0  0  0
  -25.4097  -36.3075   24.0362 C   0  0  1  0  0  0
  -20.5943  -28.3664   23.1198 C   0  0  2  0  0  0
  -20.6828  -26.9375   22.5342 C   0  0  0  0  0  0
  -19.5904  -26.6398   21.5034 C   0  0  0  0  0  0
  -18.1977  -26.8060   22.1193 C   0  0  0  0  0  0
  -19.1585  -28.8814   23.2810 C   0  0  0  0  0  0
  -18.9477  -30.1390   23.8855 C   0  0  0  0  0  0
  -17.6450  -30.6499   24.0455 C   0  0  0  0  0  0
  -25.9079  -34.9448   23.5147 C   0  0  0  0  0  0
  -16.5360  -29.8970   23.6201 C   0  0  0  0  0  0
  -16.7325  -28.6398   23.0259 C   0  0  0  0  0  0
  -26.4495  -31.6545   25.0748 C   0  0  0  0  0  0
  -25.3701  -31.3712   26.1452 C   0  0  0  0  0  0
  -27.0355  -30.2954   24.6275 C   0  0  0  0  0  0
  -27.6087  -32.4284   25.7468 C   0  0  0  0  0  0
  -27.5583  -37.1785   24.8498 C   0  0  0  0  0  0
  -21.4335  -29.3071   22.3705 N   0  0  0  0  0  0
  -26.4286  -37.3763   23.9443 N   0  0  0  0  0  0
  -24.7199  -31.0418   22.0843 N   0  0  0  0  0  0
  -23.4310  -28.8090   23.3075 O   0  0  0  0  0  0
  -28.3137  -26.2576   20.1096 O   0  0  0  0  0  0
  -26.5687  -34.8952   22.4733 O   0  0  0  0  0  0
  -23.5532  -32.1381   23.7033 O   0  0  0  0  0  0
  -28.7138  -19.7177   19.7253 C   0  0  0  0  0  0
  -28.8525  -18.2747   19.7010 C   0  0  0  0  0  0
  -30.5320  -18.3786   21.3606 C   0  0  0  0  0  0
  -29.4582  -20.5777   20.5962 C   0  0  0  0  0  0
  -29.7580  -17.5184   20.5178 C   0  0  0  0  0  0
  -30.4015  -19.8238   21.3890 C   0  0  0  0  0  0
  -28.8944  -23.4565   18.5870 C   0  0  0  0  0  0
  -26.9660  -22.7453   20.0085 C   0  0  0  0  0  0
  -29.3429  -22.2089   20.7763 C   0  0  0  0  0  0
  -28.2676  -24.8574   20.7353 C   0  0  0  0  0  0
  -28.3849  -23.3386   20.0360 C   0  0  0  0  0  0
  -31.2231  -20.5285   22.2749 N   0  0  0  0  0  0
  -29.6800  -16.0006   20.5769 N   0  0  0  0  0  0
  -31.4823  -12.7058   19.2079 H   0  0  0  0  0  0
  -30.4182  -11.5905   20.0262 H   0  0  0  0  0  0
  -29.8364  -11.7099   17.5867 H   0  0  0  0  0  0
  -29.6312  -13.4353   17.6851 H   0  0  0  0  0  0
  -27.9256  -11.2685   18.9480 H   0  0  0  0  0  0
  -27.4074  -12.4717   17.7983 H   0  0  0  0  0  0
  -27.6009  -14.2436   19.4097 H   0  0  0  0  0  0
  -28.7473  -12.2489   21.4291 H   0  0  0  0  0  0
  -28.3850  -13.9275   21.7673 H   0  0  0  0  0  0
  -25.2804   -9.5701   22.4719 H   0  0  0  0  0  0
  -23.9988   -7.4681   22.7501 H   0  0  0  0  0  0
  -21.0836   -8.8845   19.8970 H   0  0  0  0  0  0
  -22.3726  -10.9697   19.6154 H   0  0  0  0  0  0
  -21.2004   -7.6137   23.9676 H   0  0  0  0  0  0
  -21.1504   -6.0535   25.9065 H   0  0  0  0  0  0
  -22.0568   -2.7566   23.2882 H   0  0  0  0  0  0
  -22.4112  -11.9855   22.4841 H   0  0  0  0  0  0
  -21.1098  -13.1210   22.2681 H   0  0  0  0  0  0
  -24.6465  -15.8419   20.5438 H   0  0  0  0  0  0
  -26.2640  -15.6427   20.0937 H   0  0  0  0  0  0
  -26.7293  -32.5332   23.1109 H   0  0  0  0  0  0
  -25.0024  -33.9600   25.0377 H   0  0  0  0  0  0
  -22.7504  -31.2793   21.3729 H   0  0  0  0  0  0
  -23.3766  -35.9559   23.3316 H   0  0  0  0  0  0
  -24.3621  -36.8866   22.2091 H   0  0  0  0  0  0
  -23.7140  -37.6444   23.6650 H   0  0  0  0  0  0
  -26.1863  -31.4652   20.6011 H   0  0  0  0  0  0
  -26.8755  -30.7759   22.0287 H   0  0  0  0  0  0
  -28.1494  -28.8524   21.2084 H   0  0  0  0  0  0
  -25.9984  -25.8399   19.0357 H   0  0  0  0  0  0
  -23.9992  -27.2641   18.9926 H   0  0  0  0  0  0
  -23.8305  -30.5581   19.3972 H   0  0  0  0  0  0
  -22.7922  -29.2306   19.8375 H   0  0  0  0  0  0
  -25.1227  -36.1979   25.0846 H   0  0  0  0  0  0
  -21.0067  -28.3160   24.1312 H   0  0  0  0  0  0
  -20.5689  -26.2237   23.3510 H   0  0  0  0  0  0
  -21.6732  -26.7348   22.1223 H   0  0  0  0  0  0
  -19.7035  -25.6316   21.1077 H   0  0  0  0  0  0
  -19.7037  -27.3198   20.6587 H   0  0  0  0  0  0
  -17.4524  -26.7359   21.3233 H   0  0  0  0  0  0
  -17.9838  -25.9942   22.8184 H   0  0  0  0  0  0
  -19.7918  -30.7281   24.2236 H   0  0  0  0  0  0
  -17.4955  -31.6188   24.5000 H   0  0  0  0  0  0
  -15.5317  -30.2842   23.7409 H   0  0  0  0  0  0
  -15.8777  -28.0646   22.6944 H   0  0  0  0  0  0
  -24.5907  -30.7001   25.7813 H   0  0  0  0  0  0
  -24.8820  -32.2853   26.4840 H   0  0  0  0  0  0
  -25.7988  -30.8950   27.0279 H   0  0  0  0  0  0
  -26.2946  -29.6688   24.1295 H   0  0  0  0  0  0
  -27.4060  -29.7193   25.4790 H   0  0  0  0  0  0
  -27.8820  -30.4271   23.9532 H   0  0  0  0  0  0
  -27.2753  -33.3628   26.1988 H   0  0  0  0  0  0
  -28.3843  -32.6761   25.0217 H   0  0  0  0  0  0
  -28.0798  -31.8450   26.5385 H   0  0  0  0  0  0
  -28.2616  -38.0075   24.7520 H   0  0  0  0  0  0
  -28.1049  -36.2613   24.6288 H   0  0  0  0  0  0
  -27.2373  -37.1413   25.8927 H   0  0  0  0  0  0
  -20.9606  -29.8834   21.6902 H   0  0  0  0  0  0
  -26.0203  -38.2871   24.1352 H   0  0  0  0  0  0
  -27.9855  -20.1613   19.0632 H   0  0  0  0  0  0
  -28.2134  -17.7147   19.0352 H   0  0  0  0  0  0
  -31.2258  -17.9192   22.0526 H   0  0  0  0  0  0
  -28.4366  -24.2876   18.0494 H   0  0  0  0  0  0
  -28.6733  -22.5477   18.0270 H   0  0  0  0  0  0
  -29.9753  -23.5955   18.5496 H   0  0  0  0  0  0
  -26.8734  -21.9401   19.2900 H   0  0  0  0  0  0
  -26.1976  -23.4731   19.7557 H   0  0  0  0  0  0
  -26.7260  -22.3200   20.9839 H   0  0  0  0  0  0
  -30.3558  -22.5865   20.6412 H   0  0  0  0  0  0
  -29.1524  -22.3452   21.8461 H   0  0  0  0  0  0
  -29.1005  -24.8904   21.4363 H   0  0  0  0  0  0
  -27.3949  -24.8484   21.3935 H   0  0  0  0  0  0
  -31.2087  -21.5443   22.2995 H   0  0  0  0  0  0
  -32.0314  -20.1062   22.7265 H   0  0  0  0  0  0
  -28.7258  -15.6807   20.6120 H   0  0  0  0  0  0
  1 25  1  0  0  0
  1 30  2  0  0  0
  1 83  1  0  0  0
  2  3  1  0  0  0
  2 25  1  0  0  0
  2 84  1  0  0  0
  2 85  1  0  0  0
  3  4  1  0  0  0
  3 86  1  0  0  0
  3 87  1  0  0  0
  4  5  1  0  0  0
  4 88  1  0  0  0
  4 89  1  0  0  0
  5  6  1  0  0  0
  5 26  1  0  0  0
  5 90  1  0  0  0
  6 25  1  0  0  0
  6 91  1  0  0  0
  6 92  1  0  0  0
  7  8  2  0  0  0
  7 26  1  0  0  0
  7 29  1  0  0  0
  8  9  1  0  0  0
  8 22  1  0  0  0
  9 10  1  0  0  0
  9 27  2  0  0  0
 10 11  2  0  0  0
 10 15  1  0  0  0
 11 12  1  0  0  0
 11 93  1  0  0  0
 12 13  2  0  0  0
 12 94  1  0  0  0
 13 14  1  0  0  0
 13 31  1  0  0  0
 14 15  2  0  0  0
 14 95  1  0  0  0
 15 96  1  0  0  0
 16 17  2  0  0  0
 16 21  1  0  0  0
 16 31  1  0  0  0
 17 18  1  0  0  0
 17 97  1  0  0  0
 18 19  2  0  0  0
 18 98  1  0  0  0
 19 20  1  0  0  0
 19 24  1  0  0  0
 20 21  2  0  0  0
 20 99  1  0  0  0
 21 23  1  0  0  0
 22 28  1  0  0  0
 22 32  2  0  0  0
 26 27  1  0  0  0
 28100  1  0  0  0
 28101  1  0  0  0
 29102  1  0  0  0
 29103  1  0  0  0
 33 34  1  0  0  0
 33 66  1  0  0  0
 33 70  2  0  0  0
 34 36  1  0  0  0
 34 59  1  0  0  0
 34104  1  0  0  0
 35 44  2  0  0  0
 35 45  1  0  0  0
 35 68  1  0  0  0
 36 56  1  0  0  0
 36105  1  0  0  0
 37 39  1  0  0  0
 37 47  1  0  0  0
 37 66  1  0  0  0
 37106  1  0  0  0
 38 43  2  0  0  0
 38 46  1  0  0  0
 38 47  1  0  0  0
 39 64  1  0  0  0
 39 67  2  0  0  0
 40 52  1  0  0  0
 40 53  2  0  0  0
 40 58  1  0  0  0
 41107  1  0  0  0
 41108  1  0  0  0
 41109  1  0  0  0
 41 48  1  0  0  0
 42 43  1  0  0  0
 42 66  1  0  0  0
 42110  1  0  0  0
 42111  1  0  0  0
 43 44  1  0  0  0
 44112  1  0  0  0
 45 46  2  0  0  0
 45113  1  0  0  0
 46114  1  0  0  0
 47115  1  0  0  0
 47116  1  0  0  0
 48 56  1  0  0  0
 48 65  1  0  0  0
 48117  1  0  0  0
 49 50  1  0  0  0
 49 53  1  0  0  0
 49 64  1  0  0  0
 49118  1  0  0  0
 50 51  1  0  0  0
 50119  1  0  0  0
 50120  1  0  0  0
 51 52  1  0  0  0
 51121  1  0  0  0
 51122  1  0  0  0
 52123  1  0  0  0
 52124  1  0  0  0
 53 54  1  0  0  0
 54 55  2  0  0  0
 54125  1  0  0  0
 55 57  1  0  0  0
 55126  1  0  0  0
 56 69  2  0  0  0
 57 58  2  0  0  0
 57127  1  0  0  0
 58128  1  0  0  0
 59 60  1  0  0  0
 59 61  1  0  0  0
 59 62  1  0  0  0
 60129  1  0  0  0
 60130  1  0  0  0
 60131  1  0  0  0
 61132  1  0  0  0
 61133  1  0  0  0
 61134  1  0  0  0
 62135  1  0  0  0
 62136  1  0  0  0
 62137  1  0  0  0
 63 65  1  0  0  0
 63138  1  0  0  0
 63139  1  0  0  0
 63140  1  0  0  0
 64141  1  0  0  0
 65142  1  0  0  0
 68 80  1  0  0  0
 71 72  2  0  0  0
 71 74  1  0  0  0
 71143  1  0  0  0
 72 75  1  0  0  0
 72144  1  0  0  0
 73 75  2  0  0  0
 73 76  1  0  0  0
 73145  1  0  0  0
 74 76  2  0  0  0
 74 79  1  0  0  0
 75 83  1  0  0  0
 76 82  1  0  0  0
 77146  1  0  0  0
 77147  1  0  0  0
 77148  1  0  0  0
 77 81  1  0  0  0
 78 81  1  0  0  0
 78149  1  0  0  0
 78150  1  0  0  0
 78151  1  0  0  0
 79 81  1  0  0  0
 79152  1  0  0  0
 79153  1  0  0  0
 80 81  1  0  0  0
 80154  1  0  0  0
 80155  1  0  0  0
 82156  1  0  0  0
 82157  1  0  0  0
 83158  1  0  0  0
M  ISO  4   1 100  68 101  80 101  83 100
M  END
> <chiral flag>
0

> <version>
0

> <s_m_source_file>
/data/baiqing/PycharmProjects/Reinvent-master-3.2/result/LINK_invent/BTK/process_docking_weight1_custom_product_contain_oxygen_bond_distance_aromatic_linkinvent_7_9_3/rearranged_h_0074.sdf

> <i_m_source_file_index>
51

> <r_mmod_Potential_Energy-OPLS-2005>
436.2373046875

> <r_mmod_Stretch_Energy-OPLS-2005>
192.89485168457

> <r_mmod_Bend_Energy-OPLS-2005>
268.723022460938

> <r_mmod_Torsional_Energy-OPLS-2005>
273.420745849609

> <r_mmod_Improper_Torsional_Energy-OPLS-2005>
7.04542875289917

> <r_mmod_Van_der_Waal_Energy-OPLS-2005>
127.188369750977

> <r_mmod_Electrostatic_Energy-OPLS-2005>
-375.162322998047

> <r_mmod_Solvation_Energy-OPLS-2005>
-212.027526855469

> <b_mmod_Minimization_Converged-OPLS-2005>
0

> <r_mmod_RMS_Derivative-OPLS-2005>
7.00580310821533

$$$$
53
                    3D
 Structure written by MMmdl.
165174  0  0  1  0            999 V2000
  -30.6310  -14.7356   20.4752 C   0  0  0  0  0  0
  -30.4214  -12.4523   19.4780 C   0  0  0  0  0  0
  -29.5001  -12.4966   18.2393 C   0  0  0  0  0  0
  -28.0300  -12.3180   18.6545 C   0  0  0  0  0  0
  -27.6327  -13.2322   19.8429 C   0  0  2  0  0  0
  -28.6741  -13.1863   20.9826 C   0  0  0  0  0  0
  -25.2470  -13.8210   20.5680 C   0  0  0  0  0  0
  -24.1770  -13.0451   20.9209 C   0  0  0  0  0  0
  -24.6373  -11.6924   20.8744 C   0  0  0  0  0  0
  -23.9056  -10.4288   21.0408 C   0  0  0  0  0  0
  -24.3604   -9.4212   21.9187 C   0  0  0  0  0  0
  -23.6286   -8.2233   22.0755 C   0  0  0  0  0  0
  -22.4267   -8.0269   21.3544 C   0  0  0  0  0  0
  -21.9905   -9.0236   20.4634 C   0  0  0  0  0  0
  -22.7225  -10.2126   20.3047 C   0  0  0  0  0  0
  -21.6848   -6.0724   22.5272 C   0  0  0  0  0  0
  -21.4008   -6.5632   23.8201 C   0  0  0  0  0  0
  -21.3662   -5.6791   24.9164 C   0  0  0  0  0  0
  -21.6035   -4.3057   24.7224 C   0  0  0  0  0  0
  -21.8825   -3.8143   23.4354 C   0  0  0  0  0  0
  -21.9188   -4.6948   22.3401 C   0  0  0  0  0  0
  -22.7797  -13.5221   21.1895 C   0  0  0  0  0  0
  -22.1657   -4.2145   21.0979 F   0  0  0  0  0  0
  -21.5632   -3.4540   25.7735 F   0  0  0  0  0  0
  -29.9765  -13.5258   20.3974 N   0  0  0  0  0  0
  -26.2874  -12.9412   20.3258 N   0  0  0  0  0  0
  -25.9302  -11.6556   20.5766 N   0  0  0  0  0  0
  -22.0444  -12.8187   22.0441 N   0  0  0  0  0  0
  -25.4176  -15.1928   20.4089 N   0  0  0  0  0  0
  -31.8231  -14.7850   20.1612 O   0  0  0  0  0  0
  -21.6630   -6.8865   21.4235 O   0  0  0  0  0  0
  -22.3454  -14.5517   20.6727 O   0  0  0  0  0  0
  -24.6307  -31.8545   23.1948 C   0  0  0  0  0  0
  -25.9157  -32.4728   23.8299 C   0  0  1  0  0  0
  -27.2174  -27.2262   20.1739 C   0  0  0  0  0  0
  -25.5995  -33.8529   24.2244 N   0  0  0  0  0  0
  -23.4314  -30.4741   21.5365 C   0  0  2  0  0  0
  -24.8806  -28.9087   20.1244 C   0  0  0  0  0  0
  -22.7506  -29.4608   22.4866 C   0  0  0  0  0  0
  -18.0282  -28.1403   22.8455 C   0  0  0  0  0  0
  -24.1485  -36.7251   23.2650 C   0  0  0  0  0  0
  -25.9774  -30.7545   21.3857 C   0  0  0  0  0  0
  -26.0509  -29.3678   20.7437 C   0  0  0  0  0  0
  -27.2229  -28.5405   20.7580 C   0  0  0  0  0  0
  -26.0333  -26.8476   19.5116 C   0  0  0  0  0  0
  -24.8781  -27.6525   19.5000 C   0  0  0  0  0  0
  -23.6567  -29.8079   20.1548 C   0  0  0  0  0  0
  -25.4123  -36.3024   24.0336 C   0  0  1  0  0  0
  -20.5898  -28.3728   23.1254 C   0  0  2  0  0  0
  -20.6771  -26.9450   22.5400 C   0  0  0  0  0  0
  -19.5745  -26.6375   21.5208 C   0  0  0  0  0  0
  -18.1909  -26.7930   22.1601 C   0  0  0  0  0  0
  -19.1540  -28.8886   23.2824 C   0  0  0  0  0  0
  -18.9477  -30.1482   23.8852 C   0  0  0  0  0  0
  -17.6495  -30.6619   24.0572 C   0  0  0  0  0  0
  -25.9102  -34.9416   23.5085 C   0  0  0  0  0  0
  -16.5385  -29.9125   23.6369 C   0  0  0  0  0  0
  -16.7276  -28.6547   23.0363 C   0  0  0  0  0  0
  -26.4518  -31.6567   25.0709 C   0  0  0  0  0  0
  -25.3740  -31.3771   26.1431 C   0  0  0  0  0  0
  -27.0432  -30.3000   24.6259 C   0  0  0  0  0  0
  -27.6022  -32.4353   25.7517 C   0  0  0  0  0  0
  -27.5568  -37.1752   24.8467 C   0  0  0  0  0  0
  -21.4217  -29.3062   22.3632 N   0  0  0  0  0  0
  -26.4269  -37.3746   23.9453 N   0  0  0  0  0  0
  -24.6989  -31.0482   22.0949 N   0  0  0  0  0  0
  -23.4196  -28.8154   23.2986 O   0  0  0  0  0  0
  -28.3283  -26.3557   20.0882 O   0  0  0  0  0  0
  -26.5614  -34.8907   22.4624 O   0  0  0  0  0  0
  -23.5462  -32.1399   23.7238 O   0  0  0  0  0  0
  -32.0657  -18.9728   21.2557 C   0  0  0  0  0  0
  -31.6461  -17.6477   21.0510 C   0  0  0  0  0  0
  -29.4020  -18.4825   20.6948 C   0  0  0  0  0  0
  -31.1794  -20.0709   21.2224 C   0  0  0  0  0  0
  -29.8037  -19.8853   20.8802 C   0  0  0  0  0  0
  -30.2964  -17.3315   20.7835 C   0  0  0  0  0  0
  -26.6656  -21.7901   21.9836 C   0  0  0  0  0  0
  -29.0281  -22.3572   20.3994 C   0  0  0  0  0  0
  -25.3861  -21.5985   22.3492 C   0  0  0  0  0  0
  -27.3467  -23.1401   22.0797 C   0  0  0  0  0  0
  -27.4996  -20.6720   21.3807 C   0  0  0  0  0  0
  -27.9962  -23.5627   20.7327 C   0  0  2  0  0  0
  -31.7695  -21.4029   21.6646 C   0  0  0  0  0  0
  -26.9297  -23.5543   19.6198 C   0  0  0  0  0  0
  -28.5239  -25.1180   20.9415 C   0  0  0  0  0  0
  -28.8387  -21.0422   20.8822 N   0  0  0  0  0  0
  -29.8850  -15.8994   20.6635 N   0  0  0  0  0  0
  -29.9700  -22.6360   19.6500 O   0  0  0  0  0  0
  -31.4614  -12.5695   19.1722 H   0  0  0  0  0  0
  -30.3655  -11.4800   19.9713 H   0  0  0  0  0  0
  -29.7838  -11.7189   17.5274 H   0  0  0  0  0  0
  -29.6225  -13.4493   17.7206 H   0  0  0  0  0  0
  -27.8921  -11.2722   18.9341 H   0  0  0  0  0  0
  -27.3703  -12.4907   17.8052 H   0  0  0  0  0  0
  -27.6220  -14.2463   19.4477 H   0  0  0  0  0  0
  -28.7043  -12.1986   21.4418 H   0  0  0  0  0  0
  -28.4091  -13.8858   21.7761 H   0  0  0  0  0  0
  -25.2740   -9.5676   22.4777 H   0  0  0  0  0  0
  -23.9984   -7.4619   22.7470 H   0  0  0  0  0  0
  -21.0844   -8.8749   19.8927 H   0  0  0  0  0  0
  -22.3687  -10.9661   19.6154 H   0  0  0  0  0  0
  -21.2003   -7.6130   23.9704 H   0  0  0  0  0  0
  -21.1478   -6.0516   25.9064 H   0  0  0  0  0  0
  -22.0604   -2.7604   23.2849 H   0  0  0  0  0  0
  -22.4073  -11.9847   22.4812 H   0  0  0  0  0  0
  -21.1069  -13.1203   22.2683 H   0  0  0  0  0  0
  -24.6508  -15.8494   20.5038 H   0  0  0  0  0  0
  -26.2683  -15.6273   20.0771 H   0  0  0  0  0  0
  -26.7230  -32.5398   23.1031 H   0  0  0  0  0  0
  -25.0182  -33.9632   25.0428 H   0  0  0  0  0  0
  -22.7319  -31.2995   21.3860 H   0  0  0  0  0  0
  -23.3750  -35.9567   23.3289 H   0  0  0  0  0  0
  -24.3580  -36.8913   22.2063 H   0  0  0  0  0  0
  -23.7236  -37.6450   23.6707 H   0  0  0  0  0  0
  -26.1315  -31.5080   20.6131 H   0  0  0  0  0  0
  -26.8490  -30.8015   22.0243 H   0  0  0  0  0  0
  -28.1268  -28.9001   21.2271 H   0  0  0  0  0  0
  -25.9952  -25.9188   18.9692 H   0  0  0  0  0  0
  -23.9893  -27.2997   18.9935 H   0  0  0  0  0  0
  -23.7985  -30.5864   19.4038 H   0  0  0  0  0  0
  -22.7731  -29.2490   19.8372 H   0  0  0  0  0  0
  -25.1268  -36.1835   25.0817 H   0  0  0  0  0  0
  -20.9963  -28.3305   24.1393 H   0  0  0  0  0  0
  -20.5726  -26.2337   23.3598 H   0  0  0  0  0  0
  -21.6623  -26.7461   22.1178 H   0  0  0  0  0  0
  -19.6937  -25.6268   21.1291 H   0  0  0  0  0  0
  -19.6723  -27.3140   20.6706 H   0  0  0  0  0  0
  -17.4191  -26.6712   21.3981 H   0  0  0  0  0  0
  -18.0278  -26.0080   22.8999 H   0  0  0  0  0  0
  -19.7979  -30.7269   24.2198 H   0  0  0  0  0  0
  -17.5084  -31.6292   24.5159 H   0  0  0  0  0  0
  -15.5401  -30.3020   23.7736 H   0  0  0  0  0  0
  -15.8649  -28.0875   22.7107 H   0  0  0  0  0  0
  -24.5906  -30.7123   25.7784 H   0  0  0  0  0  0
  -24.8942  -32.2958   26.4786 H   0  0  0  0  0  0
  -25.8003  -30.9005   27.0266 H   0  0  0  0  0  0
  -26.3047  -29.6676   24.1313 H   0  0  0  0  0  0
  -27.4174  -29.7311   25.4787 H   0  0  0  0  0  0
  -27.8882  -30.4293   23.9505 H   0  0  0  0  0  0
  -27.2574  -33.3682   26.1984 H   0  0  0  0  0  0
  -28.3867  -32.6883   25.0379 H   0  0  0  0  0  0
  -28.0648  -31.8593   26.5530 H   0  0  0  0  0  0
  -28.2491  -38.0120   24.7555 H   0  0  0  0  0  0
  -28.1126  -36.2644   24.6193 H   0  0  0  0  0  0
  -27.2292  -37.1275   25.8862 H   0  0  0  0  0  0
  -20.9400  -29.8823   21.6875 H   0  0  0  0  0  0
  -26.0126  -38.2808   24.1493 H   0  0  0  0  0  0
  -33.1058  -19.1406   21.4974 H   0  0  0  0  0  0
  -32.3944  -16.8772   21.1471 H   0  0  0  0  0  0
  -28.3589  -18.2693   20.4968 H   0  0  0  0  0  0
  -24.7844  -22.4012   22.7515 H   0  0  0  0  0  0
  -24.9081  -20.6350   22.2438 H   0  0  0  0  0  0
  -28.1138  -23.0689   22.8553 H   0  0  0  0  0  0
  -26.6313  -23.8838   22.4307 H   0  0  0  0  0  0
  -26.9402  -20.2299   20.5553 H   0  0  0  0  0  0
  -27.5961  -19.9055   22.1525 H   0  0  0  0  0  0
  -32.5949  -21.2444   22.3586 H   0  0  0  0  0  0
  -31.0482  -22.0209   22.1972 H   0  0  0  0  0  0
  -32.1655  -21.9573   20.8130 H   0  0  0  0  0  0
  -26.6727  -22.5421   19.3044 H   0  0  0  0  0  0
  -27.2791  -24.0845   18.7325 H   0  0  0  0  0  0
  -26.0057  -24.0164   19.9663 H   0  0  0  0  0  0
  -29.6089  -25.0334   20.9938 H   0  0  0  0  0  0
  -28.2690  -25.4367   21.9523 H   0  0  0  0  0  0
  -28.8912  -15.7371   20.7130 H   0  0  0  0  0  0
  1 25  1  0  0  0
  1 30  2  0  0  0
  1 87  1  0  0  0
  2  3  1  0  0  0
  2 25  1  0  0  0
  2 89  1  0  0  0
  2 90  1  0  0  0
  3  4  1  0  0  0
  3 91  1  0  0  0
  3 92  1  0  0  0
  4  5  1  0  0  0
  4 93  1  0  0  0
  4 94  1  0  0  0
  5  6  1  0  0  0
  5 26  1  0  0  0
  5 95  1  0  0  0
  6 25  1  0  0  0
  6 96  1  0  0  0
  6 97  1  0  0  0
  7  8  2  0  0  0
  7 26  1  0  0  0
  7 29  1  0  0  0
  8  9  1  0  0  0
  8 22  1  0  0  0
  9 10  1  0  0  0
  9 27  2  0  0  0
 10 11  2  0  0  0
 10 15  1  0  0  0
 11 12  1  0  0  0
 11 98  1  0  0  0
 12 13  2  0  0  0
 12 99  1  0  0  0
 13 14  1  0  0  0
 13 31  1  0  0  0
 14 15  2  0  0  0
 14100  1  0  0  0
 15101  1  0  0  0
 16 17  2  0  0  0
 16 21  1  0  0  0
 16 31  1  0  0  0
 17 18  1  0  0  0
 17102  1  0  0  0
 18 19  2  0  0  0
 18103  1  0  0  0
 19 20  1  0  0  0
 19 24  1  0  0  0
 20 21  2  0  0  0
 20104  1  0  0  0
 21 23  1  0  0  0
 22 28  1  0  0  0
 22 32  2  0  0  0
 26 27  1  0  0  0
 28105  1  0  0  0
 28106  1  0  0  0
 29107  1  0  0  0
 29108  1  0  0  0
 33 34  1  0  0  0
 33 66  1  0  0  0
 33 70  2  0  0  0
 34 36  1  0  0  0
 34 59  1  0  0  0
 34109  1  0  0  0
 35 44  2  0  0  0
 35 45  1  0  0  0
 35 68  1  0  0  0
 36 56  1  0  0  0
 36110  1  0  0  0
 37 39  1  0  0  0
 37 47  1  0  0  0
 37 66  1  0  0  0
 37111  1  0  0  0
 38 43  2  0  0  0
 38 46  1  0  0  0
 38 47  1  0  0  0
 39 64  1  0  0  0
 39 67  2  0  0  0
 40 52  1  0  0  0
 40 53  2  0  0  0
 40 58  1  0  0  0
 41112  1  0  0  0
 41113  1  0  0  0
 41114  1  0  0  0
 41 48  1  0  0  0
 42 43  1  0  0  0
 42 66  1  0  0  0
 42115  1  0  0  0
 42116  1  0  0  0
 43 44  1  0  0  0
 44117  1  0  0  0
 45 46  2  0  0  0
 45118  1  0  0  0
 46119  1  0  0  0
 47120  1  0  0  0
 47121  1  0  0  0
 48 56  1  0  0  0
 48 65  1  0  0  0
 48122  1  0  0  0
 49 50  1  0  0  0
 49 53  1  0  0  0
 49 64  1  0  0  0
 49123  1  0  0  0
 50 51  1  0  0  0
 50124  1  0  0  0
 50125  1  0  0  0
 51 52  1  0  0  0
 51126  1  0  0  0
 51127  1  0  0  0
 52128  1  0  0  0
 52129  1  0  0  0
 53 54  1  0  0  0
 54 55  2  0  0  0
 54130  1  0  0  0
 55 57  1  0  0  0
 55131  1  0  0  0
 56 69  2  0  0  0
 57 58  2  0  0  0
 57132  1  0  0  0
 58133  1  0  0  0
 59 60  1  0  0  0
 59 61  1  0  0  0
 59 62  1  0  0  0
 60134  1  0  0  0
 60135  1  0  0  0
 60136  1  0  0  0
 61137  1  0  0  0
 61138  1  0  0  0
 61139  1  0  0  0
 62140  1  0  0  0
 62141  1  0  0  0
 62142  1  0  0  0
 63 65  1  0  0  0
 63143  1  0  0  0
 63144  1  0  0  0
 63145  1  0  0  0
 64146  1  0  0  0
 65147  1  0  0  0
 68 85  1  0  0  0
 71 72  2  0  0  0
 71 74  1  0  0  0
 71148  1  0  0  0
 72 76  1  0  0  0
 72149  1  0  0  0
 73 75  1  0  0  0
 73 76  2  0  0  0
 73150  1  0  0  0
 74 75  2  0  0  0
 74 83  1  0  0  0
 75 86  1  0  0  0
 76 87  1  0  0  0
 77 79  2  0  0  0
 77 80  1  0  0  0
 77 81  1  0  0  0
 78 82  1  0  0  0
 78 86  1  0  0  0
 78 88  2  0  0  0
 79151  1  0  0  0
 79152  1  0  0  0
 80 82  1  0  0  0
 80153  1  0  0  0
 80154  1  0  0  0
 81 86  1  0  0  0
 81155  1  0  0  0
 81156  1  0  0  0
 82 84  1  0  0  0
 82 85  1  0  0  0
 83157  1  0  0  0
 83158  1  0  0  0
 83159  1  0  0  0
 84160  1  0  0  0
 84161  1  0  0  0
 84162  1  0  0  0
 85163  1  0  0  0
 85164  1  0  0  0
 87165  1  0  0  0
M  ISO  4   1 100  68 101  85 101  87 100
M  END
> <chiral flag>
0

> <version>
0

> <s_m_source_file>
/data/baiqing/PycharmProjects/Reinvent-master-3.2/result/LINK_invent/BTK/process_docking_weight1_custom_product_contain_oxygen_bond_distance_aromatic_linkinvent_7_9_3/rearranged_h_0074.sdf

> <i_m_source_file_index>
52

> <r_mmod_Potential_Energy-OPLS-2005>
387.421417236328

> <r_mmod_Stretch_Energy-OPLS-2005>
159.20475769043

> <r_mmod_Bend_Energy-OPLS-2005>
214.358535766602

> <r_mmod_Torsional_Energy-OPLS-2005>
308.401397705078

> <r_mmod_Improper_Torsional_Energy-OPLS-2005>
7.0087103843689

> <r_mmod_Van_der_Waal_Energy-OPLS-2005>
164.384460449219

> <r_mmod_Electrostatic_Energy-OPLS-2005>
-335.855163574219

> <r_mmod_Solvation_Energy-OPLS-2005>
-218.230041503906

> <b_mmod_Minimization_Converged-OPLS-2005>
0

> <r_mmod_RMS_Derivative-OPLS-2005>
4.49834632873535

$$$$
54
                    3D
 Structure written by MMmdl.
156165  0  0  1  0            999 V2000
  -30.6249  -14.9128   20.4353 C   0  0  0  0  0  0
  -30.4187  -12.5834   19.4746 C   0  0  0  0  0  0
  -29.5013  -12.5487   18.2339 C   0  0  0  0  0  0
  -28.0303  -12.3619   18.6476 C   0  0  0  0  0  0
  -27.6238  -13.2655   19.8444 C   0  0  2  0  0  0
  -28.6764  -13.3082   20.9730 C   0  0  0  0  0  0
  -25.2470  -13.8233   20.5951 C   0  0  0  0  0  0
  -24.1769  -13.0405   20.9208 C   0  0  0  0  0  0
  -24.6395  -11.6894   20.8726 C   0  0  0  0  0  0
  -23.9108  -10.4262   21.0388 C   0  0  0  0  0  0
  -24.3635   -9.4161   21.9161 C   0  0  0  0  0  0
  -23.6295   -8.2208   22.0741 C   0  0  0  0  0  0
  -22.4255   -8.0260   21.3544 C   0  0  0  0  0  0
  -21.9912   -9.0254   20.4655 C   0  0  0  0  0  0
  -22.7269  -10.2117   20.3035 C   0  0  0  0  0  0
  -21.6855   -6.0719   22.5256 C   0  0  0  0  0  0
  -21.4048   -6.5642   23.8192 C   0  0  0  0  0  0
  -21.3670   -5.6798   24.9157 C   0  0  0  0  0  0
  -21.6041   -4.3054   24.7202 C   0  0  0  0  0  0
  -21.8836   -3.8136   23.4329 C   0  0  0  0  0  0
  -21.9196   -4.6948   22.3385 C   0  0  0  0  0  0
  -22.7794  -13.5171   21.1860 C   0  0  0  0  0  0
  -22.1663   -4.2144   21.0965 F   0  0  0  0  0  0
  -21.5580   -3.4546   25.7718 F   0  0  0  0  0  0
  -29.9523  -13.6945   20.3582 N   0  0  0  0  0  0
  -26.2895  -12.9497   20.3389 N   0  0  0  0  0  0
  -25.9335  -11.6589   20.5732 N   0  0  0  0  0  0
  -22.0494  -12.8165   22.0440 N   0  0  0  0  0  0
  -25.4200  -15.1999   20.4839 N   0  0  0  0  0  0
  -31.8051  -14.9130   20.0740 O   0  0  0  0  0  0
  -21.6638   -6.8857   21.4217 O   0  0  0  0  0  0
  -22.3458  -14.5458   20.6702 O   0  0  0  0  0  0
  -24.6433  -31.8459   23.1870 C   0  0  0  0  0  0
  -25.9200  -32.4698   23.8304 C   0  0  1  0  0  0
  -27.2170  -27.1497   20.1429 C   0  0  0  0  0  0
  -25.5957  -33.8504   24.2218 N   0  0  0  0  0  0
  -23.4480  -30.4606   21.5316 C   0  0  2  0  0  0
  -24.8945  -28.8908   20.1044 C   0  0  0  0  0  0
  -22.7611  -29.4529   22.4869 C   0  0  0  0  0  0
  -18.0327  -28.1383   22.8471 C   0  0  0  0  0  0
  -24.1477  -36.7264   23.2642 C   0  0  0  0  0  0
  -26.0011  -30.7197   21.3869 C   0  0  0  0  0  0
  -26.0679  -29.3325   20.7258 C   0  0  0  0  0  0
  -27.2265  -28.4739   20.7357 C   0  0  0  0  0  0
  -26.0109  -26.7946   19.4997 C   0  0  0  0  0  0
  -24.8755  -27.6341   19.4774 C   0  0  0  0  0  0
  -23.6717  -29.7922   20.1492 C   0  0  0  0  0  0
  -25.4102  -36.3039   24.0333 C   0  0  1  0  0  0
  -20.5937  -28.3713   23.1239 C   0  0  2  0  0  0
  -20.6793  -26.9418   22.5424 C   0  0  0  0  0  0
  -19.5758  -26.6358   21.5230 C   0  0  0  0  0  0
  -18.1947  -26.7915   22.1631 C   0  0  0  0  0  0
  -19.1579  -28.8881   23.2833 C   0  0  0  0  0  0
  -18.9485  -30.1465   23.8867 C   0  0  0  0  0  0
  -17.6482  -30.6573   24.0547 C   0  0  0  0  0  0
  -25.9051  -34.9417   23.5084 C   0  0  0  0  0  0
  -16.5385  -29.9055   23.6316 C   0  0  0  0  0  0
  -16.7320  -28.6480   23.0349 C   0  0  0  0  0  0
  -26.4485  -31.6570   25.0762 C   0  0  0  0  0  0
  -25.3673  -31.3844   26.1506 C   0  0  0  0  0  0
  -27.0318  -30.2945   24.6372 C   0  0  0  0  0  0
  -27.6033  -32.4341   25.7532 C   0  0  0  0  0  0
  -27.5580  -37.1774   24.8452 C   0  0  0  0  0  0
  -21.4307  -29.3041   22.3634 N   0  0  0  0  0  0
  -26.4254  -37.3763   23.9448 N   0  0  0  0  0  0
  -24.7175  -31.0328   22.0894 N   0  0  0  0  0  0
  -23.4272  -28.8096   23.3017 O   0  0  0  0  0  0
  -28.2512  -26.1604   20.2971 O   0  0  0  0  0  0
  -26.5651  -34.8911   22.4658 O   0  0  0  0  0  0
  -23.5552  -32.1346   23.7084 O   0  0  0  0  0  0
  -28.3177  -18.1145   18.1402 C   0  0  0  0  0  0
  -28.3808  -19.4681   18.5305 C   0  0  0  0  0  0
  -28.8759  -17.0737   18.9008 C   0  0  0  0  0  0
  -29.5214  -18.7885   20.5034 C   0  0  0  0  0  0
  -28.9742  -19.9435   19.7325 C   0  0  0  0  0  0
  -29.5136  -17.3382   20.1244 C   0  0  0  0  0  0
  -28.6451  -23.5888   19.7321 C   0  0  0  0  0  0
  -28.6745  -22.5764   20.8269 C   0  0  0  0  0  0
  -28.4377  -24.9753   19.4741 C   0  0  0  0  0  0
  -28.9590  -22.4169   18.7580 C   0  0  0  0  0  0
  -28.5894  -25.4180   18.0261 C   0  0  0  0  0  0
  -30.6431  -16.5414   22.1941 C   0  0  0  0  0  0
  -28.9303  -21.4775   19.9138 N   0  0  0  0  0  0
  -30.0558  -16.1383   20.9054 N   0  0  0  0  0  0
  -28.4727  -22.6898   22.0195 O   0  0  0  0  0  0
  -31.4562  -12.6907   19.1486 H   0  0  0  0  0  0
  -30.3892  -11.6383   20.0205 H   0  0  0  0  0  0
  -29.8078  -11.7450   17.5642 H   0  0  0  0  0  0
  -29.6070  -13.4755   17.6631 H   0  0  0  0  0  0
  -27.8741  -11.3107   18.8897 H   0  0  0  0  0  0
  -27.3784  -12.5742   17.7986 H   0  0  0  0  0  0
  -27.5674  -14.2740   19.4349 H   0  0  0  0  0  0
  -28.7569  -12.3454   21.4776 H   0  0  0  0  0  0
  -28.3858  -14.0352   21.7334 H   0  0  0  0  0  0
  -25.2792   -9.5593   22.4739 H   0  0  0  0  0  0
  -24.0024   -7.4588   22.7441 H   0  0  0  0  0  0
  -21.0830   -8.8799   19.8946 H   0  0  0  0  0  0
  -22.3766  -10.9662   19.6133 H   0  0  0  0  0  0
  -21.2097   -7.6163   23.9696 H   0  0  0  0  0  0
  -21.1472   -6.0529   25.9060 H   0  0  0  0  0  0
  -22.0611   -2.7599   23.2843 H   0  0  0  0  0  0
  -22.4220  -11.9930   22.4965 H   0  0  0  0  0  0
  -21.1074  -13.1121   22.2603 H   0  0  0  0  0  0
  -24.6670  -15.8390   20.7063 H   0  0  0  0  0  0
  -26.3255  -15.6490   20.4691 H   0  0  0  0  0  0
  -26.7288  -32.5283   23.1058 H   0  0  0  0  0  0
  -25.0066  -33.9615   25.0350 H   0  0  0  0  0  0
  -22.7450  -31.2815   21.3786 H   0  0  0  0  0  0
  -23.3762  -35.9554   23.3204 H   0  0  0  0  0  0
  -24.3604  -36.8990   22.2074 H   0  0  0  0  0  0
  -23.7168  -37.6407   23.6739 H   0  0  0  0  0  0
  -26.1596  -31.4701   20.6119 H   0  0  0  0  0  0
  -26.8710  -30.7698   22.0306 H   0  0  0  0  0  0
  -28.1130  -28.7889   21.2672 H   0  0  0  0  0  0
  -25.9090  -25.8111   19.0592 H   0  0  0  0  0  0
  -23.9707  -27.2828   18.9980 H   0  0  0  0  0  0
  -23.8164  -30.5614   19.3898 H   0  0  0  0  0  0
  -22.7857  -29.2357   19.8403 H   0  0  0  0  0  0
  -25.1251  -36.1861   25.0810 H   0  0  0  0  0  0
  -21.0004  -28.3295   24.1377 H   0  0  0  0  0  0
  -20.5689  -26.2339   23.3651 H   0  0  0  0  0  0
  -21.6658  -26.7445   22.1229 H   0  0  0  0  0  0
  -19.6920  -25.6264   21.1276 H   0  0  0  0  0  0
  -19.6630  -27.3134   20.6722 H   0  0  0  0  0  0
  -17.4211  -26.6699   21.4028 H   0  0  0  0  0  0
  -18.0312  -26.0084   22.9033 H   0  0  0  0  0  0
  -19.7961  -30.7303   24.2228 H   0  0  0  0  0  0
  -17.5030  -31.6244   24.5165 H   0  0  0  0  0  0
  -15.5376  -30.2937   23.7648 H   0  0  0  0  0  0
  -15.8717  -28.0772   22.7106 H   0  0  0  0  0  0
  -24.5652  -30.7432   25.7843 H   0  0  0  0  0  0
  -24.9114  -32.3092   26.5060 H   0  0  0  0  0  0
  -25.7915  -30.8852   27.0234 H   0  0  0  0  0  0
  -26.2938  -29.6704   24.1339 H   0  0  0  0  0  0
  -27.3850  -29.7220   25.4963 H   0  0  0  0  0  0
  -27.8868  -30.4148   23.9720 H   0  0  0  0  0  0
  -27.2640  -33.3649   26.2114 H   0  0  0  0  0  0
  -28.3823  -32.6944   25.0338 H   0  0  0  0  0  0
  -28.0748  -31.8509   26.5469 H   0  0  0  0  0  0
  -28.2536  -38.0135   24.7599 H   0  0  0  0  0  0
  -28.1135  -36.2690   24.6096 H   0  0  0  0  0  0
  -27.2377  -37.1206   25.8870 H   0  0  0  0  0  0
  -20.9561  -29.8733   21.6767 H   0  0  0  0  0  0
  -26.0117  -38.2812   24.1495 H   0  0  0  0  0  0
  -27.8115  -17.8762   17.2174 H   0  0  0  0  0  0
  -27.9216  -20.1536   17.8342 H   0  0  0  0  0  0
  -28.7854  -16.0617   18.5290 H   0  0  0  0  0  0
  -30.0106  -19.0400   21.4329 H   0  0  0  0  0  0
  -29.9466  -22.4153   18.2920 H   0  0  0  0  0  0
  -28.1921  -22.2484   18.0034 H   0  0  0  0  0  0
  -27.8952  -24.8765   17.3821 H   0  0  0  0  0  0
  -29.6038  -25.2083   17.6821 H   0  0  0  0  0  0
  -28.4162  -26.4848   17.8919 H   0  0  0  0  0  0
  -29.8864  -16.9518   22.8651 H   0  0  0  0  0  0
  -31.4065  -17.3048   22.0374 H   0  0  0  0  0  0
  -31.1475  -15.7309   22.7238 H   0  0  0  0  0  0
  1 25  1  0  0  0
  1 30  2  0  0  0
  1 84  1  0  0  0
  2  3  1  0  0  0
  2 25  1  0  0  0
  2 86  1  0  0  0
  2 87  1  0  0  0
  3  4  1  0  0  0
  3 88  1  0  0  0
  3 89  1  0  0  0
  4  5  1  0  0  0
  4 90  1  0  0  0
  4 91  1  0  0  0
  5  6  1  0  0  0
  5 26  1  0  0  0
  5 92  1  0  0  0
  6 25  1  0  0  0
  6 93  1  0  0  0
  6 94  1  0  0  0
  7  8  2  0  0  0
  7 26  1  0  0  0
  7 29  1  0  0  0
  8  9  1  0  0  0
  8 22  1  0  0  0
  9 10  1  0  0  0
  9 27  2  0  0  0
 10 11  2  0  0  0
 10 15  1  0  0  0
 11 12  1  0  0  0
 11 95  1  0  0  0
 12 13  2  0  0  0
 12 96  1  0  0  0
 13 14  1  0  0  0
 13 31  1  0  0  0
 14 15  2  0  0  0
 14 97  1  0  0  0
 15 98  1  0  0  0
 16 17  2  0  0  0
 16 21  1  0  0  0
 16 31  1  0  0  0
 17 18  1  0  0  0
 17 99  1  0  0  0
 18 19  2  0  0  0
 18100  1  0  0  0
 19 20  1  0  0  0
 19 24  1  0  0  0
 20 21  2  0  0  0
 20101  1  0  0  0
 21 23  1  0  0  0
 22 28  1  0  0  0
 22 32  2  0  0  0
 26 27  1  0  0  0
 28102  1  0  0  0
 28103  1  0  0  0
 29104  1  0  0  0
 29105  1  0  0  0
 33 34  1  0  0  0
 33 66  1  0  0  0
 33 70  2  0  0  0
 34 36  1  0  0  0
 34 59  1  0  0  0
 34106  1  0  0  0
 35 44  2  0  0  0
 35 45  1  0  0  0
 35 68  1  0  0  0
 36 56  1  0  0  0
 36107  1  0  0  0
 37 39  1  0  0  0
 37 47  1  0  0  0
 37 66  1  0  0  0
 37108  1  0  0  0
 38 43  2  0  0  0
 38 46  1  0  0  0
 38 47  1  0  0  0
 39 64  1  0  0  0
 39 67  2  0  0  0
 40 52  1  0  0  0
 40 53  2  0  0  0
 40 58  1  0  0  0
 41109  1  0  0  0
 41110  1  0  0  0
 41111  1  0  0  0
 41 48  1  0  0  0
 42 43  1  0  0  0
 42 66  1  0  0  0
 42112  1  0  0  0
 42113  1  0  0  0
 43 44  1  0  0  0
 44114  1  0  0  0
 45 46  2  0  0  0
 45115  1  0  0  0
 46116  1  0  0  0
 47117  1  0  0  0
 47118  1  0  0  0
 48 56  1  0  0  0
 48 65  1  0  0  0
 48119  1  0  0  0
 49 50  1  0  0  0
 49 53  1  0  0  0
 49 64  1  0  0  0
 49120  1  0  0  0
 50 51  1  0  0  0
 50121  1  0  0  0
 50122  1  0  0  0
 51 52  1  0  0  0
 51123  1  0  0  0
 51124  1  0  0  0
 52125  1  0  0  0
 52126  1  0  0  0
 53 54  1  0  0  0
 54 55  2  0  0  0
 54127  1  0  0  0
 55 57  1  0  0  0
 55128  1  0  0  0
 56 69  2  0  0  0
 57 58  2  0  0  0
 57129  1  0  0  0
 58130  1  0  0  0
 59 60  1  0  0  0
 59 61  1  0  0  0
 59 62  1  0  0  0
 60131  1  0  0  0
 60132  1  0  0  0
 60133  1  0  0  0
 61134  1  0  0  0
 61135  1  0  0  0
 61136  1  0  0  0
 62137  1  0  0  0
 62138  1  0  0  0
 62139  1  0  0  0
 63 65  1  0  0  0
 63140  1  0  0  0
 63141  1  0  0  0
 63142  1  0  0  0
 64143  1  0  0  0
 65144  1  0  0  0
 68 79  1  0  0  0
 71 72  2  0  0  0
 71 73  1  0  0  0
 71145  1  0  0  0
 72 75  1  0  0  0
 72146  1  0  0  0
 73 76  2  0  0  0
 73147  1  0  0  0
 74 75  2  0  0  0
 74 76  1  0  0  0
 74148  1  0  0  0
 75 83  1  0  0  0
 76 84  1  0  0  0
 77 78  1  0  0  0
 77 79  2  0  0  0
 77 80  1  0  0  0
 78 83  1  0  0  0
 78 85  2  0  0  0
 79 81  1  0  0  0
 80 83  1  0  0  0
 80149  1  0  0  0
 80150  1  0  0  0
 81151  1  0  0  0
 81152  1  0  0  0
 81153  1  0  0  0
 82 84  1  0  0  0
 82154  1  0  0  0
 82155  1  0  0  0
 82156  1  0  0  0
M  ISO  4   1 100  68 101  79 101  84 100
M  END
> <chiral flag>
0

> <version>
0

> <s_m_source_file>
/data/baiqing/PycharmProjects/Reinvent-master-3.2/result/LINK_invent/BTK/process_docking_weight1_custom_product_contain_oxygen_bond_distance_aromatic_linkinvent_7_9_3/rearranged_h_0074.sdf

> <i_m_source_file_index>
53

> <r_mmod_Potential_Energy-OPLS-2005>
718.958740234375

> <r_mmod_Stretch_Energy-OPLS-2005>
218.813888549805

> <r_mmod_Bend_Energy-OPLS-2005>
346.076690673828

> <r_mmod_Torsional_Energy-OPLS-2005>
300.323669433594

> <r_mmod_Improper_Torsional_Energy-OPLS-2005>
5.98956155776978

> <r_mmod_Van_der_Waal_Energy-OPLS-2005>
133.635818481445

> <r_mmod_Electrostatic_Energy-OPLS-2005>
-258.711059570312

> <r_mmod_Solvation_Energy-OPLS-2005>
-208.988052368164

> <b_mmod_Minimization_Converged-OPLS-2005>
0

> <r_mmod_RMS_Derivative-OPLS-2005>
5.87138414382935

$$$$
55
                    3D
 Structure written by MMmdl.
165174  0  0  1  0            999 V2000
  -30.7339  -14.4585   20.3279 C   0  0  0  0  0  0
  -30.4160  -12.2311   19.4164 C   0  0  0  0  0  0
  -29.4795  -12.3583   18.1943 C   0  0  0  0  0  0
  -27.9960  -12.3073   18.6138 C   0  0  0  0  0  0
  -27.6557  -13.1931   19.8429 C   0  0  2  0  0  0
  -28.7235  -13.0674   20.9575 C   0  0  0  0  0  0
  -25.2610  -13.8066   20.5725 C   0  0  0  0  0  0
  -24.1843  -13.0377   20.9193 C   0  0  0  0  0  0
  -24.6402  -11.6854   20.8759 C   0  0  0  0  0  0
  -23.9081  -10.4240   21.0392 C   0  0  0  0  0  0
  -24.3633   -9.4161   21.9169 C   0  0  0  0  0  0
  -23.6301   -8.2211   22.0737 C   0  0  0  0  0  0
  -22.4281   -8.0264   21.3538 C   0  0  0  0  0  0
  -21.9916   -9.0230   20.4632 C   0  0  0  0  0  0
  -22.7255  -10.2099   20.3031 C   0  0  0  0  0  0
  -21.6848   -6.0745   22.5277 C   0  0  0  0  0  0
  -21.4001   -6.5660   23.8209 C   0  0  0  0  0  0
  -21.3660   -5.6812   24.9175 C   0  0  0  0  0  0
  -21.6037   -4.3071   24.7227 C   0  0  0  0  0  0
  -21.8831   -3.8156   23.4350 C   0  0  0  0  0  0
  -21.9198   -4.6972   22.3401 C   0  0  0  0  0  0
  -22.7886  -13.5203   21.1894 C   0  0  0  0  0  0
  -22.1666   -4.2158   21.0979 F   0  0  0  0  0  0
  -21.5629   -3.4562   25.7746 F   0  0  0  0  0  0
  -30.0456  -13.2912   20.3545 N   0  0  0  0  0  0
  -26.3052  -12.9253   20.3357 N   0  0  0  0  0  0
  -25.9331  -11.6437   20.5806 N   0  0  0  0  0  0
  -22.0552  -12.8136   22.0422 N   0  0  0  0  0  0
  -25.4297  -15.1768   20.4240 N   0  0  0  0  0  0
  -31.9657  -14.5147   20.3278 O   0  0  0  0  0  0
  -21.6640   -6.8873   21.4240 O   0  0  0  0  0  0
  -22.3583  -14.5544   20.6804 O   0  0  0  0  0  0
  -24.6140  -31.8724   23.2183 C   0  0  0  0  0  0
  -25.9060  -32.4825   23.8445 C   0  0  1  0  0  0
  -27.2236  -27.4589   20.0638 C   0  0  0  0  0  0
  -25.5983  -33.8638   24.2394 N   0  0  0  0  0  0
  -23.3977  -30.5068   21.5573 C   0  0  2  0  0  0
  -24.8383  -28.9909   20.1085 C   0  0  0  0  0  0
  -22.7352  -29.4738   22.4979 C   0  0  0  0  0  0
  -18.0260  -28.1351   22.8534 C   0  0  0  0  0  0
  -24.1471  -36.7306   23.2631 C   0  0  0  0  0  0
  -25.9285  -30.8441   21.3730 C   0  0  0  0  0  0
  -26.0000  -29.4832   20.7146 C   0  0  0  0  0  0
  -27.1909  -28.7179   20.7034 C   0  0  0  0  0  0
  -26.0385  -27.0095   19.4207 C   0  0  0  0  0  0
  -24.8498  -27.7467   19.4632 C   0  0  0  0  0  0
  -23.6002  -29.8511   20.1675 C   0  0  0  0  0  0
  -25.4087  -36.3120   24.0345 C   0  0  1  0  0  0
  -20.5841  -28.3666   23.1301 C   0  0  2  0  0  0
  -20.6759  -26.9408   22.5398 C   0  0  0  0  0  0
  -19.5729  -26.6386   21.5208 C   0  0  0  0  0  0
  -18.1905  -26.7923   22.1626 C   0  0  0  0  0  0
  -19.1513  -28.8822   23.2935 C   0  0  0  0  0  0
  -18.9459  -30.1442   23.8917 C   0  0  0  0  0  0
  -17.6468  -30.6585   24.0570 C   0  0  0  0  0  0
  -25.9047  -34.9493   23.5153 C   0  0  0  0  0  0
  -16.5351  -29.9081   23.6329 C   0  0  0  0  0  0
  -16.7258  -28.6481   23.0373 C   0  0  0  0  0  0
  -26.4491  -31.6576   25.0750 C   0  0  0  0  0  0
  -25.3784  -31.3689   26.1514 C   0  0  0  0  0  0
  -27.0314  -30.3012   24.6131 C   0  0  0  0  0  0
  -27.6081  -32.4264   25.7502 C   0  0  0  0  0  0
  -27.5551  -37.1812   24.8472 C   0  0  0  0  0  0
  -21.4083  -29.3058   22.3693 N   0  0  0  0  0  0
  -26.4264  -37.3808   23.9435 N   0  0  0  0  0  0
  -24.6653  -31.0856   22.1081 N   0  0  0  0  0  0
  -23.4135  -28.8253   23.3001 O   0  0  0  0  0  0
  -28.3859  -26.7038   20.1010 O   0  0  0  0  0  0
  -26.5533  -34.8931   22.4662 O   0  0  0  0  0  0
  -23.5348  -32.1438   23.7605 O   0  0  0  0  0  0
  -30.1095  -18.7938   21.1699 C   0  0  0  0  0  0
  -30.5227  -17.4819   20.8758 C   0  0  0  0  0  0
  -28.2934  -16.9863   20.0520 C   0  0  0  0  0  0
  -28.8061  -19.2464   20.8330 C   0  0  0  0  0  0
  -29.6251  -16.5921   20.2535 C   0  0  0  0  0  0
  -27.8689  -18.2837   20.3671 C   0  0  0  0  0  0
  -29.3362  -21.6551   20.5635 C   0  0  0  0  0  0
  -27.2049  -22.6394   20.6255 C   0  0  0  0  0  0
  -27.1035  -21.1270   20.6988 C   0  0  0  0  0  0
  -28.5976  -22.8801   20.0326 C   0  0  1  0  0  0
  -29.5061  -16.0427   17.2333 C   0  0  0  0  0  0
  -30.6087  -15.6909   18.2509 C   0  0  0  0  0  0
  -28.2309  -25.3362   19.7130 C   0  0  0  0  0  0
  -29.2058  -24.2929   20.2920 C   0  0  2  0  0  0
  -28.4769  -20.6472   20.8506 N   0  0  0  0  0  0
  -30.0932  -15.4200   19.6172 N   0  0  0  0  0  0
  -30.5650  -21.6583   20.6931 O   0  0  0  0  0  0
  -30.4370  -24.4357   19.5927 O   0  0  0  0  0  0
  -26.5693  -18.5798   20.1247 F   0  0  0  0  0  0
  -31.4624  -12.2955   19.1101 H   0  0  0  0  0  0
  -30.2971  -11.2549   19.8848 H   0  0  0  0  0  0
  -29.6840  -11.5499   17.4910 H   0  0  0  0  0  0
  -29.6711  -13.2675   17.6346 H   0  0  0  0  0  0
  -27.7621  -11.2644   18.8312 H   0  0  0  0  0  0
  -27.3646  -12.5893   17.7712 H   0  0  0  0  0  0
  -27.6667  -14.2139   19.4786 H   0  0  0  0  0  0
  -28.6824  -12.0778   21.4161 H   0  0  0  0  0  0
  -28.5409  -13.7910   21.7524 H   0  0  0  0  0  0
  -25.2785   -9.5638   22.4737 H   0  0  0  0  0  0
  -24.0020   -7.4612   22.7442 H   0  0  0  0  0  0
  -21.0845   -8.8751   19.8931 H   0  0  0  0  0  0
  -22.3721  -10.9652   19.6133 H   0  0  0  0  0  0
  -21.1966   -7.6162   23.9730 H   0  0  0  0  0  0
  -21.1478   -6.0519   25.9088 H   0  0  0  0  0  0
  -22.0598   -2.7618   23.2843 H   0  0  0  0  0  0
  -22.4231  -11.9750   22.4655 H   0  0  0  0  0  0
  -21.1180  -13.1103   22.2762 H   0  0  0  0  0  0
  -24.6710  -15.8392   20.5466 H   0  0  0  0  0  0
  -26.3135  -15.6190   20.2201 H   0  0  0  0  0  0
  -26.7142  -32.5552   23.1225 H   0  0  0  0  0  0
  -25.0291  -33.9840   25.0641 H   0  0  0  0  0  0
  -22.6894  -31.3269   21.4235 H   0  0  0  0  0  0
  -23.3748  -35.9632   23.3305 H   0  0  0  0  0  0
  -24.3561  -36.8876   22.2046 H   0  0  0  0  0  0
  -23.7224  -37.6529   23.6593 H   0  0  0  0  0  0
  -26.0444  -31.6186   20.6122 H   0  0  0  0  0  0
  -26.8171  -30.8873   21.9902 H   0  0  0  0  0  0
  -28.0786  -29.0906   21.1932 H   0  0  0  0  0  0
  -25.9876  -26.0891   18.8595 H   0  0  0  0  0  0
  -23.9627  -27.3663   18.9735 H   0  0  0  0  0  0
  -23.6975  -30.6295   19.4096 H   0  0  0  0  0  0
  -22.7229  -29.2695   19.8770 H   0  0  0  0  0  0
  -25.1268  -36.1987   25.0835 H   0  0  0  0  0  0
  -20.9999  -28.3231   24.1393 H   0  0  0  0  0  0
  -20.5662  -26.2289   23.3588 H   0  0  0  0  0  0
  -21.6630  -26.7436   22.1186 H   0  0  0  0  0  0
  -19.6900  -25.6311   21.1201 H   0  0  0  0  0  0
  -19.6646  -27.3215   20.6747 H   0  0  0  0  0  0
  -17.4183  -26.6700   21.4007 H   0  0  0  0  0  0
  -18.0294  -26.0025   22.8973 H   0  0  0  0  0  0
  -19.7943  -30.7258   24.2246 H   0  0  0  0  0  0
  -17.5028  -31.6267   24.5184 H   0  0  0  0  0  0
  -15.5361  -30.3004   23.7640 H   0  0  0  0  0  0
  -15.8642  -28.0808   22.7076 H   0  0  0  0  0  0
  -24.5984  -30.6980   25.7891 H   0  0  0  0  0  0
  -24.8970  -32.2861   26.4920 H   0  0  0  0  0  0
  -25.8186  -30.8922   27.0282 H   0  0  0  0  0  0
  -26.2874  -29.6786   24.1158 H   0  0  0  0  0  0
  -27.4054  -29.7215   25.4587 H   0  0  0  0  0  0
  -27.8710  -30.4319   23.9303 H   0  0  0  0  0  0
  -27.2694  -33.3550   26.2087 H   0  0  0  0  0  0
  -28.3870  -32.6804   25.0306 H   0  0  0  0  0  0
  -28.0750  -31.8375   26.5409 H   0  0  0  0  0  0
  -28.2599  -38.0076   24.7513 H   0  0  0  0  0  0
  -28.0998  -36.2629   24.6280 H   0  0  0  0  0  0
  -27.2280  -37.1456   25.8872 H   0  0  0  0  0  0
  -20.9167  -29.8813   21.6984 H   0  0  0  0  0  0
  -26.0148  -38.2875   24.1451 H   0  0  0  0  0  0
  -30.8474  -19.4616   21.5825 H   0  0  0  0  0  0
  -31.5591  -17.2109   21.0269 H   0  0  0  0  0  0
  -27.6028  -16.3427   19.5396 H   0  0  0  0  0  0
  -27.1230  -23.0790   21.6208 H   0  0  0  0  0  0
  -26.4024  -23.0401   20.0041 H   0  0  0  0  0  0
  -26.6902  -20.7946   19.7445 H   0  0  0  0  0  0
  -26.4433  -20.7960   21.5010 H   0  0  0  0  0  0
  -28.5338  -22.7305   18.9532 H   0  0  0  0  0  0
  -28.6706  -15.3451   17.2865 H   0  0  0  0  0  0
  -29.8915  -16.0108   16.2128 H   0  0  0  0  0  0
  -29.1165  -17.0485   17.3927 H   0  0  0  0  0  0
  -31.3272  -16.5114   18.2792 H   0  0  0  0  0  0
  -31.1779  -14.8420   17.8649 H   0  0  0  0  0  0
  -27.2703  -25.0358   20.1211 H   0  0  0  0  0  0
  -28.1711  -25.2531   18.6261 H   0  0  0  0  0  0
  -29.3566  -24.4420   21.3629 H   0  0  0  0  0  0
  -31.0162  -23.7360   19.8899 H   0  0  0  0  0  0
  1 25  1  0  0  0
  1 30  2  0  0  0
  1 86  1  0  0  0
  2  3  1  0  0  0
  2 25  1  0  0  0
  2 90  1  0  0  0
  2 91  1  0  0  0
  3  4  1  0  0  0
  3 92  1  0  0  0
  3 93  1  0  0  0
  4  5  1  0  0  0
  4 94  1  0  0  0
  4 95  1  0  0  0
  5  6  1  0  0  0
  5 26  1  0  0  0
  5 96  1  0  0  0
  6 25  1  0  0  0
  6 97  1  0  0  0
  6 98  1  0  0  0
  7  8  2  0  0  0
  7 26  1  0  0  0
  7 29  1  0  0  0
  8  9  1  0  0  0
  8 22  1  0  0  0
  9 10  1  0  0  0
  9 27  2  0  0  0
 10 11  2  0  0  0
 10 15  1  0  0  0
 11 12  1  0  0  0
 11 99  1  0  0  0
 12 13  2  0  0  0
 12100  1  0  0  0
 13 14  1  0  0  0
 13 31  1  0  0  0
 14 15  2  0  0  0
 14101  1  0  0  0
 15102  1  0  0  0
 16 17  2  0  0  0
 16 21  1  0  0  0
 16 31  1  0  0  0
 17 18  1  0  0  0
 17103  1  0  0  0
 18 19  2  0  0  0
 18104  1  0  0  0
 19 20  1  0  0  0
 19 24  1  0  0  0
 20 21  2  0  0  0
 20105  1  0  0  0
 21 23  1  0  0  0
 22 28  1  0  0  0
 22 32  2  0  0  0
 26 27  1  0  0  0
 28106  1  0  0  0
 28107  1  0  0  0
 29108  1  0  0  0
 29109  1  0  0  0
 33 34  1  0  0  0
 33 66  1  0  0  0
 33 70  2  0  0  0
 34 36  1  0  0  0
 34 59  1  0  0  0
 34110  1  0  0  0
 35 44  2  0  0  0
 35 45  1  0  0  0
 35 68  1  0  0  0
 36 56  1  0  0  0
 36111  1  0  0  0
 37 39  1  0  0  0
 37 47  1  0  0  0
 37 66  1  0  0  0
 37112  1  0  0  0
 38 43  2  0  0  0
 38 46  1  0  0  0
 38 47  1  0  0  0
 39 64  1  0  0  0
 39 67  2  0  0  0
 40 52  1  0  0  0
 40 53  2  0  0  0
 40 58  1  0  0  0
 41113  1  0  0  0
 41114  1  0  0  0
 41115  1  0  0  0
 41 48  1  0  0  0
 42 43  1  0  0  0
 42 66  1  0  0  0
 42116  1  0  0  0
 42117  1  0  0  0
 43 44  1  0  0  0
 44118  1  0  0  0
 45 46  2  0  0  0
 45119  1  0  0  0
 46120  1  0  0  0
 47121  1  0  0  0
 47122  1  0  0  0
 48 56  1  0  0  0
 48 65  1  0  0  0
 48123  1  0  0  0
 49 50  1  0  0  0
 49 53  1  0  0  0
 49 64  1  0  0  0
 49124  1  0  0  0
 50 51  1  0  0  0
 50125  1  0  0  0
 50126  1  0  0  0
 51 52  1  0  0  0
 51127  1  0  0  0
 51128  1  0  0  0
 52129  1  0  0  0
 52130  1  0  0  0
 53 54  1  0  0  0
 54 55  2  0  0  0
 54131  1  0  0  0
 55 57  1  0  0  0
 55132  1  0  0  0
 56 69  2  0  0  0
 57 58  2  0  0  0
 57133  1  0  0  0
 58134  1  0  0  0
 59 60  1  0  0  0
 59 61  1  0  0  0
 59 62  1  0  0  0
 60135  1  0  0  0
 60136  1  0  0  0
 60137  1  0  0  0
 61138  1  0  0  0
 61139  1  0  0  0
 61140  1  0  0  0
 62141  1  0  0  0
 62142  1  0  0  0
 62143  1  0  0  0
 63 65  1  0  0  0
 63144  1  0  0  0
 63145  1  0  0  0
 63146  1  0  0  0
 64147  1  0  0  0
 65148  1  0  0  0
 68 83  1  0  0  0
 71 72  2  0  0  0
 71 74  1  0  0  0
 71149  1  0  0  0
 72 75  1  0  0  0
 72150  1  0  0  0
 73 75  2  0  0  0
 73 76  1  0  0  0
 73151  1  0  0  0
 74 76  2  0  0  0
 74 85  1  0  0  0
 75 86  1  0  0  0
 76 89  1  0  0  0
 77 80  1  0  0  0
 77 85  1  0  0  0
 77 87  2  0  0  0
 78 79  1  0  0  0
 78152  1  0  0  0
 78153  1  0  0  0
 78 80  1  0  0  0
 79 85  1  0  0  0
 79154  1  0  0  0
 79155  1  0  0  0
 80 84  1  0  0  0
 80156  1  0  0  0
 81 82  1  0  0  0
 81157  1  0  0  0
 81158  1  0  0  0
 81159  1  0  0  0
 82 86  1  0  0  0
 82160  1  0  0  0
 82161  1  0  0  0
 83 84  1  0  0  0
 83162  1  0  0  0
 83163  1  0  0  0
 84 88  1  0  0  0
 84164  1  0  0  0
 88165  1  0  0  0
M  ISO  4   1 100  68 101  83 101  86 100
M  END
> <chiral flag>
0

> <version>
0

> <s_m_source_file>
/data/baiqing/PycharmProjects/Reinvent-master-3.2/result/LINK_invent/BTK/process_docking_weight1_custom_product_contain_oxygen_bond_distance_aromatic_linkinvent_7_9_3/rearranged_h_0074.sdf

> <i_m_source_file_index>
54

> <r_mmod_Potential_Energy-OPLS-2005>
389.985748291016

> <r_mmod_Stretch_Energy-OPLS-2005>
39.5530128479004

> <r_mmod_Bend_Energy-OPLS-2005>
151.805404663086

> <r_mmod_Torsional_Energy-OPLS-2005>
388.384185791016

> <r_mmod_Improper_Torsional_Energy-OPLS-2005>
31.2423572540283

> <r_mmod_Van_der_Waal_Energy-OPLS-2005>
185.624649047852

> <r_mmod_Electrostatic_Energy-OPLS-2005>
-234.953994750977

> <r_mmod_Solvation_Energy-OPLS-2005>
-214.664123535156

> <b_mmod_Minimization_Converged-OPLS-2005>
0

> <r_mmod_RMS_Derivative-OPLS-2005>
4.52728939056396

$$$$
56
                    3D
 Structure written by MMmdl.
156164  0  0  1  0            999 V2000
  -30.6863  -14.4823   20.5484 C   0  0  0  0  0  0
  -30.4389  -12.3078   19.4278 C   0  0  0  0  0  0
  -29.5024  -12.4877   18.2134 C   0  0  0  0  0  0
  -28.0221  -12.3575   18.6266 C   0  0  0  0  0  0
  -27.6700  -13.1972   19.8846 C   0  0  2  0  0  0
  -28.7146  -12.9721   21.0035 C   0  0  0  0  0  0
  -25.2661  -13.8173   20.5672 C   0  0  0  0  0  0
  -24.1869  -13.0489   20.9142 C   0  0  0  0  0  0
  -24.6368  -11.6937   20.8724 C   0  0  0  0  0  0
  -23.9027  -10.4334   21.0388 C   0  0  0  0  0  0
  -24.3600   -9.4269   21.9170 C   0  0  0  0  0  0
  -23.6295   -8.2298   22.0742 C   0  0  0  0  0  0
  -22.4282   -8.0299   21.3533 C   0  0  0  0  0  0
  -21.9889   -9.0271   20.4648 C   0  0  0  0  0  0
  -22.7187  -10.2163   20.3064 C   0  0  0  0  0  0
  -21.6868   -6.0749   22.5270 C   0  0  0  0  0  0
  -21.4010   -6.5639   23.8199 C   0  0  0  0  0  0
  -21.3656   -5.6783   24.9157 C   0  0  0  0  0  0
  -21.6053   -4.3049   24.7208 C   0  0  0  0  0  0
  -21.8843   -3.8143   23.4326 C   0  0  0  0  0  0
  -21.9216   -4.6974   22.3395 C   0  0  0  0  0  0
  -22.7885  -13.5317   21.1758 C   0  0  0  0  0  0
  -22.1675   -4.2156   21.0973 F   0  0  0  0  0  0
  -21.5633   -3.4542   25.7727 F   0  0  0  0  0  0
  -30.0431  -13.2864   20.4533 N   0  0  0  0  0  0
  -26.3081  -12.9288   20.3431 N   0  0  0  0  0  0
  -25.9311  -11.6467   20.5822 N   0  0  0  0  0  0
  -22.0485  -12.8394   22.0324 N   0  0  0  0  0  0
  -25.4507  -15.1880   20.4068 N   0  0  0  0  0  0
  -31.8222  -14.6683   20.1022 O   0  0  0  0  0  0
  -21.6661   -6.8885   21.4225 O   0  0  0  0  0  0
  -22.3606  -14.5611   20.6532 O   0  0  0  0  0  0
  -24.6200  -31.8668   23.2091 C   0  0  0  0  0  0
  -25.9080  -32.4815   23.8393 C   0  0  1  0  0  0
  -27.2201  -27.3912   20.1089 C   0  0  0  0  0  0
  -25.5898  -33.8610   24.2296 N   0  0  0  0  0  0
  -23.4081  -30.5017   21.5413 C   0  0  2  0  0  0
  -24.8512  -28.9634   20.1048 C   0  0  0  0  0  0
  -22.7425  -29.4705   22.4837 C   0  0  0  0  0  0
  -18.0292  -28.1415   22.8466 C   0  0  0  0  0  0
  -24.1471  -36.7331   23.2649 C   0  0  0  0  0  0
  -25.9422  -30.8234   21.3670 C   0  0  0  0  0  0
  -26.0121  -29.4559   20.7109 C   0  0  0  0  0  0
  -27.1958  -28.6775   20.7095 C   0  0  0  0  0  0
  -26.0326  -26.9172   19.5052 C   0  0  0  0  0  0
  -24.8573  -27.6964   19.4991 C   0  0  0  0  0  0
  -23.6239  -29.8490   20.1493 C   0  0  0  0  0  0
  -25.4093  -36.3106   24.0335 C   0  0  1  0  0  0
  -20.5893  -28.3723   23.1239 C   0  0  2  0  0  0
  -20.6772  -26.9436   22.5389 C   0  0  0  0  0  0
  -19.5748  -26.6394   21.5194 C   0  0  0  0  0  0
  -18.1933  -26.7949   22.1616 C   0  0  0  0  0  0
  -19.1549  -28.8873   23.2873 C   0  0  0  0  0  0
  -18.9483  -30.1461   23.8924 C   0  0  0  0  0  0
  -17.6490  -30.6613   24.0571 C   0  0  0  0  0  0
  -25.9030  -34.9475   23.5114 C   0  0  0  0  0  0
  -16.5375  -29.9133   23.6313 C   0  0  0  0  0  0
  -16.7282  -28.6547   23.0333 C   0  0  0  0  0  0
  -26.4477  -31.6637   25.0761 C   0  0  0  0  0  0
  -25.3727  -31.3788   26.1504 C   0  0  0  0  0  0
  -27.0319  -30.3064   24.6207 C   0  0  0  0  0  0
  -27.6023  -32.4380   25.7543 C   0  0  0  0  0  0
  -27.5562  -37.1833   24.8452 C   0  0  0  0  0  0
  -21.4146  -29.3097   22.3605 N   0  0  0  0  0  0
  -26.4266  -37.3799   23.9416 N   0  0  0  0  0  0
  -24.6749  -31.0791   22.0974 N   0  0  0  0  0  0
  -23.4170  -28.8228   23.2891 O   0  0  0  0  0  0
  -28.3872  -26.6434   20.1736 O   0  0  0  0  0  0
  -26.5595  -34.8935   22.4678 O   0  0  0  0  0  0
  -23.5387  -32.1410   23.7479 O   0  0  0  0  0  0
  -29.3063  -17.7840   18.0672 C   0  0  0  0  0  0
  -29.3383  -19.0537   18.6723 C   0  0  0  0  0  0
  -29.4943  -16.6258   18.8385 C   0  0  0  0  0  0
  -29.7333  -18.0028   20.8405 C   0  0  0  0  0  0
  -29.5321  -19.1844   20.0690 C   0  0  0  0  0  0
  -29.7374  -16.7169   20.2296 C   0  0  0  0  0  0
  -29.6738  -20.5678   20.6761 C   0  0  0  0  0  0
  -28.4496  -24.1006   20.1696 C   0  0  0  0  0  0
  -30.2370  -23.0300   18.5606 C   0  0  0  0  0  0
  -28.5656  -25.4422   19.3784 C   0  0  0  0  0  0
  -29.5098  -22.9621   19.9212 C   0  0  2  0  0  0
  -29.9379  -15.5166   20.9885 N   0  0  0  0  0  0
  -28.9997  -21.5757   20.0822 N   0  0  0  0  0  0
  -30.4289  -20.7487   21.6327 O   0  0  0  0  0  0
  -27.5243  -23.9548   20.9765 O   0  0  0  0  0  0
  -31.4793  -12.4277   19.1186 H   0  0  0  0  0  0
  -30.3691  -11.2962   19.8252 H   0  0  0  0  0  0
  -29.7398  -11.7470   17.4502 H   0  0  0  0  0  0
  -29.6722  -13.4584   17.7501 H   0  0  0  0  0  0
  -27.8276  -11.3027   18.8218 H   0  0  0  0  0  0
  -27.3723  -12.6391   17.7986 H   0  0  0  0  0  0
  -27.7154  -14.2446   19.5896 H   0  0  0  0  0  0
  -28.6976  -11.9312   21.3314 H   0  0  0  0  0  0
  -28.4885  -13.5669   21.8893 H   0  0  0  0  0  0
  -25.2756   -9.5787   22.4723 H   0  0  0  0  0  0
  -24.0041   -7.4723   22.7469 H   0  0  0  0  0  0
  -21.0811   -8.8767   19.8979 H   0  0  0  0  0  0
  -22.3601  -10.9702   19.6184 H   0  0  0  0  0  0
  -21.1953   -7.6138   23.9705 H   0  0  0  0  0  0
  -21.1445   -6.0491   25.9056 H   0  0  0  0  0  0
  -22.0616   -2.7606   23.2818 H   0  0  0  0  0  0
  -22.4064  -12.0105   22.4846 H   0  0  0  0  0  0
  -21.1093  -13.1446   22.2452 H   0  0  0  0  0  0
  -24.6965  -15.8587   20.5045 H   0  0  0  0  0  0
  -26.3179  -15.6150   20.1044 H   0  0  0  0  0  0
  -26.7156  -32.5487   23.1162 H   0  0  0  0  0  0
  -24.9997  -33.9739   25.0405 H   0  0  0  0  0  0
  -22.7019  -31.3236   21.4037 H   0  0  0  0  0  0
  -23.3715  -35.9681   23.3316 H   0  0  0  0  0  0
  -24.3567  -36.8955   22.2064 H   0  0  0  0  0  0
  -23.7241  -37.6548   23.6662 H   0  0  0  0  0  0
  -26.0652  -31.5924   20.6022 H   0  0  0  0  0  0
  -26.8270  -30.8697   21.9901 H   0  0  0  0  0  0
  -28.0891  -29.0522   21.1881 H   0  0  0  0  0  0
  -25.9757  -25.9341   19.0626 H   0  0  0  0  0  0
  -23.9584  -27.3119   19.0369 H   0  0  0  0  0  0
  -23.7639  -30.6370   19.4072 H   0  0  0  0  0  0
  -22.7400  -29.2992   19.8226 H   0  0  0  0  0  0
  -25.1281  -36.1963   25.0827 H   0  0  0  0  0  0
  -21.0029  -28.3322   24.1341 H   0  0  0  0  0  0
  -20.5641  -26.2348   23.3607 H   0  0  0  0  0  0
  -21.6646  -26.7436   22.1208 H   0  0  0  0  0  0
  -19.6909  -25.6291   21.1259 H   0  0  0  0  0  0
  -19.6703  -27.3174   20.6699 H   0  0  0  0  0  0
  -17.4189  -26.6670   21.4040 H   0  0  0  0  0  0
  -18.0362  -26.0110   22.9037 H   0  0  0  0  0  0
  -19.7972  -30.7252   24.2315 H   0  0  0  0  0  0
  -17.5073  -31.6299   24.5172 H   0  0  0  0  0  0
  -15.5391  -30.3080   23.7626 H   0  0  0  0  0  0
  -15.8664  -28.0902   22.7035 H   0  0  0  0  0  0
  -24.5835  -30.7212   25.7850 H   0  0  0  0  0  0
  -24.9007  -32.2976   26.4997 H   0  0  0  0  0  0
  -25.8062  -30.8909   27.0239 H   0  0  0  0  0  0
  -26.2911  -29.6844   24.1169 H   0  0  0  0  0  0
  -27.3952  -29.7303   25.4730 H   0  0  0  0  0  0
  -27.8801  -30.4371   23.9481 H   0  0  0  0  0  0
  -27.2593  -33.3630   26.2194 H   0  0  0  0  0  0
  -28.3813  -32.7035   25.0386 H   0  0  0  0  0  0
  -28.0718  -31.8474   26.5423 H   0  0  0  0  0  0
  -28.2576  -38.0133   24.7481 H   0  0  0  0  0  0
  -28.1055  -36.2661   24.6277 H   0  0  0  0  0  0
  -27.2282  -37.1497   25.8856 H   0  0  0  0  0  0
  -20.9262  -29.8872   21.6899 H   0  0  0  0  0  0
  -26.0146  -38.2866   24.1447 H   0  0  0  0  0  0
  -29.1589  -17.6938   17.0004 H   0  0  0  0  0  0
  -29.2518  -19.9279   18.0429 H   0  0  0  0  0  0
  -29.4588  -15.6673   18.3395 H   0  0  0  0  0  0
  -29.9262  -18.0925   21.9005 H   0  0  0  0  0  0
  -30.8316  -23.9362   18.4579 H   0  0  0  0  0  0
  -29.5390  -22.9849   17.7238 H   0  0  0  0  0  0
  -30.9327  -22.1969   18.4477 H   0  0  0  0  0  0
  -27.8960  -25.4093   18.5205 H   0  0  0  0  0  0
  -29.5666  -25.5199   18.9626 H   0  0  0  0  0  0
  -30.2830  -23.1169   20.6751 H   0  0  0  0  0  0
  -29.1653  -15.2541   21.5815 H   0  0  0  0  0  0
  -28.2897  -21.2909   19.4212 H   0  0  0  0  0  0
  1 25  1  0  0  0
  1 30  2  0  0  0
  1 82  1  0  0  0
  2  3  1  0  0  0
  2 25  1  0  0  0
  2 86  1  0  0  0
  2 87  1  0  0  0
  3  4  1  0  0  0
  3 88  1  0  0  0
  3 89  1  0  0  0
  4  5  1  0  0  0
  4 90  1  0  0  0
  4 91  1  0  0  0
  5  6  1  0  0  0
  5 26  1  0  0  0
  5 92  1  0  0  0
  6 25  1  0  0  0
  6 93  1  0  0  0
  6 94  1  0  0  0
  7  8  2  0  0  0
  7 26  1  0  0  0
  7 29  1  0  0  0
  8  9  1  0  0  0
  8 22  1  0  0  0
  9 10  1  0  0  0
  9 27  2  0  0  0
 10 11  2  0  0  0
 10 15  1  0  0  0
 11 12  1  0  0  0
 11 95  1  0  0  0
 12 13  2  0  0  0
 12 96  1  0  0  0
 13 14  1  0  0  0
 13 31  1  0  0  0
 14 15  2  0  0  0
 14 97  1  0  0  0
 15 98  1  0  0  0
 16 17  2  0  0  0
 16 21  1  0  0  0
 16 31  1  0  0  0
 17 18  1  0  0  0
 17 99  1  0  0  0
 18 19  2  0  0  0
 18100  1  0  0  0
 19 20  1  0  0  0
 19 24  1  0  0  0
 20 21  2  0  0  0
 20101  1  0  0  0
 21 23  1  0  0  0
 22 28  1  0  0  0
 22 32  2  0  0  0
 26 27  1  0  0  0
 28102  1  0  0  0
 28103  1  0  0  0
 29104  1  0  0  0
 29105  1  0  0  0
 33 34  1  0  0  0
 33 66  1  0  0  0
 33 70  2  0  0  0
 34 36  1  0  0  0
 34 59  1  0  0  0
 34106  1  0  0  0
 35 44  2  0  0  0
 35 45  1  0  0  0
 35 68  1  0  0  0
 36 56  1  0  0  0
 36107  1  0  0  0
 37 39  1  0  0  0
 37 47  1  0  0  0
 37 66  1  0  0  0
 37108  1  0  0  0
 38 43  2  0  0  0
 38 46  1  0  0  0
 38 47  1  0  0  0
 39 64  1  0  0  0
 39 67  2  0  0  0
 40 52  1  0  0  0
 40 53  2  0  0  0
 40 58  1  0  0  0
 41109  1  0  0  0
 41110  1  0  0  0
 41111  1  0  0  0
 41 48  1  0  0  0
 42 43  1  0  0  0
 42 66  1  0  0  0
 42112  1  0  0  0
 42113  1  0  0  0
 43 44  1  0  0  0
 44114  1  0  0  0
 45 46  2  0  0  0
 45115  1  0  0  0
 46116  1  0  0  0
 47117  1  0  0  0
 47118  1  0  0  0
 48 56  1  0  0  0
 48 65  1  0  0  0
 48119  1  0  0  0
 49 50  1  0  0  0
 49 53  1  0  0  0
 49 64  1  0  0  0
 49120  1  0  0  0
 50 51  1  0  0  0
 50121  1  0  0  0
 50122  1  0  0  0
 51 52  1  0  0  0
 51123  1  0  0  0
 51124  1  0  0  0
 52125  1  0  0  0
 52126  1  0  0  0
 53 54  1  0  0  0
 54 55  2  0  0  0
 54127  1  0  0  0
 55 57  1  0  0  0
 55128  1  0  0  0
 56 69  2  0  0  0
 57 58  2  0  0  0
 57129  1  0  0  0
 58130  1  0  0  0
 59 60  1  0  0  0
 59 61  1  0  0  0
 59 62  1  0  0  0
 60131  1  0  0  0
 60132  1  0  0  0
 60133  1  0  0  0
 61134  1  0  0  0
 61135  1  0  0  0
 61136  1  0  0  0
 62137  1  0  0  0
 62138  1  0  0  0
 62139  1  0  0  0
 63 65  1  0  0  0
 63140  1  0  0  0
 63141  1  0  0  0
 63142  1  0  0  0
 64143  1  0  0  0
 65144  1  0  0  0
 68 80  1  0  0  0
 71 72  2  0  0  0
 71 73  1  0  0  0
 71145  1  0  0  0
 72 75  1  0  0  0
 72146  1  0  0  0
 73 76  2  0  0  0
 73147  1  0  0  0
 74 75  2  0  0  0
 74 76  1  0  0  0
 74148  1  0  0  0
 75 77  1  0  0  0
 76 82  1  0  0  0
 77 83  1  0  0  0
 77 84  2  0  0  0
 78 80  1  0  0  0
 78 81  1  0  0  0
 78 85  2  0  0  0
 79149  1  0  0  0
 79150  1  0  0  0
 79151  1  0  0  0
 79 81  1  0  0  0
 80152  1  0  0  0
 80153  1  0  0  0
 81 83  1  0  0  0
 81154  1  0  0  0
 82155  1  0  0  0
 83156  1  0  0  0
M  ISO  4   1 100  68 101  80 101  82 100
M  END
> <chiral flag>
0

> <version>
0

> <s_m_source_file>
/data/baiqing/PycharmProjects/Reinvent-master-3.2/result/LINK_invent/BTK/process_docking_weight1_custom_product_contain_oxygen_bond_distance_aromatic_linkinvent_7_9_3/rearranged_h_0074.sdf

> <i_m_source_file_index>
55

> <r_mmod_Potential_Energy-OPLS-2005>
-53.7663955688477

> <r_mmod_Stretch_Energy-OPLS-2005>
48.4427833557129

> <r_mmod_Bend_Energy-OPLS-2005>
110.988105773926

> <r_mmod_Torsional_Energy-OPLS-2005>
280.048645019531

> <r_mmod_Improper_Torsional_Energy-OPLS-2005>
8.79540634155273

> <r_mmod_Van_der_Waal_Energy-OPLS-2005>
150.052947998047

> <r_mmod_Electrostatic_Energy-OPLS-2005>
-410.099761962891

> <r_mmod_Solvation_Energy-OPLS-2005>
-261.0888671875

> <b_mmod_Minimization_Converged-OPLS-2005>
0

> <r_mmod_RMS_Derivative-OPLS-2005>
3.62211441993713

$$$$
57
                    3D
 Structure written by MMmdl.
158166  0  0  1  0            999 V2000
  -30.5852  -14.5980   20.5200 C   0  0  0  0  0  0
  -30.4523  -12.3617   19.4322 C   0  0  0  0  0  0
  -29.5049  -12.4867   18.2163 C   0  0  0  0  0  0
  -28.0263  -12.3231   18.6321 C   0  0  0  0  0  0
  -27.6569  -13.1866   19.8684 C   0  0  2  0  0  0
  -28.7054  -12.9974   20.9851 C   0  0  0  0  0  0
  -25.2634  -13.8047   20.5696 C   0  0  0  0  0  0
  -24.1876  -13.0386   20.9274 C   0  0  0  0  0  0
  -24.6402  -11.6843   20.8808 C   0  0  0  0  0  0
  -23.9016  -10.4259   21.0474 C   0  0  0  0  0  0
  -24.3545   -9.4148   21.9241 C   0  0  0  0  0  0
  -23.6219   -8.2201   22.0783 C   0  0  0  0  0  0
  -22.4214   -8.0282   21.3576 C   0  0  0  0  0  0
  -21.9862   -9.0259   20.4686 C   0  0  0  0  0  0
  -22.7196  -10.2129   20.3117 C   0  0  0  0  0  0
  -21.6801   -6.0733   22.5310 C   0  0  0  0  0  0
  -21.3991   -6.5629   23.8254 C   0  0  0  0  0  0
  -21.3646   -5.6792   24.9207 C   0  0  0  0  0  0
  -21.6035   -4.3067   24.7258 C   0  0  0  0  0  0
  -21.8782   -3.8146   23.4372 C   0  0  0  0  0  0
  -21.9162   -4.6959   22.3414 C   0  0  0  0  0  0
  -22.7907  -13.5265   21.1871 C   0  0  0  0  0  0
  -22.1638   -4.2125   21.1002 F   0  0  0  0  0  0
  -21.5615   -3.4560   25.7767 F   0  0  0  0  0  0
  -30.0157  -13.3580   20.4226 N   0  0  0  0  0  0
  -26.3013  -12.9166   20.3339 N   0  0  0  0  0  0
  -25.9332  -11.6340   20.5814 N   0  0  0  0  0  0
  -22.0423  -12.8372   22.0389 N   0  0  0  0  0  0
  -25.4362  -15.1768   20.3981 N   0  0  0  0  0  0
  -31.7678  -14.8125   20.2320 O   0  0  0  0  0  0
  -21.6591   -6.8886   21.4278 O   0  0  0  0  0  0
  -22.3647  -14.5538   20.6618 O   0  0  0  0  0  0
  -24.6207  -31.8636   23.2040 C   0  0  0  0  0  0
  -25.9055  -32.4810   23.8377 C   0  0  1  0  0  0
  -27.2383  -27.3822   20.0805 C   0  0  0  0  0  0
  -25.5896  -33.8582   24.2322 N   0  0  0  0  0  0
  -23.4150  -30.4854   21.5497 C   0  0  2  0  0  0
  -24.8666  -28.9420   20.1108 C   0  0  0  0  0  0
  -22.7430  -29.4654   22.4997 C   0  0  0  0  0  0
  -18.0258  -28.1349   22.8489 C   0  0  0  0  0  0
  -24.1479  -36.7301   23.2647 C   0  0  0  0  0  0
  -25.9520  -30.8076   21.3678 C   0  0  0  0  0  0
  -26.0341  -29.4376   20.7072 C   0  0  0  0  0  0
  -27.2271  -28.6673   20.6853 C   0  0  0  0  0  0
  -26.0588  -26.9178   19.4665 C   0  0  0  0  0  0
  -24.8757  -27.6823   19.4861 C   0  0  0  0  0  0
  -23.6249  -29.8079   20.1684 C   0  0  0  0  0  0
  -25.4091  -36.3083   24.0362 C   0  0  1  0  0  0
  -20.5846  -28.3640   23.1273 C   0  0  2  0  0  0
  -20.6721  -26.9363   22.5371 C   0  0  0  0  0  0
  -19.5712  -26.6368   21.5163 C   0  0  0  0  0  0
  -18.1907  -26.7903   22.1603 C   0  0  0  0  0  0
  -19.1511  -28.8814   23.2892 C   0  0  0  0  0  0
  -18.9449  -30.1422   23.8899 C   0  0  0  0  0  0
  -17.6451  -30.6564   24.0544 C   0  0  0  0  0  0
  -25.9014  -34.9463   23.5142 C   0  0  0  0  0  0
  -16.5339  -29.9054   23.6313 C   0  0  0  0  0  0
  -16.7251  -28.6459   23.0362 C   0  0  0  0  0  0
  -26.4448  -31.6600   25.0732 C   0  0  0  0  0  0
  -25.3719  -31.3681   26.1491 C   0  0  0  0  0  0
  -27.0307  -30.3053   24.6146 C   0  0  0  0  0  0
  -27.6050  -32.4301   25.7485 C   0  0  0  0  0  0
  -27.5570  -37.1800   24.8460 C   0  0  0  0  0  0
  -21.4150  -29.3046   22.3728 N   0  0  0  0  0  0
  -26.4274  -37.3781   23.9432 N   0  0  0  0  0  0
  -24.6820  -31.0666   22.0981 N   0  0  0  0  0  0
  -23.4164  -28.8235   23.3084 O   0  0  0  0  0  0
  -28.3221  -26.5147   20.1080 O   0  0  0  0  0  0
  -26.5592  -34.8925   22.4716 O   0  0  0  0  0  0
  -23.5381  -32.1431   23.7384 O   0  0  0  0  0  0
  -29.2070  -18.3684   23.0589 C   0  0  0  0  0  0
  -29.2417  -19.5171   22.2447 C   0  0  0  0  0  0
  -29.4279  -17.0931   22.5095 C   0  0  0  0  0  0
  -29.4773  -19.4245   20.8511 C   0  0  0  0  0  0
  -29.7026  -16.9355   21.1361 C   0  0  0  0  0  0
  -29.7067  -18.1087   20.3032 C   0  0  0  0  0  0
  -28.2930  -25.6073   21.1564 C   0  0  0  0  0  0
  -29.5320  -20.7192   20.0245 C   0  0  0  0  0  0
  -28.5829  -24.2684   21.2229 C   0  0  0  0  0  0
  -28.4157  -23.6236   22.5951 C   0  0  0  0  0  0
  -28.3880  -23.5357   18.7370 C   0  0  0  0  0  0
  -29.0428  -23.2672   20.1104 C   0  0  2  0  0  0
  -29.6609  -15.5895   20.6251 N   0  0  0  0  0  0
  -28.9175  -21.8296   20.5227 N   0  0  0  0  0  0
  -30.1447  -20.7578   18.9557 O   0  0  0  0  0  0
  -29.8608  -17.9471   18.9691 F   0  0  0  0  0  0
  -31.4863  -12.5210   19.1197 H   0  0  0  0  0  0
  -30.4204  -11.3525   19.8495 H   0  0  0  0  0  0
  -29.7635  -11.7385   17.4635 H   0  0  0  0  0  0
  -29.6472  -13.4588   17.7434 H   0  0  0  0  0  0
  -27.8614  -11.2688   18.8541 H   0  0  0  0  0  0
  -27.3659  -12.5594   17.7955 H   0  0  0  0  0  0
  -27.6824  -14.2225   19.5396 H   0  0  0  0  0  0
  -28.7174  -11.9558   21.3120 H   0  0  0  0  0  0
  -28.4611  -13.5849   21.8733 H   0  0  0  0  0  0
  -25.2668   -9.5563   22.4853 H   0  0  0  0  0  0
  -23.9882   -7.4571   22.7496 H   0  0  0  0  0  0
  -21.0802   -8.8795   19.9000 H   0  0  0  0  0  0
  -22.3684  -10.9680   19.6248 H   0  0  0  0  0  0
  -21.1996   -7.6154   23.9734 H   0  0  0  0  0  0
  -21.1505   -6.0551   25.9103 H   0  0  0  0  0  0
  -22.0563   -2.7605   23.2899 H   0  0  0  0  0  0
  -22.3890  -12.0061   22.4927 H   0  0  0  0  0  0
  -21.1064  -13.1551   22.2458 H   0  0  0  0  0  0
  -24.6387  -15.8042   20.4443 H   0  0  0  0  0  0
  -26.2412  -15.5924   19.9456 H   0  0  0  0  0  0
  -26.7148  -32.5494   23.1164 H   0  0  0  0  0  0
  -25.0066  -33.9752   25.0470 H   0  0  0  0  0  0
  -22.7079  -31.3056   21.4020 H   0  0  0  0  0  0
  -23.3750  -35.9610   23.3297 H   0  0  0  0  0  0
  -24.3616  -36.8913   22.2057 H   0  0  0  0  0  0
  -23.7191  -37.6505   23.6653 H   0  0  0  0  0  0
  -26.0754  -31.5733   20.6017 H   0  0  0  0  0  0
  -26.8333  -30.8540   21.9957 H   0  0  0  0  0  0
  -28.1316  -29.0417   21.1457 H   0  0  0  0  0  0
  -26.0600  -25.9501   18.9843 H   0  0  0  0  0  0
  -23.9873  -27.2860   19.0165 H   0  0  0  0  0  0
  -23.7277  -30.5794   19.4060 H   0  0  0  0  0  0
  -22.7418  -29.2321   19.8763 H   0  0  0  0  0  0
  -25.1259  -36.1979   25.0856 H   0  0  0  0  0  0
  -20.9946  -28.3197   24.1403 H   0  0  0  0  0  0
  -20.5506  -26.2288   23.3596 H   0  0  0  0  0  0
  -21.6615  -26.7349   22.1257 H   0  0  0  0  0  0
  -19.6855  -25.6284   21.1201 H   0  0  0  0  0  0
  -19.6621  -27.3166   20.6704 H   0  0  0  0  0  0
  -17.4150  -26.6628   21.4041 H   0  0  0  0  0  0
  -18.0344  -26.0021   22.8985 H   0  0  0  0  0  0
  -19.7931  -30.7215   24.2290 H   0  0  0  0  0  0
  -17.5008  -31.6250   24.5141 H   0  0  0  0  0  0
  -15.5334  -30.2951   23.7641 H   0  0  0  0  0  0
  -15.8665  -28.0765   22.7100 H   0  0  0  0  0  0
  -24.5934  -30.6975   25.7865 H   0  0  0  0  0  0
  -24.8836  -32.2771   26.4974 H   0  0  0  0  0  0
  -25.8080  -30.8876   27.0250 H   0  0  0  0  0  0
  -26.2875  -29.6811   24.1180 H   0  0  0  0  0  0
  -27.4063  -29.7318   25.4633 H   0  0  0  0  0  0
  -27.8699  -30.4437   23.9337 H   0  0  0  0  0  0
  -27.2736  -33.3619   26.2085 H   0  0  0  0  0  0
  -28.3826  -32.6821   25.0263 H   0  0  0  0  0  0
  -28.0740  -31.8386   26.5363 H   0  0  0  0  0  0
  -28.2585  -38.0104   24.7568 H   0  0  0  0  0  0
  -28.1093  -36.2667   24.6222 H   0  0  0  0  0  0
  -27.2342  -37.1347   25.8876 H   0  0  0  0  0  0
  -20.9299  -29.8850   21.7016 H   0  0  0  0  0  0
  -26.0186  -38.2877   24.1428 H   0  0  0  0  0  0
  -28.9697  -18.4558   24.1090 H   0  0  0  0  0  0
  -29.0679  -20.4734   22.7175 H   0  0  0  0  0  0
  -29.3246  -16.2348   23.1576 H   0  0  0  0  0  0
  -27.9705  -26.1167   22.0553 H   0  0  0  0  0  0
  -28.2965  -24.3709   23.3784 H   0  0  0  0  0  0
  -29.2807  -23.0223   22.8684 H   0  0  0  0  0  0
  -27.5261  -22.9970   22.6286 H   0  0  0  0  0  0
  -28.5876  -24.5557   18.4048 H   0  0  0  0  0  0
  -27.3052  -23.4091   18.7743 H   0  0  0  0  0  0
  -28.7712  -22.8684   17.9620 H   0  0  0  0  0  0
  -30.1157  -23.4344   19.9925 H   0  0  0  0  0  0
  -28.7352  -15.1972   20.6480 H   0  0  0  0  0  0
  -28.4111  -21.6892   21.3867 H   0  0  0  0  0  0
  1 25  1  0  0  0
  1 30  2  0  0  0
  1 83  1  0  0  0
  2  3  1  0  0  0
  2 25  1  0  0  0
  2 87  1  0  0  0
  2 88  1  0  0  0
  3  4  1  0  0  0
  3 89  1  0  0  0
  3 90  1  0  0  0
  4  5  1  0  0  0
  4 91  1  0  0  0
  4 92  1  0  0  0
  5  6  1  0  0  0
  5 26  1  0  0  0
  5 93  1  0  0  0
  6 25  1  0  0  0
  6 94  1  0  0  0
  6 95  1  0  0  0
  7  8  2  0  0  0
  7 26  1  0  0  0
  7 29  1  0  0  0
  8  9  1  0  0  0
  8 22  1  0  0  0
  9 10  1  0  0  0
  9 27  2  0  0  0
 10 11  2  0  0  0
 10 15  1  0  0  0
 11 12  1  0  0  0
 11 96  1  0  0  0
 12 13  2  0  0  0
 12 97  1  0  0  0
 13 14  1  0  0  0
 13 31  1  0  0  0
 14 15  2  0  0  0
 14 98  1  0  0  0
 15 99  1  0  0  0
 16 17  2  0  0  0
 16 21  1  0  0  0
 16 31  1  0  0  0
 17 18  1  0  0  0
 17100  1  0  0  0
 18 19  2  0  0  0
 18101  1  0  0  0
 19 20  1  0  0  0
 19 24  1  0  0  0
 20 21  2  0  0  0
 20102  1  0  0  0
 21 23  1  0  0  0
 22 28  1  0  0  0
 22 32  2  0  0  0
 26 27  1  0  0  0
 28103  1  0  0  0
 28104  1  0  0  0
 29105  1  0  0  0
 29106  1  0  0  0
 33 34  1  0  0  0
 33 66  1  0  0  0
 33 70  2  0  0  0
 34 36  1  0  0  0
 34 59  1  0  0  0
 34107  1  0  0  0
 35 44  2  0  0  0
 35 45  1  0  0  0
 35 68  1  0  0  0
 36 56  1  0  0  0
 36108  1  0  0  0
 37 39  1  0  0  0
 37 47  1  0  0  0
 37 66  1  0  0  0
 37109  1  0  0  0
 38 43  2  0  0  0
 38 46  1  0  0  0
 38 47  1  0  0  0
 39 64  1  0  0  0
 39 67  2  0  0  0
 40 52  1  0  0  0
 40 53  2  0  0  0
 40 58  1  0  0  0
 41110  1  0  0  0
 41111  1  0  0  0
 41112  1  0  0  0
 41 48  1  0  0  0
 42 43  1  0  0  0
 42 66  1  0  0  0
 42113  1  0  0  0
 42114  1  0  0  0
 43 44  1  0  0  0
 44115  1  0  0  0
 45 46  2  0  0  0
 45116  1  0  0  0
 46117  1  0  0  0
 47118  1  0  0  0
 47119  1  0  0  0
 48 56  1  0  0  0
 48 65  1  0  0  0
 48120  1  0  0  0
 49 50  1  0  0  0
 49 53  1  0  0  0
 49 64  1  0  0  0
 49121  1  0  0  0
 50 51  1  0  0  0
 50122  1  0  0  0
 50123  1  0  0  0
 51 52  1  0  0  0
 51124  1  0  0  0
 51125  1  0  0  0
 52126  1  0  0  0
 52127  1  0  0  0
 53 54  1  0  0  0
 54 55  2  0  0  0
 54128  1  0  0  0
 55 57  1  0  0  0
 55129  1  0  0  0
 56 69  2  0  0  0
 57 58  2  0  0  0
 57130  1  0  0  0
 58131  1  0  0  0
 59 60  1  0  0  0
 59 61  1  0  0  0
 59 62  1  0  0  0
 60132  1  0  0  0
 60133  1  0  0  0
 60134  1  0  0  0
 61135  1  0  0  0
 61136  1  0  0  0
 61137  1  0  0  0
 62138  1  0  0  0
 62139  1  0  0  0
 62140  1  0  0  0
 63 65  1  0  0  0
 63141  1  0  0  0
 63142  1  0  0  0
 63143  1  0  0  0
 64144  1  0  0  0
 65145  1  0  0  0
 68 77  1  0  0  0
 71 72  2  0  0  0
 71 73  1  0  0  0
 71146  1  0  0  0
 72 74  1  0  0  0
 72147  1  0  0  0
 73 75  2  0  0  0
 73148  1  0  0  0
 74 76  2  0  0  0
 74 78  1  0  0  0
 75 76  1  0  0  0
 75 83  1  0  0  0
 76 86  1  0  0  0
 77 79  2  0  0  0
 77149  1  0  0  0
 78 84  1  0  0  0
 78 85  2  0  0  0
 79 80  1  0  0  0
 79 82  1  0  0  0
 80150  1  0  0  0
 80151  1  0  0  0
 80152  1  0  0  0
 81153  1  0  0  0
 81154  1  0  0  0
 81155  1  0  0  0
 81 82  1  0  0  0
 82 84  1  0  0  0
 82156  1  0  0  0
 83157  1  0  0  0
 84158  1  0  0  0
M  ISO  4   1 100  68 101  77 101  83 100
M  END
> <chiral flag>
0

> <version>
0

> <s_m_source_file>
/data/baiqing/PycharmProjects/Reinvent-master-3.2/result/LINK_invent/BTK/process_docking_weight1_custom_product_contain_oxygen_bond_distance_aromatic_linkinvent_7_9_3/rearranged_h_0074.sdf

> <i_m_source_file_index>
56

> <r_mmod_Potential_Energy-OPLS-2005>
7.16874361038208

> <r_mmod_Stretch_Energy-OPLS-2005>
61.0577774047852

> <r_mmod_Bend_Energy-OPLS-2005>
140.289459228516

> <r_mmod_Torsional_Energy-OPLS-2005>
270.239074707031

> <r_mmod_Improper_Torsional_Energy-OPLS-2005>
13.6341152191162

> <r_mmod_Van_der_Waal_Energy-OPLS-2005>
143.583374023438

> <r_mmod_Electrostatic_Energy-OPLS-2005>
-431.638397216797

> <r_mmod_Solvation_Energy-OPLS-2005>
-228.877380371094

> <b_mmod_Minimization_Converged-OPLS-2005>
0

> <r_mmod_RMS_Derivative-OPLS-2005>
7.11346197128296

$$$$
58
                    3D
 Structure written by MMmdl.
158167  0  0  1  0            999 V2000
  -30.6189  -14.6346   20.5508 C   0  0  0  0  0  0
  -30.4484  -12.3984   19.4631 C   0  0  0  0  0  0
  -29.5205  -12.5213   18.2342 C   0  0  0  0  0  0
  -28.0405  -12.3551   18.6374 C   0  0  0  0  0  0
  -27.6591  -13.2132   19.8728 C   0  0  2  0  0  0
  -28.6980  -13.0445   21.0032 C   0  0  0  0  0  0
  -25.2588  -13.8171   20.5640 C   0  0  0  0  0  0
  -24.1833  -13.0451   20.9158 C   0  0  0  0  0  0
  -24.6391  -11.6918   20.8740 C   0  0  0  0  0  0
  -23.9072  -10.4306   21.0413 C   0  0  0  0  0  0
  -24.3625   -9.4221   21.9191 C   0  0  0  0  0  0
  -23.6295   -8.2269   22.0767 C   0  0  0  0  0  0
  -22.4273   -8.0309   21.3559 C   0  0  0  0  0  0
  -21.9903   -9.0287   20.4659 C   0  0  0  0  0  0
  -22.7247  -10.2154   20.3060 C   0  0  0  0  0  0
  -21.6857   -6.0746   22.5276 C   0  0  0  0  0  0
  -21.4023   -6.5655   23.8212 C   0  0  0  0  0  0
  -21.3652   -5.6803   24.9174 C   0  0  0  0  0  0
  -21.6030   -4.3065   24.7218 C   0  0  0  0  0  0
  -21.8825   -3.8158   23.4338 C   0  0  0  0  0  0
  -21.9195   -4.6969   22.3395 C   0  0  0  0  0  0
  -22.7858  -13.5257   21.1807 C   0  0  0  0  0  0
  -22.1669   -4.2164   21.0969 F   0  0  0  0  0  0
  -21.5605   -3.4541   25.7726 F   0  0  0  0  0  0
  -30.0167  -13.4046   20.4549 N   0  0  0  0  0  0
  -26.3015  -12.9333   20.3331 N   0  0  0  0  0  0
  -25.9318  -11.6489   20.5750 N   0  0  0  0  0  0
  -22.0480  -12.8295   22.0377 N   0  0  0  0  0  0
  -25.4353  -15.1873   20.3933 N   0  0  0  0  0  0
  -31.7640  -14.8157   20.1228 O   0  0  0  0  0  0
  -21.6651   -6.8894   21.4242 O   0  0  0  0  0  0
  -22.3560  -14.5564   20.6626 O   0  0  0  0  0  0
  -24.6252  -31.8585   23.2041 C   0  0  0  0  0  0
  -25.9101  -32.4768   23.8364 C   0  0  1  0  0  0
  -27.2248  -27.3148   20.1116 C   0  0  0  0  0  0
  -25.5918  -33.8573   24.2282 N   0  0  0  0  0  0
  -23.4193  -30.4825   21.5462 C   0  0  2  0  0  0
  -24.8658  -28.9399   20.1097 C   0  0  0  0  0  0
  -22.7466  -29.4621   22.4940 C   0  0  0  0  0  0
  -18.0279  -28.1376   22.8478 C   0  0  0  0  0  0
  -24.1471  -36.7296   23.2638 C   0  0  0  0  0  0
  -25.9614  -30.7874   21.3777 C   0  0  0  0  0  0
  -26.0356  -29.4163   20.7144 C   0  0  0  0  0  0
  -27.2175  -28.6160   20.7061 C   0  0  0  0  0  0
  -26.0313  -26.8983   19.4747 C   0  0  0  0  0  0
  -24.8658  -27.6855   19.4825 C   0  0  0  0  0  0
  -23.6324  -29.8177   20.1614 C   0  0  0  0  0  0
  -25.4096  -36.3074   24.0320 C   0  0  1  0  0  0
  -20.5878  -28.3679   23.1269 C   0  0  2  0  0  0
  -20.6762  -26.9399   22.5396 C   0  0  0  0  0  0
  -19.5742  -26.6377   21.5190 C   0  0  0  0  0  0
  -18.1923  -26.7924   22.1606 C   0  0  0  0  0  0
  -19.1531  -28.8848   23.2869 C   0  0  0  0  0  0
  -18.9464  -30.1451   23.8887 C   0  0  0  0  0  0
  -17.6465  -30.6584   24.0551 C   0  0  0  0  0  0
  -25.9038  -34.9438   23.5098 C   0  0  0  0  0  0
  -16.5355  -29.9072   23.6333 C   0  0  0  0  0  0
  -16.7269  -28.6483   23.0366 C   0  0  0  0  0  0
  -26.4494  -31.6593   25.0750 C   0  0  0  0  0  0
  -25.3752  -31.3726   26.1500 C   0  0  0  0  0  0
  -27.0339  -30.3008   24.6240 C   0  0  0  0  0  0
  -27.6049  -32.4340   25.7523 C   0  0  0  0  0  0
  -27.5559  -37.1795   24.8450 C   0  0  0  0  0  0
  -21.4182  -29.3029   22.3670 N   0  0  0  0  0  0
  -26.4271  -37.3765   23.9401 N   0  0  0  0  0  0
  -24.6872  -31.0596   22.0985 N   0  0  0  0  0  0
  -23.4185  -28.8157   23.3026 O   0  0  0  0  0  0
  -28.3390  -26.4579   20.1754 O   0  0  0  0  0  0
  -26.5600  -34.8908   22.4666 O   0  0  0  0  0  0
  -23.5419  -32.1385   23.7365 O   0  0  0  0  0  0
  -30.7576  -19.2521   20.0014 C   0  0  0  0  0  0
  -30.8106  -17.8310   20.1364 C   0  0  0  0  0  0
  -28.8331  -19.3307   21.4231 C   0  0  0  0  0  0
  -28.8997  -17.9137   21.6016 C   0  0  0  0  0  0
  -29.7531  -20.0551   20.6156 C   0  0  0  0  0  0
  -29.8767  -17.1123   20.9289 C   0  0  0  0  0  0
  -28.7287  -22.4376   20.7191 C   0  0  0  0  0  0
  -30.4044  -23.7146   19.6440 C   0  0  0  0  0  0
  -30.8774  -22.2722   19.9380 C   0  0  0  0  0  0
  -29.1744  -23.9299   20.5263 C   0  0  1  0  0  0
  -27.8888  -17.2998   22.5631 C   0  0  0  0  0  0
  -28.1115  -24.9990   19.9962 C   0  0  0  0  0  0
  -29.7189  -21.5278   20.4466 N   0  0  0  0  0  0
  -29.8348  -15.6480   21.0407 N   0  0  0  0  0  0
  -27.5824  -22.1537   21.0780 O   0  0  0  0  0  0
  -31.4893  -12.5353   19.1644 H   0  0  0  0  0  0
  -30.3926  -11.3972   19.8941 H   0  0  0  0  0  0
  -29.7897  -11.7771   17.4840 H   0  0  0  0  0  0
  -29.6678  -13.4951   17.7652 H   0  0  0  0  0  0
  -27.8729  -11.3004   18.8565 H   0  0  0  0  0  0
  -27.3939  -12.5972   17.7946 H   0  0  0  0  0  0
  -27.6883  -14.2534   19.5496 H   0  0  0  0  0  0
  -28.7083  -12.0109   21.3525 H   0  0  0  0  0  0
  -28.4339  -13.6448   21.8752 H   0  0  0  0  0  0
  -25.2763   -9.5708   22.4763 H   0  0  0  0  0  0
  -23.9998   -7.4663   22.7488 H   0  0  0  0  0  0
  -21.0835   -8.8819   19.8969 H   0  0  0  0  0  0
  -22.3714  -10.9696   19.6172 H   0  0  0  0  0  0
  -21.2048   -7.6163   23.9724 H   0  0  0  0  0  0
  -21.1450   -6.0527   25.9075 H   0  0  0  0  0  0
  -22.0607   -2.7617   23.2836 H   0  0  0  0  0  0
  -22.4067  -11.9975   22.4818 H   0  0  0  0  0  0
  -21.1088  -13.1348   22.2531 H   0  0  0  0  0  0
  -24.6656  -15.8424   20.4604 H   0  0  0  0  0  0
  -26.2753  -15.6063   20.0157 H   0  0  0  0  0  0
  -26.7174  -32.5424   23.1114 H   0  0  0  0  0  0
  -25.0065  -33.9718   25.0428 H   0  0  0  0  0  0
  -22.7132  -31.3030   21.4035 H   0  0  0  0  0  0
  -23.3708  -35.9654   23.3327 H   0  0  0  0  0  0
  -24.3557  -36.8894   22.2045 H   0  0  0  0  0  0
  -23.7259  -37.6524   23.6651 H   0  0  0  0  0  0
  -26.1007  -31.5552   20.6156 H   0  0  0  0  0  0
  -26.8372  -30.8284   22.0139 H   0  0  0  0  0  0
  -28.1139  -28.9749   21.1916 H   0  0  0  0  0  0
  -25.9656  -25.9450   18.9715 H   0  0  0  0  0  0
  -23.9686  -27.3165   19.0051 H   0  0  0  0  0  0
  -23.7458  -30.5928   19.4026 H   0  0  0  0  0  0
  -22.7529  -29.2435   19.8636 H   0  0  0  0  0  0
  -25.1272  -36.1926   25.0810 H   0  0  0  0  0  0
  -20.9964  -28.3250   24.1392 H   0  0  0  0  0  0
  -20.5630  -26.2287   23.3593 H   0  0  0  0  0  0
  -21.6635  -26.7409   22.1207 H   0  0  0  0  0  0
  -19.6894  -25.6283   21.1228 H   0  0  0  0  0  0
  -19.6681  -27.3171   20.6709 H   0  0  0  0  0  0
  -17.4184  -26.6668   21.4020 H   0  0  0  0  0  0
  -18.0330  -26.0064   22.9001 H   0  0  0  0  0  0
  -19.7948  -30.7259   24.2256 H   0  0  0  0  0  0
  -17.5028  -31.6273   24.5136 H   0  0  0  0  0  0
  -15.5360  -30.2968   23.7673 H   0  0  0  0  0  0
  -15.8666  -28.0789   22.7115 H   0  0  0  0  0  0
  -24.5924  -30.7066   25.7860 H   0  0  0  0  0  0
  -24.8953  -32.2882   26.4958 H   0  0  0  0  0  0
  -25.8110  -30.8909   27.0263 H   0  0  0  0  0  0
  -26.2917  -29.6762   24.1261 H   0  0  0  0  0  0
  -27.4000  -29.7273   25.4770 H   0  0  0  0  0  0
  -27.8804  -30.4270   23.9487 H   0  0  0  0  0  0
  -27.2652  -33.3639   26.2098 H   0  0  0  0  0  0
  -28.3862  -32.6911   25.0359 H   0  0  0  0  0  0
  -28.0719  -31.8484   26.5454 H   0  0  0  0  0  0
  -28.2572  -38.0094   24.7495 H   0  0  0  0  0  0
  -28.1059  -36.2627   24.6269 H   0  0  0  0  0  0
  -27.2288  -37.1436   25.8858 H   0  0  0  0  0  0
  -20.9361  -29.8759   21.6886 H   0  0  0  0  0  0
  -26.0147  -38.2838   24.1425 H   0  0  0  0  0  0
  -31.5151  -19.7096   19.3829 H   0  0  0  0  0  0
  -31.5853  -17.3005   19.6007 H   0  0  0  0  0  0
  -28.0577  -19.8699   21.9475 H   0  0  0  0  0  0
  -30.1263  -23.7981   18.5926 H   0  0  0  0  0  0
  -31.1873  -24.4487   19.8309 H   0  0  0  0  0  0
  -31.6479  -22.2727   20.7115 H   0  0  0  0  0  0
  -31.3050  -21.8298   19.0392 H   0  0  0  0  0  0
  -29.4999  -24.2550   21.5145 H   0  0  0  0  0  0
  -27.9167  -17.8338   23.5147 H   0  0  0  0  0  0
  -28.0710  -16.2502   22.7911 H   0  0  0  0  0  0
  -26.8772  -17.3888   22.1685 H   0  0  0  0  0  0
  -27.1687  -24.7480   20.4835 H   0  0  0  0  0  0
  -27.9594  -24.8181   18.9316 H   0  0  0  0  0  0
  -28.9769  -15.2983   21.4391 H   0  0  0  0  0  0
  1 25  1  0  0  0
  1 30  2  0  0  0
  1 84  1  0  0  0
  2  3  1  0  0  0
  2 25  1  0  0  0
  2 86  1  0  0  0
  2 87  1  0  0  0
  3  4  1  0  0  0
  3 88  1  0  0  0
  3 89  1  0  0  0
  4  5  1  0  0  0
  4 90  1  0  0  0
  4 91  1  0  0  0
  5  6  1  0  0  0
  5 26  1  0  0  0
  5 92  1  0  0  0
  6 25  1  0  0  0
  6 93  1  0  0  0
  6 94  1  0  0  0
  7  8  2  0  0  0
  7 26  1  0  0  0
  7 29  1  0  0  0
  8  9  1  0  0  0
  8 22  1  0  0  0
  9 10  1  0  0  0
  9 27  2  0  0  0
 10 11  2  0  0  0
 10 15  1  0  0  0
 11 12  1  0  0  0
 11 95  1  0  0  0
 12 13  2  0  0  0
 12 96  1  0  0  0
 13 14  1  0  0  0
 13 31  1  0  0  0
 14 15  2  0  0  0
 14 97  1  0  0  0
 15 98  1  0  0  0
 16 17  2  0  0  0
 16 21  1  0  0  0
 16 31  1  0  0  0
 17 18  1  0  0  0
 17 99  1  0  0  0
 18 19  2  0  0  0
 18100  1  0  0  0
 19 20  1  0  0  0
 19 24  1  0  0  0
 20 21  2  0  0  0
 20101  1  0  0  0
 21 23  1  0  0  0
 22 28  1  0  0  0
 22 32  2  0  0  0
 26 27  1  0  0  0
 28102  1  0  0  0
 28103  1  0  0  0
 29104  1  0  0  0
 29105  1  0  0  0
 33 34  1  0  0  0
 33 66  1  0  0  0
 33 70  2  0  0  0
 34 36  1  0  0  0
 34 59  1  0  0  0
 34106  1  0  0  0
 35 44  2  0  0  0
 35 45  1  0  0  0
 35 68  1  0  0  0
 36 56  1  0  0  0
 36107  1  0  0  0
 37 39  1  0  0  0
 37 47  1  0  0  0
 37 66  1  0  0  0
 37108  1  0  0  0
 38 43  2  0  0  0
 38 46  1  0  0  0
 38 47  1  0  0  0
 39 64  1  0  0  0
 39 67  2  0  0  0
 40 52  1  0  0  0
 40 53  2  0  0  0
 40 58  1  0  0  0
 41109  1  0  0  0
 41110  1  0  0  0
 41111  1  0  0  0
 41 48  1  0  0  0
 42 43  1  0  0  0
 42 66  1  0  0  0
 42112  1  0  0  0
 42113  1  0  0  0
 43 44  1  0  0  0
 44114  1  0  0  0
 45 46  2  0  0  0
 45115  1  0  0  0
 46116  1  0  0  0
 47117  1  0  0  0
 47118  1  0  0  0
 48 56  1  0  0  0
 48 65  1  0  0  0
 48119  1  0  0  0
 49 50  1  0  0  0
 49 53  1  0  0  0
 49 64  1  0  0  0
 49120  1  0  0  0
 50 51  1  0  0  0
 50121  1  0  0  0
 50122  1  0  0  0
 51 52  1  0  0  0
 51123  1  0  0  0
 51124  1  0  0  0
 52125  1  0  0  0
 52126  1  0  0  0
 53 54  1  0  0  0
 54 55  2  0  0  0
 54127  1  0  0  0
 55 57  1  0  0  0
 55128  1  0  0  0
 56 69  2  0  0  0
 57 58  2  0  0  0
 57129  1  0  0  0
 58130  1  0  0  0
 59 60  1  0  0  0
 59 61  1  0  0  0
 59 62  1  0  0  0
 60131  1  0  0  0
 60132  1  0  0  0
 60133  1  0  0  0
 61134  1  0  0  0
 61135  1  0  0  0
 61136  1  0  0  0
 62137  1  0  0  0
 62138  1  0  0  0
 62139  1  0  0  0
 63 65  1  0  0  0
 63140  1  0  0  0
 63141  1  0  0  0
 63142  1  0  0  0
 64143  1  0  0  0
 65144  1  0  0  0
 68 82  1  0  0  0
 71 72  2  0  0  0
 71 75  1  0  0  0
 71145  1  0  0  0
 72 76  1  0  0  0
 72146  1  0  0  0
 73 74  1  0  0  0
 73 75  2  0  0  0
 73147  1  0  0  0
 74 76  2  0  0  0
 74 81  1  0  0  0
 75 83  1  0  0  0
 76 84  1  0  0  0
 77 80  1  0  0  0
 77 83  1  0  0  0
 77 85  2  0  0  0
 78 79  1  0  0  0
 78 80  1  0  0  0
 78148  1  0  0  0
 78149  1  0  0  0
 79 83  1  0  0  0
 79150  1  0  0  0
 79151  1  0  0  0
 80 82  1  0  0  0
 80152  1  0  0  0
 81153  1  0  0  0
 81154  1  0  0  0
 81155  1  0  0  0
 82156  1  0  0  0
 82157  1  0  0  0
 84158  1  0  0  0
M  ISO  4   1 100  68 101  82 101  84 100
M  END
> <chiral flag>
0

> <version>
0

> <s_m_source_file>
/data/baiqing/PycharmProjects/Reinvent-master-3.2/result/LINK_invent/BTK/process_docking_weight1_custom_product_contain_oxygen_bond_distance_aromatic_linkinvent_7_9_3/rearranged_h_0074.sdf

> <i_m_source_file_index>
57

> <r_mmod_Potential_Energy-OPLS-2005>
124.555702209473

> <r_mmod_Stretch_Energy-OPLS-2005>
85.7785491943359

> <r_mmod_Bend_Energy-OPLS-2005>
171.037719726562

> <r_mmod_Torsional_Energy-OPLS-2005>
254.924530029297

> <r_mmod_Improper_Torsional_Energy-OPLS-2005>
3.53630185127258

> <r_mmod_Van_der_Waal_Energy-OPLS-2005>
147.475845336914

> <r_mmod_Electrostatic_Energy-OPLS-2005>
-371.612640380859

> <r_mmod_Solvation_Energy-OPLS-2005>
-215.024856567383

> <b_mmod_Minimization_Converged-OPLS-2005>
0

> <r_mmod_RMS_Derivative-OPLS-2005>
2.68233036994934

$$$$
59
                    3D
 Structure written by MMmdl.
162171  0  0  1  0            999 V2000
  -30.6096  -14.7726   20.4582 C   0  0  0  0  0  0
  -30.4166  -12.4690   19.4926 C   0  0  0  0  0  0
  -29.5079  -12.5126   18.2453 C   0  0  0  0  0  0
  -28.0326  -12.3366   18.6503 C   0  0  0  0  0  0
  -27.6329  -13.2391   19.8482 C   0  0  2  0  0  0
  -28.6708  -13.1938   20.9900 C   0  0  0  0  0  0
  -25.2449  -13.8207   20.5691 C   0  0  0  0  0  0
  -24.1761  -13.0452   20.9207 C   0  0  0  0  0  0
  -24.6361  -11.6928   20.8751 C   0  0  0  0  0  0
  -23.9047  -10.4304   21.0401 C   0  0  0  0  0  0
  -24.3603   -9.4218   21.9179 C   0  0  0  0  0  0
  -23.6288   -8.2249   22.0751 C   0  0  0  0  0  0
  -22.4273   -8.0277   21.3543 C   0  0  0  0  0  0
  -21.9902   -9.0241   20.4640 C   0  0  0  0  0  0
  -22.7218  -10.2125   20.3051 C   0  0  0  0  0  0
  -21.6851   -6.0726   22.5277 C   0  0  0  0  0  0
  -21.4009   -6.5630   23.8209 C   0  0  0  0  0  0
  -21.3664   -5.6786   24.9173 C   0  0  0  0  0  0
  -21.6046   -4.3053   24.7224 C   0  0  0  0  0  0
  -21.8819   -3.8138   23.4351 C   0  0  0  0  0  0
  -21.9190   -4.6953   22.3406 C   0  0  0  0  0  0
  -22.7777  -13.5218   21.1877 C   0  0  0  0  0  0
  -22.1659   -4.2136   21.0986 F   0  0  0  0  0  0
  -21.5634   -3.4543   25.7743 F   0  0  0  0  0  0
  -29.9674  -13.5505   20.4072 N   0  0  0  0  0  0
  -26.2877  -12.9429   20.3259 N   0  0  0  0  0  0
  -25.9292  -11.6564   20.5730 N   0  0  0  0  0  0
  -22.0435  -12.8206   22.0435 N   0  0  0  0  0  0
  -25.4140  -15.1941   20.4117 N   0  0  0  0  0  0
  -31.8057  -14.7889   20.1619 O   0  0  0  0  0  0
  -21.6645   -6.8870   21.4242 O   0  0  0  0  0  0
  -22.3465  -14.5527   20.6730 O   0  0  0  0  0  0
  -24.6290  -31.8512   23.1959 C   0  0  0  0  0  0
  -25.9129  -32.4721   23.8280 C   0  0  1  0  0  0
  -27.2176  -27.2495   20.1319 C   0  0  0  0  0  0
  -25.5932  -33.8523   24.2175 N   0  0  0  0  0  0
  -23.4258  -30.4725   21.5409 C   0  0  2  0  0  0
  -24.8716  -28.9128   20.1101 C   0  0  0  0  0  0
  -22.7455  -29.4577   22.4914 C   0  0  0  0  0  0
  -18.0287  -28.1362   22.8490 C   0  0  0  0  0  0
  -24.1496  -36.7240   23.2639 C   0  0  0  0  0  0
  -25.9724  -30.7596   21.3809 C   0  0  0  0  0  0
  -26.0423  -29.3842   20.7153 C   0  0  0  0  0  0
  -27.2163  -28.5639   20.7133 C   0  0  0  0  0  0
  -26.0179  -26.8342   19.5175 C   0  0  0  0  0  0
  -24.8626  -27.6434   19.5062 C   0  0  0  0  0  0
  -23.6404  -29.7989   20.1591 C   0  0  0  0  0  0
  -25.4131  -36.3028   24.0303 C   0  0  1  0  0  0
  -20.5889  -28.3658   23.1271 C   0  0  2  0  0  0
  -20.6788  -26.9378   22.5418 C   0  0  0  0  0  0
  -19.5771  -26.6362   21.5213 C   0  0  0  0  0  0
  -18.1935  -26.7913   22.1616 C   0  0  0  0  0  0
  -19.1541  -28.8830   23.2872 C   0  0  0  0  0  0
  -18.9479  -30.1440   23.8879 C   0  0  0  0  0  0
  -17.6481  -30.6582   24.0555 C   0  0  0  0  0  0
  -25.9079  -34.9410   23.5038 C   0  0  0  0  0  0
  -16.5364  -29.9069   23.6368 C   0  0  0  0  0  0
  -16.7280  -28.6489   23.0386 C   0  0  0  0  0  0
  -26.4487  -31.6610   25.0722 C   0  0  0  0  0  0
  -25.3680  -31.3848   26.1438 C   0  0  0  0  0  0
  -27.0373  -30.3005   24.6340 C   0  0  0  0  0  0
  -27.5999  -32.4389   25.7524 C   0  0  0  0  0  0
  -27.5573  -37.1761   24.8450 C   0  0  0  0  0  0
  -21.4171  -29.3000   22.3638 N   0  0  0  0  0  0
  -26.4283  -37.3743   23.9403 N   0  0  0  0  0  0
  -24.6940  -31.0461   22.0946 N   0  0  0  0  0  0
  -23.4155  -28.8109   23.3008 O   0  0  0  0  0  0
  -28.3350  -26.3867   20.2203 O   0  0  0  0  0  0
  -26.5657  -34.8904   22.4615 O   0  0  0  0  0  0
  -23.5452  -32.1347   23.7275 O   0  0  0  0  0  0
  -31.9973  -19.0529   19.8816 C   0  0  0  0  0  0
  -31.5678  -17.7346   20.0896 C   0  0  0  0  0  0
  -29.3591  -18.5818   20.6073 C   0  0  0  0  0  0
  -31.1434  -20.1602   20.0244 C   0  0  0  0  0  0
  -29.7785  -19.9778   20.3878 C   0  0  0  0  0  0
  -30.2410  -17.4109   20.4542 C   0  0  0  0  0  0
  -28.5824  -22.2133   19.7435 C   0  0  0  0  0  0
  -31.7087  -22.1883   18.7449 C   0  0  0  0  0  0
  -31.7909  -21.4771   19.8812 C   0  0  0  0  0  0
  -28.8339  -23.3909   21.7584 C   0  0  0  0  0  0
  -28.9429  -21.8471   21.9585 C   0  0  0  0  0  0
  -28.1499  -23.5941   20.4046 C   0  0  1  0  0  0
  -32.5729  -21.9750   21.0805 C   0  0  0  0  0  0
  -28.4304  -25.0016   19.6286 C   0  0  0  0  0  0
  -28.9767  -21.2259   20.6309 N   0  0  0  0  0  0
  -29.8739  -15.9570   20.6485 N   0  0  0  0  0  0
  -28.5173  -22.0540   18.5207 O   0  0  0  0  0  0
  -31.4613  -12.5729   19.1966 H   0  0  0  0  0  0
  -30.3461  -11.4974   19.9859 H   0  0  0  0  0  0
  -29.7979  -11.7358   17.5359 H   0  0  0  0  0  0
  -29.6368  -13.4656   17.7284 H   0  0  0  0  0  0
  -27.8890  -11.2880   18.9141 H   0  0  0  0  0  0
  -27.3796  -12.5281   17.7975 H   0  0  0  0  0  0
  -27.6214  -14.2587   19.4616 H   0  0  0  0  0  0
  -28.7079  -12.2009   21.4411 H   0  0  0  0  0  0
  -28.3982  -13.8834   21.7902 H   0  0  0  0  0  0
  -25.2738   -9.5707   22.4763 H   0  0  0  0  0  0
  -23.9993   -7.4645   22.7483 H   0  0  0  0  0  0
  -21.0828   -8.8750   19.8949 H   0  0  0  0  0  0
  -22.3658  -10.9664   19.6168 H   0  0  0  0  0  0
  -21.2000   -7.6137   23.9705 H   0  0  0  0  0  0
  -21.1488   -6.0523   25.9075 H   0  0  0  0  0  0
  -22.0592   -2.7599   23.2858 H   0  0  0  0  0  0
  -22.4040  -11.9865   22.4826 H   0  0  0  0  0  0
  -21.1044  -13.1215   22.2635 H   0  0  0  0  0  0
  -24.6435  -15.8459   20.5140 H   0  0  0  0  0  0
  -26.2588  -15.6330   20.0704 H   0  0  0  0  0  0
  -26.7190  -32.5351   23.1009 H   0  0  0  0  0  0
  -25.0060  -33.9646   25.0306 H   0  0  0  0  0  0
  -22.7261  -31.2970   21.3913 H   0  0  0  0  0  0
  -23.3767  -35.9560   23.3288 H   0  0  0  0  0  0
  -24.3575  -36.8901   22.2056 H   0  0  0  0  0  0
  -23.7253  -37.6427   23.6701 H   0  0  0  0  0  0
  -26.1298  -31.5311   20.6262 H   0  0  0  0  0  0
  -26.8386  -30.7884   22.0301 H   0  0  0  0  0  0
  -28.1128  -28.9161   21.2042 H   0  0  0  0  0  0
  -25.9357  -25.8514   19.0798 H   0  0  0  0  0  0
  -23.9587  -27.2649   19.0483 H   0  0  0  0  0  0
  -23.7450  -30.5706   19.3943 H   0  0  0  0  0  0
  -22.7612  -29.2202   19.8708 H   0  0  0  0  0  0
  -25.1325  -36.1854   25.0797 H   0  0  0  0  0  0
  -21.0004  -28.3289   24.1380 H   0  0  0  0  0  0
  -20.5715  -26.2252   23.3616 H   0  0  0  0  0  0
  -21.6648  -26.7424   22.1182 H   0  0  0  0  0  0
  -19.6934  -25.6273   21.1243 H   0  0  0  0  0  0
  -19.6743  -27.3180   20.6750 H   0  0  0  0  0  0
  -17.4211  -26.6671   21.4016 H   0  0  0  0  0  0
  -18.0317  -26.0042   22.9001 H   0  0  0  0  0  0
  -19.7968  -30.7249   24.2228 H   0  0  0  0  0  0
  -17.5059  -31.6282   24.5113 H   0  0  0  0  0  0
  -15.5376  -30.2964   23.7718 H   0  0  0  0  0  0
  -15.8677  -28.0812   22.7114 H   0  0  0  0  0  0
  -24.5850  -30.7192   25.7799 H   0  0  0  0  0  0
  -24.8868  -32.3058   26.4746 H   0  0  0  0  0  0
  -25.7947  -30.9128   27.0297 H   0  0  0  0  0  0
  -26.3034  -29.6729   24.1279 H   0  0  0  0  0  0
  -27.3895  -29.7329   25.4965 H   0  0  0  0  0  0
  -27.8965  -30.4217   23.9734 H   0  0  0  0  0  0
  -27.2560  -33.3696   26.2055 H   0  0  0  0  0  0
  -28.3856  -32.6955   25.0402 H   0  0  0  0  0  0
  -28.0620  -31.8561   26.5511 H   0  0  0  0  0  0
  -28.2552  -38.0089   24.7528 H   0  0  0  0  0  0
  -28.1098  -36.2614   24.6242 H   0  0  0  0  0  0
  -27.2270  -37.1379   25.8842 H   0  0  0  0  0  0
  -20.9330  -29.8670   21.6815 H   0  0  0  0  0  0
  -26.0148  -38.2794   24.1465 H   0  0  0  0  0  0
  -33.0347  -19.2161   19.6244 H   0  0  0  0  0  0
  -32.3339  -16.9895   19.9644 H   0  0  0  0  0  0
  -28.3377  -18.4079   20.9181 H   0  0  0  0  0  0
  -31.1580  -21.8165   17.8925 H   0  0  0  0  0  0
  -32.1844  -23.1527   18.6469 H   0  0  0  0  0  0
  -29.8292  -23.8354   21.7280 H   0  0  0  0  0  0
  -28.2859  -23.8773   22.5662 H   0  0  0  0  0  0
  -28.0797  -21.4617   22.5021 H   0  0  0  0  0  0
  -29.8257  -21.5894   22.5412 H   0  0  0  0  0  0
  -27.0735  -23.5208   20.5635 H   0  0  0  0  0  0
  -33.3690  -21.2713   21.3266 H   0  0  0  0  0  0
  -31.9326  -22.0711   21.9557 H   0  0  0  0  0  0
  -33.0285  -22.9463   20.8871 H   0  0  0  0  0  0
  -27.8840  -24.9871   18.6856 H   0  0  0  0  0  0
  -29.4674  -24.9386   19.2991 H   0  0  0  0  0  0
  -28.9097  -15.7895   20.8943 H   0  0  0  0  0  0
  1 25  1  0  0  0
  1 30  2  0  0  0
  1 86  1  0  0  0
  2  3  1  0  0  0
  2 25  1  0  0  0
  2 88  1  0  0  0
  2 89  1  0  0  0
  3  4  1  0  0  0
  3 90  1  0  0  0
  3 91  1  0  0  0
  4  5  1  0  0  0
  4 92  1  0  0  0
  4 93  1  0  0  0
  5  6  1  0  0  0
  5 26  1  0  0  0
  5 94  1  0  0  0
  6 25  1  0  0  0
  6 95  1  0  0  0
  6 96  1  0  0  0
  7  8  2  0  0  0
  7 26  1  0  0  0
  7 29  1  0  0  0
  8  9  1  0  0  0
  8 22  1  0  0  0
  9 10  1  0  0  0
  9 27  2  0  0  0
 10 11  2  0  0  0
 10 15  1  0  0  0
 11 12  1  0  0  0
 11 97  1  0  0  0
 12 13  2  0  0  0
 12 98  1  0  0  0
 13 14  1  0  0  0
 13 31  1  0  0  0
 14 15  2  0  0  0
 14 99  1  0  0  0
 15100  1  0  0  0
 16 17  2  0  0  0
 16 21  1  0  0  0
 16 31  1  0  0  0
 17 18  1  0  0  0
 17101  1  0  0  0
 18 19  2  0  0  0
 18102  1  0  0  0
 19 20  1  0  0  0
 19 24  1  0  0  0
 20 21  2  0  0  0
 20103  1  0  0  0
 21 23  1  0  0  0
 22 28  1  0  0  0
 22 32  2  0  0  0
 26 27  1  0  0  0
 28104  1  0  0  0
 28105  1  0  0  0
 29106  1  0  0  0
 29107  1  0  0  0
 33 34  1  0  0  0
 33 66  1  0  0  0
 33 70  2  0  0  0
 34 36  1  0  0  0
 34 59  1  0  0  0
 34108  1  0  0  0
 35 44  2  0  0  0
 35 45  1  0  0  0
 35 68  1  0  0  0
 36 56  1  0  0  0
 36109  1  0  0  0
 37 39  1  0  0  0
 37 47  1  0  0  0
 37 66  1  0  0  0
 37110  1  0  0  0
 38 43  2  0  0  0
 38 46  1  0  0  0
 38 47  1  0  0  0
 39 64  1  0  0  0
 39 67  2  0  0  0
 40 52  1  0  0  0
 40 53  2  0  0  0
 40 58  1  0  0  0
 41111  1  0  0  0
 41112  1  0  0  0
 41113  1  0  0  0
 41 48  1  0  0  0
 42 43  1  0  0  0
 42 66  1  0  0  0
 42114  1  0  0  0
 42115  1  0  0  0
 43 44  1  0  0  0
 44116  1  0  0  0
 45 46  2  0  0  0
 45117  1  0  0  0
 46118  1  0  0  0
 47119  1  0  0  0
 47120  1  0  0  0
 48 56  1  0  0  0
 48 65  1  0  0  0
 48121  1  0  0  0
 49 50  1  0  0  0
 49 53  1  0  0  0
 49 64  1  0  0  0
 49122  1  0  0  0
 50 51  1  0  0  0
 50123  1  0  0  0
 50124  1  0  0  0
 51 52  1  0  0  0
 51125  1  0  0  0
 51126  1  0  0  0
 52127  1  0  0  0
 52128  1  0  0  0
 53 54  1  0  0  0
 54 55  2  0  0  0
 54129  1  0  0  0
 55 57  1  0  0  0
 55130  1  0  0  0
 56 69  2  0  0  0
 57 58  2  0  0  0
 57131  1  0  0  0
 58132  1  0  0  0
 59 60  1  0  0  0
 59 61  1  0  0  0
 59 62  1  0  0  0
 60133  1  0  0  0
 60134  1  0  0  0
 60135  1  0  0  0
 61136  1  0  0  0
 61137  1  0  0  0
 61138  1  0  0  0
 62139  1  0  0  0
 62140  1  0  0  0
 62141  1  0  0  0
 63 65  1  0  0  0
 63142  1  0  0  0
 63143  1  0  0  0
 63144  1  0  0  0
 64145  1  0  0  0
 65146  1  0  0  0
 68 84  1  0  0  0
 71 72  2  0  0  0
 71 74  1  0  0  0
 71147  1  0  0  0
 72 76  1  0  0  0
 72148  1  0  0  0
 73 75  1  0  0  0
 73 76  2  0  0  0
 73149  1  0  0  0
 74 75  2  0  0  0
 74 79  1  0  0  0
 75 85  1  0  0  0
 76 86  1  0  0  0
 77 82  1  0  0  0
 77 85  1  0  0  0
 77 87  2  0  0  0
 78 79  2  0  0  0
 78150  1  0  0  0
 78151  1  0  0  0
 79 83  1  0  0  0
 80 81  1  0  0  0
 80 82  1  0  0  0
 80152  1  0  0  0
 80153  1  0  0  0
 81 85  1  0  0  0
 81154  1  0  0  0
 81155  1  0  0  0
 82 84  1  0  0  0
 82156  1  0  0  0
 83157  1  0  0  0
 83158  1  0  0  0
 83159  1  0  0  0
 84160  1  0  0  0
 84161  1  0  0  0
 86162  1  0  0  0
M  ISO  4   1 100  68 101  84 101  86 100
M  END
> <chiral flag>
0

> <version>
0

> <s_m_source_file>
/data/baiqing/PycharmProjects/Reinvent-master-3.2/result/LINK_invent/BTK/process_docking_weight1_custom_product_contain_oxygen_bond_distance_aromatic_linkinvent_7_9_3/rearranged_h_0074.sdf

> <i_m_source_file_index>
58

> <r_mmod_Potential_Energy-OPLS-2005>
339.223052978516

> <r_mmod_Stretch_Energy-OPLS-2005>
148.068771362305

> <r_mmod_Bend_Energy-OPLS-2005>
225.821426391602

> <r_mmod_Torsional_Energy-OPLS-2005>
310.087432861328

> <r_mmod_Improper_Torsional_Energy-OPLS-2005>
6.37479686737061

> <r_mmod_Van_der_Waal_Energy-OPLS-2005>
137.50146484375

> <r_mmod_Electrostatic_Energy-OPLS-2005>
-367.977294921875

> <r_mmod_Solvation_Energy-OPLS-2005>
-214.344390869141

> <b_mmod_Minimization_Converged-OPLS-2005>
0

> <r_mmod_RMS_Derivative-OPLS-2005>
2.77419304847717

$$$$
60
                    3D
 Structure written by MMmdl.
163172  0  0  1  0            999 V2000
  -30.6645  -14.6256   20.5355 C   0  0  0  0  0  0
  -30.4216  -12.3955   19.4582 C   0  0  0  0  0  0
  -29.4997  -12.5144   18.2264 C   0  0  0  0  0  0
  -28.0249  -12.3535   18.6384 C   0  0  0  0  0  0
  -27.6485  -13.2253   19.8660 C   0  0  2  0  0  0
  -28.6912  -13.0999   20.9990 C   0  0  0  0  0  0
  -25.2524  -13.8202   20.5687 C   0  0  0  0  0  0
  -24.1803  -13.0442   20.9185 C   0  0  0  0  0  0
  -24.6392  -11.6921   20.8756 C   0  0  0  0  0  0
  -23.9067  -10.4299   21.0417 C   0  0  0  0  0  0
  -24.3615   -9.4205   21.9196 C   0  0  0  0  0  0
  -23.6282   -8.2244   22.0759 C   0  0  0  0  0  0
  -22.4273   -8.0291   21.3541 C   0  0  0  0  0  0
  -21.9911   -9.0266   20.4646 C   0  0  0  0  0  0
  -22.7240  -10.2142   20.3056 C   0  0  0  0  0  0
  -21.6855   -6.0733   22.5280 C   0  0  0  0  0  0
  -21.4017   -6.5640   23.8211 C   0  0  0  0  0  0
  -21.3659   -5.6797   24.9176 C   0  0  0  0  0  0
  -21.6038   -4.3055   24.7234 C   0  0  0  0  0  0
  -21.8821   -3.8147   23.4349 C   0  0  0  0  0  0
  -21.9188   -4.6961   22.3397 C   0  0  0  0  0  0
  -22.7823  -13.5227   21.1860 C   0  0  0  0  0  0
  -22.1658   -4.2144   21.0981 F   0  0  0  0  0  0
  -21.5624   -3.4539   25.7745 F   0  0  0  0  0  0
  -30.0041  -13.4290   20.4292 N   0  0  0  0  0  0
  -26.2965  -12.9400   20.3352 N   0  0  0  0  0  0
  -25.9321  -11.6543   20.5777 N   0  0  0  0  0  0
  -22.0475  -12.8204   22.0410 N   0  0  0  0  0  0
  -25.4205  -15.1926   20.4089 N   0  0  0  0  0  0
  -31.8281  -14.7296   20.1342 O   0  0  0  0  0  0
  -21.6640   -6.8883   21.4244 O   0  0  0  0  0  0
  -22.3501  -14.5544   20.6729 O   0  0  0  0  0  0
  -24.6263  -31.8615   23.2034 C   0  0  0  0  0  0
  -25.9119  -32.4787   23.8358 C   0  0  1  0  0  0
  -27.2213  -27.3255   20.1216 C   0  0  0  0  0  0
  -25.5945  -33.8580   24.2294 N   0  0  0  0  0  0
  -23.4194  -30.4822   21.5489 C   0  0  2  0  0  0
  -24.8659  -28.9305   20.1246 C   0  0  0  0  0  0
  -22.7456  -29.4613   22.4962 C   0  0  0  0  0  0
  -18.0267  -28.1362   22.8463 C   0  0  0  0  0  0
  -24.1498  -36.7300   23.2636 C   0  0  0  0  0  0
  -25.9589  -30.7913   21.3768 C   0  0  0  0  0  0
  -26.0358  -29.4154   20.7245 C   0  0  0  0  0  0
  -27.2228  -28.6222   20.7143 C   0  0  0  0  0  0
  -26.0347  -26.8876   19.5040 C   0  0  0  0  0  0
  -24.8626  -27.6683   19.5092 C   0  0  0  0  0  0
  -23.6363  -29.8150   20.1660 C   0  0  0  0  0  0
  -25.4127  -36.3096   24.0314 C   0  0  1  0  0  0
  -20.5864  -28.3678   23.1269 C   0  0  2  0  0  0
  -20.6783  -26.9406   22.5402 C   0  0  0  0  0  0
  -19.5770  -26.6365   21.5187 C   0  0  0  0  0  0
  -18.1938  -26.7903   22.1579 C   0  0  0  0  0  0
  -19.1518  -28.8829   23.2862 C   0  0  0  0  0  0
  -18.9470  -30.1438   23.8889 C   0  0  0  0  0  0
  -17.6476  -30.6591   24.0532 C   0  0  0  0  0  0
  -25.9055  -34.9457   23.5108 C   0  0  0  0  0  0
  -16.5365  -29.9084   23.6315 C   0  0  0  0  0  0
  -16.7258  -28.6494   23.0337 C   0  0  0  0  0  0
  -26.4499  -31.6594   25.0727 C   0  0  0  0  0  0
  -25.3714  -31.3736   26.1453 C   0  0  0  0  0  0
  -27.0359  -30.3022   24.6181 C   0  0  0  0  0  0
  -27.6065  -32.4338   25.7506 C   0  0  0  0  0  0
  -27.5597  -37.1803   24.8457 C   0  0  0  0  0  0
  -21.4177  -29.3048   22.3696 N   0  0  0  0  0  0
  -26.4314  -37.3771   23.9394 N   0  0  0  0  0  0
  -24.6861  -31.0623   22.0991 N   0  0  0  0  0  0
  -23.4174  -28.8148   23.3050 O   0  0  0  0  0  0
  -28.3242  -26.4711   20.0998 O   0  0  0  0  0  0
  -26.5625  -34.8924   22.4672 O   0  0  0  0  0  0
  -23.5438  -32.1412   23.7364 O   0  0  0  0  0  0
  -31.3729  -19.7787   21.4493 C   0  0  0  0  0  0
  -31.7130  -17.3649   21.5417 C   0  0  0  0  0  0
  -30.0480  -19.6215   20.9868 C   0  0  0  0  0  0
  -32.1967  -18.6737   21.7231 C   0  0  0  0  0  0
  -30.3982  -17.1192   21.0728 C   0  0  0  0  0  0
  -29.5589  -18.2719   20.8253 C   0  0  0  0  0  0
  -29.7752  -21.7192   19.7299 C   0  0  0  0  0  0
  -29.5201  -23.2627   19.8116 C   0  0  0  0  0  0
  -28.1158  -22.8635   21.8008 C   0  0  0  0  0  0
  -28.2181  -21.3144   21.5715 C   0  0  0  0  0  0
  -28.2321  -23.7674   20.5299 C   0  0  2  0  0  0
  -27.0043  -23.5458   19.6234 C   0  0  0  0  0  0
  -28.2928  -25.3067   21.0022 C   0  0  0  0  0  0
  -29.3283  -20.8705   20.7049 N   0  0  0  0  0  0
  -33.5031  -18.8832   22.1661 N   0  0  0  0  0  0
  -29.9406  -15.7346   20.9059 N   0  0  0  0  0  0
  -30.4416  -21.3034   18.7753 O   0  0  0  0  0  0
  -28.2852  -18.0698   20.4082 F   0  0  0  0  0  0
  -31.4656  -12.4987   19.1574 H   0  0  0  0  0  0
  -30.3354  -11.4035   19.9050 H   0  0  0  0  0  0
  -29.7637  -11.7654   17.4784 H   0  0  0  0  0  0
  -29.6421  -13.4855   17.7490 H   0  0  0  0  0  0
  -27.8626  -11.3002   18.8700 H   0  0  0  0  0  0
  -27.3688  -12.5846   17.7994 H   0  0  0  0  0  0
  -27.6633  -14.2592   19.5219 H   0  0  0  0  0  0
  -28.7014  -12.0857   21.4042 H   0  0  0  0  0  0
  -28.4389  -13.7544   21.8351 H   0  0  0  0  0  0
  -25.2760   -9.5685   22.4774 H   0  0  0  0  0  0
  -23.9993   -7.4637   22.7483 H   0  0  0  0  0  0
  -21.0845   -8.8790   19.8947 H   0  0  0  0  0  0
  -22.3713  -10.9683   19.6172 H   0  0  0  0  0  0
  -21.2023   -7.6159   23.9717 H   0  0  0  0  0  0
  -21.1475   -6.0529   25.9082 H   0  0  0  0  0  0
  -22.0598   -2.7609   23.2855 H   0  0  0  0  0  0
  -22.4096  -11.9853   22.4767 H   0  0  0  0  0  0
  -21.1100  -13.1235   22.2657 H   0  0  0  0  0  0
  -24.6492  -15.8423   20.5118 H   0  0  0  0  0  0
  -26.2678  -15.6378   20.0799 H   0  0  0  0  0  0
  -26.7175  -32.5482   23.1100 H   0  0  0  0  0  0
  -25.0064  -33.9713   25.0426 H   0  0  0  0  0  0
  -22.7148  -31.3041   21.4026 H   0  0  0  0  0  0
  -23.3761  -35.9643   23.3291 H   0  0  0  0  0  0
  -24.3591  -36.8939   22.2058 H   0  0  0  0  0  0
  -23.7255  -37.6494   23.6670 H   0  0  0  0  0  0
  -26.0879  -31.5566   20.6089 H   0  0  0  0  0  0
  -26.8365  -30.8392   22.0100 H   0  0  0  0  0  0
  -28.1286  -28.9855   21.1801 H   0  0  0  0  0  0
  -25.9995  -25.9301   19.0144 H   0  0  0  0  0  0
  -23.9658  -27.2873   19.0382 H   0  0  0  0  0  0
  -23.7692  -30.5905   19.4109 H   0  0  0  0  0  0
  -22.7536  -29.2531   19.8589 H   0  0  0  0  0  0
  -25.1292  -36.1950   25.0804 H   0  0  0  0  0  0
  -20.9933  -28.3309   24.1395 H   0  0  0  0  0  0
  -20.5698  -26.2303   23.3608 H   0  0  0  0  0  0
  -21.6648  -26.7481   22.1180 H   0  0  0  0  0  0
  -19.6954  -25.6266   21.1229 H   0  0  0  0  0  0
  -19.6709  -27.3171   20.6707 H   0  0  0  0  0  0
  -17.4192  -26.6633   21.3987 H   0  0  0  0  0  0
  -18.0345  -26.0064   22.8991 H   0  0  0  0  0  0
  -19.7981  -30.7208   24.2278 H   0  0  0  0  0  0
  -17.5064  -31.6272   24.5156 H   0  0  0  0  0  0
  -15.5367  -30.2982   23.7669 H   0  0  0  0  0  0
  -15.8655  -28.0818   22.7049 H   0  0  0  0  0  0
  -24.5903  -30.7065   25.7778 H   0  0  0  0  0  0
  -24.8880  -32.2900   26.4853 H   0  0  0  0  0  0
  -25.8026  -30.8940   27.0250 H   0  0  0  0  0  0
  -26.2939  -29.6754   24.1217 H   0  0  0  0  0  0
  -27.4061  -29.7296   25.4694 H   0  0  0  0  0  0
  -27.8796  -30.4284   23.9391 H   0  0  0  0  0  0
  -27.2666  -33.3656   26.2039 H   0  0  0  0  0  0
  -28.3890  -32.6873   25.0334 H   0  0  0  0  0  0
  -28.0691  -31.8477   26.5455 H   0  0  0  0  0  0
  -28.2571  -38.0141   24.7539 H   0  0  0  0  0  0
  -28.1129  -36.2664   24.6230 H   0  0  0  0  0  0
  -27.2305  -37.1370   25.8857 H   0  0  0  0  0  0
  -20.9377  -29.8819   21.6925 H   0  0  0  0  0  0
  -26.0203  -38.2847   24.1424 H   0  0  0  0  0  0
  -31.7627  -20.7778   21.5882 H   0  0  0  0  0  0
  -32.3682  -16.5387   21.7745 H   0  0  0  0  0  0
  -29.5607  -23.6749   18.8035 H   0  0  0  0  0  0
  -30.3886  -23.6795   20.3209 H   0  0  0  0  0  0
  -28.9125  -23.1471   22.4920 H   0  0  0  0  0  0
  -27.1857  -23.0859   22.3290 H   0  0  0  0  0  0
  -27.2903  -20.9439   21.1377 H   0  0  0  0  0  0
  -28.3046  -20.8224   22.5418 H   0  0  0  0  0  0
  -26.8262  -22.4910   19.4169 H   0  0  0  0  0  0
  -27.1414  -24.0309   18.6553 H   0  0  0  0  0  0
  -26.0949  -23.9403   20.0776 H   0  0  0  0  0  0
  -29.1907  -25.4105   21.6121 H   0  0  0  0  0  0
  -27.4817  -25.4639   21.7161 H   0  0  0  0  0  0
  -33.7988  -19.7998   22.4888 H   0  0  0  0  0  0
  -34.0469  -18.1190   22.5571 H   0  0  0  0  0  0
  -28.9530  -15.5824   21.0431 H   0  0  0  0  0  0
  1 25  1  0  0  0
  1 30  2  0  0  0
  1 86  1  0  0  0
  2  3  1  0  0  0
  2 25  1  0  0  0
  2 89  1  0  0  0
  2 90  1  0  0  0
  3  4  1  0  0  0
  3 91  1  0  0  0
  3 92  1  0  0  0
  4  5  1  0  0  0
  4 93  1  0  0  0
  4 94  1  0  0  0
  5  6  1  0  0  0
  5 26  1  0  0  0
  5 95  1  0  0  0
  6 25  1  0  0  0
  6 96  1  0  0  0
  6 97  1  0  0  0
  7  8  2  0  0  0
  7 26  1  0  0  0
  7 29  1  0  0  0
  8  9  1  0  0  0
  8 22  1  0  0  0
  9 10  1  0  0  0
  9 27  2  0  0  0
 10 11  2  0  0  0
 10 15  1  0  0  0
 11 12  1  0  0  0
 11 98  1  0  0  0
 12 13  2  0  0  0
 12 99  1  0  0  0
 13 14  1  0  0  0
 13 31  1  0  0  0
 14 15  2  0  0  0
 14100  1  0  0  0
 15101  1  0  0  0
 16 17  2  0  0  0
 16 21  1  0  0  0
 16 31  1  0  0  0
 17 18  1  0  0  0
 17102  1  0  0  0
 18 19  2  0  0  0
 18103  1  0  0  0
 19 20  1  0  0  0
 19 24  1  0  0  0
 20 21  2  0  0  0
 20104  1  0  0  0
 21 23  1  0  0  0
 22 28  1  0  0  0
 22 32  2  0  0  0
 26 27  1  0  0  0
 28105  1  0  0  0
 28106  1  0  0  0
 29107  1  0  0  0
 29108  1  0  0  0
 33 34  1  0  0  0
 33 66  1  0  0  0
 33 70  2  0  0  0
 34 36  1  0  0  0
 34 59  1  0  0  0
 34109  1  0  0  0
 35 44  2  0  0  0
 35 45  1  0  0  0
 35 68  1  0  0  0
 36 56  1  0  0  0
 36110  1  0  0  0
 37 39  1  0  0  0
 37 47  1  0  0  0
 37 66  1  0  0  0
 37111  1  0  0  0
 38 43  2  0  0  0
 38 46  1  0  0  0
 38 47  1  0  0  0
 39 64  1  0  0  0
 39 67  2  0  0  0
 40 52  1  0  0  0
 40 53  2  0  0  0
 40 58  1  0  0  0
 41112  1  0  0  0
 41113  1  0  0  0
 41114  1  0  0  0
 41 48  1  0  0  0
 42 43  1  0  0  0
 42 66  1  0  0  0
 42115  1  0  0  0
 42116  1  0  0  0
 43 44  1  0  0  0
 44117  1  0  0  0
 45 46  2  0  0  0
 45118  1  0  0  0
 46119  1  0  0  0
 47120  1  0  0  0
 47121  1  0  0  0
 48 56  1  0  0  0
 48 65  1  0  0  0
 48122  1  0  0  0
 49 50  1  0  0  0
 49 53  1  0  0  0
 49 64  1  0  0  0
 49123  1  0  0  0
 50 51  1  0  0  0
 50124  1  0  0  0
 50125  1  0  0  0
 51 52  1  0  0  0
 51126  1  0  0  0
 51127  1  0  0  0
 52128  1  0  0  0
 52129  1  0  0  0
 53 54  1  0  0  0
 54 55  2  0  0  0
 54130  1  0  0  0
 55 57  1  0  0  0
 55131  1  0  0  0
 56 69  2  0  0  0
 57 58  2  0  0  0
 57132  1  0  0  0
 58133  1  0  0  0
 59 60  1  0  0  0
 59 61  1  0  0  0
 59 62  1  0  0  0
 60134  1  0  0  0
 60135  1  0  0  0
 60136  1  0  0  0
 61137  1  0  0  0
 61138  1  0  0  0
 61139  1  0  0  0
 62140  1  0  0  0
 62141  1  0  0  0
 62142  1  0  0  0
 63 65  1  0  0  0
 63143  1  0  0  0
 63144  1  0  0  0
 63145  1  0  0  0
 64146  1  0  0  0
 65147  1  0  0  0
 68 83  1  0  0  0
 71 73  2  0  0  0
 71 74  1  0  0  0
 71148  1  0  0  0
 72 74  2  0  0  0
 72 75  1  0  0  0
 72149  1  0  0  0
 73 76  1  0  0  0
 73 84  1  0  0  0
 74 85  1  0  0  0
 75 76  2  0  0  0
 75 86  1  0  0  0
 76 88  1  0  0  0
 77 78  1  0  0  0
 77 84  1  0  0  0
 77 87  2  0  0  0
 78 81  1  0  0  0
 78150  1  0  0  0
 78151  1  0  0  0
 79 80  1  0  0  0
 79 81  1  0  0  0
 79152  1  0  0  0
 79153  1  0  0  0
 80 84  1  0  0  0
 80154  1  0  0  0
 80155  1  0  0  0
 81 82  1  0  0  0
 81 83  1  0  0  0
 82156  1  0  0  0
 82157  1  0  0  0
 82158  1  0  0  0
 83159  1  0  0  0
 83160  1  0  0  0
 85161  1  0  0  0
 85162  1  0  0  0
 86163  1  0  0  0
M  ISO  4   1 100  68 101  83 101  86 100
M  END
> <chiral flag>
0

> <version>
0

> <s_m_source_file>
/data/baiqing/PycharmProjects/Reinvent-master-3.2/result/LINK_invent/BTK/process_docking_weight1_custom_product_contain_oxygen_bond_distance_aromatic_linkinvent_7_9_3/rearranged_h_0074.sdf

> <i_m_source_file_index>
59

> <r_mmod_Potential_Energy-OPLS-2005>
146.701110839844

> <r_mmod_Stretch_Energy-OPLS-2005>
83.9747009277344

> <r_mmod_Bend_Energy-OPLS-2005>
152.7783203125

> <r_mmod_Torsional_Energy-OPLS-2005>
326.015899658203

> <r_mmod_Improper_Torsional_Energy-OPLS-2005>
6.33860349655151

> <r_mmod_Van_der_Waal_Energy-OPLS-2005>
150.608612060547

> <r_mmod_Electrostatic_Energy-OPLS-2005>
-391.032928466797

> <r_mmod_Solvation_Energy-OPLS-2005>
-226.548202514648

> <b_mmod_Minimization_Converged-OPLS-2005>
0

> <r_mmod_RMS_Derivative-OPLS-2005>
3.44450688362122

$$$$
61
                    3D
 Structure written by MMmdl.
157166  0  0  1  0            999 V2000
  -30.6281  -14.5525   20.5588 C   0  0  0  0  0  0
  -30.4397  -12.3459   19.4408 C   0  0  0  0  0  0
  -29.5016  -12.4808   18.2188 C   0  0  0  0  0  0
  -28.0229  -12.3337   18.6320 C   0  0  0  0  0  0
  -27.6583  -13.1955   19.8678 C   0  0  2  0  0  0
  -28.6956  -12.9918   20.9941 C   0  0  0  0  0  0
  -25.2617  -13.8140   20.5688 C   0  0  0  0  0  0
  -24.1845  -13.0436   20.9168 C   0  0  0  0  0  0
  -24.6361  -11.6892   20.8710 C   0  0  0  0  0  0
  -23.9014  -10.4288   21.0399 C   0  0  0  0  0  0
  -24.3593   -9.4210   21.9171 C   0  0  0  0  0  0
  -23.6270   -8.2241   22.0741 C   0  0  0  0  0  0
  -22.4259   -8.0270   21.3523 C   0  0  0  0  0  0
  -21.9865   -9.0254   20.4655 C   0  0  0  0  0  0
  -22.7177  -10.2145   20.3060 C   0  0  0  0  0  0
  -21.6846   -6.0717   22.5265 C   0  0  0  0  0  0
  -21.4023   -6.5638   23.8194 C   0  0  0  0  0  0
  -21.3656   -5.6795   24.9160 C   0  0  0  0  0  0
  -21.6047   -4.3056   24.7219 C   0  0  0  0  0  0
  -21.8824   -3.8130   23.4341 C   0  0  0  0  0  0
  -21.9197   -4.6949   22.3390 C   0  0  0  0  0  0
  -22.7879  -13.5260   21.1842 C   0  0  0  0  0  0
  -22.1668   -4.2124   21.0974 F   0  0  0  0  0  0
  -21.5614   -3.4548   25.7729 F   0  0  0  0  0  0
  -30.0225  -13.3337   20.4501 N   0  0  0  0  0  0
  -26.2996  -12.9269   20.3310 N   0  0  0  0  0  0
  -25.9278  -11.6449   20.5738 N   0  0  0  0  0  0
  -22.0539  -12.8253   22.0415 N   0  0  0  0  0  0
  -25.4453  -15.1857   20.4177 N   0  0  0  0  0  0
  -31.7550  -14.7720   20.1010 O   0  0  0  0  0  0
  -21.6627   -6.8856   21.4219 O   0  0  0  0  0  0
  -22.3575  -14.5574   20.6694 O   0  0  0  0  0  0
  -24.6182  -31.8636   23.2061 C   0  0  0  0  0  0
  -25.9059  -32.4808   23.8359 C   0  0  1  0  0  0
  -27.2334  -27.3809   20.1032 C   0  0  0  0  0  0
  -25.5900  -33.8606   24.2301 N   0  0  0  0  0  0
  -23.4087  -30.4863   21.5471 C   0  0  2  0  0  0
  -24.8548  -28.9473   20.1115 C   0  0  0  0  0  0
  -22.7437  -29.4621   22.4966 C   0  0  0  0  0  0
  -18.0283  -28.1373   22.8465 C   0  0  0  0  0  0
  -24.1491  -36.7316   23.2621 C   0  0  0  0  0  0
  -25.9419  -30.8133   21.3662 C   0  0  0  0  0  0
  -26.0168  -29.4442   20.7126 C   0  0  0  0  0  0
  -27.2041  -28.6665   20.7081 C   0  0  0  0  0  0
  -26.0413  -26.9042   19.5091 C   0  0  0  0  0  0
  -24.8649  -27.6782   19.5082 C   0  0  0  0  0  0
  -23.6188  -29.8203   20.1617 C   0  0  0  0  0  0
  -25.4105  -36.3107   24.0330 C   0  0  1  0  0  0
  -20.5877  -28.3660   23.1316 C   0  0  2  0  0  0
  -20.6768  -26.9380   22.5456 C   0  0  0  0  0  0
  -19.5777  -26.6378   21.5217 C   0  0  0  0  0  0
  -18.1933  -26.7923   22.1581 C   0  0  0  0  0  0
  -19.1523  -28.8832   23.2891 C   0  0  0  0  0  0
  -18.9454  -30.1422   23.8920 C   0  0  0  0  0  0
  -17.6450  -30.6563   24.0581 C   0  0  0  0  0  0
  -25.9040  -34.9474   23.5114 C   0  0  0  0  0  0
  -16.5347  -29.9066   23.6316 C   0  0  0  0  0  0
  -16.7270  -28.6496   23.0320 C   0  0  0  0  0  0
  -26.4486  -31.6604   25.0697 C   0  0  0  0  0  0
  -25.3776  -31.3796   26.1491 C   0  0  0  0  0  0
  -27.0248  -30.3012   24.6104 C   0  0  0  0  0  0
  -27.6102  -32.4320   25.7383 C   0  0  0  0  0  0
  -27.5625  -37.1758   24.8405 C   0  0  0  0  0  0
  -21.4158  -29.3010   22.3697 N   0  0  0  0  0  0
  -26.4278  -37.3813   23.9440 N   0  0  0  0  0  0
  -24.6749  -31.0697   22.0983 N   0  0  0  0  0  0
  -23.4188  -28.8179   23.3022 O   0  0  0  0  0  0
  -28.3995  -26.6229   20.1645 O   0  0  0  0  0  0
  -26.5605  -34.8934   22.4684 O   0  0  0  0  0  0
  -23.5369  -32.1404   23.7442 O   0  0  0  0  0  0
  -30.4967  -19.1410   20.0829 C   0  0  0  0  0  0
  -30.6899  -17.7379   20.2229 C   0  0  0  0  0  0
  -28.7234  -17.6272   21.6189 C   0  0  0  0  0  0
  -29.3930  -19.8121   20.6782 C   0  0  0  0  0  0
  -29.7888  -16.9482   20.9801 C   0  0  0  0  0  0
  -28.5298  -19.0249   21.4857 C   0  0  0  0  0  0
  -27.8457  -23.1372   19.6801 C   0  0  0  0  0  0
  -28.7792  -24.0867   19.9245 C   0  0  0  0  0  0
  -30.0209  -23.6386   20.5425 C   0  0  0  0  0  0
  -27.9656  -21.6986   19.9813 C   0  0  0  0  0  0
  -30.9231  -24.5211   21.0062 C   0  0  0  0  0  0
  -30.3202  -22.1422   20.6435 C   0  0  0  0  0  0
  -28.6226  -25.4944   19.2801 C   0  0  0  0  0  0
  -29.1640  -21.2379   20.4646 N   0  0  0  0  0  0
  -29.8508  -15.5101   21.1273 N   0  0  0  0  0  0
  -27.0192  -20.9394   19.7488 O   0  0  0  0  0  0
  -27.5109  -19.6064   22.1644 F   0  0  0  0  0  0
  -31.4802  -12.4788   19.1377 H   0  0  0  0  0  0
  -30.3795  -11.3421   19.8650 H   0  0  0  0  0  0
  -29.7498  -11.7169   17.4803 H   0  0  0  0  0  0
  -29.6544  -13.4438   17.7286 H   0  0  0  0  0  0
  -27.8564  -11.2799   18.8615 H   0  0  0  0  0  0
  -27.3660  -12.5668   17.7930 H   0  0  0  0  0  0
  -27.6964  -14.2379   19.5497 H   0  0  0  0  0  0
  -28.6913  -11.9531   21.3297 H   0  0  0  0  0  0
  -28.4330  -13.5752   21.8771 H   0  0  0  0  0  0
  -25.2754   -9.5685   22.4725 H   0  0  0  0  0  0
  -23.9987   -7.4641   22.7458 H   0  0  0  0  0  0
  -21.0773   -8.8776   19.8988 H   0  0  0  0  0  0
  -22.3611  -10.9692   19.6182 H   0  0  0  0  0  0
  -21.2029   -7.6152   23.9693 H   0  0  0  0  0  0
  -21.1473   -6.0528   25.9062 H   0  0  0  0  0  0
  -22.0606   -2.7589   23.2855 H   0  0  0  0  0  0
  -22.4190  -11.9920   22.4790 H   0  0  0  0  0  0
  -21.1178  -13.1301   22.2687 H   0  0  0  0  0  0
  -24.6951  -15.8546   20.5473 H   0  0  0  0  0  0
  -26.3089  -15.6128   20.1079 H   0  0  0  0  0  0
  -26.7109  -32.5504   23.1095 H   0  0  0  0  0  0
  -25.0067  -33.9764   25.0453 H   0  0  0  0  0  0
  -22.6985  -31.3042   21.4089 H   0  0  0  0  0  0
  -23.3784  -35.9610   23.3188 H   0  0  0  0  0  0
  -24.3620  -36.9027   22.2055 H   0  0  0  0  0  0
  -23.7192  -37.6468   23.6695 H   0  0  0  0  0  0
  -26.0603  -31.5763   20.5960 H   0  0  0  0  0  0
  -26.8288  -30.8674   21.9861 H   0  0  0  0  0  0
  -28.0973  -29.0455   21.1857 H   0  0  0  0  0  0
  -25.9797  -25.9189   19.0723 H   0  0  0  0  0  0
  -23.9662  -27.2837   19.0543 H   0  0  0  0  0  0
  -23.7293  -30.5975   19.4045 H   0  0  0  0  0  0
  -22.7405  -29.2452   19.8626 H   0  0  0  0  0  0
  -25.1266  -36.1957   25.0819 H   0  0  0  0  0  0
  -20.9962  -28.3256   24.1436 H   0  0  0  0  0  0
  -20.5613  -26.2274   23.3653 H   0  0  0  0  0  0
  -21.6654  -26.7368   22.1310 H   0  0  0  0  0  0
  -19.6949  -25.6300   21.1214 H   0  0  0  0  0  0
  -19.6767  -27.3218   20.6780 H   0  0  0  0  0  0
  -17.4237  -26.6700   21.3944 H   0  0  0  0  0  0
  -18.0283  -26.0049   22.8945 H   0  0  0  0  0  0
  -19.7927  -30.7223   24.2319 H   0  0  0  0  0  0
  -17.5001  -31.6223   24.5207 H   0  0  0  0  0  0
  -15.5346  -30.2970   23.7629 H   0  0  0  0  0  0
  -15.8674  -28.0829   22.7003 H   0  0  0  0  0  0
  -24.5904  -30.7159   25.7899 H   0  0  0  0  0  0
  -24.9021  -32.2989   26.4917 H   0  0  0  0  0  0
  -25.8153  -30.9003   27.0254 H   0  0  0  0  0  0
  -26.2751  -29.6799   24.1186 H   0  0  0  0  0  0
  -27.3993  -29.7252   25.4573 H   0  0  0  0  0  0
  -27.8619  -30.4276   23.9238 H   0  0  0  0  0  0
  -27.2748  -33.3587   26.2054 H   0  0  0  0  0  0
  -28.3803  -32.6952   25.0113 H   0  0  0  0  0  0
  -28.0892  -31.8396   26.5189 H   0  0  0  0  0  0
  -28.2545  -38.0153   24.7609 H   0  0  0  0  0  0
  -28.1214  -36.2704   24.5981 H   0  0  0  0  0  0
  -27.2395  -37.1108   25.8810 H   0  0  0  0  0  0
  -20.9329  -29.8709   21.6898 H   0  0  0  0  0  0
  -26.0164  -38.2857   24.1584 H   0  0  0  0  0  0
  -31.2009  -19.6931   19.4775 H   0  0  0  0  0  0
  -31.5302  -17.2786   19.7222 H   0  0  0  0  0  0
  -28.0208  -17.0724   22.2243 H   0  0  0  0  0  0
  -26.9530  -23.4364   19.1518 H   0  0  0  0  0  0
  -30.7625  -25.5888   20.9679 H   0  0  0  0  0  0
  -31.8496  -24.1824   21.4483 H   0  0  0  0  0  0
  -30.7718  -21.9335   21.6149 H   0  0  0  0  0  0
  -31.0715  -21.9137   19.8875 H   0  0  0  0  0  0
  -27.9237  -25.4507   18.4478 H   0  0  0  0  0  0
  -29.5697  -25.7013   18.7832 H   0  0  0  0  0  0
  -29.0359  -15.1090   21.5657 H   0  0  0  0  0  0
  1 25  1  0  0  0
  1 30  2  0  0  0
  1 85  1  0  0  0
  2  3  1  0  0  0
  2 25  1  0  0  0
  2 88  1  0  0  0
  2 89  1  0  0  0
  3  4  1  0  0  0
  3 90  1  0  0  0
  3 91  1  0  0  0
  4  5  1  0  0  0
  4 92  1  0  0  0
  4 93  1  0  0  0
  5  6  1  0  0  0
  5 26  1  0  0  0
  5 94  1  0  0  0
  6 25  1  0  0  0
  6 95  1  0  0  0
  6 96  1  0  0  0
  7  8  2  0  0  0
  7 26  1  0  0  0
  7 29  1  0  0  0
  8  9  1  0  0  0
  8 22  1  0  0  0
  9 10  1  0  0  0
  9 27  2  0  0  0
 10 11  2  0  0  0
 10 15  1  0  0  0
 11 12  1  0  0  0
 11 97  1  0  0  0
 12 13  2  0  0  0
 12 98  1  0  0  0
 13 14  1  0  0  0
 13 31  1  0  0  0
 14 15  2  0  0  0
 14 99  1  0  0  0
 15100  1  0  0  0
 16 17  2  0  0  0
 16 21  1  0  0  0
 16 31  1  0  0  0
 17 18  1  0  0  0
 17101  1  0  0  0
 18 19  2  0  0  0
 18102  1  0  0  0
 19 20  1  0  0  0
 19 24  1  0  0  0
 20 21  2  0  0  0
 20103  1  0  0  0
 21 23  1  0  0  0
 22 28  1  0  0  0
 22 32  2  0  0  0
 26 27  1  0  0  0
 28104  1  0  0  0
 28105  1  0  0  0
 29106  1  0  0  0
 29107  1  0  0  0
 33 34  1  0  0  0
 33 66  1  0  0  0
 33 70  2  0  0  0
 34 36  1  0  0  0
 34 59  1  0  0  0
 34108  1  0  0  0
 35 44  2  0  0  0
 35 45  1  0  0  0
 35 68  1  0  0  0
 36 56  1  0  0  0
 36109  1  0  0  0
 37 39  1  0  0  0
 37 47  1  0  0  0
 37 66  1  0  0  0
 37110  1  0  0  0
 38 43  2  0  0  0
 38 46  1  0  0  0
 38 47  1  0  0  0
 39 64  1  0  0  0
 39 67  2  0  0  0
 40 52  1  0  0  0
 40 53  2  0  0  0
 40 58  1  0  0  0
 41111  1  0  0  0
 41112  1  0  0  0
 41113  1  0  0  0
 41 48  1  0  0  0
 42 43  1  0  0  0
 42 66  1  0  0  0
 42114  1  0  0  0
 42115  1  0  0  0
 43 44  1  0  0  0
 44116  1  0  0  0
 45 46  2  0  0  0
 45117  1  0  0  0
 46118  1  0  0  0
 47119  1  0  0  0
 47120  1  0  0  0
 48 56  1  0  0  0
 48 65  1  0  0  0
 48121  1  0  0  0
 49 50  1  0  0  0
 49 53  1  0  0  0
 49 64  1  0  0  0
 49122  1  0  0  0
 50 51  1  0  0  0
 50123  1  0  0  0
 50124  1  0  0  0
 51 52  1  0  0  0
 51125  1  0  0  0
 51126  1  0  0  0
 52127  1  0  0  0
 52128  1  0  0  0
 53 54  1  0  0  0
 54 55  2  0  0  0
 54129  1  0  0  0
 55 57  1  0  0  0
 55130  1  0  0  0
 56 69  2  0  0  0
 57 58  2  0  0  0
 57131  1  0  0  0
 58132  1  0  0  0
 59 60  1  0  0  0
 59 61  1  0  0  0
 59 62  1  0  0  0
 60133  1  0  0  0
 60134  1  0  0  0
 60135  1  0  0  0
 61136  1  0  0  0
 61137  1  0  0  0
 61138  1  0  0  0
 62139  1  0  0  0
 62140  1  0  0  0
 62141  1  0  0  0
 63 65  1  0  0  0
 63142  1  0  0  0
 63143  1  0  0  0
 63144  1  0  0  0
 64145  1  0  0  0
 65146  1  0  0  0
 68 83  1  0  0  0
 71 72  2  0  0  0
 71 74  1  0  0  0
 71147  1  0  0  0
 72 75  1  0  0  0
 72148  1  0  0  0
 73 75  2  0  0  0
 73 76  1  0  0  0
 73149  1  0  0  0
 74 76  2  0  0  0
 74 84  1  0  0  0
 75 85  1  0  0  0
 76 87  1  0  0  0
 77 78  2  0  0  0
 77 80  1  0  0  0
 77150  1  0  0  0
 78 79  1  0  0  0
 78 83  1  0  0  0
 79 81  2  0  0  0
 79 82  1  0  0  0
 80 84  1  0  0  0
 80 86  2  0  0  0
 81151  1  0  0  0
 81152  1  0  0  0
 82 84  1  0  0  0
 82153  1  0  0  0
 82154  1  0  0  0
 83155  1  0  0  0
 83156  1  0  0  0
 85157  1  0  0  0
M  ISO  4   1 100  68 101  83 101  85 100
M  END
> <chiral flag>
0

> <version>
0

> <s_m_source_file>
/data/baiqing/PycharmProjects/Reinvent-master-3.2/result/LINK_invent/BTK/process_docking_weight1_custom_product_contain_oxygen_bond_distance_aromatic_linkinvent_7_9_3/rearranged_h_0074.sdf

> <i_m_source_file_index>
60

> <r_mmod_Potential_Energy-OPLS-2005>
73.5642166137695

> <r_mmod_Stretch_Energy-OPLS-2005>
58.0711479187012

> <r_mmod_Bend_Energy-OPLS-2005>
146.410736083984

> <r_mmod_Torsional_Energy-OPLS-2005>
261.822235107422

> <r_mmod_Improper_Torsional_Energy-OPLS-2005>
4.14131307601929

> <r_mmod_Van_der_Waal_Energy-OPLS-2005>
171.303588867188

> <r_mmod_Electrostatic_Energy-OPLS-2005>
-379.000823974609

> <r_mmod_Solvation_Energy-OPLS-2005>
-215.226867675781

> <b_mmod_Minimization_Converged-OPLS-2005>
0

> <r_mmod_RMS_Derivative-OPLS-2005>
2.49547529220581

$$$$
62
                    3D
 Structure written by MMmdl.
161170  0  0  1  0            999 V2000
  -30.7295  -14.4754   20.5830 C   0  0  0  0  0  0
  -30.4137  -12.3159   19.4240 C   0  0  0  0  0  0
  -29.4893  -12.5072   18.2061 C   0  0  0  0  0  0
  -28.0133  -12.3616   18.6207 C   0  0  0  0  0  0
  -27.6584  -13.2127   19.8689 C   0  0  2  0  0  0
  -28.7002  -13.0173   20.9935 C   0  0  0  0  0  0
  -25.2584  -13.8179   20.5694 C   0  0  0  0  0  0
  -24.1836  -13.0451   20.9189 C   0  0  0  0  0  0
  -24.6404  -11.6920   20.8752 C   0  0  0  0  0  0
  -23.9076  -10.4298   21.0412 C   0  0  0  0  0  0
  -24.3624   -9.4211   21.9191 C   0  0  0  0  0  0
  -23.6300   -8.2246   22.0757 C   0  0  0  0  0  0
  -22.4275   -8.0287   21.3549 C   0  0  0  0  0  0
  -21.9917   -9.0261   20.4649 C   0  0  0  0  0  0
  -22.7250  -10.2141   20.3059 C   0  0  0  0  0  0
  -21.6851   -6.0744   22.5286 C   0  0  0  0  0  0
  -21.4009   -6.5645   23.8220 C   0  0  0  0  0  0
  -21.3661   -5.6797   24.9183 C   0  0  0  0  0  0
  -21.6044   -4.3060   24.7230 C   0  0  0  0  0  0
  -21.8817   -3.8156   23.4349 C   0  0  0  0  0  0
  -21.9189   -4.6974   22.3407 C   0  0  0  0  0  0
  -22.7858  -13.5252   21.1849 C   0  0  0  0  0  0
  -22.1660   -4.2161   21.0987 F   0  0  0  0  0  0
  -21.5628   -3.4539   25.7742 F   0  0  0  0  0  0
  -30.0295  -13.3152   20.4356 N   0  0  0  0  0  0
  -26.3017  -12.9358   20.3351 N   0  0  0  0  0  0
  -25.9326  -11.6512   20.5765 N   0  0  0  0  0  0
  -22.0491  -12.8232   22.0397 N   0  0  0  0  0  0
  -25.4293  -15.1896   20.4062 N   0  0  0  0  0  0
  -31.8352  -14.6452   20.0655 O   0  0  0  0  0  0
  -21.6636   -6.8882   21.4243 O   0  0  0  0  0  0
  -22.3541  -14.5555   20.6699 O   0  0  0  0  0  0
  -24.6179  -31.8680   23.2080 C   0  0  0  0  0  0
  -25.9058  -32.4827   23.8398 C   0  0  1  0  0  0
  -27.2245  -27.3954   20.0754 C   0  0  0  0  0  0
  -25.5900  -33.8623   24.2325 N   0  0  0  0  0  0
  -23.4070  -30.4964   21.5496 C   0  0  2  0  0  0
  -24.8482  -28.9560   20.1180 C   0  0  0  0  0  0
  -22.7417  -29.4695   22.4950 C   0  0  0  0  0  0
  -18.0279  -28.1379   22.8522 C   0  0  0  0  0  0
  -24.1489  -36.7298   23.2640 C   0  0  0  0  0  0
  -25.9433  -30.8178   21.3692 C   0  0  0  0  0  0
  -26.0151  -29.4531   20.7077 C   0  0  0  0  0  0
  -27.2040  -28.6807   20.6825 C   0  0  0  0  0  0
  -26.0225  -26.9150   19.5045 C   0  0  0  0  0  0
  -24.8479  -27.6877   19.5166 C   0  0  0  0  0  0
  -23.6167  -29.8329   20.1627 C   0  0  0  0  0  0
  -25.4115  -36.3109   24.0340 C   0  0  1  0  0  0
  -20.5874  -28.3675   23.1302 C   0  0  2  0  0  0
  -20.6771  -26.9417   22.5387 C   0  0  0  0  0  0
  -19.5750  -26.6392   21.5191 C   0  0  0  0  0  0
  -18.1936  -26.7930   22.1623 C   0  0  0  0  0  0
  -19.1524  -28.8838   23.2916 C   0  0  0  0  0  0
  -18.9463  -30.1440   23.8938 C   0  0  0  0  0  0
  -17.6465  -30.6582   24.0568 C   0  0  0  0  0  0
  -25.9045  -34.9477   23.5129 C   0  0  0  0  0  0
  -16.5358  -29.9093   23.6329 C   0  0  0  0  0  0
  -16.7277  -28.6497   23.0394 C   0  0  0  0  0  0
  -26.4477  -31.6617   25.0732 C   0  0  0  0  0  0
  -25.3753  -31.3723   26.1483 C   0  0  0  0  0  0
  -27.0285  -30.3050   24.6124 C   0  0  0  0  0  0
  -27.6056  -32.4329   25.7504 C   0  0  0  0  0  0
  -27.5588  -37.1816   24.8472 C   0  0  0  0  0  0
  -21.4137  -29.3070   22.3711 N   0  0  0  0  0  0
  -26.4298  -37.3804   23.9420 N   0  0  0  0  0  0
  -24.6747  -31.0746   22.1000 N   0  0  0  0  0  0
  -23.4184  -28.8229   23.2993 O   0  0  0  0  0  0
  -28.4137  -26.6750   20.0643 O   0  0  0  0  0  0
  -26.5600  -34.8937   22.4693 O   0  0  0  0  0  0
  -23.5359  -32.1459   23.7446 O   0  0  0  0  0  0
  -29.0086  -18.3333   21.0358 C   0  0  0  0  0  0
  -28.5918  -19.6669   20.7772 C   0  0  0  0  0  0
  -30.8092  -20.4616   21.1739 C   0  0  0  0  0  0
  -30.3441  -18.0513   21.4019 C   0  0  0  0  0  0
  -29.4643  -20.7874   20.8685 C   0  0  0  0  0  0
  -31.2421  -19.1430   21.4429 C   0  0  0  0  0  0
  -27.8996  -22.8684   20.3368 C   0  0  0  0  0  0
  -30.9399  -16.5169   23.3435 C   0  0  0  0  0  0
  -29.9300  -23.2840   20.5873 C   0  0  0  0  0  0
  -28.6707  -24.2044   20.6528 C   0  0  2  0  0  0
  -28.2489  -24.7347   22.0340 C   0  0  0  0  0  0
  -28.4969  -25.3105   19.5640 C   0  0  0  0  0  0
  -30.8466  -16.6474   21.8254 C   0  0  1  0  0  0
  -31.0978  -15.4146   23.9511 N   0  0  0  0  0  0
  -29.0235  -22.1527   20.7208 N   0  0  0  0  0  0
  -30.1400  -15.4579   21.2942 N   0  0  0  0  0  0
  -26.8140  -22.5245   19.9195 O   0  0  0  0  0  0
  -32.5379  -18.9374   21.7816 F   0  0  0  0  0  0
  -31.4594  -12.3998   19.1230 H   0  0  0  0  0  0
  -30.3069  -11.3107   19.8332 H   0  0  0  0  0  0
  -29.7344  -11.7832   17.4289 H   0  0  0  0  0  0
  -29.6536  -13.4922   17.7666 H   0  0  0  0  0  0
  -27.8315  -11.3063   18.8283 H   0  0  0  0  0  0
  -27.3596  -12.6243   17.7888 H   0  0  0  0  0  0
  -27.6960  -14.2573   19.5587 H   0  0  0  0  0  0
  -28.6785  -11.9887   21.3569 H   0  0  0  0  0  0
  -28.4560  -13.6358   21.8580 H   0  0  0  0  0  0
  -25.2768   -9.5686   22.4766 H   0  0  0  0  0  0
  -24.0010   -7.4633   22.7471 H   0  0  0  0  0  0
  -21.0848   -8.8785   19.8946 H   0  0  0  0  0  0
  -22.3718  -10.9680   19.6164 H   0  0  0  0  0  0
  -21.2001   -7.6152   23.9729 H   0  0  0  0  0  0
  -21.1483   -6.0528   25.9092 H   0  0  0  0  0  0
  -22.0591   -2.7612   23.2849 H   0  0  0  0  0  0
  -22.4082  -11.9887   22.4780 H   0  0  0  0  0  0
  -21.1112  -13.1257   22.2590 H   0  0  0  0  0  0
  -24.6626  -15.8456   20.5106 H   0  0  0  0  0  0
  -26.2779  -15.6231   20.0663 H   0  0  0  0  0  0
  -26.7144  -32.5517   23.1169 H   0  0  0  0  0  0
  -25.0079  -33.9800   25.0486 H   0  0  0  0  0  0
  -22.6971  -31.3153   21.4110 H   0  0  0  0  0  0
  -23.3750  -35.9631   23.3307 H   0  0  0  0  0  0
  -24.3584  -36.8894   22.2051 H   0  0  0  0  0  0
  -23.7215  -37.6502   23.6639 H   0  0  0  0  0  0
  -26.0725  -31.5859   20.6060 H   0  0  0  0  0  0
  -26.8229  -30.8556   22.0010 H   0  0  0  0  0  0
  -28.1084  -29.0700   21.1294 H   0  0  0  0  0  0
  -25.9376  -25.9475   19.0368 H   0  0  0  0  0  0
  -23.9451  -27.2988   19.0654 H   0  0  0  0  0  0
  -23.7371  -30.6112   19.4058 H   0  0  0  0  0  0
  -22.7375  -29.2638   19.8593 H   0  0  0  0  0  0
  -25.1290  -36.1983   25.0830 H   0  0  0  0  0  0
  -21.0010  -28.3215   24.1399 H   0  0  0  0  0  0
  -20.5642  -26.2300   23.3566 H   0  0  0  0  0  0
  -21.6655  -26.7425   22.1218 H   0  0  0  0  0  0
  -19.6883  -25.6298   21.1236 H   0  0  0  0  0  0
  -19.6673  -27.3193   20.6711 H   0  0  0  0  0  0
  -17.4204  -26.6713   21.4018 H   0  0  0  0  0  0
  -18.0339  -26.0026   22.8980 H   0  0  0  0  0  0
  -19.7927  -30.7268   24.2328 H   0  0  0  0  0  0
  -17.5008  -31.6289   24.5167 H   0  0  0  0  0  0
  -15.5362  -30.3028   23.7595 H   0  0  0  0  0  0
  -15.8676  -28.0801   22.7132 H   0  0  0  0  0  0
  -24.5943  -30.7029   25.7847 H   0  0  0  0  0  0
  -24.8916  -32.2869   26.4927 H   0  0  0  0  0  0
  -25.8115  -30.8927   27.0251 H   0  0  0  0  0  0
  -26.2812  -29.6831   24.1171 H   0  0  0  0  0  0
  -27.4026  -29.7265   25.4584 H   0  0  0  0  0  0
  -27.8686  -30.4356   23.9293 H   0  0  0  0  0  0
  -27.2686  -33.3628   26.2094 H   0  0  0  0  0  0
  -28.3864  -32.6880   25.0330 H   0  0  0  0  0  0
  -28.0725  -31.8441   26.5410 H   0  0  0  0  0  0
  -28.2632  -38.0102   24.7549 H   0  0  0  0  0  0
  -28.1066  -36.2638   24.6271 H   0  0  0  0  0  0
  -27.2323  -37.1434   25.8884 H   0  0  0  0  0  0
  -20.9261  -29.8810   21.6983 H   0  0  0  0  0  0
  -26.0170  -38.2877   24.1425 H   0  0  0  0  0  0
  -28.2844  -17.5329   20.9885 H   0  0  0  0  0  0
  -27.5520  -19.8333   20.5295 H   0  0  0  0  0  0
  -31.5471  -21.2472   21.2483 H   0  0  0  0  0  0
  -30.8591  -17.4570   23.8957 H   0  0  0  0  0  0
  -30.6187  -23.4223   21.4218 H   0  0  0  0  0  0
  -30.4500  -23.2912   19.6239 H   0  0  0  0  0  0
  -28.3535  -23.9777   22.8127 H   0  0  0  0  0  0
  -27.2095  -25.0627   22.0377 H   0  0  0  0  0  0
  -28.8623  -25.5837   22.3368 H   0  0  0  0  0  0
  -27.7249  -25.0435   18.8472 H   0  0  0  0  0  0
  -29.3900  -25.3095   18.9403 H   0  0  0  0  0  0
  -31.8813  -16.6141   21.4805 H   0  0  0  0  0  0
  -31.1580  -14.6427   23.2968 H   0  0  0  0  0  0
  -29.2360  -15.2547   21.6916 H   0  0  0  0  0  0
  1 25  1  0  0  0
  1 30  2  0  0  0
  1 86  1  0  0  0
  2  3  1  0  0  0
  2 25  1  0  0  0
  2 89  1  0  0  0
  2 90  1  0  0  0
  3  4  1  0  0  0
  3 91  1  0  0  0
  3 92  1  0  0  0
  4  5  1  0  0  0
  4 93  1  0  0  0
  4 94  1  0  0  0
  5  6  1  0  0  0
  5 26  1  0  0  0
  5 95  1  0  0  0
  6 25  1  0  0  0
  6 96  1  0  0  0
  6 97  1  0  0  0
  7  8  2  0  0  0
  7 26  1  0  0  0
  7 29  1  0  0  0
  8  9  1  0  0  0
  8 22  1  0  0  0
  9 10  1  0  0  0
  9 27  2  0  0  0
 10 11  2  0  0  0
 10 15  1  0  0  0
 11 12  1  0  0  0
 11 98  1  0  0  0
 12 13  2  0  0  0
 12 99  1  0  0  0
 13 14  1  0  0  0
 13 31  1  0  0  0
 14 15  2  0  0  0
 14100  1  0  0  0
 15101  1  0  0  0
 16 17  2  0  0  0
 16 21  1  0  0  0
 16 31  1  0  0  0
 17 18  1  0  0  0
 17102  1  0  0  0
 18 19  2  0  0  0
 18103  1  0  0  0
 19 20  1  0  0  0
 19 24  1  0  0  0
 20 21  2  0  0  0
 20104  1  0  0  0
 21 23  1  0  0  0
 22 28  1  0  0  0
 22 32  2  0  0  0
 26 27  1  0  0  0
 28105  1  0  0  0
 28106  1  0  0  0
 29107  1  0  0  0
 29108  1  0  0  0
 33 34  1  0  0  0
 33 66  1  0  0  0
 33 70  2  0  0  0
 34 36  1  0  0  0
 34 59  1  0  0  0
 34109  1  0  0  0
 35 44  2  0  0  0
 35 45  1  0  0  0
 35 68  1  0  0  0
 36 56  1  0  0  0
 36110  1  0  0  0
 37 39  1  0  0  0
 37 47  1  0  0  0
 37 66  1  0  0  0
 37111  1  0  0  0
 38 43  2  0  0  0
 38 46  1  0  0  0
 38 47  1  0  0  0
 39 64  1  0  0  0
 39 67  2  0  0  0
 40 52  1  0  0  0
 40 53  2  0  0  0
 40 58  1  0  0  0
 41112  1  0  0  0
 41113  1  0  0  0
 41114  1  0  0  0
 41 48  1  0  0  0
 42 43  1  0  0  0
 42 66  1  0  0  0
 42115  1  0  0  0
 42116  1  0  0  0
 43 44  1  0  0  0
 44117  1  0  0  0
 45 46  2  0  0  0
 45118  1  0  0  0
 46119  1  0  0  0
 47120  1  0  0  0
 47121  1  0  0  0
 48 56  1  0  0  0
 48 65  1  0  0  0
 48122  1  0  0  0
 49 50  1  0  0  0
 49 53  1  0  0  0
 49 64  1  0  0  0
 49123  1  0  0  0
 50 51  1  0  0  0
 50124  1  0  0  0
 50125  1  0  0  0
 51 52  1  0  0  0
 51126  1  0  0  0
 51127  1  0  0  0
 52128  1  0  0  0
 52129  1  0  0  0
 53 54  1  0  0  0
 54 55  2  0  0  0
 54130  1  0  0  0
 55 57  1  0  0  0
 55131  1  0  0  0
 56 69  2  0  0  0
 57 58  2  0  0  0
 57132  1  0  0  0
 58133  1  0  0  0
 59 60  1  0  0  0
 59 61  1  0  0  0
 59 62  1  0  0  0
 60134  1  0  0  0
 60135  1  0  0  0
 60136  1  0  0  0
 61137  1  0  0  0
 61138  1  0  0  0
 61139  1  0  0  0
 62140  1  0  0  0
 62141  1  0  0  0
 62142  1  0  0  0
 63 65  1  0  0  0
 63143  1  0  0  0
 63144  1  0  0  0
 63145  1  0  0  0
 64146  1  0  0  0
 65147  1  0  0  0
 68 82  1  0  0  0
 71 72  2  0  0  0
 71 74  1  0  0  0
 71148  1  0  0  0
 72 75  1  0  0  0
 72149  1  0  0  0
 73 75  2  0  0  0
 73 76  1  0  0  0
 73150  1  0  0  0
 74 76  2  0  0  0
 74 83  1  0  0  0
 75 85  1  0  0  0
 76 88  1  0  0  0
 77 80  1  0  0  0
 77 85  1  0  0  0
 77 87  2  0  0  0
 78 83  1  0  0  0
 78 84  2  0  0  0
 78151  1  0  0  0
 79 80  1  0  0  0
 79 85  1  0  0  0
 79152  1  0  0  0
 79153  1  0  0  0
 80 81  1  0  0  0
 80 82  1  0  0  0
 81154  1  0  0  0
 81155  1  0  0  0
 81156  1  0  0  0
 82157  1  0  0  0
 82158  1  0  0  0
 83 86  1  0  0  0
 83159  1  0  0  0
 84160  1  0  0  0
 86161  1  0  0  0
M  ISO  4   1 100  68 101  82 101  86 100
M  END
> <chiral flag>
0

> <version>
0

> <s_m_source_file>
/data/baiqing/PycharmProjects/Reinvent-master-3.2/result/LINK_invent/BTK/process_docking_weight1_custom_product_contain_oxygen_bond_distance_aromatic_linkinvent_7_9_3/rearranged_h_0074.sdf

> <i_m_source_file_index>
61

> <r_mmod_Potential_Energy-OPLS-2005>
-95.4037628173828

> <r_mmod_Stretch_Energy-OPLS-2005>
49.7688369750977

> <r_mmod_Bend_Energy-OPLS-2005>
158.143325805664

> <r_mmod_Torsional_Energy-OPLS-2005>
216.41047668457

> <r_mmod_Improper_Torsional_Energy-OPLS-2005>
3.50843358039856

> <r_mmod_Van_der_Waal_Energy-OPLS-2005>
157.270874023438

> <r_mmod_Electrostatic_Energy-OPLS-2005>
-472.758178710938

> <r_mmod_Solvation_Energy-OPLS-2005>
-223.18635559082

> <b_mmod_Minimization_Converged-OPLS-2005>
0

> <r_mmod_RMS_Derivative-OPLS-2005>
3.34253263473511

$$$$
63
                    3D
 Structure written by MMmdl.
163172  0  0  1  0            999 V2000
  -30.6562  -14.8098   20.4630 C   0  0  0  0  0  0
  -30.4061  -12.5034   19.4958 C   0  0  0  0  0  0
  -29.5054  -12.5261   18.2453 C   0  0  0  0  0  0
  -28.0320  -12.3451   18.6530 C   0  0  0  0  0  0
  -27.6270  -13.2583   19.8428 C   0  0  2  0  0  0
  -28.6693  -13.2599   20.9821 C   0  0  0  0  0  0
  -25.2416  -13.8252   20.5718 C   0  0  0  0  0  0
  -24.1755  -13.0452   20.9247 C   0  0  0  0  0  0
  -24.6389  -11.6943   20.8761 C   0  0  0  0  0  0
  -23.9092  -10.4304   21.0388 C   0  0  0  0  0  0
  -24.3641   -9.4215   21.9158 C   0  0  0  0  0  0
  -23.6310   -8.2251   22.0735 C   0  0  0  0  0  0
  -22.4290   -8.0288   21.3540 C   0  0  0  0  0  0
  -21.9926   -9.0262   20.4642 C   0  0  0  0  0  0
  -22.7262  -10.2139   20.3039 C   0  0  0  0  0  0
  -21.6853   -6.0740   22.5277 C   0  0  0  0  0  0
  -21.4028   -6.5641   23.8214 C   0  0  0  0  0  0
  -21.3660   -5.6793   24.9176 C   0  0  0  0  0  0
  -21.6042   -4.3053   24.7219 C   0  0  0  0  0  0
  -21.8818   -3.8147   23.4337 C   0  0  0  0  0  0
  -21.9195   -4.6970   22.3398 C   0  0  0  0  0  0
  -22.7771  -13.5202   21.1903 C   0  0  0  0  0  0
  -22.1653   -4.2158   21.0973 F   0  0  0  0  0  0
  -21.5629   -3.4533   25.7721 F   0  0  0  0  0  0
  -29.9625  -13.6123   20.3870 N   0  0  0  0  0  0
  -26.2865  -12.9502   20.3280 N   0  0  0  0  0  0
  -25.9334  -11.6624   20.5767 N   0  0  0  0  0  0
  -22.0421  -12.8198   22.0456 N   0  0  0  0  0  0
  -25.4079  -15.1979   20.4137 N   0  0  0  0  0  0
  -31.8318  -14.7888   20.0852 O   0  0  0  0  0  0
  -21.6653   -6.8882   21.4231 O   0  0  0  0  0  0
  -22.3444  -14.5493   20.6735 O   0  0  0  0  0  0
  -24.6366  -31.8528   23.1937 C   0  0  0  0  0  0
  -25.9154  -32.4746   23.8333 C   0  0  1  0  0  0
  -27.2167  -27.2059   20.1474 C   0  0  0  0  0  0
  -25.5934  -33.8560   24.2279 N   0  0  0  0  0  0
  -23.4365  -30.4720   21.5372 C   0  0  2  0  0  0
  -24.8849  -28.9068   20.1096 C   0  0  0  0  0  0
  -22.7550  -29.4588   22.4888 C   0  0  0  0  0  0
  -18.0303  -28.1395   22.8475 C   0  0  0  0  0  0
  -24.1480  -36.7281   23.2644 C   0  0  0  0  0  0
  -25.9860  -30.7453   21.3818 C   0  0  0  0  0  0
  -26.0555  -29.3568   20.7356 C   0  0  0  0  0  0
  -27.2218  -28.5162   20.7516 C   0  0  0  0  0  0
  -26.0329  -26.8453   19.4690 C   0  0  0  0  0  0
  -24.8823  -27.6605   19.4613 C   0  0  0  0  0  0
  -23.6595  -29.8030   20.1535 C   0  0  0  0  0  0
  -25.4112  -36.3081   24.0345 C   0  0  1  0  0  0
  -20.5909  -28.3717   23.1263 C   0  0  2  0  0  0
  -20.6789  -26.9432   22.5413 C   0  0  0  0  0  0
  -19.5762  -26.6385   21.5220 C   0  0  0  0  0  0
  -18.1939  -26.7938   22.1617 C   0  0  0  0  0  0
  -19.1556  -28.8875   23.2863 C   0  0  0  0  0  0
  -18.9473  -30.1463   23.8895 C   0  0  0  0  0  0
  -17.6468  -30.6587   24.0561 C   0  0  0  0  0  0
  -25.9062  -34.9444   23.5119 C   0  0  0  0  0  0
  -16.5360  -29.9081   23.6322 C   0  0  0  0  0  0
  -16.7285  -28.6499   23.0347 C   0  0  0  0  0  0
  -26.4507  -31.6558   25.0719 C   0  0  0  0  0  0
  -25.3705  -31.3680   26.1409 C   0  0  0  0  0  0
  -27.0350  -30.2989   24.6175 C   0  0  0  0  0  0
  -27.6105  -32.4253   25.7459 C   0  0  0  0  0  0
  -27.5580  -37.1804   24.8481 C   0  0  0  0  0  0
  -21.4249  -29.3066   22.3660 N   0  0  0  0  0  0
  -26.4285  -37.3787   23.9427 N   0  0  0  0  0  0
  -24.7058  -31.0450   22.0934 N   0  0  0  0  0  0
  -23.4245  -28.8145   23.3018 O   0  0  0  0  0  0
  -28.2878  -26.2664   20.1735 O   0  0  0  0  0  0
  -26.5626  -34.8924   22.4682 O   0  0  0  0  0  0
  -23.5495  -32.1363   23.7208 O   0  0  0  0  0  0
  -33.0520  -17.7141   22.2211 C   0  0  0  0  0  0
  -31.9344  -16.9143   21.9812 C   0  0  0  0  0  0
  -31.9366  -19.4965   21.0571 C   0  0  0  0  0  0
  -30.7011  -18.7858   20.9179 C   0  0  0  0  0  0
  -33.0886  -18.9882   21.6707 C   0  0  0  0  0  0
  -30.8223  -17.3017   21.1732 C   0  0  0  0  0  0
  -28.6361  -22.1320   20.1863 C   0  0  0  0  0  0
  -27.6115  -21.6045   19.4709 C   0  0  0  0  0  0
  -29.5086  -21.1088   20.9113 C   0  0  0  0  0  0
  -27.3077  -20.1083   19.4667 C   0  0  0  0  0  0
  -28.5668  -19.2208   19.5892 C   0  0  0  0  0  0
  -26.6172  -22.4254   18.6595 C   0  0  0  0  0  0
  -28.9467  -23.7372   20.2324 C   0  0  0  0  0  0
  -29.5869  -19.7380   20.5042 N   0  0  0  0  0  0
  -34.2475  -19.7551   21.7643 N   0  0  0  0  0  0
  -30.0624  -16.0588   20.7721 N   0  0  0  0  0  0
  -27.8506  -24.7918   20.4312 N   0  0  0  0  0  0
  -30.1318  -21.4881   21.9093 O   0  0  0  0  0  0
  -31.4529  -12.5821   19.1974 H   0  0  0  0  0  0
  -30.3220  -11.5425   20.0080 H   0  0  0  0  0  0
  -29.8065  -11.7429   17.5489 H   0  0  0  0  0  0
  -29.6283  -13.4741   17.7182 H   0  0  0  0  0  0
  -27.8934  -11.2980   18.9236 H   0  0  0  0  0  0
  -27.3771  -12.5238   17.7980 H   0  0  0  0  0  0
  -27.6011  -14.2729   19.4432 H   0  0  0  0  0  0
  -28.7134  -12.2858   21.4691 H   0  0  0  0  0  0
  -28.3927  -13.9810   21.7526 H   0  0  0  0  0  0
  -25.2775   -9.5704   22.4757 H   0  0  0  0  0  0
  -24.0024   -7.4637   22.7453 H   0  0  0  0  0  0
  -21.0855   -8.8790   19.8951 H   0  0  0  0  0  0
  -22.3702  -10.9685   19.6170 H   0  0  0  0  0  0
  -21.2026   -7.6150   23.9726 H   0  0  0  0  0  0
  -21.1481   -6.0516   25.9085 H   0  0  0  0  0  0
  -22.0599   -2.7612   23.2833 H   0  0  0  0  0  0
  -22.4050  -11.9875   22.4863 H   0  0  0  0  0  0
  -21.1028  -13.1215   22.2631 H   0  0  0  0  0  0
  -24.6415  -15.8529   20.5257 H   0  0  0  0  0  0
  -26.2558  -15.6364   20.0784 H   0  0  0  0  0  0
  -26.7236  -32.5385   23.1098 H   0  0  0  0  0  0
  -25.0096  -33.9715   25.0425 H   0  0  0  0  0  0
  -22.7352  -31.2956   21.3894 H   0  0  0  0  0  0
  -23.3749  -35.9604   23.3292 H   0  0  0  0  0  0
  -24.3599  -36.8903   22.2067 H   0  0  0  0  0  0
  -23.7204  -37.6475   23.6651 H   0  0  0  0  0  0
  -26.1214  -31.4893   20.5960 H   0  0  0  0  0  0
  -26.8678  -30.8108   22.0072 H   0  0  0  0  0  0
  -28.1130  -28.8545   21.2604 H   0  0  0  0  0  0
  -25.9855  -25.8910   18.9629 H   0  0  0  0  0  0
  -23.9945  -27.3165   18.9471 H   0  0  0  0  0  0
  -23.7883  -30.5779   19.3973 H   0  0  0  0  0  0
  -22.7767  -29.2388   19.8463 H   0  0  0  0  0  0
  -25.1287  -36.1950   25.0838 H   0  0  0  0  0  0
  -20.9988  -28.3271   24.1386 H   0  0  0  0  0  0
  -20.5698  -26.2333   23.3623 H   0  0  0  0  0  0
  -21.6658  -26.7451   22.1216 H   0  0  0  0  0  0
  -19.6925  -25.6293   21.1247 H   0  0  0  0  0  0
  -19.6695  -27.3200   20.6748 H   0  0  0  0  0  0
  -17.4231  -26.6690   21.3993 H   0  0  0  0  0  0
  -18.0316  -26.0095   22.9021 H   0  0  0  0  0  0
  -19.7948  -30.7273   24.2281 H   0  0  0  0  0  0
  -17.5014  -31.6263   24.5168 H   0  0  0  0  0  0
  -15.5357  -30.2983   23.7634 H   0  0  0  0  0  0
  -15.8682  -28.0799   22.7072 H   0  0  0  0  0  0
  -24.5944  -30.6975   25.7700 H   0  0  0  0  0  0
  -24.8797  -32.2813   26.4774 H   0  0  0  0  0  0
  -25.7991  -30.8893   27.0220 H   0  0  0  0  0  0
  -26.2919  -29.6738   24.1214 H   0  0  0  0  0  0
  -27.4080  -29.7260   25.4672 H   0  0  0  0  0  0
  -27.8779  -30.4309   23.9393 H   0  0  0  0  0  0
  -27.2807  -33.3611   26.1981 H   0  0  0  0  0  0
  -28.3914  -32.6695   25.0240 H   0  0  0  0  0  0
  -28.0749  -31.8366   26.5381 H   0  0  0  0  0  0
  -28.2613  -38.0087   24.7537 H   0  0  0  0  0  0
  -28.1050  -36.2628   24.6271 H   0  0  0  0  0  0
  -27.2315  -37.1431   25.8888 H   0  0  0  0  0  0
  -20.9450  -29.8776   21.6840 H   0  0  0  0  0  0
  -26.0162  -38.2869   24.1382 H   0  0  0  0  0  0
  -33.8941  -17.3058   22.7637 H   0  0  0  0  0  0
  -32.0166  -15.9119   22.3755 H   0  0  0  0  0  0
  -32.0215  -20.5129   20.7038 H   0  0  0  0  0  0
  -26.7653  -19.8286   18.5626 H   0  0  0  0  0  0
  -26.6331  -19.9115   20.3018 H   0  0  0  0  0  0
  -29.0287  -19.1344   18.6045 H   0  0  0  0  0  0
  -28.2758  -18.2123   19.8860 H   0  0  0  0  0  0
  -25.6605  -22.4929   19.1801 H   0  0  0  0  0  0
  -26.4458  -21.9621   17.6875 H   0  0  0  0  0  0
  -26.9618  -23.4368   18.4531 H   0  0  0  0  0  0
  -29.4251  -23.9601   19.2785 H   0  0  0  0  0  0
  -29.7113  -23.9140   20.9900 H   0  0  0  0  0  0
  -35.1278  -19.2552   21.8497 H   0  0  0  0  0  0
  -34.3308  -20.5633   21.1542 H   0  0  0  0  0  0
  -29.0559  -16.0938   20.8239 H   0  0  0  0  0  0
  -27.5254  -24.7675   21.3954 H   0  0  0  0  0  0
  1 25  1  0  0  0
  1 30  2  0  0  0
  1 86  1  0  0  0
  2  3  1  0  0  0
  2 25  1  0  0  0
  2 89  1  0  0  0
  2 90  1  0  0  0
  3  4  1  0  0  0
  3 91  1  0  0  0
  3 92  1  0  0  0
  4  5  1  0  0  0
  4 93  1  0  0  0
  4 94  1  0  0  0
  5  6  1  0  0  0
  5 26  1  0  0  0
  5 95  1  0  0  0
  6 25  1  0  0  0
  6 96  1  0  0  0
  6 97  1  0  0  0
  7  8  2  0  0  0
  7 26  1  0  0  0
  7 29  1  0  0  0
  8  9  1  0  0  0
  8 22  1  0  0  0
  9 10  1  0  0  0
  9 27  2  0  0  0
 10 11  2  0  0  0
 10 15  1  0  0  0
 11 12  1  0  0  0
 11 98  1  0  0  0
 12 13  2  0  0  0
 12 99  1  0  0  0
 13 14  1  0  0  0
 13 31  1  0  0  0
 14 15  2  0  0  0
 14100  1  0  0  0
 15101  1  0  0  0
 16 17  2  0  0  0
 16 21  1  0  0  0
 16 31  1  0  0  0
 17 18  1  0  0  0
 17102  1  0  0  0
 18 19  2  0  0  0
 18103  1  0  0  0
 19 20  1  0  0  0
 19 24  1  0  0  0
 20 21  2  0  0  0
 20104  1  0  0  0
 21 23  1  0  0  0
 22 28  1  0  0  0
 22 32  2  0  0  0
 26 27  1  0  0  0
 28105  1  0  0  0
 28106  1  0  0  0
 29107  1  0  0  0
 29108  1  0  0  0
 33 34  1  0  0  0
 33 66  1  0  0  0
 33 70  2  0  0  0
 34 36  1  0  0  0
 34 59  1  0  0  0
 34109  1  0  0  0
 35 44  2  0  0  0
 35 45  1  0  0  0
 35 68  1  0  0  0
 36 56  1  0  0  0
 36110  1  0  0  0
 37 39  1  0  0  0
 37 47  1  0  0  0
 37 66  1  0  0  0
 37111  1  0  0  0
 38 43  2  0  0  0
 38 46  1  0  0  0
 38 47  1  0  0  0
 39 64  1  0  0  0
 39 67  2  0  0  0
 40 52  1  0  0  0
 40 53  2  0  0  0
 40 58  1  0  0  0
 41112  1  0  0  0
 41113  1  0  0  0
 41114  1  0  0  0
 41 48  1  0  0  0
 42 43  1  0  0  0
 42 66  1  0  0  0
 42115  1  0  0  0
 42116  1  0  0  0
 43 44  1  0  0  0
 44117  1  0  0  0
 45 46  2  0  0  0
 45118  1  0  0  0
 46119  1  0  0  0
 47120  1  0  0  0
 47121  1  0  0  0
 48 56  1  0  0  0
 48 65  1  0  0  0
 48122  1  0  0  0
 49 50  1  0  0  0
 49 53  1  0  0  0
 49 64  1  0  0  0
 49123  1  0  0  0
 50 51  1  0  0  0
 50124  1  0  0  0
 50125  1  0  0  0
 51 52  1  0  0  0
 51126  1  0  0  0
 51127  1  0  0  0
 52128  1  0  0  0
 52129  1  0  0  0
 53 54  1  0  0  0
 54 55  2  0  0  0
 54130  1  0  0  0
 55 57  1  0  0  0
 55131  1  0  0  0
 56 69  2  0  0  0
 57 58  2  0  0  0
 57132  1  0  0  0
 58133  1  0  0  0
 59 60  1  0  0  0
 59 61  1  0  0  0
 59 62  1  0  0  0
 60134  1  0  0  0
 60135  1  0  0  0
 60136  1  0  0  0
 61137  1  0  0  0
 61138  1  0  0  0
 61139  1  0  0  0
 62140  1  0  0  0
 62141  1  0  0  0
 62142  1  0  0  0
 63 65  1  0  0  0
 63143  1  0  0  0
 63144  1  0  0  0
 63145  1  0  0  0
 64146  1  0  0  0
 65147  1  0  0  0
 68 87  1  0  0  0
 71 72  2  0  0  0
 71 75  1  0  0  0
 71148  1  0  0  0
 72 76  1  0  0  0
 72149  1  0  0  0
 73 74  1  0  0  0
 73 75  2  0  0  0
 73150  1  0  0  0
 74 76  2  0  0  0
 74 84  1  0  0  0
 75 85  1  0  0  0
 76 86  1  0  0  0
 77 78  2  0  0  0
 77 79  1  0  0  0
 77 83  1  0  0  0
 78 80  1  0  0  0
 78 82  1  0  0  0
 79 84  1  0  0  0
 79 88  2  0  0  0
 80 81  1  0  0  0
 80151  1  0  0  0
 80152  1  0  0  0
 81 84  1  0  0  0
 81153  1  0  0  0
 81154  1  0  0  0
 82155  1  0  0  0
 82156  1  0  0  0
 82157  1  0  0  0
 83 87  1  0  0  0
 83158  1  0  0  0
 83159  1  0  0  0
 85160  1  0  0  0
 85161  1  0  0  0
 86162  1  0  0  0
 87163  1  0  0  0
M  ISO  4   1 100  68 101  86 100  87 101
M  END
> <chiral flag>
0

> <version>
0

> <s_m_source_file>
/data/baiqing/PycharmProjects/Reinvent-master-3.2/result/LINK_invent/BTK/process_docking_weight1_custom_product_contain_oxygen_bond_distance_aromatic_linkinvent_7_9_3/rearranged_h_0074.sdf

> <i_m_source_file_index>
62

> <r_mmod_Potential_Energy-OPLS-2005>
514.820007324219

> <r_mmod_Stretch_Energy-OPLS-2005>
216.369750976562

> <r_mmod_Bend_Energy-OPLS-2005>
260.611968994141

> <r_mmod_Torsional_Energy-OPLS-2005>
316.678466796875

> <r_mmod_Improper_Torsional_Energy-OPLS-2005>
7.75274753570557

> <r_mmod_Van_der_Waal_Energy-OPLS-2005>
183.853408813477

> <r_mmod_Electrostatic_Energy-OPLS-2005>
-350.418365478516

> <r_mmod_Solvation_Energy-OPLS-2005>
-240.332550048828

> <b_mmod_Minimization_Converged-OPLS-2005>
0

> <r_mmod_RMS_Derivative-OPLS-2005>
2.73419904708862

$$$$
64
                    3D
 Structure written by MMmdl.
168177  0  0  1  0            999 V2000
  -30.6453  -14.6930   20.6056 C   0  0  0  0  0  0
  -30.4396  -12.4581   19.4667 C   0  0  0  0  0  0
  -29.5146  -12.5370   18.2304 C   0  0  0  0  0  0
  -28.0382  -12.3485   18.6288 C   0  0  0  0  0  0
  -27.6474  -13.2202   19.8475 C   0  0  2  0  0  0
  -28.6795  -13.0742   20.9768 C   0  0  0  0  0  0
  -25.2563  -13.8172   20.5686 C   0  0  0  0  0  0
  -24.1833  -13.0439   20.9194 C   0  0  0  0  0  0
  -24.6396  -11.6907   20.8715 C   0  0  0  0  0  0
  -23.9064  -10.4293   21.0392 C   0  0  0  0  0  0
  -24.3616   -9.4210   21.9173 C   0  0  0  0  0  0
  -23.6291   -8.2245   22.0750 C   0  0  0  0  0  0
  -22.4270   -8.0281   21.3549 C   0  0  0  0  0  0
  -21.9904   -9.0253   20.4649 C   0  0  0  0  0  0
  -22.7234  -10.2131   20.3049 C   0  0  0  0  0  0
  -21.6857   -6.0731   22.5278 C   0  0  0  0  0  0
  -21.4021   -6.5633   23.8212 C   0  0  0  0  0  0
  -21.3662   -5.6787   24.9175 C   0  0  0  0  0  0
  -21.6039   -4.3049   24.7223 C   0  0  0  0  0  0
  -21.8823   -3.8142   23.4346 C   0  0  0  0  0  0
  -21.9199   -4.6959   22.3400 C   0  0  0  0  0  0
  -22.7861  -13.5241   21.1871 C   0  0  0  0  0  0
  -22.1665   -4.2147   21.0977 F   0  0  0  0  0  0
  -21.5623   -3.4528   25.7734 F   0  0  0  0  0  0
  -29.9985  -13.4758   20.4540 N   0  0  0  0  0  0
  -26.2951  -12.9349   20.3198 N   0  0  0  0  0  0
  -25.9311  -11.6505   20.5661 N   0  0  0  0  0  0
  -22.0504  -12.8232   22.0424 N   0  0  0  0  0  0
  -25.4322  -15.1894   20.4192 N   0  0  0  0  0  0
  -31.7336  -14.8724   20.0472 O   0  0  0  0  0  0
  -21.6640   -6.8876   21.4242 O   0  0  0  0  0  0
  -22.3547  -14.5548   20.6724 O   0  0  0  0  0  0
  -24.6310  -31.8561   23.2007 C   0  0  0  0  0  0
  -25.9137  -32.4760   23.8344 C   0  0  1  0  0  0
  -27.2215  -27.2717   20.1180 C   0  0  0  0  0  0
  -25.5935  -33.8564   24.2268 N   0  0  0  0  0  0
  -23.4267  -30.4806   21.5447 C   0  0  2  0  0  0
  -24.8731  -28.9322   20.1118 C   0  0  0  0  0  0
  -22.7499  -29.4606   22.4922 C   0  0  0  0  0  0
  -18.0292  -28.1385   22.8484 C   0  0  0  0  0  0
  -24.1491  -36.7282   23.2639 C   0  0  0  0  0  0
  -25.9736  -30.7718   21.3798 C   0  0  0  0  0  0
  -26.0464  -29.3965   20.7188 C   0  0  0  0  0  0
  -27.2227  -28.5795   20.7112 C   0  0  0  0  0  0
  -26.0183  -26.8753   19.4865 C   0  0  0  0  0  0
  -24.8639  -27.6786   19.4865 C   0  0  0  0  0  0
  -23.6440  -29.8182   20.1601 C   0  0  0  0  0  0
  -25.4116  -36.3071   24.0328 C   0  0  1  0  0  0
  -20.5896  -28.3693   23.1272 C   0  0  2  0  0  0
  -20.6783  -26.9411   22.5406 C   0  0  0  0  0  0
  -19.5754  -26.6381   21.5212 C   0  0  0  0  0  0
  -18.1935  -26.7926   22.1625 C   0  0  0  0  0  0
  -19.1546  -28.8858   23.2872 C   0  0  0  0  0  0
  -18.9464  -30.1460   23.8889 C   0  0  0  0  0  0
  -17.6462  -30.6585   24.0560 C   0  0  0  0  0  0
  -25.9056  -34.9442   23.5099 C   0  0  0  0  0  0
  -16.5355  -29.9080   23.6333 C   0  0  0  0  0  0
  -16.7277  -28.6499   23.0353 C   0  0  0  0  0  0
  -26.4505  -31.6582   25.0729 C   0  0  0  0  0  0
  -25.3729  -31.3735   26.1450 C   0  0  0  0  0  0
  -27.0351  -30.2996   24.6216 C   0  0  0  0  0  0
  -27.6058  -32.4323   25.7501 C   0  0  0  0  0  0
  -27.5580  -37.1798   24.8464 C   0  0  0  0  0  0
  -21.4207  -29.3041   22.3663 N   0  0  0  0  0  0
  -26.4290  -37.3769   23.9408 N   0  0  0  0  0  0
  -24.6963  -31.0536   22.0980 N   0  0  0  0  0  0
  -23.4202  -28.8139   23.3012 O   0  0  0  0  0  0
  -28.3236  -26.3829   20.1718 O   0  0  0  0  0  0
  -26.5624  -34.8914   22.4666 O   0  0  0  0  0  0
  -23.5460  -32.1380   23.7306 O   0  0  0  0  0  0
  -29.9210  -19.5663   21.8563 C   0  0  0  0  0  0
  -30.1178  -18.1704   22.0731 C   0  0  0  0  0  0
  -29.6792  -17.7438   19.7861 C   0  0  0  0  0  0
  -29.5890  -20.1589   20.6075 C   0  0  0  0  0  0
  -29.9859  -17.1742   21.0578 C   0  0  0  0  0  0
  -29.4938  -19.1614   19.5760 C   0  0  0  0  0  0
  -29.0778  -22.7258   21.3101 C   0  0  0  0  0  0
  -30.5974  -24.3021   20.0586 C   0  0  0  0  0  0
  -27.9775  -14.8633   24.4769 C   0  0  0  0  0  0
  -29.0026  -22.3601   19.2872 C   0  0  0  0  0  0
  -29.1874  -23.7314   20.0746 C   0  0  1  0  0  0
  -30.9684  -25.2493   21.1996 C   0  0  0  0  0  0
  -26.4671  -14.8037   24.6517 C   0  0  0  0  0  0
  -28.5157  -15.7662   23.3636 C   0  0  0  0  0  0
  -28.0974  -24.9166   19.9057 C   0  0  0  0  0  0
  -29.9121  -15.3592   22.8143 C   0  0  0  0  0  0
  -29.4294  -21.6339   20.4888 N   0  0  0  0  0  0
  -30.0715  -15.7066   21.3784 N   0  0  0  0  0  0
  -28.7541  -22.7701   22.4802 O   0  0  0  0  0  0
  -31.4608  -24.0831   19.2017 O   0  0  0  0  0  0
  -28.7250  -14.2143   25.2117 O   0  0  0  0  0  0
  -29.1996  -19.5727   18.3190 F   0  0  0  0  0  0
  -31.4784  -12.5982   19.1634 H   0  0  0  0  0  0
  -30.4001  -11.4622   19.9110 H   0  0  0  0  0  0
  -29.8021  -11.7839   17.4954 H   0  0  0  0  0  0
  -29.6407  -13.5043   17.7417 H   0  0  0  0  0  0
  -27.8902  -11.2943   18.8670 H   0  0  0  0  0  0
  -27.3867  -12.5654   17.7815 H   0  0  0  0  0  0
  -27.6667  -14.2572   19.5116 H   0  0  0  0  0  0
  -28.7131  -12.0445   21.3359 H   0  0  0  0  0  0
  -28.3392  -13.6564   21.8219 H   0  0  0  0  0  0
  -25.2762   -9.5684   22.4744 H   0  0  0  0  0  0
  -24.0004   -7.4638   22.7468 H   0  0  0  0  0  0
  -21.0833   -8.8771   19.8958 H   0  0  0  0  0  0
  -22.3691  -10.9667   19.6153 H   0  0  0  0  0  0
  -21.2019   -7.6141   23.9715 H   0  0  0  0  0  0
  -21.1476   -6.0515   25.9081 H   0  0  0  0  0  0
  -22.0602   -2.7602   23.2845 H   0  0  0  0  0  0
  -22.4102  -11.9888   22.4810 H   0  0  0  0  0  0
  -21.1124  -13.1268   22.2618 H   0  0  0  0  0  0
  -24.6683  -15.8462   20.5337 H   0  0  0  0  0  0
  -26.2848  -15.6267   20.0946 H   0  0  0  0  0  0
  -26.7201  -32.5414   23.1080 H   0  0  0  0  0  0
  -25.0086  -33.9704   25.0417 H   0  0  0  0  0  0
  -22.7228  -31.3031   21.4014 H   0  0  0  0  0  0
  -23.3755  -35.9613   23.3306 H   0  0  0  0  0  0
  -24.3580  -36.8896   22.2052 H   0  0  0  0  0  0
  -23.7248  -37.6487   23.6659 H   0  0  0  0  0  0
  -26.1139  -31.5356   20.6137 H   0  0  0  0  0  0
  -26.8501  -30.8174   22.0144 H   0  0  0  0  0  0
  -28.1205  -28.9303   21.2008 H   0  0  0  0  0  0
  -25.9243  -25.9207   18.9940 H   0  0  0  0  0  0
  -23.9645  -27.3162   19.0077 H   0  0  0  0  0  0
  -23.7689  -30.5962   19.4059 H   0  0  0  0  0  0
  -22.7620  -29.2525   19.8542 H   0  0  0  0  0  0
  -25.1301  -36.1918   25.0821 H   0  0  0  0  0  0
  -20.9989  -28.3269   24.1393 H   0  0  0  0  0  0
  -20.5689  -26.2298   23.3607 H   0  0  0  0  0  0
  -21.6650  -26.7442   22.1195 H   0  0  0  0  0  0
  -19.6917  -25.6292   21.1244 H   0  0  0  0  0  0
  -19.6691  -27.3191   20.6741 H   0  0  0  0  0  0
  -17.4204  -26.6670   21.4029 H   0  0  0  0  0  0
  -18.0336  -26.0071   22.9025 H   0  0  0  0  0  0
  -19.7941  -30.7280   24.2248 H   0  0  0  0  0  0
  -17.5018  -31.6268   24.5158 H   0  0  0  0  0  0
  -15.5354  -30.2978   23.7666 H   0  0  0  0  0  0
  -15.8676  -28.0816   22.7071 H   0  0  0  0  0  0
  -24.5896  -30.7092   25.7778 H   0  0  0  0  0  0
  -24.8930  -32.2908   26.4872 H   0  0  0  0  0  0
  -25.8042  -30.8910   27.0229 H   0  0  0  0  0  0
  -26.2936  -29.6745   24.1225 H   0  0  0  0  0  0
  -27.4013  -29.7258   25.4740 H   0  0  0  0  0  0
  -27.8825  -30.4267   23.9475 H   0  0  0  0  0  0
  -27.2664  -33.3628   26.2064 H   0  0  0  0  0  0
  -28.3873  -32.6874   25.0332 H   0  0  0  0  0  0
  -28.0719  -31.8459   26.5428 H   0  0  0  0  0  0
  -28.2596  -38.0096   24.7512 H   0  0  0  0  0  0
  -28.1077  -36.2629   24.6290 H   0  0  0  0  0  0
  -27.2299  -37.1451   25.8867 H   0  0  0  0  0  0
  -20.9387  -29.8757   21.6866 H   0  0  0  0  0  0
  -26.0170  -38.2844   24.1405 H   0  0  0  0  0  0
  -30.0398  -20.2153   22.7119 H   0  0  0  0  0  0
  -30.3684  -17.8949   23.0848 H   0  0  0  0  0  0
  -29.5518  -17.0883   18.9375 H   0  0  0  0  0  0
  -29.6652  -22.2314   18.4293 H   0  0  0  0  0  0
  -27.9661  -22.1450   19.0152 H   0  0  0  0  0  0
  -30.1525  -25.3532   21.9146 H   0  0  0  0  0  0
  -31.2034  -26.2374   20.8042 H   0  0  0  0  0  0
  -31.8424  -24.8723   21.7303 H   0  0  0  0  0  0
  -25.9756  -15.5514   24.0293 H   0  0  0  0  0  0
  -26.1989  -14.9908   25.6912 H   0  0  0  0  0  0
  -26.0950  -13.8201   24.3670 H   0  0  0  0  0  0
  -28.5281  -16.7896   23.7367 H   0  0  0  0  0  0
  -27.7836  -15.7507   22.5553 H   0  0  0  0  0  0
  -27.2308  -24.6379   20.5073 H   0  0  0  0  0  0
  -27.7620  -24.8519   18.8708 H   0  0  0  0  0  0
  -30.0895  -14.2962   22.9958 H   0  0  0  0  0  0
  -30.7027  -15.8274   23.4001 H   0  0  0  0  0  0
  1 25  1  0  0  0
  1 30  2  0  0  0
  1 88  1  0  0  0
  2  3  1  0  0  0
  2 25  1  0  0  0
  2 93  1  0  0  0
  2 94  1  0  0  0
  3  4  1  0  0  0
  3 95  1  0  0  0
  3 96  1  0  0  0
  4  5  1  0  0  0
  4 97  1  0  0  0
  4 98  1  0  0  0
  5  6  1  0  0  0
  5 26  1  0  0  0
  5 99  1  0  0  0
  6 25  1  0  0  0
  6100  1  0  0  0
  6101  1  0  0  0
  7  8  2  0  0  0
  7 26  1  0  0  0
  7 29  1  0  0  0
  8  9  1  0  0  0
  8 22  1  0  0  0
  9 10  1  0  0  0
  9 27  2  0  0  0
 10 11  2  0  0  0
 10 15  1  0  0  0
 11 12  1  0  0  0
 11102  1  0  0  0
 12 13  2  0  0  0
 12103  1  0  0  0
 13 14  1  0  0  0
 13 31  1  0  0  0
 14 15  2  0  0  0
 14104  1  0  0  0
 15105  1  0  0  0
 16 17  2  0  0  0
 16 21  1  0  0  0
 16 31  1  0  0  0
 17 18  1  0  0  0
 17106  1  0  0  0
 18 19  2  0  0  0
 18107  1  0  0  0
 19 20  1  0  0  0
 19 24  1  0  0  0
 20 21  2  0  0  0
 20108  1  0  0  0
 21 23  1  0  0  0
 22 28  1  0  0  0
 22 32  2  0  0  0
 26 27  1  0  0  0
 28109  1  0  0  0
 28110  1  0  0  0
 29111  1  0  0  0
 29112  1  0  0  0
 33 34  1  0  0  0
 33 66  1  0  0  0
 33 70  2  0  0  0
 34 36  1  0  0  0
 34 59  1  0  0  0
 34113  1  0  0  0
 35 44  2  0  0  0
 35 45  1  0  0  0
 35 68  1  0  0  0
 36 56  1  0  0  0
 36114  1  0  0  0
 37 39  1  0  0  0
 37 47  1  0  0  0
 37 66  1  0  0  0
 37115  1  0  0  0
 38 43  2  0  0  0
 38 46  1  0  0  0
 38 47  1  0  0  0
 39 64  1  0  0  0
 39 67  2  0  0  0
 40 52  1  0  0  0
 40 53  2  0  0  0
 40 58  1  0  0  0
 41116  1  0  0  0
 41117  1  0  0  0
 41118  1  0  0  0
 41 48  1  0  0  0
 42 43  1  0  0  0
 42 66  1  0  0  0
 42119  1  0  0  0
 42120  1  0  0  0
 43 44  1  0  0  0
 44121  1  0  0  0
 45 46  2  0  0  0
 45122  1  0  0  0
 46123  1  0  0  0
 47124  1  0  0  0
 47125  1  0  0  0
 48 56  1  0  0  0
 48 65  1  0  0  0
 48126  1  0  0  0
 49 50  1  0  0  0
 49 53  1  0  0  0
 49 64  1  0  0  0
 49127  1  0  0  0
 50 51  1  0  0  0
 50128  1  0  0  0
 50129  1  0  0  0
 51 52  1  0  0  0
 51130  1  0  0  0
 51131  1  0  0  0
 52132  1  0  0  0
 52133  1  0  0  0
 53 54  1  0  0  0
 54 55  2  0  0  0
 54134  1  0  0  0
 55 57  1  0  0  0
 55135  1  0  0  0
 56 69  2  0  0  0
 57 58  2  0  0  0
 57136  1  0  0  0
 58137  1  0  0  0
 59 60  1  0  0  0
 59 61  1  0  0  0
 59 62  1  0  0  0
 60138  1  0  0  0
 60139  1  0  0  0
 60140  1  0  0  0
 61141  1  0  0  0
 61142  1  0  0  0
 61143  1  0  0  0
 62144  1  0  0  0
 62145  1  0  0  0
 62146  1  0  0  0
 63 65  1  0  0  0
 63147  1  0  0  0
 63148  1  0  0  0
 63149  1  0  0  0
 64150  1  0  0  0
 65151  1  0  0  0
 68 85  1  0  0  0
 71 72  2  0  0  0
 71 74  1  0  0  0
 71152  1  0  0  0
 72 75  1  0  0  0
 72153  1  0  0  0
 73 75  2  0  0  0
 73 76  1  0  0  0
 73154  1  0  0  0
 74 76  2  0  0  0
 74 87  1  0  0  0
 75 88  1  0  0  0
 76 92  1  0  0  0
 77 81  1  0  0  0
 77 87  1  0  0  0
 77 89  2  0  0  0
 78 82  1  0  0  0
 78 90  2  0  0  0
 78 81  1  0  0  0
 79 83  1  0  0  0
 79 84  1  0  0  0
 79 91  2  0  0  0
 80 81  1  0  0  0
 80 87  1  0  0  0
 80155  1  0  0  0
 80156  1  0  0  0
 81 85  1  0  0  0
 82157  1  0  0  0
 82158  1  0  0  0
 82159  1  0  0  0
 83160  1  0  0  0
 83161  1  0  0  0
 83162  1  0  0  0
 84 86  1  0  0  0
 84163  1  0  0  0
 84164  1  0  0  0
 85165  1  0  0  0
 85166  1  0  0  0
 86 88  1  0  0  0
 86167  1  0  0  0
 86168  1  0  0  0
M  ISO  4   1 100  68 101  85 101  88 100
M  END
> <chiral flag>
0

> <version>
0

> <s_m_source_file>
/data/baiqing/PycharmProjects/Reinvent-master-3.2/result/LINK_invent/BTK/process_docking_weight1_custom_product_contain_oxygen_bond_distance_aromatic_linkinvent_7_9_3/rearranged_h_0074.sdf

> <i_m_source_file_index>
63

> <r_mmod_Potential_Energy-OPLS-2005>
294.295501708984

> <r_mmod_Stretch_Energy-OPLS-2005>
128.16487121582

> <r_mmod_Bend_Energy-OPLS-2005>
216.163299560547

> <r_mmod_Torsional_Energy-OPLS-2005>
272.526763916016

> <r_mmod_Improper_Torsional_Energy-OPLS-2005>
4.84181356430054

> <r_mmod_Van_der_Waal_Energy-OPLS-2005>
152.538772583008

> <r_mmod_Electrostatic_Energy-OPLS-2005>
-320.536712646484

> <r_mmod_Solvation_Energy-OPLS-2005>
-227.84928894043

> <b_mmod_Minimization_Converged-OPLS-2005>
0

> <r_mmod_RMS_Derivative-OPLS-2005>
0.84236204624176

$$$$
65
                    3D
 Structure written by MMmdl.
160169  0  0  1  0            999 V2000
  -30.6229  -14.7526   20.4148 C   0  0  0  0  0  0
  -30.4254  -12.4509   19.4829 C   0  0  0  0  0  0
  -29.5115  -12.5142   18.2395 C   0  0  0  0  0  0
  -28.0364  -12.3416   18.6470 C   0  0  0  0  0  0
  -27.6422  -13.2404   19.8500 C   0  0  2  0  0  0
  -28.6872  -13.1847   20.9870 C   0  0  0  0  0  0
  -25.2495  -13.8218   20.5686 C   0  0  0  0  0  0
  -24.1788  -13.0451   20.9183 C   0  0  0  0  0  0
  -24.6387  -11.6932   20.8708 C   0  0  0  0  0  0
  -23.9064  -10.4298   21.0387 C   0  0  0  0  0  0
  -24.3619   -9.4215   21.9155 C   0  0  0  0  0  0
  -23.6298   -8.2253   22.0736 C   0  0  0  0  0  0
  -22.4280   -8.0276   21.3533 C   0  0  0  0  0  0
  -21.9914   -9.0254   20.4643 C   0  0  0  0  0  0
  -22.7240  -10.2132   20.3044 C   0  0  0  0  0  0
  -21.6853   -6.0722   22.5266 C   0  0  0  0  0  0
  -21.4015   -6.5633   23.8198 C   0  0  0  0  0  0
  -21.3662   -5.6785   24.9158 C   0  0  0  0  0  0
  -21.6052   -4.3045   24.7213 C   0  0  0  0  0  0
  -21.8825   -3.8137   23.4329 C   0  0  0  0  0  0
  -21.9195   -4.6953   22.3386 C   0  0  0  0  0  0
  -22.7811  -13.5226   21.1859 C   0  0  0  0  0  0
  -22.1665   -4.2138   21.0967 F   0  0  0  0  0  0
  -21.5638   -3.4533   25.7727 F   0  0  0  0  0  0
  -29.9914  -13.5256   20.4063 N   0  0  0  0  0  0
  -26.2929  -12.9447   20.3272 N   0  0  0  0  0  0
  -25.9328  -11.6572   20.5722 N   0  0  0  0  0  0
  -22.0460  -12.8212   22.0408 N   0  0  0  0  0  0
  -25.4217  -15.1941   20.4111 N   0  0  0  0  0  0
  -31.8123  -14.8206   20.0923 O   0  0  0  0  0  0
  -21.6640   -6.8870   21.4228 O   0  0  0  0  0  0
  -22.3498  -14.5524   20.6702 O   0  0  0  0  0  0
  -24.6326  -31.8553   23.1983 C   0  0  0  0  0  0
  -25.9146  -32.4764   23.8329 C   0  0  1  0  0  0
  -27.2186  -27.2522   20.1228 C   0  0  0  0  0  0
  -25.5926  -33.8562   24.2249 N   0  0  0  0  0  0
  -23.4295  -30.4783   21.5438 C   0  0  2  0  0  0
  -24.8742  -28.9249   20.1117 C   0  0  0  0  0  0
  -22.7514  -29.4603   22.4931 C   0  0  0  0  0  0
  -18.0295  -28.1397   22.8490 C   0  0  0  0  0  0
  -24.1482  -36.7284   23.2644 C   0  0  0  0  0  0
  -25.9766  -30.7653   21.3788 C   0  0  0  0  0  0
  -26.0477  -29.3862   20.7199 C   0  0  0  0  0  0
  -27.2198  -28.5621   20.7163 C   0  0  0  0  0  0
  -26.0214  -26.8675   19.4749 C   0  0  0  0  0  0
  -24.8663  -27.6734   19.4784 C   0  0  0  0  0  0
  -23.6462  -29.8140   20.1599 C   0  0  0  0  0  0
  -25.4112  -36.3079   24.0330 C   0  0  1  0  0  0
  -20.5902  -28.3705   23.1286 C   0  0  2  0  0  0
  -20.6778  -26.9425   22.5423 C   0  0  0  0  0  0
  -19.5747  -26.6388   21.5229 C   0  0  0  0  0  0
  -18.1926  -26.7937   22.1637 C   0  0  0  0  0  0
  -19.1551  -28.8860   23.2877 C   0  0  0  0  0  0
  -18.9466  -30.1468   23.8887 C   0  0  0  0  0  0
  -17.6465  -30.6595   24.0564 C   0  0  0  0  0  0
  -25.9055  -34.9445   23.5094 C   0  0  0  0  0  0
  -16.5352  -29.9094   23.6336 C   0  0  0  0  0  0
  -16.7280  -28.6513   23.0346 C   0  0  0  0  0  0
  -26.4487  -31.6593   25.0727 C   0  0  0  0  0  0
  -25.3691  -31.3758   26.1438 C   0  0  0  0  0  0
  -27.0340  -30.3008   24.6226 C   0  0  0  0  0  0
  -27.6031  -32.4341   25.7502 C   0  0  0  0  0  0
  -27.5574  -37.1806   24.8470 C   0  0  0  0  0  0
  -21.4221  -29.3041   22.3667 N   0  0  0  0  0  0
  -26.4288  -37.3781   23.9406 N   0  0  0  0  0  0
  -24.6992  -31.0511   22.0965 N   0  0  0  0  0  0
  -23.4203  -28.8145   23.3034 O   0  0  0  0  0  0
  -28.3101  -26.3481   20.1932 O   0  0  0  0  0  0
  -26.5643  -34.8924   22.4671 O   0  0  0  0  0  0
  -23.5479  -32.1360   23.7286 O   0  0  0  0  0  0
  -30.1733  -19.6545   18.3613 C   0  0  0  0  0  0
  -29.5933  -18.5436   20.4441 C   0  0  0  0  0  0
  -30.4904  -17.2344   18.5936 C   0  0  0  0  0  0
  -29.6722  -19.7936   19.6810 C   0  0  0  0  0  0
  -30.5633  -18.4119   17.8249 C   0  0  0  0  0  0
  -30.0072  -17.2373   19.9233 C   0  0  0  0  0  0
  -29.1219  -22.3509   19.4465 C   0  0  0  0  0  0
  -28.8854  -23.0499   21.6690 C   0  0  0  0  0  0
  -29.3141  -21.5512   21.5761 C   0  0  0  0  0  0
  -29.1365  -23.6967   20.2883 C   0  0  1  0  0  0
  -30.5590  -24.2903   20.2076 C   0  0  0  0  0  0
  -28.1044  -24.8866   19.8648 C   0  0  0  0  0  0
  -29.3316  -21.1803   20.1625 N   0  0  0  0  0  0
  -31.0250  -18.3502   16.5100 N   0  0  0  0  0  0
  -29.8799  -15.9164   20.6108 N   0  0  0  0  0  0
  -28.9128  -22.3974   18.2302 O   0  0  0  0  0  0
  -31.4705  -12.5532   19.1881 H   0  0  0  0  0  0
  -30.3512  -11.4778   19.9713 H   0  0  0  0  0  0
  -29.7998  -11.7473   17.5187 H   0  0  0  0  0  0
  -29.6416  -13.4739   17.7354 H   0  0  0  0  0  0
  -27.8856  -11.2942   18.9076 H   0  0  0  0  0  0
  -27.3828  -12.5441   17.7972 H   0  0  0  0  0  0
  -27.6362  -14.2610   19.4661 H   0  0  0  0  0  0
  -28.7188  -12.1941   21.4436 H   0  0  0  0  0  0
  -28.4204  -13.8796   21.7852 H   0  0  0  0  0  0
  -25.2755   -9.5709   22.4724 H   0  0  0  0  0  0
  -24.0010   -7.4653   22.7468 H   0  0  0  0  0  0
  -21.0839   -8.8788   19.8952 H   0  0  0  0  0  0
  -22.3693  -10.9674   19.6157 H   0  0  0  0  0  0
  -21.2008   -7.6147   23.9705 H   0  0  0  0  0  0
  -21.1479   -6.0501   25.9063 H   0  0  0  0  0  0
  -22.0603   -2.7597   23.2822 H   0  0  0  0  0  0
  -22.4087  -11.9873   22.4789 H   0  0  0  0  0  0
  -21.1081  -13.1239   22.2620 H   0  0  0  0  0  0
  -24.6589  -15.8530   20.5241 H   0  0  0  0  0  0
  -26.2742  -15.6273   20.0777 H   0  0  0  0  0  0
  -26.7220  -32.5400   23.1079 H   0  0  0  0  0  0
  -25.0045  -33.9694   25.0374 H   0  0  0  0  0  0
  -22.7266  -31.3009   21.4017 H   0  0  0  0  0  0
  -23.3750  -35.9617   23.3328 H   0  0  0  0  0  0
  -24.3562  -36.8876   22.2052 H   0  0  0  0  0  0
  -23.7227  -37.6489   23.6647 H   0  0  0  0  0  0
  -26.1165  -31.5264   20.6095 H   0  0  0  0  0  0
  -26.8541  -30.8141   22.0122 H   0  0  0  0  0  0
  -28.1157  -28.9089   21.2119 H   0  0  0  0  0  0
  -25.9404  -25.9188   18.9686 H   0  0  0  0  0  0
  -23.9692  -27.3171   18.9920 H   0  0  0  0  0  0
  -23.7722  -30.5913   19.4058 H   0  0  0  0  0  0
  -22.7628  -29.2515   19.8551 H   0  0  0  0  0  0
  -25.1300  -36.1928   25.0828 H   0  0  0  0  0  0
  -21.0002  -28.3278   24.1404 H   0  0  0  0  0  0
  -20.5694  -26.2313   23.3630 H   0  0  0  0  0  0
  -21.6637  -26.7447   22.1200 H   0  0  0  0  0  0
  -19.6903  -25.6294   21.1260 H   0  0  0  0  0  0
  -19.6678  -27.3206   20.6767 H   0  0  0  0  0  0
  -17.4200  -26.6700   21.4030 H   0  0  0  0  0  0
  -18.0310  -26.0078   22.9037 H   0  0  0  0  0  0
  -19.7940  -30.7298   24.2237 H   0  0  0  0  0  0
  -17.5016  -31.6268   24.5179 H   0  0  0  0  0  0
  -15.5355  -30.2990   23.7659 H   0  0  0  0  0  0
  -15.8677  -28.0842   22.7047 H   0  0  0  0  0  0
  -24.5855  -30.7129   25.7757 H   0  0  0  0  0  0
  -24.8894  -32.2938   26.4847 H   0  0  0  0  0  0
  -25.7981  -30.8928   27.0226 H   0  0  0  0  0  0
  -26.2937  -29.6762   24.1218 H   0  0  0  0  0  0
  -27.3983  -29.7270   25.4757 H   0  0  0  0  0  0
  -27.8830  -30.4285   23.9505 H   0  0  0  0  0  0
  -27.2629  -33.3650   26.2056 H   0  0  0  0  0  0
  -28.3849  -32.6888   25.0333 H   0  0  0  0  0  0
  -28.0695  -31.8480   26.5432 H   0  0  0  0  0  0
  -28.2618  -38.0082   24.7497 H   0  0  0  0  0  0
  -28.1042  -36.2607   24.6327 H   0  0  0  0  0  0
  -27.2290  -37.1503   25.8876 H   0  0  0  0  0  0
  -20.9423  -29.8763   21.6869 H   0  0  0  0  0  0
  -26.0171  -38.2864   24.1386 H   0  0  0  0  0  0
  -30.2906  -20.5187   17.7264 H   0  0  0  0  0  0
  -29.2070  -18.5890   21.4515 H   0  0  0  0  0  0
  -30.7952  -16.3038   18.1347 H   0  0  0  0  0  0
  -29.4160  -23.5637   22.4721 H   0  0  0  0  0  0
  -27.8229  -23.0991   21.9188 H   0  0  0  0  0  0
  -28.6389  -20.9083   22.1417 H   0  0  0  0  0  0
  -30.3189  -21.4165   21.9778 H   0  0  0  0  0  0
  -31.3318  -23.5616   20.4591 H   0  0  0  0  0  0
  -30.6713  -25.1283   20.8970 H   0  0  0  0  0  0
  -30.7671  -24.6685   19.2059 H   0  0  0  0  0  0
  -27.1294  -24.5779   20.2409 H   0  0  0  0  0  0
  -28.0170  -24.8575   18.7781 H   0  0  0  0  0  0
  -30.8126  -19.1171   15.8779 H   0  0  0  0  0  0
  -31.0475  -17.4499   16.0394 H   0  0  0  0  0  0
  -29.0152  -15.7834   21.1119 H   0  0  0  0  0  0
  1 25  1  0  0  0
  1 30  2  0  0  0
  1 85  1  0  0  0
  2  3  1  0  0  0
  2 25  1  0  0  0
  2 87  1  0  0  0
  2 88  1  0  0  0
  3  4  1  0  0  0
  3 89  1  0  0  0
  3 90  1  0  0  0
  4  5  1  0  0  0
  4 91  1  0  0  0
  4 92  1  0  0  0
  5  6  1  0  0  0
  5 26  1  0  0  0
  5 93  1  0  0  0
  6 25  1  0  0  0
  6 94  1  0  0  0
  6 95  1  0  0  0
  7  8  2  0  0  0
  7 26  1  0  0  0
  7 29  1  0  0  0
  8  9  1  0  0  0
  8 22  1  0  0  0
  9 10  1  0  0  0
  9 27  2  0  0  0
 10 11  2  0  0  0
 10 15  1  0  0  0
 11 12  1  0  0  0
 11 96  1  0  0  0
 12 13  2  0  0  0
 12 97  1  0  0  0
 13 14  1  0  0  0
 13 31  1  0  0  0
 14 15  2  0  0  0
 14 98  1  0  0  0
 15 99  1  0  0  0
 16 17  2  0  0  0
 16 21  1  0  0  0
 16 31  1  0  0  0
 17 18  1  0  0  0
 17100  1  0  0  0
 18 19  2  0  0  0
 18101  1  0  0  0
 19 20  1  0  0  0
 19 24  1  0  0  0
 20 21  2  0  0  0
 20102  1  0  0  0
 21 23  1  0  0  0
 22 28  1  0  0  0
 22 32  2  0  0  0
 26 27  1  0  0  0
 28103  1  0  0  0
 28104  1  0  0  0
 29105  1  0  0  0
 29106  1  0  0  0
 33 34  1  0  0  0
 33 66  1  0  0  0
 33 70  2  0  0  0
 34 36  1  0  0  0
 34 59  1  0  0  0
 34107  1  0  0  0
 35 44  2  0  0  0
 35 45  1  0  0  0
 35 68  1  0  0  0
 36 56  1  0  0  0
 36108  1  0  0  0
 37 39  1  0  0  0
 37 47  1  0  0  0
 37 66  1  0  0  0
 37109  1  0  0  0
 38 43  2  0  0  0
 38 46  1  0  0  0
 38 47  1  0  0  0
 39 64  1  0  0  0
 39 67  2  0  0  0
 40 52  1  0  0  0
 40 53  2  0  0  0
 40 58  1  0  0  0
 41110  1  0  0  0
 41111  1  0  0  0
 41112  1  0  0  0
 41 48  1  0  0  0
 42 43  1  0  0  0
 42 66  1  0  0  0
 42113  1  0  0  0
 42114  1  0  0  0
 43 44  1  0  0  0
 44115  1  0  0  0
 45 46  2  0  0  0
 45116  1  0  0  0
 46117  1  0  0  0
 47118  1  0  0  0
 47119  1  0  0  0
 48 56  1  0  0  0
 48 65  1  0  0  0
 48120  1  0  0  0
 49 50  1  0  0  0
 49 53  1  0  0  0
 49 64  1  0  0  0
 49121  1  0  0  0
 50 51  1  0  0  0
 50122  1  0  0  0
 50123  1  0  0  0
 51 52  1  0  0  0
 51124  1  0  0  0
 51125  1  0  0  0
 52126  1  0  0  0
 52127  1  0  0  0
 53 54  1  0  0  0
 54 55  2  0  0  0
 54128  1  0  0  0
 55 57  1  0  0  0
 55129  1  0  0  0
 56 69  2  0  0  0
 57 58  2  0  0  0
 57130  1  0  0  0
 58131  1  0  0  0
 59 60  1  0  0  0
 59 61  1  0  0  0
 59 62  1  0  0  0
 60132  1  0  0  0
 60133  1  0  0  0
 60134  1  0  0  0
 61135  1  0  0  0
 61136  1  0  0  0
 61137  1  0  0  0
 62138  1  0  0  0
 62139  1  0  0  0
 62140  1  0  0  0
 63 65  1  0  0  0
 63141  1  0  0  0
 63142  1  0  0  0
 63143  1  0  0  0
 64144  1  0  0  0
 65145  1  0  0  0
 68 82  1  0  0  0
 71 74  2  0  0  0
 71 75  1  0  0  0
 71146  1  0  0  0
 72 74  1  0  0  0
 72 76  2  0  0  0
 72147  1  0  0  0
 73 75  2  0  0  0
 73 76  1  0  0  0
 73148  1  0  0  0
 74 83  1  0  0  0
 75 84  1  0  0  0
 76 85  1  0  0  0
 77 80  1  0  0  0
 77 83  1  0  0  0
 77 86  2  0  0  0
 78 79  1  0  0  0
 78 80  1  0  0  0
 78149  1  0  0  0
 78150  1  0  0  0
 79 83  1  0  0  0
 79151  1  0  0  0
 79152  1  0  0  0
 80 81  1  0  0  0
 80 82  1  0  0  0
 81153  1  0  0  0
 81154  1  0  0  0
 81155  1  0  0  0
 82156  1  0  0  0
 82157  1  0  0  0
 84158  1  0  0  0
 84159  1  0  0  0
 85160  1  0  0  0
M  ISO  4   1 100  68 101  82 101  85 100
M  END
> <chiral flag>
0

> <version>
0

> <s_m_source_file>
/data/baiqing/PycharmProjects/Reinvent-master-3.2/result/LINK_invent/BTK/process_docking_weight1_custom_product_contain_oxygen_bond_distance_aromatic_linkinvent_7_9_3/rearranged_h_0074.sdf

> <i_m_source_file_index>
64

> <r_mmod_Potential_Energy-OPLS-2005>
328.762359619141

> <r_mmod_Stretch_Energy-OPLS-2005>
138.244689941406

> <r_mmod_Bend_Energy-OPLS-2005>
194.080368041992

> <r_mmod_Torsional_Energy-OPLS-2005>
298.641448974609

> <r_mmod_Improper_Torsional_Energy-OPLS-2005>
7.83598709106445

> <r_mmod_Van_der_Waal_Energy-OPLS-2005>
143.264175415039

> <r_mmod_Electrostatic_Energy-OPLS-2005>
-311.591979980469

> <r_mmod_Solvation_Energy-OPLS-2005>
-232.493743896484

> <b_mmod_Minimization_Converged-OPLS-2005>
0

> <r_mmod_RMS_Derivative-OPLS-2005>
2.70538663864136

$$$$
66
                    3D
 Structure written by MMmdl.
161169  0  0  1  0            999 V2000
  -30.6721  -14.4940   20.5864 C   0  0  0  0  0  0
  -30.4358  -12.3258   19.4186 C   0  0  0  0  0  0
  -29.4981  -12.5120   18.2061 C   0  0  0  0  0  0
  -28.0203  -12.3556   18.6192 C   0  0  0  0  0  0
  -27.6630  -13.1923   19.8748 C   0  0  2  0  0  0
  -28.7049  -12.9669   20.9940 C   0  0  0  0  0  0
  -25.2608  -13.8119   20.5675 C   0  0  0  0  0  0
  -24.1842  -13.0419   20.9167 C   0  0  0  0  0  0
  -24.6379  -11.6882   20.8726 C   0  0  0  0  0  0
  -23.9039  -10.4281   21.0403 C   0  0  0  0  0  0
  -24.3599   -9.4202   21.9182 C   0  0  0  0  0  0
  -23.6281   -8.2236   22.0750 C   0  0  0  0  0  0
  -22.4263   -8.0274   21.3542 C   0  0  0  0  0  0
  -21.9893   -9.0244   20.4643 C   0  0  0  0  0  0
  -22.7215  -10.2125   20.3051 C   0  0  0  0  0  0
  -21.6849   -6.0731   22.5280 C   0  0  0  0  0  0
  -21.4009   -6.5635   23.8215 C   0  0  0  0  0  0
  -21.3659   -5.6788   24.9175 C   0  0  0  0  0  0
  -21.6045   -4.3050   24.7225 C   0  0  0  0  0  0
  -21.8819   -3.8144   23.4347 C   0  0  0  0  0  0
  -21.9191   -4.6960   22.3403 C   0  0  0  0  0  0
  -22.7873  -13.5239   21.1844 C   0  0  0  0  0  0
  -22.1663   -4.2148   21.0981 F   0  0  0  0  0  0
  -21.5631   -3.4534   25.7738 F   0  0  0  0  0  0
  -30.0365  -13.2962   20.4506 N   0  0  0  0  0  0
  -26.3027  -12.9258   20.3352 N   0  0  0  0  0  0
  -25.9299  -11.6433   20.5750 N   0  0  0  0  0  0
  -22.0507  -12.8232   22.0398 N   0  0  0  0  0  0
  -25.4347  -15.1830   20.4116 N   0  0  0  0  0  0
  -31.7858  -14.7232   20.1028 O   0  0  0  0  0  0
  -21.6629   -6.8872   21.4242 O   0  0  0  0  0  0
  -22.3562  -14.5551   20.6702 O   0  0  0  0  0  0
  -24.6144  -31.8677   23.2091 C   0  0  0  0  0  0
  -25.9037  -32.4823   23.8391 C   0  0  1  0  0  0
  -27.2403  -27.4324   20.1049 C   0  0  0  0  0  0
  -25.5895  -33.8621   24.2330 N   0  0  0  0  0  0
  -23.4042  -30.4885   21.5491 C   0  0  2  0  0  0
  -24.8545  -28.9476   20.1218 C   0  0  0  0  0  0
  -22.7414  -29.4650   22.4992 C   0  0  0  0  0  0
  -18.0273  -28.1378   22.8492 C   0  0  0  0  0  0
  -24.1488  -36.7314   23.2638 C   0  0  0  0  0  0
  -25.9321  -30.8310   21.3642 C   0  0  0  0  0  0
  -26.0125  -29.4603   20.7218 C   0  0  0  0  0  0
  -27.2106  -28.7078   20.7158 C   0  0  0  0  0  0
  -26.0701  -26.9316   19.5021 C   0  0  0  0  0  0
  -24.8767  -27.6801   19.5118 C   0  0  0  0  0  0
  -23.6158  -29.8154   20.1661 C   0  0  0  0  0  0
  -25.4107  -36.3115   24.0341 C   0  0  1  0  0  0
  -20.5863  -28.3662   23.1325 C   0  0  2  0  0  0
  -20.6760  -26.9399   22.5423 C   0  0  0  0  0  0
  -19.5741  -26.6388   21.5213 C   0  0  0  0  0  0
  -18.1919  -26.7928   22.1621 C   0  0  0  0  0  0
  -19.1522  -28.8836   23.2904 C   0  0  0  0  0  0
  -18.9449  -30.1443   23.8912 C   0  0  0  0  0  0
  -17.6451  -30.6583   24.0564 C   0  0  0  0  0  0
  -25.9032  -34.9478   23.5132 C   0  0  0  0  0  0
  -16.5342  -29.9085   23.6325 C   0  0  0  0  0  0
  -16.7262  -28.6504   23.0344 C   0  0  0  0  0  0
  -26.4469  -31.6598   25.0713 C   0  0  0  0  0  0
  -25.3739  -31.3702   26.1466 C   0  0  0  0  0  0
  -27.0294  -30.3041   24.6077 C   0  0  0  0  0  0
  -27.6050  -32.4311   25.7475 C   0  0  0  0  0  0
  -27.5584  -37.1810   24.8461 C   0  0  0  0  0  0
  -21.4141  -29.3031   22.3736 N   0  0  0  0  0  0
  -26.4295  -37.3797   23.9409 N   0  0  0  0  0  0
  -24.6682  -31.0772   22.0995 N   0  0  0  0  0  0
  -23.4187  -28.8192   23.3035 O   0  0  0  0  0  0
  -28.3958  -26.6909   20.0198 O   0  0  0  0  0  0
  -26.5590  -34.8930   22.4691 O   0  0  0  0  0  0
  -23.5335  -32.1426   23.7483 O   0  0  0  0  0  0
  -30.8571  -19.1108   21.2173 C   0  0  0  0  0  0
  -30.9685  -17.7091   21.4099 C   0  0  0  0  0  0
  -28.7411  -18.7878   20.0655 C   0  0  0  0  0  0
  -29.7410  -19.6639   20.5414 C   0  0  0  0  0  0
  -29.9551  -16.8387   20.9433 C   0  0  0  0  0  0
  -28.8399  -17.3966   20.2783 C   0  0  0  0  0  0
  -29.6158  -21.1168   20.3093 C   0  0  0  0  0  0
  -28.7919  -24.3558   20.7556 C   0  0  0  0  0  0
  -31.2684  -23.8625   20.7033 C   0  0  0  0  0  0
  -30.0379  -23.8261   22.9045 C   0  0  0  0  0  0
  -28.6907  -25.8545   21.1495 C   0  0  0  0  0  0
  -29.9342  -23.4935   21.3953 C   0  0  0  0  0  0
  -29.3424  -21.5573   19.0865 N   0  0  0  0  0  0
  -29.9540  -15.4385   21.2212 N   0  0  0  0  0  0
  -29.7744  -21.9981   21.3205 N   0  3  0  0  0  0
  -28.0102  -23.8696   19.9302 O   0  0  0  0  0  0
  -27.8449  -16.5887   19.8432 F   0  0  0  0  0  0
  -31.4768  -12.4488   19.1145 H   0  0  0  0  0  0
  -30.3591  -11.3103   19.8109 H   0  0  0  0  0  0
  -29.7462  -11.7927   17.4243 H   0  0  0  0  0  0
  -29.6531  -13.5005   17.7706 H   0  0  0  0  0  0
  -27.8408  -11.2983   18.8173 H   0  0  0  0  0  0
  -27.3663  -12.6250   17.7889 H   0  0  0  0  0  0
  -27.7073  -14.2352   19.5713 H   0  0  0  0  0  0
  -28.6918  -11.9237   21.3135 H   0  0  0  0  0  0
  -28.4508  -13.5393   21.8870 H   0  0  0  0  0  0
  -25.2745   -9.5683   22.4749 H   0  0  0  0  0  0
  -23.9996   -7.4626   22.7464 H   0  0  0  0  0  0
  -21.0827   -8.8759   19.8949 H   0  0  0  0  0  0
  -22.3675  -10.9661   19.6157 H   0  0  0  0  0  0
  -21.1997   -7.6140   23.9717 H   0  0  0  0  0  0
  -21.1484   -6.0516   25.9080 H   0  0  0  0  0  0
  -22.0599   -2.7606   23.2845 H   0  0  0  0  0  0
  -22.4104  -11.9874   22.4766 H   0  0  0  0  0  0
  -21.1131  -13.1271   22.2608 H   0  0  0  0  0  0
  -24.6728  -15.8413   20.5242 H   0  0  0  0  0  0
  -26.2977  -15.6264   20.1106 H   0  0  0  0  0  0
  -26.7111  -32.5547   23.1159 H   0  0  0  0  0  0
  -25.0053  -33.9781   25.0480 H   0  0  0  0  0  0
  -22.6923  -31.3041   21.4069 H   0  0  0  0  0  0
  -23.3749  -35.9646   23.3304 H   0  0  0  0  0  0
  -24.3586  -36.8919   22.2051 H   0  0  0  0  0  0
  -23.7237  -37.6522   23.6642 H   0  0  0  0  0  0
  -26.0407  -31.5925   20.5905 H   0  0  0  0  0  0
  -26.8216  -30.8920   21.9794 H   0  0  0  0  0  0
  -28.1092  -29.1064   21.1657 H   0  0  0  0  0  0
  -26.0880  -25.9635   19.0211 H   0  0  0  0  0  0
  -23.9880  -27.2796   19.0438 H   0  0  0  0  0  0
  -23.7248  -30.5869   19.4028 H   0  0  0  0  0  0
  -22.7408  -29.2333   19.8714 H   0  0  0  0  0  0
  -25.1284  -36.1980   25.0835 H   0  0  0  0  0  0
  -20.9953  -28.3225   24.1445 H   0  0  0  0  0  0
  -20.5662  -26.2264   23.3605 H   0  0  0  0  0  0
  -21.6633  -26.7442   22.1218 H   0  0  0  0  0  0
  -19.6900  -25.6305   21.1228 H   0  0  0  0  0  0
  -19.6686  -27.3211   20.6752 H   0  0  0  0  0  0
  -17.4193  -26.6684   21.4016 H   0  0  0  0  0  0
  -18.0313  -26.0067   22.9015 H   0  0  0  0  0  0
  -19.7924  -30.7255   24.2291 H   0  0  0  0  0  0
  -17.5005  -31.6264   24.5165 H   0  0  0  0  0  0
  -15.5342  -30.2987   23.7641 H   0  0  0  0  0  0
  -15.8664  -28.0828   22.7045 H   0  0  0  0  0  0
  -24.5907  -30.7055   25.7804 H   0  0  0  0  0  0
  -24.8936  -32.2858   26.4926 H   0  0  0  0  0  0
  -25.8099  -30.8862   27.0214 H   0  0  0  0  0  0
  -26.2829  -29.6811   24.1135 H   0  0  0  0  0  0
  -27.4074  -29.7268   25.4523 H   0  0  0  0  0  0
  -27.8662  -30.4366   23.9214 H   0  0  0  0  0  0
  -27.2677  -33.3606   26.2074 H   0  0  0  0  0  0
  -28.3848  -32.6877   25.0292 H   0  0  0  0  0  0
  -28.0728  -31.8417   26.5370 H   0  0  0  0  0  0
  -28.2602  -38.0108   24.7517 H   0  0  0  0  0  0
  -28.1081  -36.2641   24.6273 H   0  0  0  0  0  0
  -27.2305  -37.1450   25.8864 H   0  0  0  0  0  0
  -20.9299  -29.8755   21.6962 H   0  0  0  0  0  0
  -26.0186  -38.2878   24.1405 H   0  0  0  0  0  0
  -31.6419  -19.7594   21.5824 H   0  0  0  0  0  0
  -31.8221  -17.3087   21.9380 H   0  0  0  0  0  0
  -27.8746  -19.1780   19.5517 H   0  0  0  0  0  0
  -31.6959  -24.7860   21.0945 H   0  0  0  0  0  0
  -31.1417  -24.0052   19.6288 H   0  0  0  0  0  0
  -32.0207  -23.0843   20.8340 H   0  0  0  0  0  0
  -30.6304  -24.7223   23.0919 H   0  0  0  0  0  0
  -30.5146  -23.0248   23.4697 H   0  0  0  0  0  0
  -29.0584  -23.9918   23.3564 H   0  0  0  0  0  0
  -29.6361  -26.1858   21.5778 H   0  0  0  0  0  0
  -27.9322  -25.9623   21.9261 H   0  0  0  0  0  0
  -29.2955  -20.9066   18.3169 H   0  0  0  0  0  0
  -28.9191  -22.4716   18.9801 H   0  0  0  0  0  0
  -29.0653  -15.0840   21.5374 H   0  0  0  0  0  0
  -29.8653  -21.5445   22.2194 H   0  0  0  0  0  0
  1 25  1  0  0  0
  1 30  2  0  0  0
  1 84  1  0  0  0
  2  3  1  0  0  0
  2 25  1  0  0  0
  2 88  1  0  0  0
  2 89  1  0  0  0
  3  4  1  0  0  0
  3 90  1  0  0  0
  3 91  1  0  0  0
  4  5  1  0  0  0
  4 92  1  0  0  0
  4 93  1  0  0  0
  5  6  1  0  0  0
  5 26  1  0  0  0
  5 94  1  0  0  0
  6 25  1  0  0  0
  6 95  1  0  0  0
  6 96  1  0  0  0
  7  8  2  0  0  0
  7 26  1  0  0  0
  7 29  1  0  0  0
  8  9  1  0  0  0
  8 22  1  0  0  0
  9 10  1  0  0  0
  9 27  2  0  0  0
 10 11  2  0  0  0
 10 15  1  0  0  0
 11 12  1  0  0  0
 11 97  1  0  0  0
 12 13  2  0  0  0
 12 98  1  0  0  0
 13 14  1  0  0  0
 13 31  1  0  0  0
 14 15  2  0  0  0
 14 99  1  0  0  0
 15100  1  0  0  0
 16 17  2  0  0  0
 16 21  1  0  0  0
 16 31  1  0  0  0
 17 18  1  0  0  0
 17101  1  0  0  0
 18 19  2  0  0  0
 18102  1  0  0  0
 19 20  1  0  0  0
 19 24  1  0  0  0
 20 21  2  0  0  0
 20103  1  0  0  0
 21 23  1  0  0  0
 22 28  1  0  0  0
 22 32  2  0  0  0
 26 27  1  0  0  0
 28104  1  0  0  0
 28105  1  0  0  0
 29106  1  0  0  0
 29107  1  0  0  0
 33 34  1  0  0  0
 33 66  1  0  0  0
 33 70  2  0  0  0
 34 36  1  0  0  0
 34 59  1  0  0  0
 34108  1  0  0  0
 35 44  2  0  0  0
 35 45  1  0  0  0
 35 68  1  0  0  0
 36 56  1  0  0  0
 36109  1  0  0  0
 37 39  1  0  0  0
 37 47  1  0  0  0
 37 66  1  0  0  0
 37110  1  0  0  0
 38 43  2  0  0  0
 38 46  1  0  0  0
 38 47  1  0  0  0
 39 64  1  0  0  0
 39 67  2  0  0  0
 40 52  1  0  0  0
 40 53  2  0  0  0
 40 58  1  0  0  0
 41111  1  0  0  0
 41112  1  0  0  0
 41113  1  0  0  0
 41 48  1  0  0  0
 42 43  1  0  0  0
 42 66  1  0  0  0
 42114  1  0  0  0
 42115  1  0  0  0
 43 44  1  0  0  0
 44116  1  0  0  0
 45 46  2  0  0  0
 45117  1  0  0  0
 46118  1  0  0  0
 47119  1  0  0  0
 47120  1  0  0  0
 48 56  1  0  0  0
 48 65  1  0  0  0
 48121  1  0  0  0
 49 50  1  0  0  0
 49 53  1  0  0  0
 49 64  1  0  0  0
 49122  1  0  0  0
 50 51  1  0  0  0
 50123  1  0  0  0
 50124  1  0  0  0
 51 52  1  0  0  0
 51125  1  0  0  0
 51126  1  0  0  0
 52127  1  0  0  0
 52128  1  0  0  0
 53 54  1  0  0  0
 54 55  2  0  0  0
 54129  1  0  0  0
 55 57  1  0  0  0
 55130  1  0  0  0
 56 69  2  0  0  0
 57 58  2  0  0  0
 57131  1  0  0  0
 58132  1  0  0  0
 59 60  1  0  0  0
 59 61  1  0  0  0
 59 62  1  0  0  0
 60133  1  0  0  0
 60134  1  0  0  0
 60135  1  0  0  0
 61136  1  0  0  0
 61137  1  0  0  0
 61138  1  0  0  0
 62139  1  0  0  0
 62140  1  0  0  0
 62141  1  0  0  0
 63 65  1  0  0  0
 63142  1  0  0  0
 63143  1  0  0  0
 63144  1  0  0  0
 64145  1  0  0  0
 65146  1  0  0  0
 68 81  1  0  0  0
 71 72  2  0  0  0
 71 74  1  0  0  0
 71147  1  0  0  0
 72 75  1  0  0  0
 72148  1  0  0  0
 73 74  2  0  0  0
 73 76  1  0  0  0
 73149  1  0  0  0
 74 77  1  0  0  0
 75 76  2  0  0  0
 75 84  1  0  0  0
 76 87  1  0  0  0
 77 83  1  0  0  0
 77 85  2  0  0  0
 78 81  1  0  0  0
 78 82  1  0  0  0
 78 86  2  0  0  0
 79150  1  0  0  0
 79151  1  0  0  0
 79152  1  0  0  0
 79 82  1  0  0  0
 80 82  1  0  0  0
 80153  1  0  0  0
 80154  1  0  0  0
 80155  1  0  0  0
 81156  1  0  0  0
 81157  1  0  0  0
 82 85  1  0  0  0
 83158  1  0  0  0
 83159  1  0  0  0
 84160  1  0  0  0
 85161  1  0  0  0
M  CHG  1  85   1
M  ISO  4   1 100  68 101  81 101  84 100
M  END
> <chiral flag>
0

> <version>
0

> <s_m_source_file>
/data/baiqing/PycharmProjects/Reinvent-master-3.2/result/LINK_invent/BTK/process_docking_weight1_custom_product_contain_oxygen_bond_distance_aromatic_linkinvent_7_9_3/rearranged_h_0074.sdf

> <i_m_source_file_index>
65

> <r_mmod_Potential_Energy-OPLS-2005>
-293.500396728516

> <r_mmod_Stretch_Energy-OPLS-2005>
43.3943099975586

> <r_mmod_Bend_Energy-OPLS-2005>
110.497055053711

> <r_mmod_Torsional_Energy-OPLS-2005>
276.477416992188

> <r_mmod_Improper_Torsional_Energy-OPLS-2005>
6.15212965011597

> <r_mmod_Van_der_Waal_Energy-OPLS-2005>
154.420562744141

> <r_mmod_Electrostatic_Energy-OPLS-2005>
-489.757843017578

> <r_mmod_Solvation_Energy-OPLS-2005>
-407.447937011719

> <b_mmod_Minimization_Converged-OPLS-2005>
0

> <r_mmod_RMS_Derivative-OPLS-2005>
0.631158769130707

$$$$
67
                    3D
 Structure written by MMmdl.
161169  0  0  1  0            999 V2000
  -30.6703  -14.5269   20.5949 C   0  0  0  0  0  0
  -30.4372  -12.3452   19.4361 C   0  0  0  0  0  0
  -29.5051  -12.5222   18.2179 C   0  0  0  0  0  0
  -28.0280  -12.3601   18.6278 C   0  0  0  0  0  0
  -27.6645  -13.2061   19.8765 C   0  0  2  0  0  0
  -28.7025  -12.9931   21.0013 C   0  0  0  0  0  0
  -25.2610  -13.8148   20.5658 C   0  0  0  0  0  0
  -24.1856  -13.0436   20.9147 C   0  0  0  0  0  0
  -24.6399  -11.6898   20.8707 C   0  0  0  0  0  0
  -23.9050  -10.4291   21.0391 C   0  0  0  0  0  0
  -24.3605   -9.4215   21.9180 C   0  0  0  0  0  0
  -23.6281   -8.2250   22.0751 C   0  0  0  0  0  0
  -22.4272   -8.0278   21.3531 C   0  0  0  0  0  0
  -21.9890   -9.0257   20.4642 C   0  0  0  0  0  0
  -22.7211  -10.2142   20.3050 C   0  0  0  0  0  0
  -21.6854   -6.0736   22.5273 C   0  0  0  0  0  0
  -21.4022   -6.5642   23.8208 C   0  0  0  0  0  0
  -21.3655   -5.6791   24.9167 C   0  0  0  0  0  0
  -21.6047   -4.3052   24.7218 C   0  0  0  0  0  0
  -21.8820   -3.8144   23.4334 C   0  0  0  0  0  0
  -21.9193   -4.6962   22.3397 C   0  0  0  0  0  0
  -22.7882  -13.5258   21.1822 C   0  0  0  0  0  0
  -22.1664   -4.2146   21.0968 F   0  0  0  0  0  0
  -21.5617   -3.4536   25.7730 F   0  0  0  0  0  0
  -30.0355  -13.3242   20.4619 N   0  0  0  0  0  0
  -26.3039  -12.9312   20.3342 N   0  0  0  0  0  0
  -25.9332  -11.6474   20.5756 N   0  0  0  0  0  0
  -22.0512  -12.8266   22.0380 N   0  0  0  0  0  0
  -25.4346  -15.1862   20.4088 N   0  0  0  0  0  0
  -31.7601  -14.7670   20.0662 O   0  0  0  0  0  0
  -21.6632   -6.8878   21.4235 O   0  0  0  0  0  0
  -22.3583  -14.5572   20.6671 O   0  0  0  0  0  0
  -24.6186  -31.8634   23.2070 C   0  0  0  0  0  0
  -25.9058  -32.4796   23.8380 C   0  0  1  0  0  0
  -27.2380  -27.3922   20.0958 C   0  0  0  0  0  0
  -25.5902  -33.8599   24.2308 N   0  0  0  0  0  0
  -23.4096  -30.4855   21.5490 C   0  0  2  0  0  0
  -24.8574  -28.9494   20.1106 C   0  0  0  0  0  0
  -22.7438  -29.4619   22.4975 C   0  0  0  0  0  0
  -18.0276  -28.1368   22.8484 C   0  0  0  0  0  0
  -24.1477  -36.7293   23.2636 C   0  0  0  0  0  0
  -25.9437  -30.8148   21.3683 C   0  0  0  0  0  0
  -26.0205  -29.4478   20.7108 C   0  0  0  0  0  0
  -27.2115  -28.6757   20.7020 C   0  0  0  0  0  0
  -26.0488  -26.9168   19.4956 C   0  0  0  0  0  0
  -24.8682  -27.6846   19.4992 C   0  0  0  0  0  0
  -23.6198  -29.8194   20.1635 C   0  0  0  0  0  0
  -25.4100  -36.3096   24.0333 C   0  0  1  0  0  0
  -20.5867  -28.3653   23.1305 C   0  0  2  0  0  0
  -20.6755  -26.9381   22.5414 C   0  0  0  0  0  0
  -19.5739  -26.6372   21.5204 C   0  0  0  0  0  0
  -18.1920  -26.7914   22.1617 C   0  0  0  0  0  0
  -19.1527  -28.8829   23.2888 C   0  0  0  0  0  0
  -18.9457  -30.1438   23.8897 C   0  0  0  0  0  0
  -17.6456  -30.6568   24.0564 C   0  0  0  0  0  0
  -25.9038  -34.9457   23.5120 C   0  0  0  0  0  0
  -16.5347  -29.9070   23.6326 C   0  0  0  0  0  0
  -16.7265  -28.6490   23.0342 C   0  0  0  0  0  0
  -26.4484  -31.6587   25.0718 C   0  0  0  0  0  0
  -25.3751  -31.3710   26.1474 C   0  0  0  0  0  0
  -27.0307  -30.3020   24.6109 C   0  0  0  0  0  0
  -27.6062  -32.4308   25.7465 C   0  0  0  0  0  0
  -27.5580  -37.1788   24.8460 C   0  0  0  0  0  0
  -21.4160  -29.3011   22.3712 N   0  0  0  0  0  0
  -26.4285  -37.3783   23.9418 N   0  0  0  0  0  0
  -24.6758  -31.0694   22.0995 N   0  0  0  0  0  0
  -23.4187  -28.8167   23.3037 O   0  0  0  0  0  0
  -28.3745  -26.5940   20.1601 O   0  0  0  0  0  0
  -26.5605  -34.8919   22.4685 O   0  0  0  0  0  0
  -23.5368  -32.1404   23.7433 O   0  0  0  0  0  0
  -30.1597  -19.0221   22.4654 C   0  0  0  0  0  0
  -30.3502  -17.6197   22.4258 C   0  0  0  0  0  0
  -29.3631  -18.9952   20.1786 C   0  0  0  0  0  0
  -29.6212  -19.7334   21.3623 C   0  0  0  0  0  0
  -30.0402  -16.8755   21.2666 C   0  0  0  0  0  0
  -29.5672  -17.5868   20.1329 C   0  0  0  0  0  0
  -30.3308  -24.9176   22.5578 C   0  0  0  0  0  0
  -30.3854  -24.2318   21.4063 C   0  0  0  0  0  0
  -28.5935  -25.6388   19.1831 C   0  0  0  0  0  0
  -29.2657  -21.1762   21.5264 C   0  0  0  0  0  0
  -28.9627  -24.3362   19.3535 C   0  0  0  0  0  0
  -29.1726  -23.4696   18.1216 C   0  0  0  0  0  0
  -29.1831  -23.6233   20.7087 C   0  0  1  0  0  0
  -28.7553  -21.5494   22.6996 N   0  0  0  0  0  0
  -30.0145  -15.4403   21.3424 N   0  0  0  0  0  0
  -29.4203  -22.1401   20.5817 N   0  3  0  0  0  0
  -29.2333  -16.9043   19.0104 F   0  0  0  0  0  0
  -31.4802  -12.4625   19.1379 H   0  0  0  0  0  0
  -30.3560  -11.3341   19.8393 H   0  0  0  0  0  0
  -29.7581  -11.7980   17.4426 H   0  0  0  0  0  0
  -29.6564  -13.5092   17.7798 H   0  0  0  0  0  0
  -27.8577  -11.3024   18.8326 H   0  0  0  0  0  0
  -27.3738  -12.6186   17.7940 H   0  0  0  0  0  0
  -27.7057  -14.2534   19.5760 H   0  0  0  0  0  0
  -28.6931  -11.9538   21.3334 H   0  0  0  0  0  0
  -28.4363  -13.5748   21.8850 H   0  0  0  0  0  0
  -25.2764   -9.5693   22.4740 H   0  0  0  0  0  0
  -23.9984   -7.4655   22.7485 H   0  0  0  0  0  0
  -21.0808   -8.8786   19.8963 H   0  0  0  0  0  0
  -22.3669  -10.9683   19.6154 H   0  0  0  0  0  0
  -21.2028   -7.6159   23.9715 H   0  0  0  0  0  0
  -21.1470   -6.0519   25.9068 H   0  0  0  0  0  0
  -22.0601   -2.7604   23.2841 H   0  0  0  0  0  0
  -22.4120  -11.9927   22.4769 H   0  0  0  0  0  0
  -21.1141  -13.1314   22.2593 H   0  0  0  0  0  0
  -24.6660  -15.8397   20.5112 H   0  0  0  0  0  0
  -26.2861  -15.6220   20.0765 H   0  0  0  0  0  0
  -26.7123  -32.5494   23.1135 H   0  0  0  0  0  0
  -25.0064  -33.9752   25.0464 H   0  0  0  0  0  0
  -22.6985  -31.3023   21.4097 H   0  0  0  0  0  0
  -23.3733  -35.9634   23.3315 H   0  0  0  0  0  0
  -24.3571  -36.8887   22.2047 H   0  0  0  0  0  0
  -23.7229  -37.6503   23.6640 H   0  0  0  0  0  0
  -26.0636  -31.5814   20.6017 H   0  0  0  0  0  0
  -26.8290  -30.8647   21.9909 H   0  0  0  0  0  0
  -28.1066  -29.0515   21.1775 H   0  0  0  0  0  0
  -26.0153  -25.9382   19.0394 H   0  0  0  0  0  0
  -23.9726  -27.2902   19.0391 H   0  0  0  0  0  0
  -23.7280  -30.5965   19.4060 H   0  0  0  0  0  0
  -22.7426  -29.2414   19.8668 H   0  0  0  0  0  0
  -25.1268  -36.1960   25.0824 H   0  0  0  0  0  0
  -20.9954  -28.3221   24.1426 H   0  0  0  0  0  0
  -20.5624  -26.2265   23.3606 H   0  0  0  0  0  0
  -21.6631  -26.7395   22.1231 H   0  0  0  0  0  0
  -19.6896  -25.6289   21.1216 H   0  0  0  0  0  0
  -19.6682  -27.3196   20.6747 H   0  0  0  0  0  0
  -17.4185  -26.6656   21.4025 H   0  0  0  0  0  0
  -18.0325  -26.0054   22.9014 H   0  0  0  0  0  0
  -19.7933  -30.7255   24.2262 H   0  0  0  0  0  0
  -17.5007  -31.6246   24.5168 H   0  0  0  0  0  0
  -15.5348  -30.2969   23.7642 H   0  0  0  0  0  0
  -15.8670  -28.0813   22.7046 H   0  0  0  0  0  0
  -24.5932  -30.7036   25.7837 H   0  0  0  0  0  0
  -24.8943  -32.2875   26.4905 H   0  0  0  0  0  0
  -25.8115  -30.8910   27.0241 H   0  0  0  0  0  0
  -26.2854  -29.6772   24.1174 H   0  0  0  0  0  0
  -27.4084  -29.7257   25.4563 H   0  0  0  0  0  0
  -27.8689  -30.4330   23.9261 H   0  0  0  0  0  0
  -27.2693  -33.3603   26.2067 H   0  0  0  0  0  0
  -28.3855  -32.6872   25.0274 H   0  0  0  0  0  0
  -28.0752  -31.8421   26.5358 H   0  0  0  0  0  0
  -28.2595  -38.0089   24.7520 H   0  0  0  0  0  0
  -28.1079  -36.2622   24.6264 H   0  0  0  0  0  0
  -27.2307  -37.1403   25.8865 H   0  0  0  0  0  0
  -20.9324  -29.8761   21.6961 H   0  0  0  0  0  0
  -26.0169  -38.2856   24.1450 H   0  0  0  0  0  0
  -30.3893  -19.5443   23.3845 H   0  0  0  0  0  0
  -30.6989  -17.1127   23.3143 H   0  0  0  0  0  0
  -28.9465  -19.4909   19.3145 H   0  0  0  0  0  0
  -31.2282  -25.3231   23.0036 H   0  0  0  0  0  0
  -29.3945  -25.0883   23.0695 H   0  0  0  0  0  0
  -31.3424  -24.0916   20.9233 H   0  0  0  0  0  0
  -28.4425  -26.0619   18.1992 H   0  0  0  0  0  0
  -29.0647  -24.0505   17.2049 H   0  0  0  0  0  0
  -28.4367  -22.6652   18.0869 H   0  0  0  0  0  0
  -30.1745  -23.0401   18.1164 H   0  0  0  0  0  0
  -28.2894  -23.8012   21.3099 H   0  0  0  0  0  0
  -28.5662  -20.8494   23.4004 H   0  0  0  0  0  0
  -28.5377  -22.5069   22.9108 H   0  0  0  0  0  0
  -29.2343  -15.0609   21.8541 H   0  0  0  0  0  0
  -29.7940  -21.8401   19.6916 H   0  0  0  0  0  0
  1 25  1  0  0  0
  1 30  2  0  0  0
  1 85  1  0  0  0
  2  3  1  0  0  0
  2 25  1  0  0  0
  2 88  1  0  0  0
  2 89  1  0  0  0
  3  4  1  0  0  0
  3 90  1  0  0  0
  3 91  1  0  0  0
  4  5  1  0  0  0
  4 92  1  0  0  0
  4 93  1  0  0  0
  5  6  1  0  0  0
  5 26  1  0  0  0
  5 94  1  0  0  0
  6 25  1  0  0  0
  6 95  1  0  0  0
  6 96  1  0  0  0
  7  8  2  0  0  0
  7 26  1  0  0  0
  7 29  1  0  0  0
  8  9  1  0  0  0
  8 22  1  0  0  0
  9 10  1  0  0  0
  9 27  2  0  0  0
 10 11  2  0  0  0
 10 15  1  0  0  0
 11 12  1  0  0  0
 11 97  1  0  0  0
 12 13  2  0  0  0
 12 98  1  0  0  0
 13 14  1  0  0  0
 13 31  1  0  0  0
 14 15  2  0  0  0
 14 99  1  0  0  0
 15100  1  0  0  0
 16 17  2  0  0  0
 16 21  1  0  0  0
 16 31  1  0  0  0
 17 18  1  0  0  0
 17101  1  0  0  0
 18 19  2  0  0  0
 18102  1  0  0  0
 19 20  1  0  0  0
 19 24  1  0  0  0
 20 21  2  0  0  0
 20103  1  0  0  0
 21 23  1  0  0  0
 22 28  1  0  0  0
 22 32  2  0  0  0
 26 27  1  0  0  0
 28104  1  0  0  0
 28105  1  0  0  0
 29106  1  0  0  0
 29107  1  0  0  0
 33 34  1  0  0  0
 33 66  1  0  0  0
 33 70  2  0  0  0
 34 36  1  0  0  0
 34 59  1  0  0  0
 34108  1  0  0  0
 35 44  2  0  0  0
 35 45  1  0  0  0
 35 68  1  0  0  0
 36 56  1  0  0  0
 36109  1  0  0  0
 37 39  1  0  0  0
 37 47  1  0  0  0
 37 66  1  0  0  0
 37110  1  0  0  0
 38 43  2  0  0  0
 38 46  1  0  0  0
 38 47  1  0  0  0
 39 64  1  0  0  0
 39 67  2  0  0  0
 40 52  1  0  0  0
 40 53  2  0  0  0
 40 58  1  0  0  0
 41111  1  0  0  0
 41112  1  0  0  0
 41113  1  0  0  0
 41 48  1  0  0  0
 42 43  1  0  0  0
 42 66  1  0  0  0
 42114  1  0  0  0
 42115  1  0  0  0
 43 44  1  0  0  0
 44116  1  0  0  0
 45 46  2  0  0  0
 45117  1  0  0  0
 46118  1  0  0  0
 47119  1  0  0  0
 47120  1  0  0  0
 48 56  1  0  0  0
 48 65  1  0  0  0
 48121  1  0  0  0
 49 50  1  0  0  0
 49 53  1  0  0  0
 49 64  1  0  0  0
 49122  1  0  0  0
 50 51  1  0  0  0
 50123  1  0  0  0
 50124  1  0  0  0
 51 52  1  0  0  0
 51125  1  0  0  0
 51126  1  0  0  0
 52127  1  0  0  0
 52128  1  0  0  0
 53 54  1  0  0  0
 54 55  2  0  0  0
 54129  1  0  0  0
 55 57  1  0  0  0
 55130  1  0  0  0
 56 69  2  0  0  0
 57 58  2  0  0  0
 57131  1  0  0  0
 58132  1  0  0  0
 59 60  1  0  0  0
 59 61  1  0  0  0
 59 62  1  0  0  0
 60133  1  0  0  0
 60134  1  0  0  0
 60135  1  0  0  0
 61136  1  0  0  0
 61137  1  0  0  0
 61138  1  0  0  0
 62139  1  0  0  0
 62140  1  0  0  0
 62141  1  0  0  0
 63 65  1  0  0  0
 63142  1  0  0  0
 63143  1  0  0  0
 63144  1  0  0  0
 64145  1  0  0  0
 65146  1  0  0  0
 68 79  1  0  0  0
 71 72  2  0  0  0
 71 74  1  0  0  0
 71147  1  0  0  0
 72 75  1  0  0  0
 72148  1  0  0  0
 73 74  2  0  0  0
 73 76  1  0  0  0
 73149  1  0  0  0
 74 80  1  0  0  0
 75 76  2  0  0  0
 75 85  1  0  0  0
 76 87  1  0  0  0
 77 78  2  0  0  0
 77150  1  0  0  0
 77151  1  0  0  0
 78152  1  0  0  0
 78 83  1  0  0  0
 79 81  2  0  0  0
 79153  1  0  0  0
 80 84  1  0  0  0
 80 86  2  0  0  0
 81 82  1  0  0  0
 81 83  1  0  0  0
 82154  1  0  0  0
 82155  1  0  0  0
 82156  1  0  0  0
 83 86  1  0  0  0
 83157  1  0  0  0
 84158  1  0  0  0
 84159  1  0  0  0
 85160  1  0  0  0
 86161  1  0  0  0
M  CHG  1  86   1
M  ISO  4   1 100  68 101  79 101  85 100
M  END
> <chiral flag>
0

> <version>
0

> <s_m_source_file>
/data/baiqing/PycharmProjects/Reinvent-master-3.2/result/LINK_invent/BTK/process_docking_weight1_custom_product_contain_oxygen_bond_distance_aromatic_linkinvent_7_9_3/rearranged_h_0074.sdf

> <i_m_source_file_index>
66

> <r_mmod_Potential_Energy-OPLS-2005>
-338.127136230469

> <r_mmod_Stretch_Energy-OPLS-2005>
49.8067855834961

> <r_mmod_Bend_Energy-OPLS-2005>
111.706954956055

> <r_mmod_Torsional_Energy-OPLS-2005>
226.014953613281

> <r_mmod_Improper_Torsional_Energy-OPLS-2005>
4.40181589126587

> <r_mmod_Van_der_Waal_Energy-OPLS-2005>
150.146987915039

> <r_mmod_Electrostatic_Energy-OPLS-2005>
-497.680694580078

> <r_mmod_Solvation_Energy-OPLS-2005>
-404.443450927734

> <b_mmod_Minimization_Converged-OPLS-2005>
0

> <r_mmod_RMS_Derivative-OPLS-2005>
1.92082631587982

$$$$
68
                    3D
 Structure written by MMmdl.
162171  0  0  1  0            999 V2000
  -30.6691  -14.6583   20.5904 C   0  0  0  0  0  0
  -30.4335  -12.4320   19.4623 C   0  0  0  0  0  0
  -29.5084  -12.5310   18.2290 C   0  0  0  0  0  0
  -28.0328  -12.3517   18.6327 C   0  0  0  0  0  0
  -27.6494  -13.2223   19.8562 C   0  0  2  0  0  0
  -28.6845  -13.0794   20.9880 C   0  0  0  0  0  0
  -25.2536  -13.8176   20.5668 C   0  0  0  0  0  0
  -24.1811  -13.0434   20.9170 C   0  0  0  0  0  0
  -24.6391  -11.6910   20.8712 C   0  0  0  0  0  0
  -23.9064  -10.4294   21.0390 C   0  0  0  0  0  0
  -24.3617   -9.4215   21.9173 C   0  0  0  0  0  0
  -23.6294   -8.2250   22.0753 C   0  0  0  0  0  0
  -22.4276   -8.0282   21.3544 C   0  0  0  0  0  0
  -21.9908   -9.0250   20.4642 C   0  0  0  0  0  0
  -22.7233  -10.2130   20.3046 C   0  0  0  0  0  0
  -21.6853   -6.0738   22.5283 C   0  0  0  0  0  0
  -21.4015   -6.5643   23.8216 C   0  0  0  0  0  0
  -21.3658   -5.6793   24.9177 C   0  0  0  0  0  0
  -21.6043   -4.3056   24.7228 C   0  0  0  0  0  0
  -21.8818   -3.8148   23.4348 C   0  0  0  0  0  0
  -21.9192   -4.6966   22.3405 C   0  0  0  0  0  0
  -22.7837  -13.5224   21.1848 C   0  0  0  0  0  0
  -22.1659   -4.2153   21.0981 F   0  0  0  0  0  0
  -21.5629   -3.4539   25.7739 F   0  0  0  0  0  0
  -30.0070  -13.4524   20.4508 N   0  0  0  0  0  0
  -26.2960  -12.9369   20.3255 N   0  0  0  0  0  0
  -25.9316  -11.6517   20.5703 N   0  0  0  0  0  0
  -22.0488  -12.8215   22.0408 N   0  0  0  0  0  0
  -25.4240  -15.1900   20.4125 N   0  0  0  0  0  0
  -31.7638  -14.8252   20.0427 O   0  0  0  0  0  0
  -21.6638   -6.8880   21.4245 O   0  0  0  0  0  0
  -22.3517  -14.5532   20.6703 O   0  0  0  0  0  0
  -24.6304  -31.8583   23.2034 C   0  0  0  0  0  0
  -25.9141  -32.4769   23.8364 C   0  0  1  0  0  0
  -27.2146  -27.2854   20.1129 C   0  0  0  0  0  0
  -25.5950  -33.8570   24.2289 N   0  0  0  0  0  0
  -23.4247  -30.4860   21.5459 C   0  0  2  0  0  0
  -24.8706  -28.9459   20.1074 C   0  0  0  0  0  0
  -22.7496  -29.4623   22.4907 C   0  0  0  0  0  0
  -18.0294  -28.1388   22.8478 C   0  0  0  0  0  0
  -24.1492  -36.7282   23.2636 C   0  0  0  0  0  0
  -25.9717  -30.7778   21.3829 C   0  0  0  0  0  0
  -26.0435  -29.4052   20.7201 C   0  0  0  0  0  0
  -27.2177  -28.5862   20.7170 C   0  0  0  0  0  0
  -26.0177  -26.9054   19.4557 C   0  0  0  0  0  0
  -24.8618  -27.7023   19.4662 C   0  0  0  0  0  0
  -23.6418  -29.8295   20.1591 C   0  0  0  0  0  0
  -25.4116  -36.3070   24.0327 C   0  0  1  0  0  0
  -20.5897  -28.3699   23.1258 C   0  0  2  0  0  0
  -20.6780  -26.9416   22.5397 C   0  0  0  0  0  0
  -19.5755  -26.6383   21.5199 C   0  0  0  0  0  0
  -18.1935  -26.7930   22.1612 C   0  0  0  0  0  0
  -19.1548  -28.8858   23.2866 C   0  0  0  0  0  0
  -18.9472  -30.1455   23.8891 C   0  0  0  0  0  0
  -17.6473  -30.6588   24.0560 C   0  0  0  0  0  0
  -25.9057  -34.9441   23.5105 C   0  0  0  0  0  0
  -16.5364  -29.9085   23.6330 C   0  0  0  0  0  0
  -16.7282  -28.6503   23.0351 C   0  0  0  0  0  0
  -26.4519  -31.6582   25.0741 C   0  0  0  0  0  0
  -25.3745  -31.3716   26.1458 C   0  0  0  0  0  0
  -27.0374  -30.3005   24.6216 C   0  0  0  0  0  0
  -27.6081  -32.4315   25.7512 C   0  0  0  0  0  0
  -27.5577  -37.1798   24.8467 C   0  0  0  0  0  0
  -21.4205  -29.3055   22.3651 N   0  0  0  0  0  0
  -26.4292  -37.3766   23.9409 N   0  0  0  0  0  0
  -24.6944  -31.0577   22.1002 N   0  0  0  0  0  0
  -23.4206  -28.8140   23.2979 O   0  0  0  0  0  0
  -28.2976  -26.3768   20.1872 O   0  0  0  0  0  0
  -26.5614  -34.8908   22.4664 O   0  0  0  0  0  0
  -23.5462  -32.1398   23.7343 O   0  0  0  0  0  0
  -30.8670  -19.4523   21.3569 C   0  0  0  0  0  0
  -31.0034  -18.0382   21.4899 C   0  0  0  0  0  0
  -29.0040  -17.7288   20.2147 C   0  0  0  0  0  0
  -29.7820  -20.0800   20.6751 C   0  0  0  0  0  0
  -30.0640  -17.1208   20.9467 C   0  0  0  0  0  0
  -28.8638  -19.1535   20.0813 C   0  0  0  0  0  0
  -28.7317  -22.4152   20.0469 C   0  0  0  0  0  0
  -28.9063  -23.7368   20.3362 C   0  0  0  0  0  0
  -29.3904  -16.2683   23.6126 C   0  0  0  0  0  0
  -29.9310  -15.4315   22.7057 C   0  0  0  0  0  0
  -30.5755  -22.3827   21.4125 C   0  0  0  0  0  0
  -30.0822  -23.8664   21.2703 C   0  0  1  0  0  0
  -32.0406  -25.1320   21.6799 C   0  0  0  0  0  0
  -27.9906  -24.9424   19.8924 C   0  0  0  0  0  0
  -29.6588  -21.5326   20.6352 N   0  0  0  0  0  0
  -30.0908  -15.6861   21.3246 N   0  0  0  0  0  0
  -31.0867  -24.7068   20.7161 O   0  0  0  0  0  0
  -27.7951  -19.6200   19.3902 F   0  0  0  0  0  0
  -31.4741  -12.5559   19.1581 H   0  0  0  0  0  0
  -30.3777  -11.4361   19.9046 H   0  0  0  0  0  0
  -29.7873  -11.7821   17.4864 H   0  0  0  0  0  0
  -29.6407  -13.5020   17.7491 H   0  0  0  0  0  0
  -27.8776  -11.2973   18.8653 H   0  0  0  0  0  0
  -27.3793  -12.5757   17.7887 H   0  0  0  0  0  0
  -27.6690  -14.2599   19.5211 H   0  0  0  0  0  0
  -28.7074  -12.0541   21.3598 H   0  0  0  0  0  0
  -28.3668  -13.6845   21.8329 H   0  0  0  0  0  0
  -25.2764   -9.5698   22.4741 H   0  0  0  0  0  0
  -24.0005   -7.4647   22.7478 H   0  0  0  0  0  0
  -21.0838   -8.8763   19.8950 H   0  0  0  0  0  0
  -22.3688  -10.9663   19.6151 H   0  0  0  0  0  0
  -21.2008   -7.6150   23.9725 H   0  0  0  0  0  0
  -21.1479   -6.0520   25.9079 H   0  0  0  0  0  0
  -22.0596   -2.7612   23.2850 H   0  0  0  0  0  0
  -22.4106  -11.9877   22.4794 H   0  0  0  0  0  0
  -21.1108  -13.1241   22.2622 H   0  0  0  0  0  0
  -24.6623  -15.8477   20.5369 H   0  0  0  0  0  0
  -26.2871  -15.6317   20.1246 H   0  0  0  0  0  0
  -26.7200  -32.5438   23.1103 H   0  0  0  0  0  0
  -25.0118  -33.9721   25.0448 H   0  0  0  0  0  0
  -22.7200  -31.3082   21.4044 H   0  0  0  0  0  0
  -23.3757  -35.9610   23.3294 H   0  0  0  0  0  0
  -24.3584  -36.8912   22.2053 H   0  0  0  0  0  0
  -23.7245  -37.6478   23.6671 H   0  0  0  0  0  0
  -26.1116  -31.5422   20.6174 H   0  0  0  0  0  0
  -26.8487  -30.8220   22.0169 H   0  0  0  0  0  0
  -28.1117  -28.9295   21.2184 H   0  0  0  0  0  0
  -25.9255  -25.9657   18.9335 H   0  0  0  0  0  0
  -23.9658  -27.3497   18.9743 H   0  0  0  0  0  0
  -23.7668  -30.6104   19.4080 H   0  0  0  0  0  0
  -22.7607  -29.2645   19.8502 H   0  0  0  0  0  0
  -25.1293  -36.1917   25.0817 H   0  0  0  0  0  0
  -20.9992  -28.3277   24.1378 H   0  0  0  0  0  0
  -20.5669  -26.2307   23.3600 H   0  0  0  0  0  0
  -21.6650  -26.7434   22.1198 H   0  0  0  0  0  0
  -19.6915  -25.6289   21.1236 H   0  0  0  0  0  0
  -19.6696  -27.3184   20.6721 H   0  0  0  0  0  0
  -17.4202  -26.6680   21.4018 H   0  0  0  0  0  0
  -18.0341  -26.0072   22.9009 H   0  0  0  0  0  0
  -19.7949  -30.7270   24.2266 H   0  0  0  0  0  0
  -17.5030  -31.6270   24.5157 H   0  0  0  0  0  0
  -15.5365  -30.2989   23.7662 H   0  0  0  0  0  0
  -15.8679  -28.0824   22.7072 H   0  0  0  0  0  0
  -24.5958  -30.7015   25.7795 H   0  0  0  0  0  0
  -24.8888  -32.2870   26.4845 H   0  0  0  0  0  0
  -25.8068  -30.8941   27.0260 H   0  0  0  0  0  0
  -26.2959  -29.6740   24.1245 H   0  0  0  0  0  0
  -27.4072  -29.7276   25.4732 H   0  0  0  0  0  0
  -27.8829  -30.4289   23.9454 H   0  0  0  0  0  0
  -27.2714  -33.3648   26.2035 H   0  0  0  0  0  0
  -28.3924  -32.6808   25.0353 H   0  0  0  0  0  0
  -28.0706  -31.8461   26.5472 H   0  0  0  0  0  0
  -28.2587  -38.0100   24.7509 H   0  0  0  0  0  0
  -28.1077  -36.2628   24.6301 H   0  0  0  0  0  0
  -27.2291  -37.1456   25.8869 H   0  0  0  0  0  0
  -20.9378  -29.8810   21.6892 H   0  0  0  0  0  0
  -26.0167  -38.2837   24.1413 H   0  0  0  0  0  0
  -31.6239  -20.0557   21.8331 H   0  0  0  0  0  0
  -31.8276  -17.6573   22.0767 H   0  0  0  0  0  0
  -28.2367  -17.1022   19.7865 H   0  0  0  0  0  0
  -27.9489  -21.9946   19.4308 H   0  0  0  0  0  0
  -29.3184  -15.9749   24.6503 H   0  0  0  0  0  0
  -29.0089  -17.2459   23.3555 H   0  0  0  0  0  0
  -30.2902  -14.4596   23.0254 H   0  0  0  0  0  0
  -30.5822  -22.0853   22.4622 H   0  0  0  0  0  0
  -31.5900  -22.2733   21.0273 H   0  0  0  0  0  0
  -29.7136  -24.2561   22.2214 H   0  0  0  0  0  0
  -32.7871  -25.7677   21.2038 H   0  0  0  0  0  0
  -32.5606  -24.2866   22.1320 H   0  0  0  0  0  0
  -31.5686  -25.7130   22.4736 H   0  0  0  0  0  0
  -27.0370  -24.6987   20.3630 H   0  0  0  0  0  0
  -27.8461  -24.8383   18.8165 H   0  0  0  0  0  0
  1 25  1  0  0  0
  1 30  2  0  0  0
  1 86  1  0  0  0
  2  3  1  0  0  0
  2 25  1  0  0  0
  2 89  1  0  0  0
  2 90  1  0  0  0
  3  4  1  0  0  0
  3 91  1  0  0  0
  3 92  1  0  0  0
  4  5  1  0  0  0
  4 93  1  0  0  0
  4 94  1  0  0  0
  5  6  1  0  0  0
  5 26  1  0  0  0
  5 95  1  0  0  0
  6 25  1  0  0  0
  6 96  1  0  0  0
  6 97  1  0  0  0
  7  8  2  0  0  0
  7 26  1  0  0  0
  7 29  1  0  0  0
  8  9  1  0  0  0
  8 22  1  0  0  0
  9 10  1  0  0  0
  9 27  2  0  0  0
 10 11  2  0  0  0
 10 15  1  0  0  0
 11 12  1  0  0  0
 11 98  1  0  0  0
 12 13  2  0  0  0
 12 99  1  0  0  0
 13 14  1  0  0  0
 13 31  1  0  0  0
 14 15  2  0  0  0
 14100  1  0  0  0
 15101  1  0  0  0
 16 17  2  0  0  0
 16 21  1  0  0  0
 16 31  1  0  0  0
 17 18  1  0  0  0
 17102  1  0  0  0
 18 19  2  0  0  0
 18103  1  0  0  0
 19 20  1  0  0  0
 19 24  1  0  0  0
 20 21  2  0  0  0
 20104  1  0  0  0
 21 23  1  0  0  0
 22 28  1  0  0  0
 22 32  2  0  0  0
 26 27  1  0  0  0
 28105  1  0  0  0
 28106  1  0  0  0
 29107  1  0  0  0
 29108  1  0  0  0
 33 34  1  0  0  0
 33 66  1  0  0  0
 33 70  2  0  0  0
 34 36  1  0  0  0
 34 59  1  0  0  0
 34109  1  0  0  0
 35 44  2  0  0  0
 35 45  1  0  0  0
 35 68  1  0  0  0
 36 56  1  0  0  0
 36110  1  0  0  0
 37 39  1  0  0  0
 37 47  1  0  0  0
 37 66  1  0  0  0
 37111  1  0  0  0
 38 43  2  0  0  0
 38 46  1  0  0  0
 38 47  1  0  0  0
 39 64  1  0  0  0
 39 67  2  0  0  0
 40 52  1  0  0  0
 40 53  2  0  0  0
 40 58  1  0  0  0
 41112  1  0  0  0
 41113  1  0  0  0
 41114  1  0  0  0
 41 48  1  0  0  0
 42 43  1  0  0  0
 42 66  1  0  0  0
 42115  1  0  0  0
 42116  1  0  0  0
 43 44  1  0  0  0
 44117  1  0  0  0
 45 46  2  0  0  0
 45118  1  0  0  0
 46119  1  0  0  0
 47120  1  0  0  0
 47121  1  0  0  0
 48 56  1  0  0  0
 48 65  1  0  0  0
 48122  1  0  0  0
 49 50  1  0  0  0
 49 53  1  0  0  0
 49 64  1  0  0  0
 49123  1  0  0  0
 50 51  1  0  0  0
 50124  1  0  0  0
 50125  1  0  0  0
 51 52  1  0  0  0
 51126  1  0  0  0
 51127  1  0  0  0
 52128  1  0  0  0
 52129  1  0  0  0
 53 54  1  0  0  0
 54 55  2  0  0  0
 54130  1  0  0  0
 55 57  1  0  0  0
 55131  1  0  0  0
 56 69  2  0  0  0
 57 58  2  0  0  0
 57132  1  0  0  0
 58133  1  0  0  0
 59 60  1  0  0  0
 59 61  1  0  0  0
 59 62  1  0  0  0
 60134  1  0  0  0
 60135  1  0  0  0
 60136  1  0  0  0
 61137  1  0  0  0
 61138  1  0  0  0
 61139  1  0  0  0
 62140  1  0  0  0
 62141  1  0  0  0
 62142  1  0  0  0
 63 65  1  0  0  0
 63143  1  0  0  0
 63144  1  0  0  0
 63145  1  0  0  0
 64146  1  0  0  0
 65147  1  0  0  0
 68 84  1  0  0  0
 71 72  2  0  0  0
 71 74  1  0  0  0
 71148  1  0  0  0
 72 75  1  0  0  0
 72149  1  0  0  0
 73 75  2  0  0  0
 73 76  1  0  0  0
 73150  1  0  0  0
 74 76  2  0  0  0
 74 85  1  0  0  0
 75 86  1  0  0  0
 76 88  1  0  0  0
 77 78  2  0  0  0
 77 85  1  0  0  0
 77151  1  0  0  0
 78 82  1  0  0  0
 78 84  1  0  0  0
 79 80  2  0  0  0
 79152  1  0  0  0
 79153  1  0  0  0
 80 86  1  0  0  0
 80154  1  0  0  0
 81 82  1  0  0  0
 81 85  1  0  0  0
 81155  1  0  0  0
 81156  1  0  0  0
 82 87  1  0  0  0
 82157  1  0  0  0
 83 87  1  0  0  0
 83158  1  0  0  0
 83159  1  0  0  0
 83160  1  0  0  0
 84161  1  0  0  0
 84162  1  0  0  0
M  ISO  4   1 100  68 101  84 101  86 100
M  END
> <chiral flag>
0

> <version>
0

> <s_m_source_file>
/data/baiqing/PycharmProjects/Reinvent-master-3.2/result/LINK_invent/BTK/process_docking_weight1_custom_product_contain_oxygen_bond_distance_aromatic_linkinvent_7_9_3/rearranged_h_0074.sdf

> <i_m_source_file_index>
67

> <r_mmod_Potential_Energy-OPLS-2005>
420.527618408203

> <r_mmod_Stretch_Energy-OPLS-2005>
101.451477050781

> <r_mmod_Bend_Energy-OPLS-2005>
224.073501586914

> <r_mmod_Torsional_Energy-OPLS-2005>
308.599517822266

> <r_mmod_Improper_Torsional_Energy-OPLS-2005>
4.32201766967773

> <r_mmod_Van_der_Waal_Energy-OPLS-2005>
158.174575805664

> <r_mmod_Electrostatic_Energy-OPLS-2005>
-227.284698486328

> <r_mmod_Solvation_Energy-OPLS-2005>
-210.284713745117

> <b_mmod_Minimization_Converged-OPLS-2005>
0

> <r_mmod_RMS_Derivative-OPLS-2005>
0.607079088687897

$$$$
69
                    3D
 Structure written by MMmdl.
158166  0  0  1  0            999 V2000
  -30.6753  -14.6896   20.4728 C   0  0  0  0  0  0
  -30.4650  -12.4316   19.4661 C   0  0  0  0  0  0
  -29.5381  -12.4990   18.2308 C   0  0  0  0  0  0
  -28.0707  -12.3056   18.6617 C   0  0  0  0  0  0
  -27.6629  -13.2210   19.8477 C   0  0  2  0  0  0
  -28.7118  -13.1483   20.9833 C   0  0  0  0  0  0
  -25.2630  -13.8172   20.5673 C   0  0  0  0  0  0
  -24.1872  -13.0444   20.9116 C   0  0  0  0  0  0
  -24.6438  -11.6919   20.8629 C   0  0  0  0  0  0
  -23.9083  -10.4289   21.0325 C   0  0  0  0  0  0
  -24.3625   -9.4196   21.9127 C   0  0  0  0  0  0
  -23.6257   -8.2258   22.0744 C   0  0  0  0  0  0
  -22.4211   -8.0306   21.3567 C   0  0  0  0  0  0
  -21.9859   -9.0283   20.4665 C   0  0  0  0  0  0
  -22.7216  -10.2139   20.3020 C   0  0  0  0  0  0
  -21.6869   -6.0720   22.5283 C   0  0  0  0  0  0
  -21.4048   -6.5617   23.8213 C   0  0  0  0  0  0
  -21.3659   -5.6765   24.9162 C   0  0  0  0  0  0
  -21.6028   -4.3020   24.7234 C   0  0  0  0  0  0
  -21.8830   -3.8117   23.4352 C   0  0  0  0  0  0
  -21.9218   -4.6946   22.3405 C   0  0  0  0  0  0
  -22.7888  -13.5259   21.1748 C   0  0  0  0  0  0
  -22.1660   -4.2122   21.0973 F   0  0  0  0  0  0
  -21.5615   -3.4511   25.7758 F   0  0  0  0  0  0
  -30.0365  -13.4736   20.4214 N   0  0  0  0  0  0
  -26.3046  -12.9379   20.3200 N   0  0  0  0  0  0
  -25.9364  -11.6504   20.5616 N   0  0  0  0  0  0
  -22.0505  -12.8339   22.0347 N   0  0  0  0  0  0
  -25.4318  -15.1895   20.4233 N   0  0  0  0  0  0
  -31.8357  -14.8080   20.0752 O   0  0  0  0  0  0
  -21.6624   -6.8856   21.4245 O   0  0  0  0  0  0
  -22.3567  -14.5540   20.6542 O   0  0  0  0  0  0
  -24.6241  -31.8544   23.1997 C   0  0  0  0  0  0
  -25.9078  -32.4770   23.8319 C   0  0  1  0  0  0
  -27.2210  -27.2889   20.1246 C   0  0  0  0  0  0
  -25.5916  -33.8567   24.2297 N   0  0  0  0  0  0
  -23.4149  -30.4742   21.5417 C   0  0  2  0  0  0
  -24.8631  -28.9235   20.0963 C   0  0  0  0  0  0
  -22.7453  -29.4572   22.4939 C   0  0  0  0  0  0
  -18.0293  -28.1396   22.8452 C   0  0  0  0  0  0
  -24.1479  -36.7268   23.2656 C   0  0  0  0  0  0
  -25.9531  -30.7767   21.3652 C   0  0  0  0  0  0
  -26.0234  -29.3975   20.7198 C   0  0  0  0  0  0
  -27.1984  -28.5879   20.7284 C   0  0  0  0  0  0
  -26.0427  -26.8702   19.4712 C   0  0  0  0  0  0
  -24.8796  -27.6712   19.4568 C   0  0  0  0  0  0
  -23.6261  -29.8025   20.1551 C   0  0  0  0  0  0
  -25.4096  -36.3089   24.0367 C   0  0  1  0  0  0
  -20.5882  -28.3685   23.1324 C   0  0  2  0  0  0
  -20.6785  -26.9398   22.5457 C   0  0  0  0  0  0
  -19.5804  -26.6396   21.5207 C   0  0  0  0  0  0
  -18.1944  -26.7962   22.1555 C   0  0  0  0  0  0
  -19.1531  -28.8859   23.2895 C   0  0  0  0  0  0
  -18.9470  -30.1453   23.8906 C   0  0  0  0  0  0
  -17.6468  -30.6585   24.0570 C   0  0  0  0  0  0
  -25.9036  -34.9449   23.5138 C   0  0  0  0  0  0
  -16.5366  -29.9069   23.6331 C   0  0  0  0  0  0
  -16.7274  -28.6506   23.0325 C   0  0  0  0  0  0
  -26.4538  -31.6567   25.0645 C   0  0  0  0  0  0
  -25.3888  -31.3606   26.1474 C   0  0  0  0  0  0
  -27.0382  -30.3043   24.5971 C   0  0  0  0  0  0
  -27.6175  -32.4288   25.7298 C   0  0  0  0  0  0
  -27.5608  -37.1757   24.8463 C   0  0  0  0  0  0
  -21.4183  -29.3010   22.3703 N   0  0  0  0  0  0
  -26.4286  -37.3778   23.9463 N   0  0  0  0  0  0
  -24.6837  -31.0549   22.0927 N   0  0  0  0  0  0
  -23.4193  -28.8152   23.3036 O   0  0  0  0  0  0
  -28.3475  -26.4592   20.2493 O   0  0  0  0  0  0
  -26.5619  -34.8924   22.4714 O   0  0  0  0  0  0
  -23.5418  -32.1353   23.7352 O   0  0  0  0  0  0
  -29.2253  -19.5305   21.1596 C   0  0  0  0  0  0
  -29.3738  -18.1410   21.4592 C   0  0  0  0  0  0
  -30.4206  -19.1907   19.1169 C   0  0  0  0  0  0
  -29.6917  -20.1014   19.9496 C   0  0  0  0  0  0
  -30.0113  -17.2104   20.5888 C   0  0  0  0  0  0
  -30.5673  -17.7968   19.4098 C   0  0  0  0  0  0
  -29.3282  -21.5229   19.5036 C   0  0  0  0  0  0
  -26.7902  -23.8418   21.0032 C   0  0  0  0  0  0
  -25.4069  -23.2690   20.6773 C   0  0  0  0  0  0
  -28.5669  -25.1454   19.5850 C   0  0  0  0  0  0
  -27.8639  -23.7249   19.9139 C   0  0  1  0  0  0
  -29.5790  -21.8626   18.2374 N   0  0  0  0  0  0
  -29.9491  -15.7745   20.9071 N   0  0  0  0  0  0
  -28.7053  -22.4883   20.2701 N   0  3  0  0  0  0
  -27.0334  -24.2610   22.1339 O   0  0  0  0  0  0
  -31.1846  -17.0122   18.4933 F   0  0  0  0  0  0
  -31.5041  -12.5529   19.1542 H   0  0  0  0  0  0
  -30.4192  -11.4488   19.9392 H   0  0  0  0  0  0
  -29.8136  -11.7285   17.5095 H   0  0  0  0  0  0
  -29.6650  -13.4547   17.7196 H   0  0  0  0  0  0
  -27.9649  -11.2624   18.9616 H   0  0  0  0  0  0
  -27.4045  -12.4482   17.8109 H   0  0  0  0  0  0
  -27.6668  -14.2379   19.4588 H   0  0  0  0  0  0
  -28.7312  -12.1474   21.4209 H   0  0  0  0  0  0
  -28.4478  -13.8226   21.7972 H   0  0  0  0  0  0
  -25.2817   -9.5656   22.4635 H   0  0  0  0  0  0
  -24.0006   -7.4643   22.7433 H   0  0  0  0  0  0
  -21.0774   -8.8801   19.8974 H   0  0  0  0  0  0
  -22.3687  -10.9666   19.6085 H   0  0  0  0  0  0
  -21.2059   -7.6125   23.9710 H   0  0  0  0  0  0
  -21.1436   -6.0473   25.9051 H   0  0  0  0  0  0
  -22.0605   -2.7586   23.2853 H   0  0  0  0  0  0
  -22.4085  -12.0151   22.5011 H   0  0  0  0  0  0
  -21.1076  -13.1383   22.2389 H   0  0  0  0  0  0
  -24.6638  -15.8349   20.5675 H   0  0  0  0  0  0
  -26.2862  -15.6553   20.1471 H   0  0  0  0  0  0
  -26.7110  -32.5433   23.1028 H   0  0  0  0  0  0
  -25.0087  -33.9660   25.0463 H   0  0  0  0  0  0
  -22.7050  -31.2961   21.4049 H   0  0  0  0  0  0
  -23.3778  -35.9563   23.3284 H   0  0  0  0  0  0
  -24.3600  -36.8910   22.2082 H   0  0  0  0  0  0
  -23.7170  -37.6435   23.6682 H   0  0  0  0  0  0
  -26.0691  -31.5241   20.5797 H   0  0  0  0  0  0
  -26.8405  -30.8465   21.9798 H   0  0  0  0  0  0
  -28.0826  -28.9418   21.2385 H   0  0  0  0  0  0
  -25.9983  -25.9017   18.9967 H   0  0  0  0  0  0
  -23.9932  -27.3114   18.9533 H   0  0  0  0  0  0
  -23.7272  -30.5770   19.3948 H   0  0  0  0  0  0
  -22.7445  -29.2284   19.8651 H   0  0  0  0  0  0
  -25.1256  -36.1939   25.0862 H   0  0  0  0  0  0
  -20.9942  -28.3287   24.1474 H   0  0  0  0  0  0
  -20.5656  -26.2278   23.3660 H   0  0  0  0  0  0
  -21.6683  -26.7445   22.1306 H   0  0  0  0  0  0
  -19.6971  -25.6308   21.1240 H   0  0  0  0  0  0
  -19.6785  -27.3223   20.6752 H   0  0  0  0  0  0
  -17.4255  -26.6786   21.3891 H   0  0  0  0  0  0
  -18.0268  -26.0061   22.8908 H   0  0  0  0  0  0
  -19.7932  -30.7272   24.2274 H   0  0  0  0  0  0
  -17.5009  -31.6245   24.5213 H   0  0  0  0  0  0
  -15.5350  -30.2975   23.7636 H   0  0  0  0  0  0
  -15.8698  -28.0817   22.7024 H   0  0  0  0  0  0
  -24.5985  -30.7041   25.7825 H   0  0  0  0  0  0
  -24.9185  -32.2726   26.5145 H   0  0  0  0  0  0
  -25.8330  -30.8602   27.0087 H   0  0  0  0  0  0
  -26.2866  -29.6702   24.1266 H   0  0  0  0  0  0
  -27.4506  -29.7364   25.4312 H   0  0  0  0  0  0
  -27.8536  -30.4437   23.8881 H   0  0  0  0  0  0
  -27.2860  -33.3544   26.1994 H   0  0  0  0  0  0
  -28.3817  -32.6923   24.9977 H   0  0  0  0  0  0
  -28.1048  -31.8369   26.5044 H   0  0  0  0  0  0
  -28.2619  -38.0070   24.7600 H   0  0  0  0  0  0
  -28.1117  -36.2634   24.6132 H   0  0  0  0  0  0
  -27.2396  -37.1241   25.8882 H   0  0  0  0  0  0
  -20.9377  -29.8603   21.6803 H   0  0  0  0  0  0
  -26.0182  -38.2844   24.1528 H   0  0  0  0  0  0
  -28.6866  -20.1466   21.8587 H   0  0  0  0  0  0
  -28.9395  -17.7806   22.3797 H   0  0  0  0  0  0
  -30.8337  -19.5303   18.1772 H   0  0  0  0  0  0
  -25.5002  -22.4159   20.0011 H   0  0  0  0  0  0
  -24.7651  -24.0126   20.1987 H   0  0  0  0  0  0
  -24.9132  -22.9159   21.5820 H   0  0  0  0  0  0
  -28.4260  -25.3328   18.5227 H   0  0  0  0  0  0
  -29.6388  -24.9812   19.6827 H   0  0  0  0  0  0
  -27.3440  -23.4430   18.9975 H   0  0  0  0  0  0
  -30.1279  -21.2438   17.6613 H   0  0  0  0  0  0
  -29.2685  -22.7319   17.8389 H   0  0  0  0  0  0
  -29.1379  -15.5125   21.4470 H   0  0  0  0  0  0
  -28.6219  -22.2549   21.2525 H   0  0  0  0  0  0
  1 25  1  0  0  0
  1 30  2  0  0  0
  1 83  1  0  0  0
  2  3  1  0  0  0
  2 25  1  0  0  0
  2 87  1  0  0  0
  2 88  1  0  0  0
  3  4  1  0  0  0
  3 89  1  0  0  0
  3 90  1  0  0  0
  4  5  1  0  0  0
  4 91  1  0  0  0
  4 92  1  0  0  0
  5  6  1  0  0  0
  5 26  1  0  0  0
  5 93  1  0  0  0
  6 25  1  0  0  0
  6 94  1  0  0  0
  6 95  1  0  0  0
  7  8  2  0  0  0
  7 26  1  0  0  0
  7 29  1  0  0  0
  8  9  1  0  0  0
  8 22  1  0  0  0
  9 10  1  0  0  0
  9 27  2  0  0  0
 10 11  2  0  0  0
 10 15  1  0  0  0
 11 12  1  0  0  0
 11 96  1  0  0  0
 12 13  2  0  0  0
 12 97  1  0  0  0
 13 14  1  0  0  0
 13 31  1  0  0  0
 14 15  2  0  0  0
 14 98  1  0  0  0
 15 99  1  0  0  0
 16 17  2  0  0  0
 16 21  1  0  0  0
 16 31  1  0  0  0
 17 18  1  0  0  0
 17100  1  0  0  0
 18 19  2  0  0  0
 18101  1  0  0  0
 19 20  1  0  0  0
 19 24  1  0  0  0
 20 21  2  0  0  0
 20102  1  0  0  0
 21 23  1  0  0  0
 22 28  1  0  0  0
 22 32  2  0  0  0
 26 27  1  0  0  0
 28103  1  0  0  0
 28104  1  0  0  0
 29105  1  0  0  0
 29106  1  0  0  0
 33 34  1  0  0  0
 33 66  1  0  0  0
 33 70  2  0  0  0
 34 36  1  0  0  0
 34 59  1  0  0  0
 34107  1  0  0  0
 35 44  2  0  0  0
 35 45  1  0  0  0
 35 68  1  0  0  0
 36 56  1  0  0  0
 36108  1  0  0  0
 37 39  1  0  0  0
 37 47  1  0  0  0
 37 66  1  0  0  0
 37109  1  0  0  0
 38 43  2  0  0  0
 38 46  1  0  0  0
 38 47  1  0  0  0
 39 64  1  0  0  0
 39 67  2  0  0  0
 40 52  1  0  0  0
 40 53  2  0  0  0
 40 58  1  0  0  0
 41110  1  0  0  0
 41111  1  0  0  0
 41112  1  0  0  0
 41 48  1  0  0  0
 42 43  1  0  0  0
 42 66  1  0  0  0
 42113  1  0  0  0
 42114  1  0  0  0
 43 44  1  0  0  0
 44115  1  0  0  0
 45 46  2  0  0  0
 45116  1  0  0  0
 46117  1  0  0  0
 47118  1  0  0  0
 47119  1  0  0  0
 48 56  1  0  0  0
 48 65  1  0  0  0
 48120  1  0  0  0
 49 50  1  0  0  0
 49 53  1  0  0  0
 49 64  1  0  0  0
 49121  1  0  0  0
 50 51  1  0  0  0
 50122  1  0  0  0
 50123  1  0  0  0
 51 52  1  0  0  0
 51124  1  0  0  0
 51125  1  0  0  0
 52126  1  0  0  0
 52127  1  0  0  0
 53 54  1  0  0  0
 54 55  2  0  0  0
 54128  1  0  0  0
 55 57  1  0  0  0
 55129  1  0  0  0
 56 69  2  0  0  0
 57 58  2  0  0  0
 57130  1  0  0  0
 58131  1  0  0  0
 59 60  1  0  0  0
 59 61  1  0  0  0
 59 62  1  0  0  0
 60132  1  0  0  0
 60133  1  0  0  0
 60134  1  0  0  0
 61135  1  0  0  0
 61136  1  0  0  0
 61137  1  0  0  0
 62138  1  0  0  0
 62139  1  0  0  0
 62140  1  0  0  0
 63 65  1  0  0  0
 63141  1  0  0  0
 63142  1  0  0  0
 63143  1  0  0  0
 64144  1  0  0  0
 65145  1  0  0  0
 68 80  1  0  0  0
 71 72  2  0  0  0
 71 74  1  0  0  0
 71146  1  0  0  0
 72 75  1  0  0  0
 72147  1  0  0  0
 73 74  2  0  0  0
 73 76  1  0  0  0
 73148  1  0  0  0
 74 77  1  0  0  0
 75 76  2  0  0  0
 75 83  1  0  0  0
 76 86  1  0  0  0
 77 82  1  0  0  0
 77 84  2  0  0  0
 78 79  1  0  0  0
 78 81  1  0  0  0
 78 85  2  0  0  0
 79149  1  0  0  0
 79150  1  0  0  0
 79151  1  0  0  0
 80152  1  0  0  0
 80153  1  0  0  0
 80 81  1  0  0  0
 81 84  1  0  0  0
 81154  1  0  0  0
 82155  1  0  0  0
 82156  1  0  0  0
 83157  1  0  0  0
 84158  1  0  0  0
M  CHG  1  84   1
M  ISO  4   1 100  68 101  80 101  83 100
M  END
> <chiral flag>
0

> <version>
0

> <s_m_source_file>
/data/baiqing/PycharmProjects/Reinvent-master-3.2/result/LINK_invent/BTK/process_docking_weight1_custom_product_contain_oxygen_bond_distance_aromatic_linkinvent_7_9_3/rearranged_h_0074.sdf

> <i_m_source_file_index>
68

> <r_mmod_Potential_Energy-OPLS-2005>
-250.430130004883

> <r_mmod_Stretch_Energy-OPLS-2005>
98.4829635620117

> <r_mmod_Bend_Energy-OPLS-2005>
194.693298339844

> <r_mmod_Torsional_Energy-OPLS-2005>
238.776733398438

> <r_mmod_Improper_Torsional_Energy-OPLS-2005>
5.25123453140259

> <r_mmod_Van_der_Waal_Energy-OPLS-2005>
128.695861816406

> <r_mmod_Electrostatic_Energy-OPLS-2005>
-491.9501953125

> <r_mmod_Solvation_Energy-OPLS-2005>
-491.944030761719

> <b_mmod_Minimization_Converged-OPLS-2005>
0

> <r_mmod_RMS_Derivative-OPLS-2005>
8.21309089660645

$$$$
70
                    3D
 Structure written by MMmdl.
160169  0  0  1  0            999 V2000
  -30.6340  -14.7188   20.3520 C   0  0  0  0  0  0
  -30.4374  -12.4176   19.4479 C   0  0  0  0  0  0
  -29.4956  -12.3950   18.2226 C   0  0  0  0  0  0
  -28.0228  -12.2727   18.6561 C   0  0  0  0  0  0
  -27.6379  -13.2199   19.8260 C   0  0  2  0  0  0
  -28.6958  -13.1944   20.9487 C   0  0  0  0  0  0
  -25.2551  -13.8181   20.5710 C   0  0  0  0  0  0
  -24.1822  -13.0452   20.9226 C   0  0  0  0  0  0
  -24.6389  -11.6924   20.8771 C   0  0  0  0  0  0
  -23.9063  -10.4305   21.0406 C   0  0  0  0  0  0
  -24.3626   -9.4223   21.9174 C   0  0  0  0  0  0
  -23.6314   -8.2250   22.0737 C   0  0  0  0  0  0
  -22.4289   -8.0284   21.3536 C   0  0  0  0  0  0
  -21.9928   -9.0251   20.4631 C   0  0  0  0  0  0
  -22.7246  -10.2139   20.3047 C   0  0  0  0  0  0
  -21.6858   -6.0745   22.5275 C   0  0  0  0  0  0
  -21.4010   -6.5647   23.8210 C   0  0  0  0  0  0
  -21.3664   -5.6792   24.9170 C   0  0  0  0  0  0
  -21.6049   -4.3056   24.7214 C   0  0  0  0  0  0
  -21.8824   -3.8155   23.4333 C   0  0  0  0  0  0
  -21.9202   -4.6975   22.3396 C   0  0  0  0  0  0
  -22.7852  -13.5248   21.1883 C   0  0  0  0  0  0
  -22.1671   -4.2164   21.0971 F   0  0  0  0  0  0
  -21.5634   -3.4536   25.7725 F   0  0  0  0  0  0
  -29.9882  -13.5081   20.3316 N   0  0  0  0  0  0
  -26.2950  -12.9370   20.3260 N   0  0  0  0  0  0
  -25.9311  -11.6529   20.5787 N   0  0  0  0  0  0
  -22.0480  -12.8211   22.0405 N   0  0  0  0  0  0
  -25.4312  -15.1900   20.4158 N   0  0  0  0  0  0
  -31.8671  -14.7541   20.3557 O   0  0  0  0  0  0
  -21.6654   -6.8883   21.4235 O   0  0  0  0  0  0
  -22.3543  -14.5558   20.6745 O   0  0  0  0  0  0
  -24.6267  -31.8583   23.1988 C   0  0  0  0  0  0
  -25.9119  -32.4768   23.8323 C   0  0  1  0  0  0
  -27.2192  -27.3113   20.1279 C   0  0  0  0  0  0
  -25.5955  -33.8569   24.2277 N   0  0  0  0  0  0
  -23.4185  -30.4806   21.5422 C   0  0  2  0  0  0
  -24.8629  -28.9240   20.1180 C   0  0  0  0  0  0
  -22.7455  -29.4625   22.4922 C   0  0  0  0  0  0
  -18.0292  -28.1376   22.8495 C   0  0  0  0  0  0
  -24.1496  -36.7267   23.2631 C   0  0  0  0  0  0
  -25.9578  -30.7901   21.3651 C   0  0  0  0  0  0
  -26.0312  -29.4120   20.7170 C   0  0  0  0  0  0
  -27.2146  -28.6168   20.7083 C   0  0  0  0  0  0
  -26.0325  -26.8672   19.5130 C   0  0  0  0  0  0
  -24.8632  -27.6569   19.5115 C   0  0  0  0  0  0
  -23.6317  -29.8088   20.1605 C   0  0  0  0  0  0
  -25.4119  -36.3065   24.0324 C   0  0  1  0  0  0
  -20.5889  -28.3680   23.1272 C   0  0  2  0  0  0
  -20.6770  -26.9396   22.5406 C   0  0  0  0  0  0
  -19.5746  -26.6381   21.5202 C   0  0  0  0  0  0
  -18.1928  -26.7922   22.1617 C   0  0  0  0  0  0
  -19.1542  -28.8840   23.2885 C   0  0  0  0  0  0
  -18.9473  -30.1449   23.8892 C   0  0  0  0  0  0
  -17.6472  -30.6577   24.0571 C   0  0  0  0  0  0
  -25.9065  -34.9441   23.5094 C   0  0  0  0  0  0
  -16.5365  -29.9080   23.6341 C   0  0  0  0  0  0
  -16.7278  -28.6499   23.0356 C   0  0  0  0  0  0
  -26.4524  -31.6566   25.0683 C   0  0  0  0  0  0
  -25.3777  -31.3680   26.1425 C   0  0  0  0  0  0
  -27.0365  -30.2994   24.6101 C   0  0  0  0  0  0
  -27.6092  -32.4286   25.7467 C   0  0  0  0  0  0
  -27.5576  -37.1777   24.8463 C   0  0  0  0  0  0
  -21.4170  -29.3036   22.3657 N   0  0  0  0  0  0
  -26.4275  -37.3777   23.9425 N   0  0  0  0  0  0
  -24.6867  -31.0607   22.0928 N   0  0  0  0  0  0
  -23.4183  -28.8169   23.2997 O   0  0  0  0  0  0
  -28.3510  -26.4889   20.1105 O   0  0  0  0  0  0
  -26.5620  -34.8915   22.4650 O   0  0  0  0  0  0
  -23.5433  -32.1373   23.7339 O   0  0  0  0  0  0
  -28.0422  -18.9347   19.2742 C   0  0  0  0  0  0
  -29.7345  -19.3849   20.8994 C   0  0  0  0  0  0
  -28.4194  -17.5690   19.2494 C   0  0  0  0  0  0
  -30.1306  -17.9970   20.8665 C   0  0  0  0  0  0
  -28.6827  -19.9190   20.0837 C   0  0  0  0  0  0
  -29.4963  -17.0501   20.0087 C   0  0  0  0  0  0
  -27.0481  -21.7695   19.5879 C   0  0  0  0  0  0
  -29.0151  -22.4898   20.2166 C   0  0  0  0  0  0
  -26.9600  -23.2753   19.3468 C   0  0  0  0  0  0
  -28.3513  -23.8291   19.6817 C   0  0  2  0  0  0
  -29.1204  -24.2422   18.4036 C   0  0  0  0  0  0
  -30.3746  -15.7227   18.1974 C   0  0  0  0  0  0
  -28.2768  -25.1059   20.6514 C   0  0  0  0  0  0
  -28.2672  -21.3593   20.0083 N   0  0  0  0  0  0
  -29.9947  -15.7157   19.6280 N   0  0  0  0  0  0
  -26.0399  -21.0674   19.4491 O   0  0  0  0  0  0
  -30.1324  -22.5008   20.7453 O   0  0  0  0  0  0
  -31.4704  -12.5565   19.1224 H   0  0  0  0  0  0
  -30.4090  -11.4668   19.9810 H   0  0  0  0  0  0
  -29.7572  -11.5515   17.5823 H   0  0  0  0  0  0
  -29.6224  -13.2766   17.6011 H   0  0  0  0  0  0
  -27.8761  -11.2369   18.9653 H   0  0  0  0  0  0
  -27.3609  -12.4252   17.8024 H   0  0  0  0  0  0
  -27.6193  -14.2256   19.4047 H   0  0  0  0  0  0
  -28.7284  -12.2167   21.4309 H   0  0  0  0  0  0
  -28.4530  -13.9257   21.7222 H   0  0  0  0  0  0
  -25.2757   -9.5718   22.4766 H   0  0  0  0  0  0
  -24.0037   -7.4638   22.7440 H   0  0  0  0  0  0
  -21.0867   -8.8763   19.8923 H   0  0  0  0  0  0
  -22.3687  -10.9688   19.6175 H   0  0  0  0  0  0
  -21.1979   -7.6149   23.9724 H   0  0  0  0  0  0
  -21.1490   -6.0509   25.9075 H   0  0  0  0  0  0
  -22.0596   -2.7615   23.2822 H   0  0  0  0  0  0
  -22.4111  -11.9888   22.4807 H   0  0  0  0  0  0
  -21.1079  -13.1195   22.2563 H   0  0  0  0  0  0
  -24.6730  -15.8522   20.5375 H   0  0  0  0  0  0
  -26.3021  -15.6279   20.1439 H   0  0  0  0  0  0
  -26.7186  -32.5460   23.1065 H   0  0  0  0  0  0
  -25.0157  -33.9731   25.0461 H   0  0  0  0  0  0
  -22.7119  -31.3000   21.3968 H   0  0  0  0  0  0
  -23.3756  -35.9599   23.3273 H   0  0  0  0  0  0
  -24.3591  -36.8908   22.2052 H   0  0  0  0  0  0
  -23.7256  -37.6458   23.6671 H   0  0  0  0  0  0
  -26.0866  -31.5472   20.5901 H   0  0  0  0  0  0
  -26.8377  -30.8422   21.9941 H   0  0  0  0  0  0
  -28.1160  -28.9882   21.1746 H   0  0  0  0  0  0
  -26.0059  -25.9026   19.0301 H   0  0  0  0  0  0
  -23.9654  -27.2755   19.0463 H   0  0  0  0  0  0
  -23.7544  -30.5833   19.4022 H   0  0  0  0  0  0
  -22.7482  -29.2420   19.8601 H   0  0  0  0  0  0
  -25.1298  -36.1885   25.0812 H   0  0  0  0  0  0
  -21.0023  -28.3269   24.1373 H   0  0  0  0  0  0
  -20.5666  -26.2282   23.3604 H   0  0  0  0  0  0
  -21.6637  -26.7407   22.1201 H   0  0  0  0  0  0
  -19.6911  -25.6299   21.1208 H   0  0  0  0  0  0
  -19.6695  -27.3205   20.6746 H   0  0  0  0  0  0
  -17.4200  -26.6684   21.4018 H   0  0  0  0  0  0
  -18.0334  -26.0050   22.8999 H   0  0  0  0  0  0
  -19.7956  -30.7269   24.2236 H   0  0  0  0  0  0
  -17.5036  -31.6259   24.5166 H   0  0  0  0  0  0
  -15.5368  -30.2989   23.7651 H   0  0  0  0  0  0
  -15.8681  -28.0826   22.7062 H   0  0  0  0  0  0
  -24.5995  -30.6975   25.7759 H   0  0  0  0  0  0
  -24.8920  -32.2833   26.4820 H   0  0  0  0  0  0
  -25.8140  -30.8903   27.0211 H   0  0  0  0  0  0
  -26.2920  -29.6745   24.1150 H   0  0  0  0  0  0
  -27.4109  -29.7251   25.4583 H   0  0  0  0  0  0
  -27.8777  -30.4266   23.9279 H   0  0  0  0  0  0
  -27.2716  -33.3614   26.1992 H   0  0  0  0  0  0
  -28.3944  -32.6785   25.0320 H   0  0  0  0  0  0
  -28.0707  -31.8424   26.5426 H   0  0  0  0  0  0
  -28.2564  -38.0099   24.7543 H   0  0  0  0  0  0
  -28.1100  -36.2635   24.6238 H   0  0  0  0  0  0
  -27.2298  -37.1348   25.8863 H   0  0  0  0  0  0
  -20.9331  -29.8764   21.6886 H   0  0  0  0  0  0
  -26.0137  -38.2830   24.1473 H   0  0  0  0  0  0
  -27.2518  -19.2063   18.5922 H   0  0  0  0  0  0
  -30.2856  -20.0481   21.5519 H   0  0  0  0  0  0
  -27.9026  -16.9212   18.5554 H   0  0  0  0  0  0
  -30.9810  -17.6872   21.4582 H   0  0  0  0  0  0
  -26.1847  -23.6835   19.9949 H   0  0  0  0  0  0
  -26.6731  -23.4667   18.3125 H   0  0  0  0  0  0
  -29.3175  -23.3945   17.7469 H   0  0  0  0  0  0
  -30.0834  -24.6907   18.6519 H   0  0  0  0  0  0
  -28.5588  -24.9764   17.8246 H   0  0  0  0  0  0
  -29.5084  -15.5207   17.5677 H   0  0  0  0  0  0
  -31.1494  -15.0014   17.9270 H   0  0  0  0  0  0
  -30.7667  -16.6974   17.9002 H   0  0  0  0  0  0
  -29.1253  -25.0359   21.3327 H   0  0  0  0  0  0
  -27.4084  -25.0279   21.3082 H   0  0  0  0  0  0
  1 25  1  0  0  0
  1 30  2  0  0  0
  1 85  1  0  0  0
  2  3  1  0  0  0
  2 25  1  0  0  0
  2 88  1  0  0  0
  2 89  1  0  0  0
  3  4  1  0  0  0
  3 90  1  0  0  0
  3 91  1  0  0  0
  4  5  1  0  0  0
  4 92  1  0  0  0
  4 93  1  0  0  0
  5  6  1  0  0  0
  5 26  1  0  0  0
  5 94  1  0  0  0
  6 25  1  0  0  0
  6 95  1  0  0  0
  6 96  1  0  0  0
  7  8  2  0  0  0
  7 26  1  0  0  0
  7 29  1  0  0  0
  8  9  1  0  0  0
  8 22  1  0  0  0
  9 10  1  0  0  0
  9 27  2  0  0  0
 10 11  2  0  0  0
 10 15  1  0  0  0
 11 12  1  0  0  0
 11 97  1  0  0  0
 12 13  2  0  0  0
 12 98  1  0  0  0
 13 14  1  0  0  0
 13 31  1  0  0  0
 14 15  2  0  0  0
 14 99  1  0  0  0
 15100  1  0  0  0
 16 17  2  0  0  0
 16 21  1  0  0  0
 16 31  1  0  0  0
 17 18  1  0  0  0
 17101  1  0  0  0
 18 19  2  0  0  0
 18102  1  0  0  0
 19 20  1  0  0  0
 19 24  1  0  0  0
 20 21  2  0  0  0
 20103  1  0  0  0
 21 23  1  0  0  0
 22 28  1  0  0  0
 22 32  2  0  0  0
 26 27  1  0  0  0
 28104  1  0  0  0
 28105  1  0  0  0
 29106  1  0  0  0
 29107  1  0  0  0
 33 34  1  0  0  0
 33 66  1  0  0  0
 33 70  2  0  0  0
 34 36  1  0  0  0
 34 59  1  0  0  0
 34108  1  0  0  0
 35 44  2  0  0  0
 35 45  1  0  0  0
 35 68  1  0  0  0
 36 56  1  0  0  0
 36109  1  0  0  0
 37 39  1  0  0  0
 37 47  1  0  0  0
 37 66  1  0  0  0
 37110  1  0  0  0
 38 43  2  0  0  0
 38 46  1  0  0  0
 38 47  1  0  0  0
 39 64  1  0  0  0
 39 67  2  0  0  0
 40 52  1  0  0  0
 40 53  2  0  0  0
 40 58  1  0  0  0
 41111  1  0  0  0
 41112  1  0  0  0
 41113  1  0  0  0
 41 48  1  0  0  0
 42 43  1  0  0  0
 42 66  1  0  0  0
 42114  1  0  0  0
 42115  1  0  0  0
 43 44  1  0  0  0
 44116  1  0  0  0
 45 46  2  0  0  0
 45117  1  0  0  0
 46118  1  0  0  0
 47119  1  0  0  0
 47120  1  0  0  0
 48 56  1  0  0  0
 48 65  1  0  0  0
 48121  1  0  0  0
 49 50  1  0  0  0
 49 53  1  0  0  0
 49 64  1  0  0  0
 49122  1  0  0  0
 50 51  1  0  0  0
 50123  1  0  0  0
 50124  1  0  0  0
 51 52  1  0  0  0
 51125  1  0  0  0
 51126  1  0  0  0
 52127  1  0  0  0
 52128  1  0  0  0
 53 54  1  0  0  0
 54 55  2  0  0  0
 54129  1  0  0  0
 55 57  1  0  0  0
 55130  1  0  0  0
 56 69  2  0  0  0
 57 58  2  0  0  0
 57131  1  0  0  0
 58132  1  0  0  0
 59 60  1  0  0  0
 59 61  1  0  0  0
 59 62  1  0  0  0
 60133  1  0  0  0
 60134  1  0  0  0
 60135  1  0  0  0
 61136  1  0  0  0
 61137  1  0  0  0
 61138  1  0  0  0
 62139  1  0  0  0
 62140  1  0  0  0
 62141  1  0  0  0
 63 65  1  0  0  0
 63142  1  0  0  0
 63143  1  0  0  0
 63144  1  0  0  0
 64145  1  0  0  0
 65146  1  0  0  0
 68 83  1  0  0  0
 71 73  2  0  0  0
 71 75  1  0  0  0
 71147  1  0  0  0
 72 74  1  0  0  0
 72 75  2  0  0  0
 72148  1  0  0  0
 73 76  1  0  0  0
 73149  1  0  0  0
 74 76  2  0  0  0
 74150  1  0  0  0
 75 84  1  0  0  0
 76 85  1  0  0  0
 77 79  1  0  0  0
 77 84  1  0  0  0
 77 86  2  0  0  0
 78 80  1  0  0  0
 78 84  1  0  0  0
 78 87  2  0  0  0
 79 80  1  0  0  0
 79151  1  0  0  0
 79152  1  0  0  0
 80 81  1  0  0  0
 80 83  1  0  0  0
 81153  1  0  0  0
 81154  1  0  0  0
 81155  1  0  0  0
 82 85  1  0  0  0
 82156  1  0  0  0
 82157  1  0  0  0
 82158  1  0  0  0
 83159  1  0  0  0
 83160  1  0  0  0
M  ISO  4   1 100  68 101  83 101  85 100
M  END
> <chiral flag>
0

> <version>
0

> <s_m_source_file>
/data/baiqing/PycharmProjects/Reinvent-master-3.2/result/LINK_invent/BTK/process_docking_weight1_custom_product_contain_oxygen_bond_distance_aromatic_linkinvent_7_9_3/rearranged_h_0074.sdf

> <i_m_source_file_index>
69

> <r_mmod_Potential_Energy-OPLS-2005>
429.311248779297

> <r_mmod_Stretch_Energy-OPLS-2005>
99.1738052368164

> <r_mmod_Bend_Energy-OPLS-2005>
202.342269897461

> <r_mmod_Torsional_Energy-OPLS-2005>
392.193298339844

> <r_mmod_Improper_Torsional_Energy-OPLS-2005>
33.9537353515625

> <r_mmod_Van_der_Waal_Energy-OPLS-2005>
144.959915161133

> <r_mmod_Electrostatic_Energy-OPLS-2005>
-310.8671875

> <r_mmod_Solvation_Energy-OPLS-2005>
-215.142684936523

> <b_mmod_Minimization_Converged-OPLS-2005>
0

> <r_mmod_RMS_Derivative-OPLS-2005>
2.29299020767212

$$$$
71
                    3D
 Structure written by MMmdl.
155164  0  0  1  0            999 V2000
  -30.6110  -14.6713   20.4933 C   0  0  0  0  0  0
  -30.4441  -12.4127   19.4583 C   0  0  0  0  0  0
  -29.5119  -12.5138   18.2294 C   0  0  0  0  0  0
  -28.0365  -12.3389   18.6424 C   0  0  0  0  0  0
  -27.6519  -13.2176   19.8627 C   0  0  2  0  0  0
  -28.6980  -13.0877   20.9935 C   0  0  0  0  0  0
  -25.2539  -13.8154   20.5665 C   0  0  0  0  0  0
  -24.1806  -13.0420   20.9164 C   0  0  0  0  0  0
  -24.6383  -11.6893   20.8735 C   0  0  0  0  0  0
  -23.9050  -10.4281   21.0401 C   0  0  0  0  0  0
  -24.3597   -9.4199   21.9181 C   0  0  0  0  0  0
  -23.6276   -8.2234   22.0755 C   0  0  0  0  0  0
  -22.4260   -8.0272   21.3546 C   0  0  0  0  0  0
  -21.9891   -9.0240   20.4643 C   0  0  0  0  0  0
  -22.7220  -10.2120   20.3049 C   0  0  0  0  0  0
  -21.6842   -6.0728   22.5281 C   0  0  0  0  0  0
  -21.4007   -6.5630   23.8216 C   0  0  0  0  0  0
  -21.3665   -5.6785   24.9179 C   0  0  0  0  0  0
  -21.6051   -4.3050   24.7227 C   0  0  0  0  0  0
  -21.8815   -3.8139   23.4348 C   0  0  0  0  0  0
  -21.9188   -4.6956   22.3406 C   0  0  0  0  0  0
  -22.7831  -13.5228   21.1840 C   0  0  0  0  0  0
  -22.1657   -4.2139   21.0984 F   0  0  0  0  0  0
  -21.5634   -3.4536   25.7742 F   0  0  0  0  0  0
  -30.0111  -13.4383   20.4292 N   0  0  0  0  0  0
  -26.2983  -12.9346   20.3325 N   0  0  0  0  0  0
  -25.9319  -11.6498   20.5761 N   0  0  0  0  0  0
  -22.0462  -12.8242   22.0406 N   0  0  0  0  0  0
  -25.4198  -15.1872   20.4118 N   0  0  0  0  0  0
  -31.7797  -14.8317   20.1300 O   0  0  0  0  0  0
  -21.6633   -6.8867   21.4240 O   0  0  0  0  0  0
  -22.3523  -14.5539   20.6693 O   0  0  0  0  0  0
  -24.6272  -31.8601   23.2055 C   0  0  0  0  0  0
  -25.9124  -32.4779   23.8380 C   0  0  1  0  0  0
  -27.2264  -27.3059   20.1072 C   0  0  0  0  0  0
  -25.5943  -33.8585   24.2305 N   0  0  0  0  0  0
  -23.4221  -30.4861   21.5475 C   0  0  2  0  0  0
  -24.8711  -28.9483   20.1106 C   0  0  0  0  0  0
  -22.7489  -29.4628   22.4937 C   0  0  0  0  0  0
  -18.0289  -28.1385   22.8483 C   0  0  0  0  0  0
  -24.1494  -36.7290   23.2637 C   0  0  0  0  0  0
  -25.9678  -30.7838   21.3850 C   0  0  0  0  0  0
  -26.0426  -29.4130   20.7220 C   0  0  0  0  0  0
  -27.2209  -28.6019   20.7167 C   0  0  0  0  0  0
  -26.0261  -26.9126   19.4611 C   0  0  0  0  0  0
  -24.8658  -27.7031   19.4727 C   0  0  0  0  0  0
  -23.6389  -29.8269   20.1614 C   0  0  0  0  0  0
  -25.4119  -36.3087   24.0330 C   0  0  1  0  0  0
  -20.5891  -28.3691   23.1279 C   0  0  2  0  0  0
  -20.6785  -26.9412   22.5405 C   0  0  0  0  0  0
  -19.5760  -26.6381   21.5213 C   0  0  0  0  0  0
  -18.1937  -26.7932   22.1613 C   0  0  0  0  0  0
  -19.1539  -28.8856   23.2875 C   0  0  0  0  0  0
  -18.9460  -30.1457   23.8891 C   0  0  0  0  0  0
  -17.6455  -30.6588   24.0552 C   0  0  0  0  0  0
  -25.9050  -34.9451   23.5114 C   0  0  0  0  0  0
  -16.5348  -29.9078   23.6327 C   0  0  0  0  0  0
  -16.7271  -28.6497   23.0349 C   0  0  0  0  0  0
  -26.4506  -31.6581   25.0746 C   0  0  0  0  0  0
  -25.3736  -31.3724   26.1473 C   0  0  0  0  0  0
  -27.0343  -30.2993   24.6226 C   0  0  0  0  0  0
  -27.6085  -32.4301   25.7496 C   0  0  0  0  0  0
  -27.5589  -37.1802   24.8463 C   0  0  0  0  0  0
  -21.4204  -29.3045   22.3677 N   0  0  0  0  0  0
  -26.4304  -37.3776   23.9408 N   0  0  0  0  0  0
  -24.6908  -31.0596   22.1021 N   0  0  0  0  0  0
  -23.4202  -28.8160   23.3017 O   0  0  0  0  0  0
  -28.3272  -26.4204   20.1621 O   0  0  0  0  0  0
  -26.5603  -34.8906   22.4667 O   0  0  0  0  0  0
  -23.5430  -32.1409   23.7370 O   0  0  0  0  0  0
  -31.0032  -19.3737   20.3619 C   0  0  0  0  0  0
  -31.0418  -17.9443   20.4422 C   0  0  0  0  0  0
  -28.6298  -19.3529   20.6811 C   0  0  0  0  0  0
  -29.7987  -20.1343   20.4777 C   0  0  0  0  0  0
  -29.8662  -17.1781   20.6599 C   0  0  0  0  0  0
  -28.6644  -17.9282   20.7738 C   0  0  0  0  0  0
  -28.7035  -22.5066   20.3243 C   0  0  0  0  0  0
  -29.0475  -23.8140   20.1289 C   0  0  0  0  0  0
  -30.4912  -23.8005   20.0807 C   0  0  0  0  0  0
  -31.2712  -24.8731   19.8724 C   0  0  0  0  0  0
  -30.9998  -22.3713   20.2673 C   0  0  0  0  0  0
  -28.0454  -24.9942   19.8403 C   0  0  0  0  0  0
  -29.7700  -21.5814   20.4010 N   0  0  0  0  0  0
  -29.7800  -15.7185   20.8020 N   0  0  0  0  0  0
  -27.5046  -17.2567   20.9753 F   0  0  0  0  0  0
  -31.4838  -12.5480   19.1559 H   0  0  0  0  0  0
  -30.3897  -11.4187   19.9059 H   0  0  0  0  0  0
  -29.7863  -11.7642   17.4861 H   0  0  0  0  0  0
  -29.6435  -13.4850   17.7465 H   0  0  0  0  0  0
  -27.8888  -11.2863   18.8865 H   0  0  0  0  0  0
  -27.3777  -12.5493   17.7994 H   0  0  0  0  0  0
  -27.6625  -14.2500   19.5120 H   0  0  0  0  0  0
  -28.7175  -12.0692   21.3846 H   0  0  0  0  0  0
  -28.4389  -13.7247   21.8402 H   0  0  0  0  0  0
  -25.2734   -9.5682   22.4765 H   0  0  0  0  0  0
  -23.9977   -7.4630   22.7482 H   0  0  0  0  0  0
  -21.0817   -8.8747   19.8961 H   0  0  0  0  0  0
  -22.3662  -10.9650   19.6158 H   0  0  0  0  0  0
  -21.1991   -7.6137   23.9716 H   0  0  0  0  0  0
  -21.1502   -6.0518   25.9085 H   0  0  0  0  0  0
  -22.0594   -2.7599   23.2849 H   0  0  0  0  0  0
  -22.4042  -11.9885   22.4790 H   0  0  0  0  0  0
  -21.1094  -13.1311   22.2622 H   0  0  0  0  0  0
  -24.6557  -15.8363   20.5604 H   0  0  0  0  0  0
  -26.2892  -15.6578   20.1912 H   0  0  0  0  0  0
  -26.7192  -32.5444   23.1127 H   0  0  0  0  0  0
  -25.0118  -33.9744   25.0469 H   0  0  0  0  0  0
  -22.7162  -31.3065   21.4060 H   0  0  0  0  0  0
  -23.3765  -35.9613   23.3289 H   0  0  0  0  0  0
  -24.3590  -36.8921   22.2055 H   0  0  0  0  0  0
  -23.7235  -37.6484   23.6660 H   0  0  0  0  0  0
  -26.1053  -31.5510   20.6220 H   0  0  0  0  0  0
  -26.8459  -30.8290   22.0181 H   0  0  0  0  0  0
  -28.1138  -28.9489   21.2182 H   0  0  0  0  0  0
  -25.9358  -25.9721   18.9399 H   0  0  0  0  0  0
  -23.9724  -27.3457   18.9789 H   0  0  0  0  0  0
  -23.7561  -30.6052   19.4066 H   0  0  0  0  0  0
  -22.7597  -29.2555   19.8583 H   0  0  0  0  0  0
  -25.1298  -36.1946   25.0825 H   0  0  0  0  0  0
  -20.9976  -28.3258   24.1399 H   0  0  0  0  0  0
  -20.5702  -26.2289   23.3599 H   0  0  0  0  0  0
  -21.6648  -26.7458   22.1181 H   0  0  0  0  0  0
  -19.6921  -25.6289   21.1241 H   0  0  0  0  0  0
  -19.6702  -27.3189   20.6741 H   0  0  0  0  0  0
  -17.4210  -26.6681   21.4014 H   0  0  0  0  0  0
  -18.0328  -26.0073   22.9005 H   0  0  0  0  0  0
  -19.7933  -30.7277   24.2256 H   0  0  0  0  0  0
  -17.5006  -31.6271   24.5147 H   0  0  0  0  0  0
  -15.5348  -30.2970   23.7669 H   0  0  0  0  0  0
  -15.8668  -28.0813   22.7068 H   0  0  0  0  0  0
  -24.5906  -30.7086   25.7784 H   0  0  0  0  0  0
  -24.8929  -32.2887   26.4909 H   0  0  0  0  0  0
  -25.8051  -30.8874   27.0237 H   0  0  0  0  0  0
  -26.2917  -29.6735   24.1263 H   0  0  0  0  0  0
  -27.4027  -29.7271   25.4749 H   0  0  0  0  0  0
  -27.8801  -30.4250   23.9464 H   0  0  0  0  0  0
  -27.2737  -33.3615   26.2072 H   0  0  0  0  0  0
  -28.3895  -32.6838   25.0316 H   0  0  0  0  0  0
  -28.0755  -31.8417   26.5405 H   0  0  0  0  0  0
  -28.2602  -38.0102   24.7516 H   0  0  0  0  0  0
  -28.1090  -36.2636   24.6282 H   0  0  0  0  0  0
  -27.2300  -37.1433   25.8861 H   0  0  0  0  0  0
  -20.9382  -29.8749   21.6873 H   0  0  0  0  0  0
  -26.0187  -38.2852   24.1404 H   0  0  0  0  0  0
  -31.9412  -19.8835   20.2022 H   0  0  0  0  0  0
  -31.9954  -17.4464   20.3456 H   0  0  0  0  0  0
  -27.6731  -19.8426   20.7819 H   0  0  0  0  0  0
  -27.6962  -22.1165   20.3633 H   0  0  0  0  0  0
  -30.8540  -25.8587   19.7302 H   0  0  0  0  0  0
  -32.3467  -24.7804   19.8341 H   0  0  0  0  0  0
  -31.6134  -22.2959   21.1667 H   0  0  0  0  0  0
  -31.5896  -22.0611   19.4039 H   0  0  0  0  0  0
  -27.1266  -24.6991   20.3490 H   0  0  0  0  0  0
  -27.8498  -24.9353   18.7687 H   0  0  0  0  0  0
  -28.8549  -15.4090   21.0602 H   0  0  0  0  0  0
  1 25  1  0  0  0
  1 30  2  0  0  0
  1 84  1  0  0  0
  2  3  1  0  0  0
  2 25  1  0  0  0
  2 86  1  0  0  0
  2 87  1  0  0  0
  3  4  1  0  0  0
  3 88  1  0  0  0
  3 89  1  0  0  0
  4  5  1  0  0  0
  4 90  1  0  0  0
  4 91  1  0  0  0
  5  6  1  0  0  0
  5 26  1  0  0  0
  5 92  1  0  0  0
  6 25  1  0  0  0
  6 93  1  0  0  0
  6 94  1  0  0  0
  7  8  2  0  0  0
  7 26  1  0  0  0
  7 29  1  0  0  0
  8  9  1  0  0  0
  8 22  1  0  0  0
  9 10  1  0  0  0
  9 27  2  0  0  0
 10 11  2  0  0  0
 10 15  1  0  0  0
 11 12  1  0  0  0
 11 95  1  0  0  0
 12 13  2  0  0  0
 12 96  1  0  0  0
 13 14  1  0  0  0
 13 31  1  0  0  0
 14 15  2  0  0  0
 14 97  1  0  0  0
 15 98  1  0  0  0
 16 17  2  0  0  0
 16 21  1  0  0  0
 16 31  1  0  0  0
 17 18  1  0  0  0
 17 99  1  0  0  0
 18 19  2  0  0  0
 18100  1  0  0  0
 19 20  1  0  0  0
 19 24  1  0  0  0
 20 21  2  0  0  0
 20101  1  0  0  0
 21 23  1  0  0  0
 22 28  1  0  0  0
 22 32  2  0  0  0
 26 27  1  0  0  0
 28102  1  0  0  0
 28103  1  0  0  0
 29104  1  0  0  0
 29105  1  0  0  0
 33 34  1  0  0  0
 33 66  1  0  0  0
 33 70  2  0  0  0
 34 36  1  0  0  0
 34 59  1  0  0  0
 34106  1  0  0  0
 35 44  2  0  0  0
 35 45  1  0  0  0
 35 68  1  0  0  0
 36 56  1  0  0  0
 36107  1  0  0  0
 37 39  1  0  0  0
 37 47  1  0  0  0
 37 66  1  0  0  0
 37108  1  0  0  0
 38 43  2  0  0  0
 38 46  1  0  0  0
 38 47  1  0  0  0
 39 64  1  0  0  0
 39 67  2  0  0  0
 40 52  1  0  0  0
 40 53  2  0  0  0
 40 58  1  0  0  0
 41109  1  0  0  0
 41110  1  0  0  0
 41111  1  0  0  0
 41 48  1  0  0  0
 42 43  1  0  0  0
 42 66  1  0  0  0
 42112  1  0  0  0
 42113  1  0  0  0
 43 44  1  0  0  0
 44114  1  0  0  0
 45 46  2  0  0  0
 45115  1  0  0  0
 46116  1  0  0  0
 47117  1  0  0  0
 47118  1  0  0  0
 48 56  1  0  0  0
 48 65  1  0  0  0
 48119  1  0  0  0
 49 50  1  0  0  0
 49 53  1  0  0  0
 49 64  1  0  0  0
 49120  1  0  0  0
 50 51  1  0  0  0
 50121  1  0  0  0
 50122  1  0  0  0
 51 52  1  0  0  0
 51123  1  0  0  0
 51124  1  0  0  0
 52125  1  0  0  0
 52126  1  0  0  0
 53 54  1  0  0  0
 54 55  2  0  0  0
 54127  1  0  0  0
 55 57  1  0  0  0
 55128  1  0  0  0
 56 69  2  0  0  0
 57 58  2  0  0  0
 57129  1  0  0  0
 58130  1  0  0  0
 59 60  1  0  0  0
 59 61  1  0  0  0
 59 62  1  0  0  0
 60131  1  0  0  0
 60132  1  0  0  0
 60133  1  0  0  0
 61134  1  0  0  0
 61135  1  0  0  0
 61136  1  0  0  0
 62137  1  0  0  0
 62138  1  0  0  0
 62139  1  0  0  0
 63 65  1  0  0  0
 63140  1  0  0  0
 63141  1  0  0  0
 63142  1  0  0  0
 64143  1  0  0  0
 65144  1  0  0  0
 68 82  1  0  0  0
 71 72  2  0  0  0
 71 74  1  0  0  0
 71145  1  0  0  0
 72 75  1  0  0  0
 72146  1  0  0  0
 73 74  2  0  0  0
 73 76  1  0  0  0
 73147  1  0  0  0
 74 83  1  0  0  0
 75 76  2  0  0  0
 75 84  1  0  0  0
 76 85  1  0  0  0
 77 78  2  0  0  0
 77 83  1  0  0  0
 77148  1  0  0  0
 78 79  1  0  0  0
 78 82  1  0  0  0
 79 80  2  0  0  0
 79 81  1  0  0  0
 80149  1  0  0  0
 80150  1  0  0  0
 81 83  1  0  0  0
 81151  1  0  0  0
 81152  1  0  0  0
 82153  1  0  0  0
 82154  1  0  0  0
 84155  1  0  0  0
M  ISO  4   1 100  68 101  82 101  84 100
M  END
> <chiral flag>
0

> <version>
0

> <s_m_source_file>
/data/baiqing/PycharmProjects/Reinvent-master-3.2/result/LINK_invent/BTK/process_docking_weight1_custom_product_contain_oxygen_bond_distance_aromatic_linkinvent_7_9_3/rearranged_h_0074.sdf

> <i_m_source_file_index>
70

> <r_mmod_Potential_Energy-OPLS-2005>
118.761924743652

> <r_mmod_Stretch_Energy-OPLS-2005>
82.7724533081055

> <r_mmod_Bend_Energy-OPLS-2005>
240.732894897461

> <r_mmod_Torsional_Energy-OPLS-2005>
196.498977661133

> <r_mmod_Improper_Torsional_Energy-OPLS-2005>
4.63009119033813

> <r_mmod_Van_der_Waal_Energy-OPLS-2005>
146.591522216797

> <r_mmod_Electrostatic_Energy-OPLS-2005>
-411.270324707031

> <r_mmod_Solvation_Energy-OPLS-2005>
-200.490417480469

> <b_mmod_Minimization_Converged-OPLS-2005>
0

> <r_mmod_RMS_Derivative-OPLS-2005>
1.48257195949554

$$$$
72
                    3D
 Structure written by MMmdl.
158167  0  0  1  0            999 V2000
  -30.5877  -14.7098   20.5068 C   0  0  0  0  0  0
  -30.4459  -12.4375   19.4735 C   0  0  0  0  0  0
  -29.5199  -12.5233   18.2391 C   0  0  0  0  0  0
  -28.0435  -12.3448   18.6446 C   0  0  0  0  0  0
  -27.6537  -13.2221   19.8642 C   0  0  2  0  0  0
  -28.6924  -13.0954   21.0010 C   0  0  0  0  0  0
  -25.2539  -13.8170   20.5639 C   0  0  0  0  0  0
  -24.1816  -13.0433   20.9163 C   0  0  0  0  0  0
  -24.6395  -11.6907   20.8720 C   0  0  0  0  0  0
  -23.9064  -10.4288   21.0397 C   0  0  0  0  0  0
  -24.3607   -9.4206   21.9181 C   0  0  0  0  0  0
  -23.6280   -8.2246   22.0757 C   0  0  0  0  0  0
  -22.4267   -8.0280   21.3549 C   0  0  0  0  0  0
  -21.9893   -9.0258   20.4666 C   0  0  0  0  0  0
  -22.7224  -10.2132   20.3066 C   0  0  0  0  0  0
  -21.6848   -6.0727   22.5278 C   0  0  0  0  0  0
  -21.4020   -6.5629   23.8208 C   0  0  0  0  0  0
  -21.3662   -5.6783   24.9172 C   0  0  0  0  0  0
  -21.6043   -4.3046   24.7223 C   0  0  0  0  0  0
  -21.8816   -3.8141   23.4346 C   0  0  0  0  0  0
  -21.9196   -4.6960   22.3405 C   0  0  0  0  0  0
  -22.7841  -13.5239   21.1834 C   0  0  0  0  0  0
  -22.1653   -4.2142   21.0982 F   0  0  0  0  0  0
  -21.5637   -3.4536   25.7738 F   0  0  0  0  0  0
  -30.0055  -13.4636   20.4465 N   0  0  0  0  0  0
  -26.2978  -12.9369   20.3287 N   0  0  0  0  0  0
  -25.9322  -11.6520   20.5723 N   0  0  0  0  0  0
  -22.0473  -12.8264   22.0407 N   0  0  0  0  0  0
  -25.4235  -15.1887   20.4025 N   0  0  0  0  0  0
  -31.7298  -14.8870   20.0664 O   0  0  0  0  0  0
  -21.6639   -6.8872   21.4241 O   0  0  0  0  0  0
  -22.3529  -14.5546   20.6680 O   0  0  0  0  0  0
  -24.6297  -31.8569   23.1996 C   0  0  0  0  0  0
  -25.9136  -32.4756   23.8334 C   0  0  1  0  0  0
  -27.2239  -27.2767   20.1415 C   0  0  0  0  0  0
  -25.5941  -33.8559   24.2268 N   0  0  0  0  0  0
  -23.4258  -30.4792   21.5403 C   0  0  2  0  0  0
  -24.8771  -28.9261   20.1114 C   0  0  0  0  0  0
  -22.7493  -29.4615   22.4901 C   0  0  0  0  0  0
  -18.0295  -28.1372   22.8475 C   0  0  0  0  0  0
  -24.1505  -36.7301   23.2639 C   0  0  0  0  0  0
  -25.9705  -30.7749   21.3770 C   0  0  0  0  0  0
  -26.0453  -29.3960   20.7256 C   0  0  0  0  0  0
  -27.2224  -28.5825   20.7324 C   0  0  0  0  0  0
  -26.0395  -26.8734   19.4901 C   0  0  0  0  0  0
  -24.8791  -27.6724   19.4798 C   0  0  0  0  0  0
  -23.6453  -29.8116   20.1566 C   0  0  0  0  0  0
  -25.4108  -36.3066   24.0343 C   0  0  1  0  0  0
  -20.5895  -28.3694   23.1274 C   0  0  2  0  0  0
  -20.6779  -26.9409   22.5404 C   0  0  0  0  0  0
  -19.5757  -26.6373   21.5203 C   0  0  0  0  0  0
  -18.1940  -26.7913   22.1620 C   0  0  0  0  0  0
  -19.1545  -28.8838   23.2875 C   0  0  0  0  0  0
  -18.9466  -30.1436   23.8907 C   0  0  0  0  0  0
  -17.6468  -30.6575   24.0548 C   0  0  0  0  0  0
  -25.9039  -34.9441   23.5090 C   0  0  0  0  0  0
  -16.5355  -29.9064   23.6335 C   0  0  0  0  0  0
  -16.7283  -28.6480   23.0349 C   0  0  0  0  0  0
  -26.4495  -31.6560   25.0708 C   0  0  0  0  0  0
  -25.3739  -31.3732   26.1445 C   0  0  0  0  0  0
  -27.0310  -30.2975   24.6170 C   0  0  0  0  0  0
  -27.6069  -32.4269   25.7472 C   0  0  0  0  0  0
  -27.5579  -37.1793   24.8459 C   0  0  0  0  0  0
  -21.4197  -29.3054   22.3664 N   0  0  0  0  0  0
  -26.4282  -37.3763   23.9412 N   0  0  0  0  0  0
  -24.6941  -31.0552   22.0958 N   0  0  0  0  0  0
  -23.4201  -28.8152   23.2987 O   0  0  0  0  0  0
  -28.3202  -26.3901   20.1734 O   0  0  0  0  0  0
  -26.5618  -34.8924   22.4664 O   0  0  0  0  0  0
  -23.5460  -32.1366   23.7314 O   0  0  0  0  0  0
  -29.5660  -18.0889   21.8948 C   0  0  0  0  0  0
  -29.6761  -19.2578   19.4024 C   0  0  0  0  0  0
  -29.4110  -19.5098   21.7427 C   0  0  0  0  0  0
  -29.4560  -20.1817   20.4763 C   0  0  0  0  0  0
  -29.8104  -17.2011   20.8112 C   0  0  0  0  0  0
  -29.8536  -17.8389   19.5443 C   0  0  0  0  0  0
  -29.7902  -22.8454   20.8363 C   0  0  0  0  0  0
  -28.0749  -22.2848   19.8634 C   0  0  0  0  0  0
  -28.7946  -23.6955   19.9283 C   0  0  2  0  0  0
  -29.1850  -20.3184   23.0090 C   0  0  0  0  0  0
  -29.4963  -24.1700   18.6491 C   0  0  0  0  0  0
  -28.0836  -24.9718   20.6173 C   0  0  0  0  0  0
  -29.3466  -21.6476   20.2385 N   0  0  0  0  0  0
  -29.8228  -15.7358   21.0191 N   0  0  0  0  0  0
  -30.5666  -23.0523   21.7467 O   0  0  0  0  0  0
  -30.0110  -17.0829   18.4304 F   0  0  0  0  0  0
  -31.4858  -12.5738   19.1707 H   0  0  0  0  0  0
  -30.3947  -11.4452   19.9229 H   0  0  0  0  0  0
  -29.7998  -11.7682   17.5035 H   0  0  0  0  0  0
  -29.6526  -13.4899   17.7493 H   0  0  0  0  0  0
  -27.8895  -11.2918   18.8837 H   0  0  0  0  0  0
  -27.3941  -12.5618   17.7961 H   0  0  0  0  0  0
  -27.6706  -14.2554   19.5157 H   0  0  0  0  0  0
  -28.7178  -12.0750   21.3873 H   0  0  0  0  0  0
  -28.4148  -13.7241   21.8477 H   0  0  0  0  0  0
  -25.2752   -9.5687   22.4751 H   0  0  0  0  0  0
  -23.9993   -7.4638   22.7470 H   0  0  0  0  0  0
  -21.0824   -8.8781   19.8969 H   0  0  0  0  0  0
  -22.3678  -10.9670   19.6181 H   0  0  0  0  0  0
  -21.2006   -7.6132   23.9708 H   0  0  0  0  0  0
  -21.1486   -6.0513   25.9069 H   0  0  0  0  0  0
  -22.0596   -2.7602   23.2856 H   0  0  0  0  0  0
  -22.4070  -11.9937   22.4841 H   0  0  0  0  0  0
  -21.1106  -13.1340   22.2611 H   0  0  0  0  0  0
  -24.6507  -15.8401   20.4921 H   0  0  0  0  0  0
  -26.2694  -15.6229   20.0565 H   0  0  0  0  0  0
  -26.7196  -32.5410   23.1070 H   0  0  0  0  0  0
  -25.0090  -33.9710   25.0410 H   0  0  0  0  0  0
  -22.7207  -31.2997   21.3929 H   0  0  0  0  0  0
  -23.3767  -35.9634   23.3272 H   0  0  0  0  0  0
  -24.3623  -36.8935   22.2060 H   0  0  0  0  0  0
  -23.7252  -37.6499   23.6672 H   0  0  0  0  0  0
  -26.1039  -31.5326   20.6037 H   0  0  0  0  0  0
  -26.8506  -30.8288   22.0048 H   0  0  0  0  0  0
  -28.1146  -28.9343   21.2308 H   0  0  0  0  0  0
  -26.0027  -25.9146   18.9934 H   0  0  0  0  0  0
  -23.9892  -27.3095   18.9854 H   0  0  0  0  0  0
  -23.7676  -30.5858   19.3978 H   0  0  0  0  0  0
  -22.7643  -29.2426   19.8524 H   0  0  0  0  0  0
  -25.1273  -36.1910   25.0836 H   0  0  0  0  0  0
  -20.9999  -28.3278   24.1392 H   0  0  0  0  0  0
  -20.5678  -26.2298   23.3604 H   0  0  0  0  0  0
  -21.6646  -26.7427   22.1198 H   0  0  0  0  0  0
  -19.6926  -25.6277   21.1247 H   0  0  0  0  0  0
  -19.6698  -27.3171   20.6720 H   0  0  0  0  0  0
  -17.4195  -26.6641   21.4039 H   0  0  0  0  0  0
  -18.0366  -26.0049   22.9015 H   0  0  0  0  0  0
  -19.7937  -30.7233   24.2305 H   0  0  0  0  0  0
  -17.5022  -31.6277   24.5104 H   0  0  0  0  0  0
  -15.5360  -30.2960   23.7658 H   0  0  0  0  0  0
  -15.8681  -28.0804   22.7072 H   0  0  0  0  0  0
  -24.5861  -30.7144   25.7773 H   0  0  0  0  0  0
  -24.9014  -32.2929   26.4916 H   0  0  0  0  0  0
  -25.8060  -30.8846   27.0187 H   0  0  0  0  0  0
  -26.2874  -29.6744   24.1197 H   0  0  0  0  0  0
  -27.3985  -29.7206   25.4664 H   0  0  0  0  0  0
  -27.8763  -30.4229   23.9402 H   0  0  0  0  0  0
  -27.2675  -33.3526   26.2130 H   0  0  0  0  0  0
  -28.3838  -32.6882   25.0277 H   0  0  0  0  0  0
  -28.0796  -31.8347   26.5314 H   0  0  0  0  0  0
  -28.2565  -38.0117   24.7499 H   0  0  0  0  0  0
  -28.1091  -36.2641   24.6248 H   0  0  0  0  0  0
  -27.2326  -37.1406   25.8871 H   0  0  0  0  0  0
  -20.9376  -29.8781   21.6879 H   0  0  0  0  0  0
  -26.0168  -38.2848   24.1380 H   0  0  0  0  0  0
  -29.4868  -17.6691   22.8872 H   0  0  0  0  0  0
  -29.7207  -19.6549   18.3993 H   0  0  0  0  0  0
  -27.7095  -22.0052   18.8744 H   0  0  0  0  0  0
  -27.2943  -22.1516   20.6192 H   0  0  0  0  0  0
  -28.7810  -19.6989   23.8101 H   0  0  0  0  0  0
  -28.4787  -21.1324   22.8424 H   0  0  0  0  0  0
  -30.1283  -20.7413   23.3577 H   0  0  0  0  0  0
  -29.9996  -23.3541   18.1290 H   0  0  0  0  0  0
  -30.2503  -24.9296   18.8603 H   0  0  0  0  0  0
  -28.7809  -24.6017   17.9495 H   0  0  0  0  0  0
  -28.3621  -24.9765   21.6727 H   0  0  0  0  0  0
  -27.0123  -24.7736   20.6560 H   0  0  0  0  0  0
  -29.0396  -15.3992   21.5578 H   0  0  0  0  0  0
  1 25  1  0  0  0
  1 30  2  0  0  0
  1 84  1  0  0  0
  2  3  1  0  0  0
  2 25  1  0  0  0
  2 87  1  0  0  0
  2 88  1  0  0  0
  3  4  1  0  0  0
  3 89  1  0  0  0
  3 90  1  0  0  0
  4  5  1  0  0  0
  4 91  1  0  0  0
  4 92  1  0  0  0
  5  6  1  0  0  0
  5 26  1  0  0  0
  5 93  1  0  0  0
  6 25  1  0  0  0
  6 94  1  0  0  0
  6 95  1  0  0  0
  7  8  2  0  0  0
  7 26  1  0  0  0
  7 29  1  0  0  0
  8  9  1  0  0  0
  8 22  1  0  0  0
  9 10  1  0  0  0
  9 27  2  0  0  0
 10 11  2  0  0  0
 10 15  1  0  0  0
 11 12  1  0  0  0
 11 96  1  0  0  0
 12 13  2  0  0  0
 12 97  1  0  0  0
 13 14  1  0  0  0
 13 31  1  0  0  0
 14 15  2  0  0  0
 14 98  1  0  0  0
 15 99  1  0  0  0
 16 17  2  0  0  0
 16 21  1  0  0  0
 16 31  1  0  0  0
 17 18  1  0  0  0
 17100  1  0  0  0
 18 19  2  0  0  0
 18101  1  0  0  0
 19 20  1  0  0  0
 19 24  1  0  0  0
 20 21  2  0  0  0
 20102  1  0  0  0
 21 23  1  0  0  0
 22 28  1  0  0  0
 22 32  2  0  0  0
 26 27  1  0  0  0
 28103  1  0  0  0
 28104  1  0  0  0
 29105  1  0  0  0
 29106  1  0  0  0
 33 34  1  0  0  0
 33 66  1  0  0  0
 33 70  2  0  0  0
 34 36  1  0  0  0
 34 59  1  0  0  0
 34107  1  0  0  0
 35 44  2  0  0  0
 35 45  1  0  0  0
 35 68  1  0  0  0
 36 56  1  0  0  0
 36108  1  0  0  0
 37 39  1  0  0  0
 37 47  1  0  0  0
 37 66  1  0  0  0
 37109  1  0  0  0
 38 43  2  0  0  0
 38 46  1  0  0  0
 38 47  1  0  0  0
 39 64  1  0  0  0
 39 67  2  0  0  0
 40 52  1  0  0  0
 40 53  2  0  0  0
 40 58  1  0  0  0
 41110  1  0  0  0
 41111  1  0  0  0
 41112  1  0  0  0
 41 48  1  0  0  0
 42 43  1  0  0  0
 42 66  1  0  0  0
 42113  1  0  0  0
 42114  1  0  0  0
 43 44  1  0  0  0
 44115  1  0  0  0
 45 46  2  0  0  0
 45116  1  0  0  0
 46117  1  0  0  0
 47118  1  0  0  0
 47119  1  0  0  0
 48 56  1  0  0  0
 48 65  1  0  0  0
 48120  1  0  0  0
 49 50  1  0  0  0
 49 53  1  0  0  0
 49 64  1  0  0  0
 49121  1  0  0  0
 50 51  1  0  0  0
 50122  1  0  0  0
 50123  1  0  0  0
 51 52  1  0  0  0
 51124  1  0  0  0
 51125  1  0  0  0
 52126  1  0  0  0
 52127  1  0  0  0
 53 54  1  0  0  0
 54 55  2  0  0  0
 54128  1  0  0  0
 55 57  1  0  0  0
 55129  1  0  0  0
 56 69  2  0  0  0
 57 58  2  0  0  0
 57130  1  0  0  0
 58131  1  0  0  0
 59 60  1  0  0  0
 59 61  1  0  0  0
 59 62  1  0  0  0
 60132  1  0  0  0
 60133  1  0  0  0
 60134  1  0  0  0
 61135  1  0  0  0
 61136  1  0  0  0
 61137  1  0  0  0
 62138  1  0  0  0
 62139  1  0  0  0
 62140  1  0  0  0
 63 65  1  0  0  0
 63141  1  0  0  0
 63142  1  0  0  0
 63143  1  0  0  0
 64144  1  0  0  0
 65145  1  0  0  0
 68 82  1  0  0  0
 71 73  2  0  0  0
 71 75  1  0  0  0
 71146  1  0  0  0
 72 74  2  0  0  0
 72 76  1  0  0  0
 72147  1  0  0  0
 73 74  1  0  0  0
 73 80  1  0  0  0
 74 83  1  0  0  0
 75 76  2  0  0  0
 75 84  1  0  0  0
 76 86  1  0  0  0
 77 79  1  0  0  0
 77 83  1  0  0  0
 77 85  2  0  0  0
 78 79  1  0  0  0
 78 83  1  0  0  0
 78148  1  0  0  0
 78149  1  0  0  0
 79 81  1  0  0  0
 79 82  1  0  0  0
 80150  1  0  0  0
 80151  1  0  0  0
 80152  1  0  0  0
 81153  1  0  0  0
 81154  1  0  0  0
 81155  1  0  0  0
 82156  1  0  0  0
 82157  1  0  0  0
 84158  1  0  0  0
M  ISO  4   1 100  68 101  82 101  84 100
M  END
> <chiral flag>
0

> <version>
0

> <s_m_source_file>
/data/baiqing/PycharmProjects/Reinvent-master-3.2/result/LINK_invent/BTK/process_docking_weight1_custom_product_contain_oxygen_bond_distance_aromatic_linkinvent_7_9_3/rearranged_h_0074.sdf

> <i_m_source_file_index>
71

> <r_mmod_Potential_Energy-OPLS-2005>
137.24836730957

> <r_mmod_Stretch_Energy-OPLS-2005>
106.991371154785

> <r_mmod_Bend_Energy-OPLS-2005>
180.859954833984

> <r_mmod_Torsional_Energy-OPLS-2005>
284.83935546875

> <r_mmod_Improper_Torsional_Energy-OPLS-2005>
6.84970092773438

> <r_mmod_Van_der_Waal_Energy-OPLS-2005>
134.399398803711

> <r_mmod_Electrostatic_Energy-OPLS-2005>
-426.365905761719

> <r_mmod_Solvation_Energy-OPLS-2005>
-222.402145385742

> <b_mmod_Minimization_Converged-OPLS-2005>
0

> <r_mmod_RMS_Derivative-OPLS-2005>
2.52228760719299

$$$$
73
                    3D
 Structure written by MMmdl.
167176  0  0  1  0            999 V2000
  -30.6783  -14.5540   20.4341 C   0  0  0  0  0  0
  -30.4198  -12.3185   19.4599 C   0  0  0  0  0  0
  -29.5063  -12.4735   18.2260 C   0  0  0  0  0  0
  -28.0258  -12.3371   18.6350 C   0  0  0  0  0  0
  -27.6514  -13.2125   19.8607 C   0  0  2  0  0  0
  -28.6970  -13.0866   20.9937 C   0  0  0  0  0  0
  -25.2557  -13.8163   20.5701 C   0  0  0  0  0  0
  -24.1823  -13.0435   20.9210 C   0  0  0  0  0  0
  -24.6380  -11.6906   20.8751 C   0  0  0  0  0  0
  -23.9046  -10.4290   21.0418 C   0  0  0  0  0  0
  -24.3600   -9.4208   21.9198 C   0  0  0  0  0  0
  -23.6284   -8.2241   22.0769 C   0  0  0  0  0  0
  -22.4268   -8.0277   21.3557 C   0  0  0  0  0  0
  -21.9890   -9.0250   20.4661 C   0  0  0  0  0  0
  -22.7218  -10.2128   20.3072 C   0  0  0  0  0  0
  -21.6844   -6.0729   22.5282 C   0  0  0  0  0  0
  -21.4011   -6.5638   23.8213 C   0  0  0  0  0  0
  -21.3664   -5.6796   24.9180 C   0  0  0  0  0  0
  -21.6043   -4.3058   24.7229 C   0  0  0  0  0  0
  -21.8816   -3.8145   23.4351 C   0  0  0  0  0  0
  -21.9189   -4.6959   22.3406 C   0  0  0  0  0  0
  -22.7847  -13.5241   21.1864 C   0  0  0  0  0  0
  -22.1664   -4.2143   21.0986 F   0  0  0  0  0  0
  -21.5624   -3.4545   25.7744 F   0  0  0  0  0  0
  -30.0223  -13.3590   20.4227 N   0  0  0  0  0  0
  -26.2978  -12.9334   20.3316 N   0  0  0  0  0  0
  -25.9307  -11.6493   20.5766 N   0  0  0  0  0  0
  -22.0469  -12.8251   22.0412 N   0  0  0  0  0  0
  -25.4239  -15.1888   20.4136 N   0  0  0  0  0  0
  -31.8875  -14.6240   20.2168 O   0  0  0  0  0  0
  -21.6642   -6.8872   21.4247 O   0  0  0  0  0  0
  -22.3545  -14.5553   20.6711 O   0  0  0  0  0  0
  -24.6172  -31.8664   23.2092 C   0  0  0  0  0  0
  -25.9061  -32.4805   23.8389 C   0  0  1  0  0  0
  -27.2275  -27.3974   20.1198 C   0  0  0  0  0  0
  -25.5927  -33.8604   24.2323 N   0  0  0  0  0  0
  -23.4081  -30.4900   21.5472 C   0  0  2  0  0  0
  -24.8580  -28.9493   20.1167 C   0  0  0  0  0  0
  -22.7419  -29.4663   22.4959 C   0  0  0  0  0  0
  -18.0279  -28.1388   22.8494 C   0  0  0  0  0  0
  -24.1485  -36.7296   23.2641 C   0  0  0  0  0  0
  -25.9403  -30.8212   21.3693 C   0  0  0  0  0  0
  -26.0187  -29.4497   20.7230 C   0  0  0  0  0  0
  -27.2091  -28.6792   20.7299 C   0  0  0  0  0  0
  -26.0604  -26.9290   19.4916 C   0  0  0  0  0  0
  -24.8744  -27.6873   19.4974 C   0  0  0  0  0  0
  -23.6220  -29.8219   20.1627 C   0  0  0  0  0  0
  -25.4104  -36.3091   24.0345 C   0  0  1  0  0  0
  -20.5871  -28.3685   23.1299 C   0  0  2  0  0  0
  -20.6762  -26.9415   22.5413 C   0  0  0  0  0  0
  -19.5738  -26.6395   21.5211 C   0  0  0  0  0  0
  -18.1925  -26.7938   22.1629 C   0  0  0  0  0  0
  -19.1528  -28.8852   23.2900 C   0  0  0  0  0  0
  -18.9459  -30.1457   23.8904 C   0  0  0  0  0  0
  -17.6463  -30.6592   24.0569 C   0  0  0  0  0  0
  -25.9038  -34.9465   23.5124 C   0  0  0  0  0  0
  -16.5354  -29.9094   23.6328 C   0  0  0  0  0  0
  -16.7270  -28.6513   23.0347 C   0  0  0  0  0  0
  -26.4488  -31.6585   25.0715 C   0  0  0  0  0  0
  -25.3762  -31.3702   26.1466 C   0  0  0  0  0  0
  -27.0316  -30.3019   24.6112 C   0  0  0  0  0  0
  -27.6053  -32.4310   25.7490 C   0  0  0  0  0  0
  -27.5573  -37.1807   24.8472 C   0  0  0  0  0  0
  -21.4148  -29.3042   22.3688 N   0  0  0  0  0  0
  -26.4281  -37.3781   23.9422 N   0  0  0  0  0  0
  -24.6729  -31.0750   22.0997 N   0  0  0  0  0  0
  -23.4167  -28.8207   23.3019 O   0  0  0  0  0  0
  -28.3350  -26.5707   20.0794 O   0  0  0  0  0  0
  -26.5593  -34.8920   22.4676 O   0  0  0  0  0  0
  -23.5361  -32.1435   23.7464 O   0  0  0  0  0  0
  -30.2756  -19.3982   19.3889 C   0  0  0  0  0  0
  -29.9290  -20.7032   19.8048 C   0  0  0  0  0  0
  -28.8712  -18.4499   21.1006 C   0  0  0  0  0  0
  -29.7399  -18.2333   20.0049 C   0  0  0  0  0  0
  -29.0061  -20.9225   20.8491 C   0  0  0  0  0  0
  -28.5067  -19.7604   21.5118 C   0  0  0  0  0  0
  -27.3391  -24.0848   21.9780 C   0  0  0  0  0  0
  -27.2997  -22.5750   21.7471 C   0  0  0  0  0  0
  -29.2995  -23.4992   20.7969 C   0  0  0  0  0  0
  -28.7587  -24.6078   21.7549 C   0  0  2  0  0  0
  -29.5075  -24.4686   23.1044 C   0  0  0  0  0  0
  -31.2625  -16.7944   18.5221 C   0  0  0  0  0  0
  -28.8140  -16.6144   18.3835 C   0  0  0  0  0  0
  -28.8716  -26.1296   21.3396 C   0  0  0  0  0  0
  -29.9687  -16.8167   19.3857 C   0  0  0  0  0  0
  -28.6100  -22.2517   21.1883 N   0  0  0  0  0  0
  -29.8724  -15.6496   20.3336 N   0  0  0  0  0  0
  -26.3774  -24.7636   22.3451 O   0  0  0  0  0  0
  -27.6555  -19.8809   22.5588 F   0  0  0  0  0  0
  -31.4698  -12.3909   19.1714 H   0  0  0  0  0  0
  -30.3008  -11.3279   19.9030 H   0  0  0  0  0  0
  -29.7577  -11.7251   17.4734 H   0  0  0  0  0  0
  -29.6773  -13.4427   17.7562 H   0  0  0  0  0  0
  -27.8484  -11.2868   18.8687 H   0  0  0  0  0  0
  -27.3772  -12.5751   17.7911 H   0  0  0  0  0  0
  -27.6608  -14.2408   19.5069 H   0  0  0  0  0  0
  -28.6784  -12.0861   21.4288 H   0  0  0  0  0  0
  -28.4721  -13.7758   21.8094 H   0  0  0  0  0  0
  -25.2734   -9.5691   22.4783 H   0  0  0  0  0  0
  -23.9991   -7.4631   22.7489 H   0  0  0  0  0  0
  -21.0818   -8.8771   19.8968 H   0  0  0  0  0  0
  -22.3678  -10.9673   19.6189 H   0  0  0  0  0  0
  -21.2015   -7.6148   23.9716 H   0  0  0  0  0  0
  -21.1489   -6.0531   25.9081 H   0  0  0  0  0  0
  -22.0590   -2.7608   23.2857 H   0  0  0  0  0  0
  -22.4055  -11.9904   22.4805 H   0  0  0  0  0  0
  -21.1102  -13.1319   22.2625 H   0  0  0  0  0  0
  -24.6479  -15.8327   20.5225 H   0  0  0  0  0  0
  -26.2606  -15.6340   20.0621 H   0  0  0  0  0  0
  -26.7128  -32.5520   23.1149 H   0  0  0  0  0  0
  -25.0091  -33.9764   25.0478 H   0  0  0  0  0  0
  -22.6982  -31.3068   21.4024 H   0  0  0  0  0  0
  -23.3741  -35.9635   23.3311 H   0  0  0  0  0  0
  -24.3568  -36.8896   22.2051 H   0  0  0  0  0  0
  -23.7247  -37.6513   23.6635 H   0  0  0  0  0  0
  -26.0617  -31.5826   20.5976 H   0  0  0  0  0  0
  -26.8259  -30.8761   21.9917 H   0  0  0  0  0  0
  -28.1029  -29.0620   21.2025 H   0  0  0  0  0  0
  -26.0651  -25.9585   19.0148 H   0  0  0  0  0  0
  -23.9859  -27.2931   19.0232 H   0  0  0  0  0  0
  -23.7398  -30.5950   19.4030 H   0  0  0  0  0  0
  -22.7447  -29.2469   19.8603 H   0  0  0  0  0  0
  -25.1283  -36.1948   25.0840 H   0  0  0  0  0  0
  -20.9988  -28.3259   24.1409 H   0  0  0  0  0  0
  -20.5649  -26.2302   23.3614 H   0  0  0  0  0  0
  -21.6639  -26.7444   22.1218 H   0  0  0  0  0  0
  -19.6897  -25.6308   21.1237 H   0  0  0  0  0  0
  -19.6670  -27.3200   20.6737 H   0  0  0  0  0  0
  -17.4194  -26.6689   21.4033 H   0  0  0  0  0  0
  -18.0324  -26.0079   22.9021 H   0  0  0  0  0  0
  -19.7934  -30.7274   24.2273 H   0  0  0  0  0  0
  -17.5018  -31.6270   24.5174 H   0  0  0  0  0  0
  -15.5353  -30.3001   23.7650 H   0  0  0  0  0  0
  -15.8671  -28.0838   22.7052 H   0  0  0  0  0  0
  -24.5931  -30.7048   25.7822 H   0  0  0  0  0  0
  -24.8960  -32.2857   26.4926 H   0  0  0  0  0  0
  -25.8130  -30.8874   27.0214 H   0  0  0  0  0  0
  -26.2866  -29.6782   24.1159 H   0  0  0  0  0  0
  -27.4055  -29.7260   25.4587 H   0  0  0  0  0  0
  -27.8714  -30.4320   23.9283 H   0  0  0  0  0  0
  -27.2660  -33.3591   26.2102 H   0  0  0  0  0  0
  -28.3854  -32.6905   25.0321 H   0  0  0  0  0  0
  -28.0730  -31.8417   26.5389 H   0  0  0  0  0  0
  -28.2612  -38.0084   24.7498 H   0  0  0  0  0  0
  -28.1048  -36.2617   24.6313 H   0  0  0  0  0  0
  -27.2293  -37.1486   25.8877 H   0  0  0  0  0  0
  -20.9307  -29.8755   21.6904 H   0  0  0  0  0  0
  -26.0163  -38.2862   24.1406 H   0  0  0  0  0  0
  -30.9389  -19.3336   18.5413 H   0  0  0  0  0  0
  -30.3491  -21.5412   19.2684 H   0  0  0  0  0  0
  -28.4306  -17.6077   21.6134 H   0  0  0  0  0  0
  -26.4993  -22.3146   21.0542 H   0  0  0  0  0  0
  -27.1230  -22.0769   22.6994 H   0  0  0  0  0  0
  -29.0676  -23.7369   19.7566 H   0  0  0  0  0  0
  -30.3827  -23.3946   20.8733 H   0  0  0  0  0  0
  -29.4523  -23.4574   23.5099 H   0  0  0  0  0  0
  -29.1008  -25.1377   23.8634 H   0  0  0  0  0  0
  -30.5642  -24.7065   22.9881 H   0  0  0  0  0  0
  -31.2037  -17.4617   17.6632 H   0  0  0  0  0  0
  -31.4431  -15.8170   18.0768 H   0  0  0  0  0  0
  -32.1447  -17.0698   19.1013 H   0  0  0  0  0  0
  -28.7820  -17.4201   17.6484 H   0  0  0  0  0  0
  -27.8412  -16.6084   18.8759 H   0  0  0  0  0  0
  -28.9138  -15.6807   17.8289 H   0  0  0  0  0  0
  -29.9290  -26.3913   21.3095 H   0  0  0  0  0  0
  -28.4639  -26.7380   22.1506 H   0  0  0  0  0  0
  -28.9329  -15.4654   20.6463 H   0  0  0  0  0  0
  1 25  1  0  0  0
  1 30  2  0  0  0
  1 87  1  0  0  0
  2  3  1  0  0  0
  2 25  1  0  0  0
  2 90  1  0  0  0
  2 91  1  0  0  0
  3  4  1  0  0  0
  3 92  1  0  0  0
  3 93  1  0  0  0
  4  5  1  0  0  0
  4 94  1  0  0  0
  4 95  1  0  0  0
  5  6  1  0  0  0
  5 26  1  0  0  0
  5 96  1  0  0  0
  6 25  1  0  0  0
  6 97  1  0  0  0
  6 98  1  0  0  0
  7  8  2  0  0  0
  7 26  1  0  0  0
  7 29  1  0  0  0
  8  9  1  0  0  0
  8 22  1  0  0  0
  9 10  1  0  0  0
  9 27  2  0  0  0
 10 11  2  0  0  0
 10 15  1  0  0  0
 11 12  1  0  0  0
 11 99  1  0  0  0
 12 13  2  0  0  0
 12100  1  0  0  0
 13 14  1  0  0  0
 13 31  1  0  0  0
 14 15  2  0  0  0
 14101  1  0  0  0
 15102  1  0  0  0
 16 17  2  0  0  0
 16 21  1  0  0  0
 16 31  1  0  0  0
 17 18  1  0  0  0
 17103  1  0  0  0
 18 19  2  0  0  0
 18104  1  0  0  0
 19 20  1  0  0  0
 19 24  1  0  0  0
 20 21  2  0  0  0
 20105  1  0  0  0
 21 23  1  0  0  0
 22 28  1  0  0  0
 22 32  2  0  0  0
 26 27  1  0  0  0
 28106  1  0  0  0
 28107  1  0  0  0
 29108  1  0  0  0
 29109  1  0  0  0
 33 34  1  0  0  0
 33 66  1  0  0  0
 33 70  2  0  0  0
 34 36  1  0  0  0
 34 59  1  0  0  0
 34110  1  0  0  0
 35 44  2  0  0  0
 35 45  1  0  0  0
 35 68  1  0  0  0
 36 56  1  0  0  0
 36111  1  0  0  0
 37 39  1  0  0  0
 37 47  1  0  0  0
 37 66  1  0  0  0
 37112  1  0  0  0
 38 43  2  0  0  0
 38 46  1  0  0  0
 38 47  1  0  0  0
 39 64  1  0  0  0
 39 67  2  0  0  0
 40 52  1  0  0  0
 40 53  2  0  0  0
 40 58  1  0  0  0
 41113  1  0  0  0
 41114  1  0  0  0
 41115  1  0  0  0
 41 48  1  0  0  0
 42 43  1  0  0  0
 42 66  1  0  0  0
 42116  1  0  0  0
 42117  1  0  0  0
 43 44  1  0  0  0
 44118  1  0  0  0
 45 46  2  0  0  0
 45119  1  0  0  0
 46120  1  0  0  0
 47121  1  0  0  0
 47122  1  0  0  0
 48 56  1  0  0  0
 48 65  1  0  0  0
 48123  1  0  0  0
 49 50  1  0  0  0
 49 53  1  0  0  0
 49 64  1  0  0  0
 49124  1  0  0  0
 50 51  1  0  0  0
 50125  1  0  0  0
 50126  1  0  0  0
 51 52  1  0  0  0
 51127  1  0  0  0
 51128  1  0  0  0
 52129  1  0  0  0
 52130  1  0  0  0
 53 54  1  0  0  0
 54 55  2  0  0  0
 54131  1  0  0  0
 55 57  1  0  0  0
 55132  1  0  0  0
 56 69  2  0  0  0
 57 58  2  0  0  0
 57133  1  0  0  0
 58134  1  0  0  0
 59 60  1  0  0  0
 59 61  1  0  0  0
 59 62  1  0  0  0
 60135  1  0  0  0
 60136  1  0  0  0
 60137  1  0  0  0
 61138  1  0  0  0
 61139  1  0  0  0
 61140  1  0  0  0
 62141  1  0  0  0
 62142  1  0  0  0
 62143  1  0  0  0
 63 65  1  0  0  0
 63144  1  0  0  0
 63145  1  0  0  0
 63146  1  0  0  0
 64147  1  0  0  0
 65148  1  0  0  0
 68 84  1  0  0  0
 71 72  2  0  0  0
 71 74  1  0  0  0
 71149  1  0  0  0
 72 75  1  0  0  0
 72150  1  0  0  0
 73 74  2  0  0  0
 73 76  1  0  0  0
 73151  1  0  0  0
 74 85  1  0  0  0
 75 76  2  0  0  0
 75 86  1  0  0  0
 76 89  1  0  0  0
 77 78  1  0  0  0
 77 80  1  0  0  0
 77 88  2  0  0  0
 78 86  1  0  0  0
 78152  1  0  0  0
 78153  1  0  0  0
 79 80  1  0  0  0
 79 86  1  0  0  0
 79154  1  0  0  0
 79155  1  0  0  0
 80 81  1  0  0  0
 80 84  1  0  0  0
 81156  1  0  0  0
 81157  1  0  0  0
 81158  1  0  0  0
 82159  1  0  0  0
 82160  1  0  0  0
 82161  1  0  0  0
 82 85  1  0  0  0
 83 85  1  0  0  0
 83162  1  0  0  0
 83163  1  0  0  0
 83164  1  0  0  0
 84165  1  0  0  0
 84166  1  0  0  0
 85 87  1  0  0  0
 87167  1  0  0  0
M  ISO  4   1 100  68 101  84 101  87 100
M  END
> <chiral flag>
0

> <version>
0

> <s_m_source_file>
/data/baiqing/PycharmProjects/Reinvent-master-3.2/result/LINK_invent/BTK/process_docking_weight1_custom_product_contain_oxygen_bond_distance_aromatic_linkinvent_7_9_3/rearranged_h_0074.sdf

> <i_m_source_file_index>
72

> <r_mmod_Potential_Energy-OPLS-2005>
125.919013977051

> <r_mmod_Stretch_Energy-OPLS-2005>
56.1008834838867

> <r_mmod_Bend_Energy-OPLS-2005>
188.882263183594

> <r_mmod_Torsional_Energy-OPLS-2005>
250.788040161133

> <r_mmod_Improper_Torsional_Energy-OPLS-2005>
12.9232044219971

> <r_mmod_Van_der_Waal_Energy-OPLS-2005>
148.876220703125

> <r_mmod_Electrostatic_Energy-OPLS-2005>
-339.89697265625

> <r_mmod_Solvation_Energy-OPLS-2005>
-224.022521972656

> <b_mmod_Minimization_Converged-OPLS-2005>
0

> <r_mmod_RMS_Derivative-OPLS-2005>
2.12022995948792

$$$$
74
                    3D
 Structure written by MMmdl.
157165  0  0  1  0            999 V2000
  -30.5963  -14.6790   20.4913 C   0  0  0  0  0  0
  -30.4454  -12.4150   19.4585 C   0  0  0  0  0  0
  -29.5126  -12.5093   18.2291 C   0  0  0  0  0  0
  -28.0360  -12.3393   18.6407 C   0  0  0  0  0  0
  -27.6528  -13.2159   19.8624 C   0  0  2  0  0  0
  -28.6974  -13.0813   20.9934 C   0  0  0  0  0  0
  -25.2559  -13.8163   20.5684 C   0  0  0  0  0  0
  -24.1826  -13.0431   20.9188 C   0  0  0  0  0  0
  -24.6395  -11.6904   20.8741 C   0  0  0  0  0  0
  -23.9063  -10.4290   21.0409 C   0  0  0  0  0  0
  -24.3615   -9.4204   21.9185 C   0  0  0  0  0  0
  -23.6289   -8.2241   22.0757 C   0  0  0  0  0  0
  -22.4271   -8.0281   21.3548 C   0  0  0  0  0  0
  -21.9906   -9.0256   20.4651 C   0  0  0  0  0  0
  -22.7237  -10.2134   20.3059 C   0  0  0  0  0  0
  -21.6851   -6.0736   22.5281 C   0  0  0  0  0  0
  -21.4014   -6.5640   23.8215 C   0  0  0  0  0  0
  -21.3658   -5.6792   24.9176 C   0  0  0  0  0  0
  -21.6044   -4.3055   24.7227 C   0  0  0  0  0  0
  -21.8817   -3.8147   23.4348 C   0  0  0  0  0  0
  -21.9192   -4.6964   22.3404 C   0  0  0  0  0  0
  -22.7849  -13.5230   21.1851 C   0  0  0  0  0  0
  -22.1660   -4.2149   21.0981 F   0  0  0  0  0  0
  -21.5628   -3.4539   25.7740 F   0  0  0  0  0  0
  -30.0100  -13.4386   20.4310 N   0  0  0  0  0  0
  -26.2986  -12.9343   20.3312 N   0  0  0  0  0  0
  -25.9322  -11.6501   20.5752 N   0  0  0  0  0  0
  -22.0485  -12.8232   22.0410 N   0  0  0  0  0  0
  -25.4260  -15.1887   20.4110 N   0  0  0  0  0  0
  -31.7581  -14.8563   20.1118 O   0  0  0  0  0  0
  -21.6635   -6.8878   21.4243 O   0  0  0  0  0  0
  -22.3539  -14.5539   20.6700 O   0  0  0  0  0  0
  -24.6274  -31.8581   23.2007 C   0  0  0  0  0  0
  -25.9113  -32.4771   23.8342 C   0  0  1  0  0  0
  -27.2274  -27.3040   20.1199 C   0  0  0  0  0  0
  -25.5919  -33.8572   24.2269 N   0  0  0  0  0  0
  -23.4220  -30.4805   21.5439 C   0  0  2  0  0  0
  -24.8689  -28.9309   20.1125 C   0  0  0  0  0  0
  -22.7480  -29.4616   22.4936 C   0  0  0  0  0  0
  -18.0286  -28.1386   22.8486 C   0  0  0  0  0  0
  -24.1489  -36.7292   23.2640 C   0  0  0  0  0  0
  -25.9640  -30.7846   21.3729 C   0  0  0  0  0  0
  -26.0386  -29.4103   20.7152 C   0  0  0  0  0  0
  -27.2209  -28.6098   20.7054 C   0  0  0  0  0  0
  -26.0319  -26.8767   19.4993 C   0  0  0  0  0  0
  -24.8682  -27.6700   19.4958 C   0  0  0  0  0  0
  -23.6374  -29.8131   20.1602 C   0  0  0  0  0  0
  -25.4114  -36.3079   24.0328 C   0  0  1  0  0  0
  -20.5886  -28.3691   23.1284 C   0  0  2  0  0  0
  -20.6775  -26.9413   22.5412 C   0  0  0  0  0  0
  -19.5752  -26.6386   21.5214 C   0  0  0  0  0  0
  -18.1932  -26.7929   22.1625 C   0  0  0  0  0  0
  -19.1538  -28.8856   23.2879 C   0  0  0  0  0  0
  -18.9461  -30.1457   23.8899 C   0  0  0  0  0  0
  -17.6461  -30.6588   24.0565 C   0  0  0  0  0  0
  -25.9051  -34.9449   23.5101 C   0  0  0  0  0  0
  -16.5353  -29.9088   23.6329 C   0  0  0  0  0  0
  -16.7274  -28.6504   23.0352 C   0  0  0  0  0  0
  -26.4494  -31.6587   25.0720 C   0  0  0  0  0  0
  -25.3723  -31.3728   26.1445 C   0  0  0  0  0  0
  -27.0344  -30.3011   24.6185 C   0  0  0  0  0  0
  -27.6049  -32.4329   25.7490 C   0  0  0  0  0  0
  -27.5578  -37.1800   24.8464 C   0  0  0  0  0  0
  -21.4192  -29.3041   22.3676 N   0  0  0  0  0  0
  -26.4292  -37.3774   23.9407 N   0  0  0  0  0  0
  -24.6900  -31.0580   22.0962 N   0  0  0  0  0  0
  -23.4196  -28.8160   23.3024 O   0  0  0  0  0  0
  -28.3510  -26.4590   20.1618 O   0  0  0  0  0  0
  -26.5628  -34.8921   22.4673 O   0  0  0  0  0  0
  -23.5434  -32.1386   23.7327 O   0  0  0  0  0  0
  -28.6296  -19.0415   19.3633 C   0  0  0  0  0  0
  -28.8108  -17.6457   19.5953 C   0  0  0  0  0  0
  -30.4847  -18.1449   21.2390 C   0  0  0  0  0  0
  -29.3481  -20.0487   20.0677 C   0  0  0  0  0  0
  -29.7533  -17.1464   20.5304 C   0  0  0  0  0  0
  -30.2927  -19.5533   21.0168 C   0  0  0  0  0  0
  -29.1717  -21.5438   19.6763 C   0  0  0  0  0  0
  -29.9352  -24.5254   21.8301 C   0  0  0  0  0  0
  -30.5429  -24.3477   19.4201 C   0  0  0  0  0  0
  -28.1644  -24.9810   20.0905 C   0  0  0  0  0  0
  -29.4287  -24.0651   20.4502 C   0  0  0  0  0  0
  -29.7668  -15.7127   20.8575 N   0  0  0  0  0  0
  -29.2335  -22.5580   20.5949 N   0  0  0  0  0  0
  -28.9419  -21.8036   18.4927 O   0  0  0  0  0  0
  -31.0387  -20.4290   21.7340 F   0  0  0  0  0  0
  -31.4851  -12.5529   19.1561 H   0  0  0  0  0  0
  -30.3938  -11.4220   19.9074 H   0  0  0  0  0  0
  -29.7837  -11.7525   17.4916 H   0  0  0  0  0  0
  -29.6470  -13.4747   17.7387 H   0  0  0  0  0  0
  -27.8812  -11.2869   18.8814 H   0  0  0  0  0  0
  -27.3797  -12.5574   17.7973 H   0  0  0  0  0  0
  -27.6665  -14.2483   19.5131 H   0  0  0  0  0  0
  -28.7182  -12.0601   21.3768 H   0  0  0  0  0  0
  -28.4351  -13.7107   21.8454 H   0  0  0  0  0  0
  -25.2761   -9.5678   22.4759 H   0  0  0  0  0  0
  -23.9998   -7.4631   22.7475 H   0  0  0  0  0  0
  -21.0837   -8.8778   19.8958 H   0  0  0  0  0  0
  -22.3699  -10.9673   19.6167 H   0  0  0  0  0  0
  -21.2008   -7.6149   23.9719 H   0  0  0  0  0  0
  -21.1480   -6.0522   25.9078 H   0  0  0  0  0  0
  -22.0597   -2.7610   23.2848 H   0  0  0  0  0  0
  -22.4093  -11.9895   22.4806 H   0  0  0  0  0  0
  -21.1107  -13.1270   22.2612 H   0  0  0  0  0  0
  -24.6562  -15.8398   20.5221 H   0  0  0  0  0  0
  -26.2716  -15.6326   20.0790 H   0  0  0  0  0  0
  -26.7182  -32.5434   23.1090 H   0  0  0  0  0  0
  -25.0046  -33.9712   25.0400 H   0  0  0  0  0  0
  -22.7165  -31.3012   21.3993 H   0  0  0  0  0  0
  -23.3750  -35.9626   23.3304 H   0  0  0  0  0  0
  -24.3580  -36.8914   22.2054 H   0  0  0  0  0  0
  -23.7245  -37.6495   23.6665 H   0  0  0  0  0  0
  -26.0965  -31.5473   20.6044 H   0  0  0  0  0  0
  -26.8439  -30.8340   22.0030 H   0  0  0  0  0  0
  -28.1197  -28.9742   21.1827 H   0  0  0  0  0  0
  -25.9717  -25.9125   19.0174 H   0  0  0  0  0  0
  -23.9711  -27.2957   19.0219 H   0  0  0  0  0  0
  -23.7579  -30.5889   19.4031 H   0  0  0  0  0  0
  -22.7568  -29.2432   19.8578 H   0  0  0  0  0  0
  -25.1294  -36.1931   25.0820 H   0  0  0  0  0  0
  -20.9977  -28.3268   24.1405 H   0  0  0  0  0  0
  -20.5680  -26.2299   23.3611 H   0  0  0  0  0  0
  -21.6644  -26.7445   22.1204 H   0  0  0  0  0  0
  -19.6915  -25.6298   21.1242 H   0  0  0  0  0  0
  -19.6690  -27.3198   20.6744 H   0  0  0  0  0  0
  -17.4200  -26.6676   21.4030 H   0  0  0  0  0  0
  -18.0333  -26.0072   22.9023 H   0  0  0  0  0  0
  -19.7938  -30.7272   24.2272 H   0  0  0  0  0  0
  -17.5016  -31.6269   24.5164 H   0  0  0  0  0  0
  -15.5353  -30.2991   23.7652 H   0  0  0  0  0  0
  -15.8673  -28.0824   22.7068 H   0  0  0  0  0  0
  -24.5898  -30.7078   25.7771 H   0  0  0  0  0  0
  -24.8914  -32.2894   26.4867 H   0  0  0  0  0  0
  -25.8043  -30.8906   27.0223 H   0  0  0  0  0  0
  -26.2925  -29.6754   24.1211 H   0  0  0  0  0  0
  -27.4043  -29.7274   25.4693 H   0  0  0  0  0  0
  -27.8790  -30.4298   23.9413 H   0  0  0  0  0  0
  -27.2657  -33.3628   26.2065 H   0  0  0  0  0  0
  -28.3857  -32.6892   25.0317 H   0  0  0  0  0  0
  -28.0722  -31.8460   26.5408 H   0  0  0  0  0  0
  -28.2598  -38.0094   24.7507 H   0  0  0  0  0  0
  -28.1071  -36.2625   24.6296 H   0  0  0  0  0  0
  -27.2297  -37.1456   25.8868 H   0  0  0  0  0  0
  -20.9373  -29.8757   21.6878 H   0  0  0  0  0  0
  -26.0173  -38.2850   24.1405 H   0  0  0  0  0  0
  -27.9094  -19.3456   18.6164 H   0  0  0  0  0  0
  -28.1976  -16.9507   19.0386 H   0  0  0  0  0  0
  -31.1925  -17.8382   21.9952 H   0  0  0  0  0  0
  -30.1873  -25.5867   21.8303 H   0  0  0  0  0  0
  -30.8325  -23.9837   22.1331 H   0  0  0  0  0  0
  -29.1803  -24.3754   22.6029 H   0  0  0  0  0  0
  -30.8138  -25.4043   19.4142 H   0  0  0  0  0  0
  -30.2292  -24.0983   18.4062 H   0  0  0  0  0  0
  -31.4489  -23.7810   19.6375 H   0  0  0  0  0  0
  -27.3461  -24.7101   20.7595 H   0  0  0  0  0  0
  -27.8361  -24.7191   19.0840 H   0  0  0  0  0  0
  -28.8664  -15.3567   21.1400 H   0  0  0  0  0  0
  -29.3415  -22.2221   21.5419 H   0  0  0  0  0  0
  1 25  1  0  0  0
  1 30  2  0  0  0
  1 82  1  0  0  0
  2  3  1  0  0  0
  2 25  1  0  0  0
  2 86  1  0  0  0
  2 87  1  0  0  0
  3  4  1  0  0  0
  3 88  1  0  0  0
  3 89  1  0  0  0
  4  5  1  0  0  0
  4 90  1  0  0  0
  4 91  1  0  0  0
  5  6  1  0  0  0
  5 26  1  0  0  0
  5 92  1  0  0  0
  6 25  1  0  0  0
  6 93  1  0  0  0
  6 94  1  0  0  0
  7  8  2  0  0  0
  7 26  1  0  0  0
  7 29  1  0  0  0
  8  9  1  0  0  0
  8 22  1  0  0  0
  9 10  1  0  0  0
  9 27  2  0  0  0
 10 11  2  0  0  0
 10 15  1  0  0  0
 11 12  1  0  0  0
 11 95  1  0  0  0
 12 13  2  0  0  0
 12 96  1  0  0  0
 13 14  1  0  0  0
 13 31  1  0  0  0
 14 15  2  0  0  0
 14 97  1  0  0  0
 15 98  1  0  0  0
 16 17  2  0  0  0
 16 21  1  0  0  0
 16 31  1  0  0  0
 17 18  1  0  0  0
 17 99  1  0  0  0
 18 19  2  0  0  0
 18100  1  0  0  0
 19 20  1  0  0  0
 19 24  1  0  0  0
 20 21  2  0  0  0
 20101  1  0  0  0
 21 23  1  0  0  0
 22 28  1  0  0  0
 22 32  2  0  0  0
 26 27  1  0  0  0
 28102  1  0  0  0
 28103  1  0  0  0
 29104  1  0  0  0
 29105  1  0  0  0
 33 34  1  0  0  0
 33 66  1  0  0  0
 33 70  2  0  0  0
 34 36  1  0  0  0
 34 59  1  0  0  0
 34106  1  0  0  0
 35 44  2  0  0  0
 35 45  1  0  0  0
 35 68  1  0  0  0
 36 56  1  0  0  0
 36107  1  0  0  0
 37 39  1  0  0  0
 37 47  1  0  0  0
 37 66  1  0  0  0
 37108  1  0  0  0
 38 43  2  0  0  0
 38 46  1  0  0  0
 38 47  1  0  0  0
 39 64  1  0  0  0
 39 67  2  0  0  0
 40 52  1  0  0  0
 40 53  2  0  0  0
 40 58  1  0  0  0
 41109  1  0  0  0
 41110  1  0  0  0
 41111  1  0  0  0
 41 48  1  0  0  0
 42 43  1  0  0  0
 42 66  1  0  0  0
 42112  1  0  0  0
 42113  1  0  0  0
 43 44  1  0  0  0
 44114  1  0  0  0
 45 46  2  0  0  0
 45115  1  0  0  0
 46116  1  0  0  0
 47117  1  0  0  0
 47118  1  0  0  0
 48 56  1  0  0  0
 48 65  1  0  0  0
 48119  1  0  0  0
 49 50  1  0  0  0
 49 53  1  0  0  0
 49 64  1  0  0  0
 49120  1  0  0  0
 50 51  1  0  0  0
 50121  1  0  0  0
 50122  1  0  0  0
 51 52  1  0  0  0
 51123  1  0  0  0
 51124  1  0  0  0
 52125  1  0  0  0
 52126  1  0  0  0
 53 54  1  0  0  0
 54 55  2  0  0  0
 54127  1  0  0  0
 55 57  1  0  0  0
 55128  1  0  0  0
 56 69  2  0  0  0
 57 58  2  0  0  0
 57129  1  0  0  0
 58130  1  0  0  0
 59 60  1  0  0  0
 59 61  1  0  0  0
 59 62  1  0  0  0
 60131  1  0  0  0
 60132  1  0  0  0
 60133  1  0  0  0
 61134  1  0  0  0
 61135  1  0  0  0
 61136  1  0  0  0
 62137  1  0  0  0
 62138  1  0  0  0
 62139  1  0  0  0
 63 65  1  0  0  0
 63140  1  0  0  0
 63141  1  0  0  0
 63142  1  0  0  0
 64143  1  0  0  0
 65144  1  0  0  0
 68 80  1  0  0  0
 71 72  2  0  0  0
 71 74  1  0  0  0
 71145  1  0  0  0
 72 75  1  0  0  0
 72146  1  0  0  0
 73 75  2  0  0  0
 73 76  1  0  0  0
 73147  1  0  0  0
 74 76  2  0  0  0
 74 77  1  0  0  0
 75 82  1  0  0  0
 76 85  1  0  0  0
 77 83  1  0  0  0
 77 84  2  0  0  0
 78148  1  0  0  0
 78149  1  0  0  0
 78150  1  0  0  0
 78 81  1  0  0  0
 79 81  1  0  0  0
 79151  1  0  0  0
 79152  1  0  0  0
 79153  1  0  0  0
 80 81  1  0  0  0
 80154  1  0  0  0
 80155  1  0  0  0
 81 83  1  0  0  0
 82156  1  0  0  0
 83157  1  0  0  0
M  ISO  4   1 100  68 101  80 101  82 100
M  END
> <chiral flag>
0

> <version>
0

> <s_m_source_file>
/data/baiqing/PycharmProjects/Reinvent-master-3.2/result/LINK_invent/BTK/process_docking_weight1_custom_product_contain_oxygen_bond_distance_aromatic_linkinvent_7_9_3/rearranged_h_0074.sdf

> <i_m_source_file_index>
73

> <r_mmod_Potential_Energy-OPLS-2005>
87.624153137207

> <r_mmod_Stretch_Energy-OPLS-2005>
91.2274398803711

> <r_mmod_Bend_Energy-OPLS-2005>
153.674087524414

> <r_mmod_Torsional_Energy-OPLS-2005>
251.566345214844

> <r_mmod_Improper_Torsional_Energy-OPLS-2005>
6.62292194366455

> <r_mmod_Van_der_Waal_Energy-OPLS-2005>
136.972595214844

> <r_mmod_Electrostatic_Energy-OPLS-2005>
-390.313629150391

> <r_mmod_Solvation_Energy-OPLS-2005>
-220.279922485352

> <b_mmod_Minimization_Converged-OPLS-2005>
0

> <r_mmod_RMS_Derivative-OPLS-2005>
0.382472842931747

$$$$
75
                    3D
 Structure written by MMmdl.
158167  0  0  1  0            999 V2000
  -30.5375  -15.0578   20.4317 C   0  0  0  0  0  0
  -30.4249  -12.6919   19.4468 C   0  0  0  0  0  0
  -29.4892  -12.5272   18.2239 C   0  0  0  0  0  0
  -28.0445  -12.2669   18.6794 C   0  0  0  0  0  0
  -27.6089  -13.2408   19.8020 C   0  0  2  0  0  0
  -28.6549  -13.3707   20.9262 C   0  0  0  0  0  0
  -25.2418  -13.8169   20.5679 C   0  0  0  0  0  0
  -24.1758  -13.0405   20.9207 C   0  0  0  0  0  0
  -24.6372  -11.6893   20.8734 C   0  0  0  0  0  0
  -23.9072  -10.4259   21.0383 C   0  0  0  0  0  0
  -24.3630   -9.4175   21.9147 C   0  0  0  0  0  0
  -23.6306   -8.2213   22.0730 C   0  0  0  0  0  0
  -22.4273   -8.0238   21.3534 C   0  0  0  0  0  0
  -21.9918   -9.0205   20.4623 C   0  0  0  0  0  0
  -22.7245  -10.2078   20.3030 C   0  0  0  0  0  0
  -21.6849   -6.0694   22.5286 C   0  0  0  0  0  0
  -21.3998   -6.5621   23.8206 C   0  0  0  0  0  0
  -21.3679   -5.6788   24.9176 C   0  0  0  0  0  0
  -21.6059   -4.3052   24.7238 C   0  0  0  0  0  0
  -21.8834   -3.8126   23.4368 C   0  0  0  0  0  0
  -21.9195   -4.6925   22.3408 C   0  0  0  0  0  0
  -22.7795  -13.5174   21.1925 C   0  0  0  0  0  0
  -22.1659   -4.2115   21.0989 F   0  0  0  0  0  0
  -21.5657   -3.4542   25.7754 F   0  0  0  0  0  0
  -29.9029  -13.8153   20.2926 N   0  0  0  0  0  0
  -26.2798  -12.9390   20.3133 N   0  0  0  0  0  0
  -25.9281  -11.6535   20.5683 N   0  0  0  0  0  0
  -22.0521  -12.8077   22.0469 N   0  0  0  0  0  0
  -25.4193  -15.1887   20.4106 N   0  0  0  0  0  0
  -31.7614  -15.0362   20.2644 O   0  0  0  0  0  0
  -21.6654   -6.8822   21.4235 O   0  0  0  0  0  0
  -22.3469  -14.5496   20.6806 O   0  0  0  0  0  0
  -24.6486  -31.8331   23.1894 C   0  0  0  0  0  0
  -25.9216  -32.4646   23.8291 C   0  0  1  0  0  0
  -27.1765  -26.9938   20.1659 C   0  0  0  0  0  0
  -25.5921  -33.8462   24.2166 N   0  0  0  0  0  0
  -23.4535  -30.4562   21.5421 C   0  0  2  0  0  0
  -24.8958  -28.8611   20.1085 C   0  0  0  0  0  0
  -22.7590  -29.4474   22.4888 C   0  0  0  0  0  0
  -18.0268  -28.1278   22.8458 C   0  0  0  0  0  0
  -24.1488  -36.7244   23.2660 C   0  0  0  0  0  0
  -26.0192  -30.6544   21.4078 C   0  0  0  0  0  0
  -26.0798  -29.2534   20.7487 C   0  0  0  0  0  0
  -27.2161  -28.3383   20.7586 C   0  0  0  0  0  0
  -25.9698  -26.7440   19.4669 C   0  0  0  0  0  0
  -24.8671  -27.6287   19.4456 C   0  0  0  0  0  0
  -23.6825  -29.7892   20.1583 C   0  0  0  0  0  0
  -25.4127  -36.3009   24.0329 C   0  0  1  0  0  0
  -20.5898  -28.3661   23.1250 C   0  0  2  0  0  0
  -20.6765  -26.9346   22.5439 C   0  0  0  0  0  0
  -19.5779  -26.6326   21.5196 C   0  0  0  0  0  0
  -18.1946  -26.7839   22.1567 C   0  0  0  0  0  0
  -19.1512  -28.8796   23.2791 C   0  0  0  0  0  0
  -18.9392  -30.1391   23.8806 C   0  0  0  0  0  0
  -17.6384  -30.6494   24.0513 C   0  0  0  0  0  0
  -25.9069  -34.9368   23.5056 C   0  0  0  0  0  0
  -16.5303  -29.8950   23.6302 C   0  0  0  0  0  0
  -16.7263  -28.6352   23.0354 C   0  0  0  0  0  0
  -26.4490  -31.6562   25.0792 C   0  0  0  0  0  0
  -25.3671  -31.3750   26.1505 C   0  0  0  0  0  0
  -27.0355  -30.2950   24.6432 C   0  0  0  0  0  0
  -27.6001  -32.4384   25.7570 C   0  0  0  0  0  0
  -27.5569  -37.1785   24.8458 C   0  0  0  0  0  0
  -21.4271  -29.3013   22.3630 N   0  0  0  0  0  0
  -26.4275  -37.3740   23.9410 N   0  0  0  0  0  0
  -24.7304  -31.0032   22.1022 N   0  0  0  0  0  0
  -23.4210  -28.8020   23.3042 O   0  0  0  0  0  0
  -28.1748  -25.9127   20.2144 O   0  0  0  0  0  0
  -26.5701  -34.8867   22.4666 O   0  0  0  0  0  0
  -23.5590  -32.1295   23.7062 O   0  0  0  0  0  0
  -30.5973  -19.2581   23.6754 C   0  0  0  0  0  0
  -30.9931  -17.9314   23.6367 C   0  0  0  0  0  0
  -29.9873  -19.8298   22.5547 C   0  0  0  0  0  0
  -30.7319  -17.1740   22.4975 C   0  0  0  0  0  0
  -29.6949  -19.1634   21.3257 C   0  0  0  0  0  0
  -30.0690  -17.6375   21.3181 C   0  0  0  0  0  0
  -28.6312  -21.6525   20.7306 C   0  0  0  0  0  0
  -28.6340  -22.9090   20.0316 C   0  0  0  0  0  0
  -29.2653  -22.7328   18.7242 C   0  0  0  0  0  0
  -29.6445  -23.8085   18.0109 C   0  0  0  0  0  0
  -29.4055  -21.3149   18.1206 C   0  0  0  0  0  0
  -29.8641  -20.2045   19.1152 C   0  0  0  0  0  0
  -27.7862  -24.3554   20.3779 C   0  0  0  0  0  0
  -29.1863  -20.2679   20.4081 N   0  0  0  0  0  0
  -29.8293  -16.3326   20.4851 N   0  0  0  0  0  0
  -31.4341  -12.8954   19.0874 H   0  0  0  0  0  0
  -30.4842  -11.7630   20.0141 H   0  0  0  0  0  0
  -29.8340  -11.7052   17.5942 H   0  0  0  0  0  0
  -29.5206  -13.4207   17.5957 H   0  0  0  0  0  0
  -27.9893  -11.2355   19.0323 H   0  0  0  0  0  0
  -27.3635  -12.3223   17.8281 H   0  0  0  0  0  0
  -27.5402  -14.2106   19.3094 H   0  0  0  0  0  0
  -28.7779  -12.4376   21.4722 H   0  0  0  0  0  0
  -28.3183  -14.1158   21.6474 H   0  0  0  0  0  0
  -25.2780   -9.5639   22.4707 H   0  0  0  0  0  0
  -24.0012   -7.4605   22.7447 H   0  0  0  0  0  0
  -21.0854   -8.8700   19.8931 H   0  0  0  0  0  0
  -22.3691  -10.9588   19.6117 H   0  0  0  0  0  0
  -21.1962   -7.6133   23.9680 H   0  0  0  0  0  0
  -21.1510   -6.0531   25.9076 H   0  0  0  0  0  0
  -22.0599   -2.7593   23.2890 H   0  0  0  0  0  0
  -22.4233  -11.9706   22.4748 H   0  0  0  0  0  0
  -21.1122  -13.0989   22.2780 H   0  0  0  0  0  0
  -24.6605  -15.8508   20.5204 H   0  0  0  0  0  0
  -26.2812  -15.6220   20.1096 H   0  0  0  0  0  0
  -26.7270  -32.5143   23.0988 H   0  0  0  0  0  0
  -24.9964  -33.9575   25.0236 H   0  0  0  0  0  0
  -22.7571  -31.2872   21.4012 H   0  0  0  0  0  0
  -23.3751  -35.9560   23.3291 H   0  0  0  0  0  0
  -24.3539  -36.8922   22.2066 H   0  0  0  0  0  0
  -23.7221  -37.6437   23.6710 H   0  0  0  0  0  0
  -26.1896  -31.4029   20.6334 H   0  0  0  0  0  0
  -26.8852  -30.7066   22.0540 H   0  0  0  0  0  0
  -28.1065  -28.6363   21.2954 H   0  0  0  0  0  0
  -25.8290  -25.8154   18.9312 H   0  0  0  0  0  0
  -23.9702  -27.3467   18.9111 H   0  0  0  0  0  0
  -23.8298  -30.5769   19.4190 H   0  0  0  0  0  0
  -22.7849  -29.2590   19.8350 H   0  0  0  0  0  0
  -25.1306  -36.1874   25.0826 H   0  0  0  0  0  0
  -20.9905  -28.3217   24.1415 H   0  0  0  0  0  0
  -20.5575  -26.2283   23.3662 H   0  0  0  0  0  0
  -21.6618  -26.7274   22.1276 H   0  0  0  0  0  0
  -19.6915  -25.6217   21.1252 H   0  0  0  0  0  0
  -19.6726  -27.3089   20.6698 H   0  0  0  0  0  0
  -17.4228  -26.6585   21.3950 H   0  0  0  0  0  0
  -18.0377  -25.9933   22.8916 H   0  0  0  0  0  0
  -19.7877  -30.7205   24.2138 H   0  0  0  0  0  0
  -17.4910  -31.6202   24.5051 H   0  0  0  0  0  0
  -15.5286  -30.2804   23.7557 H   0  0  0  0  0  0
  -15.8690  -28.0609   22.7077 H   0  0  0  0  0  0
  -24.5887  -30.7042   25.7859 H   0  0  0  0  0  0
  -24.8800  -32.2895   26.4900 H   0  0  0  0  0  0
  -25.7980  -30.8995   27.0324 H   0  0  0  0  0  0
  -26.2968  -29.6733   24.1374 H   0  0  0  0  0  0
  -27.3831  -29.7235   25.5038 H   0  0  0  0  0  0
  -27.8946  -30.4175   23.9846 H   0  0  0  0  0  0
  -27.2569  -33.3731   26.2032 H   0  0  0  0  0  0
  -28.3851  -32.6895   25.0423 H   0  0  0  0  0  0
  -28.0620  -31.8609   26.5592 H   0  0  0  0  0  0
  -28.2589  -38.0094   24.7518 H   0  0  0  0  0  0
  -28.1074  -36.2606   24.6280 H   0  0  0  0  0  0
  -27.2265  -37.1449   25.8863 H   0  0  0  0  0  0
  -20.9535  -29.8758   21.6770 H   0  0  0  0  0  0
  -26.0151  -38.2814   24.1427 H   0  0  0  0  0  0
  -30.7864  -19.8575   24.5572 H   0  0  0  0  0  0
  -31.4855  -17.4803   24.4886 H   0  0  0  0  0  0
  -29.7803  -20.8764   22.7018 H   0  0  0  0  0  0
  -31.0523  -16.1503   22.6176 H   0  0  0  0  0  0
  -28.0741  -21.6356   21.6571 H   0  0  0  0  0  0
  -29.5601  -24.8118   18.4064 H   0  0  0  0  0  0
  -30.0576  -23.7117   17.0174 H   0  0  0  0  0  0
  -30.0945  -21.3304   17.2728 H   0  0  0  0  0  0
  -28.4355  -21.0233   17.7137 H   0  0  0  0  0  0
  -30.9328  -20.3242   19.2863 H   0  0  0  0  0  0
  -29.7337  -19.2124   18.6811 H   0  0  0  0  0  0
  -27.3895  -24.2453   21.3871 H   0  0  0  0  0  0
  -26.9076  -24.2085   19.7531 H   0  0  0  0  0  0
  -28.8844  -16.2386   20.1463 H   0  0  0  0  0  0
  1 25  1  0  0  0
  1 30  2  0  0  0
  1 85  1  0  0  0
  2  3  1  0  0  0
  2 25  1  0  0  0
  2 86  1  0  0  0
  2 87  1  0  0  0
  3  4  1  0  0  0
  3 88  1  0  0  0
  3 89  1  0  0  0
  4  5  1  0  0  0
  4 90  1  0  0  0
  4 91  1  0  0  0
  5  6  1  0  0  0
  5 26  1  0  0  0
  5 92  1  0  0  0
  6 25  1  0  0  0
  6 93  1  0  0  0
  6 94  1  0  0  0
  7  8  2  0  0  0
  7 26  1  0  0  0
  7 29  1  0  0  0
  8  9  1  0  0  0
  8 22  1  0  0  0
  9 10  1  0  0  0
  9 27  2  0  0  0
 10 11  2  0  0  0
 10 15  1  0  0  0
 11 12  1  0  0  0
 11 95  1  0  0  0
 12 13  2  0  0  0
 12 96  1  0  0  0
 13 14  1  0  0  0
 13 31  1  0  0  0
 14 15  2  0  0  0
 14 97  1  0  0  0
 15 98  1  0  0  0
 16 17  2  0  0  0
 16 21  1  0  0  0
 16 31  1  0  0  0
 17 18  1  0  0  0
 17 99  1  0  0  0
 18 19  2  0  0  0
 18100  1  0  0  0
 19 20  1  0  0  0
 19 24  1  0  0  0
 20 21  2  0  0  0
 20101  1  0  0  0
 21 23  1  0  0  0
 22 28  1  0  0  0
 22 32  2  0  0  0
 26 27  1  0  0  0
 28102  1  0  0  0
 28103  1  0  0  0
 29104  1  0  0  0
 29105  1  0  0  0
 33 34  1  0  0  0
 33 66  1  0  0  0
 33 70  2  0  0  0
 34 36  1  0  0  0
 34 59  1  0  0  0
 34106  1  0  0  0
 35 44  2  0  0  0
 35 45  1  0  0  0
 35 68  1  0  0  0
 36 56  1  0  0  0
 36107  1  0  0  0
 37 39  1  0  0  0
 37 47  1  0  0  0
 37 66  1  0  0  0
 37108  1  0  0  0
 38 43  2  0  0  0
 38 46  1  0  0  0
 38 47  1  0  0  0
 39 64  1  0  0  0
 39 67  2  0  0  0
 40 52  1  0  0  0
 40 53  2  0  0  0
 40 58  1  0  0  0
 41109  1  0  0  0
 41110  1  0  0  0
 41111  1  0  0  0
 41 48  1  0  0  0
 42 43  1  0  0  0
 42 66  1  0  0  0
 42112  1  0  0  0
 42113  1  0  0  0
 43 44  1  0  0  0
 44114  1  0  0  0
 45 46  2  0  0  0
 45115  1  0  0  0
 46116  1  0  0  0
 47117  1  0  0  0
 47118  1  0  0  0
 48 56  1  0  0  0
 48 65  1  0  0  0
 48119  1  0  0  0
 49 50  1  0  0  0
 49 53  1  0  0  0
 49 64  1  0  0  0
 49120  1  0  0  0
 50 51  1  0  0  0
 50121  1  0  0  0
 50122  1  0  0  0
 51 52  1  0  0  0
 51123  1  0  0  0
 51124  1  0  0  0
 52125  1  0  0  0
 52126  1  0  0  0
 53 54  1  0  0  0
 54 55  2  0  0  0
 54127  1  0  0  0
 55 57  1  0  0  0
 55128  1  0  0  0
 56 69  2  0  0  0
 57 58  2  0  0  0
 57129  1  0  0  0
 58130  1  0  0  0
 59 60  1  0  0  0
 59 61  1  0  0  0
 59 62  1  0  0  0
 60131  1  0  0  0
 60132  1  0  0  0
 60133  1  0  0  0
 61134  1  0  0  0
 61135  1  0  0  0
 61136  1  0  0  0
 62137  1  0  0  0
 62138  1  0  0  0
 62139  1  0  0  0
 63 65  1  0  0  0
 63140  1  0  0  0
 63141  1  0  0  0
 63142  1  0  0  0
 64143  1  0  0  0
 65144  1  0  0  0
 68 83  1  0  0  0
 71 72  2  0  0  0
 71 73  1  0  0  0
 71145  1  0  0  0
 72 74  1  0  0  0
 72146  1  0  0  0
 73 75  2  0  0  0
 73147  1  0  0  0
 74 76  2  0  0  0
 74148  1  0  0  0
 75 76  1  0  0  0
 75 84  1  0  0  0
 76 85  1  0  0  0
 77 78  2  0  0  0
 77 84  1  0  0  0
 77149  1  0  0  0
 78 79  1  0  0  0
 78 83  1  0  0  0
 79 80  2  0  0  0
 79 81  1  0  0  0
 80150  1  0  0  0
 80151  1  0  0  0
 81 82  1  0  0  0
 81152  1  0  0  0
 81153  1  0  0  0
 82 84  1  0  0  0
 82154  1  0  0  0
 82155  1  0  0  0
 83156  1  0  0  0
 83157  1  0  0  0
 85158  1  0  0  0
M  ISO  4   1 100  68 101  83 101  85 100
M  END
> <chiral flag>
0

> <version>
0

> <s_m_source_file>
/data/baiqing/PycharmProjects/Reinvent-master-3.2/result/LINK_invent/BTK/process_docking_weight1_custom_product_contain_oxygen_bond_distance_aromatic_linkinvent_7_9_3/rearranged_h_0074.sdf

> <i_m_source_file_index>
74

> <r_mmod_Potential_Energy-OPLS-2005>
1006.92468261719

> <r_mmod_Stretch_Energy-OPLS-2005>
426.04248046875

> <r_mmod_Bend_Energy-OPLS-2005>
403.515869140625

> <r_mmod_Torsional_Energy-OPLS-2005>
271.95068359375

> <r_mmod_Improper_Torsional_Energy-OPLS-2005>
10.6832504272461

> <r_mmod_Van_der_Waal_Energy-OPLS-2005>
161.291091918945

> <r_mmod_Electrostatic_Energy-OPLS-2005>
-373.209838867188

> <r_mmod_Solvation_Energy-OPLS-2005>
-209.014770507812

> <b_mmod_Minimization_Converged-OPLS-2005>
0

> <r_mmod_RMS_Derivative-OPLS-2005>
6.59175157546997

$$$$
76
                    3D
 Structure written by MMmdl.
159168  0  0  1  0            999 V2000
  -30.6503  -14.6988   20.5968 C   0  0  0  0  0  0
  -30.4375  -12.4584   19.4708 C   0  0  0  0  0  0
  -29.5140  -12.5401   18.2349 C   0  0  0  0  0  0
  -28.0398  -12.3475   18.6372 C   0  0  0  0  0  0
  -27.6482  -13.2230   19.8537 C   0  0  2  0  0  0
  -28.6803  -13.0916   20.9876 C   0  0  0  0  0  0
  -25.2542  -13.8181   20.5663 C   0  0  0  0  0  0
  -24.1817  -13.0440   20.9166 C   0  0  0  0  0  0
  -24.6384  -11.6912   20.8698 C   0  0  0  0  0  0
  -23.9056  -10.4295   21.0390 C   0  0  0  0  0  0
  -24.3609   -9.4216   21.9176 C   0  0  0  0  0  0
  -23.6285   -8.2253   22.0754 C   0  0  0  0  0  0
  -22.4265   -8.0284   21.3549 C   0  0  0  0  0  0
  -21.9892   -9.0255   20.4652 C   0  0  0  0  0  0
  -22.7220  -10.2135   20.3051 C   0  0  0  0  0  0
  -21.6857   -6.0730   22.5277 C   0  0  0  0  0  0
  -21.4016   -6.5634   23.8211 C   0  0  0  0  0  0
  -21.3662   -5.6789   24.9176 C   0  0  0  0  0  0
  -21.6045   -4.3053   24.7228 C   0  0  0  0  0  0
  -21.8819   -3.8140   23.4350 C   0  0  0  0  0  0
  -21.9193   -4.6956   22.3401 C   0  0  0  0  0  0
  -22.7842  -13.5235   21.1852 C   0  0  0  0  0  0
  -22.1662   -4.2139   21.0979 F   0  0  0  0  0  0
  -21.5625   -3.4537   25.7739 F   0  0  0  0  0  0
  -30.0009  -13.4813   20.4551 N   0  0  0  0  0  0
  -26.2952  -12.9366   20.3226 N   0  0  0  0  0  0
  -25.9308  -11.6512   20.5672 N   0  0  0  0  0  0
  -22.0490  -12.8234   22.0418 N   0  0  0  0  0  0
  -25.4271  -15.1906   20.4138 N   0  0  0  0  0  0
  -31.7310  -14.8786   20.0248 O   0  0  0  0  0  0
  -21.6636   -6.8873   21.4239 O   0  0  0  0  0  0
  -22.3531  -14.5548   20.6715 O   0  0  0  0  0  0
  -24.6317  -31.8556   23.1991 C   0  0  0  0  0  0
  -25.9141  -32.4756   23.8330 C   0  0  1  0  0  0
  -27.2228  -27.2673   20.1194 C   0  0  0  0  0  0
  -25.5932  -33.8557   24.2257 N   0  0  0  0  0  0
  -23.4275  -30.4798   21.5432 C   0  0  2  0  0  0
  -24.8743  -28.9301   20.1105 C   0  0  0  0  0  0
  -22.7501  -29.4607   22.4916 C   0  0  0  0  0  0
  -18.0295  -28.1385   22.8485 C   0  0  0  0  0  0
  -24.1488  -36.7286   23.2639 C   0  0  0  0  0  0
  -25.9744  -30.7705   21.3778 C   0  0  0  0  0  0
  -26.0477  -29.3942   20.7183 C   0  0  0  0  0  0
  -27.2238  -28.5760   20.7118 C   0  0  0  0  0  0
  -26.0209  -26.8733   19.4848 C   0  0  0  0  0  0
  -24.8661  -27.6766   19.4842 C   0  0  0  0  0  0
  -23.6448  -29.8157   20.1591 C   0  0  0  0  0  0
  -25.4113  -36.3070   24.0326 C   0  0  1  0  0  0
  -20.5898  -28.3696   23.1269 C   0  0  2  0  0  0
  -20.6783  -26.9413   22.5410 C   0  0  0  0  0  0
  -19.5757  -26.6383   21.5213 C   0  0  0  0  0  0
  -18.1937  -26.7929   22.1625 C   0  0  0  0  0  0
  -19.1548  -28.8858   23.2873 C   0  0  0  0  0  0
  -18.9467  -30.1460   23.8893 C   0  0  0  0  0  0
  -17.6466  -30.6585   24.0563 C   0  0  0  0  0  0
  -25.9055  -34.9440   23.5095 C   0  0  0  0  0  0
  -16.5359  -29.9083   23.6329 C   0  0  0  0  0  0
  -16.7281  -28.6500   23.0351 C   0  0  0  0  0  0
  -26.4503  -31.6579   25.0720 C   0  0  0  0  0  0
  -25.3722  -31.3735   26.1438 C   0  0  0  0  0  0
  -27.0348  -30.2995   24.6208 C   0  0  0  0  0  0
  -27.6057  -32.4317   25.7493 C   0  0  0  0  0  0
  -27.5578  -37.1795   24.8460 C   0  0  0  0  0  0
  -21.4209  -29.3044   22.3655 N   0  0  0  0  0  0
  -26.4287  -37.3770   23.9409 N   0  0  0  0  0  0
  -24.6972  -31.0528   22.0965 N   0  0  0  0  0  0
  -23.4204  -28.8145   23.3009 O   0  0  0  0  0  0
  -28.3215  -26.3730   20.1762 O   0  0  0  0  0  0
  -26.5630  -34.8918   22.4666 O   0  0  0  0  0  0
  -23.5468  -32.1372   23.7289 O   0  0  0  0  0  0
  -29.7368  -19.5530   21.9044 C   0  0  0  0  0  0
  -29.9462  -18.1585   22.1211 C   0  0  0  0  0  0
  -29.7657  -17.7599   19.7954 C   0  0  0  0  0  0
  -29.5293  -20.1618   20.6367 C   0  0  0  0  0  0
  -29.9521  -17.1727   21.0843 C   0  0  0  0  0  0
  -29.5672  -19.1778   19.5873 C   0  0  0  0  0  0
  -28.9524  -22.7182   21.3366 C   0  0  0  0  0  0
  -30.5268  -14.4777   23.5102 C   0  0  0  0  0  0
  -29.8824  -15.3968   22.7625 C   0  0  0  0  0  0
  -29.1208  -22.4003   19.2959 C   0  0  0  0  0  0
  -29.1863  -23.7444   20.1410 C   0  0  2  0  0  0
  -30.5632  -24.4046   20.2696 C   0  0  0  0  0  0
  -28.0852  -24.9068   19.9208 C   0  0  0  0  0  0
  -29.3467  -21.6373   20.5279 N   0  0  0  0  0  0
  -30.1002  -15.7039   21.3966 N   0  0  0  0  0  0
  -28.5670  -22.7606   22.4865 O   0  0  0  0  0  0
  -29.4005  -19.6032   18.3113 F   0  0  0  0  0  0
  -31.4779  -12.5908   19.1693 H   0  0  0  0  0  0
  -30.3899  -11.4644   19.9177 H   0  0  0  0  0  0
  -29.8009  -11.7893   17.4977 H   0  0  0  0  0  0
  -29.6382  -13.5098   17.7502 H   0  0  0  0  0  0
  -27.8966  -11.2941   18.8803 H   0  0  0  0  0  0
  -27.3851  -12.5560   17.7906 H   0  0  0  0  0  0
  -27.6650  -14.2582   19.5123 H   0  0  0  0  0  0
  -28.7122  -12.0672   21.3612 H   0  0  0  0  0  0
  -28.3466  -13.6929   21.8280 H   0  0  0  0  0  0
  -25.2755   -9.5691   22.4746 H   0  0  0  0  0  0
  -23.9992   -7.4642   22.7472 H   0  0  0  0  0  0
  -21.0817   -8.8775   19.8959 H   0  0  0  0  0  0
  -22.3675  -10.9670   19.6156 H   0  0  0  0  0  0
  -21.2011   -7.6143   23.9709 H   0  0  0  0  0  0
  -21.1485   -6.0522   25.9077 H   0  0  0  0  0  0
  -22.0593   -2.7597   23.2856 H   0  0  0  0  0  0
  -22.4097  -11.9894   22.4807 H   0  0  0  0  0  0
  -21.1119  -13.1280   22.2637 H   0  0  0  0  0  0
  -24.6665  -15.8502   20.5367 H   0  0  0  0  0  0
  -26.2920  -15.6305   20.1252 H   0  0  0  0  0  0
  -26.7207  -32.5408   23.1070 H   0  0  0  0  0  0
  -25.0061  -33.9685   25.0390 H   0  0  0  0  0  0
  -22.7244  -31.3026   21.3987 H   0  0  0  0  0  0
  -23.3750  -35.9618   23.3293 H   0  0  0  0  0  0
  -24.3584  -36.8917   22.2055 H   0  0  0  0  0  0
  -23.7241  -37.6485   23.6668 H   0  0  0  0  0  0
  -26.1123  -31.5323   20.6091 H   0  0  0  0  0  0
  -26.8523  -30.8191   22.0105 H   0  0  0  0  0  0
  -28.1212  -28.9273   21.2018 H   0  0  0  0  0  0
  -25.9309  -25.9186   18.9909 H   0  0  0  0  0  0
  -23.9680  -27.3145   19.0031 H   0  0  0  0  0  0
  -23.7682  -30.5925   19.4036 H   0  0  0  0  0  0
  -22.7629  -29.2492   19.8546 H   0  0  0  0  0  0
  -25.1293  -36.1915   25.0818 H   0  0  0  0  0  0
  -20.9995  -28.3278   24.1387 H   0  0  0  0  0  0
  -20.5683  -26.2303   23.3611 H   0  0  0  0  0  0
  -21.6651  -26.7438   22.1202 H   0  0  0  0  0  0
  -19.6918  -25.6292   21.1244 H   0  0  0  0  0  0
  -19.6693  -27.3193   20.6741 H   0  0  0  0  0  0
  -17.4204  -26.6677   21.4030 H   0  0  0  0  0  0
  -18.0340  -26.0072   22.9022 H   0  0  0  0  0  0
  -19.7942  -30.7282   24.2258 H   0  0  0  0  0  0
  -17.5018  -31.6265   24.5162 H   0  0  0  0  0  0
  -15.5359  -30.2984   23.7654 H   0  0  0  0  0  0
  -15.8680  -28.0820   22.7066 H   0  0  0  0  0  0
  -24.5898  -30.7081   25.7769 H   0  0  0  0  0  0
  -24.8909  -32.2907   26.4845 H   0  0  0  0  0  0
  -25.8034  -30.8925   27.0226 H   0  0  0  0  0  0
  -26.2929  -29.6740   24.1227 H   0  0  0  0  0  0
  -27.4023  -29.7261   25.4730 H   0  0  0  0  0  0
  -27.8813  -30.4267   23.9455 H   0  0  0  0  0  0
  -27.2666  -33.3623   26.2056 H   0  0  0  0  0  0
  -28.3874  -32.6866   25.0324 H   0  0  0  0  0  0
  -28.0715  -31.8448   26.5419 H   0  0  0  0  0  0
  -28.2589  -38.0099   24.7515 H   0  0  0  0  0  0
  -28.1081  -36.2631   24.6273 H   0  0  0  0  0  0
  -27.2300  -37.1430   25.8865 H   0  0  0  0  0  0
  -20.9388  -29.8766   21.6862 H   0  0  0  0  0  0
  -26.0166  -38.2843   24.1413 H   0  0  0  0  0  0
  -29.7508  -20.1898   22.7775 H   0  0  0  0  0  0
  -30.1129  -17.8755   23.1497 H   0  0  0  0  0  0
  -29.7569  -17.1188   18.9264 H   0  0  0  0  0  0
  -30.2508  -14.3289   24.5448 H   0  0  0  0  0  0
  -31.3296  -13.8631   23.1285 H   0  0  0  0  0  0
  -29.0814  -15.9723   23.2055 H   0  0  0  0  0  0
  -29.9185  -22.2947   18.5592 H   0  0  0  0  0  0
  -28.1413  -22.2022   18.8537 H   0  0  0  0  0  0
  -31.3536  -23.6734   20.4448 H   0  0  0  0  0  0
  -30.5897  -25.1123   21.0986 H   0  0  0  0  0  0
  -30.8244  -24.9499   19.3632 H   0  0  0  0  0  0
  -27.1961  -24.6274   20.4878 H   0  0  0  0  0  0
  -27.7915  -24.8388   18.8731 H   0  0  0  0  0  0
  1 25  1  0  0  0
  1 30  2  0  0  0
  1 85  1  0  0  0
  2  3  1  0  0  0
  2 25  1  0  0  0
  2 88  1  0  0  0
  2 89  1  0  0  0
  3  4  1  0  0  0
  3 90  1  0  0  0
  3 91  1  0  0  0
  4  5  1  0  0  0
  4 92  1  0  0  0
  4 93  1  0  0  0
  5  6  1  0  0  0
  5 26  1  0  0  0
  5 94  1  0  0  0
  6 25  1  0  0  0
  6 95  1  0  0  0
  6 96  1  0  0  0
  7  8  2  0  0  0
  7 26  1  0  0  0
  7 29  1  0  0  0
  8  9  1  0  0  0
  8 22  1  0  0  0
  9 10  1  0  0  0
  9 27  2  0  0  0
 10 11  2  0  0  0
 10 15  1  0  0  0
 11 12  1  0  0  0
 11 97  1  0  0  0
 12 13  2  0  0  0
 12 98  1  0  0  0
 13 14  1  0  0  0
 13 31  1  0  0  0
 14 15  2  0  0  0
 14 99  1  0  0  0
 15100  1  0  0  0
 16 17  2  0  0  0
 16 21  1  0  0  0
 16 31  1  0  0  0
 17 18  1  0  0  0
 17101  1  0  0  0
 18 19  2  0  0  0
 18102  1  0  0  0
 19 20  1  0  0  0
 19 24  1  0  0  0
 20 21  2  0  0  0
 20103  1  0  0  0
 21 23  1  0  0  0
 22 28  1  0  0  0
 22 32  2  0  0  0
 26 27  1  0  0  0
 28104  1  0  0  0
 28105  1  0  0  0
 29106  1  0  0  0
 29107  1  0  0  0
 33 34  1  0  0  0
 33 66  1  0  0  0
 33 70  2  0  0  0
 34 36  1  0  0  0
 34 59  1  0  0  0
 34108  1  0  0  0
 35 44  2  0  0  0
 35 45  1  0  0  0
 35 68  1  0  0  0
 36 56  1  0  0  0
 36109  1  0  0  0
 37 39  1  0  0  0
 37 47  1  0  0  0
 37 66  1  0  0  0
 37110  1  0  0  0
 38 43  2  0  0  0
 38 46  1  0  0  0
 38 47  1  0  0  0
 39 64  1  0  0  0
 39 67  2  0  0  0
 40 52  1  0  0  0
 40 53  2  0  0  0
 40 58  1  0  0  0
 41111  1  0  0  0
 41112  1  0  0  0
 41113  1  0  0  0
 41 48  1  0  0  0
 42 43  1  0  0  0
 42 66  1  0  0  0
 42114  1  0  0  0
 42115  1  0  0  0
 43 44  1  0  0  0
 44116  1  0  0  0
 45 46  2  0  0  0
 45117  1  0  0  0
 46118  1  0  0  0
 47119  1  0  0  0
 47120  1  0  0  0
 48 56  1  0  0  0
 48 65  1  0  0  0
 48121  1  0  0  0
 49 50  1  0  0  0
 49 53  1  0  0  0
 49 64  1  0  0  0
 49122  1  0  0  0
 50 51  1  0  0  0
 50123  1  0  0  0
 50124  1  0  0  0
 51 52  1  0  0  0
 51125  1  0  0  0
 51126  1  0  0  0
 52127  1  0  0  0
 52128  1  0  0  0
 53 54  1  0  0  0
 54 55  2  0  0  0
 54129  1  0  0  0
 55 57  1  0  0  0
 55130  1  0  0  0
 56 69  2  0  0  0
 57 58  2  0  0  0
 57131  1  0  0  0
 58132  1  0  0  0
 59 60  1  0  0  0
 59 61  1  0  0  0
 59 62  1  0  0  0
 60133  1  0  0  0
 60134  1  0  0  0
 60135  1  0  0  0
 61136  1  0  0  0
 61137  1  0  0  0
 61138  1  0  0  0
 62139  1  0  0  0
 62140  1  0  0  0
 62141  1  0  0  0
 63 65  1  0  0  0
 63142  1  0  0  0
 63143  1  0  0  0
 63144  1  0  0  0
 64145  1  0  0  0
 65146  1  0  0  0
 68 83  1  0  0  0
 71 72  2  0  0  0
 71 74  1  0  0  0
 71147  1  0  0  0
 72 75  1  0  0  0
 72148  1  0  0  0
 73 75  2  0  0  0
 73 76  1  0  0  0
 73149  1  0  0  0
 74 76  2  0  0  0
 74 84  1  0  0  0
 75 85  1  0  0  0
 76 87  1  0  0  0
 77 81  1  0  0  0
 77 84  1  0  0  0
 77 86  2  0  0  0
 78 79  2  0  0  0
 78150  1  0  0  0
 78151  1  0  0  0
 79 85  1  0  0  0
 79152  1  0  0  0
 80 81  1  0  0  0
 80 84  1  0  0  0
 80153  1  0  0  0
 80154  1  0  0  0
 81 82  1  0  0  0
 81 83  1  0  0  0
 82155  1  0  0  0
 82156  1  0  0  0
 82157  1  0  0  0
 83158  1  0  0  0
 83159  1  0  0  0
M  ISO  4   1 100  68 101  83 101  85 100
M  END
> <chiral flag>
0

> <version>
0

> <s_m_source_file>
/data/baiqing/PycharmProjects/Reinvent-master-3.2/result/LINK_invent/BTK/process_docking_weight1_custom_product_contain_oxygen_bond_distance_aromatic_linkinvent_7_9_3/rearranged_h_0074.sdf

> <i_m_source_file_index>
75

> <r_mmod_Potential_Energy-OPLS-2005>
371.6455078125

> <r_mmod_Stretch_Energy-OPLS-2005>
127.816040039062

> <r_mmod_Bend_Energy-OPLS-2005>
211.490509033203

> <r_mmod_Torsional_Energy-OPLS-2005>
299.374664306641

> <r_mmod_Improper_Torsional_Energy-OPLS-2005>
3.14572143554688

> <r_mmod_Van_der_Waal_Energy-OPLS-2005>
162.091217041016

> <r_mmod_Electrostatic_Energy-OPLS-2005>
-303.270751953125

> <r_mmod_Solvation_Energy-OPLS-2005>
-200.403839111328

> <b_mmod_Minimization_Converged-OPLS-2005>
0

> <r_mmod_RMS_Derivative-OPLS-2005>
0.905476629734039

$$$$
77
                    3D
 Structure written by MMmdl.
161170  0  0  1  0            999 V2000
  -30.6077  -14.6440   20.4978 C   0  0  0  0  0  0
  -30.4424  -12.3965   19.4468 C   0  0  0  0  0  0
  -29.5045  -12.5179   18.2229 C   0  0  0  0  0  0
  -28.0277  -12.3567   18.6371 C   0  0  0  0  0  0
  -27.6584  -13.2151   19.8755 C   0  0  2  0  0  0
  -28.7069  -13.0523   21.0000 C   0  0  0  0  0  0
  -25.2589  -13.8166   20.5722 C   0  0  0  0  0  0
  -24.1837  -13.0436   20.9180 C   0  0  0  0  0  0
  -24.6391  -11.6903   20.8742 C   0  0  0  0  0  0
  -23.9043  -10.4289   21.0390 C   0  0  0  0  0  0
  -24.3595   -9.4215   21.9177 C   0  0  0  0  0  0
  -23.6285   -8.2245   22.0746 C   0  0  0  0  0  0
  -22.4276   -8.0273   21.3531 C   0  0  0  0  0  0
  -21.9891   -9.0242   20.4638 C   0  0  0  0  0  0
  -22.7202  -10.2130   20.3047 C   0  0  0  0  0  0
  -21.6857   -6.0725   22.5270 C   0  0  0  0  0  0
  -21.4013   -6.5630   23.8202 C   0  0  0  0  0  0
  -21.3667   -5.6790   24.9169 C   0  0  0  0  0  0
  -21.6044   -4.3050   24.7226 C   0  0  0  0  0  0
  -21.8824   -3.8138   23.4348 C   0  0  0  0  0  0
  -21.9196   -4.6950   22.3402 C   0  0  0  0  0  0
  -22.7855  -13.5238   21.1859 C   0  0  0  0  0  0
  -22.1665   -4.2130   21.0979 F   0  0  0  0  0  0
  -21.5633   -3.4538   25.7741 F   0  0  0  0  0  0
  -30.0210  -13.4056   20.4391 N   0  0  0  0  0  0
  -26.3021  -12.9345   20.3392 N   0  0  0  0  0  0
  -25.9326  -11.6494   20.5787 N   0  0  0  0  0  0
  -22.0503  -12.8217   22.0415 N   0  0  0  0  0  0
  -25.4330  -15.1876   20.4128 N   0  0  0  0  0  0
  -31.7419  -14.8395   20.0472 O   0  0  0  0  0  0
  -21.6646   -6.8865   21.4232 O   0  0  0  0  0  0
  -22.3539  -14.5558   20.6737 O   0  0  0  0  0  0
  -24.6266  -31.8588   23.2024 C   0  0  0  0  0  0
  -25.9096  -32.4779   23.8353 C   0  0  1  0  0  0
  -27.2300  -27.3276   20.0975 C   0  0  0  0  0  0
  -25.5919  -33.8583   24.2268 N   0  0  0  0  0  0
  -23.4209  -30.4782   21.5480 C   0  0  2  0  0  0
  -24.8618  -28.9295   20.1066 C   0  0  0  0  0  0
  -22.7493  -29.4608   22.4991 C   0  0  0  0  0  0
  -18.0322  -28.1435   22.8411 C   0  0  0  0  0  0
  -24.1487  -36.7281   23.2638 C   0  0  0  0  0  0
  -25.9588  -30.7857   21.3729 C   0  0  0  0  0  0
  -26.0273  -29.4143   20.7118 C   0  0  0  0  0  0
  -27.2075  -28.6214   20.7026 C   0  0  0  0  0  0
  -26.0476  -26.8951   19.4609 C   0  0  0  0  0  0
  -24.8735  -27.6757   19.4723 C   0  0  0  0  0  0
  -23.6277  -29.8059   20.1643 C   0  0  0  0  0  0
  -25.4118  -36.3078   24.0323 C   0  0  1  0  0  0
  -20.5906  -28.3683   23.1304 C   0  0  2  0  0  0
  -20.6769  -26.9376   22.5486 C   0  0  0  0  0  0
  -19.5834  -26.6414   21.5182 C   0  0  0  0  0  0
  -18.1982  -26.8018   22.1516 C   0  0  0  0  0  0
  -19.1569  -28.8887   23.2841 C   0  0  0  0  0  0
  -18.9511  -30.1497   23.8830 C   0  0  0  0  0  0
  -17.6502  -30.6610   24.0523 C   0  0  0  0  0  0
  -25.9061  -34.9452   23.5104 C   0  0  0  0  0  0
  -16.5386  -29.9101   23.6318 C   0  0  0  0  0  0
  -16.7316  -28.6544   23.0298 C   0  0  0  0  0  0
  -26.4490  -31.6589   25.0724 C   0  0  0  0  0  0
  -25.3722  -31.3708   26.1444 C   0  0  0  0  0  0
  -27.0340  -30.3014   24.6191 C   0  0  0  0  0  0
  -27.6051  -32.4324   25.7496 C   0  0  0  0  0  0
  -27.5587  -37.1792   24.8476 C   0  0  0  0  0  0
  -21.4219  -29.3017   22.3693 N   0  0  0  0  0  0
  -26.4301  -37.3768   23.9405 N   0  0  0  0  0  0
  -24.6882  -31.0589   22.0980 N   0  0  0  0  0  0
  -23.4224  -28.8144   23.3065 O   0  0  0  0  0  0
  -28.3734  -26.5233   20.1914 O   0  0  0  0  0  0
  -26.5633  -34.8919   22.4673 O   0  0  0  0  0  0
  -23.5419  -32.1398   23.7333 O   0  0  0  0  0  0
  -29.1709  -18.9378   19.1376 C   0  0  0  0  0  0
  -29.2361  -19.3969   21.4978 C   0  0  0  0  0  0
  -29.5654  -17.5847   19.3764 C   0  0  0  0  0  0
  -29.6103  -18.0375   21.7390 C   0  0  0  0  0  0
  -28.9441  -19.8720   20.1925 C   0  0  0  0  0  0
  -29.7489  -17.0846   20.6929 C   0  0  0  0  0  0
  -26.8961  -21.0313   19.6539 C   0  0  0  0  0  0
  -26.0516  -22.2784   19.3709 C   0  0  0  0  0  0
  -28.8603  -22.5165   20.0652 C   0  0  0  0  0  0
  -27.9054  -23.8240   20.0314 C   0  0  1  0  0  0
  -27.3222  -24.0588   21.4487 C   0  0  0  0  0  0
  -28.5800  -25.2079   19.5393 C   0  0  0  0  0  0
  -28.2203  -21.1398   19.9634 N   0  0  0  0  0  0
  -29.8408  -15.6570   21.0064 N   0  0  0  0  0  0
  -26.8273  -23.4941   19.0672 N   0  3  0  0  0  0
  -26.3072  -19.9463   19.5930 O   0  0  0  0  0  0
  -31.4813  -12.5307   19.1392 H   0  0  0  0  0  0
  -30.3864  -11.3943   19.8762 H   0  0  0  0  0  0
  -29.7619  -11.7713   17.4698 H   0  0  0  0  0  0
  -29.6450  -13.4903   17.7484 H   0  0  0  0  0  0
  -27.8553  -11.3020   18.8534 H   0  0  0  0  0  0
  -27.3734  -12.6064   17.8009 H   0  0  0  0  0  0
  -27.6818  -14.2545   19.5499 H   0  0  0  0  0  0
  -28.7229  -12.0237   21.3633 H   0  0  0  0  0  0
  -28.4536  -13.6636   21.8669 H   0  0  0  0  0  0
  -25.2733   -9.5709   22.4754 H   0  0  0  0  0  0
  -24.0002   -7.4637   22.7454 H   0  0  0  0  0  0
  -21.0829   -8.8747   19.8939 H   0  0  0  0  0  0
  -22.3644  -10.9670   19.6167 H   0  0  0  0  0  0
  -21.2003   -7.6137   23.9696 H   0  0  0  0  0  0
  -21.1486   -6.0522   25.9070 H   0  0  0  0  0  0
  -22.0600   -2.7594   23.2855 H   0  0  0  0  0  0
  -22.4125  -11.9870   22.4794 H   0  0  0  0  0  0
  -21.1117  -13.1228   22.2639 H   0  0  0  0  0  0
  -24.6751  -15.8503   20.5328 H   0  0  0  0  0  0
  -26.2934  -15.6222   20.1045 H   0  0  0  0  0  0
  -26.7155  -32.5427   23.1091 H   0  0  0  0  0  0
  -25.0041  -33.9757   25.0394 H   0  0  0  0  0  0
  -22.7163  -31.2997   21.4032 H   0  0  0  0  0  0
  -23.3758  -35.9613   23.3311 H   0  0  0  0  0  0
  -24.3582  -36.8890   22.2055 H   0  0  0  0  0  0
  -23.7234  -37.6478   23.6658 H   0  0  0  0  0  0
  -26.1014  -31.5504   20.6067 H   0  0  0  0  0  0
  -26.8369  -30.8272   22.0080 H   0  0  0  0  0  0
  -28.1029  -28.9857   21.1887 H   0  0  0  0  0  0
  -26.0005  -25.9458   18.9606 H   0  0  0  0  0  0
  -23.9791  -27.3006   18.9904 H   0  0  0  0  0  0
  -23.7253  -30.5760   19.3973 H   0  0  0  0  0  0
  -22.7494  -29.2234   19.8802 H   0  0  0  0  0  0
  -25.1302  -36.1937   25.0817 H   0  0  0  0  0  0
  -20.9934  -28.3258   24.1460 H   0  0  0  0  0  0
  -20.5535  -26.2277   23.3713 H   0  0  0  0  0  0
  -21.6663  -26.7396   22.1357 H   0  0  0  0  0  0
  -19.6933  -25.6357   21.1118 H   0  0  0  0  0  0
  -19.6950  -27.3307   20.6783 H   0  0  0  0  0  0
  -17.4245  -26.6820   21.3891 H   0  0  0  0  0  0
  -18.0335  -26.0167   22.8909 H   0  0  0  0  0  0
  -19.8015  -30.7348   24.2104 H   0  0  0  0  0  0
  -17.5044  -31.6321   24.5087 H   0  0  0  0  0  0
  -15.5381  -30.3018   23.7621 H   0  0  0  0  0  0
  -15.8719  -28.0911   22.6901 H   0  0  0  0  0  0
  -24.5910  -30.7057   25.7742 H   0  0  0  0  0  0
  -24.8905  -32.2862   26.4890 H   0  0  0  0  0  0
  -25.8053  -30.8861   27.0199 H   0  0  0  0  0  0
  -26.2917  -29.6761   24.1214 H   0  0  0  0  0  0
  -27.4012  -29.7288   25.4710 H   0  0  0  0  0  0
  -27.8798  -30.4283   23.9432 H   0  0  0  0  0  0
  -27.2668  -33.3610   26.2105 H   0  0  0  0  0  0
  -28.3858  -32.6903   25.0332 H   0  0  0  0  0  0
  -28.0722  -31.8428   26.5396 H   0  0  0  0  0  0
  -28.2617  -38.0076   24.7524 H   0  0  0  0  0  0
  -28.1069  -36.2611   24.6303 H   0  0  0  0  0  0
  -27.2312  -37.1442   25.8881 H   0  0  0  0  0  0
  -20.9441  -29.8661   21.6809 H   0  0  0  0  0  0
  -26.0190  -38.2858   24.1361 H   0  0  0  0  0  0
  -28.9509  -19.2334   18.1216 H   0  0  0  0  0  0
  -29.0769  -20.0521   22.3443 H   0  0  0  0  0  0
  -29.6319  -16.9122   18.5314 H   0  0  0  0  0  0
  -29.7303  -17.7137   22.7631 H   0  0  0  0  0  0
  -25.4018  -22.4572   20.2270 H   0  0  0  0  0  0
  -25.3931  -22.0783   18.5268 H   0  0  0  0  0  0
  -29.4853  -22.5377   20.9571 H   0  0  0  0  0  0
  -29.5565  -22.5800   19.2289 H   0  0  0  0  0  0
  -26.5417  -24.8198   21.4363 H   0  0  0  0  0  0
  -28.0952  -24.4048   22.1364 H   0  0  0  0  0  0
  -26.8880  -23.1616   21.8897 H   0  0  0  0  0  0
  -28.4615  -25.3412   18.4630 H   0  0  0  0  0  0
  -29.6545  -25.0661   19.6525 H   0  0  0  0  0  0
  -29.0596  -15.3119   21.5449 H   0  0  0  0  0  0
  -26.1740  -24.2547   18.9770 H   0  0  0  0  0  0
  -27.2433  -23.3643   18.1556 H   0  0  0  0  0  0
  1 25  1  0  0  0
  1 30  2  0  0  0
  1 84  1  0  0  0
  2  3  1  0  0  0
  2 25  1  0  0  0
  2 87  1  0  0  0
  2 88  1  0  0  0
  3  4  1  0  0  0
  3 89  1  0  0  0
  3 90  1  0  0  0
  4  5  1  0  0  0
  4 91  1  0  0  0
  4 92  1  0  0  0
  5  6  1  0  0  0
  5 26  1  0  0  0
  5 93  1  0  0  0
  6 25  1  0  0  0
  6 94  1  0  0  0
  6 95  1  0  0  0
  7  8  2  0  0  0
  7 26  1  0  0  0
  7 29  1  0  0  0
  8  9  1  0  0  0
  8 22  1  0  0  0
  9 10  1  0  0  0
  9 27  2  0  0  0
 10 11  2  0  0  0
 10 15  1  0  0  0
 11 12  1  0  0  0
 11 96  1  0  0  0
 12 13  2  0  0  0
 12 97  1  0  0  0
 13 14  1  0  0  0
 13 31  1  0  0  0
 14 15  2  0  0  0
 14 98  1  0  0  0
 15 99  1  0  0  0
 16 17  2  0  0  0
 16 21  1  0  0  0
 16 31  1  0  0  0
 17 18  1  0  0  0
 17100  1  0  0  0
 18 19  2  0  0  0
 18101  1  0  0  0
 19 20  1  0  0  0
 19 24  1  0  0  0
 20 21  2  0  0  0
 20102  1  0  0  0
 21 23  1  0  0  0
 22 28  1  0  0  0
 22 32  2  0  0  0
 26 27  1  0  0  0
 28103  1  0  0  0
 28104  1  0  0  0
 29105  1  0  0  0
 29106  1  0  0  0
 33 34  1  0  0  0
 33 66  1  0  0  0
 33 70  2  0  0  0
 34 36  1  0  0  0
 34 59  1  0  0  0
 34107  1  0  0  0
 35 44  2  0  0  0
 35 45  1  0  0  0
 35 68  1  0  0  0
 36 56  1  0  0  0
 36108  1  0  0  0
 37 39  1  0  0  0
 37 47  1  0  0  0
 37 66  1  0  0  0
 37109  1  0  0  0
 38 43  2  0  0  0
 38 46  1  0  0  0
 38 47  1  0  0  0
 39 64  1  0  0  0
 39 67  2  0  0  0
 40 52  1  0  0  0
 40 53  2  0  0  0
 40 58  1  0  0  0
 41110  1  0  0  0
 41111  1  0  0  0
 41112  1  0  0  0
 41 48  1  0  0  0
 42 43  1  0  0  0
 42 66  1  0  0  0
 42113  1  0  0  0
 42114  1  0  0  0
 43 44  1  0  0  0
 44115  1  0  0  0
 45 46  2  0  0  0
 45116  1  0  0  0
 46117  1  0  0  0
 47118  1  0  0  0
 47119  1  0  0  0
 48 56  1  0  0  0
 48 65  1  0  0  0
 48120  1  0  0  0
 49 50  1  0  0  0
 49 53  1  0  0  0
 49 64  1  0  0  0
 49121  1  0  0  0
 50 51  1  0  0  0
 50122  1  0  0  0
 50123  1  0  0  0
 51 52  1  0  0  0
 51124  1  0  0  0
 51125  1  0  0  0
 52126  1  0  0  0
 52127  1  0  0  0
 53 54  1  0  0  0
 54 55  2  0  0  0
 54128  1  0  0  0
 55 57  1  0  0  0
 55129  1  0  0  0
 56 69  2  0  0  0
 57 58  2  0  0  0
 57130  1  0  0  0
 58131  1  0  0  0
 59 60  1  0  0  0
 59 61  1  0  0  0
 59 62  1  0  0  0
 60132  1  0  0  0
 60133  1  0  0  0
 60134  1  0  0  0
 61135  1  0  0  0
 61136  1  0  0  0
 61137  1  0  0  0
 62138  1  0  0  0
 62139  1  0  0  0
 62140  1  0  0  0
 63 65  1  0  0  0
 63141  1  0  0  0
 63142  1  0  0  0
 63143  1  0  0  0
 64144  1  0  0  0
 65145  1  0  0  0
 68 82  1  0  0  0
 71 73  2  0  0  0
 71 75  1  0  0  0
 71146  1  0  0  0
 72 74  1  0  0  0
 72 75  2  0  0  0
 72147  1  0  0  0
 73 76  1  0  0  0
 73148  1  0  0  0
 74 76  2  0  0  0
 74149  1  0  0  0
 75 83  1  0  0  0
 76 84  1  0  0  0
 77 78  1  0  0  0
 77 83  1  0  0  0
 77 86  2  0  0  0
 78 85  1  0  0  0
 78150  1  0  0  0
 78151  1  0  0  0
 79 80  1  0  0  0
 79 83  1  0  0  0
 79152  1  0  0  0
 79153  1  0  0  0
 80 81  1  0  0  0
 80 82  1  0  0  0
 80 85  1  0  0  0
 81154  1  0  0  0
 81155  1  0  0  0
 81156  1  0  0  0
 82157  1  0  0  0
 82158  1  0  0  0
 84159  1  0  0  0
 85160  1  0  0  0
 85161  1  0  0  0
M  CHG  1  85   1
M  ISO  4   1 100  68 101  82 101  84 100
M  END
> <chiral flag>
0

> <version>
0

> <s_m_source_file>
/data/baiqing/PycharmProjects/Reinvent-master-3.2/result/LINK_invent/BTK/process_docking_weight1_custom_product_contain_oxygen_bond_distance_aromatic_linkinvent_7_9_3/rearranged_h_0074.sdf

> <i_m_source_file_index>
76

> <r_mmod_Potential_Energy-OPLS-2005>
37.9794578552246

> <r_mmod_Stretch_Energy-OPLS-2005>
94.9407272338867

> <r_mmod_Bend_Energy-OPLS-2005>
170.503112792969

> <r_mmod_Torsional_Energy-OPLS-2005>
361.217834472656

> <r_mmod_Improper_Torsional_Energy-OPLS-2005>
6.08231544494629

> <r_mmod_Van_der_Waal_Energy-OPLS-2005>
143.847808837891

> <r_mmod_Electrostatic_Energy-OPLS-2005>
-279.085815429688

> <r_mmod_Solvation_Energy-OPLS-2005>
-507.039245605469

> <b_mmod_Minimization_Converged-OPLS-2005>
0

> <r_mmod_RMS_Derivative-OPLS-2005>
3.56858611106873

$$$$
78
                    3D
 Structure written by MMmdl.
165173  0  0  1  0            999 V2000
  -30.6692  -14.7265   20.5299 C   0  0  0  0  0  0
  -30.4438  -12.4662   19.4984 C   0  0  0  0  0  0
  -29.5268  -12.4927   18.2569 C   0  0  0  0  0  0
  -28.0563  -12.3029   18.6691 C   0  0  0  0  0  0
  -27.6473  -13.2303   19.8434 C   0  0  2  0  0  0
  -28.6807  -13.1988   20.9920 C   0  0  0  0  0  0
  -25.2525  -13.8213   20.5638 C   0  0  0  0  0  0
  -24.1809  -13.0442   20.9206 C   0  0  0  0  0  0
  -24.6416  -11.6961   20.8773 C   0  0  0  0  0  0
  -23.9078  -10.4322   21.0408 C   0  0  0  0  0  0
  -24.3638   -9.4259   21.9181 C   0  0  0  0  0  0
  -23.6327   -8.2266   22.0723 C   0  0  0  0  0  0
  -22.4307   -8.0287   21.3531 C   0  0  0  0  0  0
  -21.9956   -9.0255   20.4635 C   0  0  0  0  0  0
  -22.7262  -10.2156   20.3063 C   0  0  0  0  0  0
  -21.6869   -6.0745   22.5277 C   0  0  0  0  0  0
  -21.4018   -6.5644   23.8225 C   0  0  0  0  0  0
  -21.3687   -5.6777   24.9165 C   0  0  0  0  0  0
  -21.6043   -4.3042   24.7205 C   0  0  0  0  0  0
  -21.8819   -3.8159   23.4324 C   0  0  0  0  0  0
  -21.9203   -4.6967   22.3400 C   0  0  0  0  0  0
  -22.7836  -13.5246   21.1867 C   0  0  0  0  0  0
  -22.1654   -4.2175   21.0960 F   0  0  0  0  0  0
  -21.5650   -3.4525   25.7714 F   0  0  0  0  0  0
  -29.9981  -13.5279   20.4261 N   0  0  0  0  0  0
  -26.2962  -12.9426   20.3207 N   0  0  0  0  0  0
  -25.9340  -11.6599   20.5717 N   0  0  0  0  0  0
  -22.0453  -12.8238   22.0437 N   0  0  0  0  0  0
  -25.4196  -15.1932   20.4126 N   0  0  0  0  0  0
  -31.8463  -14.8043   20.1664 O   0  0  0  0  0  0
  -21.6655   -6.8890   21.4247 O   0  0  0  0  0  0
  -22.3524  -14.5527   20.6688 O   0  0  0  0  0  0
  -24.6325  -31.8525   23.1944 C   0  0  0  0  0  0
  -25.9149  -32.4722   23.8291 C   0  0  1  0  0  0
  -27.2371  -27.2634   20.1515 C   0  0  0  0  0  0
  -25.5932  -33.8510   24.2197 N   0  0  0  0  0  0
  -23.4301  -30.4704   21.5373 C   0  0  2  0  0  0
  -24.8811  -28.9130   20.1196 C   0  0  0  0  0  0
  -22.7521  -29.4558   22.4927 C   0  0  0  0  0  0
  -18.0275  -28.1398   22.8483 C   0  0  0  0  0  0
  -24.1500  -36.7303   23.2641 C   0  0  0  0  0  0
  -25.9747  -30.7732   21.3710 C   0  0  0  0  0  0
  -26.0513  -29.3904   20.7236 C   0  0  0  0  0  0
  -27.2315  -28.5816   20.7191 C   0  0  0  0  0  0
  -26.0320  -26.8404   19.5401 C   0  0  0  0  0  0
  -24.8750  -27.6468   19.5156 C   0  0  0  0  0  0
  -23.6517  -29.7984   20.1556 C   0  0  0  0  0  0
  -25.4127  -36.3038   24.0303 C   0  0  1  0  0  0
  -20.5879  -28.3698   23.1296 C   0  0  2  0  0  0
  -20.6771  -26.9425   22.5414 C   0  0  0  0  0  0
  -19.5746  -26.6395   21.5216 C   0  0  0  0  0  0
  -18.1924  -26.7937   22.1621 C   0  0  0  0  0  0
  -19.1531  -28.8866   23.2869 C   0  0  0  0  0  0
  -18.9464  -30.1472   23.8878 C   0  0  0  0  0  0
  -17.6460  -30.6596   24.0573 C   0  0  0  0  0  0
  -25.9061  -34.9412   23.5057 C   0  0  0  0  0  0
  -16.5345  -29.9105   23.6323 C   0  0  0  0  0  0
  -16.7258  -28.6521   23.0338 C   0  0  0  0  0  0
  -26.4493  -31.6565   25.0693 C   0  0  0  0  0  0
  -25.3721  -31.3771   26.1420 C   0  0  0  0  0  0
  -27.0335  -30.2970   24.6212 C   0  0  0  0  0  0
  -27.6023  -32.4326   25.7490 C   0  0  0  0  0  0
  -27.5562  -37.1812   24.8450 C   0  0  0  0  0  0
  -21.4216  -29.3024   22.3679 N   0  0  0  0  0  0
  -26.4284  -37.3750   23.9392 N   0  0  0  0  0  0
  -24.6982  -31.0502   22.0925 N   0  0  0  0  0  0
  -23.4223  -28.8135   23.3031 O   0  0  0  0  0  0
  -28.3808  -26.4245   20.1495 O   0  0  0  0  0  0
  -26.5653  -34.8903   22.4626 O   0  0  0  0  0  0
  -23.5468  -32.1314   23.7251 O   0  0  0  0  0  0
  -31.6464  -17.5836   21.5261 C   0  0  0  0  0  0
  -32.0491  -18.9230   21.7386 C   0  0  0  0  0  0
  -29.5523  -18.4160   20.6238 C   0  0  0  0  0  0
  -29.9542  -19.8060   20.7933 C   0  0  0  0  0  0
  -30.3849  -17.2781   20.9630 C   0  0  0  0  0  0
  -31.2351  -20.0157   21.3576 C   0  0  0  0  0  0
  -29.0933  -20.9907   20.3300 C   0  0  0  0  0  0
  -29.5494  -24.8843   17.4831 C   0  0  0  0  0  0
  -31.3259  -24.1429   19.0830 C   0  0  0  0  0  0
  -30.1372  -22.4502   17.6658 C   0  0  0  0  0  0
  -28.3121  -24.9261   20.3490 C   0  0  0  0  0  0
  -28.8668  -23.5568   19.6143 C   0  0  1  0  0  0
  -29.9533  -23.7685   18.4813 C   0  0  0  0  0  0
  -28.0039  -20.6739   19.6382 N   0  0  0  0  0  0
  -29.9472  -15.8685   20.8315 N   0  0  0  0  0  0
  -29.3277  -22.3568   20.4798 N   0  3  0  0  0  0
  -31.7080  -21.2716   21.5522 F   0  0  0  0  0  0
  -31.4820  -12.6027   19.1920 H   0  0  0  0  0  0
  -30.4019  -11.4967   19.9972 H   0  0  0  0  0  0
  -29.8265  -11.7074   17.5610 H   0  0  0  0  0  0
  -29.6397  -13.4355   17.7224 H   0  0  0  0  0  0
  -27.9390  -11.2634   18.9760 H   0  0  0  0  0  0
  -27.3999  -12.4450   17.8119 H   0  0  0  0  0  0
  -27.6397  -14.2453   19.4454 H   0  0  0  0  0  0
  -28.7006  -12.2249   21.4845 H   0  0  0  0  0  0
  -28.3952  -13.9194   21.7611 H   0  0  0  0  0  0
  -25.2787   -9.5730   22.4743 H   0  0  0  0  0  0
  -24.0060   -7.4669   22.7443 H   0  0  0  0  0  0
  -21.0893   -8.8795   19.8943 H   0  0  0  0  0  0
  -22.3736  -10.9684   19.6168 H   0  0  0  0  0  0
  -21.1977   -7.6155   23.9734 H   0  0  0  0  0  0
  -21.1517   -6.0498   25.9078 H   0  0  0  0  0  0
  -22.0575   -2.7626   23.2808 H   0  0  0  0  0  0
  -22.4074  -11.9938   22.4875 H   0  0  0  0  0  0
  -21.1039  -13.1228   22.2543 H   0  0  0  0  0  0
  -24.6444  -15.8384   20.5137 H   0  0  0  0  0  0
  -26.2622  -15.6384   20.0739 H   0  0  0  0  0  0
  -26.7226  -32.5380   23.1051 H   0  0  0  0  0  0
  -25.0045  -33.9642   25.0309 H   0  0  0  0  0  0
  -22.7239  -31.2879   21.3828 H   0  0  0  0  0  0
  -23.3715  -35.9677   23.3307 H   0  0  0  0  0  0
  -24.3587  -36.8925   22.2054 H   0  0  0  0  0  0
  -23.7308  -37.6527   23.6671 H   0  0  0  0  0  0
  -26.1036  -31.5335   20.5974 H   0  0  0  0  0  0
  -26.8550  -30.8296   22.0019 H   0  0  0  0  0  0
  -28.1326  -28.9523   21.1867 H   0  0  0  0  0  0
  -25.9598  -25.8706   19.0738 H   0  0  0  0  0  0
  -23.9785  -27.2792   19.0377 H   0  0  0  0  0  0
  -23.7808  -30.5654   19.3903 H   0  0  0  0  0  0
  -22.7765  -29.2221   19.8540 H   0  0  0  0  0  0
  -25.1319  -36.1853   25.0793 H   0  0  0  0  0  0
  -20.9922  -28.3270   24.1440 H   0  0  0  0  0  0
  -20.5697  -26.2313   23.3622 H   0  0  0  0  0  0
  -21.6651  -26.7477   22.1206 H   0  0  0  0  0  0
  -19.6928  -25.6309   21.1261 H   0  0  0  0  0  0
  -19.6694  -27.3200   20.6749 H   0  0  0  0  0  0
  -17.4204  -26.6663   21.4013 H   0  0  0  0  0  0
  -18.0331  -26.0079   22.9025 H   0  0  0  0  0  0
  -19.7947  -30.7287   24.2233 H   0  0  0  0  0  0
  -17.5020  -31.6268   24.5212 H   0  0  0  0  0  0
  -15.5350  -30.3017   23.7644 H   0  0  0  0  0  0
  -15.8657  -28.0849   22.7053 H   0  0  0  0  0  0
  -24.5858  -30.7151   25.7772 H   0  0  0  0  0  0
  -24.8981  -32.2984   26.4816 H   0  0  0  0  0  0
  -25.8033  -30.8965   27.0211 H   0  0  0  0  0  0
  -26.2928  -29.6731   24.1210 H   0  0  0  0  0  0
  -27.3954  -29.7213   25.4740 H   0  0  0  0  0  0
  -27.8816  -30.4191   23.9479 H   0  0  0  0  0  0
  -27.2562  -33.3597   26.2068 H   0  0  0  0  0  0
  -28.3843  -32.6942   25.0352 H   0  0  0  0  0  0
  -28.0681  -31.8476   26.5430 H   0  0  0  0  0  0
  -28.2580  -38.0105   24.7469 H   0  0  0  0  0  0
  -28.1054  -36.2638   24.6297 H   0  0  0  0  0  0
  -27.2296  -37.1489   25.8857 H   0  0  0  0  0  0
  -20.9427  -29.8747   21.6877 H   0  0  0  0  0  0
  -26.0144  -38.2809   24.1389 H   0  0  0  0  0  0
  -32.3122  -16.7914   21.8354 H   0  0  0  0  0  0
  -33.0036  -19.1166   22.2086 H   0  0  0  0  0  0
  -28.5853  -18.2048   20.1949 H   0  0  0  0  0  0
  -30.2648  -24.9673   16.6643 H   0  0  0  0  0  0
  -29.5306  -25.8640   17.9593 H   0  0  0  0  0  0
  -28.5601  -24.7162   17.0504 H   0  0  0  0  0  0
  -32.0985  -24.1516   18.3142 H   0  0  0  0  0  0
  -31.6518  -23.4287   19.8418 H   0  0  0  0  0  0
  -31.3245  -25.1353   19.5362 H   0  0  0  0  0  0
  -29.2388  -21.8361   17.6631 H   0  0  0  0  0  0
  -30.9350  -21.8251   18.0749 H   0  0  0  0  0  0
  -30.3767  -22.6131   16.6156 H   0  0  0  0  0  0
  -27.8837  -25.0710   19.3651 H   0  0  0  0  0  0
  -29.3295  -25.1041   20.6971 H   0  0  0  0  0  0
  -27.9873  -23.1778   19.0855 H   0  0  0  0  0  0
  -27.8130  -19.7044   19.4415 H   0  0  0  0  0  0
  -27.3408  -21.3654   19.3421 H   0  0  0  0  0  0
  -28.9641  -15.7127   20.9940 H   0  0  0  0  0  0
  -30.1068  -22.5798   21.0926 H   0  0  0  0  0  0
  1 25  1  0  0  0
  1 30  2  0  0  0
  1 85  1  0  0  0
  2  3  1  0  0  0
  2 25  1  0  0  0
  2 88  1  0  0  0
  2 89  1  0  0  0
  3  4  1  0  0  0
  3 90  1  0  0  0
  3 91  1  0  0  0
  4  5  1  0  0  0
  4 92  1  0  0  0
  4 93  1  0  0  0
  5  6  1  0  0  0
  5 26  1  0  0  0
  5 94  1  0  0  0
  6 25  1  0  0  0
  6 95  1  0  0  0
  6 96  1  0  0  0
  7  8  2  0  0  0
  7 26  1  0  0  0
  7 29  1  0  0  0
  8  9  1  0  0  0
  8 22  1  0  0  0
  9 10  1  0  0  0
  9 27  2  0  0  0
 10 11  2  0  0  0
 10 15  1  0  0  0
 11 12  1  0  0  0
 11 97  1  0  0  0
 12 13  2  0  0  0
 12 98  1  0  0  0
 13 14  1  0  0  0
 13 31  1  0  0  0
 14 15  2  0  0  0
 14 99  1  0  0  0
 15100  1  0  0  0
 16 17  2  0  0  0
 16 21  1  0  0  0
 16 31  1  0  0  0
 17 18  1  0  0  0
 17101  1  0  0  0
 18 19  2  0  0  0
 18102  1  0  0  0
 19 20  1  0  0  0
 19 24  1  0  0  0
 20 21  2  0  0  0
 20103  1  0  0  0
 21 23  1  0  0  0
 22 28  1  0  0  0
 22 32  2  0  0  0
 26 27  1  0  0  0
 28104  1  0  0  0
 28105  1  0  0  0
 29106  1  0  0  0
 29107  1  0  0  0
 33 34  1  0  0  0
 33 66  1  0  0  0
 33 70  2  0  0  0
 34 36  1  0  0  0
 34 59  1  0  0  0
 34108  1  0  0  0
 35 44  2  0  0  0
 35 45  1  0  0  0
 35 68  1  0  0  0
 36 56  1  0  0  0
 36109  1  0  0  0
 37 39  1  0  0  0
 37 47  1  0  0  0
 37 66  1  0  0  0
 37110  1  0  0  0
 38 43  2  0  0  0
 38 46  1  0  0  0
 38 47  1  0  0  0
 39 64  1  0  0  0
 39 67  2  0  0  0
 40 52  1  0  0  0
 40 53  2  0  0  0
 40 58  1  0  0  0
 41111  1  0  0  0
 41112  1  0  0  0
 41113  1  0  0  0
 41 48  1  0  0  0
 42 43  1  0  0  0
 42 66  1  0  0  0
 42114  1  0  0  0
 42115  1  0  0  0
 43 44  1  0  0  0
 44116  1  0  0  0
 45 46  2  0  0  0
 45117  1  0  0  0
 46118  1  0  0  0
 47119  1  0  0  0
 47120  1  0  0  0
 48 56  1  0  0  0
 48 65  1  0  0  0
 48121  1  0  0  0
 49 50  1  0  0  0
 49 53  1  0  0  0
 49 64  1  0  0  0
 49122  1  0  0  0
 50 51  1  0  0  0
 50123  1  0  0  0
 50124  1  0  0  0
 51 52  1  0  0  0
 51125  1  0  0  0
 51126  1  0  0  0
 52127  1  0  0  0
 52128  1  0  0  0
 53 54  1  0  0  0
 54 55  2  0  0  0
 54129  1  0  0  0
 55 57  1  0  0  0
 55130  1  0  0  0
 56 69  2  0  0  0
 57 58  2  0  0  0
 57131  1  0  0  0
 58132  1  0  0  0
 59 60  1  0  0  0
 59 61  1  0  0  0
 59 62  1  0  0  0
 60133  1  0  0  0
 60134  1  0  0  0
 60135  1  0  0  0
 61136  1  0  0  0
 61137  1  0  0  0
 61138  1  0  0  0
 62139  1  0  0  0
 62140  1  0  0  0
 62141  1  0  0  0
 63 65  1  0  0  0
 63142  1  0  0  0
 63143  1  0  0  0
 63144  1  0  0  0
 64145  1  0  0  0
 65146  1  0  0  0
 68 81  1  0  0  0
 71 72  2  0  0  0
 71 75  1  0  0  0
 71147  1  0  0  0
 72 76  1  0  0  0
 72148  1  0  0  0
 73 74  1  0  0  0
 73 75  2  0  0  0
 73149  1  0  0  0
 74 76  2  0  0  0
 74 77  1  0  0  0
 75 85  1  0  0  0
 76 87  1  0  0  0
 77 84  1  0  0  0
 77 86  2  0  0  0
 78150  1  0  0  0
 78151  1  0  0  0
 78152  1  0  0  0
 78 83  1  0  0  0
 79 83  1  0  0  0
 79153  1  0  0  0
 79154  1  0  0  0
 79155  1  0  0  0
 80 83  1  0  0  0
 80156  1  0  0  0
 80157  1  0  0  0
 80158  1  0  0  0
 81159  1  0  0  0
 81160  1  0  0  0
 81 82  1  0  0  0
 82 83  1  0  0  0
 82 86  1  0  0  0
 82161  1  0  0  0
 84162  1  0  0  0
 84163  1  0  0  0
 85164  1  0  0  0
 86165  1  0  0  0
M  CHG  1  86   1
M  ISO  4   1 100  68 101  81 101  85 100
M  END
> <chiral flag>
0

> <version>
0

> <s_m_source_file>
/data/baiqing/PycharmProjects/Reinvent-master-3.2/result/LINK_invent/BTK/process_docking_weight1_custom_product_contain_oxygen_bond_distance_aromatic_linkinvent_7_9_3/rearranged_h_0074.sdf

> <i_m_source_file_index>
77

> <r_mmod_Potential_Energy-OPLS-2005>
189.262954711914

> <r_mmod_Stretch_Energy-OPLS-2005>
133.421356201172

> <r_mmod_Bend_Energy-OPLS-2005>
383.517425537109

> <r_mmod_Torsional_Energy-OPLS-2005>
269.791473388672

> <r_mmod_Improper_Torsional_Energy-OPLS-2005>
5.82825517654419

> <r_mmod_Van_der_Waal_Energy-OPLS-2005>
165.435043334961

> <r_mmod_Electrostatic_Energy-OPLS-2005>
-433.327301025391

> <r_mmod_Solvation_Energy-OPLS-2005>
-414.148040771484

> <b_mmod_Minimization_Converged-OPLS-2005>
0

> <r_mmod_RMS_Derivative-OPLS-2005>
7.44576549530029

$$$$
79
                    3D
 Structure written by MMmdl.
159167  0  0  1  0            999 V2000
  -30.7261  -14.4125   20.5593 C   0  0  0  0  0  0
  -30.4234  -12.2572   19.4239 C   0  0  0  0  0  0
  -29.5022  -12.4848   18.2083 C   0  0  0  0  0  0
  -28.0193  -12.3696   18.6132 C   0  0  0  0  0  0
  -27.6714  -13.2020   19.8775 C   0  0  2  0  0  0
  -28.7070  -12.9621   21.0011 C   0  0  0  0  0  0
  -25.2639  -13.8147   20.5622 C   0  0  0  0  0  0
  -24.1872  -13.0445   20.9113 C   0  0  0  0  0  0
  -24.6408  -11.6898   20.8682 C   0  0  0  0  0  0
  -23.9067  -10.4282   21.0350 C   0  0  0  0  0  0
  -24.3591   -9.4216   21.9140 C   0  0  0  0  0  0
  -23.6258   -8.2258   22.0739 C   0  0  0  0  0  0
  -22.4243   -8.0318   21.3531 C   0  0  0  0  0  0
  -21.9870   -9.0298   20.4640 C   0  0  0  0  0  0
  -22.7228  -10.2156   20.3016 C   0  0  0  0  0  0
  -21.6852   -6.0748   22.5265 C   0  0  0  0  0  0
  -21.4030   -6.5613   23.8212 C   0  0  0  0  0  0
  -21.3647   -5.6756   24.9145 C   0  0  0  0  0  0
  -21.6038   -4.3032   24.7182 C   0  0  0  0  0  0
  -21.8820   -3.8148   23.4294 C   0  0  0  0  0  0
  -21.9195   -4.6968   22.3379 C   0  0  0  0  0  0
  -22.7899  -13.5270   21.1805 C   0  0  0  0  0  0
  -22.1662   -4.2170   21.0946 F   0  0  0  0  0  0
  -21.5612   -3.4507   25.7688 F   0  0  0  0  0  0
  -30.0502  -13.2376   20.4551 N   0  0  0  0  0  0
  -26.3075  -12.9322   20.3319 N   0  0  0  0  0  0
  -25.9330  -11.6466   20.5678 N   0  0  0  0  0  0
  -22.0501  -12.8278   22.0354 N   0  0  0  0  0  0
  -25.4419  -15.1864   20.4062 N   0  0  0  0  0  0
  -31.8494  -14.6034   20.0859 O   0  0  0  0  0  0
  -21.6617   -6.8910   21.4240 O   0  0  0  0  0  0
  -22.3600  -14.5584   20.6687 O   0  0  0  0  0  0
  -24.6116  -31.8712   23.2119 C   0  0  0  0  0  0
  -25.9032  -32.4848   23.8399 C   0  0  1  0  0  0
  -27.2440  -27.4681   20.0964 C   0  0  0  0  0  0
  -25.5904  -33.8635   24.2357 N   0  0  0  0  0  0
  -23.3963  -30.4944   21.5502 C   0  0  2  0  0  0
  -24.8442  -28.9582   20.1182 C   0  0  0  0  0  0
  -22.7371  -29.4689   22.5001 C   0  0  0  0  0  0
  -18.0261  -28.1388   22.8483 C   0  0  0  0  0  0
  -24.1486  -36.7308   23.2634 C   0  0  0  0  0  0
  -25.9189  -30.8497   21.3553 C   0  0  0  0  0  0
  -25.9990  -29.4814   20.7120 C   0  0  0  0  0  0
  -27.2007  -28.7408   20.6999 C   0  0  0  0  0  0
  -26.0701  -26.9481   19.5028 C   0  0  0  0  0  0
  -24.8729  -27.6887   19.5125 C   0  0  0  0  0  0
  -23.6040  -29.8215   20.1651 C   0  0  0  0  0  0
  -25.4097  -36.3115   24.0350 C   0  0  1  0  0  0
  -20.5843  -28.3674   23.1340 C   0  0  2  0  0  0
  -20.6764  -26.9425   22.5417 C   0  0  0  0  0  0
  -19.5754  -26.6404   21.5202 C   0  0  0  0  0  0
  -18.1920  -26.7941   22.1606 C   0  0  0  0  0  0
  -19.1502  -28.8837   23.2910 C   0  0  0  0  0  0
  -18.9435  -30.1433   23.8942 C   0  0  0  0  0  0
  -17.6454  -30.6605   24.0560 C   0  0  0  0  0  0
  -25.9025  -34.9485   23.5144 C   0  0  0  0  0  0
  -16.5339  -29.9114   23.6330 C   0  0  0  0  0  0
  -16.7252  -28.6519   23.0369 C   0  0  0  0  0  0
  -26.4473  -31.6611   25.0713 C   0  0  0  0  0  0
  -25.3771  -31.3710   26.1485 C   0  0  0  0  0  0
  -27.0269  -30.3059   24.6047 C   0  0  0  0  0  0
  -27.6104  -32.4273   25.7460 C   0  0  0  0  0  0
  -27.5582  -37.1792   24.8461 C   0  0  0  0  0  0
  -21.4100  -29.3060   22.3755 N   0  0  0  0  0  0
  -26.4271  -37.3813   23.9433 N   0  0  0  0  0  0
  -24.6604  -31.0849   22.1002 N   0  0  0  0  0  0
  -23.4167  -28.8234   23.3018 O   0  0  0  0  0  0
  -28.4349  -26.7820   20.0683 O   0  0  0  0  0  0
  -26.5571  -34.8944   22.4699 O   0  0  0  0  0  0
  -23.5316  -32.1420   23.7553 O   0  0  0  0  0  0
  -29.7259  -16.6792   18.9464 C   0  0  0  0  0  0
  -29.4755  -17.8743   18.2588 C   0  0  0  0  0  0
  -29.7557  -17.8866   21.0606 C   0  0  0  0  0  0
  -29.8522  -16.6674   20.3544 C   0  0  0  0  0  0
  -29.3566  -19.0914   18.9524 C   0  0  0  0  0  0
  -29.5292  -19.1026   20.3689 C   0  0  0  0  0  0
  -29.7570  -24.7855   20.4749 C   0  0  0  0  0  0
  -28.3677  -25.4297   20.5077 C   0  0  0  0  0  0
  -31.1148  -22.9502   21.5092 C   0  0  0  0  0  0
  -30.8743  -21.6610   20.6990 C   0  0  0  0  0  0
  -29.0718  -20.2222   18.1783 N   0  0  0  0  0  0
  -30.0101  -15.4357   21.0496 N   0  0  0  0  0  0
  -29.9968  -23.8859   21.4328 N   0  0  0  0  0  0
  -30.5710  -25.0572   19.5863 O   0  0  0  0  0  0
  -28.2308  -21.3386   21.0680 O   0  0  0  0  0  0
  -29.8049  -20.3104   22.7531 O   0  0  0  0  0  0
  -29.4929  -20.6268   21.3468 S   0  0  0  0  0  0
  -31.4739  -12.3218   19.1303 H   0  0  0  0  0  0
  -30.2934  -11.2456   19.8088 H   0  0  0  0  0  0
  -29.7280  -11.7547   17.4292 H   0  0  0  0  0  0
  -29.6960  -13.4644   17.7696 H   0  0  0  0  0  0
  -27.8166  -11.3159   18.8028 H   0  0  0  0  0  0
  -27.3812  -12.6634   17.7786 H   0  0  0  0  0  0
  -27.7261  -14.2521   19.5872 H   0  0  0  0  0  0
  -28.6582  -11.9253   21.3361 H   0  0  0  0  0  0
  -28.4770  -13.5642   21.8815 H   0  0  0  0  0  0
  -25.2727   -9.5698   22.4734 H   0  0  0  0  0  0
  -23.9968   -7.4632   22.7442 H   0  0  0  0  0  0
  -21.0813   -8.8861   19.8941 H   0  0  0  0  0  0
  -22.3712  -10.9706   19.6139 H   0  0  0  0  0  0
  -21.2068   -7.6133   23.9722 H   0  0  0  0  0  0
  -21.1448   -6.0474   25.9055 H   0  0  0  0  0  0
  -22.0620   -2.7622   23.2769 H   0  0  0  0  0  0
  -22.4042  -11.9928   22.4773 H   0  0  0  0  0  0
  -21.1170  -13.1437   22.2586 H   0  0  0  0  0  0
  -24.6777  -15.8455   20.5094 H   0  0  0  0  0  0
  -26.3051  -15.6224   20.1087 H   0  0  0  0  0  0
  -26.7118  -32.5602   23.1185 H   0  0  0  0  0  0
  -25.0106  -33.9799   25.0535 H   0  0  0  0  0  0
  -22.6802  -31.3072   21.4101 H   0  0  0  0  0  0
  -23.3763  -35.9621   23.3265 H   0  0  0  0  0  0
  -24.3602  -36.8946   22.2057 H   0  0  0  0  0  0
  -23.7214  -37.6497   23.6655 H   0  0  0  0  0  0
  -26.0125  -31.6123   20.5808 H   0  0  0  0  0  0
  -26.8146  -30.9178   21.9620 H   0  0  0  0  0  0
  -28.0932  -29.1391   21.1619 H   0  0  0  0  0  0
  -26.0780  -25.9841   19.0154 H   0  0  0  0  0  0
  -23.9867  -27.2814   19.0456 H   0  0  0  0  0  0
  -23.7060  -30.5917   19.3984 H   0  0  0  0  0  0
  -22.7294  -29.2352   19.8773 H   0  0  0  0  0  0
  -25.1263  -36.1966   25.0837 H   0  0  0  0  0  0
  -20.9922  -28.3244   24.1468 H   0  0  0  0  0  0
  -20.5674  -26.2280   23.3588 H   0  0  0  0  0  0
  -21.6643  -26.7502   22.1227 H   0  0  0  0  0  0
  -19.6930  -25.6311   21.1249 H   0  0  0  0  0  0
  -19.6705  -27.3196   20.6716 H   0  0  0  0  0  0
  -17.4190  -26.6663   21.4011 H   0  0  0  0  0  0
  -18.0333  -26.0086   22.9014 H   0  0  0  0  0  0
  -19.7909  -30.7202   24.2373 H   0  0  0  0  0  0
  -17.5024  -31.6306   24.5130 H   0  0  0  0  0  0
  -15.5345  -30.3042   23.7631 H   0  0  0  0  0  0
  -15.8639  -28.0845   22.7116 H   0  0  0  0  0  0
  -24.5927  -30.7084   25.7807 H   0  0  0  0  0  0
  -24.8990  -32.2868   26.4970 H   0  0  0  0  0  0
  -25.8150  -30.8829   27.0206 H   0  0  0  0  0  0
  -26.2764  -29.6832   24.1171 H   0  0  0  0  0  0
  -27.4110  -29.7291   25.4468 H   0  0  0  0  0  0
  -27.8580  -30.4362   23.9115 H   0  0  0  0  0  0
  -27.2824  -33.3609   26.2043 H   0  0  0  0  0  0
  -28.3941  -32.6757   25.0289 H   0  0  0  0  0  0
  -28.0756  -31.8368   26.5371 H   0  0  0  0  0  0
  -28.2574  -38.0115   24.7566 H   0  0  0  0  0  0
  -28.1095  -36.2654   24.6192 H   0  0  0  0  0  0
  -27.2327  -37.1363   25.8868 H   0  0  0  0  0  0
  -20.9226  -29.8761   21.6986 H   0  0  0  0  0  0
  -26.0157  -38.2878   24.1470 H   0  0  0  0  0  0
  -29.8021  -15.7700   18.3703 H   0  0  0  0  0  0
  -29.3654  -17.8403   17.1829 H   0  0  0  0  0  0
  -29.8508  -17.8980   22.1363 H   0  0  0  0  0  0
  -27.9767  -25.4060   21.5262 H   0  0  0  0  0  0
  -27.7131  -24.8174   19.8887 H   0  0  0  0  0  0
  -32.0297  -23.4418   21.1718 H   0  0  0  0  0  0
  -31.2750  -22.7007   22.5574 H   0  0  0  0  0  0
  -31.7670  -21.0372   20.7218 H   0  0  0  0  0  0
  -30.6776  -21.8762   19.6495 H   0  0  0  0  0  0
  -28.7213  -20.0533   17.2413 H   0  0  0  0  0  0
  -28.5727  -20.9810   18.6347 H   0  0  0  0  0  0
  -29.2310  -15.1638   21.6325 H   0  0  0  0  0  0
  -29.2844  -23.7969   22.1464 H   0  0  0  0  0  0
  1 25  1  0  0  0
  1 30  2  0  0  0
  1 82  1  0  0  0
  2  3  1  0  0  0
  2 25  1  0  0  0
  2 88  1  0  0  0
  2 89  1  0  0  0
  3  4  1  0  0  0
  3 90  1  0  0  0
  3 91  1  0  0  0
  4  5  1  0  0  0
  4 92  1  0  0  0
  4 93  1  0  0  0
  5  6  1  0  0  0
  5 26  1  0  0  0
  5 94  1  0  0  0
  6 25  1  0  0  0
  6 95  1  0  0  0
  6 96  1  0  0  0
  7  8  2  0  0  0
  7 26  1  0  0  0
  7 29  1  0  0  0
  8  9  1  0  0  0
  8 22  1  0  0  0
  9 10  1  0  0  0
  9 27  2  0  0  0
 10 11  2  0  0  0
 10 15  1  0  0  0
 11 12  1  0  0  0
 11 97  1  0  0  0
 12 13  2  0  0  0
 12 98  1  0  0  0
 13 14  1  0  0  0
 13 31  1  0  0  0
 14 15  2  0  0  0
 14 99  1  0  0  0
 15100  1  0  0  0
 16 17  2  0  0  0
 16 21  1  0  0  0
 16 31  1  0  0  0
 17 18  1  0  0  0
 17101  1  0  0  0
 18 19  2  0  0  0
 18102  1  0  0  0
 19 20  1  0  0  0
 19 24  1  0  0  0
 20 21  2  0  0  0
 20103  1  0  0  0
 21 23  1  0  0  0
 22 28  1  0  0  0
 22 32  2  0  0  0
 26 27  1  0  0  0
 28104  1  0  0  0
 28105  1  0  0  0
 29106  1  0  0  0
 29107  1  0  0  0
 33 34  1  0  0  0
 33 66  1  0  0  0
 33 70  2  0  0  0
 34 36  1  0  0  0
 34 59  1  0  0  0
 34108  1  0  0  0
 35 44  2  0  0  0
 35 45  1  0  0  0
 35 68  1  0  0  0
 36 56  1  0  0  0
 36109  1  0  0  0
 37 39  1  0  0  0
 37 47  1  0  0  0
 37 66  1  0  0  0
 37110  1  0  0  0
 38 43  2  0  0  0
 38 46  1  0  0  0
 38 47  1  0  0  0
 39 64  1  0  0  0
 39 67  2  0  0  0
 40 52  1  0  0  0
 40 53  2  0  0  0
 40 58  1  0  0  0
 41111  1  0  0  0
 41112  1  0  0  0
 41113  1  0  0  0
 41 48  1  0  0  0
 42 43  1  0  0  0
 42 66  1  0  0  0
 42114  1  0  0  0
 42115  1  0  0  0
 43 44  1  0  0  0
 44116  1  0  0  0
 45 46  2  0  0  0
 45117  1  0  0  0
 46118  1  0  0  0
 47119  1  0  0  0
 47120  1  0  0  0
 48 56  1  0  0  0
 48 65  1  0  0  0
 48121  1  0  0  0
 49 50  1  0  0  0
 49 53  1  0  0  0
 49 64  1  0  0  0
 49122  1  0  0  0
 50 51  1  0  0  0
 50123  1  0  0  0
 50124  1  0  0  0
 51 52  1  0  0  0
 51125  1  0  0  0
 51126  1  0  0  0
 52127  1  0  0  0
 52128  1  0  0  0
 53 54  1  0  0  0
 54 55  2  0  0  0
 54129  1  0  0  0
 55 57  1  0  0  0
 55130  1  0  0  0
 56 69  2  0  0  0
 57 58  2  0  0  0
 57131  1  0  0  0
 58132  1  0  0  0
 59 60  1  0  0  0
 59 61  1  0  0  0
 59 62  1  0  0  0
 60133  1  0  0  0
 60134  1  0  0  0
 60135  1  0  0  0
 61136  1  0  0  0
 61137  1  0  0  0
 61138  1  0  0  0
 62139  1  0  0  0
 62140  1  0  0  0
 62141  1  0  0  0
 63 65  1  0  0  0
 63142  1  0  0  0
 63143  1  0  0  0
 63144  1  0  0  0
 64145  1  0  0  0
 65146  1  0  0  0
 68 78  1  0  0  0
 71 72  2  0  0  0
 71 74  1  0  0  0
 71147  1  0  0  0
 72 75  1  0  0  0
 72148  1  0  0  0
 73 74  2  0  0  0
 73 76  1  0  0  0
 73149  1  0  0  0
 74 82  1  0  0  0
 75 76  2  0  0  0
 75 81  1  0  0  0
 76 87  1  0  0  0
 77 78  1  0  0  0
 77 83  1  0  0  0
 77 84  2  0  0  0
 78150  1  0  0  0
 78151  1  0  0  0
 79 80  1  0  0  0
 79 83  1  0  0  0
 79152  1  0  0  0
 79153  1  0  0  0
 80154  1  0  0  0
 80155  1  0  0  0
 80 87  1  0  0  0
 81156  1  0  0  0
 81157  1  0  0  0
 82158  1  0  0  0
 83159  1  0  0  0
 85 87  2  0  0  0
 86 87  2  0  0  0
M  ISO  4   1 100  68 101  78 101  82 100
M  END
> <chiral flag>
0

> <version>
0

> <s_m_source_file>
/data/baiqing/PycharmProjects/Reinvent-master-3.2/result/LINK_invent/BTK/process_docking_weight1_custom_product_contain_oxygen_bond_distance_aromatic_linkinvent_7_9_3/rearranged_h_0074.sdf

> <i_m_source_file_index>
78

> <r_mmod_Potential_Energy-OPLS-2005>
-46.1848640441895

> <r_mmod_Stretch_Energy-OPLS-2005>
34.6491889953613

> <r_mmod_Bend_Energy-OPLS-2005>
96.3451843261719

> <r_mmod_Torsional_Energy-OPLS-2005>
261.579254150391

> <r_mmod_Improper_Torsional_Energy-OPLS-2005>
10.8528623580933

> <r_mmod_Van_der_Waal_Energy-OPLS-2005>
143.091064453125

> <r_mmod_Electrostatic_Energy-OPLS-2005>
-317.336669921875

> <r_mmod_Solvation_Energy-OPLS-2005>
-285.027008056641

> <b_mmod_Minimization_Converged-OPLS-2005>
0

> <r_mmod_RMS_Derivative-OPLS-2005>
4.13253784179688

$$$$
80
                    3D
 Structure written by MMmdl.
165174  0  0  1  0            999 V2000
  -30.7495  -14.5355   20.5763 C   0  0  0  0  0  0
  -30.3980  -12.3500   19.4485 C   0  0  0  0  0  0
  -29.4735  -12.5308   18.2271 C   0  0  0  0  0  0
  -28.0006  -12.3878   18.6408 C   0  0  0  0  0  0
  -27.6525  -13.2340   19.8953 C   0  0  2  0  0  0
  -28.7080  -13.0888   21.0212 C   0  0  0  0  0  0
  -25.2532  -13.8200   20.5752 C   0  0  0  0  0  0
  -24.1780  -13.0427   20.9149 C   0  0  0  0  0  0
  -24.6399  -11.6913   20.8733 C   0  0  0  0  0  0
  -23.9096  -10.4285   21.0355 C   0  0  0  0  0  0
  -24.3657   -9.4220   21.9150 C   0  0  0  0  0  0
  -23.6357   -8.2252   22.0781 C   0  0  0  0  0  0
  -22.4329   -8.0288   21.3617 C   0  0  0  0  0  0
  -21.9878   -9.0271   20.4768 C   0  0  0  0  0  0
  -22.7206  -10.2134   20.3109 C   0  0  0  0  0  0
  -21.6930   -6.0722   22.5279 C   0  0  0  0  0  0
  -21.4124   -6.5593   23.8224 C   0  0  0  0  0  0
  -21.3662   -5.6727   24.9163 C   0  0  0  0  0  0
  -21.6050   -4.3000   24.7189 C   0  0  0  0  0  0
  -21.8846   -3.8099   23.4310 C   0  0  0  0  0  0
  -21.9235   -4.6947   22.3395 C   0  0  0  0  0  0
  -22.7816  -13.5213   21.1803 C   0  0  0  0  0  0
  -22.1648   -4.2164   21.0958 F   0  0  0  0  0  0
  -21.5602   -3.4432   25.7673 F   0  0  0  0  0  0
  -30.0330  -13.3744   20.4490 N   0  0  0  0  0  0
  -26.3005  -12.9395   20.3559 N   0  0  0  0  0  0
  -25.9376  -11.6526   20.5920 N   0  0  0  0  0  0
  -22.0543  -12.8115   22.0366 N   0  0  0  0  0  0
  -25.4273  -15.1883   20.4052 N   0  0  0  0  0  0
  -31.8536  -14.6381   20.0423 O   0  0  0  0  0  0
  -21.6720   -6.8882   21.4256 O   0  0  0  0  0  0
  -22.3481  -14.5547   20.6699 O   0  0  0  0  0  0
  -24.6194  -31.8618   23.2093 C   0  0  0  0  0  0
  -25.9055  -32.4800   23.8403 C   0  0  1  0  0  0
  -27.2231  -27.3909   20.1208 C   0  0  0  0  0  0
  -25.5890  -33.8599   24.2337 N   0  0  0  0  0  0
  -23.4094  -30.4829   21.5530 C   0  0  2  0  0  0
  -24.8569  -28.9473   20.1086 C   0  0  0  0  0  0
  -22.7465  -29.4592   22.5031 C   0  0  0  0  0  0
  -18.0273  -28.1353   22.8496 C   0  0  0  0  0  0
  -24.1488  -36.7329   23.2644 C   0  0  0  0  0  0
  -25.9420  -30.8170   21.3638 C   0  0  0  0  0  0
  -26.0198  -29.4486   20.7107 C   0  0  0  0  0  0
  -27.2100  -28.6816   20.7048 C   0  0  0  0  0  0
  -26.0482  -26.9103   19.5081 C   0  0  0  0  0  0
  -24.8703  -27.6831   19.4919 C   0  0  0  0  0  0
  -23.6167  -29.8148   20.1659 C   0  0  0  0  0  0
  -25.4098  -36.3107   24.0350 C   0  0  1  0  0  0
  -20.5873  -28.3616   23.1349 C   0  0  2  0  0  0
  -20.6758  -26.9352   22.5434 C   0  0  0  0  0  0
  -19.5739  -26.6362   21.5224 C   0  0  0  0  0  0
  -18.1920  -26.7899   22.1634 C   0  0  0  0  0  0
  -19.1525  -28.8813   23.2905 C   0  0  0  0  0  0
  -18.9443  -30.1433   23.8891 C   0  0  0  0  0  0
  -17.6438  -30.6559   24.0549 C   0  0  0  0  0  0
  -25.9024  -34.9468   23.5145 C   0  0  0  0  0  0
  -16.5331  -29.9047   23.6325 C   0  0  0  0  0  0
  -16.7258  -28.6468   23.0339 C   0  0  0  0  0  0
  -26.4469  -31.6576   25.0740 C   0  0  0  0  0  0
  -25.3759  -31.3665   26.1515 C   0  0  0  0  0  0
  -27.0294  -30.3023   24.6105 C   0  0  0  0  0  0
  -27.6050  -32.4299   25.7491 C   0  0  0  0  0  0
  -27.5579  -37.1819   24.8464 C   0  0  0  0  0  0
  -21.4189  -29.2976   22.3769 N   0  0  0  0  0  0
  -26.4290  -37.3786   23.9414 N   0  0  0  0  0  0
  -24.6765  -31.0688   22.1007 N   0  0  0  0  0  0
  -23.4217  -28.8132   23.3088 O   0  0  0  0  0  0
  -28.3391  -26.5772   20.1515 O   0  0  0  0  0  0
  -26.5603  -34.8916   22.4721 O   0  0  0  0  0  0
  -23.5377  -32.1380   23.7471 O   0  0  0  0  0  0
  -27.2298  -18.6798   22.1530 C   0  0  0  0  0  0
  -28.2436  -17.7074   22.0492 C   0  0  0  0  0  0
  -27.4659  -20.0134   21.7647 C   0  0  0  0  0  0
  -29.7454  -19.4058   21.1775 C   0  0  0  0  0  0
  -29.5282  -18.0405   21.5564 C   0  0  0  0  0  0
  -28.7302  -20.4085   21.2695 C   0  0  0  0  0  0
  -29.6918  -23.7353   19.9354 C   0  0  0  0  0  0
  -28.7445  -24.1371   20.7922 C   0  0  0  0  0  0
  -29.8246  -22.2837   19.9941 C   0  0  0  0  0  0
  -28.1717  -22.9201   21.4903 C   0  0  0  0  0  0
  -30.5978  -24.5706   19.0502 C   0  0  0  0  0  0
  -31.8933  -17.4108   20.7440 C   0  0  0  0  0  0
  -31.1704  -16.9201   23.0462 C   0  0  0  0  0  0
  -28.2932  -25.5631   21.1853 C   0  0  0  0  0  0
  -30.6666  -16.9653   21.5883 C   0  0  0  0  0  0
  -28.9455  -21.8033   20.9114 N   0  0  0  0  0  0
  -30.1722  -15.5828   21.2354 N   0  0  0  0  0  0
  -30.6098  -21.6131   19.3163 O   0  0  0  0  0  0
  -31.4442  -12.3998   19.1413 H   0  0  0  0  0  0
  -30.2657  -11.3525   19.8684 H   0  0  0  0  0  0
  -29.7119  -11.8053   17.4496 H   0  0  0  0  0  0
  -29.6306  -13.5147   17.7849 H   0  0  0  0  0  0
  -27.8022  -11.3332   18.8313 H   0  0  0  0  0  0
  -27.3470  -12.6674   17.8135 H   0  0  0  0  0  0
  -27.6649  -14.2745   19.5744 H   0  0  0  0  0  0
  -28.6980  -12.0809   21.4367 H   0  0  0  0  0  0
  -28.4789  -13.7523   21.8597 H   0  0  0  0  0  0
  -25.2821   -9.5726   22.4691 H   0  0  0  0  0  0
  -24.0088   -7.4618   22.7470 H   0  0  0  0  0  0
  -21.0690   -8.8811   19.9267 H   0  0  0  0  0  0
  -22.3509  -10.9679   19.6306 H   0  0  0  0  0  0
  -21.2168   -7.6122   23.9764 H   0  0  0  0  0  0
  -21.1468   -6.0425   25.9072 H   0  0  0  0  0  0
  -22.0671   -2.7574   23.2734 H   0  0  0  0  0  0
  -22.4271  -11.9786   22.4672 H   0  0  0  0  0  0
  -21.1112  -13.0982   22.2571 H   0  0  0  0  0  0
  -24.6654  -15.8558   20.4597 H   0  0  0  0  0  0
  -26.2876  -15.6006   20.0654 H   0  0  0  0  0  0
  -26.7131  -32.5486   23.1166 H   0  0  0  0  0  0
  -25.0006  -33.9740   25.0455 H   0  0  0  0  0  0
  -22.6982  -31.2997   21.4183 H   0  0  0  0  0  0
  -23.3727  -35.9678   23.3300 H   0  0  0  0  0  0
  -24.3592  -36.8944   22.2057 H   0  0  0  0  0  0
  -23.7245  -37.6546   23.6650 H   0  0  0  0  0  0
  -26.0565  -31.5766   20.5895 H   0  0  0  0  0  0
  -26.8304  -30.8742   21.9818 H   0  0  0  0  0  0
  -28.1094  -29.0595   21.1692 H   0  0  0  0  0  0
  -26.0386  -25.9284   19.0582 H   0  0  0  0  0  0
  -23.9804  -27.2981   19.0153 H   0  0  0  0  0  0
  -23.7168  -30.5913   19.4073 H   0  0  0  0  0  0
  -22.7395  -29.2334   19.8778 H   0  0  0  0  0  0
  -25.1267  -36.1993   25.0841 H   0  0  0  0  0  0
  -20.9938  -28.3151   24.1482 H   0  0  0  0  0  0
  -20.5675  -26.2205   23.3602 H   0  0  0  0  0  0
  -21.6625  -26.7398   22.1221 H   0  0  0  0  0  0
  -19.6895  -25.6288   21.1222 H   0  0  0  0  0  0
  -19.6689  -27.3202   20.6782 H   0  0  0  0  0  0
  -17.4198  -26.6650   21.4028 H   0  0  0  0  0  0
  -18.0307  -26.0036   22.9028 H   0  0  0  0  0  0
  -19.7913  -30.7265   24.2246 H   0  0  0  0  0  0
  -17.4974  -31.6240   24.5146 H   0  0  0  0  0  0
  -15.5325  -30.2922   23.7659 H   0  0  0  0  0  0
  -15.8665  -28.0782   22.7033 H   0  0  0  0  0  0
  -24.5930  -30.6996   25.7893 H   0  0  0  0  0  0
  -24.8944  -32.2802   26.5016 H   0  0  0  0  0  0
  -25.8151  -30.8831   27.0250 H   0  0  0  0  0  0
  -26.2839  -29.6809   24.1137 H   0  0  0  0  0  0
  -27.4046  -29.7236   25.4552 H   0  0  0  0  0  0
  -27.8681  -30.4353   23.9267 H   0  0  0  0  0  0
  -27.2670  -33.3583   26.2104 H   0  0  0  0  0  0
  -28.3830  -32.6884   25.0299 H   0  0  0  0  0  0
  -28.0750  -31.8403   26.5373 H   0  0  0  0  0  0
  -28.2610  -38.0107   24.7497 H   0  0  0  0  0  0
  -28.1069  -36.2644   24.6298 H   0  0  0  0  0  0
  -27.2318  -37.1483   25.8875 H   0  0  0  0  0  0
  -20.9368  -29.8681   21.6968 H   0  0  0  0  0  0
  -26.0192  -38.2884   24.1367 H   0  0  0  0  0  0
  -26.2608  -18.4027   22.5489 H   0  0  0  0  0  0
  -28.0283  -16.7061   22.3967 H   0  0  0  0  0  0
  -26.6539  -20.7226   21.8516 H   0  0  0  0  0  0
  -30.7260  -19.7104   20.8509 H   0  0  0  0  0  0
  -27.0993  -22.8446   21.3013 H   0  0  0  0  0  0
  -28.3447  -22.9829   22.5653 H   0  0  0  0  0  0
  -30.3032  -25.6182   19.0113 H   0  0  0  0  0  0
  -30.5809  -24.1736   18.0335 H   0  0  0  0  0  0
  -31.6249  -24.5139   19.4138 H   0  0  0  0  0  0
  -32.7461  -16.7420   20.8596 H   0  0  0  0  0  0
  -32.2899  -18.3722   21.0723 H   0  0  0  0  0  0
  -31.6588  -17.4787   19.6829 H   0  0  0  0  0  0
  -31.9591  -16.1817   23.1747 H   0  0  0  0  0  0
  -30.3748  -16.6860   23.7556 H   0  0  0  0  0  0
  -31.5991  -17.8779   23.3464 H   0  0  0  0  0  0
  -28.9258  -25.8928   22.0113 H   0  0  0  0  0  0
  -27.2889  -25.4776   21.6067 H   0  0  0  0  0  0
  -29.2491  -15.3845   21.5878 H   0  0  0  0  0  0
  1 25  1  0  0  0
  1 30  2  0  0  0
  1 87  1  0  0  0
  2  3  1  0  0  0
  2 25  1  0  0  0
  2 89  1  0  0  0
  2 90  1  0  0  0
  3  4  1  0  0  0
  3 91  1  0  0  0
  3 92  1  0  0  0
  4  5  1  0  0  0
  4 93  1  0  0  0
  4 94  1  0  0  0
  5  6  1  0  0  0
  5 26  1  0  0  0
  5 95  1  0  0  0
  6 25  1  0  0  0
  6 96  1  0  0  0
  6 97  1  0  0  0
  7  8  2  0  0  0
  7 26  1  0  0  0
  7 29  1  0  0  0
  8  9  1  0  0  0
  8 22  1  0  0  0
  9 10  1  0  0  0
  9 27  2  0  0  0
 10 11  2  0  0  0
 10 15  1  0  0  0
 11 12  1  0  0  0
 11 98  1  0  0  0
 12 13  2  0  0  0
 12 99  1  0  0  0
 13 14  1  0  0  0
 13 31  1  0  0  0
 14 15  2  0  0  0
 14100  1  0  0  0
 15101  1  0  0  0
 16 17  2  0  0  0
 16 21  1  0  0  0
 16 31  1  0  0  0
 17 18  1  0  0  0
 17102  1  0  0  0
 18 19  2  0  0  0
 18103  1  0  0  0
 19 20  1  0  0  0
 19 24  1  0  0  0
 20 21  2  0  0  0
 20104  1  0  0  0
 21 23  1  0  0  0
 22 28  1  0  0  0
 22 32  2  0  0  0
 26 27  1  0  0  0
 28105  1  0  0  0
 28106  1  0  0  0
 29107  1  0  0  0
 29108  1  0  0  0
 33 34  1  0  0  0
 33 66  1  0  0  0
 33 70  2  0  0  0
 34 36  1  0  0  0
 34 59  1  0  0  0
 34109  1  0  0  0
 35 44  2  0  0  0
 35 45  1  0  0  0
 35 68  1  0  0  0
 36 56  1  0  0  0
 36110  1  0  0  0
 37 39  1  0  0  0
 37 47  1  0  0  0
 37 66  1  0  0  0
 37111  1  0  0  0
 38 43  2  0  0  0
 38 46  1  0  0  0
 38 47  1  0  0  0
 39 64  1  0  0  0
 39 67  2  0  0  0
 40 52  1  0  0  0
 40 53  2  0  0  0
 40 58  1  0  0  0
 41112  1  0  0  0
 41113  1  0  0  0
 41114  1  0  0  0
 41 48  1  0  0  0
 42 43  1  0  0  0
 42 66  1  0  0  0
 42115  1  0  0  0
 42116  1  0  0  0
 43 44  1  0  0  0
 44117  1  0  0  0
 45 46  2  0  0  0
 45118  1  0  0  0
 46119  1  0  0  0
 47120  1  0  0  0
 47121  1  0  0  0
 48 56  1  0  0  0
 48 65  1  0  0  0
 48122  1  0  0  0
 49 50  1  0  0  0
 49 53  1  0  0  0
 49 64  1  0  0  0
 49123  1  0  0  0
 50 51  1  0  0  0
 50124  1  0  0  0
 50125  1  0  0  0
 51 52  1  0  0  0
 51126  1  0  0  0
 51127  1  0  0  0
 52128  1  0  0  0
 52129  1  0  0  0
 53 54  1  0  0  0
 54 55  2  0  0  0
 54130  1  0  0  0
 55 57  1  0  0  0
 55131  1  0  0  0
 56 69  2  0  0  0
 57 58  2  0  0  0
 57132  1  0  0  0
 58133  1  0  0  0
 59 60  1  0  0  0
 59 61  1  0  0  0
 59 62  1  0  0  0
 60134  1  0  0  0
 60135  1  0  0  0
 60136  1  0  0  0
 61137  1  0  0  0
 61138  1  0  0  0
 61139  1  0  0  0
 62140  1  0  0  0
 62141  1  0  0  0
 62142  1  0  0  0
 63 65  1  0  0  0
 63143  1  0  0  0
 63144  1  0  0  0
 63145  1  0  0  0
 64146  1  0  0  0
 65147  1  0  0  0
 68 84  1  0  0  0
 71 72  2  0  0  0
 71 73  1  0  0  0
 71148  1  0  0  0
 72 75  1  0  0  0
 72149  1  0  0  0
 73 76  2  0  0  0
 73150  1  0  0  0
 74 75  2  0  0  0
 74 76  1  0  0  0
 74151  1  0  0  0
 75 85  1  0  0  0
 76 86  1  0  0  0
 77 78  2  0  0  0
 77 79  1  0  0  0
 77 81  1  0  0  0
 78 80  1  0  0  0
 78 84  1  0  0  0
 79 86  1  0  0  0
 79 88  2  0  0  0
 80 86  1  0  0  0
 80152  1  0  0  0
 80153  1  0  0  0
 81154  1  0  0  0
 81155  1  0  0  0
 81156  1  0  0  0
 82157  1  0  0  0
 82158  1  0  0  0
 82159  1  0  0  0
 82 85  1  0  0  0
 83 85  1  0  0  0
 83160  1  0  0  0
 83161  1  0  0  0
 83162  1  0  0  0
 84163  1  0  0  0
 84164  1  0  0  0
 85 87  1  0  0  0
 87165  1  0  0  0
M  ISO  4   1 100  68 101  84 101  87 100
M  END
> <chiral flag>
0

> <version>
0

> <s_m_source_file>
/data/baiqing/PycharmProjects/Reinvent-master-3.2/result/LINK_invent/BTK/process_docking_weight1_custom_product_contain_oxygen_bond_distance_aromatic_linkinvent_7_9_3/rearranged_h_0074.sdf

> <i_m_source_file_index>
79

> <r_mmod_Potential_Energy-OPLS-2005>
77.634521484375

> <r_mmod_Stretch_Energy-OPLS-2005>
60.0829429626465

> <r_mmod_Bend_Energy-OPLS-2005>
168.730819702148

> <r_mmod_Torsional_Energy-OPLS-2005>
251.672012329102

> <r_mmod_Improper_Torsional_Energy-OPLS-2005>
2.91612434387207

> <r_mmod_Van_der_Waal_Energy-OPLS-2005>
154.936233520508

> <r_mmod_Electrostatic_Energy-OPLS-2005>
-381.229919433594

> <r_mmod_Solvation_Energy-OPLS-2005>
-204.413055419922

> <b_mmod_Minimization_Converged-OPLS-2005>
0

> <r_mmod_RMS_Derivative-OPLS-2005>
5.66242551803589

$$$$
81
                    3D
 Structure written by MMmdl.
154162  0  0  1  0            999 V2000
  -30.5861  -14.6744   20.4821 C   0  0  0  0  0  0
  -30.4421  -12.4088   19.4566 C   0  0  0  0  0  0
  -29.5139  -12.5090   18.2242 C   0  0  0  0  0  0
  -28.0370  -12.3363   18.6363 C   0  0  0  0  0  0
  -27.6509  -13.2111   19.8598 C   0  0  2  0  0  0
  -28.6944  -13.0724   20.9915 C   0  0  0  0  0  0
  -25.2568  -13.8132   20.5687 C   0  0  0  0  0  0
  -24.1833  -13.0418   20.9196 C   0  0  0  0  0  0
  -24.6383  -11.6882   20.8737 C   0  0  0  0  0  0
  -23.9036  -10.4288   21.0407 C   0  0  0  0  0  0
  -24.3595   -9.4209   21.9188 C   0  0  0  0  0  0
  -23.6283   -8.2240   22.0766 C   0  0  0  0  0  0
  -22.4267   -8.0270   21.3554 C   0  0  0  0  0  0
  -21.9893   -9.0242   20.4657 C   0  0  0  0  0  0
  -22.7209  -10.2123   20.3060 C   0  0  0  0  0  0
  -21.6854   -6.0730   22.5286 C   0  0  0  0  0  0
  -21.4014   -6.5640   23.8216 C   0  0  0  0  0  0
  -21.3660   -5.6797   24.9180 C   0  0  0  0  0  0
  -21.6036   -4.3059   24.7233 C   0  0  0  0  0  0
  -21.8817   -3.8146   23.4357 C   0  0  0  0  0  0
  -21.9190   -4.6958   22.3410 C   0  0  0  0  0  0
  -22.7862  -13.5243   21.1858 C   0  0  0  0  0  0
  -22.1660   -4.2135   21.0989 F   0  0  0  0  0  0
  -21.5624   -3.4541   25.7752 F   0  0  0  0  0  0
  -30.0057  -13.4315   20.4282 N   0  0  0  0  0  0
  -26.2973  -12.9302   20.3275 N   0  0  0  0  0  0
  -25.9308  -11.6463   20.5729 N   0  0  0  0  0  0
  -22.0474  -12.8258   22.0394 N   0  0  0  0  0  0
  -25.4273  -15.1858   20.4086 N   0  0  0  0  0  0
  -31.7545  -14.8466   20.1181 O   0  0  0  0  0  0
  -21.6632   -6.8863   21.4249 O   0  0  0  0  0  0
  -22.3562  -14.5562   20.6701 O   0  0  0  0  0  0
  -24.6262  -31.8583   23.2024 C   0  0  0  0  0  0
  -25.9104  -32.4776   23.8353 C   0  0  1  0  0  0
  -27.2253  -27.3032   20.1162 C   0  0  0  0  0  0
  -25.5915  -33.8585   24.2272 N   0  0  0  0  0  0
  -23.4211  -30.4806   21.5451 C   0  0  2  0  0  0
  -24.8646  -28.9297   20.1147 C   0  0  0  0  0  0
  -22.7476  -29.4610   22.4948 C   0  0  0  0  0  0
  -18.0297  -28.1376   22.8513 C   0  0  0  0  0  0
  -24.1476  -36.7276   23.2642 C   0  0  0  0  0  0
  -25.9614  -30.7826   21.3735 C   0  0  0  0  0  0
  -26.0330  -29.4069   20.7194 C   0  0  0  0  0  0
  -27.2127  -28.6055   20.7101 C   0  0  0  0  0  0
  -26.0264  -26.8738   19.5015 C   0  0  0  0  0  0
  -24.8640  -27.6700   19.4975 C   0  0  0  0  0  0
  -23.6351  -29.8131   20.1611 C   0  0  0  0  0  0
  -25.4111  -36.3083   24.0329 C   0  0  1  0  0  0
  -20.5894  -28.3680   23.1289 C   0  0  2  0  0  0
  -20.6766  -26.9407   22.5413 C   0  0  0  0  0  0
  -19.5735  -26.6386   21.5221 C   0  0  0  0  0  0
  -18.1923  -26.7925   22.1648 C   0  0  0  0  0  0
  -19.1548  -28.8847   23.2896 C   0  0  0  0  0  0
  -18.9468  -30.1449   23.8921 C   0  0  0  0  0  0
  -17.6465  -30.6586   24.0571 C   0  0  0  0  0  0
  -25.9053  -34.9457   23.5107 C   0  0  0  0  0  0
  -16.5358  -29.9091   23.6327 C   0  0  0  0  0  0
  -16.7284  -28.6494   23.0381 C   0  0  0  0  0  0
  -26.4495  -31.6584   25.0727 C   0  0  0  0  0  0
  -25.3721  -31.3743   26.1446 C   0  0  0  0  0  0
  -27.0326  -30.3014   24.6154 C   0  0  0  0  0  0
  -27.6054  -32.4309   25.7505 C   0  0  0  0  0  0
  -27.5573  -37.1805   24.8481 C   0  0  0  0  0  0
  -21.4190  -29.3039   22.3682 N   0  0  0  0  0  0
  -26.4289  -37.3779   23.9418 N   0  0  0  0  0  0
  -24.6888  -31.0576   22.0978 N   0  0  0  0  0  0
  -23.4184  -28.8154   23.3045 O   0  0  0  0  0  0
  -28.3763  -26.4955   20.1616 O   0  0  0  0  0  0
  -26.5628  -34.8928   22.4680 O   0  0  0  0  0  0
  -23.5420  -32.1386   23.7342 O   0  0  0  0  0  0
  -30.8575  -19.3699   20.1993 C   0  0  0  0  0  0
  -28.5607  -19.3631   20.8938 C   0  0  0  0  0  0
  -30.9042  -17.9412   20.2507 C   0  0  0  0  0  0
  -28.6061  -17.9327   20.9474 C   0  0  0  0  0  0
  -29.6968  -20.1326   20.5266 C   0  0  0  0  0  0
  -29.7771  -17.1738   20.6465 C   0  0  0  0  0  0
  -29.7728  -21.6806   20.6248 C   0  0  0  0  0  0
  -27.3609  -24.0489   21.8464 C   0  0  0  0  0  0
  -28.4117  -25.0628   19.7503 C   0  0  0  0  0  0
  -28.5507  -23.9483   20.8818 C   0  0  2  0  0  0
  -29.7317  -15.7099   20.7842 N   0  0  0  0  0  0
  -28.6860  -22.4954   20.4578 N   0  0  0  0  0  0
  -30.8739  -22.1822   20.8647 O   0  0  0  0  0  0
  -31.4844  -12.5429   19.1599 H   0  0  0  0  0  0
  -30.3795  -11.4138   19.9002 H   0  0  0  0  0  0
  -29.7861  -11.7535   17.4864 H   0  0  0  0  0  0
  -29.6539  -13.4743   17.7355 H   0  0  0  0  0  0
  -27.8895  -11.2836   18.8780 H   0  0  0  0  0  0
  -27.3794  -12.5439   17.7908 H   0  0  0  0  0  0
  -27.6629  -14.2432   19.5123 H   0  0  0  0  0  0
  -28.7178  -12.0486   21.3711 H   0  0  0  0  0  0
  -28.4334  -13.6995   21.8459 H   0  0  0  0  0  0
  -25.2730   -9.5693   22.4769 H   0  0  0  0  0  0
  -23.9986   -7.4635   22.7502 H   0  0  0  0  0  0
  -21.0816   -8.8763   19.8977 H   0  0  0  0  0  0
  -22.3663  -10.9666   19.6180 H   0  0  0  0  0  0
  -21.2013   -7.6148   23.9723 H   0  0  0  0  0  0
  -21.1480   -6.0524   25.9083 H   0  0  0  0  0  0
  -22.0594   -2.7604   23.2866 H   0  0  0  0  0  0
  -22.4056  -11.9926   22.4829 H   0  0  0  0  0  0
  -21.1099  -13.1342   22.2569 H   0  0  0  0  0  0
  -24.6496  -15.8306   20.5008 H   0  0  0  0  0  0
  -26.2554  -15.6226   20.0259 H   0  0  0  0  0  0
  -26.7178  -32.5421   23.1098 H   0  0  0  0  0  0
  -25.0103  -33.9745   25.0438 H   0  0  0  0  0  0
  -22.7163  -31.3023   21.4015 H   0  0  0  0  0  0
  -23.3755  -35.9593   23.3317 H   0  0  0  0  0  0
  -24.3566  -36.8879   22.2058 H   0  0  0  0  0  0
  -23.7212  -37.6480   23.6641 H   0  0  0  0  0  0
  -26.0885  -31.5411   20.5995 H   0  0  0  0  0  0
  -26.8452  -30.8373   21.9976 H   0  0  0  0  0  0
  -28.1111  -28.9719   21.1887 H   0  0  0  0  0  0
  -25.9359  -25.9132   19.0216 H   0  0  0  0  0  0
  -23.9691  -27.2959   19.0183 H   0  0  0  0  0  0
  -23.7571  -30.5865   19.4031 H   0  0  0  0  0  0
  -22.7522  -29.2461   19.8591 H   0  0  0  0  0  0
  -25.1290  -36.1960   25.0823 H   0  0  0  0  0  0
  -21.0007  -28.3252   24.1402 H   0  0  0  0  0  0
  -20.5659  -26.2310   23.3621 H   0  0  0  0  0  0
  -21.6630  -26.7421   22.1209 H   0  0  0  0  0  0
  -19.6887  -25.6298   21.1246 H   0  0  0  0  0  0
  -19.6646  -27.3201   20.6749 H   0  0  0  0  0  0
  -17.4191  -26.6707   21.4050 H   0  0  0  0  0  0
  -18.0305  -26.0049   22.9022 H   0  0  0  0  0  0
  -19.7945  -30.7256   24.2297 H   0  0  0  0  0  0
  -17.5029  -31.6276   24.5158 H   0  0  0  0  0  0
  -15.5358  -30.3009   23.7616 H   0  0  0  0  0  0
  -15.8691  -28.0800   22.7111 H   0  0  0  0  0  0
  -24.5897  -30.7086   25.7788 H   0  0  0  0  0  0
  -24.8903  -32.2922   26.4826 H   0  0  0  0  0  0
  -25.8030  -30.8964   27.0247 H   0  0  0  0  0  0
  -26.2891  -29.6810   24.1139 H   0  0  0  0  0  0
  -27.4018  -29.7219   25.4626 H   0  0  0  0  0  0
  -27.8758  -30.4345   23.9371 H   0  0  0  0  0  0
  -27.2670  -33.3610   26.2078 H   0  0  0  0  0  0
  -28.3870  -32.6870   25.0344 H   0  0  0  0  0  0
  -28.0711  -31.8445   26.5430 H   0  0  0  0  0  0
  -28.2618  -38.0076   24.7495 H   0  0  0  0  0  0
  -28.1026  -36.2607   24.6322 H   0  0  0  0  0  0
  -27.2280  -37.1476   25.8881 H   0  0  0  0  0  0
  -20.9365  -29.8780   21.6907 H   0  0  0  0  0  0
  -26.0169  -38.2854   24.1416 H   0  0  0  0  0  0
  -31.7625  -19.8965   19.9254 H   0  0  0  0  0  0
  -27.6481  -19.8676   21.1802 H   0  0  0  0  0  0
  -31.8335  -17.4476   20.0034 H   0  0  0  0  0  0
  -27.7104  -17.4134   21.2589 H   0  0  0  0  0  0
  -27.4645  -23.3546   22.6811 H   0  0  0  0  0  0
  -26.4201  -23.8306   21.3402 H   0  0  0  0  0  0
  -27.2838  -25.0504   22.2708 H   0  0  0  0  0  0
  -29.2997  -24.9740   19.1235 H   0  0  0  0  0  0
  -27.6022  -24.7834   19.0828 H   0  0  0  0  0  0
  -29.4368  -24.2056   21.4635 H   0  0  0  0  0  0
  -28.8341  -15.3629   21.0809 H   0  0  0  0  0  0
  -27.8308  -22.0313   20.1871 H   0  0  0  0  0  0
  1 25  1  0  0  0
  1 30  2  0  0  0
  1 81  1  0  0  0
  2  3  1  0  0  0
  2 25  1  0  0  0
  2 84  1  0  0  0
  2 85  1  0  0  0
  3  4  1  0  0  0
  3 86  1  0  0  0
  3 87  1  0  0  0
  4  5  1  0  0  0
  4 88  1  0  0  0
  4 89  1  0  0  0
  5  6  1  0  0  0
  5 26  1  0  0  0
  5 90  1  0  0  0
  6 25  1  0  0  0
  6 91  1  0  0  0
  6 92  1  0  0  0
  7  8  2  0  0  0
  7 26  1  0  0  0
  7 29  1  0  0  0
  8  9  1  0  0  0
  8 22  1  0  0  0
  9 10  1  0  0  0
  9 27  2  0  0  0
 10 11  2  0  0  0
 10 15  1  0  0  0
 11 12  1  0  0  0
 11 93  1  0  0  0
 12 13  2  0  0  0
 12 94  1  0  0  0
 13 14  1  0  0  0
 13 31  1  0  0  0
 14 15  2  0  0  0
 14 95  1  0  0  0
 15 96  1  0  0  0
 16 17  2  0  0  0
 16 21  1  0  0  0
 16 31  1  0  0  0
 17 18  1  0  0  0
 17 97  1  0  0  0
 18 19  2  0  0  0
 18 98  1  0  0  0
 19 20  1  0  0  0
 19 24  1  0  0  0
 20 21  2  0  0  0
 20 99  1  0  0  0
 21 23  1  0  0  0
 22 28  1  0  0  0
 22 32  2  0  0  0
 26 27  1  0  0  0
 28100  1  0  0  0
 28101  1  0  0  0
 29102  1  0  0  0
 29103  1  0  0  0
 33 34  1  0  0  0
 33 66  1  0  0  0
 33 70  2  0  0  0
 34 36  1  0  0  0
 34 59  1  0  0  0
 34104  1  0  0  0
 35 44  2  0  0  0
 35 45  1  0  0  0
 35 68  1  0  0  0
 36 56  1  0  0  0
 36105  1  0  0  0
 37 39  1  0  0  0
 37 47  1  0  0  0
 37 66  1  0  0  0
 37106  1  0  0  0
 38 43  2  0  0  0
 38 46  1  0  0  0
 38 47  1  0  0  0
 39 64  1  0  0  0
 39 67  2  0  0  0
 40 52  1  0  0  0
 40 53  2  0  0  0
 40 58  1  0  0  0
 41107  1  0  0  0
 41108  1  0  0  0
 41109  1  0  0  0
 41 48  1  0  0  0
 42 43  1  0  0  0
 42 66  1  0  0  0
 42110  1  0  0  0
 42111  1  0  0  0
 43 44  1  0  0  0
 44112  1  0  0  0
 45 46  2  0  0  0
 45113  1  0  0  0
 46114  1  0  0  0
 47115  1  0  0  0
 47116  1  0  0  0
 48 56  1  0  0  0
 48 65  1  0  0  0
 48117  1  0  0  0
 49 50  1  0  0  0
 49 53  1  0  0  0
 49 64  1  0  0  0
 49118  1  0  0  0
 50 51  1  0  0  0
 50119  1  0  0  0
 50120  1  0  0  0
 51 52  1  0  0  0
 51121  1  0  0  0
 51122  1  0  0  0
 52123  1  0  0  0
 52124  1  0  0  0
 53 54  1  0  0  0
 54 55  2  0  0  0
 54125  1  0  0  0
 55 57  1  0  0  0
 55126  1  0  0  0
 56 69  2  0  0  0
 57 58  2  0  0  0
 57127  1  0  0  0
 58128  1  0  0  0
 59 60  1  0  0  0
 59 61  1  0  0  0
 59 62  1  0  0  0
 60129  1  0  0  0
 60130  1  0  0  0
 60131  1  0  0  0
 61132  1  0  0  0
 61133  1  0  0  0
 61134  1  0  0  0
 62135  1  0  0  0
 62136  1  0  0  0
 62137  1  0  0  0
 63 65  1  0  0  0
 63138  1  0  0  0
 63139  1  0  0  0
 63140  1  0  0  0
 64141  1  0  0  0
 65142  1  0  0  0
 68 79  1  0  0  0
 71 73  2  0  0  0
 71 75  1  0  0  0
 71143  1  0  0  0
 72 74  1  0  0  0
 72 75  2  0  0  0
 72144  1  0  0  0
 73 76  1  0  0  0
 73145  1  0  0  0
 74 76  2  0  0  0
 74146  1  0  0  0
 75 77  1  0  0  0
 76 81  1  0  0  0
 77 82  1  0  0  0
 77 83  2  0  0  0
 78147  1  0  0  0
 78148  1  0  0  0
 78149  1  0  0  0
 78 80  1  0  0  0
 79 80  1  0  0  0
 79150  1  0  0  0
 79151  1  0  0  0
 80 82  1  0  0  0
 80152  1  0  0  0
 81153  1  0  0  0
 82154  1  0  0  0
M  ISO  4   1 100  68 101  79 101  81 100
M  END
> <chiral flag>
0

> <version>
0

> <s_m_source_file>
/data/baiqing/PycharmProjects/Reinvent-master-3.2/result/LINK_invent/BTK/process_docking_weight1_custom_product_contain_oxygen_bond_distance_aromatic_linkinvent_7_9_3/rearranged_h_0074.sdf

> <i_m_source_file_index>
80

> <r_mmod_Potential_Energy-OPLS-2005>
16.2020835876465

> <r_mmod_Stretch_Energy-OPLS-2005>
86.9369125366211

> <r_mmod_Bend_Energy-OPLS-2005>
160.122589111328

> <r_mmod_Torsional_Energy-OPLS-2005>
217.440811157227

> <r_mmod_Improper_Torsional_Energy-OPLS-2005>
5.54198837280273

> <r_mmod_Van_der_Waal_Energy-OPLS-2005>
140.146850585938

> <r_mmod_Electrostatic_Energy-OPLS-2005>
-418.150939941406

> <r_mmod_Solvation_Energy-OPLS-2005>
-231.530487060547

> <b_mmod_Minimization_Converged-OPLS-2005>
0

> <r_mmod_RMS_Derivative-OPLS-2005>
2.45797801017761

$$$$
82
                    3D
 Structure written by MMmdl.
158167  0  0  1  0            999 V2000
  -30.6176  -14.7388   20.4564 C   0  0  0  0  0  0
  -30.4192  -12.4447   19.5051 C   0  0  0  0  0  0
  -29.5334  -12.5263   18.2461 C   0  0  0  0  0  0
  -28.0500  -12.3544   18.6241 C   0  0  0  0  0  0
  -27.6383  -13.2431   19.8306 C   0  0  2  0  0  0
  -28.6632  -13.1993   20.9796 C   0  0  0  0  0  0
  -25.2472  -13.8212   20.5580 C   0  0  0  0  0  0
  -24.1781  -13.0440   20.9176 C   0  0  0  0  0  0
  -24.6387  -11.6925   20.8678 C   0  0  0  0  0  0
  -23.9044  -10.4324   21.0329 C   0  0  0  0  0  0
  -24.3618   -9.4269   21.9123 C   0  0  0  0  0  0
  -23.6342   -8.2267   22.0689 C   0  0  0  0  0  0
  -22.4318   -8.0295   21.3480 C   0  0  0  0  0  0
  -21.9945   -9.0242   20.4577 C   0  0  0  0  0  0
  -22.7219  -10.2137   20.2990 C   0  0  0  0  0  0
  -21.6878   -6.0770   22.5291 C   0  0  0  0  0  0
  -21.3999   -6.5640   23.8234 C   0  0  0  0  0  0
  -21.3650   -5.6761   24.9182 C   0  0  0  0  0  0
  -21.6054   -4.3021   24.7205 C   0  0  0  0  0  0
  -21.8823   -3.8148   23.4312 C   0  0  0  0  0  0
  -21.9193   -4.6988   22.3397 C   0  0  0  0  0  0
  -22.7820  -13.5225   21.1944 C   0  0  0  0  0  0
  -22.1676   -4.2179   21.0971 F   0  0  0  0  0  0
  -21.5650   -3.4509   25.7709 F   0  0  0  0  0  0
  -29.9767  -13.5263   20.4128 N   0  0  0  0  0  0
  -26.2891  -12.9445   20.3086 N   0  0  0  0  0  0
  -25.9298  -11.6569   20.5566 N   0  0  0  0  0  0
  -22.0441  -12.8194   22.0493 N   0  0  0  0  0  0
  -25.4192  -15.1913   20.3933 N   0  0  0  0  0  0
  -31.8297  -14.7723   20.2287 O   0  0  0  0  0  0
  -21.6633   -6.8918   21.4252 O   0  0  0  0  0  0
  -22.3491  -14.5535   20.6838 O   0  0  0  0  0  0
  -24.6325  -31.8540   23.1985 C   0  0  0  0  0  0
  -25.9172  -32.4745   23.8348 C   0  0  1  0  0  0
  -27.2288  -27.2835   20.1730 C   0  0  0  0  0  0
  -25.5978  -33.8541   24.2277 N   0  0  0  0  0  0
  -23.4291  -30.4794   21.5251 C   0  0  2  0  0  0
  -24.8800  -28.9255   20.1009 C   0  0  0  0  0  0
  -22.7517  -29.4608   22.4777 C   0  0  0  0  0  0
  -18.0321  -28.1406   22.8437 C   0  0  0  0  0  0
  -24.1472  -36.7240   23.2640 C   0  0  0  0  0  0
  -25.9663  -30.7872   21.3657 C   0  0  0  0  0  0
  -26.0396  -29.4076   20.7163 C   0  0  0  0  0  0
  -27.2110  -28.5965   20.7414 C   0  0  0  0  0  0
  -26.0412  -26.8395   19.5528 C   0  0  0  0  0  0
  -24.8837  -27.6505   19.5065 C   0  0  0  0  0  0
  -23.6479  -29.8068   20.1421 C   0  0  0  0  0  0
  -25.4104  -36.3029   24.0328 C   0  0  1  0  0  0
  -20.5930  -28.3727   23.1185 C   0  0  2  0  0  0
  -20.6758  -26.9411   22.5340 C   0  0  0  0  0  0
  -19.5756  -26.6358   21.5135 C   0  0  0  0  0  0
  -18.1971  -26.7919   22.1577 C   0  0  0  0  0  0
  -19.1577  -28.8874   23.2813 C   0  0  0  0  0  0
  -18.9490  -30.1469   23.8829 C   0  0  0  0  0  0
  -17.6474  -30.6553   24.0558 C   0  0  0  0  0  0
  -25.9044  -34.9412   23.5081 C   0  0  0  0  0  0
  -16.5371  -29.9055   23.6335 C   0  0  0  0  0  0
  -16.7288  -28.6511   23.0301 C   0  0  0  0  0  0
  -26.4534  -31.6596   25.0750 C   0  0  0  0  0  0
  -25.3775  -31.3768   26.1485 C   0  0  0  0  0  0
  -27.0442  -30.3035   24.6260 C   0  0  0  0  0  0
  -27.6047  -32.4361   25.7571 C   0  0  0  0  0  0
  -27.5550  -37.1786   24.8459 C   0  0  0  0  0  0
  -21.4216  -29.3092   22.3578 N   0  0  0  0  0  0
  -26.4248  -37.3744   23.9414 N   0  0  0  0  0  0
  -24.6937  -31.0598   22.0887 N   0  0  0  0  0  0
  -23.4235  -28.8153   23.2872 O   0  0  0  0  0  0
  -28.3620  -26.4629   20.3023 O   0  0  0  0  0  0
  -26.5551  -34.8887   22.4616 O   0  0  0  0  0  0
  -23.5475  -32.1289   23.7359 O   0  0  0  0  0  0
  -30.6718  -20.0137   19.3309 C   0  0  0  0  0  0
  -31.4146  -18.9301   18.8524 C   0  0  0  0  0  0
  -29.3635  -18.4674   20.6717 C   0  0  0  0  0  0
  -29.6035  -19.8432   20.2329 C   0  0  0  0  0  0
  -30.1314  -17.3135   20.2014 C   0  0  0  0  0  0
  -31.1352  -17.6118   19.2330 C   0  0  0  0  0  0
  -28.2686  -23.5956   22.0104 C   0  0  0  0  0  0
  -28.0935  -22.1994   22.6427 C   0  0  0  0  0  0
  -27.8354  -21.0711   21.6064 C   0  0  0  0  0  0
  -29.0714  -22.3958   19.8970 C   0  0  0  0  0  0
  -28.2445  -23.6627   20.4685 C   0  0  2  0  0  0
  -28.5192  -25.0905   19.7415 C   0  0  0  0  0  0
  -28.8892  -21.0600   20.5952 N   0  0  0  0  0  0
  -29.8613  -15.8965   20.6015 N   0  0  0  0  0  0
  -28.3886  -24.5963   22.7306 O   0  0  0  0  0  0
  -31.8240  -16.6519   18.5783 F   0  0  0  0  0  0
  -31.4802  -12.5353   19.2434 H   0  0  0  0  0  0
  -30.3138  -11.4777   20.0028 H   0  0  0  0  0  0
  -29.8422  -11.7737   17.5192 H   0  0  0  0  0  0
  -29.6719  -13.4940   17.7632 H   0  0  0  0  0  0
  -27.8960  -11.3063   18.8747 H   0  0  0  0  0  0
  -27.4142  -12.5571   17.7636 H   0  0  0  0  0  0
  -27.6339  -14.2674   19.4556 H   0  0  0  0  0  0
  -28.6751  -12.2173   21.4564 H   0  0  0  0  0  0
  -28.3824  -13.9095   21.7590 H   0  0  0  0  0  0
  -25.2752   -9.5805   22.4672 H   0  0  0  0  0  0
  -24.0087   -7.4675   22.7373 H   0  0  0  0  0  0
  -21.0908   -8.8730   19.8882 H   0  0  0  0  0  0
  -22.3668  -10.9652   19.6088 H   0  0  0  0  0  0
  -21.1970   -7.6142   23.9771 H   0  0  0  0  0  0
  -21.1465   -6.0462   25.9102 H   0  0  0  0  0  0
  -22.0604   -2.7628   23.2778 H   0  0  0  0  0  0
  -22.4020  -11.9869   22.4921 H   0  0  0  0  0  0
  -21.0987  -13.1161   22.2516 H   0  0  0  0  0  0
  -24.6517  -15.8423   20.4958 H   0  0  0  0  0  0
  -26.2551  -15.6153   20.0150 H   0  0  0  0  0  0
  -26.7270  -32.5398   23.1124 H   0  0  0  0  0  0
  -25.0342  -33.9690   25.0565 H   0  0  0  0  0  0
  -22.7226  -31.2995   21.3776 H   0  0  0  0  0  0
  -23.3745  -35.9565   23.3306 H   0  0  0  0  0  0
  -24.3547  -36.8844   22.2043 H   0  0  0  0  0  0
  -23.7210  -37.6438   23.6663 H   0  0  0  0  0  0
  -26.0885  -31.5544   20.6003 H   0  0  0  0  0  0
  -26.8479  -30.8439   21.9945 H   0  0  0  0  0  0
  -28.0940  -28.9578   21.2482 H   0  0  0  0  0  0
  -25.9701  -25.8396   19.1502 H   0  0  0  0  0  0
  -23.9888  -27.2688   19.0343 H   0  0  0  0  0  0
  -23.7582  -30.5702   19.3708 H   0  0  0  0  0  0
  -22.7737  -29.2234   19.8513 H   0  0  0  0  0  0
  -25.1301  -36.1838   25.0815 H   0  0  0  0  0  0
  -21.0064  -28.3303   24.1275 H   0  0  0  0  0  0
  -20.5558  -26.2367   23.3607 H   0  0  0  0  0  0
  -21.6656  -26.7324   22.1211 H   0  0  0  0  0  0
  -19.6878  -25.6251   21.1242 H   0  0  0  0  0  0
  -19.6683  -27.3114   20.6641 H   0  0  0  0  0  0
  -17.4206  -26.6646   21.4000 H   0  0  0  0  0  0
  -18.0359  -26.0070   22.8996 H   0  0  0  0  0  0
  -19.7973  -30.7309   24.2121 H   0  0  0  0  0  0
  -17.5040  -31.6196   24.5239 H   0  0  0  0  0  0
  -15.5383  -30.2929   23.7679 H   0  0  0  0  0  0
  -15.8727  -28.0836   22.6963 H   0  0  0  0  0  0
  -24.5918  -30.7143   25.7826 H   0  0  0  0  0  0
  -24.9025  -32.2968   26.4897 H   0  0  0  0  0  0
  -25.8096  -30.8942   27.0264 H   0  0  0  0  0  0
  -26.3071  -29.6734   24.1270 H   0  0  0  0  0  0
  -27.4125  -29.7324   25.4793 H   0  0  0  0  0  0
  -27.8916  -30.4332   23.9537 H   0  0  0  0  0  0
  -27.2605  -33.3650   26.2142 H   0  0  0  0  0  0
  -28.3913  -32.6947   25.0470 H   0  0  0  0  0  0
  -28.0695  -31.8518   26.5525 H   0  0  0  0  0  0
  -28.2564  -38.0087   24.7505 H   0  0  0  0  0  0
  -28.1051  -36.2610   24.6293 H   0  0  0  0  0  0
  -27.2275  -37.1442   25.8864 H   0  0  0  0  0  0
  -20.9413  -29.8931   21.6890 H   0  0  0  0  0  0
  -26.0112  -38.2807   24.1433 H   0  0  0  0  0  0
  -30.9496  -20.9778   18.9483 H   0  0  0  0  0  0
  -32.1952  -19.1178   18.1328 H   0  0  0  0  0  0
  -28.5495  -18.2630   21.3523 H   0  0  0  0  0  0
  -27.2794  -22.2299   23.3726 H   0  0  0  0  0  0
  -29.0007  -21.9608   23.1980 H   0  0  0  0  0  0
  -26.8905  -21.2694   21.0973 H   0  0  0  0  0  0
  -27.7057  -20.1111   22.1032 H   0  0  0  0  0  0
  -30.1293  -22.6708   19.8982 H   0  0  0  0  0  0
  -28.8171  -22.2552   18.8433 H   0  0  0  0  0  0
  -27.1966  -23.4572   20.2440 H   0  0  0  0  0  0
  -27.9779  -25.0690   18.7965 H   0  0  0  0  0  0
  -29.5595  -25.0653   19.4173 H   0  0  0  0  0  0
  -28.9215  -15.7272   20.9292 H   0  0  0  0  0  0
  1 25  1  0  0  0
  1 30  2  0  0  0
  1 84  1  0  0  0
  2  3  1  0  0  0
  2 25  1  0  0  0
  2 87  1  0  0  0
  2 88  1  0  0  0
  3  4  1  0  0  0
  3 89  1  0  0  0
  3 90  1  0  0  0
  4  5  1  0  0  0
  4 91  1  0  0  0
  4 92  1  0  0  0
  5  6  1  0  0  0
  5 26  1  0  0  0
  5 93  1  0  0  0
  6 25  1  0  0  0
  6 94  1  0  0  0
  6 95  1  0  0  0
  7  8  2  0  0  0
  7 26  1  0  0  0
  7 29  1  0  0  0
  8  9  1  0  0  0
  8 22  1  0  0  0
  9 10  1  0  0  0
  9 27  2  0  0  0
 10 11  2  0  0  0
 10 15  1  0  0  0
 11 12  1  0  0  0
 11 96  1  0  0  0
 12 13  2  0  0  0
 12 97  1  0  0  0
 13 14  1  0  0  0
 13 31  1  0  0  0
 14 15  2  0  0  0
 14 98  1  0  0  0
 15 99  1  0  0  0
 16 17  2  0  0  0
 16 21  1  0  0  0
 16 31  1  0  0  0
 17 18  1  0  0  0
 17100  1  0  0  0
 18 19  2  0  0  0
 18101  1  0  0  0
 19 20  1  0  0  0
 19 24  1  0  0  0
 20 21  2  0  0  0
 20102  1  0  0  0
 21 23  1  0  0  0
 22 28  1  0  0  0
 22 32  2  0  0  0
 26 27  1  0  0  0
 28103  1  0  0  0
 28104  1  0  0  0
 29105  1  0  0  0
 29106  1  0  0  0
 33 34  1  0  0  0
 33 66  1  0  0  0
 33 70  2  0  0  0
 34 36  1  0  0  0
 34 59  1  0  0  0
 34107  1  0  0  0
 35 44  2  0  0  0
 35 45  1  0  0  0
 35 68  1  0  0  0
 36 56  1  0  0  0
 36108  1  0  0  0
 37 39  1  0  0  0
 37 47  1  0  0  0
 37 66  1  0  0  0
 37109  1  0  0  0
 38 43  2  0  0  0
 38 46  1  0  0  0
 38 47  1  0  0  0
 39 64  1  0  0  0
 39 67  2  0  0  0
 40 52  1  0  0  0
 40 53  2  0  0  0
 40 58  1  0  0  0
 41110  1  0  0  0
 41111  1  0  0  0
 41112  1  0  0  0
 41 48  1  0  0  0
 42 43  1  0  0  0
 42 66  1  0  0  0
 42113  1  0  0  0
 42114  1  0  0  0
 43 44  1  0  0  0
 44115  1  0  0  0
 45 46  2  0  0  0
 45116  1  0  0  0
 46117  1  0  0  0
 47118  1  0  0  0
 47119  1  0  0  0
 48 56  1  0  0  0
 48 65  1  0  0  0
 48120  1  0  0  0
 49 50  1  0  0  0
 49 53  1  0  0  0
 49 64  1  0  0  0
 49121  1  0  0  0
 50 51  1  0  0  0
 50122  1  0  0  0
 50123  1  0  0  0
 51 52  1  0  0  0
 51124  1  0  0  0
 51125  1  0  0  0
 52126  1  0  0  0
 52127  1  0  0  0
 53 54  1  0  0  0
 54 55  2  0  0  0
 54128  1  0  0  0
 55 57  1  0  0  0
 55129  1  0  0  0
 56 69  2  0  0  0
 57 58  2  0  0  0
 57130  1  0  0  0
 58131  1  0  0  0
 59 60  1  0  0  0
 59 61  1  0  0  0
 59 62  1  0  0  0
 60132  1  0  0  0
 60133  1  0  0  0
 60134  1  0  0  0
 61135  1  0  0  0
 61136  1  0  0  0
 61137  1  0  0  0
 62138  1  0  0  0
 62139  1  0  0  0
 62140  1  0  0  0
 63 65  1  0  0  0
 63141  1  0  0  0
 63142  1  0  0  0
 63143  1  0  0  0
 64144  1  0  0  0
 65145  1  0  0  0
 68 82  1  0  0  0
 71 72  2  0  0  0
 71 74  1  0  0  0
 71146  1  0  0  0
 72 76  1  0  0  0
 72147  1  0  0  0
 73 74  2  0  0  0
 73 75  1  0  0  0
 73148  1  0  0  0
 74 83  1  0  0  0
 75 76  2  0  0  0
 75 84  1  0  0  0
 76 86  1  0  0  0
 77 78  1  0  0  0
 77 81  1  0  0  0
 77 85  2  0  0  0
 78 79  1  0  0  0
 78149  1  0  0  0
 78150  1  0  0  0
 79 83  1  0  0  0
 79151  1  0  0  0
 79152  1  0  0  0
 80 81  1  0  0  0
 80 83  1  0  0  0
 80153  1  0  0  0
 80154  1  0  0  0
 81 82  1  0  0  0
 81155  1  0  0  0
 82156  1  0  0  0
 82157  1  0  0  0
 84158  1  0  0  0
M  ISO  4   1 100  68 101  82 101  84 100
M  END
> <chiral flag>
0

> <version>
0

> <s_m_source_file>
/data/baiqing/PycharmProjects/Reinvent-master-3.2/result/LINK_invent/BTK/process_docking_weight1_custom_product_contain_oxygen_bond_distance_aromatic_linkinvent_7_9_3/rearranged_h_0074.sdf

> <i_m_source_file_index>
81

> <r_mmod_Potential_Energy-OPLS-2005>
147.46369934082

> <r_mmod_Stretch_Energy-OPLS-2005>
122.578025817871

> <r_mmod_Bend_Energy-OPLS-2005>
211.62580871582

> <r_mmod_Torsional_Energy-OPLS-2005>
198.795333862305

> <r_mmod_Improper_Torsional_Energy-OPLS-2005>
4.27289295196533

> <r_mmod_Van_der_Waal_Energy-OPLS-2005>
157.418182373047

> <r_mmod_Electrostatic_Energy-OPLS-2005>
-377.669403076172

> <r_mmod_Solvation_Energy-OPLS-2005>
-254.942718505859

> <b_mmod_Minimization_Converged-OPLS-2005>
0

> <r_mmod_RMS_Derivative-OPLS-2005>
8.35523891448975

$$$$
83
                    3D
 Structure written by MMmdl.
156165  0  0  1  0            999 V2000
  -30.6739  -14.8004   20.4153 C   0  0  0  0  0  0
  -30.4110  -12.4932   19.4901 C   0  0  0  0  0  0
  -29.5119  -12.5252   18.2366 C   0  0  0  0  0  0
  -28.0401  -12.3432   18.6519 C   0  0  0  0  0  0
  -27.6324  -13.2629   19.8368 C   0  0  2  0  0  0
  -28.6803  -13.2793   20.9752 C   0  0  0  0  0  0
  -25.2476  -13.8227   20.5798 C   0  0  0  0  0  0
  -24.1784  -13.0454   20.9326 C   0  0  0  0  0  0
  -24.6403  -11.6952   20.8783 C   0  0  0  0  0  0
  -23.9083  -10.4307   21.0413 C   0  0  0  0  0  0
  -24.3631   -9.4213   21.9184 C   0  0  0  0  0  0
  -23.6322   -8.2224   22.0727 C   0  0  0  0  0  0
  -22.4289   -8.0275   21.3543 C   0  0  0  0  0  0
  -21.9934   -9.0238   20.4641 C   0  0  0  0  0  0
  -22.7262  -10.2124   20.3053 C   0  0  0  0  0  0
  -21.6834   -6.0751   22.5278 C   0  0  0  0  0  0
  -21.4008   -6.5643   23.8228 C   0  0  0  0  0  0
  -21.3687   -5.6795   24.9187 C   0  0  0  0  0  0
  -21.6046   -4.3052   24.7237 C   0  0  0  0  0  0
  -21.8814   -3.8147   23.4357 C   0  0  0  0  0  0
  -21.9188   -4.6971   22.3418 C   0  0  0  0  0  0
  -22.7803  -13.5204   21.1962 C   0  0  0  0  0  0
  -22.1660   -4.2168   21.0986 F   0  0  0  0  0  0
  -21.5648   -3.4539   25.7754 F   0  0  0  0  0  0
  -29.9772  -13.6055   20.3705 N   0  0  0  0  0  0
  -26.2926  -12.9503   20.3277 N   0  0  0  0  0  0
  -25.9346  -11.6617   20.5743 N   0  0  0  0  0  0
  -22.0416  -12.8156   22.0480 N   0  0  0  0  0  0
  -25.4162  -15.1941   20.4202 N   0  0  0  0  0  0
  -31.8824  -14.7342   20.2126 O   0  0  0  0  0  0
  -21.6652   -6.8871   21.4230 O   0  0  0  0  0  0
  -22.3482  -14.5524   20.6815 O   0  0  0  0  0  0
  -24.6291  -31.8549   23.1993 C   0  0  0  0  0  0
  -25.9121  -32.4747   23.8344 C   0  0  1  0  0  0
  -27.2107  -27.2499   20.1168 C   0  0  0  0  0  0
  -25.5897  -33.8536   24.2277 N   0  0  0  0  0  0
  -23.4256  -30.4754   21.5455 C   0  0  2  0  0  0
  -24.8687  -28.9163   20.1122 C   0  0  0  0  0  0
  -22.7537  -29.4558   22.4954 C   0  0  0  0  0  0
  -18.0297  -28.1370   22.8489 C   0  0  0  0  0  0
  -24.1462  -36.7266   23.2644 C   0  0  0  0  0  0
  -25.9735  -30.7567   21.3829 C   0  0  0  0  0  0
  -26.0391  -29.3772   20.7269 C   0  0  0  0  0  0
  -27.2076  -28.5499   20.7278 C   0  0  0  0  0  0
  -26.0117  -26.8518   19.4863 C   0  0  0  0  0  0
  -24.8592  -27.6612   19.4854 C   0  0  0  0  0  0
  -23.6422  -29.8061   20.1614 C   0  0  0  0  0  0
  -25.4091  -36.3068   24.0336 C   0  0  1  0  0  0
  -20.5906  -28.3652   23.1313 C   0  0  2  0  0  0
  -20.6765  -26.9378   22.5425 C   0  0  0  0  0  0
  -19.5729  -26.6371   21.5221 C   0  0  0  0  0  0
  -18.1920  -26.7913   22.1634 C   0  0  0  0  0  0
  -19.1559  -28.8832   23.2888 C   0  0  0  0  0  0
  -18.9464  -30.1440   23.8901 C   0  0  0  0  0  0
  -17.6461  -30.6568   24.0561 C   0  0  0  0  0  0
  -25.9040  -34.9431   23.5130 C   0  0  0  0  0  0
  -16.5351  -29.9069   23.6313 C   0  0  0  0  0  0
  -16.7290  -28.6482   23.0343 C   0  0  0  0  0  0
  -26.4469  -31.6560   25.0730 C   0  0  0  0  0  0
  -25.3701  -31.3674   26.1462 C   0  0  0  0  0  0
  -27.0321  -30.3000   24.6164 C   0  0  0  0  0  0
  -27.6011  -32.4314   25.7493 C   0  0  0  0  0  0
  -27.5578  -37.1788   24.8476 C   0  0  0  0  0  0
  -21.4241  -29.3016   22.3742 N   0  0  0  0  0  0
  -26.4281  -37.3771   23.9438 N   0  0  0  0  0  0
  -24.6959  -31.0499   22.0971 N   0  0  0  0  0  0
  -23.4263  -28.8088   23.3026 O   0  0  0  0  0  0
  -28.3178  -26.3734   20.2055 O   0  0  0  0  0  0
  -26.5646  -34.8911   22.4719 O   0  0  0  0  0  0
  -23.5450  -32.1344   23.7312 O   0  0  0  0  0  0
  -31.2298  -20.1889   19.5975 C   0  0  0  0  0  0
  -32.0809  -19.1010   19.3887 C   0  0  0  0  0  0
  -29.5322  -18.6295   20.3788 C   0  0  0  0  0  0
  -29.9162  -20.0196   20.0817 C   0  0  0  0  0  0
  -30.4074  -17.4574   20.1887 C   0  0  0  0  0  0
  -31.6945  -17.7816   19.6534 C   0  0  0  0  0  0
  -27.5070  -22.9281   20.5407 C   0  0  0  0  0  0
  -28.5097  -23.6553   20.0261 C   0  0  0  0  0  0
  -27.8801  -21.5017   20.6874 C   0  0  0  0  0  0
  -29.6428  -22.6524   19.7589 C   0  0  0  0  0  0
  -26.0928  -23.4301   20.7527 C   0  0  0  0  0  0
  -28.4483  -25.1209   19.3941 C   0  0  0  0  0  0
  -29.1336  -21.2985   20.1950 N   0  0  0  0  0  0
  -29.9980  -16.0280   20.4876 N   0  0  0  0  0  0
  -27.1668  -20.6139   21.1631 O   0  0  0  0  0  0
  -32.6233  -16.8588   19.3331 F   0  0  0  0  0  0
  -31.4614  -12.5664   19.2058 H   0  0  0  0  0  0
  -30.3110  -11.5408   20.0108 H   0  0  0  0  0  0
  -29.8095  -11.7554   17.5230 H   0  0  0  0  0  0
  -29.6385  -13.4745   17.7150 H   0  0  0  0  0  0
  -27.9118  -11.3004   18.9371 H   0  0  0  0  0  0
  -27.3825  -12.5160   17.7977 H   0  0  0  0  0  0
  -27.6006  -14.2740   19.4221 H   0  0  0  0  0  0
  -28.7205  -12.3236   21.4999 H   0  0  0  0  0  0
  -28.4155  -14.0325   21.7191 H   0  0  0  0  0  0
  -25.2789   -9.5716   22.4750 H   0  0  0  0  0  0
  -24.0101   -7.4580   22.7366 H   0  0  0  0  0  0
  -21.0923   -8.8737   19.8871 H   0  0  0  0  0  0
  -22.3758  -10.9650   19.6144 H   0  0  0  0  0  0
  -21.1973   -7.6142   23.9751 H   0  0  0  0  0  0
  -21.1522   -6.0511   25.9102 H   0  0  0  0  0  0
  -22.0558   -2.7609   23.2834 H   0  0  0  0  0  0
  -22.4120  -11.9924   22.4991 H   0  0  0  0  0  0
  -21.0948  -13.1017   22.2548 H   0  0  0  0  0  0
  -24.6459  -15.8411   20.5387 H   0  0  0  0  0  0
  -26.2377  -15.6215   20.0107 H   0  0  0  0  0  0
  -26.7173  -32.5381   23.1072 H   0  0  0  0  0  0
  -24.9999  -33.9637   25.0399 H   0  0  0  0  0  0
  -22.7179  -31.2942   21.4015 H   0  0  0  0  0  0
  -23.3734  -35.9587   23.3302 H   0  0  0  0  0  0
  -24.3555  -36.8906   22.2062 H   0  0  0  0  0  0
  -23.7180  -37.6447   23.6676 H   0  0  0  0  0  0
  -26.1217  -31.5095   20.6067 H   0  0  0  0  0  0
  -26.8526  -30.8085   22.0142 H   0  0  0  0  0  0
  -28.0992  -28.8879   21.2356 H   0  0  0  0  0  0
  -25.9018  -25.8818   19.0255 H   0  0  0  0  0  0
  -23.9578  -27.2920   19.0170 H   0  0  0  0  0  0
  -23.7740  -30.5784   19.4039 H   0  0  0  0  0  0
  -22.7584  -29.2415   19.8577 H   0  0  0  0  0  0
  -25.1255  -36.1913   25.0823 H   0  0  0  0  0  0
  -20.9978  -28.3203   24.1438 H   0  0  0  0  0  0
  -20.5646  -26.2261   23.3620 H   0  0  0  0  0  0
  -21.6637  -26.7383   22.1235 H   0  0  0  0  0  0
  -19.6875  -25.6278   21.1245 H   0  0  0  0  0  0
  -19.6653  -27.3196   20.6751 H   0  0  0  0  0  0
  -17.4194  -26.6682   21.4038 H   0  0  0  0  0  0
  -18.0310  -26.0054   22.9021 H   0  0  0  0  0  0
  -19.7932  -30.7260   24.2289 H   0  0  0  0  0  0
  -17.4994  -31.6235   24.5190 H   0  0  0  0  0  0
  -15.5347  -30.2961   23.7592 H   0  0  0  0  0  0
  -15.8694  -28.0774   22.7054 H   0  0  0  0  0  0
  -24.5858  -30.7042   25.7794 H   0  0  0  0  0  0
  -24.8888  -32.2818   26.4937 H   0  0  0  0  0  0
  -25.8023  -30.8808   27.0219 H   0  0  0  0  0  0
  -26.2885  -29.6762   24.1182 H   0  0  0  0  0  0
  -27.4058  -29.7218   25.4624 H   0  0  0  0  0  0
  -27.8749  -30.4325   23.9378 H   0  0  0  0  0  0
  -27.2592  -33.3610   26.2056 H   0  0  0  0  0  0
  -28.3802  -32.6890   25.0309 H   0  0  0  0  0  0
  -28.0700  -31.8461   26.5413 H   0  0  0  0  0  0
  -28.2595  -38.0089   24.7554 H   0  0  0  0  0  0
  -28.1084  -36.2628   24.6259 H   0  0  0  0  0  0
  -27.2330  -37.1409   25.8891 H   0  0  0  0  0  0
  -20.9453  -29.8747   21.6937 H   0  0  0  0  0  0
  -26.0156  -38.2859   24.1416 H   0  0  0  0  0  0
  -31.6214  -21.1660   19.3607 H   0  0  0  0  0  0
  -33.0708  -19.2824   18.9920 H   0  0  0  0  0  0
  -28.5351  -18.4467   20.7553 H   0  0  0  0  0  0
  -30.5434  -22.9499   20.2992 H   0  0  0  0  0  0
  -29.8726  -22.6418   18.6916 H   0  0  0  0  0  0
  -25.5644  -23.4182   19.7976 H   0  0  0  0  0  0
  -26.1078  -24.4589   21.1216 H   0  0  0  0  0  0
  -25.5446  -22.8177   21.4715 H   0  0  0  0  0  0
  -27.7512  -25.0940   18.5591 H   0  0  0  0  0  0
  -29.4120  -25.2417   18.8963 H   0  0  0  0  0  0
  -29.0259  -15.9243   20.7320 H   0  0  0  0  0  0
  1 25  1  0  0  0
  1 30  2  0  0  0
  1 84  1  0  0  0
  2  3  1  0  0  0
  2 25  1  0  0  0
  2 87  1  0  0  0
  2 88  1  0  0  0
  3  4  1  0  0  0
  3 89  1  0  0  0
  3 90  1  0  0  0
  4  5  1  0  0  0
  4 91  1  0  0  0
  4 92  1  0  0  0
  5  6  1  0  0  0
  5 26  1  0  0  0
  5 93  1  0  0  0
  6 25  1  0  0  0
  6 94  1  0  0  0
  6 95  1  0  0  0
  7  8  2  0  0  0
  7 26  1  0  0  0
  7 29  1  0  0  0
  8  9  1  0  0  0
  8 22  1  0  0  0
  9 10  1  0  0  0
  9 27  2  0  0  0
 10 11  2  0  0  0
 10 15  1  0  0  0
 11 12  1  0  0  0
 11 96  1  0  0  0
 12 13  2  0  0  0
 12 97  1  0  0  0
 13 14  1  0  0  0
 13 31  1  0  0  0
 14 15  2  0  0  0
 14 98  1  0  0  0
 15 99  1  0  0  0
 16 17  2  0  0  0
 16 21  1  0  0  0
 16 31  1  0  0  0
 17 18  1  0  0  0
 17100  1  0  0  0
 18 19  2  0  0  0
 18101  1  0  0  0
 19 20  1  0  0  0
 19 24  1  0  0  0
 20 21  2  0  0  0
 20102  1  0  0  0
 21 23  1  0  0  0
 22 28  1  0  0  0
 22 32  2  0  0  0
 26 27  1  0  0  0
 28103  1  0  0  0
 28104  1  0  0  0
 29105  1  0  0  0
 29106  1  0  0  0
 33 34  1  0  0  0
 33 66  1  0  0  0
 33 70  2  0  0  0
 34 36  1  0  0  0
 34 59  1  0  0  0
 34107  1  0  0  0
 35 44  2  0  0  0
 35 45  1  0  0  0
 35 68  1  0  0  0
 36 56  1  0  0  0
 36108  1  0  0  0
 37 39  1  0  0  0
 37 47  1  0  0  0
 37 66  1  0  0  0
 37109  1  0  0  0
 38 43  2  0  0  0
 38 46  1  0  0  0
 38 47  1  0  0  0
 39 64  1  0  0  0
 39 67  2  0  0  0
 40 52  1  0  0  0
 40 53  2  0  0  0
 40 58  1  0  0  0
 41110  1  0  0  0
 41111  1  0  0  0
 41112  1  0  0  0
 41 48  1  0  0  0
 42 43  1  0  0  0
 42 66  1  0  0  0
 42113  1  0  0  0
 42114  1  0  0  0
 43 44  1  0  0  0
 44115  1  0  0  0
 45 46  2  0  0  0
 45116  1  0  0  0
 46117  1  0  0  0
 47118  1  0  0  0
 47119  1  0  0  0
 48 56  1  0  0  0
 48 65  1  0  0  0
 48120  1  0  0  0
 49 50  1  0  0  0
 49 53  1  0  0  0
 49 64  1  0  0  0
 49121  1  0  0  0
 50 51  1  0  0  0
 50122  1  0  0  0
 50123  1  0  0  0
 51 52  1  0  0  0
 51124  1  0  0  0
 51125  1  0  0  0
 52126  1  0  0  0
 52127  1  0  0  0
 53 54  1  0  0  0
 54 55  2  0  0  0
 54128  1  0  0  0
 55 57  1  0  0  0
 55129  1  0  0  0
 56 69  2  0  0  0
 57 58  2  0  0  0
 57130  1  0  0  0
 58131  1  0  0  0
 59 60  1  0  0  0
 59 61  1  0  0  0
 59 62  1  0  0  0
 60132  1  0  0  0
 60133  1  0  0  0
 60134  1  0  0  0
 61135  1  0  0  0
 61136  1  0  0  0
 61137  1  0  0  0
 62138  1  0  0  0
 62139  1  0  0  0
 62140  1  0  0  0
 63 65  1  0  0  0
 63141  1  0  0  0
 63142  1  0  0  0
 63143  1  0  0  0
 64144  1  0  0  0
 65145  1  0  0  0
 68 82  1  0  0  0
 71 72  2  0  0  0
 71 74  1  0  0  0
 71146  1  0  0  0
 72 76  1  0  0  0
 72147  1  0  0  0
 73 74  2  0  0  0
 73 75  1  0  0  0
 73148  1  0  0  0
 74 83  1  0  0  0
 75 76  2  0  0  0
 75 84  1  0  0  0
 76 86  1  0  0  0
 77 78  2  0  0  0
 77 79  1  0  0  0
 77 81  1  0  0  0
 78 80  1  0  0  0
 78 82  1  0  0  0
 79 83  1  0  0  0
 79 85  2  0  0  0
 80 83  1  0  0  0
 80149  1  0  0  0
 80150  1  0  0  0
 81151  1  0  0  0
 81152  1  0  0  0
 81153  1  0  0  0
 82154  1  0  0  0
 82155  1  0  0  0
 84156  1  0  0  0
M  ISO  4   1 100  68 101  82 101  84 100
M  END
> <chiral flag>
0

> <version>
0

> <s_m_source_file>
/data/baiqing/PycharmProjects/Reinvent-master-3.2/result/LINK_invent/BTK/process_docking_weight1_custom_product_contain_oxygen_bond_distance_aromatic_linkinvent_7_9_3/rearranged_h_0074.sdf

> <i_m_source_file_index>
82

> <r_mmod_Potential_Energy-OPLS-2005>
322.380737304688

> <r_mmod_Stretch_Energy-OPLS-2005>
142.77099609375

> <r_mmod_Bend_Energy-OPLS-2005>
244.094772338867

> <r_mmod_Torsional_Energy-OPLS-2005>
248.363739013672

> <r_mmod_Improper_Torsional_Energy-OPLS-2005>
5.96220254898071

> <r_mmod_Van_der_Waal_Energy-OPLS-2005>
149.074920654297

> <r_mmod_Electrostatic_Energy-OPLS-2005>
-353.324584960938

> <r_mmod_Solvation_Energy-OPLS-2005>
-223.504547119141

> <b_mmod_Minimization_Converged-OPLS-2005>
0

> <r_mmod_RMS_Derivative-OPLS-2005>
5.39580917358398

$$$$
84
                    3D
 Structure written by MMmdl.
156165  0  0  1  0            999 V2000
  -30.5878  -14.7668   20.4657 C   0  0  0  0  0  0
  -30.4561  -12.4678   19.4710 C   0  0  0  0  0  0
  -29.5225  -12.4961   18.2375 C   0  0  0  0  0  0
  -28.0514  -12.3007   18.6559 C   0  0  0  0  0  0
  -27.6490  -13.2163   19.8444 C   0  0  2  0  0  0
  -28.6965  -13.1451   20.9791 C   0  0  0  0  0  0
  -25.2597  -13.8176   20.5669 C   0  0  0  0  0  0
  -24.1871  -13.0444   20.9206 C   0  0  0  0  0  0
  -24.6429  -11.6900   20.8757 C   0  0  0  0  0  0
  -23.9085  -10.4287   21.0431 C   0  0  0  0  0  0
  -24.3630   -9.4202   21.9207 C   0  0  0  0  0  0
  -23.6293   -8.2248   22.0771 C   0  0  0  0  0  0
  -22.4287   -8.0296   21.3549 C   0  0  0  0  0  0
  -21.9914   -9.0275   20.4660 C   0  0  0  0  0  0
  -22.7248  -10.2153   20.3079 C   0  0  0  0  0  0
  -21.6837   -6.0754   22.5295 C   0  0  0  0  0  0
  -21.4011   -6.5661   23.8233 C   0  0  0  0  0  0
  -21.3648   -5.6810   24.9189 C   0  0  0  0  0  0
  -21.6049   -4.3078   24.7227 C   0  0  0  0  0  0
  -21.8816   -3.8165   23.4344 C   0  0  0  0  0  0
  -21.9189   -4.6982   22.3403 C   0  0  0  0  0  0
  -22.7889  -13.5268   21.1819 C   0  0  0  0  0  0
  -22.1657   -4.2177   21.0973 F   0  0  0  0  0  0
  -21.5611   -3.4550   25.7729 F   0  0  0  0  0  0
  -30.0025  -13.5207   20.4099 N   0  0  0  0  0  0
  -26.2988  -12.9340   20.3218 N   0  0  0  0  0  0
  -25.9353  -11.6514   20.5754 N   0  0  0  0  0  0
  -22.0466  -12.8326   22.0376 N   0  0  0  0  0  0
  -25.4308  -15.1895   20.4059 N   0  0  0  0  0  0
  -31.7636  -14.9245   20.1178 O   0  0  0  0  0  0
  -21.6633   -6.8909   21.4260 O   0  0  0  0  0  0
  -22.3604  -14.5566   20.6625 O   0  0  0  0  0  0
  -24.6294  -31.8575   23.1994 C   0  0  0  0  0  0
  -25.9131  -32.4783   23.8330 C   0  0  1  0  0  0
  -27.2471  -27.2796   20.1181 C   0  0  0  0  0  0
  -25.5952  -33.8591   24.2252 N   0  0  0  0  0  0
  -23.4304  -30.4715   21.5442 C   0  0  2  0  0  0
  -24.8902  -28.9188   20.1139 C   0  0  0  0  0  0
  -22.7518  -29.4569   22.4941 C   0  0  0  0  0  0
  -18.0285  -28.1384   22.8511 C   0  0  0  0  0  0
  -24.1493  -36.7289   23.2633 C   0  0  0  0  0  0
  -25.9783  -30.7714   21.3842 C   0  0  0  0  0  0
  -26.0608  -29.3965   20.7203 C   0  0  0  0  0  0
  -27.2458  -28.5887   20.7144 C   0  0  0  0  0  0
  -26.0565  -26.8688   19.4904 C   0  0  0  0  0  0
  -24.8912  -27.6612   19.4900 C   0  0  0  0  0  0
  -23.6575  -29.8067   20.1612 C   0  0  0  0  0  0
  -25.4124  -36.3093   24.0315 C   0  0  1  0  0  0
  -20.5888  -28.3690   23.1290 C   0  0  2  0  0  0
  -20.6774  -26.9403   22.5425 C   0  0  0  0  0  0
  -19.5736  -26.6375   21.5240 C   0  0  0  0  0  0
  -18.1914  -26.7938   22.1646 C   0  0  0  0  0  0
  -19.1542  -28.8856   23.2906 C   0  0  0  0  0  0
  -18.9480  -30.1455   23.8915 C   0  0  0  0  0  0
  -17.6466  -30.6595   24.0555 C   0  0  0  0  0  0
  -25.9085  -34.9476   23.5084 C   0  0  0  0  0  0
  -16.5338  -29.9100   23.6328 C   0  0  0  0  0  0
  -16.7261  -28.6510   23.0375 C   0  0  0  0  0  0
  -26.4507  -31.6604   25.0714 C   0  0  0  0  0  0
  -25.3731  -31.3752   26.1435 C   0  0  0  0  0  0
  -27.0319  -30.2995   24.6232 C   0  0  0  0  0  0
  -27.6081  -32.4344   25.7479 C   0  0  0  0  0  0
  -27.5596  -37.1770   24.8450 C   0  0  0  0  0  0
  -21.4223  -29.3028   22.3707 N   0  0  0  0  0  0
  -26.4287  -37.3806   23.9437 N   0  0  0  0  0  0
  -24.6990  -31.0527   22.0984 N   0  0  0  0  0  0
  -23.4215  -28.8126   23.3042 O   0  0  0  0  0  0
  -28.3057  -26.3374   20.1658 O   0  0  0  0  0  0
  -26.5660  -34.8951   22.4656 O   0  0  0  0  0  0
  -23.5435  -32.1392   23.7285 O   0  0  0  0  0  0
  -30.5880  -19.6765   20.3767 C   0  0  0  0  0  0
  -30.7918  -18.2395   20.4161 C   0  0  0  0  0  0
  -28.4702  -17.9668   20.7536 C   0  0  0  0  0  0
  -28.2763  -19.3891   20.6934 C   0  0  0  0  0  0
  -29.3279  -20.3524   20.5335 C   0  0  0  0  0  0
  -29.7253  -17.3185   20.6308 C   0  0  0  0  0  0
  -28.6652  -23.8539   20.7872 C   0  0  0  0  0  0
  -29.3382  -23.0323   19.7607 C   0  0  0  0  0  0
  -28.1957  -25.1633   20.9824 C   0  0  0  0  0  0
  -28.7017  -22.6110   21.7063 C   0  0  0  0  0  0
  -26.8356  -19.8577   20.7175 C   0  0  0  0  0  0
  -27.4946  -25.4696   22.3081 C   0  0  0  0  0  0
  -29.0780  -21.8350   20.5076 N   0  0  0  0  0  0
  -29.7395  -15.8266   20.7539 N   0  0  0  0  0  0
  -29.8929  -23.3277   18.7257 O   0  0  0  0  0  0
  -31.4918  -12.6166   19.1597 H   0  0  0  0  0  0
  -30.4290  -11.4893   19.9566 H   0  0  0  0  0  0
  -29.8134  -11.7173   17.5321 H   0  0  0  0  0  0
  -29.6344  -13.4470   17.7120 H   0  0  0  0  0  0
  -27.9384  -11.2559   18.9452 H   0  0  0  0  0  0
  -27.3892  -12.4503   17.8018 H   0  0  0  0  0  0
  -27.6459  -14.2320   19.4519 H   0  0  0  0  0  0
  -28.7400  -12.1398   21.4012 H   0  0  0  0  0  0
  -28.4175  -13.8045   21.8031 H   0  0  0  0  0  0
  -25.2781   -9.5687   22.4771 H   0  0  0  0  0  0
  -23.9992   -7.4662   22.7518 H   0  0  0  0  0  0
  -21.0819   -8.8833   19.8969 H   0  0  0  0  0  0
  -22.3724  -10.9719   19.6195 H   0  0  0  0  0  0
  -21.2007   -7.6169   23.9758 H   0  0  0  0  0  0
  -21.1455   -6.0522   25.9100 H   0  0  0  0  0  0
  -22.0589   -2.7621   23.2843 H   0  0  0  0  0  0
  -22.4027  -11.9995   22.4838 H   0  0  0  0  0  0
  -21.1093  -13.1457   22.2491 H   0  0  0  0  0  0
  -24.6533  -15.8338   20.5093 H   0  0  0  0  0  0
  -26.2545  -15.6199   20.0084 H   0  0  0  0  0  0
  -26.7198  -32.5477   23.1089 H   0  0  0  0  0  0
  -25.0022  -33.9750   25.0341 H   0  0  0  0  0  0
  -22.7248  -31.2904   21.3906 H   0  0  0  0  0  0
  -23.3803  -35.9576   23.3270 H   0  0  0  0  0  0
  -24.3561  -36.8954   22.2048 H   0  0  0  0  0  0
  -23.7190  -37.6456   23.6680 H   0  0  0  0  0  0
  -26.1168  -31.5436   20.6232 H   0  0  0  0  0  0
  -26.8537  -30.8238   22.0217 H   0  0  0  0  0  0
  -28.1398  -28.9484   21.2056 H   0  0  0  0  0  0
  -26.0313  -25.8951   19.0198 H   0  0  0  0  0  0
  -23.9947  -27.2848   19.0176 H   0  0  0  0  0  0
  -23.7954  -30.5889   19.4132 H   0  0  0  0  0  0
  -22.7780  -29.2440   19.8416 H   0  0  0  0  0  0
  -25.1292  -36.1924   25.0790 H   0  0  0  0  0  0
  -20.9938  -28.3258   24.1438 H   0  0  0  0  0  0
  -20.5690  -26.2292   23.3630 H   0  0  0  0  0  0
  -21.6639  -26.7443   22.1179 H   0  0  0  0  0  0
  -19.6902  -25.6300   21.1247 H   0  0  0  0  0  0
  -19.6668  -27.3216   20.6778 H   0  0  0  0  0  0
  -17.4174  -26.6713   21.4043 H   0  0  0  0  0  0
  -18.0288  -26.0075   22.9012 H   0  0  0  0  0  0
  -19.7944  -30.7286   24.2303 H   0  0  0  0  0  0
  -17.5009  -31.6276   24.5151 H   0  0  0  0  0  0
  -15.5341  -30.3004   23.7659 H   0  0  0  0  0  0
  -15.8659  -28.0817   22.7097 H   0  0  0  0  0  0
  -24.5926  -30.7095   25.7737 H   0  0  0  0  0  0
  -24.8916  -32.2914   26.4847 H   0  0  0  0  0  0
  -25.8044  -30.8912   27.0208 H   0  0  0  0  0  0
  -26.2857  -29.6764   24.1287 H   0  0  0  0  0  0
  -27.3968  -29.7263   25.4768 H   0  0  0  0  0  0
  -27.8780  -30.4212   23.9473 H   0  0  0  0  0  0
  -27.2700  -33.3664   26.2023 H   0  0  0  0  0  0
  -28.3897  -32.6872   25.0301 H   0  0  0  0  0  0
  -28.0754  -31.8494   26.5411 H   0  0  0  0  0  0
  -28.2549  -38.0131   24.7606 H   0  0  0  0  0  0
  -28.1143  -36.2667   24.6129 H   0  0  0  0  0  0
  -27.2323  -37.1242   25.8848 H   0  0  0  0  0  0
  -20.9426  -29.8796   21.6934 H   0  0  0  0  0  0
  -26.0173  -38.2862   24.1542 H   0  0  0  0  0  0
  -31.4595  -20.2947   20.2190 H   0  0  0  0  0  0
  -31.7951  -17.8640   20.2853 H   0  0  0  0  0  0
  -27.5953  -17.3474   20.8755 H   0  0  0  0  0  0
  -27.7919  -22.3096   22.2073 H   0  0  0  0  0  0
  -29.5104  -22.6013   22.4336 H   0  0  0  0  0  0
  -26.1578  -19.0820   21.0772 H   0  0  0  0  0  0
  -26.5270  -20.1233   19.7065 H   0  0  0  0  0  0
  -26.6907  -20.7177   21.3595 H   0  0  0  0  0  0
  -27.1110  -24.5507   22.7469 H   0  0  0  0  0  0
  -26.6238  -26.1098   22.2023 H   0  0  0  0  0  0
  -28.1711  -25.9271   23.0274 H   0  0  0  0  0  0
  -28.8394  -15.4492   21.0108 H   0  0  0  0  0  0
  1 25  1  0  0  0
  1 30  2  0  0  0
  1 84  1  0  0  0
  2  3  1  0  0  0
  2 25  1  0  0  0
  2 86  1  0  0  0
  2 87  1  0  0  0
  3  4  1  0  0  0
  3 88  1  0  0  0
  3 89  1  0  0  0
  4  5  1  0  0  0
  4 90  1  0  0  0
  4 91  1  0  0  0
  5  6  1  0  0  0
  5 26  1  0  0  0
  5 92  1  0  0  0
  6 25  1  0  0  0
  6 93  1  0  0  0
  6 94  1  0  0  0
  7  8  2  0  0  0
  7 26  1  0  0  0
  7 29  1  0  0  0
  8  9  1  0  0  0
  8 22  1  0  0  0
  9 10  1  0  0  0
  9 27  2  0  0  0
 10 11  2  0  0  0
 10 15  1  0  0  0
 11 12  1  0  0  0
 11 95  1  0  0  0
 12 13  2  0  0  0
 12 96  1  0  0  0
 13 14  1  0  0  0
 13 31  1  0  0  0
 14 15  2  0  0  0
 14 97  1  0  0  0
 15 98  1  0  0  0
 16 17  2  0  0  0
 16 21  1  0  0  0
 16 31  1  0  0  0
 17 18  1  0  0  0
 17 99  1  0  0  0
 18 19  2  0  0  0
 18100  1  0  0  0
 19 20  1  0  0  0
 19 24  1  0  0  0
 20 21  2  0  0  0
 20101  1  0  0  0
 21 23  1  0  0  0
 22 28  1  0  0  0
 22 32  2  0  0  0
 26 27  1  0  0  0
 28102  1  0  0  0
 28103  1  0  0  0
 29104  1  0  0  0
 29105  1  0  0  0
 33 34  1  0  0  0
 33 66  1  0  0  0
 33 70  2  0  0  0
 34 36  1  0  0  0
 34 59  1  0  0  0
 34106  1  0  0  0
 35 44  2  0  0  0
 35 45  1  0  0  0
 35 68  1  0  0  0
 36 56  1  0  0  0
 36107  1  0  0  0
 37 39  1  0  0  0
 37 47  1  0  0  0
 37 66  1  0  0  0
 37108  1  0  0  0
 38 43  2  0  0  0
 38 46  1  0  0  0
 38 47  1  0  0  0
 39 64  1  0  0  0
 39 67  2  0  0  0
 40 52  1  0  0  0
 40 53  2  0  0  0
 40 58  1  0  0  0
 41109  1  0  0  0
 41110  1  0  0  0
 41111  1  0  0  0
 41 48  1  0  0  0
 42 43  1  0  0  0
 42 66  1  0  0  0
 42112  1  0  0  0
 42113  1  0  0  0
 43 44  1  0  0  0
 44114  1  0  0  0
 45 46  2  0  0  0
 45115  1  0  0  0
 46116  1  0  0  0
 47117  1  0  0  0
 47118  1  0  0  0
 48 56  1  0  0  0
 48 65  1  0  0  0
 48119  1  0  0  0
 49 50  1  0  0  0
 49 53  1  0  0  0
 49 64  1  0  0  0
 49120  1  0  0  0
 50 51  1  0  0  0
 50121  1  0  0  0
 50122  1  0  0  0
 51 52  1  0  0  0
 51123  1  0  0  0
 51124  1  0  0  0
 52125  1  0  0  0
 52126  1  0  0  0
 53 54  1  0  0  0
 54 55  2  0  0  0
 54127  1  0  0  0
 55 57  1  0  0  0
 55128  1  0  0  0
 56 69  2  0  0  0
 57 58  2  0  0  0
 57129  1  0  0  0
 58130  1  0  0  0
 59 60  1  0  0  0
 59 61  1  0  0  0
 59 62  1  0  0  0
 60131  1  0  0  0
 60132  1  0  0  0
 60133  1  0  0  0
 61134  1  0  0  0
 61135  1  0  0  0
 61136  1  0  0  0
 62137  1  0  0  0
 62138  1  0  0  0
 62139  1  0  0  0
 63 65  1  0  0  0
 63140  1  0  0  0
 63141  1  0  0  0
 63142  1  0  0  0
 64143  1  0  0  0
 65144  1  0  0  0
 68 79  1  0  0  0
 71 72  2  0  0  0
 71 75  1  0  0  0
 71145  1  0  0  0
 72 76  1  0  0  0
 72146  1  0  0  0
 73 74  1  0  0  0
 73 76  2  0  0  0
 73147  1  0  0  0
 74 75  2  0  0  0
 74 81  1  0  0  0
 75 83  1  0  0  0
 76 84  1  0  0  0
 77 78  1  0  0  0
 77 79  2  0  0  0
 77 80  1  0  0  0
 78 83  1  0  0  0
 78 85  2  0  0  0
 79 82  1  0  0  0
 80 83  1  0  0  0
 80148  1  0  0  0
 80149  1  0  0  0
 81150  1  0  0  0
 81151  1  0  0  0
 81152  1  0  0  0
 82153  1  0  0  0
 82154  1  0  0  0
 82155  1  0  0  0
 84156  1  0  0  0
M  ISO  4   1 100  68 101  79 101  84 100
M  END
> <chiral flag>
0

> <version>
0

> <s_m_source_file>
/data/baiqing/PycharmProjects/Reinvent-master-3.2/result/LINK_invent/BTK/process_docking_weight1_custom_product_contain_oxygen_bond_distance_aromatic_linkinvent_7_9_3/rearranged_h_0074.sdf

> <i_m_source_file_index>
83

> <r_mmod_Potential_Energy-OPLS-2005>
294.519165039062

> <r_mmod_Stretch_Energy-OPLS-2005>
122.21280670166

> <r_mmod_Bend_Energy-OPLS-2005>
278.156372070312

> <r_mmod_Torsional_Energy-OPLS-2005>
253.948150634766

> <r_mmod_Improper_Torsional_Energy-OPLS-2005>
5.48993968963623

> <r_mmod_Van_der_Waal_Energy-OPLS-2005>
135.379287719727

> <r_mmod_Electrostatic_Energy-OPLS-2005>
-370.503295898438

> <r_mmod_Solvation_Energy-OPLS-2005>
-221.970428466797

> <b_mmod_Minimization_Converged-OPLS-2005>
0

> <r_mmod_RMS_Derivative-OPLS-2005>
9.20130062103271

$$$$
85
                    3D
 Structure written by MMmdl.
167176  0  0  1  0            999 V2000
  -30.7269  -14.4863   20.4563 C   0  0  0  0  0  0
  -30.4063  -12.2847   19.4424 C   0  0  0  0  0  0
  -29.4926  -12.4642   18.2134 C   0  0  0  0  0  0
  -28.0123  -12.3470   18.6220 C   0  0  0  0  0  0
  -27.6531  -13.2152   19.8590 C   0  0  2  0  0  0
  -28.7005  -13.0711   20.9885 C   0  0  0  0  0  0
  -25.2558  -13.8180   20.5691 C   0  0  0  0  0  0
  -24.1823  -13.0439   20.9192 C   0  0  0  0  0  0
  -24.6396  -11.6914   20.8740 C   0  0  0  0  0  0
  -23.9069  -10.4297   21.0412 C   0  0  0  0  0  0
  -24.3618   -9.4204   21.9186 C   0  0  0  0  0  0
  -23.6293   -8.2240   22.0751 C   0  0  0  0  0  0
  -22.4275   -8.0284   21.3545 C   0  0  0  0  0  0
  -21.9914   -9.0261   20.4646 C   0  0  0  0  0  0
  -22.7247  -10.2138   20.3054 C   0  0  0  0  0  0
  -21.6852   -6.0734   22.5276 C   0  0  0  0  0  0
  -21.4015   -6.5635   23.8208 C   0  0  0  0  0  0
  -21.3656   -5.6787   24.9173 C   0  0  0  0  0  0
  -21.6043   -4.3052   24.7221 C   0  0  0  0  0  0
  -21.8821   -3.8145   23.4346 C   0  0  0  0  0  0
  -21.9193   -4.6964   22.3401 C   0  0  0  0  0  0
  -22.7847  -13.5229   21.1857 C   0  0  0  0  0  0
  -22.1663   -4.2148   21.0983 F   0  0  0  0  0  0
  -21.5627   -3.4538   25.7733 F   0  0  0  0  0  0
  -30.0283  -13.3216   20.4140 N   0  0  0  0  0  0
  -26.2996  -12.9364   20.3332 N   0  0  0  0  0  0
  -25.9320  -11.6519   20.5763 N   0  0  0  0  0  0
  -22.0483  -12.8219   22.0411 N   0  0  0  0  0  0
  -25.4262  -15.1896   20.4103 N   0  0  0  0  0  0
  -31.9292  -14.5391   20.1953 O   0  0  0  0  0  0
  -21.6638   -6.8880   21.4242 O   0  0  0  0  0  0
  -22.3525  -14.5536   20.6712 O   0  0  0  0  0  0
  -24.6161  -31.8685   23.2113 C   0  0  0  0  0  0
  -25.9055  -32.4822   23.8409 C   0  0  1  0  0  0
  -27.2251  -27.4306   20.0951 C   0  0  0  0  0  0
  -25.5915  -33.8620   24.2337 N   0  0  0  0  0  0
  -23.4031  -30.4953   21.5527 C   0  0  2  0  0  0
  -24.8476  -28.9682   20.1096 C   0  0  0  0  0  0
  -22.7419  -29.4663   22.4986 C   0  0  0  0  0  0
  -18.0270  -28.1379   22.8485 C   0  0  0  0  0  0
  -24.1485  -36.7317   23.2639 C   0  0  0  0  0  0
  -25.9343  -30.8345   21.3647 C   0  0  0  0  0  0
  -26.0103  -29.4714   20.7071 C   0  0  0  0  0  0
  -27.2045  -28.7117   20.6941 C   0  0  0  0  0  0
  -26.0449  -26.9553   19.4745 C   0  0  0  0  0  0
  -24.8610  -27.7108   19.4869 C   0  0  0  0  0  0
  -23.6100  -29.8344   20.1648 C   0  0  0  0  0  0
  -25.4104  -36.3111   24.0340 C   0  0  1  0  0  0
  -20.5864  -28.3664   23.1319 C   0  0  2  0  0  0
  -20.6760  -26.9403   22.5414 C   0  0  0  0  0  0
  -19.5741  -26.6386   21.5207 C   0  0  0  0  0  0
  -18.1919  -26.7928   22.1615 C   0  0  0  0  0  0
  -19.1520  -28.8840   23.2898 C   0  0  0  0  0  0
  -18.9447  -30.1445   23.8911 C   0  0  0  0  0  0
  -17.6451  -30.6587   24.0559 C   0  0  0  0  0  0
  -25.9037  -34.9476   23.5134 C   0  0  0  0  0  0
  -16.5339  -29.9090   23.6326 C   0  0  0  0  0  0
  -16.7258  -28.6507   23.0345 C   0  0  0  0  0  0
  -26.4478  -31.6594   25.0735 C   0  0  0  0  0  0
  -25.3746  -31.3691   26.1486 C   0  0  0  0  0  0
  -27.0300  -30.3035   24.6103 C   0  0  0  0  0  0
  -27.6056  -32.4306   25.7504 C   0  0  0  0  0  0
  -27.5579  -37.1814   24.8464 C   0  0  0  0  0  0
  -21.4144  -29.3036   22.3730 N   0  0  0  0  0  0
  -26.4288  -37.3797   23.9414 N   0  0  0  0  0  0
  -24.6696  -31.0798   22.1011 N   0  0  0  0  0  0
  -23.4195  -28.8197   23.3016 O   0  0  0  0  0  0
  -28.3660  -26.6500   20.1496 O   0  0  0  0  0  0
  -26.5588  -34.8927   22.4687 O   0  0  0  0  0  0
  -23.5355  -32.1426   23.7516 O   0  0  0  0  0  0
  -30.9028  -19.1868   19.3549 C   0  0  0  0  0  0
  -29.3377  -18.5498   21.0820 C   0  0  0  0  0  0
  -30.7485  -20.5404   19.7030 C   0  0  0  0  0  0
  -29.1860  -19.9189   21.4143 C   0  0  0  0  0  0
  -30.1964  -18.1717   20.0303 C   0  0  0  0  0  0
  -29.8707  -20.9614   20.7298 C   0  0  0  0  0  0
  -28.6937  -23.0908   21.6323 C   0  0  0  0  0  0
  -30.4283  -16.0073   17.1268 C   0  0  0  0  0  0
  -29.7405  -16.5246   18.1583 C   0  0  0  0  0  0
  -30.0871  -25.1172   21.9925 C   0  0  0  0  0  0
  -29.9831  -23.3572   20.0359 C   0  0  0  0  0  0
  -29.2535  -24.3865   20.9444 C   0  0  1  0  0  0
  -28.2902  -16.9468   18.0111 C   0  0  0  0  0  0
  -29.3295  -25.8160   23.1234 C   0  0  0  0  0  0
  -28.1087  -25.2414   20.3488 C   0  0  0  0  0  0
  -30.3814  -16.7351   19.5273 C   0  0  2  0  0  0
  -29.7096  -22.3462   21.0523 N   0  0  0  0  0  0
  -29.9877  -15.6144   20.4095 N   0  0  0  0  0  0
  -27.7125  -22.7548   22.2640 O   0  0  0  0  0  0
  -31.3203  -25.2016   22.0069 O   0  0  0  0  0  0
  -31.4556  -12.3435   19.1465 H   0  0  0  0  0  0
  -30.2740  -11.2938   19.8799 H   0  0  0  0  0  0
  -29.7309  -11.7169   17.4555 H   0  0  0  0  0  0
  -29.6717  -13.4341   17.7512 H   0  0  0  0  0  0
  -27.8150  -11.2969   18.8372 H   0  0  0  0  0  0
  -27.3690  -12.6099   17.7809 H   0  0  0  0  0  0
  -27.6736  -14.2482   19.5170 H   0  0  0  0  0  0
  -28.6668  -12.0689   21.4173 H   0  0  0  0  0  0
  -28.4878  -13.7617   21.8062 H   0  0  0  0  0  0
  -25.2759   -9.5666   22.4759 H   0  0  0  0  0  0
  -23.9998   -7.4623   22.7465 H   0  0  0  0  0  0
  -21.0843   -8.8790   19.8943 H   0  0  0  0  0  0
  -22.3722  -10.9680   19.6158 H   0  0  0  0  0  0
  -21.2005   -7.6144   23.9716 H   0  0  0  0  0  0
  -21.1477   -6.0518   25.9082 H   0  0  0  0  0  0
  -22.0602   -2.7610   23.2844 H   0  0  0  0  0  0
  -22.4096  -11.9868   22.4777 H   0  0  0  0  0  0
  -21.1104  -13.1246   22.2624 H   0  0  0  0  0  0
  -24.6573  -15.8433   20.5111 H   0  0  0  0  0  0
  -26.2753  -15.6290   20.0808 H   0  0  0  0  0  0
  -26.7132  -32.5532   23.1180 H   0  0  0  0  0  0
  -25.0090  -33.9778   25.0499 H   0  0  0  0  0  0
  -22.6916  -31.3125   21.4179 H   0  0  0  0  0  0
  -23.3743  -35.9654   23.3305 H   0  0  0  0  0  0
  -24.3580  -36.8922   22.2052 H   0  0  0  0  0  0
  -23.7240  -37.6527   23.6644 H   0  0  0  0  0  0
  -26.0481  -31.6020   20.5976 H   0  0  0  0  0  0
  -26.8221  -30.8847   21.9831 H   0  0  0  0  0  0
  -28.0992  -29.0909   21.1685 H   0  0  0  0  0  0
  -26.0163  -25.9957   18.9795 H   0  0  0  0  0  0
  -23.9699  -27.3210   19.0138 H   0  0  0  0  0  0
  -23.7173  -30.6123   19.4081 H   0  0  0  0  0  0
  -22.7330  -29.2565   19.8672 H   0  0  0  0  0  0
  -25.1277  -36.1978   25.0833 H   0  0  0  0  0  0
  -20.9946  -28.3222   24.1439 H   0  0  0  0  0  0
  -20.5656  -26.2272   23.3599 H   0  0  0  0  0  0
  -21.6632  -26.7445   22.1211 H   0  0  0  0  0  0
  -19.6905  -25.6297   21.1235 H   0  0  0  0  0  0
  -19.6692  -27.3196   20.6736 H   0  0  0  0  0  0
  -17.4191  -26.6668   21.4015 H   0  0  0  0  0  0
  -18.0324  -26.0070   22.9013 H   0  0  0  0  0  0
  -19.7921  -30.7246   24.2296 H   0  0  0  0  0  0
  -17.5009  -31.6268   24.5153 H   0  0  0  0  0  0
  -15.5341  -30.2993   23.7653 H   0  0  0  0  0  0
  -15.8653  -28.0834   22.7056 H   0  0  0  0  0  0
  -24.5940  -30.7010   25.7831 H   0  0  0  0  0  0
  -24.8914  -32.2837   26.4934 H   0  0  0  0  0  0
  -25.8116  -30.8877   27.0242 H   0  0  0  0  0  0
  -26.2839  -29.6817   24.1143 H   0  0  0  0  0  0
  -27.4052  -29.7256   25.4557 H   0  0  0  0  0  0
  -27.8687  -30.4353   23.9261 H   0  0  0  0  0  0
  -27.2681  -33.3597   26.2109 H   0  0  0  0  0  0
  -28.3860  -32.6873   25.0328 H   0  0  0  0  0  0
  -28.0729  -31.8409   26.5398 H   0  0  0  0  0  0
  -28.2597  -38.0110   24.7507 H   0  0  0  0  0  0
  -28.1069  -36.2641   24.6283 H   0  0  0  0  0  0
  -27.2303  -37.1460   25.8869 H   0  0  0  0  0  0
  -20.9306  -29.8779   21.6969 H   0  0  0  0  0  0
  -26.0177  -38.2878   24.1406 H   0  0  0  0  0  0
  -31.5673  -18.9292   18.5414 H   0  0  0  0  0  0
  -28.7771  -17.8016   21.6246 H   0  0  0  0  0  0
  -31.3212  -21.2665   19.1440 H   0  0  0  0  0  0
  -28.5096  -20.1682   22.2200 H   0  0  0  0  0  0
  -29.9725  -15.8660   16.1573 H   0  0  0  0  0  0
  -31.4627  -15.7119   17.2350 H   0  0  0  0  0  0
  -31.0450  -23.5556   19.8764 H   0  0  0  0  0  0
  -29.4692  -23.1615   19.0909 H   0  0  0  0  0  0
  -27.8816  -16.6426   17.0467 H   0  0  0  0  0  0
  -28.2005  -18.0308   18.0863 H   0  0  0  0  0  0
  -27.6769  -16.5013   18.7921 H   0  0  0  0  0  0
  -28.2638  -25.8954   22.9140 H   0  0  0  0  0  0
  -29.7222  -26.8220   23.2695 H   0  0  0  0  0  0
  -29.4549  -25.2629   24.0543 H   0  0  0  0  0  0
  -27.2149  -25.1173   20.9654 H   0  0  0  0  0  0
  -27.8496  -24.8286   19.3735 H   0  0  0  0  0  0
  -31.4598  -16.6896   19.3627 H   0  0  0  0  0  0
  -29.0052  -15.5187   20.6042 H   0  0  0  0  0  0
  1 25  1  0  0  0
  1 30  2  0  0  0
  1 88  1  0  0  0
  2  3  1  0  0  0
  2 25  1  0  0  0
  2 91  1  0  0  0
  2 92  1  0  0  0
  3  4  1  0  0  0
  3 93  1  0  0  0
  3 94  1  0  0  0
  4  5  1  0  0  0
  4 95  1  0  0  0
  4 96  1  0  0  0
  5  6  1  0  0  0
  5 26  1  0  0  0
  5 97  1  0  0  0
  6 25  1  0  0  0
  6 98  1  0  0  0
  6 99  1  0  0  0
  7  8  2  0  0  0
  7 26  1  0  0  0
  7 29  1  0  0  0
  8  9  1  0  0  0
  8 22  1  0  0  0
  9 10  1  0  0  0
  9 27  2  0  0  0
 10 11  2  0  0  0
 10 15  1  0  0  0
 11 12  1  0  0  0
 11100  1  0  0  0
 12 13  2  0  0  0
 12101  1  0  0  0
 13 14  1  0  0  0
 13 31  1  0  0  0
 14 15  2  0  0  0
 14102  1  0  0  0
 15103  1  0  0  0
 16 17  2  0  0  0
 16 21  1  0  0  0
 16 31  1  0  0  0
 17 18  1  0  0  0
 17104  1  0  0  0
 18 19  2  0  0  0
 18105  1  0  0  0
 19 20  1  0  0  0
 19 24  1  0  0  0
 20 21  2  0  0  0
 20106  1  0  0  0
 21 23  1  0  0  0
 22 28  1  0  0  0
 22 32  2  0  0  0
 26 27  1  0  0  0
 28107  1  0  0  0
 28108  1  0  0  0
 29109  1  0  0  0
 29110  1  0  0  0
 33 34  1  0  0  0
 33 66  1  0  0  0
 33 70  2  0  0  0
 34 36  1  0  0  0
 34 59  1  0  0  0
 34111  1  0  0  0
 35 44  2  0  0  0
 35 45  1  0  0  0
 35 68  1  0  0  0
 36 56  1  0  0  0
 36112  1  0  0  0
 37 39  1  0  0  0
 37 47  1  0  0  0
 37 66  1  0  0  0
 37113  1  0  0  0
 38 43  2  0  0  0
 38 46  1  0  0  0
 38 47  1  0  0  0
 39 64  1  0  0  0
 39 67  2  0  0  0
 40 52  1  0  0  0
 40 53  2  0  0  0
 40 58  1  0  0  0
 41114  1  0  0  0
 41115  1  0  0  0
 41116  1  0  0  0
 41 48  1  0  0  0
 42 43  1  0  0  0
 42 66  1  0  0  0
 42117  1  0  0  0
 42118  1  0  0  0
 43 44  1  0  0  0
 44119  1  0  0  0
 45 46  2  0  0  0
 45120  1  0  0  0
 46121  1  0  0  0
 47122  1  0  0  0
 47123  1  0  0  0
 48 56  1  0  0  0
 48 65  1  0  0  0
 48124  1  0  0  0
 49 50  1  0  0  0
 49 53  1  0  0  0
 49 64  1  0  0  0
 49125  1  0  0  0
 50 51  1  0  0  0
 50126  1  0  0  0
 50127  1  0  0  0
 51 52  1  0  0  0
 51128  1  0  0  0
 51129  1  0  0  0
 52130  1  0  0  0
 52131  1  0  0  0
 53 54  1  0  0  0
 54 55  2  0  0  0
 54132  1  0  0  0
 55 57  1  0  0  0
 55133  1  0  0  0
 56 69  2  0  0  0
 57 58  2  0  0  0
 57134  1  0  0  0
 58135  1  0  0  0
 59 60  1  0  0  0
 59 61  1  0  0  0
 59 62  1  0  0  0
 60136  1  0  0  0
 60137  1  0  0  0
 60138  1  0  0  0
 61139  1  0  0  0
 61140  1  0  0  0
 61141  1  0  0  0
 62142  1  0  0  0
 62143  1  0  0  0
 62144  1  0  0  0
 63 65  1  0  0  0
 63145  1  0  0  0
 63146  1  0  0  0
 63147  1  0  0  0
 64148  1  0  0  0
 65149  1  0  0  0
 68 85  1  0  0  0
 71 73  2  0  0  0
 71 75  1  0  0  0
 71150  1  0  0  0
 72 74  1  0  0  0
 72 75  2  0  0  0
 72151  1  0  0  0
 73 76  1  0  0  0
 73152  1  0  0  0
 74 76  2  0  0  0
 74153  1  0  0  0
 75 86  1  0  0  0
 76 87  1  0  0  0
 77 82  1  0  0  0
 77 87  1  0  0  0
 77 89  2  0  0  0
 78 79  2  0  0  0
 78154  1  0  0  0
 78155  1  0  0  0
 79 83  1  0  0  0
 79 86  1  0  0  0
 80 84  1  0  0  0
 80 90  2  0  0  0
 80 82  1  0  0  0
 81 82  1  0  0  0
 81 87  1  0  0  0
 81156  1  0  0  0
 81157  1  0  0  0
 82 85  1  0  0  0
 83158  1  0  0  0
 83159  1  0  0  0
 83160  1  0  0  0
 84161  1  0  0  0
 84162  1  0  0  0
 84163  1  0  0  0
 85164  1  0  0  0
 85165  1  0  0  0
 86 88  1  0  0  0
 86166  1  0  0  0
 88167  1  0  0  0
M  ISO  4   1 100  68 101  85 101  88 100
M  END
> <chiral flag>
0

> <version>
0

> <s_m_source_file>
/data/baiqing/PycharmProjects/Reinvent-master-3.2/result/LINK_invent/BTK/process_docking_weight1_custom_product_contain_oxygen_bond_distance_aromatic_linkinvent_7_9_3/rearranged_h_0074.sdf

> <i_m_source_file_index>
84

> <r_mmod_Potential_Energy-OPLS-2005>
-62.9613838195801

> <r_mmod_Stretch_Energy-OPLS-2005>
41.7935600280762

> <r_mmod_Bend_Energy-OPLS-2005>
128.743408203125

> <r_mmod_Torsional_Energy-OPLS-2005>
243.373687744141

> <r_mmod_Improper_Torsional_Energy-OPLS-2005>
17.9917545318604

> <r_mmod_Van_der_Waal_Energy-OPLS-2005>
157.943420410156

> <r_mmod_Electrostatic_Energy-OPLS-2005>
-455.271118164062

> <r_mmod_Solvation_Energy-OPLS-2005>
-223.960006713867

> <b_mmod_Minimization_Converged-OPLS-2005>
0

> <r_mmod_RMS_Derivative-OPLS-2005>
1.31148529052734

$$$$
86
                    3D
 Structure written by MMmdl.
151159  0  0  1  0            999 V2000
  -30.6101  -14.6485   20.4966 C   0  0  0  0  0  0
  -30.4378  -12.3974   19.4524 C   0  0  0  0  0  0
  -29.5110  -12.5272   18.2226 C   0  0  0  0  0  0
  -28.0321  -12.3602   18.6315 C   0  0  0  0  0  0
  -27.6546  -13.2185   19.8681 C   0  0  2  0  0  0
  -28.6985  -13.0643   20.9978 C   0  0  0  0  0  0
  -25.2574  -13.8164   20.5698 C   0  0  0  0  0  0
  -24.1825  -13.0439   20.9182 C   0  0  0  0  0  0
  -24.6392  -11.6907   20.8731 C   0  0  0  0  0  0
  -23.9055  -10.4299   21.0405 C   0  0  0  0  0  0
  -24.3613   -9.4213   21.9179 C   0  0  0  0  0  0
  -23.6285   -8.2248   22.0756 C   0  0  0  0  0  0
  -22.4263   -8.0278   21.3553 C   0  0  0  0  0  0
  -21.9898   -9.0254   20.4661 C   0  0  0  0  0  0
  -22.7227  -10.2132   20.3059 C   0  0  0  0  0  0
  -21.6852   -6.0730   22.5286 C   0  0  0  0  0  0
  -21.4013   -6.5637   23.8214 C   0  0  0  0  0  0
  -21.3669   -5.6791   24.9178 C   0  0  0  0  0  0
  -21.6041   -4.3052   24.7227 C   0  0  0  0  0  0
  -21.8819   -3.8145   23.4347 C   0  0  0  0  0  0
  -21.9195   -4.6965   22.3402 C   0  0  0  0  0  0
  -22.7856  -13.5241   21.1833 C   0  0  0  0  0  0
  -22.1668   -4.2155   21.0979 F   0  0  0  0  0  0
  -21.5631   -3.4530   25.7742 F   0  0  0  0  0  0
  -30.0127  -13.4148   20.4353 N   0  0  0  0  0  0
  -26.2993  -12.9343   20.3314 N   0  0  0  0  0  0
  -25.9317  -11.6501   20.5729 N   0  0  0  0  0  0
  -22.0496  -12.8253   22.0398 N   0  0  0  0  0  0
  -25.4292  -15.1887   20.4150 N   0  0  0  0  0  0
  -31.7715  -14.8101   20.1113 O   0  0  0  0  0  0
  -21.6640   -6.8866   21.4239 O   0  0  0  0  0  0
  -22.3555  -14.5555   20.6686 O   0  0  0  0  0  0
  -24.6258  -31.8613   23.2019 C   0  0  0  0  0  0
  -25.9109  -32.4789   23.8353 C   0  0  1  0  0  0
  -27.2264  -27.3173   20.1160 C   0  0  0  0  0  0
  -25.5924  -33.8593   24.2286 N   0  0  0  0  0  0
  -23.4196  -30.4823   21.5460 C   0  0  2  0  0  0
  -24.8647  -28.9345   20.1143 C   0  0  0  0  0  0
  -22.7482  -29.4627   22.4959 C   0  0  0  0  0  0
  -18.0288  -28.1362   22.8483 C   0  0  0  0  0  0
  -24.1486  -36.7295   23.2636 C   0  0  0  0  0  0
  -25.9599  -30.7897   21.3724 C   0  0  0  0  0  0
  -26.0343  -29.4161   20.7152 C   0  0  0  0  0  0
  -27.2170  -28.6187   20.7071 C   0  0  0  0  0  0
  -26.0325  -26.8901   19.4890 C   0  0  0  0  0  0
  -24.8650  -27.6766   19.4940 C   0  0  0  0  0  0
  -23.6320  -29.8137   20.1628 C   0  0  0  0  0  0
  -25.4109  -36.3090   24.0331 C   0  0  1  0  0  0
  -20.5891  -28.3672   23.1282 C   0  0  2  0  0  0
  -20.6787  -26.9400   22.5409 C   0  0  0  0  0  0
  -19.5754  -26.6370   21.5213 C   0  0  0  0  0  0
  -18.1929  -26.7904   22.1624 C   0  0  0  0  0  0
  -19.1546  -28.8838   23.2867 C   0  0  0  0  0  0
  -18.9471  -30.1440   23.8879 C   0  0  0  0  0  0
  -17.6474  -30.6573   24.0549 C   0  0  0  0  0  0
  -25.9044  -34.9461   23.5103 C   0  0  0  0  0  0
  -16.5359  -29.9068   23.6324 C   0  0  0  0  0  0
  -16.7279  -28.6481   23.0354 C   0  0  0  0  0  0
  -26.4484  -31.6604   25.0731 C   0  0  0  0  0  0
  -25.3713  -31.3765   26.1464 C   0  0  0  0  0  0
  -27.0334  -30.3033   24.6183 C   0  0  0  0  0  0
  -27.6037  -32.4345   25.7507 C   0  0  0  0  0  0
  -27.5578  -37.1795   24.8455 C   0  0  0  0  0  0
  -21.4202  -29.3027   22.3689 N   0  0  0  0  0  0
  -26.4278  -37.3792   23.9414 N   0  0  0  0  0  0
  -24.6877  -31.0612   22.0971 N   0  0  0  0  0  0
  -23.4200  -28.8172   23.3046 O   0  0  0  0  0  0
  -28.3485  -26.4726   20.1646 O   0  0  0  0  0  0
  -26.5620  -34.8932   22.4675 O   0  0  0  0  0  0
  -23.5420  -32.1416   23.7336 O   0  0  0  0  0  0
  -30.9280  -19.2579   19.9032 C   0  0  0  0  0  0
  -28.8812  -19.4115   21.1484 C   0  0  0  0  0  0
  -30.9095  -17.8340   19.9975 C   0  0  0  0  0  0
  -28.8594  -17.9822   21.2429 C   0  0  0  0  0  0
  -29.9333  -20.0960   20.4851 C   0  0  0  0  0  0
  -29.8796  -17.1491   20.6961 C   0  0  0  0  0  0
  -30.1386  -21.6289   20.5168 C   0  0  0  0  0  0
  -29.3441  -24.0434   20.4143 C   0  0  0  0  0  0
  -28.1474  -25.0099   20.0155 C   0  0  0  0  0  0
  -29.7935  -15.6915   20.8602 N   0  0  0  0  0  0
  -29.1310  -22.5420   20.3681 N   0  0  0  0  0  0
  -31.2958  -22.0305   20.6566 O   0  0  0  0  0  0
  -31.4830  -12.5178   19.1611 H   0  0  0  0  0  0
  -30.3580  -11.3977   19.8806 H   0  0  0  0  0  0
  -29.7773  -11.7899   17.4623 H   0  0  0  0  0  0
  -29.6531  -13.5057   17.7610 H   0  0  0  0  0  0
  -27.8632  -11.3038   18.8441 H   0  0  0  0  0  0
  -27.3807  -12.6109   17.7942 H   0  0  0  0  0  0
  -27.6748  -14.2565   19.5349 H   0  0  0  0  0  0
  -28.7092  -12.0402   21.3737 H   0  0  0  0  0  0
  -28.4452  -13.6877   21.8567 H   0  0  0  0  0  0
  -25.2758   -9.5691   22.4751 H   0  0  0  0  0  0
  -24.0019   -7.4628   22.7455 H   0  0  0  0  0  0
  -21.0836   -8.8775   19.8950 H   0  0  0  0  0  0
  -22.3694  -10.9676   19.6177 H   0  0  0  0  0  0
  -21.2008   -7.6149   23.9717 H   0  0  0  0  0  0
  -21.1490   -6.0521   25.9080 H   0  0  0  0  0  0
  -22.0588   -2.7604   23.2838 H   0  0  0  0  0  0
  -22.4101  -11.9940   22.4840 H   0  0  0  0  0  0
  -21.1114  -13.1296   22.2570 H   0  0  0  0  0  0
  -24.6578  -15.8386   20.5162 H   0  0  0  0  0  0
  -26.2742  -15.6296   20.0745 H   0  0  0  0  0  0
  -26.7176  -32.5449   23.1099 H   0  0  0  0  0  0
  -25.0076  -33.9752   25.0432 H   0  0  0  0  0  0
  -22.7105  -31.3008   21.4028 H   0  0  0  0  0  0
  -23.3761  -35.9614   23.3289 H   0  0  0  0  0  0
  -24.3567  -36.8932   22.2052 H   0  0  0  0  0  0
  -23.7239  -37.6490   23.6668 H   0  0  0  0  0  0
  -26.0907  -31.5516   20.6029 H   0  0  0  0  0  0
  -26.8405  -30.8389   22.0015 H   0  0  0  0  0  0
  -28.1138  -28.9825   21.1895 H   0  0  0  0  0  0
  -25.9716  -25.9324   18.9970 H   0  0  0  0  0  0
  -23.9674  -27.3005   19.0244 H   0  0  0  0  0  0
  -23.7467  -30.5869   19.4032 H   0  0  0  0  0  0
  -22.7519  -29.2398   19.8657 H   0  0  0  0  0  0
  -25.1286  -36.1938   25.0823 H   0  0  0  0  0  0
  -20.9965  -28.3251   24.1411 H   0  0  0  0  0  0
  -20.5695  -26.2286   23.3612 H   0  0  0  0  0  0
  -21.6657  -26.7432   22.1205 H   0  0  0  0  0  0
  -19.6920  -25.6281   21.1243 H   0  0  0  0  0  0
  -19.6682  -27.3185   20.6744 H   0  0  0  0  0  0
  -17.4209  -26.6656   21.4020 H   0  0  0  0  0  0
  -18.0312  -26.0040   22.9010 H   0  0  0  0  0  0
  -19.7953  -30.7259   24.2236 H   0  0  0  0  0  0
  -17.5033  -31.6256   24.5147 H   0  0  0  0  0  0
  -15.5362  -30.2967   23.7657 H   0  0  0  0  0  0
  -15.8675  -28.0794   22.7080 H   0  0  0  0  0  0
  -24.5847  -30.7155   25.7806 H   0  0  0  0  0  0
  -24.8948  -32.2948   26.4908 H   0  0  0  0  0  0
  -25.8024  -30.8925   27.0238 H   0  0  0  0  0  0
  -26.2923  -29.6791   24.1181 H   0  0  0  0  0  0
  -27.4019  -29.7279   25.4685 H   0  0  0  0  0  0
  -27.8789  -30.4340   23.9429 H   0  0  0  0  0  0
  -27.2634  -33.3635   26.2096 H   0  0  0  0  0  0
  -28.3840  -32.6931   25.0338 H   0  0  0  0  0  0
  -28.0714  -31.8474   26.5419 H   0  0  0  0  0  0
  -28.2580  -38.0105   24.7530 H   0  0  0  0  0  0
  -28.1086  -36.2644   24.6237 H   0  0  0  0  0  0
  -27.2289  -37.1396   25.8851 H   0  0  0  0  0  0
  -20.9385  -29.8742   21.6892 H   0  0  0  0  0  0
  -26.0160  -38.2860   24.1436 H   0  0  0  0  0  0
  -31.7576  -19.7219   19.3875 H   0  0  0  0  0  0
  -28.0976  -19.9795   21.6298 H   0  0  0  0  0  0
  -31.7110  -17.2813   19.5279 H   0  0  0  0  0  0
  -28.0385  -17.5229   21.7782 H   0  0  0  0  0  0
  -29.6618  -24.2967   21.4266 H   0  0  0  0  0  0
  -30.1931  -24.2874   19.7728 H   0  0  0  0  0  0
  -27.2786  -24.7163   20.6069 H   0  0  0  0  0  0
  -27.8994  -24.8077   18.9725 H   0  0  0  0  0  0
  -28.9141  -15.3707   21.2374 H   0  0  0  0  0  0
  -28.1923  -22.1944   20.2317 H   0  0  0  0  0  0
  1 25  1  0  0  0
  1 30  2  0  0  0
  1 80  1  0  0  0
  2  3  1  0  0  0
  2 25  1  0  0  0
  2 83  1  0  0  0
  2 84  1  0  0  0
  3  4  1  0  0  0
  3 85  1  0  0  0
  3 86  1  0  0  0
  4  5  1  0  0  0
  4 87  1  0  0  0
  4 88  1  0  0  0
  5  6  1  0  0  0
  5 26  1  0  0  0
  5 89  1  0  0  0
  6 25  1  0  0  0
  6 90  1  0  0  0
  6 91  1  0  0  0
  7  8  2  0  0  0
  7 26  1  0  0  0
  7 29  1  0  0  0
  8  9  1  0  0  0
  8 22  1  0  0  0
  9 10  1  0  0  0
  9 27  2  0  0  0
 10 11  2  0  0  0
 10 15  1  0  0  0
 11 12  1  0  0  0
 11 92  1  0  0  0
 12 13  2  0  0  0
 12 93  1  0  0  0
 13 14  1  0  0  0
 13 31  1  0  0  0
 14 15  2  0  0  0
 14 94  1  0  0  0
 15 95  1  0  0  0
 16 17  2  0  0  0
 16 21  1  0  0  0
 16 31  1  0  0  0
 17 18  1  0  0  0
 17 96  1  0  0  0
 18 19  2  0  0  0
 18 97  1  0  0  0
 19 20  1  0  0  0
 19 24  1  0  0  0
 20 21  2  0  0  0
 20 98  1  0  0  0
 21 23  1  0  0  0
 22 28  1  0  0  0
 22 32  2  0  0  0
 26 27  1  0  0  0
 28 99  1  0  0  0
 28100  1  0  0  0
 29101  1  0  0  0
 29102  1  0  0  0
 33 34  1  0  0  0
 33 66  1  0  0  0
 33 70  2  0  0  0
 34 36  1  0  0  0
 34 59  1  0  0  0
 34103  1  0  0  0
 35 44  2  0  0  0
 35 45  1  0  0  0
 35 68  1  0  0  0
 36 56  1  0  0  0
 36104  1  0  0  0
 37 39  1  0  0  0
 37 47  1  0  0  0
 37 66  1  0  0  0
 37105  1  0  0  0
 38 43  2  0  0  0
 38 46  1  0  0  0
 38 47  1  0  0  0
 39 64  1  0  0  0
 39 67  2  0  0  0
 40 52  1  0  0  0
 40 53  2  0  0  0
 40 58  1  0  0  0
 41106  1  0  0  0
 41107  1  0  0  0
 41108  1  0  0  0
 41 48  1  0  0  0
 42 43  1  0  0  0
 42 66  1  0  0  0
 42109  1  0  0  0
 42110  1  0  0  0
 43 44  1  0  0  0
 44111  1  0  0  0
 45 46  2  0  0  0
 45112  1  0  0  0
 46113  1  0  0  0
 47114  1  0  0  0
 47115  1  0  0  0
 48 56  1  0  0  0
 48 65  1  0  0  0
 48116  1  0  0  0
 49 50  1  0  0  0
 49 53  1  0  0  0
 49 64  1  0  0  0
 49117  1  0  0  0
 50 51  1  0  0  0
 50118  1  0  0  0
 50119  1  0  0  0
 51 52  1  0  0  0
 51120  1  0  0  0
 51121  1  0  0  0
 52122  1  0  0  0
 52123  1  0  0  0
 53 54  1  0  0  0
 54 55  2  0  0  0
 54124  1  0  0  0
 55 57  1  0  0  0
 55125  1  0  0  0
 56 69  2  0  0  0
 57 58  2  0  0  0
 57126  1  0  0  0
 58127  1  0  0  0
 59 60  1  0  0  0
 59 61  1  0  0  0
 59 62  1  0  0  0
 60128  1  0  0  0
 60129  1  0  0  0
 60130  1  0  0  0
 61131  1  0  0  0
 61132  1  0  0  0
 61133  1  0  0  0
 62134  1  0  0  0
 62135  1  0  0  0
 62136  1  0  0  0
 63 65  1  0  0  0
 63137  1  0  0  0
 63138  1  0  0  0
 63139  1  0  0  0
 64140  1  0  0  0
 65141  1  0  0  0
 68 79  1  0  0  0
 71 73  2  0  0  0
 71 75  1  0  0  0
 71142  1  0  0  0
 72 74  1  0  0  0
 72 75  2  0  0  0
 72143  1  0  0  0
 73 76  1  0  0  0
 73144  1  0  0  0
 74 76  2  0  0  0
 74145  1  0  0  0
 75 77  1  0  0  0
 76 80  1  0  0  0
 77 81  1  0  0  0
 77 82  2  0  0  0
 78 79  1  0  0  0
 78 81  1  0  0  0
 78146  1  0  0  0
 78147  1  0  0  0
 79148  1  0  0  0
 79149  1  0  0  0
 80150  1  0  0  0
 81151  1  0  0  0
M  ISO  4   1 100  68 101  79 101  80 100
M  END
> <chiral flag>
0

> <version>
0

> <s_m_source_file>
/data/baiqing/PycharmProjects/Reinvent-master-3.2/result/LINK_invent/BTK/process_docking_weight1_custom_product_contain_oxygen_bond_distance_aromatic_linkinvent_7_9_3/rearranged_h_0074.sdf

> <i_m_source_file_index>
85

> <r_mmod_Potential_Energy-OPLS-2005>
-20.1527366638184

> <r_mmod_Stretch_Energy-OPLS-2005>
80.7307205200195

> <r_mmod_Bend_Energy-OPLS-2005>
139.29328918457

> <r_mmod_Torsional_Energy-OPLS-2005>
221.9248046875

> <r_mmod_Improper_Torsional_Energy-OPLS-2005>
4.54523420333862

> <r_mmod_Van_der_Waal_Energy-OPLS-2005>
146.996185302734

> <r_mmod_Electrostatic_Energy-OPLS-2005>
-423.341766357422

> <r_mmod_Solvation_Energy-OPLS-2005>
-239.833206176758

> <b_mmod_Minimization_Converged-OPLS-2005>
0

> <r_mmod_RMS_Derivative-OPLS-2005>
2.48203277587891

$$$$
87
                    3D
 Structure written by MMmdl.
162171  0  0  1  0            999 V2000
  -30.6172  -14.8216   20.3675 C   0  0  0  0  0  0
  -30.4355  -12.4871   19.4534 C   0  0  0  0  0  0
  -29.4960  -12.4228   18.2300 C   0  0  0  0  0  0
  -28.0256  -12.2683   18.6672 C   0  0  0  0  0  0
  -27.6255  -13.2038   19.8389 C   0  0  2  0  0  0
  -28.6924  -13.2405   20.9521 C   0  0  0  0  0  0
  -25.2483  -13.8079   20.5821 C   0  0  0  0  0  0
  -24.1747  -13.0362   20.9253 C   0  0  0  0  0  0
  -24.6327  -11.6845   20.8804 C   0  0  0  0  0  0
  -23.9012  -10.4249   21.0435 C   0  0  0  0  0  0
  -24.3580   -9.4162   21.9199 C   0  0  0  0  0  0
  -23.6260   -8.2199   22.0757 C   0  0  0  0  0  0
  -22.4247   -8.0252   21.3544 C   0  0  0  0  0  0
  -21.9880   -9.0223   20.4649 C   0  0  0  0  0  0
  -22.7202  -10.2099   20.3062 C   0  0  0  0  0  0
  -21.6847   -6.0714   22.5275 C   0  0  0  0  0  0
  -21.4012   -6.5623   23.8208 C   0  0  0  0  0  0
  -21.3655   -5.6780   24.9172 C   0  0  0  0  0  0
  -21.6044   -4.3044   24.7230 C   0  0  0  0  0  0
  -21.8819   -3.8133   23.4354 C   0  0  0  0  0  0
  -21.9190   -4.6944   22.3406 C   0  0  0  0  0  0
  -22.7781  -13.5189   21.1879 C   0  0  0  0  0  0
  -22.1661   -4.2130   21.0984 F   0  0  0  0  0  0
  -21.5627   -3.4530   25.7742 F   0  0  0  0  0  0
  -29.9651  -13.5991   20.3101 N   0  0  0  0  0  0
  -26.2881  -12.9235   20.3391 N   0  0  0  0  0  0
  -25.9249  -11.6415   20.5858 N   0  0  0  0  0  0
  -22.0411  -12.8201   22.0433 N   0  0  0  0  0  0
  -25.4150  -15.1804   20.4358 N   0  0  0  0  0  0
  -31.8490  -14.8073   20.2895 O   0  0  0  0  0  0
  -21.6620   -6.8850   21.4236 O   0  0  0  0  0  0
  -22.3496  -14.5502   20.6717 O   0  0  0  0  0  0
  -24.6284  -31.8560   23.1979 C   0  0  0  0  0  0
  -25.9116  -32.4765   23.8324 C   0  0  1  0  0  0
  -27.2290  -27.2733   20.1324 C   0  0  0  0  0  0
  -25.5920  -33.8566   24.2254 N   0  0  0  0  0  0
  -23.4257  -30.4763   21.5402 C   0  0  2  0  0  0
  -24.8746  -28.9212   20.1052 C   0  0  0  0  0  0
  -22.7496  -29.4602   22.4912 C   0  0  0  0  0  0
  -18.0289  -28.1393   22.8489 C   0  0  0  0  0  0
  -24.1485  -36.7282   23.2641 C   0  0  0  0  0  0
  -25.9673  -30.7728   21.3743 C   0  0  0  0  0  0
  -26.0400  -29.3942   20.7191 C   0  0  0  0  0  0
  -27.2135  -28.5797   20.7251 C   0  0  0  0  0  0
  -26.0408  -26.8570   19.4923 C   0  0  0  0  0  0
  -24.8800  -27.6615   19.4807 C   0  0  0  0  0  0
  -23.6433  -29.8074   20.1555 C   0  0  0  0  0  0
  -25.4114  -36.3080   24.0329 C   0  0  1  0  0  0
  -20.5891  -28.3701   23.1274 C   0  0  2  0  0  0
  -20.6779  -26.9417   22.5411 C   0  0  0  0  0  0
  -19.5752  -26.6390   21.5214 C   0  0  0  0  0  0
  -18.1939  -26.7936   22.1630 C   0  0  0  0  0  0
  -19.1545  -28.8863   23.2881 C   0  0  0  0  0  0
  -18.9463  -30.1460   23.8904 C   0  0  0  0  0  0
  -17.6462  -30.6597   24.0559 C   0  0  0  0  0  0
  -25.9054  -34.9448   23.5103 C   0  0  0  0  0  0
  -16.5355  -29.9096   23.6322 C   0  0  0  0  0  0
  -16.7276  -28.6513   23.0353 C   0  0  0  0  0  0
  -26.4479  -31.6586   25.0708 C   0  0  0  0  0  0
  -25.3695  -31.3730   26.1422 C   0  0  0  0  0  0
  -27.0308  -30.3007   24.6175 C   0  0  0  0  0  0
  -27.6045  -32.4310   25.7487 C   0  0  0  0  0  0
  -27.5578  -37.1804   24.8467 C   0  0  0  0  0  0
  -21.4204  -29.3043   22.3661 N   0  0  0  0  0  0
  -26.4291  -37.3775   23.9411 N   0  0  0  0  0  0
  -24.6926  -31.0534   22.0947 N   0  0  0  0  0  0
  -23.4204  -28.8148   23.3010 O   0  0  0  0  0  0
  -28.3532  -26.4271   20.2422 O   0  0  0  0  0  0
  -26.5629  -34.8920   22.4673 O   0  0  0  0  0  0
  -23.5439  -32.1366   23.7292 O   0  0  0  0  0  0
  -31.8064  -19.0269   21.4881 C   0  0  0  0  0  0
  -30.9630  -20.1311   21.2486 C   0  0  0  0  0  0
  -31.4312  -17.7076   21.1534 C   0  0  0  0  0  0
  -29.3126  -18.5839   20.3889 C   0  0  0  0  0  0
  -29.6759  -19.9575   20.7030 C   0  0  0  0  0  0
  -30.1866  -17.4094   20.5420 C   0  0  0  0  0  0
  -27.2106  -23.5467   21.1470 C   0  0  0  0  0  0
  -28.2876  -23.7227   20.3661 C   0  0  0  0  0  0
  -29.4304  -16.0252   18.7524 C   0  0  0  0  0  0
  -26.8380  -22.2179   21.7885 C   0  0  0  0  0  0
  -29.2289  -22.4686   20.1072 C   0  0  0  0  0  0
  -27.9676  -21.1608   21.8200 C   0  0  0  0  0  0
  -28.0190  -16.5392   18.4736 C   0  0  0  0  0  0
  -28.5026  -25.0912   19.5820 C   0  0  0  0  0  0
  -28.7824  -21.1026   20.6037 N   0  0  0  0  0  0
  -29.9190  -16.0101   20.0239 N   0  0  0  0  0  0
  -30.1107  -15.7192   17.7673 O   0  0  0  0  0  0
  -31.4652  -12.6287   19.1222 H   0  0  0  0  0  0
  -30.4226  -11.5455   20.0057 H   0  0  0  0  0  0
  -29.7769  -11.5847   17.5900 H   0  0  0  0  0  0
  -29.6068  -13.3073   17.6077 H   0  0  0  0  0  0
  -27.8936  -11.2301   18.9733 H   0  0  0  0  0  0
  -27.3592  -12.4179   17.8163 H   0  0  0  0  0  0
  -27.5659  -14.1918   19.4087 H   0  0  0  0  0  0
  -28.7675  -12.2764   21.4555 H   0  0  0  0  0  0
  -28.4276  -13.9752   21.7150 H   0  0  0  0  0  0
  -25.2729   -9.5634   22.4776 H   0  0  0  0  0  0
  -23.9969   -7.4589   22.7472 H   0  0  0  0  0  0
  -21.0811   -8.8743   19.8961 H   0  0  0  0  0  0
  -22.3674  -10.9638   19.6173 H   0  0  0  0  0  0
  -21.2007   -7.6135   23.9702 H   0  0  0  0  0  0
  -21.1478   -6.0516   25.9072 H   0  0  0  0  0  0
  -22.0606   -2.7596   23.2856 H   0  0  0  0  0  0
  -22.4016  -11.9859   22.4821 H   0  0  0  0  0  0
  -21.1028  -13.1230   22.2633 H   0  0  0  0  0  0
  -24.6486  -15.8297   20.5744 H   0  0  0  0  0  0
  -26.2847  -15.6380   20.2057 H   0  0  0  0  0  0
  -26.7192  -32.5424   23.1073 H   0  0  0  0  0  0
  -25.0047  -33.9707   25.0390 H   0  0  0  0  0  0
  -22.7220  -31.2988   21.3949 H   0  0  0  0  0  0
  -23.3753  -35.9608   23.3304 H   0  0  0  0  0  0
  -24.3571  -36.8904   22.2056 H   0  0  0  0  0  0
  -23.7229  -37.6483   23.6656 H   0  0  0  0  0  0
  -26.0995  -31.5330   20.6031 H   0  0  0  0  0  0
  -26.8482  -30.8274   22.0030 H   0  0  0  0  0  0
  -28.1032  -28.9346   21.2255 H   0  0  0  0  0  0
  -25.9743  -25.8846   19.0286 H   0  0  0  0  0  0
  -23.9856  -27.2942   18.9969 H   0  0  0  0  0  0
  -23.7663  -30.5842   19.3996 H   0  0  0  0  0  0
  -22.7613  -29.2410   19.8504 H   0  0  0  0  0  0
  -25.1295  -36.1931   25.0821 H   0  0  0  0  0  0
  -20.9984  -28.3277   24.1391 H   0  0  0  0  0  0
  -20.5684  -26.2303   23.3614 H   0  0  0  0  0  0
  -21.6651  -26.7452   22.1198 H   0  0  0  0  0  0
  -19.6913  -25.6300   21.1253 H   0  0  0  0  0  0
  -19.6692  -27.3192   20.6737 H   0  0  0  0  0  0
  -17.4201  -26.6667   21.4044 H   0  0  0  0  0  0
  -18.0347  -26.0089   22.9038 H   0  0  0  0  0  0
  -19.7937  -30.7270   24.2290 H   0  0  0  0  0  0
  -17.5018  -31.6278   24.5157 H   0  0  0  0  0  0
  -15.5356  -30.3001   23.7648 H   0  0  0  0  0  0
  -15.8672  -28.0830   22.7068 H   0  0  0  0  0  0
  -24.5910  -30.7034   25.7752 H   0  0  0  0  0  0
  -24.8828  -32.2885   26.4795 H   0  0  0  0  0  0
  -25.8008  -30.8961   27.0234 H   0  0  0  0  0  0
  -26.2879  -29.6790   24.1169 H   0  0  0  0  0  0
  -27.3957  -29.7241   25.4688 H   0  0  0  0  0  0
  -27.8768  -30.4288   23.9418 H   0  0  0  0  0  0
  -27.2681  -33.3639   26.2019 H   0  0  0  0  0  0
  -28.3878  -32.6821   25.0322 H   0  0  0  0  0  0
  -28.0669  -31.8447   26.5438 H   0  0  0  0  0  0
  -28.2600  -38.0099   24.7513 H   0  0  0  0  0  0
  -28.1071  -36.2633   24.6293 H   0  0  0  0  0  0
  -27.2292  -37.1450   25.8869 H   0  0  0  0  0  0
  -20.9389  -29.8753   21.6859 H   0  0  0  0  0  0
  -26.0171  -38.2851   24.1411 H   0  0  0  0  0  0
  -32.7746  -19.1976   21.9363 H   0  0  0  0  0  0
  -31.3054  -21.1124   21.5450 H   0  0  0  0  0  0
  -32.1628  -16.9392   21.3486 H   0  0  0  0  0  0
  -28.3140  -18.4742   20.0070 H   0  0  0  0  0  0
  -26.5123  -24.3603   21.2880 H   0  0  0  0  0  0
  -25.9859  -21.8222   21.2342 H   0  0  0  0  0  0
  -26.4827  -22.3986   22.8036 H   0  0  0  0  0  0
  -30.2122  -22.7136   20.5103 H   0  0  0  0  0  0
  -29.3641  -22.3872   19.0277 H   0  0  0  0  0  0
  -27.5288  -20.1825   22.0263 H   0  0  0  0  0  0
  -28.6300  -21.3771   22.6608 H   0  0  0  0  0  0
  -27.5008  -15.8559   17.8010 H   0  0  0  0  0  0
  -27.4340  -16.6182   19.3865 H   0  0  0  0  0  0
  -28.0557  -17.5128   17.9845 H   0  0  0  0  0  0
  -27.9455  -25.0512   18.6464 H   0  0  0  0  0  0
  -29.5451  -25.0683   19.2651 H   0  0  0  0  0  0
  1 25  1  0  0  0
  1 30  2  0  0  0
  1 86  1  0  0  0
  2  3  1  0  0  0
  2 25  1  0  0  0
  2 88  1  0  0  0
  2 89  1  0  0  0
  3  4  1  0  0  0
  3 90  1  0  0  0
  3 91  1  0  0  0
  4  5  1  0  0  0
  4 92  1  0  0  0
  4 93  1  0  0  0
  5  6  1  0  0  0
  5 26  1  0  0  0
  5 94  1  0  0  0
  6 25  1  0  0  0
  6 95  1  0  0  0
  6 96  1  0  0  0
  7  8  2  0  0  0
  7 26  1  0  0  0
  7 29  1  0  0  0
  8  9  1  0  0  0
  8 22  1  0  0  0
  9 10  1  0  0  0
  9 27  2  0  0  0
 10 11  2  0  0  0
 10 15  1  0  0  0
 11 12  1  0  0  0
 11 97  1  0  0  0
 12 13  2  0  0  0
 12 98  1  0  0  0
 13 14  1  0  0  0
 13 31  1  0  0  0
 14 15  2  0  0  0
 14 99  1  0  0  0
 15100  1  0  0  0
 16 17  2  0  0  0
 16 21  1  0  0  0
 16 31  1  0  0  0
 17 18  1  0  0  0
 17101  1  0  0  0
 18 19  2  0  0  0
 18102  1  0  0  0
 19 20  1  0  0  0
 19 24  1  0  0  0
 20 21  2  0  0  0
 20103  1  0  0  0
 21 23  1  0  0  0
 22 28  1  0  0  0
 22 32  2  0  0  0
 26 27  1  0  0  0
 28104  1  0  0  0
 28105  1  0  0  0
 29106  1  0  0  0
 29107  1  0  0  0
 33 34  1  0  0  0
 33 66  1  0  0  0
 33 70  2  0  0  0
 34 36  1  0  0  0
 34 59  1  0  0  0
 34108  1  0  0  0
 35 44  2  0  0  0
 35 45  1  0  0  0
 35 68  1  0  0  0
 36 56  1  0  0  0
 36109  1  0  0  0
 37 39  1  0  0  0
 37 47  1  0  0  0
 37 66  1  0  0  0
 37110  1  0  0  0
 38 43  2  0  0  0
 38 46  1  0  0  0
 38 47  1  0  0  0
 39 64  1  0  0  0
 39 67  2  0  0  0
 40 52  1  0  0  0
 40 53  2  0  0  0
 40 58  1  0  0  0
 41111  1  0  0  0
 41112  1  0  0  0
 41113  1  0  0  0
 41 48  1  0  0  0
 42 43  1  0  0  0
 42 66  1  0  0  0
 42114  1  0  0  0
 42115  1  0  0  0
 43 44  1  0  0  0
 44116  1  0  0  0
 45 46  2  0  0  0
 45117  1  0  0  0
 46118  1  0  0  0
 47119  1  0  0  0
 47120  1  0  0  0
 48 56  1  0  0  0
 48 65  1  0  0  0
 48121  1  0  0  0
 49 50  1  0  0  0
 49 53  1  0  0  0
 49 64  1  0  0  0
 49122  1  0  0  0
 50 51  1  0  0  0
 50123  1  0  0  0
 50124  1  0  0  0
 51 52  1  0  0  0
 51125  1  0  0  0
 51126  1  0  0  0
 52127  1  0  0  0
 52128  1  0  0  0
 53 54  1  0  0  0
 54 55  2  0  0  0
 54129  1  0  0  0
 55 57  1  0  0  0
 55130  1  0  0  0
 56 69  2  0  0  0
 57 58  2  0  0  0
 57131  1  0  0  0
 58132  1  0  0  0
 59 60  1  0  0  0
 59 61  1  0  0  0
 59 62  1  0  0  0
 60133  1  0  0  0
 60134  1  0  0  0
 60135  1  0  0  0
 61136  1  0  0  0
 61137  1  0  0  0
 61138  1  0  0  0
 62139  1  0  0  0
 62140  1  0  0  0
 62141  1  0  0  0
 63 65  1  0  0  0
 63142  1  0  0  0
 63143  1  0  0  0
 63144  1  0  0  0
 64145  1  0  0  0
 65146  1  0  0  0
 68 84  1  0  0  0
 71 72  2  0  0  0
 71 73  1  0  0  0
 71147  1  0  0  0
 72 75  1  0  0  0
 72148  1  0  0  0
 73 76  2  0  0  0
 73149  1  0  0  0
 74 75  2  0  0  0
 74 76  1  0  0  0
 74150  1  0  0  0
 75 85  1  0  0  0
 76 86  1  0  0  0
 77 78  2  0  0  0
 77 80  1  0  0  0
 77151  1  0  0  0
 78 81  1  0  0  0
 78 84  1  0  0  0
 79 83  1  0  0  0
 79 86  1  0  0  0
 79 87  2  0  0  0
 80 82  1  0  0  0
 80152  1  0  0  0
 80153  1  0  0  0
 81 85  1  0  0  0
 81154  1  0  0  0
 81155  1  0  0  0
 82 85  1  0  0  0
 82156  1  0  0  0
 82157  1  0  0  0
 83158  1  0  0  0
 83159  1  0  0  0
 83160  1  0  0  0
 84161  1  0  0  0
 84162  1  0  0  0
M  ISO  4   1 100  68 101  84 101  86 100
M  END
> <chiral flag>
0

> <version>
0

> <s_m_source_file>
/data/baiqing/PycharmProjects/Reinvent-master-3.2/result/LINK_invent/BTK/process_docking_weight1_custom_product_contain_oxygen_bond_distance_aromatic_linkinvent_7_9_3/rearranged_h_0074.sdf

> <i_m_source_file_index>
86

> <r_mmod_Potential_Energy-OPLS-2005>
457.348266601562

> <r_mmod_Stretch_Energy-OPLS-2005>
140.611572265625

> <r_mmod_Bend_Energy-OPLS-2005>
192.383972167969

> <r_mmod_Torsional_Energy-OPLS-2005>
354.852874755859

> <r_mmod_Improper_Torsional_Energy-OPLS-2005>
22.9599723815918

> <r_mmod_Van_der_Waal_Energy-OPLS-2005>
160.872772216797

> <r_mmod_Electrostatic_Energy-OPLS-2005>
-310.895660400391

> <r_mmod_Solvation_Energy-OPLS-2005>
-216.040145874023

> <b_mmod_Minimization_Converged-OPLS-2005>
0

> <r_mmod_RMS_Derivative-OPLS-2005>
1.61317014694214

$$$$
88
                    3D
 Structure written by MMmdl.
154162  0  0  1  0            999 V2000
  -30.6643  -14.5296   20.5514 C   0  0  0  0  0  0
  -30.4324  -12.3353   19.4330 C   0  0  0  0  0  0
  -29.5017  -12.5113   18.2136 C   0  0  0  0  0  0
  -28.0228  -12.3628   18.6237 C   0  0  0  0  0  0
  -27.6613  -13.2074   19.8747 C   0  0  2  0  0  0
  -28.7033  -13.0009   20.9979 C   0  0  0  0  0  0
  -25.2588  -13.8155   20.5680 C   0  0  0  0  0  0
  -24.1837  -13.0433   20.9168 C   0  0  0  0  0  0
  -24.6391  -11.6900   20.8726 C   0  0  0  0  0  0
  -23.9058  -10.4289   21.0403 C   0  0  0  0  0  0
  -24.3612   -9.4207   21.9181 C   0  0  0  0  0  0
  -23.6285   -8.2245   22.0754 C   0  0  0  0  0  0
  -22.4268   -8.0281   21.3547 C   0  0  0  0  0  0
  -21.9900   -9.0255   20.4651 C   0  0  0  0  0  0
  -22.7231  -10.2131   20.3055 C   0  0  0  0  0  0
  -21.6852   -6.0732   22.5279 C   0  0  0  0  0  0
  -21.4016   -6.5637   23.8212 C   0  0  0  0  0  0
  -21.3657   -5.6791   24.9175 C   0  0  0  0  0  0
  -21.6044   -4.3054   24.7226 C   0  0  0  0  0  0
  -21.8819   -3.8144   23.4347 C   0  0  0  0  0  0
  -21.9192   -4.6960   22.3403 C   0  0  0  0  0  0
  -22.7863  -13.5239   21.1836 C   0  0  0  0  0  0
  -22.1662   -4.2147   21.0981 F   0  0  0  0  0  0
  -21.5626   -3.4535   25.7738 F   0  0  0  0  0  0
  -30.0326  -13.3237   20.4499 N   0  0  0  0  0  0
  -26.3023  -12.9325   20.3357 N   0  0  0  0  0  0
  -25.9319  -11.6486   20.5754 N   0  0  0  0  0  0
  -22.0498  -12.8241   22.0396 N   0  0  0  0  0  0
  -25.4310  -15.1877   20.4115 N   0  0  0  0  0  0
  -31.7889  -14.7313   20.0823 O   0  0  0  0  0  0
  -21.6637   -6.8876   21.4242 O   0  0  0  0  0  0
  -22.3558  -14.5551   20.6690 O   0  0  0  0  0  0
  -24.6179  -31.8652   23.2077 C   0  0  0  0  0  0
  -25.9056  -32.4811   23.8387 C   0  0  1  0  0  0
  -27.2348  -27.4049   20.1036 C   0  0  0  0  0  0
  -25.5898  -33.8609   24.2317 N   0  0  0  0  0  0
  -23.4093  -30.4871   21.5480 C   0  0  2  0  0  0
  -24.8600  -28.9507   20.1122 C   0  0  0  0  0  0
  -22.7433  -29.4636   22.4969 C   0  0  0  0  0  0
  -18.0272  -28.1375   22.8488 C   0  0  0  0  0  0
  -24.1486  -36.7312   23.2639 C   0  0  0  0  0  0
  -25.9416  -30.8220   21.3669 C   0  0  0  0  0  0
  -26.0219  -29.4543   20.7131 C   0  0  0  0  0  0
  -27.2158  -28.6882   20.7078 C   0  0  0  0  0  0
  -26.0603  -26.9254   19.4926 C   0  0  0  0  0  0
  -24.8754  -27.6864   19.4972 C   0  0  0  0  0  0
  -23.6214  -29.8192   20.1631 C   0  0  0  0  0  0
  -25.4107  -36.3106   24.0336 C   0  0  1  0  0  0
  -20.5865  -28.3668   23.1303 C   0  0  2  0  0  0
  -20.6760  -26.9399   22.5414 C   0  0  0  0  0  0
  -19.5741  -26.6379   21.5208 C   0  0  0  0  0  0
  -18.1919  -26.7920   22.1620 C   0  0  0  0  0  0
  -19.1522  -28.8837   23.2894 C   0  0  0  0  0  0
  -18.9451  -30.1441   23.8909 C   0  0  0  0  0  0
  -17.6454  -30.6584   24.0558 C   0  0  0  0  0  0
  -25.9034  -34.9469   23.5125 C   0  0  0  0  0  0
  -16.5345  -29.9086   23.6326 C   0  0  0  0  0  0
  -16.7261  -28.6500   23.0352 C   0  0  0  0  0  0
  -26.4476  -31.6596   25.0725 C   0  0  0  0  0  0
  -25.3736  -31.3709   26.1471 C   0  0  0  0  0  0
  -27.0311  -30.3032   24.6122 C   0  0  0  0  0  0
  -27.6051  -32.4317   25.7486 C   0  0  0  0  0  0
  -27.5578  -37.1811   24.8465 C   0  0  0  0  0  0
  -21.4153  -29.3032   22.3712 N   0  0  0  0  0  0
  -26.4295  -37.3789   23.9404 N   0  0  0  0  0  0
  -24.6745  -31.0726   22.0991 N   0  0  0  0  0  0
  -23.4187  -28.8172   23.3020 O   0  0  0  0  0  0
  -28.3413  -26.5764   20.1183 O   0  0  0  0  0  0
  -26.5601  -34.8924   22.4689 O   0  0  0  0  0  0
  -23.5361  -32.1411   23.7450 O   0  0  0  0  0  0
  -30.3528  -19.2950   21.1453 C   0  0  0  0  0  0
  -29.0342  -18.6540   19.2167 C   0  0  0  0  0  0
  -30.4872  -17.9227   21.4994 C   0  0  0  0  0  0
  -29.1663  -17.2886   19.5693 C   0  0  0  0  0  0
  -29.6259  -19.6849   19.9916 C   0  0  0  0  0  0
  -29.9062  -16.8986   20.7091 C   0  0  0  0  0  0
  -28.4031  -25.7122   21.1964 C   0  0  0  0  0  0
  -29.5148  -21.1056   19.5353 C   0  0  0  0  0  0
  -28.6992  -24.3797   21.2209 C   0  0  0  0  0  0
  -29.0238  -23.5579   20.0446 C   0  0  0  0  0  0
  -29.9358  -15.5213   21.1129 N   0  0  0  0  0  0
  -29.2129  -22.1449   20.3633 N   0  0  0  0  0  0
  -29.7192  -21.3192   18.2302 N   0  3  0  0  0  0
  -29.1320  -23.9668   18.8823 O   0  0  0  0  0  0
  -28.6886  -23.7534   22.4108 O   0  0  0  0  0  0
  -31.4758  -12.4463   19.1323 H   0  0  0  0  0  0
  -30.3470  -11.3257   19.8375 H   0  0  0  0  0  0
  -29.7493  -11.7813   17.4418 H   0  0  0  0  0  0
  -29.6619  -13.4939   17.7666 H   0  0  0  0  0  0
  -27.8407  -11.3065   18.8264 H   0  0  0  0  0  0
  -27.3721  -12.6279   17.7897 H   0  0  0  0  0  0
  -27.6995  -14.2526   19.5692 H   0  0  0  0  0  0
  -28.6904  -11.9647   21.3395 H   0  0  0  0  0  0
  -28.4543  -13.5965   21.8772 H   0  0  0  0  0  0
  -25.2756   -9.5682   22.4756 H   0  0  0  0  0  0
  -23.9994   -7.4636   22.7471 H   0  0  0  0  0  0
  -21.0830   -8.8774   19.8958 H   0  0  0  0  0  0
  -22.3689  -10.9669   19.6163 H   0  0  0  0  0  0
  -21.2012   -7.6146   23.9716 H   0  0  0  0  0  0
  -21.1478   -6.0520   25.9078 H   0  0  0  0  0  0
  -22.0601   -2.7606   23.2850 H   0  0  0  0  0  0
  -22.4095  -11.9893   22.4785 H   0  0  0  0  0  0
  -21.1124  -13.1289   22.2604 H   0  0  0  0  0  0
  -24.6643  -15.8419   20.5245 H   0  0  0  0  0  0
  -26.2847  -15.6312   20.0994 H   0  0  0  0  0  0
  -26.7128  -32.5520   23.1152 H   0  0  0  0  0  0
  -25.0044  -33.9766   25.0459 H   0  0  0  0  0  0
  -22.6993  -31.3046   21.4066 H   0  0  0  0  0  0
  -23.3741  -35.9654   23.3321 H   0  0  0  0  0  0
  -24.3579  -36.8910   22.2050 H   0  0  0  0  0  0
  -23.7252  -37.6528   23.6644 H   0  0  0  0  0  0
  -26.0584  -31.5880   20.5990 H   0  0  0  0  0  0
  -26.8272  -30.8753   21.9883 H   0  0  0  0  0  0
  -28.1113  -29.0660   21.1810 H   0  0  0  0  0  0
  -26.0621  -25.9489   19.0287 H   0  0  0  0  0  0
  -23.9827  -27.2926   19.0307 H   0  0  0  0  0  0
  -23.7303  -30.5943   19.4039 H   0  0  0  0  0  0
  -22.7456  -29.2395   19.8662 H   0  0  0  0  0  0
  -25.1286  -36.1972   25.0830 H   0  0  0  0  0  0
  -20.9955  -28.3237   24.1423 H   0  0  0  0  0  0
  -20.5650  -26.2275   23.3604 H   0  0  0  0  0  0
  -21.6635  -26.7431   22.1216 H   0  0  0  0  0  0
  -19.6904  -25.6292   21.1232 H   0  0  0  0  0  0
  -19.6682  -27.3193   20.6739 H   0  0  0  0  0  0
  -17.4187  -26.6663   21.4024 H   0  0  0  0  0  0
  -18.0325  -26.0061   22.9016 H   0  0  0  0  0  0
  -19.7929  -30.7248   24.2288 H   0  0  0  0  0  0
  -17.5012  -31.6267   24.5155 H   0  0  0  0  0  0
  -15.5347  -30.2991   23.7644 H   0  0  0  0  0  0
  -15.8658  -28.0818   22.7071 H   0  0  0  0  0  0
  -24.5899  -30.7069   25.7805 H   0  0  0  0  0  0
  -24.8939  -32.2867   26.4933 H   0  0  0  0  0  0
  -25.8080  -30.8862   27.0222 H   0  0  0  0  0  0
  -26.2863  -29.6793   24.1166 H   0  0  0  0  0  0
  -27.4058  -29.7271   25.4594 H   0  0  0  0  0  0
  -27.8708  -30.4344   23.9293 H   0  0  0  0  0  0
  -27.2671  -33.3606   26.2093 H   0  0  0  0  0  0
  -28.3843  -32.6897   25.0301 H   0  0  0  0  0  0
  -28.0741  -31.8427   26.5380 H   0  0  0  0  0  0
  -28.2608  -38.0096   24.7499 H   0  0  0  0  0  0
  -28.1062  -36.2629   24.6306 H   0  0  0  0  0  0
  -27.2296  -37.1484   25.8868 H   0  0  0  0  0  0
  -20.9315  -29.8768   21.6945 H   0  0  0  0  0  0
  -26.0185  -38.2871   24.1395 H   0  0  0  0  0  0
  -30.8318  -20.0440   21.7608 H   0  0  0  0  0  0
  -28.4618  -18.9053   18.3341 H   0  0  0  0  0  0
  -31.0379  -17.6600   22.3919 H   0  0  0  0  0  0
  -28.6822  -16.5419   18.9556 H   0  0  0  0  0  0
  -28.1698  -26.2432   22.1100 H   0  0  0  0  0  0
  -29.0845  -15.1905   21.5397 H   0  0  0  0  0  0
  -29.0941  -21.8611   21.3242 H   0  0  0  0  0  0
  -30.0113  -20.5652   17.6286 H   0  0  0  0  0  0
  -29.6372  -22.2596   17.8652 H   0  0  0  0  0  0
  -28.4659  -24.3964   23.0713 H   0  0  0  0  0  0
  1 25  1  0  0  0
  1 30  2  0  0  0
  1 81  1  0  0  0
  2  3  1  0  0  0
  2 25  1  0  0  0
  2 86  1  0  0  0
  2 87  1  0  0  0
  3  4  1  0  0  0
  3 88  1  0  0  0
  3 89  1  0  0  0
  4  5  1  0  0  0
  4 90  1  0  0  0
  4 91  1  0  0  0
  5  6  1  0  0  0
  5 26  1  0  0  0
  5 92  1  0  0  0
  6 25  1  0  0  0
  6 93  1  0  0  0
  6 94  1  0  0  0
  7  8  2  0  0  0
  7 26  1  0  0  0
  7 29  1  0  0  0
  8  9  1  0  0  0
  8 22  1  0  0  0
  9 10  1  0  0  0
  9 27  2  0  0  0
 10 11  2  0  0  0
 10 15  1  0  0  0
 11 12  1  0  0  0
 11 95  1  0  0  0
 12 13  2  0  0  0
 12 96  1  0  0  0
 13 14  1  0  0  0
 13 31  1  0  0  0
 14 15  2  0  0  0
 14 97  1  0  0  0
 15 98  1  0  0  0
 16 17  2  0  0  0
 16 21  1  0  0  0
 16 31  1  0  0  0
 17 18  1  0  0  0
 17 99  1  0  0  0
 18 19  2  0  0  0
 18100  1  0  0  0
 19 20  1  0  0  0
 19 24  1  0  0  0
 20 21  2  0  0  0
 20101  1  0  0  0
 21 23  1  0  0  0
 22 28  1  0  0  0
 22 32  2  0  0  0
 26 27  1  0  0  0
 28102  1  0  0  0
 28103  1  0  0  0
 29104  1  0  0  0
 29105  1  0  0  0
 33 34  1  0  0  0
 33 66  1  0  0  0
 33 70  2  0  0  0
 34 36  1  0  0  0
 34 59  1  0  0  0
 34106  1  0  0  0
 35 44  2  0  0  0
 35 45  1  0  0  0
 35 68  1  0  0  0
 36 56  1  0  0  0
 36107  1  0  0  0
 37 39  1  0  0  0
 37 47  1  0  0  0
 37 66  1  0  0  0
 37108  1  0  0  0
 38 43  2  0  0  0
 38 46  1  0  0  0
 38 47  1  0  0  0
 39 64  1  0  0  0
 39 67  2  0  0  0
 40 52  1  0  0  0
 40 53  2  0  0  0
 40 58  1  0  0  0
 41109  1  0  0  0
 41110  1  0  0  0
 41111  1  0  0  0
 41 48  1  0  0  0
 42 43  1  0  0  0
 42 66  1  0  0  0
 42112  1  0  0  0
 42113  1  0  0  0
 43 44  1  0  0  0
 44114  1  0  0  0
 45 46  2  0  0  0
 45115  1  0  0  0
 46116  1  0  0  0
 47117  1  0  0  0
 47118  1  0  0  0
 48 56  1  0  0  0
 48 65  1  0  0  0
 48119  1  0  0  0
 49 50  1  0  0  0
 49 53  1  0  0  0
 49 64  1  0  0  0
 49120  1  0  0  0
 50 51  1  0  0  0
 50121  1  0  0  0
 50122  1  0  0  0
 51 52  1  0  0  0
 51123  1  0  0  0
 51124  1  0  0  0
 52125  1  0  0  0
 52126  1  0  0  0
 53 54  1  0  0  0
 54 55  2  0  0  0
 54127  1  0  0  0
 55 57  1  0  0  0
 55128  1  0  0  0
 56 69  2  0  0  0
 57 58  2  0  0  0
 57129  1  0  0  0
 58130  1  0  0  0
 59 60  1  0  0  0
 59 61  1  0  0  0
 59 62  1  0  0  0
 60131  1  0  0  0
 60132  1  0  0  0
 60133  1  0  0  0
 61134  1  0  0  0
 61135  1  0  0  0
 61136  1  0  0  0
 62137  1  0  0  0
 62138  1  0  0  0
 62139  1  0  0  0
 63 65  1  0  0  0
 63140  1  0  0  0
 63141  1  0  0  0
 63142  1  0  0  0
 64143  1  0  0  0
 65144  1  0  0  0
 68 77  1  0  0  0
 71 73  2  0  0  0
 71 75  1  0  0  0
 71145  1  0  0  0
 72 74  1  0  0  0
 72 75  2  0  0  0
 72146  1  0  0  0
 73 76  1  0  0  0
 73147  1  0  0  0
 74 76  2  0  0  0
 74148  1  0  0  0
 75 78  1  0  0  0
 76 81  1  0  0  0
 77 79  2  0  0  0
 77149  1  0  0  0
 78 82  1  0  0  0
 78 83  2  0  0  0
 79 80  1  0  0  0
 79 85  1  0  0  0
 80 82  1  0  0  0
 80 84  2  0  0  0
 81150  1  0  0  0
 82151  1  0  0  0
 83152  1  0  0  0
 83153  1  0  0  0
 85154  1  0  0  0
M  CHG  1  83   1
M  ISO  4   1 100  68 101  77 101  81 100
M  END
> <chiral flag>
0

> <version>
0

> <s_m_source_file>
/data/baiqing/PycharmProjects/Reinvent-master-3.2/result/LINK_invent/BTK/process_docking_weight1_custom_product_contain_oxygen_bond_distance_aromatic_linkinvent_7_9_3/rearranged_h_0074.sdf

> <i_m_source_file_index>
87

> <r_mmod_Potential_Energy-OPLS-2005>
-307.828094482422

> <r_mmod_Stretch_Energy-OPLS-2005>
47.4952850341797

> <r_mmod_Bend_Energy-OPLS-2005>
117.942398071289

> <r_mmod_Torsional_Energy-OPLS-2005>
244.438720703125

> <r_mmod_Improper_Torsional_Energy-OPLS-2005>
5.17879295349121

> <r_mmod_Van_der_Waal_Energy-OPLS-2005>
155.245697021484

> <r_mmod_Electrostatic_Energy-OPLS-2005>
-462.856109619141

> <r_mmod_Solvation_Energy-OPLS-2005>
-436.103363037109

> <b_mmod_Minimization_Converged-OPLS-2005>
0

> <r_mmod_RMS_Derivative-OPLS-2005>
0.504493296146393

$$$$
89
                    3D
 Structure written by MMmdl.
150159  0  0  1  0            999 V2000
  -30.5729  -14.7439   20.4846 C   0  0  0  0  0  0
  -30.4506  -12.4572   19.4680 C   0  0  0  0  0  0
  -29.5163  -12.5185   18.2365 C   0  0  0  0  0  0
  -28.0410  -12.3387   18.6486 C   0  0  0  0  0  0
  -27.6511  -13.2227   19.8625 C   0  0  2  0  0  0
  -28.6967  -13.1104   20.9949 C   0  0  0  0  0  0
  -25.2544  -13.8170   20.5678 C   0  0  0  0  0  0
  -24.1818  -13.0431   20.9182 C   0  0  0  0  0  0
  -24.6402  -11.6908   20.8743 C   0  0  0  0  0  0
  -23.9073  -10.4290   21.0407 C   0  0  0  0  0  0
  -24.3622   -9.4205   21.9183 C   0  0  0  0  0  0
  -23.6295   -8.2241   22.0754 C   0  0  0  0  0  0
  -22.4276   -8.0281   21.3546 C   0  0  0  0  0  0
  -21.9913   -9.0257   20.4649 C   0  0  0  0  0  0
  -22.7245  -10.2134   20.3059 C   0  0  0  0  0  0
  -21.6853   -6.0733   22.5279 C   0  0  0  0  0  0
  -21.4013   -6.5637   23.8211 C   0  0  0  0  0  0
  -21.3659   -5.6792   24.9175 C   0  0  0  0  0  0
  -21.6045   -4.3054   24.7227 C   0  0  0  0  0  0
  -21.8821   -3.8146   23.4349 C   0  0  0  0  0  0
  -21.9193   -4.6961   22.3404 C   0  0  0  0  0  0
  -22.7841  -13.5223   21.1847 C   0  0  0  0  0  0
  -22.1658   -4.2144   21.0983 F   0  0  0  0  0  0
  -21.5636   -3.4538   25.7742 F   0  0  0  0  0  0
  -30.0028  -13.4897   20.4304 N   0  0  0  0  0  0
  -26.2985  -12.9366   20.3328 N   0  0  0  0  0  0
  -25.9337  -11.6516   20.5772 N   0  0  0  0  0  0
  -22.0491  -12.8218   22.0413 N   0  0  0  0  0  0
  -25.4238  -15.1887   20.4079 N   0  0  0  0  0  0
  -31.7307  -14.9218   20.0917 O   0  0  0  0  0  0
  -21.6643   -6.8876   21.4241 O   0  0  0  0  0  0
  -22.3518  -14.5524   20.6694 O   0  0  0  0  0  0
  -24.6312  -31.8552   23.1981 C   0  0  0  0  0  0
  -25.9133  -32.4756   23.8332 C   0  0  1  0  0  0
  -27.2254  -27.2666   20.1305 C   0  0  0  0  0  0
  -25.5925  -33.8558   24.2251 N   0  0  0  0  0  0
  -23.4299  -30.4766   21.5411 C   0  0  2  0  0  0
  -24.8814  -28.9256   20.1086 C   0  0  0  0  0  0
  -22.7508  -29.4596   22.4906 C   0  0  0  0  0  0
  -18.0296  -28.1381   22.8488 C   0  0  0  0  0  0
  -24.1489  -36.7288   23.2640 C   0  0  0  0  0  0
  -25.9760  -30.7680   21.3805 C   0  0  0  0  0  0
  -26.0526  -29.3912   20.7222 C   0  0  0  0  0  0
  -27.2300  -28.5729   20.7259 C   0  0  0  0  0  0
  -26.0365  -26.8730   19.4798 C   0  0  0  0  0  0
  -24.8778  -27.6733   19.4756 C   0  0  0  0  0  0
  -23.6499  -29.8102   20.1576 C   0  0  0  0  0  0
  -25.4116  -36.3072   24.0324 C   0  0  1  0  0  0
  -20.5899  -28.3698   23.1263 C   0  0  2  0  0  0
  -20.6780  -26.9414   22.5406 C   0  0  0  0  0  0
  -19.5753  -26.6379   21.5212 C   0  0  0  0  0  0
  -18.1937  -26.7921   22.1632 C   0  0  0  0  0  0
  -19.1550  -28.8857   23.2869 C   0  0  0  0  0  0
  -18.9470  -30.1459   23.8886 C   0  0  0  0  0  0
  -17.6468  -30.6585   24.0562 C   0  0  0  0  0  0
  -25.9055  -34.9441   23.5092 C   0  0  0  0  0  0
  -16.5359  -29.9082   23.6329 C   0  0  0  0  0  0
  -16.7282  -28.6498   23.0354 C   0  0  0  0  0  0
  -26.4499  -31.6580   25.0723 C   0  0  0  0  0  0
  -25.3722  -31.3746   26.1445 C   0  0  0  0  0  0
  -27.0342  -30.2990   24.6221 C   0  0  0  0  0  0
  -27.6045  -32.4328   25.7501 C   0  0  0  0  0  0
  -27.5579  -37.1799   24.8466 C   0  0  0  0  0  0
  -21.4213  -29.3045   22.3650 N   0  0  0  0  0  0
  -26.4293  -37.3768   23.9407 N   0  0  0  0  0  0
  -24.6978  -31.0512   22.0961 N   0  0  0  0  0  0
  -23.4203  -28.8140   23.3013 O   0  0  0  0  0  0
  -28.2755  -26.3192   20.1831 O   0  0  0  0  0  0
  -26.5635  -34.8917   22.4666 O   0  0  0  0  0  0
  -23.5459  -32.1376   23.7270 O   0  0  0  0  0  0
  -30.3145  -19.5787   20.0086 C   0  0  0  0  0  0
  -30.5504  -18.1502   20.0558 C   0  0  0  0  0  0
  -28.3987  -19.3223   21.3474 C   0  0  0  0  0  0
  -29.2225  -20.2587   20.6507 C   0  0  0  0  0  0
  -29.6892  -17.2567   20.7605 C   0  0  0  0  0  0
  -28.6057  -17.9086   21.4006 C   0  0  0  0  0  0
  -28.4365  -23.7433   20.6153 C   0  0  0  0  0  0
  -27.9263  -22.5486   21.2796 C   0  0  0  0  0  0
  -27.9439  -25.0446   20.7333 C   0  0  0  0  0  0
  -29.5123  -22.8520   19.9215 C   0  0  0  0  0  0
  -28.8910  -21.7178   20.6722 N   0  0  0  0  0  0
  -29.7381  -15.7750   20.8724 N   0  0  0  0  0  0
  -26.9982  -22.4039   22.0491 O   0  0  0  0  0  0
  -27.7206  -17.1472   22.0893 F   0  0  0  0  0  0
  -31.4870  -12.6091   19.1613 H   0  0  0  0  0  0
  -30.4182  -11.4692   19.9296 H   0  0  0  0  0  0
  -29.7977  -11.7532   17.5117 H   0  0  0  0  0  0
  -29.6392  -13.4774   17.7308 H   0  0  0  0  0  0
  -27.8952  -11.2872   18.8979 H   0  0  0  0  0  0
  -27.3831  -12.5438   17.8033 H   0  0  0  0  0  0
  -27.6575  -14.2525   19.5042 H   0  0  0  0  0  0
  -28.7333  -12.0916   21.3832 H   0  0  0  0  0  0
  -28.4234  -13.7411   21.8422 H   0  0  0  0  0  0
  -25.2768   -9.5677   22.4757 H   0  0  0  0  0  0
  -24.0004   -7.4632   22.7473 H   0  0  0  0  0  0
  -21.0844   -8.8778   19.8955 H   0  0  0  0  0  0
  -22.3704  -10.9674   19.6171 H   0  0  0  0  0  0
  -21.2001   -7.6143   23.9713 H   0  0  0  0  0  0
  -21.1480   -6.0522   25.9078 H   0  0  0  0  0  0
  -22.0599   -2.7606   23.2853 H   0  0  0  0  0  0
  -22.4114  -11.9884   22.4802 H   0  0  0  0  0  0
  -21.1115  -13.1246   22.2635 H   0  0  0  0  0  0
  -24.6615  -15.8447   20.5357 H   0  0  0  0  0  0
  -26.2880  -15.6369   20.1328 H   0  0  0  0  0  0
  -26.7203  -32.5410   23.1078 H   0  0  0  0  0  0
  -25.0051  -33.9694   25.0382 H   0  0  0  0  0  0
  -22.7265  -31.2988   21.3937 H   0  0  0  0  0  0
  -23.3748  -35.9625   23.3305 H   0  0  0  0  0  0
  -24.3576  -36.8910   22.2054 H   0  0  0  0  0  0
  -23.7250  -37.6493   23.6663 H   0  0  0  0  0  0
  -26.1156  -31.5286   20.6111 H   0  0  0  0  0  0
  -26.8523  -30.8172   22.0149 H   0  0  0  0  0  0
  -28.1233  -28.9176   21.2275 H   0  0  0  0  0  0
  -25.9923  -25.9065   18.9975 H   0  0  0  0  0  0
  -23.9827  -27.3111   18.9883 H   0  0  0  0  0  0
  -23.7723  -30.5864   19.4013 H   0  0  0  0  0  0
  -22.7695  -29.2415   19.8526 H   0  0  0  0  0  0
  -25.1300  -36.1918   25.0817 H   0  0  0  0  0  0
  -20.9995  -28.3277   24.1382 H   0  0  0  0  0  0
  -20.5676  -26.2312   23.3615 H   0  0  0  0  0  0
  -21.6647  -26.7430   22.1201 H   0  0  0  0  0  0
  -19.6914  -25.6288   21.1247 H   0  0  0  0  0  0
  -19.6683  -27.3186   20.6740 H   0  0  0  0  0  0
  -17.4201  -26.6662   21.4041 H   0  0  0  0  0  0
  -18.0349  -26.0063   22.9032 H   0  0  0  0  0  0
  -19.7947  -30.7278   24.2245 H   0  0  0  0  0  0
  -17.5024  -31.6263   24.5169 H   0  0  0  0  0  0
  -15.5359  -30.2983   23.7654 H   0  0  0  0  0  0
  -15.8683  -28.0814   22.7072 H   0  0  0  0  0  0
  -24.5856  -30.7150   25.7767 H   0  0  0  0  0  0
  -24.8970  -32.2933   26.4897 H   0  0  0  0  0  0
  -25.8023  -30.8883   27.0209 H   0  0  0  0  0  0
  -26.2930  -29.6739   24.1226 H   0  0  0  0  0  0
  -27.3995  -29.7251   25.4750 H   0  0  0  0  0  0
  -27.8825  -30.4253   23.9487 H   0  0  0  0  0  0
  -27.2630  -33.3619   26.2078 H   0  0  0  0  0  0
  -28.3852  -32.6907   25.0332 H   0  0  0  0  0  0
  -28.0715  -31.8461   26.5420 H   0  0  0  0  0  0
  -28.2598  -38.0093   24.7499 H   0  0  0  0  0  0
  -28.1070  -36.2622   24.6306 H   0  0  0  0  0  0
  -27.2294  -37.1467   25.8869 H   0  0  0  0  0  0
  -20.9401  -29.8775   21.6860 H   0  0  0  0  0  0
  -26.0171  -38.2845   24.1396 H   0  0  0  0  0  0
  -31.0171  -20.1776   19.4465 H   0  0  0  0  0  0
  -31.4023  -17.7474   19.5268 H   0  0  0  0  0  0
  -27.5371  -19.6972   21.8789 H   0  0  0  0  0  0
  -27.1021  -25.1664   21.4035 H   0  0  0  0  0  0
  -30.5540  -23.0043   20.2088 H   0  0  0  0  0  0
  -29.4314  -22.7135   18.8421 H   0  0  0  0  0  0
  -28.8870  -15.4125   21.2766 H   0  0  0  0  0  0
  1 25  1  0  0  0
  1 30  2  0  0  0
  1 82  1  0  0  0
  2  3  1  0  0  0
  2 25  1  0  0  0
  2 85  1  0  0  0
  2 86  1  0  0  0
  3  4  1  0  0  0
  3 87  1  0  0  0
  3 88  1  0  0  0
  4  5  1  0  0  0
  4 89  1  0  0  0
  4 90  1  0  0  0
  5  6  1  0  0  0
  5 26  1  0  0  0
  5 91  1  0  0  0
  6 25  1  0  0  0
  6 92  1  0  0  0
  6 93  1  0  0  0
  7  8  2  0  0  0
  7 26  1  0  0  0
  7 29  1  0  0  0
  8  9  1  0  0  0
  8 22  1  0  0  0
  9 10  1  0  0  0
  9 27  2  0  0  0
 10 11  2  0  0  0
 10 15  1  0  0  0
 11 12  1  0  0  0
 11 94  1  0  0  0
 12 13  2  0  0  0
 12 95  1  0  0  0
 13 14  1  0  0  0
 13 31  1  0  0  0
 14 15  2  0  0  0
 14 96  1  0  0  0
 15 97  1  0  0  0
 16 17  2  0  0  0
 16 21  1  0  0  0
 16 31  1  0  0  0
 17 18  1  0  0  0
 17 98  1  0  0  0
 18 19  2  0  0  0
 18 99  1  0  0  0
 19 20  1  0  0  0
 19 24  1  0  0  0
 20 21  2  0  0  0
 20100  1  0  0  0
 21 23  1  0  0  0
 22 28  1  0  0  0
 22 32  2  0  0  0
 26 27  1  0  0  0
 28101  1  0  0  0
 28102  1  0  0  0
 29103  1  0  0  0
 29104  1  0  0  0
 33 34  1  0  0  0
 33 66  1  0  0  0
 33 70  2  0  0  0
 34 36  1  0  0  0
 34 59  1  0  0  0
 34105  1  0  0  0
 35 44  2  0  0  0
 35 45  1  0  0  0
 35 68  1  0  0  0
 36 56  1  0  0  0
 36106  1  0  0  0
 37 39  1  0  0  0
 37 47  1  0  0  0
 37 66  1  0  0  0
 37107  1  0  0  0
 38 43  2  0  0  0
 38 46  1  0  0  0
 38 47  1  0  0  0
 39 64  1  0  0  0
 39 67  2  0  0  0
 40 52  1  0  0  0
 40 53  2  0  0  0
 40 58  1  0  0  0
 41108  1  0  0  0
 41109  1  0  0  0
 41110  1  0  0  0
 41 48  1  0  0  0
 42 43  1  0  0  0
 42 66  1  0  0  0
 42111  1  0  0  0
 42112  1  0  0  0
 43 44  1  0  0  0
 44113  1  0  0  0
 45 46  2  0  0  0
 45114  1  0  0  0
 46115  1  0  0  0
 47116  1  0  0  0
 47117  1  0  0  0
 48 56  1  0  0  0
 48 65  1  0  0  0
 48118  1  0  0  0
 49 50  1  0  0  0
 49 53  1  0  0  0
 49 64  1  0  0  0
 49119  1  0  0  0
 50 51  1  0  0  0
 50120  1  0  0  0
 50121  1  0  0  0
 51 52  1  0  0  0
 51122  1  0  0  0
 51123  1  0  0  0
 52124  1  0  0  0
 52125  1  0  0  0
 53 54  1  0  0  0
 54 55  2  0  0  0
 54126  1  0  0  0
 55 57  1  0  0  0
 55127  1  0  0  0
 56 69  2  0  0  0
 57 58  2  0  0  0
 57128  1  0  0  0
 58129  1  0  0  0
 59 60  1  0  0  0
 59 61  1  0  0  0
 59 62  1  0  0  0
 60130  1  0  0  0
 60131  1  0  0  0
 60132  1  0  0  0
 61133  1  0  0  0
 61134  1  0  0  0
 61135  1  0  0  0
 62136  1  0  0  0
 62137  1  0  0  0
 62138  1  0  0  0
 63 65  1  0  0  0
 63139  1  0  0  0
 63140  1  0  0  0
 63141  1  0  0  0
 64142  1  0  0  0
 65143  1  0  0  0
 68 79  1  0  0  0
 71 72  2  0  0  0
 71 74  1  0  0  0
 71144  1  0  0  0
 72 75  1  0  0  0
 72145  1  0  0  0
 73 74  2  0  0  0
 73 76  1  0  0  0
 73146  1  0  0  0
 74 81  1  0  0  0
 75 76  2  0  0  0
 75 82  1  0  0  0
 76 84  1  0  0  0
 77 78  1  0  0  0
 77 79  2  0  0  0
 77 80  1  0  0  0
 78 81  1  0  0  0
 78 83  2  0  0  0
 79147  1  0  0  0
 80 81  1  0  0  0
 80148  1  0  0  0
 80149  1  0  0  0
 82150  1  0  0  0
M  ISO  4   1 100  68 101  79 101  82 100
M  END
> <chiral flag>
0

> <version>
0

> <s_m_source_file>
/data/baiqing/PycharmProjects/Reinvent-master-3.2/result/LINK_invent/BTK/process_docking_weight1_custom_product_contain_oxygen_bond_distance_aromatic_linkinvent_7_9_3/rearranged_h_0074.sdf

> <i_m_source_file_index>
88

> <r_mmod_Potential_Energy-OPLS-2005>
198.142578125

> <r_mmod_Stretch_Energy-OPLS-2005>
106.317687988281

> <r_mmod_Bend_Energy-OPLS-2005>
271.832885742188

> <r_mmod_Torsional_Energy-OPLS-2005>
219.378356933594

> <r_mmod_Improper_Torsional_Energy-OPLS-2005>
3.23730540275574

> <r_mmod_Van_der_Waal_Energy-OPLS-2005>
133.984222412109

> <r_mmod_Electrostatic_Energy-OPLS-2005>
-415.522491455078

> <r_mmod_Solvation_Energy-OPLS-2005>
-209.682037353516

> <b_mmod_Minimization_Converged-OPLS-2005>
0

> <r_mmod_RMS_Derivative-OPLS-2005>
0.625052928924561

$$$$
90
                    3D
 Structure written by MMmdl.
165174  0  0  1  0            999 V2000
  -30.6623  -14.7177   20.4549 C   0  0  0  0  0  0
  -30.4204  -12.4346   19.4821 C   0  0  0  0  0  0
  -29.5070  -12.4965   18.2400 C   0  0  0  0  0  0
  -28.0333  -12.3304   18.6530 C   0  0  0  0  0  0
  -27.6414  -13.2366   19.8517 C   0  0  2  0  0  0
  -28.6874  -13.1859   20.9885 C   0  0  0  0  0  0
  -25.2506  -13.8216   20.5707 C   0  0  0  0  0  0
  -24.1798  -13.0452   20.9214 C   0  0  0  0  0  0
  -24.6389  -11.6929   20.8745 C   0  0  0  0  0  0
  -23.9070  -10.4301   21.0402 C   0  0  0  0  0  0
  -24.3617   -9.4215   21.9184 C   0  0  0  0  0  0
  -23.6291   -8.2248   22.0753 C   0  0  0  0  0  0
  -22.4276   -8.0280   21.3539 C   0  0  0  0  0  0
  -21.9918   -9.0251   20.4636 C   0  0  0  0  0  0
  -22.7245  -10.2134   20.3045 C   0  0  0  0  0  0
  -21.6855   -6.0732   22.5275 C   0  0  0  0  0  0
  -21.4016   -6.5637   23.8208 C   0  0  0  0  0  0
  -21.3661   -5.6789   24.9172 C   0  0  0  0  0  0
  -21.6045   -4.3049   24.7225 C   0  0  0  0  0  0
  -21.8822   -3.8142   23.4344 C   0  0  0  0  0  0
  -21.9195   -4.6960   22.3398 C   0  0  0  0  0  0
  -22.7816  -13.5226   21.1865 C   0  0  0  0  0  0
  -22.1662   -4.2143   21.0974 F   0  0  0  0  0  0
  -21.5633   -3.4537   25.7738 F   0  0  0  0  0  0
  -29.9921  -13.5155   20.4018 N   0  0  0  0  0  0
  -26.2934  -12.9431   20.3306 N   0  0  0  0  0  0
  -25.9328  -11.6567   20.5776 N   0  0  0  0  0  0
  -22.0459  -12.8187   22.0401 N   0  0  0  0  0  0
  -25.4199  -15.1939   20.4118 N   0  0  0  0  0  0
  -31.8520  -14.7341   20.1387 O   0  0  0  0  0  0
  -21.6641   -6.8873   21.4234 O   0  0  0  0  0  0
  -22.3496  -14.5535   20.6726 O   0  0  0  0  0  0
  -24.6299  -31.8572   23.2003 C   0  0  0  0  0  0
  -25.9142  -32.4767   23.8330 C   0  0  1  0  0  0
  -27.2108  -27.2653   20.1244 C   0  0  0  0  0  0
  -25.5957  -33.8564   24.2265 N   0  0  0  0  0  0
  -23.4240  -30.4823   21.5445 C   0  0  2  0  0  0
  -24.8685  -28.9362   20.1072 C   0  0  0  0  0  0
  -22.7501  -29.4588   22.4900 C   0  0  0  0  0  0
  -18.0288  -28.1381   22.8479 C   0  0  0  0  0  0
  -24.1497  -36.7279   23.2639 C   0  0  0  0  0  0
  -25.9683  -30.7752   21.3750 C   0  0  0  0  0  0
  -26.0389  -29.3955   20.7214 C   0  0  0  0  0  0
  -27.2073  -28.5697   20.7267 C   0  0  0  0  0  0
  -26.0141  -26.8789   19.4738 C   0  0  0  0  0  0
  -24.8608  -27.6861   19.4745 C   0  0  0  0  0  0
  -23.6417  -29.8257   20.1564 C   0  0  0  0  0  0
  -25.4123  -36.3060   24.0319 C   0  0  1  0  0  0
  -20.5891  -28.3689   23.1279 C   0  0  2  0  0  0
  -20.6800  -26.9409   22.5406 C   0  0  0  0  0  0
  -19.5767  -26.6399   21.5214 C   0  0  0  0  0  0
  -18.1937  -26.7924   22.1617 C   0  0  0  0  0  0
  -19.1538  -28.8854   23.2876 C   0  0  0  0  0  0
  -18.9468  -30.1459   23.8890 C   0  0  0  0  0  0
  -17.6470  -30.6590   24.0561 C   0  0  0  0  0  0
  -25.9065  -34.9439   23.5086 C   0  0  0  0  0  0
  -16.5359  -29.9083   23.6336 C   0  0  0  0  0  0
  -16.7276  -28.6505   23.0338 C   0  0  0  0  0  0
  -26.4527  -31.6561   25.0689 C   0  0  0  0  0  0
  -25.3745  -31.3664   26.1400 C   0  0  0  0  0  0
  -27.0381  -30.3002   24.6101 C   0  0  0  0  0  0
  -27.6073  -32.4288   25.7494 C   0  0  0  0  0  0
  -27.5572  -37.1805   24.8471 C   0  0  0  0  0  0
  -21.4207  -29.3033   22.3673 N   0  0  0  0  0  0
  -26.4286  -37.3768   23.9405 N   0  0  0  0  0  0
  -24.6938  -31.0554   22.0969 N   0  0  0  0  0  0
  -23.4227  -28.8095   23.2958 O   0  0  0  0  0  0
  -28.3238  -26.3942   20.2232 O   0  0  0  0  0  0
  -26.5633  -34.8917   22.4649 O   0  0  0  0  0  0
  -23.5464  -32.1373   23.7327 O   0  0  0  0  0  0
  -31.6733  -17.6797   20.1375 C   0  0  0  0  0  0
  -32.0721  -19.0166   19.9589 C   0  0  0  0  0  0
  -29.4436  -18.4662   20.6650 C   0  0  0  0  0  0
  -29.8284  -19.8672   20.4866 C   0  0  0  0  0  0
  -30.3455  -17.3312   20.4931 C   0  0  0  0  0  0
  -31.1805  -20.0891   20.1278 C   0  0  0  0  0  0
  -27.8796  -20.8943   21.6652 C   0  0  0  0  0  0
  -28.9529  -22.3193   19.9277 C   0  0  0  0  0  0
  -27.7577  -22.1621   22.5344 C   0  0  0  0  0  0
  -28.6967  -23.6968   20.7424 C   0  0  1  0  0  0
  -30.0306  -24.0482   21.4420 C   0  0  0  0  0  0
  -27.2573  -24.5541   22.6449 C   0  0  0  0  0  0
  -28.3117  -24.9533   19.7756 C   0  0  0  0  0  0
  -28.9743  -21.0258   20.7148 N   0  0  0  0  0  0
  -29.9505  -15.8974   20.6630 N   0  0  0  0  0  0
  -27.5972  -23.4221   21.7429 N   0  3  2  0  0  0
  -31.6705  -21.3461   19.9901 F   0  0  0  0  0  0
  -31.4658  -12.5228   19.1823 H   0  0  0  0  0  0
  -30.3379  -11.4650   19.9752 H   0  0  0  0  0  0
  -29.7850  -11.7196   17.5268 H   0  0  0  0  0  0
  -29.6422  -13.4495   17.7261 H   0  0  0  0  0  0
  -27.8855  -11.2835   18.9195 H   0  0  0  0  0  0
  -27.3772  -12.5222   17.8037 H   0  0  0  0  0  0
  -27.6331  -14.2555   19.4648 H   0  0  0  0  0  0
  -28.7163  -12.1962   21.4475 H   0  0  0  0  0  0
  -28.4298  -13.8855   21.7848 H   0  0  0  0  0  0
  -25.2761   -9.5696   22.4765 H   0  0  0  0  0  0
  -24.0001   -7.4642   22.7479 H   0  0  0  0  0  0
  -21.0856   -8.8760   19.8934 H   0  0  0  0  0  0
  -22.3702  -10.9664   19.6149 H   0  0  0  0  0  0
  -21.2005   -7.6147   23.9708 H   0  0  0  0  0  0
  -21.1483   -6.0521   25.9074 H   0  0  0  0  0  0
  -22.0601   -2.7604   23.2845 H   0  0  0  0  0  0
  -22.4078  -11.9834   22.4755 H   0  0  0  0  0  0
  -21.1065  -13.1184   22.2601 H   0  0  0  0  0  0
  -24.6521  -15.8483   20.5176 H   0  0  0  0  0  0
  -26.2643  -15.6295   20.0631 H   0  0  0  0  0  0
  -26.7193  -32.5445   23.1062 H   0  0  0  0  0  0
  -25.0129  -33.9697   25.0426 H   0  0  0  0  0  0
  -22.7183  -31.3032   21.4052 H   0  0  0  0  0  0
  -23.3755  -35.9620   23.3298 H   0  0  0  0  0  0
  -24.3582  -36.8914   22.2056 H   0  0  0  0  0  0
  -23.7269  -37.6481   23.6671 H   0  0  0  0  0  0
  -26.0959  -31.5318   20.5995 H   0  0  0  0  0  0
  -26.8519  -30.8338   21.9979 H   0  0  0  0  0  0
  -28.0993  -28.9122   21.2330 H   0  0  0  0  0  0
  -25.9028  -25.9413   18.9574 H   0  0  0  0  0  0
  -23.9644  -27.3330   18.9818 H   0  0  0  0  0  0
  -23.7720  -30.6091   19.4088 H   0  0  0  0  0  0
  -22.7588  -29.2660   19.8452 H   0  0  0  0  0  0
  -25.1303  -36.1901   25.0811 H   0  0  0  0  0  0
  -20.9988  -28.3273   24.1400 H   0  0  0  0  0  0
  -20.5776  -26.2272   23.3597 H   0  0  0  0  0  0
  -21.6656  -26.7490   22.1148 H   0  0  0  0  0  0
  -19.6952  -25.6324   21.1212 H   0  0  0  0  0  0
  -19.6710  -27.3242   20.6762 H   0  0  0  0  0  0
  -17.4218  -26.6670   21.4004 H   0  0  0  0  0  0
  -18.0321  -26.0075   22.9012 H   0  0  0  0  0  0
  -19.7952  -30.7267   24.2254 H   0  0  0  0  0  0
  -17.5027  -31.6274   24.5164 H   0  0  0  0  0  0
  -15.5357  -30.2984   23.7679 H   0  0  0  0  0  0
  -15.8667  -28.0853   22.7024 H   0  0  0  0  0  0
  -24.5970  -30.6966   25.7711 H   0  0  0  0  0  0
  -24.8882  -32.2813   26.4789 H   0  0  0  0  0  0
  -25.8074  -30.8876   27.0193 H   0  0  0  0  0  0
  -26.2948  -29.6745   24.1147 H   0  0  0  0  0  0
  -27.4151  -29.7248   25.4562 H   0  0  0  0  0  0
  -27.8774  -30.4317   23.9268 H   0  0  0  0  0  0
  -27.2686  -33.3624   26.1992 H   0  0  0  0  0  0
  -28.3945  -32.6771   25.0361 H   0  0  0  0  0  0
  -28.0648  -31.8436   26.5484 H   0  0  0  0  0  0
  -28.2567  -38.0123   24.7512 H   0  0  0  0  0  0
  -28.1079  -36.2640   24.6293 H   0  0  0  0  0  0
  -27.2271  -37.1447   25.8871 H   0  0  0  0  0  0
  -20.9383  -29.8767   21.6895 H   0  0  0  0  0  0
  -26.0151  -38.2828   24.1430 H   0  0  0  0  0  0
  -32.4480  -16.9465   19.9919 H   0  0  0  0  0  0
  -33.0989  -19.2298   19.7026 H   0  0  0  0  0  0
  -28.4212  -18.2517   20.9383 H   0  0  0  0  0  0
  -26.9500  -20.7058   21.1261 H   0  0  0  0  0  0
  -28.0375  -20.0392   22.3248 H   0  0  0  0  0  0
  -29.8389  -22.4245   19.3052 H   0  0  0  0  0  0
  -28.1412  -22.2098   19.2064 H   0  0  0  0  0  0
  -28.6231  -22.2445   23.1917 H   0  0  0  0  0  0
  -26.8999  -22.0322   23.1949 H   0  0  0  0  0  0
  -30.8210  -24.2050   20.7058 H   0  0  0  0  0  0
  -30.3722  -23.2525   22.1033 H   0  0  0  0  0  0
  -29.9657  -24.9655   22.0264 H   0  0  0  0  0  0
  -26.4182  -24.2933   23.2900 H   0  0  0  0  0  0
  -26.9494  -25.4422   22.1009 H   0  0  0  0  0  0
  -28.0889  -24.8182   23.2972 H   0  0  0  0  0  0
  -27.3972  -24.6704   19.2695 H   0  0  0  0  0  0
  -29.0456  -24.9429   18.9694 H   0  0  0  0  0  0
  -28.9830  -15.7452   20.9045 H   0  0  0  0  0  0
  -26.7646  -23.2558   21.1959 H   0  0  0  0  0  0
  1 25  1  0  0  0
  1 30  2  0  0  0
  1 85  1  0  0  0
  2  3  1  0  0  0
  2 25  1  0  0  0
  2 88  1  0  0  0
  2 89  1  0  0  0
  3  4  1  0  0  0
  3 90  1  0  0  0
  3 91  1  0  0  0
  4  5  1  0  0  0
  4 92  1  0  0  0
  4 93  1  0  0  0
  5  6  1  0  0  0
  5 26  1  0  0  0
  5 94  1  0  0  0
  6 25  1  0  0  0
  6 95  1  0  0  0
  6 96  1  0  0  0
  7  8  2  0  0  0
  7 26  1  0  0  0
  7 29  1  0  0  0
  8  9  1  0  0  0
  8 22  1  0  0  0
  9 10  1  0  0  0
  9 27  2  0  0  0
 10 11  2  0  0  0
 10 15  1  0  0  0
 11 12  1  0  0  0
 11 97  1  0  0  0
 12 13  2  0  0  0
 12 98  1  0  0  0
 13 14  1  0  0  0
 13 31  1  0  0  0
 14 15  2  0  0  0
 14 99  1  0  0  0
 15100  1  0  0  0
 16 17  2  0  0  0
 16 21  1  0  0  0
 16 31  1  0  0  0
 17 18  1  0  0  0
 17101  1  0  0  0
 18 19  2  0  0  0
 18102  1  0  0  0
 19 20  1  0  0  0
 19 24  1  0  0  0
 20 21  2  0  0  0
 20103  1  0  0  0
 21 23  1  0  0  0
 22 28  1  0  0  0
 22 32  2  0  0  0
 26 27  1  0  0  0
 28104  1  0  0  0
 28105  1  0  0  0
 29106  1  0  0  0
 29107  1  0  0  0
 33 34  1  0  0  0
 33 66  1  0  0  0
 33 70  2  0  0  0
 34 36  1  0  0  0
 34 59  1  0  0  0
 34108  1  0  0  0
 35 44  2  0  0  0
 35 45  1  0  0  0
 35 68  1  0  0  0
 36 56  1  0  0  0
 36109  1  0  0  0
 37 39  1  0  0  0
 37 47  1  0  0  0
 37 66  1  0  0  0
 37110  1  0  0  0
 38 43  2  0  0  0
 38 46  1  0  0  0
 38 47  1  0  0  0
 39 64  1  0  0  0
 39 67  2  0  0  0
 40 52  1  0  0  0
 40 53  2  0  0  0
 40 58  1  0  0  0
 41111  1  0  0  0
 41112  1  0  0  0
 41113  1  0  0  0
 41 48  1  0  0  0
 42 43  1  0  0  0
 42 66  1  0  0  0
 42114  1  0  0  0
 42115  1  0  0  0
 43 44  1  0  0  0
 44116  1  0  0  0
 45 46  2  0  0  0
 45117  1  0  0  0
 46118  1  0  0  0
 47119  1  0  0  0
 47120  1  0  0  0
 48 56  1  0  0  0
 48 65  1  0  0  0
 48121  1  0  0  0
 49 50  1  0  0  0
 49 53  1  0  0  0
 49 64  1  0  0  0
 49122  1  0  0  0
 50 51  1  0  0  0
 50123  1  0  0  0
 50124  1  0  0  0
 51 52  1  0  0  0
 51125  1  0  0  0
 51126  1  0  0  0
 52127  1  0  0  0
 52128  1  0  0  0
 53 54  1  0  0  0
 54 55  2  0  0  0
 54129  1  0  0  0
 55 57  1  0  0  0
 55130  1  0  0  0
 56 69  2  0  0  0
 57 58  2  0  0  0
 57131  1  0  0  0
 58132  1  0  0  0
 59 60  1  0  0  0
 59 61  1  0  0  0
 59 62  1  0  0  0
 60133  1  0  0  0
 60134  1  0  0  0
 60135  1  0  0  0
 61136  1  0  0  0
 61137  1  0  0  0
 61138  1  0  0  0
 62139  1  0  0  0
 62140  1  0  0  0
 62141  1  0  0  0
 63 65  1  0  0  0
 63142  1  0  0  0
 63143  1  0  0  0
 63144  1  0  0  0
 64145  1  0  0  0
 65146  1  0  0  0
 68 83  1  0  0  0
 71 72  2  0  0  0
 71 75  1  0  0  0
 71147  1  0  0  0
 72 76  1  0  0  0
 72148  1  0  0  0
 73 74  1  0  0  0
 73 75  2  0  0  0
 73149  1  0  0  0
 74 76  2  0  0  0
 74 84  1  0  0  0
 75 85  1  0  0  0
 76 87  1  0  0  0
 77 79  1  0  0  0
 77 84  1  0  0  0
 77150  1  0  0  0
 77151  1  0  0  0
 78 80  1  0  0  0
 78 84  1  0  0  0
 78152  1  0  0  0
 78153  1  0  0  0
 79 86  1  0  0  0
 79154  1  0  0  0
 79155  1  0  0  0
 80 81  1  0  0  0
 80 83  1  0  0  0
 80 86  1  0  0  0
 81156  1  0  0  0
 81157  1  0  0  0
 81158  1  0  0  0
 82159  1  0  0  0
 82160  1  0  0  0
 82161  1  0  0  0
 82 86  1  0  0  0
 83162  1  0  0  0
 83163  1  0  0  0
 85164  1  0  0  0
 86165  1  0  0  0
M  CHG  1  86   1
M  ISO  4   1 100  68 101  83 101  85 100
M  END
> <chiral flag>
0

> <version>
0

> <s_m_source_file>
/data/baiqing/PycharmProjects/Reinvent-master-3.2/result/LINK_invent/BTK/process_docking_weight1_custom_product_contain_oxygen_bond_distance_aromatic_linkinvent_7_9_3/rearranged_h_0074.sdf

> <i_m_source_file_index>
89

> <r_mmod_Potential_Energy-OPLS-2005>
247.393264770508

> <r_mmod_Stretch_Energy-OPLS-2005>
133.790634155273

> <r_mmod_Bend_Energy-OPLS-2005>
195.585784912109

> <r_mmod_Torsional_Energy-OPLS-2005>
289.670013427734

> <r_mmod_Improper_Torsional_Energy-OPLS-2005>
4.84382963180542

> <r_mmod_Van_der_Waal_Energy-OPLS-2005>
160.066528320312

> <r_mmod_Electrostatic_Energy-OPLS-2005>
-198.965270996094

> <r_mmod_Solvation_Energy-OPLS-2005>
-416.476531982422

> <b_mmod_Minimization_Converged-OPLS-2005>
0

> <r_mmod_RMS_Derivative-OPLS-2005>
1.85323441028595

$$$$
91
                    3D
 Structure written by MMmdl.
161170  0  0  1  0            999 V2000
  -30.5960  -14.6717   20.4932 C   0  0  0  0  0  0
  -30.4381  -12.4116   19.4555 C   0  0  0  0  0  0
  -29.5063  -12.5201   18.2261 C   0  0  0  0  0  0
  -28.0300  -12.3521   18.6355 C   0  0  0  0  0  0
  -27.6505  -13.2200   19.8643 C   0  0  2  0  0  0
  -28.6947  -13.0782   20.9950 C   0  0  0  0  0  0
  -25.2554  -13.8186   20.5699 C   0  0  0  0  0  0
  -24.1817  -13.0444   20.9167 C   0  0  0  0  0  0
  -24.6379  -11.6914   20.8722 C   0  0  0  0  0  0
  -23.9046  -10.4295   21.0391 C   0  0  0  0  0  0
  -24.3607   -9.4214   21.9178 C   0  0  0  0  0  0
  -23.6272   -8.2250   22.0746 C   0  0  0  0  0  0
  -22.4262   -8.0274   21.3528 C   0  0  0  0  0  0
  -21.9890   -9.0254   20.4642 C   0  0  0  0  0  0
  -22.7207  -10.2141   20.3044 C   0  0  0  0  0  0
  -21.6854   -6.0719   22.5265 C   0  0  0  0  0  0
  -21.4017   -6.5633   23.8194 C   0  0  0  0  0  0
  -21.3656   -5.6784   24.9158 C   0  0  0  0  0  0
  -21.6045   -4.3046   24.7208 C   0  0  0  0  0  0
  -21.8826   -3.8129   23.4334 C   0  0  0  0  0  0
  -21.9193   -4.6943   22.3383 C   0  0  0  0  0  0
  -22.7847  -13.5252   21.1814 C   0  0  0  0  0  0
  -22.1667   -4.2127   21.0964 F   0  0  0  0  0  0
  -21.5613   -3.4531   25.7722 F   0  0  0  0  0  0
  -30.0080  -13.4327   20.4350 N   0  0  0  0  0  0
  -26.2977  -12.9369   20.3325 N   0  0  0  0  0  0
  -25.9321  -11.6519   20.5760 N   0  0  0  0  0  0
  -22.0486  -12.8267   22.0383 N   0  0  0  0  0  0
  -25.4286  -15.1917   20.4199 N   0  0  0  0  0  0
  -31.7569  -14.8451   20.1043 O   0  0  0  0  0  0
  -21.6630   -6.8866   21.4223 O   0  0  0  0  0  0
  -22.3548  -14.5550   20.6639 O   0  0  0  0  0  0
  -24.6262  -31.8570   23.2003 C   0  0  0  0  0  0
  -25.9104  -32.4756   23.8337 C   0  0  1  0  0  0
  -27.2252  -27.3076   20.1300 C   0  0  0  0  0  0
  -25.5915  -33.8558   24.2263 N   0  0  0  0  0  0
  -23.4226  -30.4767   21.5434 C   0  0  2  0  0  0
  -24.8713  -28.9267   20.1148 C   0  0  0  0  0  0
  -22.7489  -29.4580   22.4930 C   0  0  0  0  0  0
  -18.0293  -28.1387   22.8485 C   0  0  0  0  0  0
  -24.1486  -36.7291   23.2642 C   0  0  0  0  0  0
  -25.9630  -30.7853   21.3723 C   0  0  0  0  0  0
  -26.0399  -29.4088   20.7208 C   0  0  0  0  0  0
  -27.2235  -28.6103   20.7187 C   0  0  0  0  0  0
  -26.0379  -26.8741   19.5054 C   0  0  0  0  0  0
  -24.8719  -27.6636   19.4993 C   0  0  0  0  0  0
  -23.6402  -29.8100   20.1591 C   0  0  0  0  0  0
  -25.4109  -36.3065   24.0325 C   0  0  1  0  0  0
  -20.5894  -28.3678   23.1294 C   0  0  2  0  0  0
  -20.6782  -26.9402   22.5424 C   0  0  0  0  0  0
  -19.5759  -26.6379   21.5227 C   0  0  0  0  0  0
  -18.1934  -26.7927   22.1636 C   0  0  0  0  0  0
  -19.1549  -28.8854   23.2881 C   0  0  0  0  0  0
  -18.9467  -30.1463   23.8888 C   0  0  0  0  0  0
  -17.6463  -30.6579   24.0569 C   0  0  0  0  0  0
  -25.9052  -34.9432   23.5104 C   0  0  0  0  0  0
  -16.5357  -29.9077   23.6332 C   0  0  0  0  0  0
  -16.7281  -28.6506   23.0335 C   0  0  0  0  0  0
  -26.4485  -31.6567   25.0709 C   0  0  0  0  0  0
  -25.3720  -31.3749   26.1446 C   0  0  0  0  0  0
  -27.0321  -30.2980   24.6176 C   0  0  0  0  0  0
  -27.6053  -32.4295   25.7464 C   0  0  0  0  0  0
  -27.5579  -37.1794   24.8454 C   0  0  0  0  0  0
  -21.4201  -29.3009   22.3667 N   0  0  0  0  0  0
  -26.4281  -37.3763   23.9409 N   0  0  0  0  0  0
  -24.6893  -31.0562   22.0954 N   0  0  0  0  0  0
  -23.4197  -28.8143   23.3032 O   0  0  0  0  0  0
  -28.3226  -26.4307   20.1350 O   0  0  0  0  0  0
  -26.5624  -34.8906   22.4669 O   0  0  0  0  0  0
  -23.5419  -32.1363   23.7321 O   0  0  0  0  0  0
  -29.4888  -19.4795   21.5423 C   0  0  0  0  0  0
  -29.6904  -18.0712   21.7014 C   0  0  0  0  0  0
  -29.4579  -19.1848   19.1725 C   0  0  0  0  0  0
  -29.6046  -17.7642   19.3169 C   0  0  0  0  0  0
  -29.3748  -20.0923   20.2660 C   0  0  0  0  0  0
  -29.7762  -17.1607   20.6080 C   0  0  0  0  0  0
  -28.6794  -23.9495   20.3063 C   0  0  0  0  0  0
  -29.2925  -23.6906   18.9994 C   0  0  0  0  0  0
  -29.5108  -16.9721   18.0616 C   0  0  0  0  0  0
  -28.2191  -25.1689   20.7790 C   0  0  0  0  0  0
  -28.6542  -22.5464   20.9963 C   0  0  0  0  0  0
  -29.5388  -22.1828   18.8026 C   0  0  0  0  0  0
  -28.2493  -17.1879   17.2348 C   0  0  0  0  0  0
  -27.5855  -25.2816   22.1595 C   0  0  0  0  0  0
  -29.1892  -21.5144   20.0625 N   0  0  0  0  0  0
  -29.7827  -15.7099   20.8870 N   0  0  0  0  0  0
  -29.5888  -24.5265   18.1400 O   0  0  0  0  0  0
  -30.3548  -16.1620   17.6753 O   0  0  0  0  0  0
  -31.4766  -12.5476   19.1497 H   0  0  0  0  0  0
  -30.3823  -11.4153   19.8981 H   0  0  0  0  0  0
  -29.7749  -11.7729   17.4783 H   0  0  0  0  0  0
  -29.6386  -13.4924   17.7485 H   0  0  0  0  0  0
  -27.8742  -11.2961   18.8627 H   0  0  0  0  0  0
  -27.3747  -12.5799   17.7930 H   0  0  0  0  0  0
  -27.6643  -14.2569   19.5273 H   0  0  0  0  0  0
  -28.7088  -12.0558   21.3750 H   0  0  0  0  0  0
  -28.4338  -13.7086   21.8465 H   0  0  0  0  0  0
  -25.2767   -9.5691   22.4745 H   0  0  0  0  0  0
  -23.9967   -7.4656   22.7496 H   0  0  0  0  0  0
  -21.0791   -8.8780   19.8982 H   0  0  0  0  0  0
  -22.3648  -10.9680   19.6149 H   0  0  0  0  0  0
  -21.2027   -7.6145   23.9700 H   0  0  0  0  0  0
  -21.1469   -6.0510   25.9062 H   0  0  0  0  0  0
  -22.0609   -2.7585   23.2841 H   0  0  0  0  0  0
  -22.4083  -11.9930   22.4796 H   0  0  0  0  0  0
  -21.1122  -13.1342   22.2585 H   0  0  0  0  0  0
  -24.6634  -15.8478   20.5373 H   0  0  0  0  0  0
  -26.2910  -15.6408   20.1455 H   0  0  0  0  0  0
  -26.7174  -32.5427   23.1093 H   0  0  0  0  0  0
  -25.0027  -33.9682   25.0386 H   0  0  0  0  0  0
  -22.7176  -31.2970   21.3995 H   0  0  0  0  0  0
  -23.3723  -35.9646   23.3288 H   0  0  0  0  0  0
  -24.3586  -36.8919   22.2062 H   0  0  0  0  0  0
  -23.7260  -37.6501   23.6670 H   0  0  0  0  0  0
  -26.0923  -31.5457   20.6009 H   0  0  0  0  0  0
  -26.8440  -30.8373   21.9998 H   0  0  0  0  0  0
  -28.1224  -28.9722   21.1989 H   0  0  0  0  0  0
  -26.0105  -25.9001   19.0372 H   0  0  0  0  0  0
  -23.9758  -27.2861   19.0265 H   0  0  0  0  0  0
  -23.7644  -30.5874   19.4045 H   0  0  0  0  0  0
  -22.7584  -29.2434   19.8537 H   0  0  0  0  0  0
  -25.1281  -36.1917   25.0814 H   0  0  0  0  0  0
  -20.9986  -28.3258   24.1421 H   0  0  0  0  0  0
  -20.5708  -26.2280   23.3616 H   0  0  0  0  0  0
  -21.6649  -26.7437   22.1207 H   0  0  0  0  0  0
  -19.6917  -25.6296   21.1243 H   0  0  0  0  0  0
  -19.6705  -27.3202   20.6769 H   0  0  0  0  0  0
  -17.4210  -26.6674   21.4036 H   0  0  0  0  0  0
  -18.0329  -26.0080   22.9046 H   0  0  0  0  0  0
  -19.7936  -30.7296   24.2246 H   0  0  0  0  0  0
  -17.5005  -31.6245   24.5189 H   0  0  0  0  0  0
  -15.5357  -30.2976   23.7661 H   0  0  0  0  0  0
  -15.8681  -28.0839   22.7023 H   0  0  0  0  0  0
  -24.5836  -30.7166   25.7775 H   0  0  0  0  0  0
  -24.8994  -32.2949   26.4892 H   0  0  0  0  0  0
  -25.8024  -30.8884   27.0206 H   0  0  0  0  0  0
  -26.2903  -29.6724   24.1196 H   0  0  0  0  0  0
  -27.4004  -29.7239   25.4688 H   0  0  0  0  0  0
  -27.8769  -30.4246   23.9405 H   0  0  0  0  0  0
  -27.2668  -33.3592   26.2041 H   0  0  0  0  0  0
  -28.3854  -32.6852   25.0285 H   0  0  0  0  0  0
  -28.0717  -31.8417   26.5376 H   0  0  0  0  0  0
  -28.2582  -38.0105   24.7486 H   0  0  0  0  0  0
  -28.1088  -36.2630   24.6275 H   0  0  0  0  0  0
  -27.2299  -37.1421   25.8858 H   0  0  0  0  0  0
  -20.9393  -29.8718   21.6859 H   0  0  0  0  0  0
  -26.0151  -38.2830   24.1418 H   0  0  0  0  0  0
  -29.4248  -20.0898   22.4319 H   0  0  0  0  0  0
  -29.7483  -17.6828   22.7092 H   0  0  0  0  0  0
  -29.3598  -19.5800   18.1721 H   0  0  0  0  0  0
  -27.6283  -22.3060   21.2780 H   0  0  0  0  0  0
  -29.2523  -22.5795   21.9079 H   0  0  0  0  0  0
  -30.5834  -22.0006   18.5450 H   0  0  0  0  0  0
  -28.9128  -21.8247   17.9851 H   0  0  0  0  0  0
  -27.4037  -17.4077   17.8868 H   0  0  0  0  0  0
  -28.0095  -16.2914   16.6639 H   0  0  0  0  0  0
  -28.3824  -18.0182   16.5410 H   0  0  0  0  0  0
  -28.0101  -24.5547   22.8513 H   0  0  0  0  0  0
  -26.5120  -25.1018   22.0993 H   0  0  0  0  0  0
  -27.7431  -26.2695   22.5937 H   0  0  0  0  0  0
  -28.9635  -15.3820   21.3766 H   0  0  0  0  0  0
  1 25  1  0  0  0
  1 30  2  0  0  0
  1 86  1  0  0  0
  2  3  1  0  0  0
  2 25  1  0  0  0
  2 89  1  0  0  0
  2 90  1  0  0  0
  3  4  1  0  0  0
  3 91  1  0  0  0
  3 92  1  0  0  0
  4  5  1  0  0  0
  4 93  1  0  0  0
  4 94  1  0  0  0
  5  6  1  0  0  0
  5 26  1  0  0  0
  5 95  1  0  0  0
  6 25  1  0  0  0
  6 96  1  0  0  0
  6 97  1  0  0  0
  7  8  2  0  0  0
  7 26  1  0  0  0
  7 29  1  0  0  0
  8  9  1  0  0  0
  8 22  1  0  0  0
  9 10  1  0  0  0
  9 27  2  0  0  0
 10 11  2  0  0  0
 10 15  1  0  0  0
 11 12  1  0  0  0
 11 98  1  0  0  0
 12 13  2  0  0  0
 12 99  1  0  0  0
 13 14  1  0  0  0
 13 31  1  0  0  0
 14 15  2  0  0  0
 14100  1  0  0  0
 15101  1  0  0  0
 16 17  2  0  0  0
 16 21  1  0  0  0
 16 31  1  0  0  0
 17 18  1  0  0  0
 17102  1  0  0  0
 18 19  2  0  0  0
 18103  1  0  0  0
 19 20  1  0  0  0
 19 24  1  0  0  0
 20 21  2  0  0  0
 20104  1  0  0  0
 21 23  1  0  0  0
 22 28  1  0  0  0
 22 32  2  0  0  0
 26 27  1  0  0  0
 28105  1  0  0  0
 28106  1  0  0  0
 29107  1  0  0  0
 29108  1  0  0  0
 33 34  1  0  0  0
 33 66  1  0  0  0
 33 70  2  0  0  0
 34 36  1  0  0  0
 34 59  1  0  0  0
 34109  1  0  0  0
 35 44  2  0  0  0
 35 45  1  0  0  0
 35 68  1  0  0  0
 36 56  1  0  0  0
 36110  1  0  0  0
 37 39  1  0  0  0
 37 47  1  0  0  0
 37 66  1  0  0  0
 37111  1  0  0  0
 38 43  2  0  0  0
 38 46  1  0  0  0
 38 47  1  0  0  0
 39 64  1  0  0  0
 39 67  2  0  0  0
 40 52  1  0  0  0
 40 53  2  0  0  0
 40 58  1  0  0  0
 41112  1  0  0  0
 41113  1  0  0  0
 41114  1  0  0  0
 41 48  1  0  0  0
 42 43  1  0  0  0
 42 66  1  0  0  0
 42115  1  0  0  0
 42116  1  0  0  0
 43 44  1  0  0  0
 44117  1  0  0  0
 45 46  2  0  0  0
 45118  1  0  0  0
 46119  1  0  0  0
 47120  1  0  0  0
 47121  1  0  0  0
 48 56  1  0  0  0
 48 65  1  0  0  0
 48122  1  0  0  0
 49 50  1  0  0  0
 49 53  1  0  0  0
 49 64  1  0  0  0
 49123  1  0  0  0
 50 51  1  0  0  0
 50124  1  0  0  0
 50125  1  0  0  0
 51 52  1  0  0  0
 51126  1  0  0  0
 51127  1  0  0  0
 52128  1  0  0  0
 52129  1  0  0  0
 53 54  1  0  0  0
 54 55  2  0  0  0
 54130  1  0  0  0
 55 57  1  0  0  0
 55131  1  0  0  0
 56 69  2  0  0  0
 57 58  2  0  0  0
 57132  1  0  0  0
 58133  1  0  0  0
 59 60  1  0  0  0
 59 61  1  0  0  0
 59 62  1  0  0  0
 60134  1  0  0  0
 60135  1  0  0  0
 60136  1  0  0  0
 61137  1  0  0  0
 61138  1  0  0  0
 61139  1  0  0  0
 62140  1  0  0  0
 62141  1  0  0  0
 62142  1  0  0  0
 63 65  1  0  0  0
 63143  1  0  0  0
 63144  1  0  0  0
 63145  1  0  0  0
 64146  1  0  0  0
 65147  1  0  0  0
 68 80  1  0  0  0
 71 72  2  0  0  0
 71 75  1  0  0  0
 71148  1  0  0  0
 72 76  1  0  0  0
 72149  1  0  0  0
 73 74  1  0  0  0
 73 75  2  0  0  0
 73150  1  0  0  0
 74 76  2  0  0  0
 74 79  1  0  0  0
 75 85  1  0  0  0
 76 86  1  0  0  0
 77 78  1  0  0  0
 77 80  2  0  0  0
 77 81  1  0  0  0
 78 82  1  0  0  0
 78 87  2  0  0  0
 79 83  1  0  0  0
 79 88  2  0  0  0
 80 84  1  0  0  0
 81 85  1  0  0  0
 81151  1  0  0  0
 81152  1  0  0  0
 82 85  1  0  0  0
 82153  1  0  0  0
 82154  1  0  0  0
 83155  1  0  0  0
 83156  1  0  0  0
 83157  1  0  0  0
 84158  1  0  0  0
 84159  1  0  0  0
 84160  1  0  0  0
 86161  1  0  0  0
M  ISO  4   1 100  68 101  80 101  86 100
M  END
> <chiral flag>
0

> <version>
0

> <s_m_source_file>
/data/baiqing/PycharmProjects/Reinvent-master-3.2/result/LINK_invent/BTK/process_docking_weight1_custom_product_contain_oxygen_bond_distance_aromatic_linkinvent_7_9_3/rearranged_h_0074.sdf

> <i_m_source_file_index>
90

> <r_mmod_Potential_Energy-OPLS-2005>
180.815689086914

> <r_mmod_Stretch_Energy-OPLS-2005>
86.5004959106445

> <r_mmod_Bend_Energy-OPLS-2005>
189.769760131836

> <r_mmod_Torsional_Energy-OPLS-2005>
288.121307373047

> <r_mmod_Improper_Torsional_Energy-OPLS-2005>
4.68816757202148

> <r_mmod_Van_der_Waal_Energy-OPLS-2005>
125.19580078125

> <r_mmod_Electrostatic_Energy-OPLS-2005>
-310.347991943359

> <r_mmod_Solvation_Energy-OPLS-2005>
-260.675506591797

> <b_mmod_Minimization_Converged-OPLS-2005>
0

> <r_mmod_RMS_Derivative-OPLS-2005>
2.58767199516296

$$$$
92
                    3D
 Structure written by MMmdl.
152160  0  0  1  0            999 V2000
  -30.6039  -14.7951   20.4437 C   0  0  0  0  0  0
  -30.4308  -12.4883   19.4725 C   0  0  0  0  0  0
  -29.5087  -12.5068   18.2344 C   0  0  0  0  0  0
  -28.0372  -12.3219   18.6526 C   0  0  0  0  0  0
  -27.6342  -13.2366   19.8398 C   0  0  2  0  0  0
  -28.6805  -13.2079   20.9738 C   0  0  0  0  0  0
  -25.2489  -13.8213   20.5693 C   0  0  0  0  0  0
  -24.1795  -13.0447   20.9224 C   0  0  0  0  0  0
  -24.6392  -11.6927   20.8755 C   0  0  0  0  0  0
  -23.9073  -10.4299   21.0412 C   0  0  0  0  0  0
  -24.3623   -9.4210   21.9186 C   0  0  0  0  0  0
  -23.6297   -8.2246   22.0754 C   0  0  0  0  0  0
  -22.4279   -8.0284   21.3545 C   0  0  0  0  0  0
  -21.9916   -9.0259   20.4648 C   0  0  0  0  0  0
  -22.7246  -10.2138   20.3060 C   0  0  0  0  0  0
  -21.6856   -6.0736   22.5278 C   0  0  0  0  0  0
  -21.4016   -6.5640   23.8212 C   0  0  0  0  0  0
  -21.3660   -5.6793   24.9174 C   0  0  0  0  0  0
  -21.6044   -4.3055   24.7224 C   0  0  0  0  0  0
  -21.8819   -3.8147   23.4346 C   0  0  0  0  0  0
  -21.9193   -4.6964   22.3402 C   0  0  0  0  0  0
  -22.7815  -13.5223   21.1880 C   0  0  0  0  0  0
  -22.1662   -4.2149   21.0980 F   0  0  0  0  0  0
  -21.5628   -3.4539   25.7738 F   0  0  0  0  0  0
  -29.9712  -13.5690   20.3775 N   0  0  0  0  0  0
  -26.2904  -12.9422   20.3241 N   0  0  0  0  0  0
  -25.9318  -11.6561   20.5742 N   0  0  0  0  0  0
  -22.0466  -12.8208   22.0437 N   0  0  0  0  0  0
  -25.4144  -15.1940   20.4097 N   0  0  0  0  0  0
  -31.8151  -14.8344   20.2069 O   0  0  0  0  0  0
  -21.6643   -6.8880   21.4240 O   0  0  0  0  0  0
  -22.3490  -14.5521   20.6720 O   0  0  0  0  0  0
  -24.6337  -31.8524   23.1947 C   0  0  0  0  0  0
  -25.9149  -32.4740   23.8307 C   0  0  1  0  0  0
  -27.2192  -27.2356   20.1448 C   0  0  0  0  0  0
  -25.5933  -33.8543   24.2232 N   0  0  0  0  0  0
  -23.4322  -30.4723   21.5389 C   0  0  2  0  0  0
  -24.8804  -28.9080   20.1165 C   0  0  0  0  0  0
  -22.7514  -29.4587   22.4907 C   0  0  0  0  0  0
  -18.0294  -28.1389   22.8483 C   0  0  0  0  0  0
  -24.1490  -36.7276   23.2641 C   0  0  0  0  0  0
  -25.9793  -30.7585   21.3764 C   0  0  0  0  0  0
  -26.0537  -29.3761   20.7233 C   0  0  0  0  0  0
  -27.2302  -28.5549   20.7189 C   0  0  0  0  0  0
  -26.0239  -26.8328   19.5178 C   0  0  0  0  0  0
  -24.8715  -27.6454   19.5013 C   0  0  0  0  0  0
  -23.6529  -29.7999   20.1580 C   0  0  0  0  0  0
  -25.4119  -36.3060   24.0322 C   0  0  1  0  0  0
  -20.5898  -28.3703   23.1265 C   0  0  2  0  0  0
  -20.6780  -26.9417   22.5409 C   0  0  0  0  0  0
  -19.5756  -26.6383   21.5213 C   0  0  0  0  0  0
  -18.1937  -26.7930   22.1624 C   0  0  0  0  0  0
  -19.1547  -28.8863   23.2867 C   0  0  0  0  0  0
  -18.9467  -30.1462   23.8888 C   0  0  0  0  0  0
  -17.6466  -30.6589   24.0561 C   0  0  0  0  0  0
  -25.9061  -34.9432   23.5083 C   0  0  0  0  0  0
  -16.5357  -29.9085   23.6332 C   0  0  0  0  0  0
  -16.7280  -28.6502   23.0355 C   0  0  0  0  0  0
  -26.4507  -31.6577   25.0710 C   0  0  0  0  0  0
  -25.3719  -31.3736   26.1422 C   0  0  0  0  0  0
  -27.0362  -30.2991   24.6217 C   0  0  0  0  0  0
  -27.6052  -32.4325   25.7492 C   0  0  0  0  0  0
  -27.5578  -37.1794   24.8465 C   0  0  0  0  0  0
  -21.4219  -29.3043   22.3650 N   0  0  0  0  0  0
  -26.4291  -37.3762   23.9407 N   0  0  0  0  0  0
  -24.7010  -31.0467   22.0930 N   0  0  0  0  0  0
  -23.4201  -28.8136   23.3024 O   0  0  0  0  0  0
  -28.3065  -26.3291   20.1327 O   0  0  0  0  0  0
  -26.5640  -34.8914   22.4657 O   0  0  0  0  0  0
  -23.5480  -32.1354   23.7228 O   0  0  0  0  0  0
  -27.3804  -20.6332   19.5974 C   0  0  0  0  0  0
  -27.0935  -19.2856   19.2915 C   0  0  0  0  0  0
  -29.4628  -19.9013   20.5846 C   0  0  0  0  0  0
  -29.1966  -18.4871   20.2807 C   0  0  0  0  0  0
  -28.5723  -21.0182   20.2541 C   0  0  0  0  0  0
  -27.9709  -18.2324   19.6237 C   0  0  0  0  0  0
  -30.2009  -17.3053   20.5465 C   0  0  0  0  0  0
  -28.3638  -23.5507   20.0826 C   0  0  0  0  0  0
  -27.9938  -23.6106   18.6134 C   0  0  0  0  0  0
  -28.1718  -24.9863   20.8209 C   0  0  0  0  0  0
  -28.7318  -22.4172   20.6874 N   0  0  0  0  0  0
  -29.8251  -15.9560   20.5215 N   0  0  0  0  0  0
  -31.3660  -17.6359   20.7950 O   0  0  0  0  0  0
  -27.6087  -16.9656   19.2993 F   0  0  0  0  0  0
  -31.4700  -12.6165   19.1650 H   0  0  0  0  0  0
  -30.3850  -11.5215   19.9766 H   0  0  0  0  0  0
  -29.7998  -11.7234   17.5335 H   0  0  0  0  0  0
  -29.6240  -13.4527   17.7025 H   0  0  0  0  0  0
  -27.9064  -11.2762   18.9336 H   0  0  0  0  0  0
  -27.3766  -12.4921   17.8017 H   0  0  0  0  0  0
  -27.6146  -14.2495   19.4379 H   0  0  0  0  0  0
  -28.7306  -12.2213   21.4370 H   0  0  0  0  0  0
  -28.4095  -13.9082   21.7658 H   0  0  0  0  0  0
  -25.2767   -9.5684   22.4763 H   0  0  0  0  0  0
  -24.0005   -7.4636   22.7473 H   0  0  0  0  0  0
  -21.0848   -8.8779   19.8953 H   0  0  0  0  0  0
  -22.3704  -10.9679   19.6171 H   0  0  0  0  0  0
  -21.2011   -7.6148   23.9715 H   0  0  0  0  0  0
  -21.1481   -6.0523   25.9077 H   0  0  0  0  0  0
  -22.0598   -2.7609   23.2847 H   0  0  0  0  0  0
  -22.4093  -11.9876   22.4828 H   0  0  0  0  0  0
  -21.1081  -13.1224   22.2643 H   0  0  0  0  0  0
  -24.6363  -15.8352   20.5131 H   0  0  0  0  0  0
  -26.2382  -15.6404   20.0227 H   0  0  0  0  0  0
  -26.7217  -32.5385   23.1047 H   0  0  0  0  0  0
  -25.0069  -33.9672   25.0371 H   0  0  0  0  0  0
  -22.7299  -31.2948   21.3884 H   0  0  0  0  0  0
  -23.3755  -35.9606   23.3300 H   0  0  0  0  0  0
  -24.3578  -36.8906   22.2057 H   0  0  0  0  0  0
  -23.7241  -37.6472   23.6674 H   0  0  0  0  0  0
  -26.1189  -31.5159   20.6039 H   0  0  0  0  0  0
  -26.8560  -30.8114   22.0103 H   0  0  0  0  0  0
  -28.1336  -28.9128   21.1925 H   0  0  0  0  0  0
  -25.9753  -25.8621   19.0457 H   0  0  0  0  0  0
  -23.9732  -27.2814   19.0217 H   0  0  0  0  0  0
  -23.7816  -30.5727   19.3993 H   0  0  0  0  0  0
  -22.7704  -29.2347   19.8529 H   0  0  0  0  0  0
  -25.1305  -36.1902   25.0814 H   0  0  0  0  0  0
  -20.9989  -28.3283   24.1386 H   0  0  0  0  0  0
  -20.5679  -26.2313   23.3616 H   0  0  0  0  0  0
  -21.6648  -26.7437   22.1205 H   0  0  0  0  0  0
  -19.6918  -25.6292   21.1248 H   0  0  0  0  0  0
  -19.6694  -27.3188   20.6738 H   0  0  0  0  0  0
  -17.4206  -26.6675   21.4027 H   0  0  0  0  0  0
  -18.0338  -26.0074   22.9023 H   0  0  0  0  0  0
  -19.7942  -30.7280   24.2256 H   0  0  0  0  0  0
  -17.5019  -31.6269   24.5163 H   0  0  0  0  0  0
  -15.5357  -30.2984   23.7661 H   0  0  0  0  0  0
  -15.8679  -28.0817   22.7078 H   0  0  0  0  0  0
  -24.5901  -30.7081   25.7744 H   0  0  0  0  0  0
  -24.8905  -32.2908   26.4824 H   0  0  0  0  0  0
  -25.8025  -30.8926   27.0214 H   0  0  0  0  0  0
  -26.2955  -29.6729   24.1230 H   0  0  0  0  0  0
  -27.4025  -29.7266   25.4749 H   0  0  0  0  0  0
  -27.8838  -30.4259   23.9478 H   0  0  0  0  0  0
  -27.2655  -33.3633   26.2047 H   0  0  0  0  0  0
  -28.3878  -32.6875   25.0332 H   0  0  0  0  0  0
  -28.0705  -31.8465   26.5428 H   0  0  0  0  0  0
  -28.2594  -38.0093   24.7510 H   0  0  0  0  0  0
  -28.1075  -36.2623   24.6297 H   0  0  0  0  0  0
  -27.2295  -37.1447   25.8868 H   0  0  0  0  0  0
  -20.9412  -29.8756   21.6841 H   0  0  0  0  0  0
  -26.0166  -38.2835   24.1407 H   0  0  0  0  0  0
  -26.6295  -21.3687   19.3499 H   0  0  0  0  0  0
  -26.1621  -19.0486   18.7983 H   0  0  0  0  0  0
  -30.3845  -20.1304   21.1002 H   0  0  0  0  0  0
  -28.3287  -24.5513   18.1770 H   0  0  0  0  0  0
  -26.9132  -23.5451   18.4918 H   0  0  0  0  0  0
  -28.4640  -22.8020   18.0546 H   0  0  0  0  0  0
  -28.8865  -25.0104   21.6435 H   0  0  0  0  0  0
  -27.1981  -24.9547   21.3113 H   0  0  0  0  0  0
  -28.8308  -15.8119   20.4559 H   0  0  0  0  0  0
  1 25  1  0  0  0
  1 30  2  0  0  0
  1 82  1  0  0  0
  2  3  1  0  0  0
  2 25  1  0  0  0
  2 85  1  0  0  0
  2 86  1  0  0  0
  3  4  1  0  0  0
  3 87  1  0  0  0
  3 88  1  0  0  0
  4  5  1  0  0  0
  4 89  1  0  0  0
  4 90  1  0  0  0
  5  6  1  0  0  0
  5 26  1  0  0  0
  5 91  1  0  0  0
  6 25  1  0  0  0
  6 92  1  0  0  0
  6 93  1  0  0  0
  7  8  2  0  0  0
  7 26  1  0  0  0
  7 29  1  0  0  0
  8  9  1  0  0  0
  8 22  1  0  0  0
  9 10  1  0  0  0
  9 27  2  0  0  0
 10 11  2  0  0  0
 10 15  1  0  0  0
 11 12  1  0  0  0
 11 94  1  0  0  0
 12 13  2  0  0  0
 12 95  1  0  0  0
 13 14  1  0  0  0
 13 31  1  0  0  0
 14 15  2  0  0  0
 14 96  1  0  0  0
 15 97  1  0  0  0
 16 17  2  0  0  0
 16 21  1  0  0  0
 16 31  1  0  0  0
 17 18  1  0  0  0
 17 98  1  0  0  0
 18 19  2  0  0  0
 18 99  1  0  0  0
 19 20  1  0  0  0
 19 24  1  0  0  0
 20 21  2  0  0  0
 20100  1  0  0  0
 21 23  1  0  0  0
 22 28  1  0  0  0
 22 32  2  0  0  0
 26 27  1  0  0  0
 28101  1  0  0  0
 28102  1  0  0  0
 29103  1  0  0  0
 29104  1  0  0  0
 33 34  1  0  0  0
 33 66  1  0  0  0
 33 70  2  0  0  0
 34 36  1  0  0  0
 34 59  1  0  0  0
 34105  1  0  0  0
 35 44  2  0  0  0
 35 45  1  0  0  0
 35 68  1  0  0  0
 36 56  1  0  0  0
 36106  1  0  0  0
 37 39  1  0  0  0
 37 47  1  0  0  0
 37 66  1  0  0  0
 37107  1  0  0  0
 38 43  2  0  0  0
 38 46  1  0  0  0
 38 47  1  0  0  0
 39 64  1  0  0  0
 39 67  2  0  0  0
 40 52  1  0  0  0
 40 53  2  0  0  0
 40 58  1  0  0  0
 41108  1  0  0  0
 41109  1  0  0  0
 41110  1  0  0  0
 41 48  1  0  0  0
 42 43  1  0  0  0
 42 66  1  0  0  0
 42111  1  0  0  0
 42112  1  0  0  0
 43 44  1  0  0  0
 44113  1  0  0  0
 45 46  2  0  0  0
 45114  1  0  0  0
 46115  1  0  0  0
 47116  1  0  0  0
 47117  1  0  0  0
 48 56  1  0  0  0
 48 65  1  0  0  0
 48118  1  0  0  0
 49 50  1  0  0  0
 49 53  1  0  0  0
 49 64  1  0  0  0
 49119  1  0  0  0
 50 51  1  0  0  0
 50120  1  0  0  0
 50121  1  0  0  0
 51 52  1  0  0  0
 51122  1  0  0  0
 51123  1  0  0  0
 52124  1  0  0  0
 52125  1  0  0  0
 53 54  1  0  0  0
 54 55  2  0  0  0
 54126  1  0  0  0
 55 57  1  0  0  0
 55127  1  0  0  0
 56 69  2  0  0  0
 57 58  2  0  0  0
 57128  1  0  0  0
 58129  1  0  0  0
 59 60  1  0  0  0
 59 61  1  0  0  0
 59 62  1  0  0  0
 60130  1  0  0  0
 60131  1  0  0  0
 60132  1  0  0  0
 61133  1  0  0  0
 61134  1  0  0  0
 61135  1  0  0  0
 62136  1  0  0  0
 62137  1  0  0  0
 62138  1  0  0  0
 63 65  1  0  0  0
 63139  1  0  0  0
 63140  1  0  0  0
 63141  1  0  0  0
 64142  1  0  0  0
 65143  1  0  0  0
 68 80  1  0  0  0
 71 72  2  0  0  0
 71 75  1  0  0  0
 71144  1  0  0  0
 72 76  1  0  0  0
 72145  1  0  0  0
 73 74  1  0  0  0
 73 75  2  0  0  0
 73146  1  0  0  0
 74 76  2  0  0  0
 74 77  1  0  0  0
 75 81  1  0  0  0
 76 84  1  0  0  0
 77 82  1  0  0  0
 77 83  2  0  0  0
 78 79  1  0  0  0
 78 80  1  0  0  0
 78 81  2  0  0  0
 79147  1  0  0  0
 79148  1  0  0  0
 79149  1  0  0  0
 80150  1  0  0  0
 80151  1  0  0  0
 82152  1  0  0  0
M  ISO  4   1 100  68 101  80 101  82 100
M  END
> <chiral flag>
0

> <version>
0

> <s_m_source_file>
/data/baiqing/PycharmProjects/Reinvent-master-3.2/result/LINK_invent/BTK/process_docking_weight1_custom_product_contain_oxygen_bond_distance_aromatic_linkinvent_7_9_3/rearranged_h_0074.sdf

> <i_m_source_file_index>
91

> <r_mmod_Potential_Energy-OPLS-2005>
144.502838134766

> <r_mmod_Stretch_Energy-OPLS-2005>
149.105926513672

> <r_mmod_Bend_Energy-OPLS-2005>
180.812301635742

> <r_mmod_Torsional_Energy-OPLS-2005>
254.781188964844

> <r_mmod_Improper_Torsional_Energy-OPLS-2005>
7.28268671035767

> <r_mmod_Van_der_Waal_Energy-OPLS-2005>
138.287811279297

> <r_mmod_Electrostatic_Energy-OPLS-2005>
-476.656066894531

> <r_mmod_Solvation_Energy-OPLS-2005>
-214.467086791992

> <b_mmod_Minimization_Converged-OPLS-2005>
0

> <r_mmod_RMS_Derivative-OPLS-2005>
0.154772758483887

$$$$
93
                    3D
 Structure written by MMmdl.
161170  0  0  1  0            999 V2000
  -30.7393  -14.4988   20.5712 C   0  0  0  0  0  0
  -30.4111  -12.3273   19.4405 C   0  0  0  0  0  0
  -29.4899  -12.4999   18.2172 C   0  0  0  0  0  0
  -28.0149  -12.3569   18.6325 C   0  0  0  0  0  0
  -27.6560  -13.2184   19.8732 C   0  0  2  0  0  0
  -28.7004  -13.0531   21.0023 C   0  0  0  0  0  0
  -25.2558  -13.8194   20.5702 C   0  0  0  0  0  0
  -24.1826  -13.0447   20.9192 C   0  0  0  0  0  0
  -24.6395  -11.6922   20.8744 C   0  0  0  0  0  0
  -23.9061  -10.4302   21.0397 C   0  0  0  0  0  0
  -24.3610   -9.4216   21.9174 C   0  0  0  0  0  0
  -23.6293   -8.2244   22.0746 C   0  0  0  0  0  0
  -22.4274   -8.0280   21.3539 C   0  0  0  0  0  0
  -21.9913   -9.0253   20.4634 C   0  0  0  0  0  0
  -22.7237  -10.2137   20.3046 C   0  0  0  0  0  0
  -21.6857   -6.0730   22.5274 C   0  0  0  0  0  0
  -21.4014   -6.5634   23.8204 C   0  0  0  0  0  0
  -21.3658   -5.6782   24.9177 C   0  0  0  0  0  0
  -21.6050   -4.3049   24.7221 C   0  0  0  0  0  0
  -21.8820   -3.8144   23.4343 C   0  0  0  0  0  0
  -21.9195   -4.6961   22.3403 C   0  0  0  0  0  0
  -22.7845  -13.5229   21.1852 C   0  0  0  0  0  0
  -22.1665   -4.2144   21.0977 F   0  0  0  0  0  0
  -21.5630   -3.4534   25.7736 F   0  0  0  0  0  0
  -30.0269  -13.3436   20.4376 N   0  0  0  0  0  0
  -26.2994  -12.9378   20.3386 N   0  0  0  0  0  0
  -25.9328  -11.6530   20.5795 N   0  0  0  0  0  0
  -22.0494  -12.8206   22.0406 N   0  0  0  0  0  0
  -25.4283  -15.1907   20.4089 N   0  0  0  0  0  0
  -31.8627  -14.6193   20.0756 O   0  0  0  0  0  0
  -21.6643   -6.8877   21.4238 O   0  0  0  0  0  0
  -22.3528  -14.5539   20.6719 O   0  0  0  0  0  0
  -24.6179  -31.8670   23.2099 C   0  0  0  0  0  0
  -25.9073  -32.4823   23.8381 C   0  0  1  0  0  0
  -27.2214  -27.3917   20.1040 C   0  0  0  0  0  0
  -25.5922  -33.8611   24.2318 N   0  0  0  0  0  0
  -23.4061  -30.4939   21.5509 C   0  0  2  0  0  0
  -24.8513  -28.9618   20.1100 C   0  0  0  0  0  0
  -22.7434  -29.4651   22.4972 C   0  0  0  0  0  0
  -18.0276  -28.1366   22.8485 C   0  0  0  0  0  0
  -24.1489  -36.7305   23.2632 C   0  0  0  0  0  0
  -25.9403  -30.8220   21.3689 C   0  0  0  0  0  0
  -26.0176  -29.4561   20.7085 C   0  0  0  0  0  0
  -27.2072  -28.6814   20.6964 C   0  0  0  0  0  0
  -26.0326  -26.9324   19.4859 C   0  0  0  0  0  0
  -24.8563  -27.7020   19.4929 C   0  0  0  0  0  0
  -23.6165  -29.8340   20.1635 C   0  0  0  0  0  0
  -25.4112  -36.3106   24.0329 C   0  0  1  0  0  0
  -20.5871  -28.3665   23.1301 C   0  0  2  0  0  0
  -20.6771  -26.9400   22.5406 C   0  0  0  0  0  0
  -19.5758  -26.6385   21.5194 C   0  0  0  0  0  0
  -18.1931  -26.7915   22.1601 C   0  0  0  0  0  0
  -19.1526  -28.8835   23.2892 C   0  0  0  0  0  0
  -18.9461  -30.1427   23.8918 C   0  0  0  0  0  0
  -17.6467  -30.6588   24.0558 C   0  0  0  0  0  0
  -25.9037  -34.9469   23.5116 C   0  0  0  0  0  0
  -16.5355  -29.9089   23.6329 C   0  0  0  0  0  0
  -16.7268  -28.6492   23.0367 C   0  0  0  0  0  0
  -26.4478  -31.6604   25.0715 C   0  0  0  0  0  0
  -25.3731  -31.3716   26.1465 C   0  0  0  0  0  0
  -27.0301  -30.3038   24.6093 C   0  0  0  0  0  0
  -27.6055  -32.4322   25.7491 C   0  0  0  0  0  0
  -27.5586  -37.1811   24.8464 C   0  0  0  0  0  0
  -21.4159  -29.3043   22.3723 N   0  0  0  0  0  0
  -26.4297  -37.3796   23.9407 N   0  0  0  0  0  0
  -24.6731  -31.0752   22.1009 N   0  0  0  0  0  0
  -23.4199  -28.8183   23.3013 O   0  0  0  0  0  0
  -28.3610  -26.5952   20.1524 O   0  0  0  0  0  0
  -26.5609  -34.8932   22.4683 O   0  0  0  0  0  0
  -23.5370  -32.1437   23.7495 O   0  0  0  0  0  0
  -29.9740  -18.0731   21.1236 C   0  0  0  0  0  0
  -31.9135  -19.4134   21.7261 C   0  0  0  0  0  0
  -32.0398  -16.9818   21.8145 C   0  0  0  0  0  0
  -30.5601  -19.3706   21.2994 C   0  0  0  0  0  0
  -30.7087  -16.8704   21.3495 C   0  0  0  0  0  0
  -32.6367  -18.2388   21.9903 C   0  0  0  0  0  0
  -30.1059  -21.8801   21.3808 C   0  0  0  0  0  0
  -28.0505  -22.0117   20.2321 C   0  0  0  0  0  0
  -28.4628  -20.5497   20.4708 C   0  0  0  0  0  0
  -28.9143  -22.8466   21.1889 C   0  0  1  0  0  0
  -28.2268  -22.9980   22.5672 C   0  0  0  0  0  0
  -29.3095  -24.2729   20.6410 C   0  0  0  0  0  0
  -28.1350  -25.1594   20.1249 C   0  0  0  0  0  0
  -29.8016  -20.5914   21.0507 N   0  0  0  0  0  0
  -30.1207  -15.5663   21.1364 N   0  0  0  0  0  0
  -31.1873  -22.3021   21.8015 O   0  0  0  0  0  0
  -33.9217  -18.3183   22.4114 F   0  0  0  0  0  0
  -31.4562  -12.4039   19.1356 H   0  0  0  0  0  0
  -30.3019  -11.3288   19.8662 H   0  0  0  0  0  0
  -29.7328  -11.7603   17.4538 H   0  0  0  0  0  0
  -29.6541  -13.4783   17.7620 H   0  0  0  0  0  0
  -27.8355  -11.3039   18.8507 H   0  0  0  0  0  0
  -27.3597  -12.6080   17.7980 H   0  0  0  0  0  0
  -27.6850  -14.2579   19.5457 H   0  0  0  0  0  0
  -28.6842  -12.0341   21.3914 H   0  0  0  0  0  0
  -28.4611  -13.6971   21.8488 H   0  0  0  0  0  0
  -25.2751   -9.5692   22.4754 H   0  0  0  0  0  0
  -24.0001   -7.4637   22.7465 H   0  0  0  0  0  0
  -21.0844   -8.8768   19.8937 H   0  0  0  0  0  0
  -22.3690  -10.9672   19.6155 H   0  0  0  0  0  0
  -21.2008   -7.6140   23.9710 H   0  0  0  0  0  0
  -21.1479   -6.0515   25.9073 H   0  0  0  0  0  0
  -22.0604   -2.7602   23.2844 H   0  0  0  0  0  0
  -22.4123  -11.9858   22.4763 H   0  0  0  0  0  0
  -21.1110  -13.1214   22.2628 H   0  0  0  0  0  0
  -24.6620  -15.8478   20.5073 H   0  0  0  0  0  0
  -26.2803  -15.6238   20.0742 H   0  0  0  0  0  0
  -26.7137  -32.5551   23.1135 H   0  0  0  0  0  0
  -25.0093  -33.9751   25.0478 H   0  0  0  0  0  0
  -22.6939  -31.3113   21.4128 H   0  0  0  0  0  0
  -23.3764  -35.9626   23.3295 H   0  0  0  0  0  0
  -24.3584  -36.8921   22.2050 H   0  0  0  0  0  0
  -23.7215  -37.6490   23.6656 H   0  0  0  0  0  0
  -26.0574  -31.5906   20.6044 H   0  0  0  0  0  0
  -26.8251  -30.8706   21.9910 H   0  0  0  0  0  0
  -28.1049  -29.0521   21.1740 H   0  0  0  0  0  0
  -25.9815  -25.9709   18.9968 H   0  0  0  0  0  0
  -23.9611  -27.3169   19.0236 H   0  0  0  0  0  0
  -23.7311  -30.6128   19.4078 H   0  0  0  0  0  0
  -22.7384  -29.2602   19.8638 H   0  0  0  0  0  0
  -25.1277  -36.1968   25.0821 H   0  0  0  0  0  0
  -20.9948  -28.3243   24.1425 H   0  0  0  0  0  0
  -20.5681  -26.2266   23.3591 H   0  0  0  0  0  0
  -21.6641  -26.7466   22.1199 H   0  0  0  0  0  0
  -19.6936  -25.6299   21.1229 H   0  0  0  0  0  0
  -19.6698  -27.3191   20.6725 H   0  0  0  0  0  0
  -17.4196  -26.6658   21.4014 H   0  0  0  0  0  0
  -18.0345  -26.0038   22.8985 H   0  0  0  0  0  0
  -19.7933  -30.7208   24.2329 H   0  0  0  0  0  0
  -17.5038  -31.6281   24.5139 H   0  0  0  0  0  0
  -15.5367  -30.3013   23.7635 H   0  0  0  0  0  0
  -15.8654  -28.0819   22.7108 H   0  0  0  0  0  0
  -24.5914  -30.7050   25.7810 H   0  0  0  0  0  0
  -24.8911  -32.2871   26.4908 H   0  0  0  0  0  0
  -25.8079  -30.8898   27.0233 H   0  0  0  0  0  0
  -26.2833  -29.6816   24.1144 H   0  0  0  0  0  0
  -27.4056  -29.7262   25.4551 H   0  0  0  0  0  0
  -27.8695  -30.4339   23.9248 H   0  0  0  0  0  0
  -27.2678  -33.3636   26.2064 H   0  0  0  0  0  0
  -28.3895  -32.6864   25.0335 H   0  0  0  0  0  0
  -28.0695  -31.8435   26.5422 H   0  0  0  0  0  0
  -28.2598  -38.0122   24.7555 H   0  0  0  0  0  0
  -28.1086  -36.2653   24.6244 H   0  0  0  0  0  0
  -27.2309  -37.1417   25.8869 H   0  0  0  0  0  0
  -20.9326  -29.8775   21.6954 H   0  0  0  0  0  0
  -26.0189  -38.2862   24.1447 H   0  0  0  0  0  0
  -28.9488  -17.9871   20.7930 H   0  0  0  0  0  0
  -32.4459  -20.3386   21.8692 H   0  0  0  0  0  0
  -32.6298  -16.1029   22.0280 H   0  0  0  0  0  0
  -26.9812  -22.1580   20.3890 H   0  0  0  0  0  0
  -28.2611  -22.2849   19.1965 H   0  0  0  0  0  0
  -28.4477  -19.9808   19.5408 H   0  0  0  0  0  0
  -27.7842  -20.0697   21.1778 H   0  0  0  0  0  0
  -28.0417  -22.0333   23.0423 H   0  0  0  0  0  0
  -27.2637  -23.4983   22.4897 H   0  0  0  0  0  0
  -28.8430  -23.5777   23.2558 H   0  0  0  0  0  0
  -30.0533  -24.1786   19.8494 H   0  0  0  0  0  0
  -29.8108  -24.8151   21.4431 H   0  0  0  0  0  0
  -27.2497  -24.9324   20.7198 H   0  0  0  0  0  0
  -27.9077  -24.8523   19.1029 H   0  0  0  0  0  0
  -29.1454  -15.4509   21.3705 H   0  0  0  0  0  0
  1 25  1  0  0  0
  1 30  2  0  0  0
  1 85  1  0  0  0
  2  3  1  0  0  0
  2 25  1  0  0  0
  2 88  1  0  0  0
  2 89  1  0  0  0
  3  4  1  0  0  0
  3 90  1  0  0  0
  3 91  1  0  0  0
  4  5  1  0  0  0
  4 92  1  0  0  0
  4 93  1  0  0  0
  5  6  1  0  0  0
  5 26  1  0  0  0
  5 94  1  0  0  0
  6 25  1  0  0  0
  6 95  1  0  0  0
  6 96  1  0  0  0
  7  8  2  0  0  0
  7 26  1  0  0  0
  7 29  1  0  0  0
  8  9  1  0  0  0
  8 22  1  0  0  0
  9 10  1  0  0  0
  9 27  2  0  0  0
 10 11  2  0  0  0
 10 15  1  0  0  0
 11 12  1  0  0  0
 11 97  1  0  0  0
 12 13  2  0  0  0
 12 98  1  0  0  0
 13 14  1  0  0  0
 13 31  1  0  0  0
 14 15  2  0  0  0
 14 99  1  0  0  0
 15100  1  0  0  0
 16 17  2  0  0  0
 16 21  1  0  0  0
 16 31  1  0  0  0
 17 18  1  0  0  0
 17101  1  0  0  0
 18 19  2  0  0  0
 18102  1  0  0  0
 19 20  1  0  0  0
 19 24  1  0  0  0
 20 21  2  0  0  0
 20103  1  0  0  0
 21 23  1  0  0  0
 22 28  1  0  0  0
 22 32  2  0  0  0
 26 27  1  0  0  0
 28104  1  0  0  0
 28105  1  0  0  0
 29106  1  0  0  0
 29107  1  0  0  0
 33 34  1  0  0  0
 33 66  1  0  0  0
 33 70  2  0  0  0
 34 36  1  0  0  0
 34 59  1  0  0  0
 34108  1  0  0  0
 35 44  2  0  0  0
 35 45  1  0  0  0
 35 68  1  0  0  0
 36 56  1  0  0  0
 36109  1  0  0  0
 37 39  1  0  0  0
 37 47  1  0  0  0
 37 66  1  0  0  0
 37110  1  0  0  0
 38 43  2  0  0  0
 38 46  1  0  0  0
 38 47  1  0  0  0
 39 64  1  0  0  0
 39 67  2  0  0  0
 40 52  1  0  0  0
 40 53  2  0  0  0
 40 58  1  0  0  0
 41111  1  0  0  0
 41112  1  0  0  0
 41113  1  0  0  0
 41 48  1  0  0  0
 42 43  1  0  0  0
 42 66  1  0  0  0
 42114  1  0  0  0
 42115  1  0  0  0
 43 44  1  0  0  0
 44116  1  0  0  0
 45 46  2  0  0  0
 45117  1  0  0  0
 46118  1  0  0  0
 47119  1  0  0  0
 47120  1  0  0  0
 48 56  1  0  0  0
 48 65  1  0  0  0
 48121  1  0  0  0
 49 50  1  0  0  0
 49 53  1  0  0  0
 49 64  1  0  0  0
 49122  1  0  0  0
 50 51  1  0  0  0
 50123  1  0  0  0
 50124  1  0  0  0
 51 52  1  0  0  0
 51125  1  0  0  0
 51126  1  0  0  0
 52127  1  0  0  0
 52128  1  0  0  0
 53 54  1  0  0  0
 54 55  2  0  0  0
 54129  1  0  0  0
 55 57  1  0  0  0
 55130  1  0  0  0
 56 69  2  0  0  0
 57 58  2  0  0  0
 57131  1  0  0  0
 58132  1  0  0  0
 59 60  1  0  0  0
 59 61  1  0  0  0
 59 62  1  0  0  0
 60133  1  0  0  0
 60134  1  0  0  0
 60135  1  0  0  0
 61136  1  0  0  0
 61137  1  0  0  0
 61138  1  0  0  0
 62139  1  0  0  0
 62140  1  0  0  0
 62141  1  0  0  0
 63 65  1  0  0  0
 63142  1  0  0  0
 63143  1  0  0  0
 63144  1  0  0  0
 64145  1  0  0  0
 65146  1  0  0  0
 68 83  1  0  0  0
 71 74  2  0  0  0
 71 75  1  0  0  0
 71147  1  0  0  0
 72 74  1  0  0  0
 72 76  2  0  0  0
 72148  1  0  0  0
 73 75  2  0  0  0
 73 76  1  0  0  0
 73149  1  0  0  0
 74 84  1  0  0  0
 75 85  1  0  0  0
 76 87  1  0  0  0
 77 80  1  0  0  0
 77 84  1  0  0  0
 77 86  2  0  0  0
 78 79  1  0  0  0
 78 80  1  0  0  0
 78150  1  0  0  0
 78151  1  0  0  0
 79 84  1  0  0  0
 79152  1  0  0  0
 79153  1  0  0  0
 80 81  1  0  0  0
 80 82  1  0  0  0
 81154  1  0  0  0
 81155  1  0  0  0
 81156  1  0  0  0
 82 83  1  0  0  0
 82157  1  0  0  0
 82158  1  0  0  0
 83159  1  0  0  0
 83160  1  0  0  0
 85161  1  0  0  0
M  ISO  4   1 100  68 101  83 101  85 100
M  END
> <chiral flag>
0

> <version>
0

> <s_m_source_file>
/data/baiqing/PycharmProjects/Reinvent-master-3.2/result/LINK_invent/BTK/process_docking_weight1_custom_product_contain_oxygen_bond_distance_aromatic_linkinvent_7_9_3/rearranged_h_0074.sdf

> <i_m_source_file_index>
92

> <r_mmod_Potential_Energy-OPLS-2005>
116.647514343262

> <r_mmod_Stretch_Energy-OPLS-2005>
55.0475120544434

> <r_mmod_Bend_Energy-OPLS-2005>
133.422576904297

> <r_mmod_Torsional_Energy-OPLS-2005>
278.863616943359

> <r_mmod_Improper_Torsional_Energy-OPLS-2005>
3.21252346038818

> <r_mmod_Van_der_Waal_Energy-OPLS-2005>
166.466247558594

> <r_mmod_Electrostatic_Energy-OPLS-2005>
-322.032745361328

> <r_mmod_Solvation_Energy-OPLS-2005>
-219.73503112793

> <b_mmod_Minimization_Converged-OPLS-2005>
0

> <r_mmod_RMS_Derivative-OPLS-2005>
2.15457129478455

$$$$
94
                    3D
 Structure written by MMmdl.
157165  0  0  1  0            999 V2000
  -30.7317  -14.4131   20.5285 C   0  0  0  0  0  0
  -30.4002  -12.2481   19.4252 C   0  0  0  0  0  0
  -29.4853  -12.4538   18.2020 C   0  0  0  0  0  0
  -28.0077  -12.3300   18.6222 C   0  0  0  0  0  0
  -27.6570  -13.1957   19.8640 C   0  0  2  0  0  0
  -28.6993  -12.9929   20.9882 C   0  0  0  0  0  0
  -25.2580  -13.8147   20.5630 C   0  0  0  0  0  0
  -24.1855  -13.0457   20.9161 C   0  0  0  0  0  0
  -24.6371  -11.6903   20.8753 C   0  0  0  0  0  0
  -23.9016  -10.4312   21.0393 C   0  0  0  0  0  0
  -24.3595   -9.4225   21.9156 C   0  0  0  0  0  0
  -23.6299   -8.2243   22.0721 C   0  0  0  0  0  0
  -22.4272   -8.0267   21.3524 C   0  0  0  0  0  0
  -21.9898   -9.0229   20.4619 C   0  0  0  0  0  0
  -22.7193  -10.2131   20.3030 C   0  0  0  0  0  0
  -21.6852   -6.0727   22.5285 C   0  0  0  0  0  0
  -21.4013   -6.5630   23.8208 C   0  0  0  0  0  0
  -21.3675   -5.6769   24.9186 C   0  0  0  0  0  0
  -21.6056   -4.3042   24.7230 C   0  0  0  0  0  0
  -21.8834   -3.8123   23.4346 C   0  0  0  0  0  0
  -21.9189   -4.6949   22.3400 C   0  0  0  0  0  0
  -22.7878  -13.5245   21.1841 C   0  0  0  0  0  0
  -22.1646   -4.2117   21.0979 F   0  0  0  0  0  0
  -21.5637   -3.4526   25.7744 F   0  0  0  0  0  0
  -30.0314  -13.2572   20.4249 N   0  0  0  0  0  0
  -26.2981  -12.9290   20.3308 N   0  0  0  0  0  0
  -25.9286  -11.6469   20.5810 N   0  0  0  0  0  0
  -22.0498  -12.8268   22.0418 N   0  0  0  0  0  0
  -25.4346  -15.1877   20.3968 N   0  0  0  0  0  0
  -31.8639  -14.5468   20.0586 O   0  0  0  0  0  0
  -21.6646   -6.8858   21.4234 O   0  0  0  0  0  0
  -22.3593  -14.5548   20.6658 O   0  0  0  0  0  0
  -24.6253  -31.8698   23.2210 C   0  0  0  0  0  0
  -25.9096  -32.4840   23.8558 C   0  0  1  0  0  0
  -27.1938  -27.4188   20.0421 C   0  0  0  0  0  0
  -25.5952  -33.8656   24.2476 N   0  0  0  0  0  0
  -23.4179  -30.5086   21.5610 C   0  0  2  0  0  0
  -24.8370  -28.9824   20.1170 C   0  0  0  0  0  0
  -22.7503  -29.4703   22.4948 C   0  0  0  0  0  0
  -18.0282  -28.1405   22.8481 C   0  0  0  0  0  0
  -24.1453  -36.7343   23.2644 C   0  0  0  0  0  0
  -25.9560  -30.8278   21.3757 C   0  0  0  0  0  0
  -26.0136  -29.4705   20.6989 C   0  0  0  0  0  0
  -27.1994  -28.7007   20.6435 C   0  0  0  0  0  0
  -25.9747  -26.9340   19.5068 C   0  0  0  0  0  0
  -24.8105  -27.7133   19.5259 C   0  0  0  0  0  0
  -23.6239  -29.8771   20.1645 C   0  0  0  0  0  0
  -25.4060  -36.3173   24.0395 C   0  0  1  0  0  0
  -20.5898  -28.3731   23.1255 C   0  0  2  0  0  0
  -20.6777  -26.9456   22.5374 C   0  0  0  0  0  0
  -19.5731  -26.6403   21.5204 C   0  0  0  0  0  0
  -18.1927  -26.7934   22.1642 C   0  0  0  0  0  0
  -19.1531  -28.8877   23.2877 C   0  0  0  0  0  0
  -18.9453  -30.1465   23.8915 C   0  0  0  0  0  0
  -17.6446  -30.6592   24.0586 C   0  0  0  0  0  0
  -25.9002  -34.9508   23.5217 C   0  0  0  0  0  0
  -16.5339  -29.9099   23.6320 C   0  0  0  0  0  0
  -16.7273  -28.6524   23.0330 C   0  0  0  0  0  0
  -26.4473  -31.6629   25.0909 C   0  0  0  0  0  0
  -25.3785  -31.3744   26.1717 C   0  0  0  0  0  0
  -27.0241  -30.3066   24.6268 C   0  0  0  0  0  0
  -27.6070  -32.4355   25.7612 C   0  0  0  0  0  0
  -27.5584  -37.1821   24.8460 C   0  0  0  0  0  0
  -21.4213  -29.3110   22.3682 N   0  0  0  0  0  0
  -26.4261  -37.3849   23.9451 N   0  0  0  0  0  0
  -24.6882  -31.0796   22.1122 N   0  0  0  0  0  0
  -23.4246  -28.8180   23.2956 O   0  0  0  0  0  0
  -28.3802  -26.7134   19.9782 O   0  0  0  0  0  0
  -26.5517  -34.8938   22.4748 O   0  0  0  0  0  0
  -23.5422  -32.1424   23.7583 O   0  0  0  0  0  0
  -32.1346  -18.5610   21.3843 C   0  0  0  0  0  0
  -31.7934  -17.2127   21.2145 C   0  0  0  0  0  0
  -29.4391  -17.8146   21.1955 C   0  0  0  0  0  0
  -31.1421  -19.5507   21.4912 C   0  0  0  0  0  0
  -30.4382  -16.8183   21.1278 C   0  0  0  0  0  0
  -29.7788  -19.1729   21.3778 C   0  0  0  0  0  0
  -30.4141  -23.1096   21.8742 C   0  0  0  0  0  0
  -31.6141  -20.9556   21.8255 C   0  0  0  0  0  0
  -30.0487  -24.3004   21.0101 C   0  0  0  0  0  0
  -28.5555  -24.3863   20.6744 C   0  0  0  0  0  0
  -28.3800  -25.3579   19.5027 C   0  0  0  0  0  0
  -30.0329  -15.4555   21.0159 N   0  0  0  0  0  0
  -30.8799  -22.0470   21.2131 N   0  0  0  0  0  0
  -30.3494  -23.1817   23.1033 O   0  0  0  0  0  0
  -28.7889  -20.0959   21.4595 F   0  0  0  0  0  0
  -31.4508  -12.2981   19.1416 H   0  0  0  0  0  0
  -30.2548  -11.2495   19.8409 H   0  0  0  0  0  0
  -29.7206  -11.7064   17.4415 H   0  0  0  0  0  0
  -29.6654  -13.4301   17.7505 H   0  0  0  0  0  0
  -27.8335  -11.2770   18.8508 H   0  0  0  0  0  0
  -27.3458  -12.5664   17.7855 H   0  0  0  0  0  0
  -27.6970  -14.2369   19.5425 H   0  0  0  0  0  0
  -28.6663  -11.9668   21.3560 H   0  0  0  0  0  0
  -28.4727  -13.6227   21.8497 H   0  0  0  0  0  0
  -25.2737   -9.5730   22.4749 H   0  0  0  0  0  0
  -24.0006   -7.4655   22.7479 H   0  0  0  0  0  0
  -21.0783   -8.8739   19.8977 H   0  0  0  0  0  0
  -22.3594  -10.9665   19.6163 H   0  0  0  0  0  0
  -21.1996   -7.6129   23.9716 H   0  0  0  0  0  0
  -21.1488   -6.0495   25.9088 H   0  0  0  0  0  0
  -22.0595   -2.7577   23.2853 H   0  0  0  0  0  0
  -22.4050  -11.9908   22.4850 H   0  0  0  0  0  0
  -21.1133  -13.1357   22.2620 H   0  0  0  0  0  0
  -24.6684  -15.8450   20.4894 H   0  0  0  0  0  0
  -26.2779  -15.6133   20.0375 H   0  0  0  0  0  0
  -26.7202  -32.5513   23.1359 H   0  0  0  0  0  0
  -25.0251  -33.9823   25.0731 H   0  0  0  0  0  0
  -22.7168  -31.3355   21.4380 H   0  0  0  0  0  0
  -23.3753  -35.9627   23.3254 H   0  0  0  0  0  0
  -24.3617  -36.8972   22.2074 H   0  0  0  0  0  0
  -23.7102  -37.6521   23.6626 H   0  0  0  0  0  0
  -26.0925  -31.6024   20.6209 H   0  0  0  0  0  0
  -26.8431  -30.8610   21.9988 H   0  0  0  0  0  0
  -28.1265  -29.0839   21.0442 H   0  0  0  0  0  0
  -25.8511  -25.9678   19.0481 H   0  0  0  0  0  0
  -23.8978  -27.3284   19.0909 H   0  0  0  0  0  0
  -23.7841  -30.6793   19.4413 H   0  0  0  0  0  0
  -22.7331  -29.3432   19.8336 H   0  0  0  0  0  0
  -25.1176  -36.2121   25.0884 H   0  0  0  0  0  0
  -21.0000  -28.3277   24.1367 H   0  0  0  0  0  0
  -20.5706  -26.2346   23.3577 H   0  0  0  0  0  0
  -21.6634  -26.7488   22.1149 H   0  0  0  0  0  0
  -19.6895  -25.6320   21.1222 H   0  0  0  0  0  0
  -19.6638  -27.3216   20.6741 H   0  0  0  0  0  0
  -17.4190  -26.6678   21.4061 H   0  0  0  0  0  0
  -18.0341  -26.0088   22.9052 H   0  0  0  0  0  0
  -19.7931  -30.7271   24.2310 H   0  0  0  0  0  0
  -17.5002  -31.6252   24.5206 H   0  0  0  0  0  0
  -15.5350  -30.3006   23.7619 H   0  0  0  0  0  0
  -15.8680  -28.0858   22.7007 H   0  0  0  0  0  0
  -24.5980  -30.6984   25.8209 H   0  0  0  0  0  0
  -24.8925  -32.2854   26.5223 H   0  0  0  0  0  0
  -25.8236  -30.9016   27.0479 H   0  0  0  0  0  0
  -26.2759  -29.6914   24.1248 H   0  0  0  0  0  0
  -27.3904  -29.7242   25.4732 H   0  0  0  0  0  0
  -27.8669  -30.4401   23.9483 H   0  0  0  0  0  0
  -27.2733  -33.3697   26.2146 H   0  0  0  0  0  0
  -28.3864  -32.6835   25.0401 H   0  0  0  0  0  0
  -28.0730  -31.8514   26.5553 H   0  0  0  0  0  0
  -28.2559  -38.0172   24.7601 H   0  0  0  0  0  0
  -28.1127  -36.2713   24.6128 H   0  0  0  0  0  0
  -27.2361  -37.1297   25.8882 H   0  0  0  0  0  0
  -20.9384  -29.8990   21.7032 H   0  0  0  0  0  0
  -26.0189  -38.2934   24.1511 H   0  0  0  0  0  0
  -33.1773  -18.8303   21.4775 H   0  0  0  0  0  0
  -32.6049  -16.5020   21.1826 H   0  0  0  0  0  0
  -28.3955  -17.5387   21.1193 H   0  0  0  0  0  0
  -32.6518  -21.0671   21.5020 H   0  0  0  0  0  0
  -31.6277  -21.0355   22.9116 H   0  0  0  0  0  0
  -30.6258  -24.2214   20.0871 H   0  0  0  0  0  0
  -30.3759  -25.2207   21.4902 H   0  0  0  0  0  0
  -27.9662  -24.6959   21.5437 H   0  0  0  0  0  0
  -28.1893  -23.3975   20.3890 H   0  0  0  0  0  0
  -27.5686  -25.0455   18.8545 H   0  0  0  0  0  0
  -29.2321  -25.2458   18.8367 H   0  0  0  0  0  0
  -29.0753  -15.2419   21.2381 H   0  0  0  0  0  0
  -30.8780  -22.0873   20.2022 H   0  0  0  0  0  0
  1 25  1  0  0  0
  1 30  2  0  0  0
  1 82  1  0  0  0
  2  3  1  0  0  0
  2 25  1  0  0  0
  2 86  1  0  0  0
  2 87  1  0  0  0
  3  4  1  0  0  0
  3 88  1  0  0  0
  3 89  1  0  0  0
  4  5  1  0  0  0
  4 90  1  0  0  0
  4 91  1  0  0  0
  5  6  1  0  0  0
  5 26  1  0  0  0
  5 92  1  0  0  0
  6 25  1  0  0  0
  6 93  1  0  0  0
  6 94  1  0  0  0
  7  8  2  0  0  0
  7 26  1  0  0  0
  7 29  1  0  0  0
  8  9  1  0  0  0
  8 22  1  0  0  0
  9 10  1  0  0  0
  9 27  2  0  0  0
 10 11  2  0  0  0
 10 15  1  0  0  0
 11 12  1  0  0  0
 11 95  1  0  0  0
 12 13  2  0  0  0
 12 96  1  0  0  0
 13 14  1  0  0  0
 13 31  1  0  0  0
 14 15  2  0  0  0
 14 97  1  0  0  0
 15 98  1  0  0  0
 16 17  2  0  0  0
 16 21  1  0  0  0
 16 31  1  0  0  0
 17 18  1  0  0  0
 17 99  1  0  0  0
 18 19  2  0  0  0
 18100  1  0  0  0
 19 20  1  0  0  0
 19 24  1  0  0  0
 20 21  2  0  0  0
 20101  1  0  0  0
 21 23  1  0  0  0
 22 28  1  0  0  0
 22 32  2  0  0  0
 26 27  1  0  0  0
 28102  1  0  0  0
 28103  1  0  0  0
 29104  1  0  0  0
 29105  1  0  0  0
 33 34  1  0  0  0
 33 66  1  0  0  0
 33 70  2  0  0  0
 34 36  1  0  0  0
 34 59  1  0  0  0
 34106  1  0  0  0
 35 44  2  0  0  0
 35 45  1  0  0  0
 35 68  1  0  0  0
 36 56  1  0  0  0
 36107  1  0  0  0
 37 39  1  0  0  0
 37 47  1  0  0  0
 37 66  1  0  0  0
 37108  1  0  0  0
 38 43  2  0  0  0
 38 46  1  0  0  0
 38 47  1  0  0  0
 39 64  1  0  0  0
 39 67  2  0  0  0
 40 52  1  0  0  0
 40 53  2  0  0  0
 40 58  1  0  0  0
 41109  1  0  0  0
 41110  1  0  0  0
 41111  1  0  0  0
 41 48  1  0  0  0
 42 43  1  0  0  0
 42 66  1  0  0  0
 42112  1  0  0  0
 42113  1  0  0  0
 43 44  1  0  0  0
 44114  1  0  0  0
 45 46  2  0  0  0
 45115  1  0  0  0
 46116  1  0  0  0
 47117  1  0  0  0
 47118  1  0  0  0
 48 56  1  0  0  0
 48 65  1  0  0  0
 48119  1  0  0  0
 49 50  1  0  0  0
 49 53  1  0  0  0
 49 64  1  0  0  0
 49120  1  0  0  0
 50 51  1  0  0  0
 50121  1  0  0  0
 50122  1  0  0  0
 51 52  1  0  0  0
 51123  1  0  0  0
 51124  1  0  0  0
 52125  1  0  0  0
 52126  1  0  0  0
 53 54  1  0  0  0
 54 55  2  0  0  0
 54127  1  0  0  0
 55 57  1  0  0  0
 55128  1  0  0  0
 56 69  2  0  0  0
 57 58  2  0  0  0
 57129  1  0  0  0
 58130  1  0  0  0
 59 60  1  0  0  0
 59 61  1  0  0  0
 59 62  1  0  0  0
 60131  1  0  0  0
 60132  1  0  0  0
 60133  1  0  0  0
 61134  1  0  0  0
 61135  1  0  0  0
 61136  1  0  0  0
 62137  1  0  0  0
 62138  1  0  0  0
 62139  1  0  0  0
 63 65  1  0  0  0
 63140  1  0  0  0
 63141  1  0  0  0
 63142  1  0  0  0
 64143  1  0  0  0
 65144  1  0  0  0
 68 81  1  0  0  0
 71 72  2  0  0  0
 71 74  1  0  0  0
 71145  1  0  0  0
 72 75  1  0  0  0
 72146  1  0  0  0
 73 75  2  0  0  0
 73 76  1  0  0  0
 73147  1  0  0  0
 74 76  2  0  0  0
 74 78  1  0  0  0
 75 82  1  0  0  0
 76 85  1  0  0  0
 77 79  1  0  0  0
 77 83  1  0  0  0
 77 84  2  0  0  0
 78 83  1  0  0  0
 78148  1  0  0  0
 78149  1  0  0  0
 79 80  1  0  0  0
 79150  1  0  0  0
 79151  1  0  0  0
 80 81  1  0  0  0
 80152  1  0  0  0
 80153  1  0  0  0
 81154  1  0  0  0
 81155  1  0  0  0
 82156  1  0  0  0
 83157  1  0  0  0
M  ISO  4   1 100  68 101  81 101  82 100
M  END
> <chiral flag>
0

> <version>
0

> <s_m_source_file>
/data/baiqing/PycharmProjects/Reinvent-master-3.2/result/LINK_invent/BTK/process_docking_weight1_custom_product_contain_oxygen_bond_distance_aromatic_linkinvent_7_9_3/rearranged_h_0074.sdf

> <i_m_source_file_index>
93

> <r_mmod_Potential_Energy-OPLS-2005>
-110.334518432617

> <r_mmod_Stretch_Energy-OPLS-2005>
33.7805099487305

> <r_mmod_Bend_Energy-OPLS-2005>
110.465202331543

> <r_mmod_Torsional_Energy-OPLS-2005>
213.860260009766

> <r_mmod_Improper_Torsional_Energy-OPLS-2005>
5.2496976852417

> <r_mmod_Van_der_Waal_Energy-OPLS-2005>
173.913970947266

> <r_mmod_Electrostatic_Energy-OPLS-2005>
-430.958801269531

> <r_mmod_Solvation_Energy-OPLS-2005>
-235.959762573242

> <b_mmod_Minimization_Converged-OPLS-2005>
0

> <r_mmod_RMS_Derivative-OPLS-2005>
6.31949710845947

$$$$
95
                    3D
 Structure written by MMmdl.
156164  0  0  1  0            999 V2000
  -30.6769  -14.5232   20.5356 C   0  0  0  0  0  0
  -30.4286  -12.3254   19.4351 C   0  0  0  0  0  0
  -29.5006  -12.4995   18.2137 C   0  0  0  0  0  0
  -28.0206  -12.3593   18.6247 C   0  0  0  0  0  0
  -27.6604  -13.2087   19.8732 C   0  0  2  0  0  0
  -28.7040  -13.0115   20.9968 C   0  0  0  0  0  0
  -25.2587  -13.8162   20.5690 C   0  0  0  0  0  0
  -24.1832  -13.0435   20.9152 C   0  0  0  0  0  0
  -24.6389  -11.6903   20.8718 C   0  0  0  0  0  0
  -23.9052  -10.4293   21.0392 C   0  0  0  0  0  0
  -24.3609   -9.4214   21.9176 C   0  0  0  0  0  0
  -23.6286   -8.2250   22.0750 C   0  0  0  0  0  0
  -22.4271   -8.0283   21.3538 C   0  0  0  0  0  0
  -21.9894   -9.0255   20.4645 C   0  0  0  0  0  0
  -22.7217  -10.2137   20.3052 C   0  0  0  0  0  0
  -21.6858   -6.0733   22.5277 C   0  0  0  0  0  0
  -21.4021   -6.5639   23.8210 C   0  0  0  0  0  0
  -21.3655   -5.6789   24.9171 C   0  0  0  0  0  0
  -21.6042   -4.3050   24.7221 C   0  0  0  0  0  0
  -21.8822   -3.8141   23.4341 C   0  0  0  0  0  0
  -21.9196   -4.6961   22.3399 C   0  0  0  0  0  0
  -22.7857  -13.5241   21.1824 C   0  0  0  0  0  0
  -22.1659   -4.2146   21.0975 F   0  0  0  0  0  0
  -21.5626   -3.4536   25.7732 F   0  0  0  0  0  0
  -30.0323  -13.3238   20.4428 N   0  0  0  0  0  0
  -26.3021  -12.9334   20.3365 N   0  0  0  0  0  0
  -25.9322  -11.6491   20.5771 N   0  0  0  0  0  0
  -22.0496  -12.8248   22.0392 N   0  0  0  0  0  0
  -25.4317  -15.1885   20.4182 N   0  0  0  0  0  0
  -31.8182  -14.6870   20.0975 O   0  0  0  0  0  0
  -21.6640   -6.8875   21.4238 O   0  0  0  0  0  0
  -22.3541  -14.5547   20.6675 O   0  0  0  0  0  0
  -24.6162  -31.8654   23.2081 C   0  0  0  0  0  0
  -25.9044  -32.4807   23.8392 C   0  0  1  0  0  0
  -27.2349  -27.4112   20.1058 C   0  0  0  0  0  0
  -25.5891  -33.8606   24.2322 N   0  0  0  0  0  0
  -23.4078  -30.4879   21.5469 C   0  0  2  0  0  0
  -24.8597  -28.9532   20.1101 C   0  0  0  0  0  0
  -22.7425  -29.4641   22.4954 C   0  0  0  0  0  0
  -18.0280  -28.1382   22.8488 C   0  0  0  0  0  0
  -24.1488  -36.7316   23.2645 C   0  0  0  0  0  0
  -25.9391  -30.8251   21.3663 C   0  0  0  0  0  0
  -26.0201  -29.4578   20.7123 C   0  0  0  0  0  0
  -27.2139  -28.6935   20.7100 C   0  0  0  0  0  0
  -26.0625  -26.9288   19.4923 C   0  0  0  0  0  0
  -24.8763  -27.6884   19.4957 C   0  0  0  0  0  0
  -23.6205  -29.8209   20.1612 C   0  0  0  0  0  0
  -25.4109  -36.3101   24.0337 C   0  0  1  0  0  0
  -20.5872  -28.3675   23.1302 C   0  0  2  0  0  0
  -20.6765  -26.9405   22.5415 C   0  0  0  0  0  0
  -19.5746  -26.6381   21.5211 C   0  0  0  0  0  0
  -18.1925  -26.7925   22.1624 C   0  0  0  0  0  0
  -19.1529  -28.8846   23.2891 C   0  0  0  0  0  0
  -18.9456  -30.1446   23.8906 C   0  0  0  0  0  0
  -17.6458  -30.6586   24.0567 C   0  0  0  0  0  0
  -25.9032  -34.9462   23.5130 C   0  0  0  0  0  0
  -16.5349  -29.9089   23.6328 C   0  0  0  0  0  0
  -16.7267  -28.6508   23.0348 C   0  0  0  0  0  0
  -26.4468  -31.6594   25.0726 C   0  0  0  0  0  0
  -25.3735  -31.3721   26.1482 C   0  0  0  0  0  0
  -27.0305  -30.3031   24.6119 C   0  0  0  0  0  0
  -27.6047  -32.4318   25.7474 C   0  0  0  0  0  0
  -27.5571  -37.1823   24.8472 C   0  0  0  0  0  0
  -21.4149  -29.3035   22.3698 N   0  0  0  0  0  0
  -26.4302  -37.3774   23.9388 N   0  0  0  0  0  0
  -24.6723  -31.0739   22.0987 N   0  0  0  0  0  0
  -23.4184  -28.8183   23.3009 O   0  0  0  0  0  0
  -28.3375  -26.5801   20.1410 O   0  0  0  0  0  0
  -26.5594  -34.8913   22.4692 O   0  0  0  0  0  0
  -23.5346  -32.1412   23.7457 O   0  0  0  0  0  0
  -31.0470  -19.0180   19.8818 C   0  0  0  0  0  0
  -31.1130  -17.6328   20.1800 C   0  0  0  0  0  0
  -28.7904  -19.1164   20.7579 C   0  0  0  0  0  0
  -29.8798  -19.7793   20.1462 C   0  0  0  0  0  0
  -30.0010  -16.9572   20.7445 C   0  0  0  0  0  0
  -28.8525  -17.7290   21.0441 C   0  0  0  0  0  0
  -28.3896  -25.7582   21.2517 C   0  0  0  0  0  0
  -29.7862  -21.1967   19.6987 C   0  0  0  0  0  0
  -28.7277  -24.4391   21.3436 C   0  0  0  0  0  0
  -29.1356  -23.6133   20.1921 C   0  0  0  0  0  0
  -28.6856  -23.7736   22.7160 C   0  0  0  0  0  0
  -29.9332  -15.5434   21.0200 N   0  0  0  0  0  0
  -29.3297  -22.1979   20.5008 N   0  0  0  0  0  0
  -30.1759  -21.4449   18.4437 N   0  3  0  0  0  0
  -29.3253  -24.0316   19.0433 O   0  0  0  0  0  0
  -27.7738  -17.1132   21.5853 F   0  0  0  0  0  0
  -31.4722  -12.4279   19.1330 H   0  0  0  0  0  0
  -30.3381  -11.3189   19.8472 H   0  0  0  0  0  0
  -29.7445  -11.7609   17.4484 H   0  0  0  0  0  0
  -29.6672  -13.4773   17.7596 H   0  0  0  0  0  0
  -27.8333  -11.3046   18.8290 H   0  0  0  0  0  0
  -27.3721  -12.6244   17.7888 H   0  0  0  0  0  0
  -27.6958  -14.2529   19.5625 H   0  0  0  0  0  0
  -28.6878  -11.9796   21.3512 H   0  0  0  0  0  0
  -28.4623  -13.6226   21.8676 H   0  0  0  0  0  0
  -25.2761   -9.5694   22.4738 H   0  0  0  0  0  0
  -23.9997   -7.4648   22.7473 H   0  0  0  0  0  0
  -21.0820   -8.8777   19.8956 H   0  0  0  0  0  0
  -22.3674  -10.9678   19.6162 H   0  0  0  0  0  0
  -21.2019   -7.6149   23.9714 H   0  0  0  0  0  0
  -21.1469   -6.0517   25.9072 H   0  0  0  0  0  0
  -22.0603   -2.7603   23.2847 H   0  0  0  0  0  0
  -22.4103  -11.9912   22.4790 H   0  0  0  0  0  0
  -21.1118  -13.1293   22.2593 H   0  0  0  0  0  0
  -24.6775  -15.8478   20.5727 H   0  0  0  0  0  0
  -26.3109  -15.6411   20.2039 H   0  0  0  0  0  0
  -26.7113  -32.5517   23.1158 H   0  0  0  0  0  0
  -25.0029  -33.9762   25.0458 H   0  0  0  0  0  0
  -22.6970  -31.3046   21.4055 H   0  0  0  0  0  0
  -23.3710  -35.9695   23.3369 H   0  0  0  0  0  0
  -24.3569  -36.8865   22.2047 H   0  0  0  0  0  0
  -23.7295  -37.6564   23.6615 H   0  0  0  0  0  0
  -26.0554  -31.5912   20.5983 H   0  0  0  0  0  0
  -26.8243  -30.8782   21.9884 H   0  0  0  0  0  0
  -28.1063  -29.0695   21.1909 H   0  0  0  0  0  0
  -26.0653  -25.9505   19.0328 H   0  0  0  0  0  0
  -23.9844  -27.2926   19.0303 H   0  0  0  0  0  0
  -23.7297  -30.5973   19.4026 H   0  0  0  0  0  0
  -22.7448  -29.2421   19.8623 H   0  0  0  0  0  0
  -25.1294  -36.1975   25.0831 H   0  0  0  0  0  0
  -20.9965  -28.3250   24.1423 H   0  0  0  0  0  0
  -20.5662  -26.2287   23.3608 H   0  0  0  0  0  0
  -21.6638  -26.7436   22.1216 H   0  0  0  0  0  0
  -19.6906  -25.6292   21.1237 H   0  0  0  0  0  0
  -19.6686  -27.3197   20.6744 H   0  0  0  0  0  0
  -17.4191  -26.6669   21.4028 H   0  0  0  0  0  0
  -18.0328  -26.0070   22.9023 H   0  0  0  0  0  0
  -19.7931  -30.7259   24.2280 H   0  0  0  0  0  0
  -17.5016  -31.6265   24.5168 H   0  0  0  0  0  0
  -15.5350  -30.3000   23.7643 H   0  0  0  0  0  0
  -15.8667  -28.0831   22.7062 H   0  0  0  0  0  0
  -24.5881  -30.7095   25.7825 H   0  0  0  0  0  0
  -24.8965  -32.2893   26.4951 H   0  0  0  0  0  0
  -25.8087  -30.8865   27.0226 H   0  0  0  0  0  0
  -26.2863  -29.6784   24.1165 H   0  0  0  0  0  0
  -27.4060  -29.7276   25.4590 H   0  0  0  0  0  0
  -27.8704  -30.4345   23.9293 H   0  0  0  0  0  0
  -27.2665  -33.3600   26.2092 H   0  0  0  0  0  0
  -28.3829  -32.6905   25.0280 H   0  0  0  0  0  0
  -28.0747  -31.8423   26.5355 H   0  0  0  0  0  0
  -28.2640  -38.0064   24.7423 H   0  0  0  0  0  0
  -28.1010  -36.2591   24.6413 H   0  0  0  0  0  0
  -27.2274  -37.1619   25.8874 H   0  0  0  0  0  0
  -20.9310  -29.8770   21.6932 H   0  0  0  0  0  0
  -26.0192  -38.2865   24.1329 H   0  0  0  0  0  0
  -31.9056  -19.4920   19.4252 H   0  0  0  0  0  0
  -32.0251  -17.1061   19.9450 H   0  0  0  0  0  0
  -27.8743  -19.6503   20.9658 H   0  0  0  0  0  0
  -28.1020  -26.3085   22.1381 H   0  0  0  0  0  0
  -28.3679  -24.4758   23.4877 H   0  0  0  0  0  0
  -29.6724  -23.4077   23.0028 H   0  0  0  0  0  0
  -27.9778  -22.9434   22.7324 H   0  0  0  0  0  0
  -29.0535  -15.2557   21.4207 H   0  0  0  0  0  0
  -29.1572  -21.8699   21.4370 H   0  0  0  0  0  0
  -30.4561  -20.6910   17.8356 H   0  0  0  0  0  0
  -30.0866  -22.3838   18.0770 H   0  0  0  0  0  0
  1 25  1  0  0  0
  1 30  2  0  0  0
  1 82  1  0  0  0
  2  3  1  0  0  0
  2 25  1  0  0  0
  2 87  1  0  0  0
  2 88  1  0  0  0
  3  4  1  0  0  0
  3 89  1  0  0  0
  3 90  1  0  0  0
  4  5  1  0  0  0
  4 91  1  0  0  0
  4 92  1  0  0  0
  5  6  1  0  0  0
  5 26  1  0  0  0
  5 93  1  0  0  0
  6 25  1  0  0  0
  6 94  1  0  0  0
  6 95  1  0  0  0
  7  8  2  0  0  0
  7 26  1  0  0  0
  7 29  1  0  0  0
  8  9  1  0  0  0
  8 22  1  0  0  0
  9 10  1  0  0  0
  9 27  2  0  0  0
 10 11  2  0  0  0
 10 15  1  0  0  0
 11 12  1  0  0  0
 11 96  1  0  0  0
 12 13  2  0  0  0
 12 97  1  0  0  0
 13 14  1  0  0  0
 13 31  1  0  0  0
 14 15  2  0  0  0
 14 98  1  0  0  0
 15 99  1  0  0  0
 16 17  2  0  0  0
 16 21  1  0  0  0
 16 31  1  0  0  0
 17 18  1  0  0  0
 17100  1  0  0  0
 18 19  2  0  0  0
 18101  1  0  0  0
 19 20  1  0  0  0
 19 24  1  0  0  0
 20 21  2  0  0  0
 20102  1  0  0  0
 21 23  1  0  0  0
 22 28  1  0  0  0
 22 32  2  0  0  0
 26 27  1  0  0  0
 28103  1  0  0  0
 28104  1  0  0  0
 29105  1  0  0  0
 29106  1  0  0  0
 33 34  1  0  0  0
 33 66  1  0  0  0
 33 70  2  0  0  0
 34 36  1  0  0  0
 34 59  1  0  0  0
 34107  1  0  0  0
 35 44  2  0  0  0
 35 45  1  0  0  0
 35 68  1  0  0  0
 36 56  1  0  0  0
 36108  1  0  0  0
 37 39  1  0  0  0
 37 47  1  0  0  0
 37 66  1  0  0  0
 37109  1  0  0  0
 38 43  2  0  0  0
 38 46  1  0  0  0
 38 47  1  0  0  0
 39 64  1  0  0  0
 39 67  2  0  0  0
 40 52  1  0  0  0
 40 53  2  0  0  0
 40 58  1  0  0  0
 41110  1  0  0  0
 41111  1  0  0  0
 41112  1  0  0  0
 41 48  1  0  0  0
 42 43  1  0  0  0
 42 66  1  0  0  0
 42113  1  0  0  0
 42114  1  0  0  0
 43 44  1  0  0  0
 44115  1  0  0  0
 45 46  2  0  0  0
 45116  1  0  0  0
 46117  1  0  0  0
 47118  1  0  0  0
 47119  1  0  0  0
 48 56  1  0  0  0
 48 65  1  0  0  0
 48120  1  0  0  0
 49 50  1  0  0  0
 49 53  1  0  0  0
 49 64  1  0  0  0
 49121  1  0  0  0
 50 51  1  0  0  0
 50122  1  0  0  0
 50123  1  0  0  0
 51 52  1  0  0  0
 51124  1  0  0  0
 51125  1  0  0  0
 52126  1  0  0  0
 52127  1  0  0  0
 53 54  1  0  0  0
 54 55  2  0  0  0
 54128  1  0  0  0
 55 57  1  0  0  0
 55129  1  0  0  0
 56 69  2  0  0  0
 57 58  2  0  0  0
 57130  1  0  0  0
 58131  1  0  0  0
 59 60  1  0  0  0
 59 61  1  0  0  0
 59 62  1  0  0  0
 60132  1  0  0  0
 60133  1  0  0  0
 60134  1  0  0  0
 61135  1  0  0  0
 61136  1  0  0  0
 61137  1  0  0  0
 62138  1  0  0  0
 62139  1  0  0  0
 62140  1  0  0  0
 63 65  1  0  0  0
 63141  1  0  0  0
 63142  1  0  0  0
 63143  1  0  0  0
 64144  1  0  0  0
 65145  1  0  0  0
 68 77  1  0  0  0
 71 72  2  0  0  0
 71 74  1  0  0  0
 71146  1  0  0  0
 72 75  1  0  0  0
 72147  1  0  0  0
 73 74  2  0  0  0
 73 76  1  0  0  0
 73148  1  0  0  0
 74 78  1  0  0  0
 75 76  2  0  0  0
 75 82  1  0  0  0
 76 86  1  0  0  0
 77 79  2  0  0  0
 77149  1  0  0  0
 78 83  1  0  0  0
 78 84  2  0  0  0
 79 80  1  0  0  0
 79 81  1  0  0  0
 80 83  1  0  0  0
 80 85  2  0  0  0
 81150  1  0  0  0
 81151  1  0  0  0
 81152  1  0  0  0
 82153  1  0  0  0
 83154  1  0  0  0
 84155  1  0  0  0
 84156  1  0  0  0
M  CHG  1  84   1
M  ISO  4   1 100  68 101  77 101  82 100
M  END
> <chiral flag>
0

> <version>
0

> <s_m_source_file>
/data/baiqing/PycharmProjects/Reinvent-master-3.2/result/LINK_invent/BTK/process_docking_weight1_custom_product_contain_oxygen_bond_distance_aromatic_linkinvent_7_9_3/rearranged_h_0074.sdf

> <i_m_source_file_index>
94

> <r_mmod_Potential_Energy-OPLS-2005>
-356.526916503906

> <r_mmod_Stretch_Energy-OPLS-2005>
46.9445037841797

> <r_mmod_Bend_Energy-OPLS-2005>
124.624008178711

> <r_mmod_Torsional_Energy-OPLS-2005>
236.300048828125

> <r_mmod_Improper_Torsional_Energy-OPLS-2005>
4.36904621124268

> <r_mmod_Van_der_Waal_Energy-OPLS-2005>
162.366714477539

> <r_mmod_Electrostatic_Energy-OPLS-2005>
-513.61572265625

> <r_mmod_Solvation_Energy-OPLS-2005>
-438.354888916016

> <b_mmod_Minimization_Converged-OPLS-2005>
0

> <r_mmod_RMS_Derivative-OPLS-2005>
1.08956110477448

$$$$
