ligand_isotope
                    3D
 Structure written by MMmdl.
124131  0  0  1  0            999 V2000
  -36.7640   14.7176  -33.3707 N   0  0  0  0  0  0
  -36.1698   14.4118  -31.0451 C   0  0  0  0  0  0
  -35.7006   17.4479  -30.8009 C   0  0  0  0  0  0
  -36.0501   17.6730  -33.2589 C   0  0  0  0  0  0
  -37.9535   16.9679  -31.7841 C   0  0  0  0  0  0
  -35.1452   13.2607  -29.0404 C   0  0  1  0  0  0
  -33.7145   14.5560  -30.4718 C   0  0  0  0  0  0
  -36.2197   13.6949  -28.0244 C   0  0  0  0  0  0
  -37.4263   13.4833  -23.6650 C   0  0  0  0  0  0
  -36.7306   13.4119  -22.4452 C   0  0  0  0  0  0
  -35.4765   12.8049  -22.3631 C   0  0  0  0  0  0
  -35.5712   12.3339  -24.7278 C   0  0  0  0  0  0
  -35.2323   12.2253  -19.8098 C   0  0  0  0  0  0
  -33.1409   12.5317  -19.2862 C   0  0  0  0  0  0
  -35.9970   15.3338  -32.2789 C   0  0  2  0  0  0
  -36.4282   16.8274  -32.0198 C   0  0  0  0  0  0
  -35.1025   14.1174  -30.2502 N   0  0  0  0  0  0
  -37.2996   13.9604  -30.8333 O   0  0  0  0  0  0
  -33.7456   13.3210  -28.4166 C   0  0  0  0  0  0
  -32.8538   13.6371  -29.6047 C   0  0  1  0  0  0
  -32.4628   12.4704  -30.2971 O   0  0  0  0  0  0
  -36.4682   14.8909  -27.8645 O   0  0  0  0  0  0
  -36.7857   12.7069  -27.3221 N   0  0  0  0  0  0
  -37.6110   12.9307  -26.1366 C   0  0  0  0  0  0
  -36.8449   12.9163  -24.8109 C   0  0  0  0  0  0
  -34.8933   12.2842  -23.5174 C   0  0  0  0  0  0
  -34.7765   12.6638  -21.0600 C   0  0  0  0  0  0
  -34.3178   12.1659  -18.8602 N   0  0  0  0  0  0
  -33.0782   13.0404  -20.9327 S   0  0  0  0  0  0
  -36.6186   11.7752  -19.4029 C   0  0  0  0  0  0
  -36.2758   14.1439  -34.4808 C   0  0  0  0  0  0
  -37.3170   13.4993  -35.4161 C   0  0  0  0  0  0
  -35.0741   14.1146  -34.7513 O   0  0  0  0  0  0
  -38.5581   13.4201  -34.9320 F   0  0  0  0  0  0
  -37.1705   13.7574  -36.8994 C   0  0  0  0  0  0
  -36.8567   12.3864  -36.3358 C   0  0  0  0  0  0
  -38.6805   14.0572  -23.8011 O   0  0  0  0  0  0
  -39.2330   14.8657  -22.7599 C   0  0  0  0  0  0
  -38.5262   16.2315  -22.6183 C   0  0  0  0  0  0
  -39.1101   19.7342  -27.2470 C   0  0  0  0  0  0
  -40.1459   19.2420  -28.1593 N   0  0  0  0  0  0
  -39.8775   19.6386  -29.5501 C   0  0  0  0  0  0
  -41.1259   19.6689  -30.4806 C   0  0  0  0  0  0
  -42.2067   18.7686  -30.0648 N   0  0  0  0  0  0
  -42.5072   18.8230  -28.6271 C   0  0  0  0  0  0
  -41.5025   19.6387  -27.7768 C   0  0  0  0  0  0
  -43.0306   18.1220  -30.9745 C   0  0  0  0  0  0
  -44.3403   18.5631  -31.2010 C   0  0  0  0  0  0
  -45.1525   17.8918  -32.1356 C   0  0  0  0  0  0
  -44.6400   16.8263  -32.8130 N   0  0  0  0  0  0
  -43.3941   16.3859  -32.6047 N   0  0  0  0  0  0
  -42.5982   17.0010  -31.6991 C   0  0  0  0  0  0
  -41.3339   16.4392  -31.5194 N   0  0  0  0  0  0
  -46.5895   18.2798  -32.4347 C   0  0  0  0  0  0
  -47.4513   17.5504  -33.3007 C   0  0  0  0  0  0
  -48.7708   17.9518  -33.5176 C   0  0  0  0  0  0
  -49.2759   19.0817  -32.8891 C   0  0  0  0  0  0
  -48.4557   19.8254  -32.0534 C   0  0  0  0  0  0
  -47.1397   19.4277  -31.8298 C   0  0  0  0  0  0
  -47.0654   16.4165  -33.9694 O   0  0  0  0  0  0
  -38.6886   17.1384  -23.8311 C   0  0  0  0  0  0
  -37.9070   16.9321  -24.9694 C   0  0  0  0  0  0
  -38.0437   17.7726  -26.0701 C   0  0  0  0  0  0
  -38.9585   18.8283  -26.0329 C   0  0  0  0  0  0
  -39.7325   19.0422  -24.8899 C   0  0  0  0  0  0
  -39.6047   18.1925  -23.7950 C   0  0  0  0  0  0
  -37.7612   14.6749  -33.2153 H   0  0  0  0  0  0
  -35.9784   16.9602  -29.8665 H   0  0  0  0  0  0
  -34.6201   17.3759  -30.9032 H   0  0  0  0  0  0
  -35.9415   18.5057  -30.6835 H   0  0  0  0  0  0
  -36.5773   17.3430  -34.1543 H   0  0  0  0  0  0
  -36.2852   18.7277  -33.1117 H   0  0  0  0  0  0
  -34.9825   17.6109  -33.4711 H   0  0  0  0  0  0
  -38.5316   16.5186  -32.5882 H   0  0  0  0  0  0
  -38.2694   16.4985  -30.8518 H   0  0  0  0  0  0
  -38.2494   18.0149  -31.7335 H   0  0  0  0  0  0
  -35.3351   12.2276  -29.3363 H   0  0  0  0  0  0
  -33.6068   15.5847  -30.1285 H   0  0  0  0  0  0
  -33.3945   14.5191  -31.5126 H   0  0  0  0  0  0
  -37.1574   13.8149  -21.5414 H   0  0  0  0  0  0
  -35.0994   11.8933  -25.5944 H   0  0  0  0  0  0
  -32.2625   12.5476  -18.6591 H   0  0  0  0  0  0
  -34.9507   15.3465  -32.5752 H   0  0  0  0  0  0
  -33.5078   12.3794  -27.9203 H   0  0  0  0  0  0
  -33.6894   14.1230  -27.6795 H   0  0  0  0  0  0
  -31.9565   14.1598  -29.2738 H   0  0  0  0  0  0
  -31.9911   12.7395  -31.0935 H   0  0  0  0  0  0
  -36.5003   11.7544  -27.5049 H   0  0  0  0  0  0
  -38.3659   12.1487  -26.0823 H   0  0  0  0  0  0
  -38.1602   13.8707  -26.2292 H   0  0  0  0  0  0
  -33.9221   11.8125  -23.4767 H   0  0  0  0  0  0
  -37.0151   12.3789  -18.5859 H   0  0  0  0  0  0
  -37.3370   11.8405  -20.2177 H   0  0  0  0  0  0
  -36.6242   10.7365  -19.0707 H   0  0  0  0  0  0
  -36.3470   14.3745  -37.2615 H   0  0  0  0  0  0
  -38.0799   13.8992  -37.4834 H   0  0  0  0  0  0
  -37.5427   11.5610  -36.5277 H   0  0  0  0  0  0
  -35.8169   12.0573  -36.3106 H   0  0  0  0  0  0
  -39.2271   14.3232  -21.8141 H   0  0  0  0  0  0
  -40.2876   15.0293  -22.9846 H   0  0  0  0  0  0
  -37.4629   16.0990  -22.4197 H   0  0  0  0  0  0
  -38.9176   16.7452  -21.7389 H   0  0  0  0  0  0
  -39.3169   20.7612  -26.9405 H   0  0  0  0  0  0
  -38.1440   19.7633  -27.7551 H   0  0  0  0  0  0
  -39.1078   18.9853  -29.9572 H   0  0  0  0  0  0
  -39.4532   20.6445  -29.5602 H   0  0  0  0  0  0
  -40.8019   19.3753  -31.4785 H   0  0  0  0  0  0
  -41.5112   20.6852  -30.5667 H   0  0  0  0  0  0
  -42.5408   17.7977  -28.2582 H   0  0  0  0  0  0
  -43.5024   19.2492  -28.5020 H   0  0  0  0  0  0
  -41.6380   20.7129  -27.9197 H   0  0  0  0  0  0
  -41.6824   19.4194  -26.7252 H   0  0  0  0  0  0
  -44.6977   19.4087  -30.6368 H   0  0  0  0  0  0
  -41.1231   15.5572  -31.9700 H   0  0  0  0  0  0
  -40.7314   16.8171  -30.8015 H   0  0  0  0  0  0
  -49.4127   17.3804  -34.1738 H   0  0  0  0  0  0
  -50.2993   19.3806  -33.0512 H   0  0  0  0  0  0
  -48.8475   20.7034  -31.5628 H   0  0  0  0  0  0
  -46.5673   20.0482  -31.1600 H   0  0  0  0  0  0
  -46.1654   16.1615  -33.7519 H   0  0  0  0  0  0
  -37.2001   16.1178  -25.0041 H   0  0  0  0  0  0
  -37.4411   17.5984  -26.9501 H   0  0  0  0  0  0
  -40.4349   19.8617  -24.8489 H   0  0  0  0  0  0
  -40.2101   18.3638  -22.9167 H   0  0  0  0  0  0
  1 15  1  0  0  0
  1 31  1  0  0  0
  1 67  1  0  0  0
  2 15  1  0  0  0
  2 17  1  0  0  0
  2 18  2  0  0  0
  3 16  1  0  0  0
  3 68  1  0  0  0
  3 69  1  0  0  0
  3 70  1  0  0  0
  4 16  1  0  0  0
  4 71  1  0  0  0
  4 72  1  0  0  0
  4 73  1  0  0  0
  5 16  1  0  0  0
  5 74  1  0  0  0
  5 75  1  0  0  0
  5 76  1  0  0  0
  6  8  1  0  0  0
  6 17  1  0  0  0
  6 19  1  0  0  0
  6 77  1  0  0  0
  7 17  1  0  0  0
  7 20  1  0  0  0
  7 78  1  0  0  0
  7 79  1  0  0  0
  8 22  2  0  0  0
  8 23  1  0  0  0
  9 10  1  0  0  0
  9 25  2  0  0  0
  9 37  1  0  0  0
 10 11  2  0  0  0
 10 80  1  0  0  0
 11 26  1  0  0  0
 11 27  1  0  0  0
 12 25  1  0  0  0
 12 26  2  0  0  0
 12 81  1  0  0  0
 13 27  2  0  0  0
 13 28  1  0  0  0
 13 30  1  0  0  0
 14 28  2  0  0  0
 14 29  1  0  0  0
 14 82  1  0  0  0
 15 16  1  0  0  0
 15 83  1  0  0  0
 19 20  1  0  0  0
 19 84  1  0  0  0
 19 85  1  0  0  0
 20 21  1  0  0  0
 20 86  1  0  0  0
 21 87  1  0  0  0
 23 24  1  0  0  0
 23 88  1  0  0  0
 24 25  1  0  0  0
 24 89  1  0  0  0
 24 90  1  0  0  0
 26 91  1  0  0  0
 27 29  1  0  0  0
 30 92  1  0  0  0
 30 93  1  0  0  0
 30 94  1  0  0  0
 31 32  1  0  0  0
 31 33  2  0  0  0
 32 34  1  0  0  0
 32 35  1  0  0  0
 32 36  1  0  0  0
 35 36  1  0  0  0
 35 95  1  0  0  0
 35 96  1  0  0  0
 36 97  1  0  0  0
 36 98  1  0  0  0
 37 38  1  0  0  0
 38 39  1  0  0  0
 38 99  1  0  0  0
 38100  1  0  0  0
 39 61  1  0  0  0
 39101  1  0  0  0
 39102  1  0  0  0
 40 41  1  0  0  0
 40 64  1  0  0  0
 40103  1  0  0  0
 40104  1  0  0  0
 41 42  1  0  0  0
 41 46  1  0  0  0
 42 43  1  0  0  0
 42105  1  0  0  0
 42106  1  0  0  0
 43 44  1  0  0  0
 43107  1  0  0  0
 43108  1  0  0  0
 44 45  1  0  0  0
 44 47  1  0  0  0
 45 46  1  0  0  0
 45109  1  0  0  0
 45110  1  0  0  0
 46111  1  0  0  0
 46112  1  0  0  0
 47 48  1  0  0  0
 47 52  2  0  0  0
 48 49  2  0  0  0
 48113  1  0  0  0
 49 50  1  0  0  0
 49 54  1  0  0  0
 50 51  2  0  0  0
 51 52  1  0  0  0
 52 53  1  0  0  0
 53114  1  0  0  0
 53115  1  0  0  0
 54 55  1  0  0  0
 54 59  2  0  0  0
 55 56  2  0  0  0
 55 60  1  0  0  0
 56 57  1  0  0  0
 56116  1  0  0  0
 57 58  2  0  0  0
 57117  1  0  0  0
 58 59  1  0  0  0
 58118  1  0  0  0
 59119  1  0  0  0
 60120  1  0  0  0
 61 62  1  0  0  0
 61 66  2  0  0  0
 62 63  2  0  0  0
 62121  1  0  0  0
 63 64  1  0  0  0
 63122  1  0  0  0
 64 65  2  0  0  0
 65 66  1  0  0  0
 65123  1  0  0  0
 66124  1  0  0  0
M  ISO  4  37 101  38 100  40 101  41 100
M  END
> <s_m_entry_id>
160

> <s_m_entry_name>
6hax.1_ligand

> <s_m_subgroup_title>
6HAX - preprocessed_split_by_structure

> <s_m_subgroupid>
6HAX - preprocessed_split_by_structure

> <b_m_subgroup_collapsed>
0

$$$$
