6HAX_e3_ligand
                    3D
 Structure written by MMmdl.
 38 41  0  0  1  0            999 V2000
  -36.7640   14.7176  -33.3707 N   0  0  0  0  0  0
  -36.1698   14.4118  -31.0451 C   0  0  0  0  0  0
  -35.7006   17.4479  -30.8009 C   0  0  0  0  0  0
  -36.0501   17.6730  -33.2589 C   0  0  0  0  0  0
  -37.9535   16.9679  -31.7841 C   0  0  0  0  0  0
  -35.1452   13.2607  -29.0404 C   0  0  1  0  0  0
  -33.7145   14.5560  -30.4718 C   0  0  0  0  0  0
  -36.2197   13.6949  -28.0244 C   0  0  0  0  0  0
  -37.4263   13.4833  -23.6650 C   0  0  0  0  0  0
  -36.7306   13.4119  -22.4452 C   0  0  0  0  0  0
  -35.4765   12.8049  -22.3631 C   0  0  0  0  0  0
  -35.5712   12.3339  -24.7278 C   0  0  0  0  0  0
  -35.2323   12.2253  -19.8098 C   0  0  0  0  0  0
  -33.1409   12.5317  -19.2862 C   0  0  0  0  0  0
  -35.9970   15.3338  -32.2789 C   0  0  2  0  0  0
  -36.4282   16.8274  -32.0198 C   0  0  0  0  0  0
  -35.1025   14.1174  -30.2502 N   0  0  0  0  0  0
  -37.2996   13.9604  -30.8333 O   0  0  0  0  0  0
  -33.7456   13.3210  -28.4166 C   0  0  0  0  0  0
  -32.8538   13.6371  -29.6047 C   0  0  1  0  0  0
  -32.4628   12.4704  -30.2971 O   0  0  0  0  0  0
  -36.4682   14.8909  -27.8645 O   0  0  0  0  0  0
  -36.7857   12.7069  -27.3221 N   0  0  0  0  0  0
  -37.6110   12.9307  -26.1366 C   0  0  0  0  0  0
  -36.8449   12.9163  -24.8109 C   0  0  0  0  0  0
  -34.8933   12.2842  -23.5174 C   0  0  0  0  0  0
  -34.7765   12.6638  -21.0600 C   0  0  0  0  0  0
  -34.3178   12.1659  -18.8602 N   0  0  0  0  0  0
  -33.0782   13.0404  -20.9327 S   0  0  0  0  0  0
  -36.6186   11.7752  -19.4029 C   0  0  0  0  0  0
  -36.2758   14.1439  -34.4808 C   0  0  0  0  0  0
  -37.3170   13.4993  -35.4161 C   0  0  0  0  0  0
  -35.0741   14.1146  -34.7513 O   0  0  0  0  0  0
  -38.5581   13.4201  -34.9320 F   0  0  0  0  0  0
  -37.1705   13.7574  -36.8994 C   0  0  0  0  0  0
  -36.8567   12.3864  -36.3358 C   0  0  0  0  0  0
  -38.6805   14.0572  -23.8011 O   0  0  0  0  0  0
  -38.9635   13.9957  -24.7164 *   0  0  0  0  0  0
  1 15  1  0  0  0
  1 31  1  0  0  0
  2 15  1  0  0  0
  2 17  1  0  0  0
  2 18  2  0  0  0
  3 16  1  0  0  0
  4 16  1  0  0  0
  5 16  1  0  0  0
  6  8  1  0  0  0
  6 17  1  0  0  0
  6 19  1  0  0  0
  7 17  1  0  0  0
  7 20  1  0  0  0
  8 22  2  0  0  0
  8 23  1  0  0  0
  9 10  1  0  0  0
  9 25  2  0  0  0
  9 37  1  0  0  0
 10 11  2  0  0  0
 11 26  1  0  0  0
 11 27  1  0  0  0
 12 25  1  0  0  0
 12 26  2  0  0  0
 13 27  2  0  0  0
 13 28  1  0  0  0
 13 30  1  0  0  0
 14 28  2  0  0  0
 14 29  1  0  0  0
 15 16  1  0  0  0
 19 20  1  0  0  0
 20 21  1  0  0  0
 23 24  1  0  0  0
 24 25  1  0  0  0
 27 29  1  0  0  0
 31 32  1  0  0  0
 31 33  2  0  0  0
 32 34  1  0  0  0
 32 35  1  0  0  0
 32 36  1  0  0  0
 35 36  1  0  0  0
 37 38  1  0  0  0
M  ISO  1  37 101
M  END
> <s_m_entry_id>
15

> <s_m_entry_name>
6hax.1_ligand

> <s_m_subgroup_title>
6HAX - preprocessed_split_by_structure

> <s_m_subgroupid>
6HAX - preprocessed_split_by_structure

> <b_m_subgroup_collapsed>
0

$$$$
