ligand
                    3D
 Structure written by MMmdl.
107113  0  0  1  0            999 V2000
   73.7508   33.7951   58.2388 N   0  0  0  0  0  0
   72.6772   35.8287   59.2033 C   0  0  0  0  0  0
   71.8709   31.8953   52.2792 O   0  0  0  0  0  0
   72.8605   34.7526   58.1535 C   0  0  0  0  0  0
   72.6175   38.8170   52.6012 C   0  0  0  0  0  0
   72.9894   38.4639   51.3076 C   0  0  0  0  0  0
   72.9875   37.1299   50.9102 C   0  0  0  0  0  0
   72.6174   36.1406   51.8160 C   0  0  0  0  0  0
   70.8806   35.7426   55.1415 C   0  0  0  0  0  0
   71.0738   35.3908   56.4979 C   0  0  0  0  0  0
   68.9089   36.5584   56.1271 C   0  0  0  0  0  0
   67.6263   37.1703   56.4364 C   0  0  0  0  0  0
   65.2467   37.3138   55.6754 C   0  0  0  0  0  0
   64.7857   38.6885   56.2228 C   0  0  0  0  0  0
   72.6986   33.5653   56.3417 C   0  0  0  0  0  0
   65.0209   39.8661   55.2638 C   0  0  0  0  0  0
   64.9341   41.2660   55.9094 C   0  0  0  0  0  0
   63.5387   41.7008   56.4064 C   0  0  0  0  0  0
   63.2862   43.2182   56.2554 C   0  0  0  0  0  0
   64.1246   44.1274   57.1776 C   0  0  0  0  0  0
   64.1826   45.5968   56.7034 C   0  0  0  0  0  0
   65.3574   46.9920   55.0093 C   0  0  0  0  0  0
   66.5695   47.0841   54.0721 C   0  0  0  0  0  0
   66.2509   46.3143   51.7714 C   0  0  0  0  0  0
   66.6471   44.9819   52.0000 C   0  0  0  0  0  0
   72.2650   33.1790   54.9256 C   0  0  2  0  0  0
   66.7308   44.0716   50.9392 C   0  0  0  0  0  0
   66.4003   44.4667   49.6414 C   0  0  0  0  0  0
   65.9978   45.7845   49.4283 C   0  0  0  0  0  0
   65.5649   46.4732   48.1888 C   0  0  0  0  0  0
   64.7236   48.7277   47.6085 C   0  0  1  0  0  0
   63.1980   48.8601   47.7476 C   0  0  0  0  0  0
   62.6073   49.8727   46.7648 C   0  0  0  0  0  0
   63.3329   51.2246   46.8877 C   0  0  0  0  0  0
   65.4183   50.1261   47.6252 C   0  0  0  0  0  0
   65.9342   46.6829   50.4601 C   0  0  0  0  0  0
   72.9586   31.8703   54.4348 C   0  0  0  0  0  0
   65.4864   47.9811   49.8949 C   0  0  0  0  0  0
   69.6352   36.4189   54.9194 C   0  0  0  0  0  0
   69.1504   36.8798   53.5473 C   0  0  0  0  0  0
   73.0229   31.6056   52.9217 C   0  0  0  0  0  0
   71.7891   31.7808   50.8668 C   0  0  0  0  0  0
   71.9040   35.4075   54.1017 C   0  0  0  0  0  0
   72.2459   36.4765   53.1292 C   0  0  0  0  0  0
   72.2503   37.8268   53.5080 C   0  0  0  0  0  0
   73.6408   33.0313   57.0834 N   0  0  0  0  0  0
   72.5287   34.2859   54.0049 N   0  0  0  0  0  0
   66.6909   37.1165   55.4716 N   0  0  0  0  0  0
   65.1474   45.8128   55.6226 N   0  0  0  0  0  0
   65.3128   47.7565   48.5615 N   0  0  0  0  0  0
   64.6163   51.1650   47.3091 N   0  0  0  0  0  0
   72.1311   34.6432   56.9859 N   0  0  0  0  0  0
   74.0572   31.1886   52.3982 O   0  0  0  0  0  0
   66.1248   47.3016   52.7337 O   0  0  0  0  0  0
   66.6027   50.3115   47.8928 O   0  0  0  0  0  0
   62.8072   52.2890   46.5924 O   0  0  0  0  0  0
   65.4598   45.9866   47.0615 O   0  0  0  0  0  0
   65.3031   49.0375   50.5022 O   0  0  0  0  0  0
   64.6580   47.9876   55.2030 O   0  0  0  0  0  0
   67.3880   37.6068   57.5630 O   0  0  0  0  0  0
   69.7897   35.9511   57.4902 S   0  0  0  0  0  0
   73.4673   39.6896   50.1938 Cl  0  0  0  0  0  0
   72.6150   36.8222   58.7574 H   0  0  0  0  0  0
   71.7677   35.6785   59.7843 H   0  0  0  0  0  0
   73.5045   35.8536   59.9131 H   0  0  0  0  0  0
   72.6273   39.8528   52.9082 H   0  0  0  0  0  0
   73.2813   36.8607   49.9059 H   0  0  0  0  0  0
   72.6318   35.1101   51.4890 H   0  0  0  0  0  0
   64.7587   37.1334   54.7171 H   0  0  0  0  0  0
   64.8868   36.5246   56.3388 H   0  0  0  0  0  0
   65.2779   38.8860   57.1691 H   0  0  0  0  0  0
   63.7228   38.6382   56.4621 H   0  0  0  0  0  0
   64.3319   39.8004   54.4205 H   0  0  0  0  0  0
   66.0160   39.7604   54.8346 H   0  0  0  0  0  0
   65.2771   41.9799   55.1584 H   0  0  0  0  0  0
   65.6458   41.3410   56.7289 H   0  0  0  0  0  0
   63.3829   41.3799   57.4369 H   0  0  0  0  0  0
   62.7788   41.1831   55.8187 H   0  0  0  0  0  0
   62.2296   43.4245   56.4309 H   0  0  0  0  0  0
   63.4623   43.4930   55.2141 H   0  0  0  0  0  0
   65.1361   43.7377   57.2930 H   0  0  0  0  0  0
   63.6959   44.0890   58.1805 H   0  0  0  0  0  0
   64.4700   46.2263   57.5475 H   0  0  0  0  0  0
   63.1898   45.9329   56.3972 H   0  0  0  0  0  0
   67.2584   46.2547   54.2002 H   0  0  0  0  0  0
   67.1416   47.9644   54.3669 H   0  0  0  0  0  0
   66.8822   44.6178   52.9867 H   0  0  0  0  0  0
   71.1921   32.9675   54.9242 H   0  0  0  0  0  0
   67.0412   43.0540   51.1299 H   0  0  0  0  0  0
   66.4547   43.7537   48.8314 H   0  0  0  0  0  0
   64.9300   48.3597   46.6017 H   0  0  0  0  0  0
   62.9561   49.1477   48.7671 H   0  0  0  0  0  0
   62.7334   47.8910   47.6016 H   0  0  0  0  0  0
   61.5446   50.0148   46.9543 H   0  0  0  0  0  0
   62.7049   49.5196   45.7386 H   0  0  0  0  0  0
   72.5046   31.0101   54.9202 H   0  0  0  0  0  0
   73.9904   31.8762   54.7772 H   0  0  0  0  0  0
   68.0738   36.8354   53.4100 H   0  0  0  0  0  0
   69.4552   37.9046   53.3427 H   0  0  0  0  0  0
   69.5474   36.2635   52.7412 H   0  0  0  0  0  0
   70.7889   32.0580   50.5342 H   0  0  0  0  0  0
   72.5058   32.4407   50.3761 H   0  0  0  0  0  0
   71.9794   30.7558   50.5455 H   0  0  0  0  0  0
   71.9878   38.1223   54.5119 H   0  0  0  0  0  0
   66.9721   36.8141   54.5516 H   0  0  0  0  0  0
   65.7489   45.0340   55.3992 H   0  0  0  0  0  0
   65.0820   52.0599   47.3543 H   0  0  0  0  0  0
  1  4  2  0  0  0
  1 46  1  0  0  0
  2  4  1  0  0  0
  2 63  1  0  0  0
  2 64  1  0  0  0
  2 65  1  0  0  0
  3 41  1  0  0  0
  3 42  1  0  0  0
  4 52  1  0  0  0
  5  6  1  0  0  0
  5 45  2  0  0  0
  5 66  1  0  0  0
  6  7  2  0  0  0
  6 62  1  0  0  0
  7  8  1  0  0  0
  7 67  1  0  0  0
  8 44  2  0  0  0
  8 68  1  0  0  0
  9 10  2  0  0  0
  9 39  1  0  0  0
  9 43  1  0  0  0
 10 52  1  0  0  0
 10 61  1  0  0  0
 11 12  1  0  0  0
 11 39  2  0  0  0
 11 61  1  0  0  0
 12 48  1  0  0  0
 12 60  2  0  0  0
 13 14  1  0  0  0
 13 48  1  0  0  0
 13 69  1  0  0  0
 13 70  1  0  0  0
 14 16  1  0  0  0
 14 71  1  0  0  0
 14 72  1  0  0  0
 15 26  1  0  0  0
 15 46  2  0  0  0
 15 52  1  0  0  0
 16 17  1  0  0  0
 16 73  1  0  0  0
 16 74  1  0  0  0
 17 18  1  0  0  0
 17 75  1  0  0  0
 17 76  1  0  0  0
 18 19  1  0  0  0
 18 77  1  0  0  0
 18 78  1  0  0  0
 19 20  1  0  0  0
 19 79  1  0  0  0
 19 80  1  0  0  0
 20 21  1  0  0  0
 20 81  1  0  0  0
 20 82  1  0  0  0
 21 49  1  0  0  0
 21 83  1  0  0  0
 21 84  1  0  0  0
 22 23  1  0  0  0
 22 49  1  0  0  0
 22 59  2  0  0  0
 23 54  1  0  0  0
 23 85  1  0  0  0
 23 86  1  0  0  0
 24 25  2  0  0  0
 24 36  1  0  0  0
 24 54  1  0  0  0
 25 27  1  0  0  0
 25 87  1  0  0  0
 26 37  1  0  0  0
 26 47  1  0  0  0
 26 88  1  0  0  0
 27 28  2  0  0  0
 27 89  1  0  0  0
 28 29  1  0  0  0
 28 90  1  0  0  0
 29 30  1  0  0  0
 29 36  2  0  0  0
 30 50  1  0  0  0
 30 57  2  0  0  0
 31 32  1  0  0  0
 31 35  1  0  0  0
 31 50  1  0  0  0
 31 91  1  0  0  0
 32 33  1  0  0  0
 32 92  1  0  0  0
 32 93  1  0  0  0
 33 34  1  0  0  0
 33 94  1  0  0  0
 33 95  1  0  0  0
 34 51  1  0  0  0
 34 56  2  0  0  0
 35 51  1  0  0  0
 35 55  2  0  0  0
 36 38  1  0  0  0
 37 41  1  0  0  0
 37 96  1  0  0  0
 37 97  1  0  0  0
 38 50  1  0  0  0
 38 58  2  0  0  0
 39 40  1  0  0  0
 40 98  1  0  0  0
 40 99  1  0  0  0
 40100  1  0  0  0
 41 53  2  0  0  0
 42101  1  0  0  0
 42102  1  0  0  0
 42103  1  0  0  0
 43 44  1  0  0  0
 43 47  2  0  0  0
 44 45  1  0  0  0
 45104  1  0  0  0
 48105  1  0  0  0
 49106  1  0  0  0
 51107  1  0  0  0
M  END
> <s_m_entry_id>
8

> <s_m_entry_name>
6bn7.1_mol4

> <s_m_subgroup_title>
6BN7 - minimized_split_by_molecule

> <s_m_subgroupid>
6BN7 - minimized_split_by_molecule

> <b_m_subgroup_collapsed>
0

$$$$
