e3_ligand
                    3D
 Structure written by MMmdl.
 20 22  0  0  1  0            999 V2000
   66.2509   46.3143   51.7714 C   0  0  0  0  0  0
   66.6471   44.9819   52.0000 C   0  0  0  0  0  0
   66.7308   44.0716   50.9392 C   0  0  0  0  0  0
   66.4003   44.4667   49.6414 C   0  0  0  0  0  0
   65.9978   45.7845   49.4283 C   0  0  0  0  0  0
   65.5649   46.4732   48.1888 C   0  0  0  0  0  0
   64.7236   48.7277   47.6085 C   0  0  1  0  0  0
   63.1980   48.8601   47.7476 C   0  0  0  0  0  0
   62.6073   49.8727   46.7648 C   0  0  0  0  0  0
   63.3329   51.2246   46.8877 C   0  0  0  0  0  0
   65.4183   50.1261   47.6252 C   0  0  0  0  0  0
   65.9342   46.6829   50.4601 C   0  0  0  0  0  0
   65.4864   47.9811   49.8949 C   0  0  0  0  0  0
   65.3128   47.7565   48.5615 N   0  0  0  0  0  0
   64.6163   51.1650   47.3091 N   0  0  0  0  0  0
   66.6027   50.3115   47.8928 O   0  0  0  0  0  0
   62.8072   52.2890   46.5924 O   0  0  0  0  0  0
   65.4598   45.9866   47.0615 O   0  0  0  0  0  0
   65.3031   49.0375   50.5022 O   0  0  0  0  0  0
   66.2000   47.0114   52.5948 *   0  0  0  0  0  0
  1  2  2  0  0  0
  1 12  1  0  0  0
  1 20  1  0  0  0
  2  3  1  0  0  0
  3  4  2  0  0  0
  4  5  1  0  0  0
  5  6  1  0  0  0
  5 12  2  0  0  0
  6 14  1  0  0  0
  6 18  2  0  0  0
  7  8  1  0  0  0
  7 11  1  0  0  0
  7 14  1  0  0  0
  8  9  1  0  0  0
  9 10  1  0  0  0
 10 15  1  0  0  0
 10 17  2  0  0  0
 11 15  1  0  0  0
 11 16  2  0  0  0
 12 13  1  0  0  0
 13 14  1  0  0  0
 13 19  2  0  0  0
M  ISO  1   1 101
M  END
> <s_m_entry_id>
13

> <s_m_entry_name>
6bn7.1_mol4

> <s_m_subgroup_title>
6BN7 - minimized_split_by_molecule

> <s_m_subgroupid>
6BN7 - minimized_split_by_molecule

> <b_m_subgroup_collapsed>
0

$$$$
