
  -OEChem-04052315133D

 79 86  0     1  0  0  0  0  0999 V2000
  -24.1488  -21.5364   17.0982 C   0  0  0  0  0  0  0  0  0  0  0  0
  -25.2246  -20.6811   16.8822 C   0  0  0  0  0  0  0  0  0  0  0  0
  -27.9659  -23.3978   17.2597 C   0  0  0  0  0  0  0  0  0  0  0  0
  -29.4539  -24.6259   18.7138 C   0  0  0  0  0  0  0  0  0  0  0  0
  -23.4472  -21.4819   18.3019 C   0  0  0  0  0  0  0  0  0  0  0  0
  -25.6000  -19.7715   17.8701 C   0  0  0  0  0  0  0  0  0  0  0  0
  -28.3657  -13.2105   18.6580 C   0  0  0  0  0  0  0  0  0  0  0  0
  -27.1215  -24.5056   17.1879 C   0  0  0  0  0  0  0  0  0  0  0  0
  -28.6095  -25.7339   18.6420 C   0  0  0  0  0  0  0  0  0  0  0  0
  -29.3989  -12.5497   19.3211 C   0  0  0  0  0  0  0  0  0  0  0  0
  -25.6958  -26.7397   20.0310 C   0  0  0  0  0  0  0  0  0  0  0  0
  -25.3996  -27.4069   21.2196 C   0  0  0  0  0  0  0  0  0  0  0  0
  -28.0640  -12.4905   21.3295 C   0  0  0  0  0  0  0  0  0  0  0  0
  -26.3659  -29.4320   20.3237 C   0  0  0  0  0  0  0  0  0  0  0  0
  -29.1321  -23.4578   18.0227 C   0  0  0  0  0  0  0  0  0  0  0  0
  -31.0851  -22.0112   17.2476 C   0  0  0  0  0  0  0  0  0  0  0  0
  -23.8082  -20.5645   19.3012 C   0  0  0  0  0  0  0  0  0  0  0  0
  -27.1762  -13.5265   19.3300 C   0  0  0  0  0  0  0  0  0  0  0  0
  -24.9034  -19.7056   19.0888 C   0  0  0  0  0  0  0  0  0  0  0  0
  -27.0163  -13.1531   20.6720 C   0  0  0  0  0  0  0  0  0  0  0  0
  -27.4433  -25.6737   17.8791 C   0  0  0  0  0  0  0  0  0  0  0  0
  -29.2493  -12.1921   20.6578 C   0  0  0  0  0  0  0  0  0  0  0  0
  -26.3271  -27.4186   18.9888 C   0  0  0  0  0  0  0  0  0  0  0  0
  -25.7346  -28.7530   21.3659 C   0  0  0  0  0  0  0  0  0  0  0  0
  -26.6621  -28.7648   19.1351 C   0  0  0  0  0  0  0  0  0  0  0  0
  -30.0044  -22.3135   18.0977 C   0  0  0  0  0  0  0  0  0  0  0  0
  -31.5855  -20.8289   17.7355 C   0  0  0  0  0  0  0  0  0  0  0  0
  -31.5913  -22.7346   16.1179 C   0  0  0  0  0  0  0  0  0  0  0  0
  -25.6635  -16.2239   20.0648 C   0  0  0  0  0  0  0  0  0  0  0  0
  -23.3609  -14.1909   21.1077 C   0  0  0  0  0  0  0  0  0  0  0  0
  -22.5428  -11.0812   22.2511 C   0  0  0  0  0  0  0  0  0  0  0  0
  -31.4488  -18.4269   23.1270 C   0  0  0  0  0  0  0  0  0  0  0  0
  -23.0495  -20.5751   20.6047 C   0  0  0  0  0  0  0  0  0  0  0  0
  -26.0608  -14.2159   18.5930 C   0  0  0  0  0  0  0  0  0  0  0  0
  -25.7510  -13.4512   21.4328 C   0  0  0  0  0  0  0  0  0  0  0  0
  -23.2764  -19.3255   21.4516 C   0  0  0  0  0  0  0  0  0  0  0  0
  -30.2441  -16.8806   20.0848 C   0  0  0  0  0  0  0  0  0  0  0  0
  -24.7628  -18.9900   21.5206 C   0  0  0  0  0  0  0  0  0  0  0  0
  -30.1510  -18.0857   19.1472 C   0  0  0  0  0  0  0  0  0  0  0  0
  -29.8381  -17.2542   21.5074 C   0  0  0  0  0  0  0  0  0  0  0  0
  -30.5135  -19.5977   21.1529 C   0  0  0  0  0  0  0  0  0  0  0  0
  -25.3256  -18.6882   20.1264 C   0  0  1  0  0  0  0  0  0  0  0  0
  -25.0931  -14.9450   19.5201 C   0  0  1  0  0  0  0  0  0  0  0  0
  -30.9328  -19.2904   19.7038 C   0  0  2  0  0  0  0  0  0  0  0  0
  -20.5878   -9.7300   23.0570 C   0  0  0  0  0  0  0  0  0  0  0  0
  -23.4523  -15.6580   23.7815 C   0  0  0  0  0  0  0  0  0  0  0  0
  -22.2294  -13.7271   24.8035 C   0  0  0  0  0  0  0  0  0  0  0  0
  -21.1535  -15.0660   22.9944 C   0  0  0  0  0  0  0  0  0  0  0  0
  -22.8469   -9.1181   20.0574 C   0  0  0  0  0  0  0  0  0  0  0  0
  -32.3027  -17.1272   25.0605 C   0  0  0  0  0  0  0  0  0  0  0  0
  -32.1882  -15.7446   25.6773 C   0  0  0  0  0  0  0  0  0  0  0  0
  -31.5886  -11.8245   20.8775 C   0  0  0  0  0  0  0  0  0  1  0  0
  -32.5314  -11.6696   22.0552 C   0  0  0  0  0  0  0  0  0  0  0  0
  -32.5348  -13.4559   25.2720 C   0  0  0  0  0  0  0  0  0  0  0  0
  -32.9891  -12.4631   24.2193 C   0  0  0  0  0  0  0  0  0  0  0  0
  -23.0548  -13.5030   22.4161 C   0  0  1  0  0  0  0  0  0  0  0  0
  -21.4344  -10.1222   21.8561 C   0  0  2  0  0  0  0  0  0  0  0  0
  -22.4972  -14.4845   23.4854 C   0  0  0  0  0  0  0  0  0  0  0  0
  -29.8279  -21.3970   19.0531 N   0  0  0  0  0  0  0  0  0  0  0  0
  -30.8043  -20.5072   18.8063 N   0  0  0  0  0  0  0  0  0  0  0  0
  -24.6917  -14.1324   20.6703 N   0  0  0  0  0  0  0  0  0  0  0  0
  -30.6323  -18.3952   21.9843 N   0  0  0  0  0  0  0  0  0  0  0  0
  -32.6130  -20.0433   17.3488 N   0  0  0  0  0  0  0  0  0  0  0  0
  -30.9593  -23.9311   15.7528 N   0  0  0  0  0  0  0  0  0  0  0  0
  -24.9522  -17.3538   19.7087 N   0  0  0  0  0  0  0  0  0  0  0  0
  -22.1594  -12.3966   22.0959 N   0  0  0  0  0  0  0  0  0  0  0  0
  -31.5012  -17.2497   23.8632 N   0  0  0  0  0  0  0  0  0  0  0  0
  -22.0095   -8.8825   21.2616 N   0  3  0  0  0  0  0  0  0  0  0  0
  -32.5648  -22.3234   15.4420 O   0  0  0  0  0  0  0  0  0  0  0  0
  -26.6733  -16.1880   20.7581 O   0  0  0  0  0  0  0  0  0  0  0  0
  -22.4513  -14.7531   20.4927 O   0  0  0  0  0  0  0  0  0  0  0  0
  -23.6378  -10.7016   22.6602 O   0  0  0  0  0  0  0  0  0  0  0  0
  -32.0886  -19.4291   23.4636 O   0  0  0  0  0  0  0  0  0  0  0  0
  -26.6198  -26.7551   17.8091 O   0  0  0  0  0  0  0  0  0  0  0  0
  -30.2564  -11.5476   21.3076 O   0  0  0  0  0  0  0  0  0  1  0  0
  -32.6238  -14.7714   24.7383 O   0  0  0  0  0  0  0  0  0  0  0  0
  -32.1372  -12.5659   23.0870 O   0  0  0  0  0  0  0  0  0  0  0  0
  -25.4487  -29.3940   22.5068 F   0  0  0  0  0  0  0  0  0  0  0  0
  -27.2676  -29.4226   18.1369 F   0  0  0  0  0  0  0  0  0  0  0  0
  1  2  1  0  0  0  0
  1  5  2  0  0  0  0
  2  6  2  0  0  0  0
  3  8  2  0  0  0  0
  3 15  1  0  0  0  0
  4  9  1  0  0  0  0
  4 15  2  0  0  0  0
  5 17  1  0  0  0  0
  6 19  1  0  0  0  0
  7 10  2  0  0  0  0
  7 18  1  0  0  0  0
  8 21  1  0  0  0  0
  9 21  2  0  0  0  0
 10 22  1  0  0  0  0
 11 12  2  0  0  0  0
 11 23  1  0  0  0  0
 12 24  1  0  0  0  0
 13 20  1  0  0  0  0
 13 22  2  0  0  0  0
 14 24  2  0  0  0  0
 14 25  1  0  0  0  0
 15 26  1  0  0  0  0
 16 26  1  0  0  0  0
 16 27  2  0  0  0  0
 16 28  1  0  0  0  0
 17 19  2  0  0  0  0
 17 33  1  0  0  0  0
 18 20  2  0  0  0  0
 18 34  1  0  0  0  0
 19 42  1  0  0  0  0
 20 35  1  0  0  0  0
 21 74  1  0  0  0  0
 22 75  1  0  0  0  0
 23 25  2  0  0  0  0
 23 74  1  0  0  0  0
 24 78  1  0  0  0  0
 25 79  1  0  0  0  0
 26 59  2  0  0  0  0
 27 60  1  0  0  0  0
 27 63  1  0  0  0  0
 28 64  1  0  0  0  0
 28 69  2  0  0  0  0
 29 43  1  0  0  0  0
 29 65  1  0  0  0  0
 29 70  2  0  0  0  0
 30 56  1  0  0  0  0
 30 61  1  0  0  0  0
 30 71  2  0  0  0  0
 31 57  1  0  0  0  0
 31 66  1  0  0  0  0
 31 72  2  0  0  0  0
 32 62  1  0  0  0  0
 32 67  1  0  0  0  0
 32 73  2  0  0  0  0
 33 36  1  0  0  0  0
 34 43  1  0  0  0  0
 35 61  1  0  0  0  0
 36 38  1  0  0  0  0
 37 39  1  0  0  0  0
 37 40  1  0  0  0  0
 38 42  1  0  0  0  0
 39 44  1  0  0  0  0
 40 62  1  0  0  0  0
 41 44  1  0  0  0  0
 41 62  1  0  0  0  0
 42 65  1  0  0  0  0
 43 61  1  0  0  0  0
 44 60  1  0  0  0  0
 45 57  1  0  0  0  0
 46 58  1  0  0  0  0
 47 58  1  0  0  0  0
 48 58  1  0  0  0  0
 49 68  1  0  0  0  0
 50 51  1  0  0  0  0
 50 67  1  0  0  0  0
 51 76  1  0  0  0  0
 52 53  1  0  0  0  0
 52 75  1  0  0  0  0
 53 77  1  0  0  0  0
 54 55  1  0  0  0  0
 54 76  1  0  0  0  0
 55 77  1  0  0  0  0
 56 58  1  0  0  0  0
 56 66  1  0  0  0  0
 57 68  1  0  0  0  0
 59 60  1  0  0  0  0
M  CHG  1  68   1
M  ISO  4  32 100  52 101  67 100  75 101
M  END
> <Batch ID>
0000

> <Smiles>
CNC(C)C(=O)NC(C(=O)N1Cc2cc([101O:1][101CH2:1]COCCOCC[100NH:0][100C:0](=O)N3CCCC(n4nc(-c5ccc(Oc6ccc(F)cc6F)cc5)c(C(N)=O)c4N)C3)ccc2CC1C(=O)NC1CCCc2ccccc21)C(C)(C)C

> <Shape>
0.193

> <Color>
0.068

> <Negative vol penalty>
0.000

$$$$

  -OEChem-04052315133D

 82 90  0     1  0  0  0  0  0999 V2000
  -32.2395  -32.6874   21.9381 C   0  0  0  0  0  0  0  0  0  0  0  0
  -32.1063  -31.4417   22.5430 C   0  0  0  0  0  0  0  0  0  0  0  0
  -23.0672   -9.8466   20.0266 C   0  0  0  0  0  0  0  0  0  0  0  0
  -23.7877   -9.9717   22.3293 C   0  0  0  0  0  0  0  0  0  0  0  0
  -31.2843  -33.1208   21.0196 C   0  0  0  0  0  0  0  0  0  0  0  0
  -31.0171  -30.6291   22.2305 C   0  0  0  0  0  0  0  0  0  0  0  0
  -32.3520  -25.8071   21.4483 C   0  0  0  0  0  0  0  0  0  0  0  0
  -32.7100  -17.5018   23.2548 C   0  0  0  0  0  0  0  0  0  0  0  0
  -32.0956  -16.5900   22.3965 C   0  0  0  0  0  0  0  0  0  0  0  0
  -22.3046   -8.7179   20.3265 C   0  0  0  0  0  0  0  0  0  0  0  0
  -23.0250   -8.8430   22.6292 C   0  0  0  0  0  0  0  0  0  0  0  0
  -32.6030  -25.0252   22.5749 C   0  0  0  0  0  0  0  0  0  0  0  0
  -19.7772   -8.1176   23.2173 C   0  0  0  0  0  0  0  0  0  0  0  0
  -18.9998   -8.1515   24.3749 C   0  0  0  0  0  0  0  0  0  0  0  0
  -30.4006  -24.0589   22.3875 C   0  0  0  0  0  0  0  0  0  0  0  0
  -30.5530  -18.4462   23.7956 C   0  0  0  0  0  0  0  0  0  0  0  0
  -20.2038   -6.2434   25.2391 C   0  0  0  0  0  0  0  0  0  0  0  0
  -23.8088  -10.4735   21.0280 C   0  0  0  0  0  0  0  0  0  0  0  0
  -24.1846  -12.9840   20.7749 C   0  0  0  0  0  0  0  0  0  0  0  0
  -30.1880  -32.3090   20.6884 C   0  0  0  0  0  0  0  0  0  0  0  0
  -31.1173  -25.7287   20.7882 C   0  0  0  0  0  0  0  0  0  0  0  0
  -30.0456  -31.0525   21.3077 C   0  0  0  0  0  0  0  0  0  0  0  0
  -30.1374  -24.8391   21.2512 C   0  0  0  0  0  0  0  0  0  0  0  0
  -31.9387  -18.4298   23.9544 C   0  0  0  0  0  0  0  0  0  0  0  0
  -30.7099  -16.6063   22.2377 C   0  0  0  0  0  0  0  0  0  0  0  0
  -22.2835   -8.2161   21.6278 C   0  0  0  0  0  0  0  0  0  0  0  0
  -31.6262  -24.1530   23.0464 C   0  0  0  0  0  0  0  0  0  0  0  0
  -20.7678   -7.1466   23.0705 C   0  0  0  0  0  0  0  0  0  0  0  0
  -19.2131   -7.2144   25.3858 C   0  0  0  0  0  0  0  0  0  0  0  0
  -20.9811   -6.2095   24.0814 C   0  0  0  0  0  0  0  0  0  0  0  0
  -29.9386  -17.5344   22.9373 C   0  0  0  0  0  0  0  0  0  0  0  0
  -24.5972  -11.6392   20.7187 C   0  0  0  0  0  0  0  0  0  0  0  0
  -25.2922  -13.6994   20.3904 C   0  0  0  0  0  0  0  0  0  0  0  0
  -22.9137  -13.5371   21.1420 C   0  0  0  0  0  0  0  0  0  0  0  0
  -28.7563  -27.7730   20.1963 C   0  0  0  0  0  0  0  0  0  0  0  0
  -27.5854  -25.3089   18.4415 C   0  0  0  0  0  0  0  0  0  0  0  0
  -27.4872  -21.9449   17.8751 C   0  0  0  0  0  0  0  0  0  0  0  0
  -30.7674  -14.6890   20.6045 C   0  0  0  0  0  0  0  0  0  0  0  0
  -29.1560  -32.8402   19.7254 C   0  0  0  0  0  0  0  0  0  0  0  0
  -30.8720  -26.5594   19.5584 C   0  0  0  0  0  0  0  0  0  0  0  0
  -28.8029  -24.7026   20.5664 C   0  0  0  0  0  0  0  0  0  0  0  0
  -28.2307  -31.7615   19.1681 C   0  0  0  0  0  0  0  0  0  0  0  0
  -29.6633  -12.1609   18.3535 C   0  0  0  0  0  0  0  0  0  0  0  0
  -27.7281  -30.8578   20.2895 C   0  0  0  0  0  0  0  0  0  0  0  0
  -28.2129  -11.9105   18.7728 C   0  0  0  0  0  0  0  0  0  0  0  0
  -30.5605  -12.4452   19.5569 C   0  0  0  0  0  0  0  0  0  0  0  0
  -28.6394  -13.2674   20.8618 C   0  0  0  0  0  0  0  0  0  0  0  0
  -28.8912  -30.1319   20.9762 C   0  0  1  0  0  0  0  0  0  0  0  0
  -29.3898  -26.7749   19.2688 C   0  0  1  0  0  0  0  0  0  0  0  0
  -27.6848  -13.0405   19.6782 C   0  0  2  0  0  0  0  0  0  0  0  0
  -26.4106  -20.2268   16.3965 C   0  0  0  0  0  0  0  0  0  0  0  0
  -24.9849  -25.5898   20.0127 C   0  0  0  0  0  0  0  0  0  0  0  0
  -24.3265  -23.3171   19.1945 C   0  0  0  0  0  0  0  0  0  0  0  0
  -24.6851  -25.1718   17.5653 C   0  0  0  0  0  0  0  0  0  0  0  0
  -30.1013  -21.0524   16.8126 C   0  0  0  0  0  0  0  0  0  0  0  0
  -32.6004  -19.4106   24.8774 C   0  0  0  0  0  0  0  0  0  0  0  0
  -33.2215  -23.0033   24.3840 C   0  0  0  0  0  0  0  0  0  1  0  0
  -33.2370  -21.6625   25.0923 C   0  0  0  0  0  0  0  0  0  0  0  0
  -26.6801  -24.1333   18.7200 C   0  0  1  0  0  0  0  0  0  0  0  0
  -27.6141  -21.1343   16.5979 C   0  0  2  0  0  0  0  0  0  0  0  0
  -25.1935  -24.5567   18.8874 C   0  0  0  0  0  0  0  0  0  0  0  0
  -25.8677  -11.5056   20.3289 N   0  0  0  0  0  0  0  0  0  0  0  0
  -26.2630  -12.7756   20.1367 N   0  0  0  0  0  0  0  0  0  0  0  0
  -28.6085  -25.5407   19.3717 N   0  0  0  0  0  0  0  0  0  0  0  0
  -29.9996  -13.5296   20.3659 N   0  0  0  0  0  0  0  0  0  0  0  0
  -25.5207  -15.0222   20.2478 N   0  0  0  0  0  0  0  0  0  0  0  0
  -21.8847  -12.6599   21.5109 N   0  0  0  0  0  0  0  0  0  0  0  0
  -30.1178  -15.6655   21.3590 N   0  0  0  0  0  0  0  0  0  0  0  0
  -29.3447  -29.0229   20.1644 N   0  0  0  0  0  0  0  0  0  0  0  0
  -26.9112  -23.1761   17.6436 N   0  0  0  0  0  0  0  0  0  0  0  0
  -28.8394  -20.2872   16.6416 N   0  3  0  0  0  0  0  0  0  0  0  0
  -22.6921  -14.7716   21.1272 O   0  0  0  0  0  0  0  0  0  0  0  0
  -27.8033  -27.4346   20.8884 O   0  0  0  0  0  0  0  0  0  0  0  0
  -27.3962  -25.9919   17.4318 O   0  0  0  0  0  0  0  0  0  0  0  0
  -27.8583  -21.5262   18.9694 O   0  0  0  0  0  0  0  0  0  0  0  0
  -31.9064  -14.8184   20.1485 O   0  0  0  0  0  0  0  0  0  0  0  0
  -21.5393   -7.1148   21.9209 O   0  0  0  0  0  0  0  0  0  0  0  0
  -31.8684  -23.3891   24.1463 O   0  0  0  0  0  0  0  0  0  1  0  0
  -32.6188  -20.6896   24.2590 O   0  0  0  0  0  0  0  0  0  0  0  0
  -18.4676   -7.2480   26.4982 F   0  0  0  0  0  0  0  0  0  0  0  0
  -21.9321   -5.2751   23.9467 F   0  0  0  0  0  0  0  0  0  0  0  0
  -28.2199  -17.5895   22.7697 Cl  0  0  0  0  0  0  0  0  0  0  0  0
  1  2  1  0  0  0  0
  1  5  2  0  0  0  0
  2  6  2  0  0  0  0
  3 10  2  0  0  0  0
  3 18  1  0  0  0  0
  4 11  1  0  0  0  0
  4 18  2  0  0  0  0
  5 20  1  0  0  0  0
  6 22  1  0  0  0  0
  7 12  2  0  0  0  0
  7 21  1  0  0  0  0
  8  9  2  0  0  0  0
  8 24  1  0  0  0  0
  9 25  1  0  0  0  0
 10 26  1  0  0  0  0
 11 26  2  0  0  0  0
 12 27  1  0  0  0  0
 13 14  2  0  0  0  0
 13 28  1  0  0  0  0
 14 29  1  0  0  0  0
 15 23  1  0  0  0  0
 15 27  2  0  0  0  0
 16 24  2  0  0  0  0
 16 31  1  0  0  0  0
 17 29  2  0  0  0  0
 17 30  1  0  0  0  0
 18 32  1  0  0  0  0
 19 32  1  0  0  0  0
 19 33  2  0  0  0  0
 19 34  1  0  0  0  0
 20 22  2  0  0  0  0
 20 39  1  0  0  0  0
 21 23  2  0  0  0  0
 21 40  1  0  0  0  0
 22 48  1  0  0  0  0
 23 41  1  0  0  0  0
 24 56  1  0  0  0  0
 25 31  2  0  0  0  0
 25 68  1  0  0  0  0
 26 77  1  0  0  0  0
 27 78  1  0  0  0  0
 28 30  2  0  0  0  0
 28 77  1  0  0  0  0
 29 80  1  0  0  0  0
 30 81  1  0  0  0  0
 31 82  1  0  0  0  0
 32 62  2  0  0  0  0
 33 63  1  0  0  0  0
 33 66  1  0  0  0  0
 34 67  1  0  0  0  0
 34 72  2  0  0  0  0
 35 49  1  0  0  0  0
 35 69  1  0  0  0  0
 35 73  2  0  0  0  0
 36 59  1  0  0  0  0
 36 64  1  0  0  0  0
 36 74  2  0  0  0  0
 37 60  1  0  0  0  0
 37 70  1  0  0  0  0
 37 75  2  0  0  0  0
 38 65  1  0  0  0  0
 38 68  1  0  0  0  0
 38 76  2  0  0  0  0
 39 42  1  0  0  0  0
 40 49  1  0  0  0  0
 41 64  1  0  0  0  0
 42 44  1  0  0  0  0
 43 45  1  0  0  0  0
 43 46  1  0  0  0  0
 44 48  1  0  0  0  0
 45 50  1  0  0  0  0
 46 65  1  0  0  0  0
 47 50  1  0  0  0  0
 47 65  1  0  0  0  0
 48 69  1  0  0  0  0
 49 64  1  0  0  0  0
 50 63  1  0  0  0  0
 51 60  1  0  0  0  0
 52 61  1  0  0  0  0
 53 61  1  0  0  0  0
 54 61  1  0  0  0  0
 55 71  1  0  0  0  0
 56 79  1  0  0  0  0
 57 58  1  0  0  0  0
 57 78  1  0  0  0  0
 58 79  1  0  0  0  0
 59 61  1  0  0  0  0
 59 70  1  0  0  0  0
 60 71  1  0  0  0  0
 62 63  1  0  0  0  0
M  CHG  1  71   1
M  ISO  4  38 100  57 101  68 100  78 101
M  END
> <Batch ID>
0000

> <Smiles>
CNC(C)C(=O)NC(C(=O)N1Cc2cc([101O:1][101CH2:1]COCc3ccc([100NH:0][100C:0](=O)N4CCCC(n5nc(-c6ccc(Oc7ccc(F)cc7F)cc6)c(C(N)=O)c5N)C4)c(Cl)c3)ccc2CC1C(=O)NC1CCCc2ccccc21)C(C)(C)C

> <Shape>
0.234

> <Color>
0.198

> <Negative vol penalty>
0.000

$$$$

  -OEChem-04052315133D

 97106  0     1  0  0  0  0  0999 V2000
  -18.2716  -25.1676   23.9328 C   0  0  0  0  0  0  0  0  0  0  0  0
  -19.6094  -24.8673   23.6969 C   0  0  0  0  0  0  0  0  0  0  0  0
  -29.4708  -11.2906   17.9337 C   0  0  0  0  0  0  0  0  0  0  0  0
  -28.1749  -12.9078   19.1756 C   0  0  0  0  0  0  0  0  0  0  0  0
  -26.4620  -18.2161   20.3422 C   0  0  0  0  0  0  0  0  0  0  0  0
  -27.9504  -17.1975   21.9497 C   0  0  0  0  0  0  0  0  0  0  0  0
  -23.4226  -14.5259   22.4885 C   0  0  0  0  0  0  0  0  0  0  0  0
  -22.8233  -14.3870   20.1522 C   0  0  0  0  0  0  0  0  0  0  0  0
  -17.7617  -26.4111   23.5618 C   0  0  0  0  0  0  0  0  0  0  0  0
  -20.4377  -25.8099   23.0888 C   0  0  0  0  0  0  0  0  0  0  0  0
  -26.3881  -26.7422   24.1976 C   0  0  0  0  0  0  0  0  0  0  0  0
  -29.8079  -12.2744   17.0042 C   0  0  0  0  0  0  0  0  0  0  0  0
  -28.5120  -13.8917   18.2461 C   0  0  0  0  0  0  0  0  0  0  0  0
  -27.4439  -19.1559   20.0285 C   0  0  0  0  0  0  0  0  0  0  0  0
  -28.9323  -18.1373   21.6361 C   0  0  0  0  0  0  0  0  0  0  0  0
  -22.4510  -13.5729   22.7944 C   0  0  0  0  0  0  0  0  0  0  0  0
  -21.8518  -13.4340   20.4580 C   0  0  0  0  0  0  0  0  0  0  0  0
  -27.5423  -26.3197   23.5395 C   0  0  0  0  0  0  0  0  0  0  0  0
  -31.1656  -15.8719   17.5693 C   0  0  0  0  0  0  0  0  0  0  0  0
  -31.5607  -17.1165   18.0597 C   0  0  0  0  0  0  0  0  0  0  0  0
  -27.6225  -28.4155   22.3476 C   0  0  0  0  0  0  0  0  0  0  0  0
  -29.7225  -18.1608   16.8903 C   0  0  0  0  0  0  0  0  0  0  0  0
  -28.6542  -11.6072   19.0194 C   0  0  0  0  0  0  0  0  0  0  0  0
  -26.7153  -17.2370   21.3028 C   0  0  0  0  0  0  0  0  0  0  0  0
  -23.6087  -14.9329   21.1674 C   0  0  0  0  0  0  0  0  0  0  0  0
  -29.0066  -10.2530   21.1523 C   0  0  0  0  0  0  0  0  0  0  0  0
  -18.5865  -27.3730   22.9577 C   0  0  0  0  0  0  0  0  0  0  0  0
  -25.8353  -28.0022   23.9272 C   0  0  0  0  0  0  0  0  0  0  0  0
  -19.9379  -27.0669   22.7083 C   0  0  0  0  0  0  0  0  0  0  0  0
  -26.4627  -28.8526   23.0055 C   0  0  0  0  0  0  0  0  0  0  0  0
  -29.3286  -13.5750   17.1604 C   0  0  0  0  0  0  0  0  0  0  0  0
  -28.6790  -19.1165   20.6755 C   0  0  0  0  0  0  0  0  0  0  0  0
  -21.6656  -13.0270   21.7792 C   0  0  0  0  0  0  0  0  0  0  0  0
  -28.1580  -27.1552   22.6122 C   0  0  0  0  0  0  0  0  0  0  0  0
  -30.0490  -15.7718   16.7392 C   0  0  0  0  0  0  0  0  0  0  0  0
  -30.8391  -18.2609   17.7203 C   0  0  0  0  0  0  0  0  0  0  0  0
  -29.3274  -16.9163   16.3998 C   0  0  0  0  0  0  0  0  0  0  0  0
  -28.3051  -10.5912   19.9795 C   0  0  0  0  0  0  0  0  0  0  0  0
  -28.2714   -9.2362   21.7109 C   0  0  0  0  0  0  0  0  0  0  0  0
  -25.6914  -16.2571   21.6299 C   0  0  0  0  0  0  0  0  0  0  0  0
  -24.6351  -15.9397   20.8443 C   0  0  0  0  0  0  0  0  0  0  0  0
  -30.2146  -10.8084   21.6888 C   0  0  0  0  0  0  0  0  0  0  0  0
  -23.0667  -29.0321   22.7533 C   0  0  0  0  0  0  0  0  0  0  0  0
  -24.2713  -31.9450   23.5190 C   0  0  0  0  0  0  0  0  0  0  0  0
  -27.0203  -33.8796   24.1081 C   0  0  0  0  0  0  0  0  0  0  0  0
  -29.1588  -26.6895   20.5701 C   0  0  0  0  0  0  0  0  0  1  0  0
  -22.5027   -7.6818   21.3147 C   0  0  0  0  0  0  0  0  0  0  0  0
  -17.9786  -28.6858   22.5314 C   0  0  0  0  0  0  0  0  0  0  0  0
  -24.6050  -28.4538   24.6652 C   0  0  0  0  0  0  0  0  0  0  0  0
  -25.9206  -30.2229   22.6944 C   0  0  0  0  0  0  0  0  0  0  0  0
  -19.0134  -29.7676   22.2325 C   0  0  0  0  0  0  0  0  0  0  0  0
  -25.3241   -5.6584   20.5261 C   0  0  0  0  0  0  0  0  0  0  0  0
  -20.1327  -29.2091   21.3596 C   0  0  0  0  0  0  0  0  0  0  0  0
  -26.4713   -6.6626   20.4024 C   0  0  0  0  0  0  0  0  0  0  0  0
  -24.0130   -6.2308   19.9919 C   0  0  0  0  0  0  0  0  0  0  0  0
  -24.7673   -8.5316   20.4512 C   0  0  0  0  0  0  0  0  0  0  0  0
  -20.8741  -28.0724   22.0735 C   0  0  1  0  0  0  0  0  0  0  0  0
  -23.8383  -29.5512   23.9335 C   0  0  1  0  0  0  0  0  0  0  0  0
  -26.0983   -8.0200   21.0284 C   0  0  2  0  0  0  0  0  0  0  0  0
  -27.6898  -36.2312   24.6732 C   0  0  0  0  0  0  0  0  0  0  0  0
  -23.7178  -32.7917   20.6403 C   0  0  0  0  0  0  0  0  0  0  0  0
  -25.2363  -34.7499   20.9979 C   0  0  0  0  0  0  0  0  0  0  0  0
  -23.1601  -34.5185   22.3613 C   0  0  0  0  0  0  0  0  0  0  0  0
  -28.2914  -33.0320   26.6428 C   0  0  0  0  0  0  0  0  0  0  0  0
  -30.4496  -26.2268   19.9383 C   0  0  0  0  0  0  0  0  0  0  0  0
  -30.8359  -24.8123   20.3616 C   0  0  0  0  0  0  0  0  0  0  0  0
  -29.8052  -23.7677   19.9241 C   0  0  0  0  0  0  0  0  0  0  0  0
  -30.2334  -22.3607   20.3367 C   0  0  0  0  0  0  0  0  0  0  0  0
  -20.0098   -9.8273   21.7540 C   0  0  0  0  0  0  0  0  0  0  0  0
  -21.1066   -9.2496   22.6384 C   0  0  0  0  0  0  0  0  0  0  0  0
  -29.1947  -21.3198   19.9437 C   0  0  0  0  0  0  0  0  0  0  0  0
  -20.4201  -11.1278   21.0738 C   0  0  0  0  0  0  0  0  0  0  0  0
  -25.1128  -32.9752   22.8051 C   0  0  1  0  0  0  0  0  0  0  0  0
  -27.3442  -34.8565   25.2241 C   0  0  2  0  0  0  0  0  0  0  0  0
  -24.3161  -33.7323   21.7054 C   0  0  0  0  0  0  0  0  0  0  0  0
  -27.2087   -9.8493   19.8024 N   0  0  0  0  0  0  0  0  0  0  0  0
  -27.2156   -9.0348   20.8713 N   0  0  0  0  0  0  0  0  0  0  0  0
  -24.7120  -30.6164   23.4373 N   0  0  0  0  0  0  0  0  0  0  0  0
  -23.7162   -7.5171   20.6268 N   0  0  0  0  0  0  0  0  0  0  0  0
  -28.4315   -8.5036   22.8334 N   0  0  0  0  0  0  0  0  0  0  0  0
  -30.8412  -11.8477   20.9877 N   0  0  0  0  0  0  0  0  0  0  0  0
  -21.7884  -28.6064   23.0601 N   0  0  0  0  0  0  0  0  0  0  0  0
  -25.6680  -33.8383   23.8420 N   0  0  0  0  0  0  0  0  0  0  0  0
  -22.3033   -8.9296   21.8926 N   0  0  0  0  0  0  0  0  0  0  0  0
  -28.5027  -34.3652   26.0225 N   0  3  0  0  0  0  0  0  0  0  0  0
  -30.7323  -10.3841   22.7498 O   0  0  0  0  0  0  0  0  0  0  0  0
  -23.5917  -29.0200   21.6461 O   0  0  0  0  0  0  0  0  0  0  0  0
  -23.2642  -32.3066   24.1326 O   0  0  0  0  0  0  0  0  0  0  0  0
  -27.8813  -33.2220   23.5278 O   0  0  0  0  0  0  0  0  0  0  0  0
  -28.1529  -26.9781   19.9340 O   0  0  0  0  0  0  0  0  0  0  0  0
  -21.6616   -6.7817   21.4115 O   0  0  0  0  0  0  0  0  0  0  0  0
  -29.6575  -14.5354   16.2537 O   0  0  0  0  0  0  0  0  0  0  0  0
  -29.2844  -26.7451   21.9680 O   0  0  0  0  0  0  0  0  0  1  0  0
  -29.6439  -20.0400   20.3673 O   0  0  0  0  0  0  0  0  0  0  0  0
  -20.7176  -12.0971   22.0776 O   0  0  0  0  0  0  0  0  0  0  0  0
  -31.2177  -19.4558   18.1926 F   0  0  0  0  0  0  0  0  0  0  0  0
  -28.2532  -16.8262   15.6037 F   0  0  0  0  0  0  0  0  0  0  0  0
  1  2  1  0  0  0  0
  1  9  2  0  0  0  0
  2 10  2  0  0  0  0
  3 12  2  0  0  0  0
  3 23  1  0  0  0  0
  4 13  1  0  0  0  0
  4 23  2  0  0  0  0
  5 14  2  0  0  0  0
  5 24  1  0  0  0  0
  6 15  1  0  0  0  0
  6 24  2  0  0  0  0
  7 16  2  0  0  0  0
  7 25  1  0  0  0  0
  8 17  1  0  0  0  0
  8 25  2  0  0  0  0
  9 27  1  0  0  0  0
 10 29  1  0  0  0  0
 11 18  2  0  0  0  0
 11 28  1  0  0  0  0
 12 31  1  0  0  0  0
 13 31  2  0  0  0  0
 14 32  1  0  0  0  0
 15 32  2  0  0  0  0
 16 33  1  0  0  0  0
 17 33  2  0  0  0  0
 18 34  1  0  0  0  0
 19 20  2  0  0  0  0
 19 35  1  0  0  0  0
 20 36  1  0  0  0  0
 21 30  1  0  0  0  0
 21 34  2  0  0  0  0
 22 36  2  0  0  0  0
 22 37  1  0  0  0  0
 23 38  1  0  0  0  0
 24 40  1  0  0  0  0
 25 41  1  0  0  0  0
 26 38  1  0  0  0  0
 26 39  2  0  0  0  0
 26 42  1  0  0  0  0
 27 29  2  0  0  0  0
 27 48  1  0  0  0  0
 28 30  2  0  0  0  0
 28 49  1  0  0  0  0
 29 57  1  0  0  0  0
 30 50  1  0  0  0  0
 31 92  1  0  0  0  0
 32 94  1  0  0  0  0
 33 95  1  0  0  0  0
 34 93  1  0  0  0  0
 35 37  2  0  0  0  0
 35 92  1  0  0  0  0
 36 96  1  0  0  0  0
 37 97  1  0  0  0  0
 38 76  2  0  0  0  0
 39 77  1  0  0  0  0
 39 80  1  0  0  0  0
 40 41  2  0  0  0  0
 42 81  1  0  0  0  0
 42 86  2  0  0  0  0
 43 58  1  0  0  0  0
 43 82  1  0  0  0  0
 43 87  2  0  0  0  0
 44 73  1  0  0  0  0
 44 78  1  0  0  0  0
 44 88  2  0  0  0  0
 45 74  1  0  0  0  0
 45 83  1  0  0  0  0
 45 89  2  0  0  0  0
 46 65  1  0  0  0  0
 46 90  2  0  0  0  0
 46 93  1  0  0  0  0
 47 79  1  0  0  0  0
 47 84  1  0  0  0  0
 47 91  2  0  0  0  0
 48 51  1  0  0  0  0
 49 58  1  0  0  0  0
 50 78  1  0  0  0  0
 51 53  1  0  0  0  0
 52 54  1  0  0  0  0
 52 55  1  0  0  0  0
 53 57  1  0  0  0  0
 54 59  1  0  0  0  0
 55 79  1  0  0  0  0
 56 59  1  0  0  0  0
 56 79  1  0  0  0  0
 57 82  1  0  0  0  0
 58 78  1  0  0  0  0
 59 77  1  0  0  0  0
 60 74  1  0  0  0  0
 61 75  1  0  0  0  0
 62 75  1  0  0  0  0
 63 75  1  0  0  0  0
 64 85  1  0  0  0  0
 65 66  1  0  0  0  0
 66 67  1  0  0  0  0
 67 68  1  0  0  0  0
 68 71  1  0  0  0  0
 69 70  1  0  0  0  0
 69 72  1  0  0  0  0
 70 84  1  0  0  0  0
 71 94  1  0  0  0  0
 72 95  1  0  0  0  0
 73 75  1  0  0  0  0
 73 83  1  0  0  0  0
 74 85  1  0  0  0  0
 76 77  1  0  0  0  0
M  CHG  1  85   1
M  ISO  4  46 101  47 100  84 100  93 101
M  END
> <Batch ID>
0000

> <Smiles>
CNC(C)C(=O)NC(C(=O)N1Cc2cc([101O:1][101C:1](=O)CCCCCOc3ccc(C=Cc4ccc(OCCC[100NH:0][100C:0](=O)N5CCCC(n6nc(-c7ccc(Oc8ccc(F)cc8F)cc7)c(C(N)=O)c6N)C5)cc4)cc3)ccc2CC1C(=O)NC1CCCc2ccccc21)C(C)(C)C

> <Shape>
0.286

> <Color>
0.100

> <Negative vol penalty>
0.000

$$$$

  -OEChem-04052315133D

 93101  0     1  0  0  0  0  0999 V2000
  -23.5854  -31.0386   16.6837 C   0  0  0  0  0  0  0  0  0  0  0  0
  -24.2101  -30.0407   17.4248 C   0  0  0  0  0  0  0  0  0  0  0  0
  -26.6427  -12.5349   21.7918 C   0  0  0  0  0  0  0  0  0  0  0  0
  -26.1211  -13.4033   19.5984 C   0  0  0  0  0  0  0  0  0  0  0  0
  -22.8078  -32.0002   17.3275 C   0  0  0  0  0  0  0  0  0  0  0  0
  -24.0584  -30.0045   18.8105 C   0  0  0  0  0  0  0  0  0  0  0  0
  -23.7644  -25.0174   22.3528 C   0  0  0  0  0  0  0  0  0  0  0  0
  -28.5714  -23.0213   20.1885 C   0  0  0  0  0  0  0  0  0  0  0  0
  -25.3868  -11.9310   21.8514 C   0  0  0  0  0  0  0  0  0  0  0  0
  -24.8651  -12.7994   19.6580 C   0  0  0  0  0  0  0  0  0  0  0  0
  -24.7176  -24.3624   23.1314 C   0  0  0  0  0  0  0  0  0  0  0  0
  -28.1049  -24.3268   20.0354 C   0  0  0  0  0  0  0  0  0  0  0  0
  -21.6591  -11.1852   19.0802 C   0  0  0  0  0  0  0  0  0  0  0  0
  -21.2153  -10.4972   17.9509 C   0  0  0  0  0  0  0  0  0  0  0  0
  -23.9482  -25.5660   25.0752 C   0  0  0  0  0  0  0  0  0  0  0  0
  -30.5537  -23.8585   21.2870 C   0  0  0  0  0  0  0  0  0  0  0  0
  -23.1204   -9.0192   18.1026 C   0  0  0  0  0  0  0  0  0  0  0  0
  -27.0098  -13.2712   20.6653 C   0  0  0  0  0  0  0  0  0  0  0  0
  -29.4963  -13.3368   20.0990 C   0  0  0  0  0  0  0  0  0  0  0  0
  -22.6386  -31.9701   18.7207 C   0  0  0  0  0  0  0  0  0  0  0  0
  -22.9018  -25.9612   22.9285 C   0  0  0  0  0  0  0  0  0  0  0  0
  -23.2789  -30.9674   19.4737 C   0  0  0  0  0  0  0  0  0  0  0  0
  -22.9832  -26.2297   24.3023 C   0  0  0  0  0  0  0  0  0  0  0  0
  -30.0872  -25.1641   21.1339 C   0  0  0  0  0  0  0  0  0  0  0  0
  -29.7958  -22.7871   20.8144 C   0  0  0  0  0  0  0  0  0  0  0  0
  -24.4980  -12.0632   20.7845 C   0  0  0  0  0  0  0  0  0  0  0  0
  -24.8115  -24.6387   24.4922 C   0  0  0  0  0  0  0  0  0  0  0  0
  -28.8627  -25.3982   20.5080 C   0  0  0  0  0  0  0  0  0  0  0  0
  -22.8336  -10.7902   19.7207 C   0  0  0  0  0  0  0  0  0  0  0  0
  -21.9459   -9.4142   17.4621 C   0  0  0  0  0  0  0  0  0  0  0  0
  -23.5643   -9.7072   19.2319 C   0  0  0  0  0  0  0  0  0  0  0  0
  -28.3068  -13.8958   20.6034 C   0  0  0  0  0  0  0  0  0  0  0  0
  -30.4369  -14.3238   20.2652 C   0  0  0  0  0  0  0  0  0  0  0  0
  -29.7301  -12.0413   19.5310 C   0  0  0  0  0  0  0  0  0  0  0  0
  -22.3782  -29.0688   22.5129 C   0  0  0  0  0  0  0  0  0  0  0  0
  -19.9509  -28.5417   24.5992 C   0  0  0  0  0  0  0  0  0  0  0  0
  -18.6510  -26.6276   27.1078 C   0  0  0  0  0  0  0  0  0  0  0  0
  -29.6480  -20.2774   20.5610 C   0  0  0  0  0  0  0  0  0  0  0  0
  -21.8271  -33.0588   19.3771 C   0  0  0  0  0  0  0  0  0  0  0  0
  -21.8612  -26.6395   22.0802 C   0  0  0  0  0  0  0  0  0  0  0  0
  -22.0670  -27.2195   24.9726 C   0  0  0  0  0  0  0  0  0  0  0  0
  -21.4115  -32.7297   20.8086 C   0  0  0  0  0  0  0  0  0  0  0  0
  -30.7241  -17.9708   23.4324 C   0  0  0  0  0  0  0  0  0  0  0  0
  -22.5975  -32.1823   21.5964 C   0  0  0  0  0  0  0  0  0  0  0  0
  -30.9708  -16.6853   22.6462 C   0  0  0  0  0  0  0  0  0  0  0  0
  -30.8259  -19.2125   22.5557 C   0  0  0  0  0  0  0  0  0  0  0  0
  -29.3478  -17.8592   21.0592 C   0  0  0  0  0  0  0  0  0  0  0  0
  -23.1181  -30.8802   20.9759 C   0  0  1  0  0  0  0  0  0  0  0  0
  -21.3766  -27.9599   22.6709 C   0  0  1  0  0  0  0  0  0  0  0  0
  -30.3626  -16.7180   21.2301 C   0  0  2  0  0  0  0  0  0  0  0  0
  -30.9114  -26.2990   21.6458 C   0  0  0  0  0  0  0  0  0  0  0  0
  -16.6690  -26.4677   28.6387 C   0  0  0  0  0  0  0  0  0  0  0  0
  -21.0764  -30.8186   26.2901 C   0  0  0  0  0  0  0  0  0  0  0  0
  -19.6784  -29.9992   28.1986 C   0  0  0  0  0  0  0  0  0  0  0  0
  -18.5826  -30.7924   26.1027 C   0  0  0  0  0  0  0  0  0  0  0  0
  -17.8820  -23.9825   26.0256 C   0  0  0  0  0  0  0  0  0  0  0  0
  -26.9522  -23.6091   24.6088 C   0  0  0  0  0  0  0  0  0  1  0  0
  -27.1403  -26.9746   20.9596 C   0  0  0  0  0  0  0  0  0  0  0  0
  -28.0798  -23.6198   25.6226 C   0  0  0  0  0  0  0  0  0  0  0  0
  -27.1249  -28.4368   21.3618 C   0  0  0  0  0  0  0  0  0  0  0  0
  -29.2455  -24.9954   27.1298 C   0  0  0  0  0  0  0  0  0  0  0  0
  -28.2022  -30.0321   22.7098 C   0  0  0  0  0  0  0  0  0  0  0  0
  -29.3399  -26.4137   27.6585 C   0  0  0  0  0  0  0  0  0  0  0  0
  -29.3177  -30.2150   23.7208 C   0  0  0  0  0  0  0  0  0  0  0  0
  -29.7381  -28.6397   27.0188 C   0  0  0  0  0  0  0  0  0  0  0  0
  -30.0790  -29.5220   25.8334 C   0  0  0  0  0  0  0  0  0  0  0  0
  -19.8051  -28.5793   26.1013 C   0  0  1  0  0  0  0  0  0  0  0  0
  -17.2679  -26.0351   27.3094 C   0  0  2  0  0  0  0  0  0  0  0  0
  -19.8043  -30.0301   26.6605 C   0  0  0  0  0  0  0  0  0  0  0  0
  -28.4738  -15.1412   21.0562 N   0  0  0  0  0  0  0  0  0  0  0  0
  -29.7793  -15.3729   20.8370 N   0  0  0  0  0  0  0  0  0  0  0  0
  -21.0704  -27.8615   24.0995 N   0  0  0  0  0  0  0  0  0  0  0  0
  -29.9521  -19.1587   21.3747 N   0  0  0  0  0  0  0  0  0  0  0  0
  -31.7541  -14.3878   19.9765 N   0  0  0  0  0  0  0  0  0  0  0  0
  -28.6530  -11.1496   19.4349 N   0  0  0  0  0  0  0  0  0  0  0  0
  -30.2695  -21.4603   20.9699 N   0  0  0  0  0  0  0  0  0  0  0  0
  -22.2569  -29.7721   21.3297 N   0  0  0  0  0  0  0  0  0  0  0  0
  -18.6005  -27.8179   26.4137 N   0  0  0  0  0  0  0  0  0  0  0  0
  -17.3336  -24.5465   27.2858 N   0  3  0  0  0  0  0  0  0  0  0  0
  -30.8641  -11.6790   19.1358 O   0  0  0  0  0  0  0  0  0  0  0  0
  -23.1993  -29.2722   23.3996 O   0  0  0  0  0  0  0  0  0  0  0  0
  -19.0989  -29.0893   23.8950 O   0  0  0  0  0  0  0  0  0  0  0  0
  -19.6735  -26.0902   27.5276 O   0  0  0  0  0  0  0  0  0  0  0  0
  -28.9086  -20.1825   19.5791 O   0  0  0  0  0  0  0  0  0  0  0  0
  -23.2725  -11.4738   20.8422 O   0  0  0  0  0  0  0  0  0  0  0  0
  -25.7414  -24.0013   25.2543 O   0  0  0  0  0  0  0  0  0  1  0  0
  -28.3895  -26.6742   20.3493 O   0  0  0  0  0  0  0  0  0  0  0  0
  -28.2000  -24.9270   26.1702 O   0  0  0  0  0  0  0  0  0  0  0  0
  -28.1691  -28.6715   22.2962 O   0  0  0  0  0  0  0  0  0  0  0  0
  -29.6375  -27.2922   26.5800 O   0  0  0  0  0  0  0  0  0  0  0  0
  -29.0607  -29.3905   24.8489 O   0  0  0  0  0  0  0  0  0  0  0  0
  -21.5188   -8.7527   16.3786 F   0  0  0  0  0  0  0  0  0  0  0  0
  -24.6928   -9.3224   19.8436 F   0  0  0  0  0  0  0  0  0  0  0  0
  1  2  1  0  0  0  0
  1  5  2  0  0  0  0
  2  6  2  0  0  0  0
  3  9  2  0  0  0  0
  3 18  1  0  0  0  0
  4 10  1  0  0  0  0
  4 18  2  0  0  0  0
  5 20  1  0  0  0  0
  6 22  1  0  0  0  0
  7 11  2  0  0  0  0
  7 21  1  0  0  0  0
  8 12  2  0  0  0  0
  8 25  1  0  0  0  0
  9 26  1  0  0  0  0
 10 26  2  0  0  0  0
 11 27  1  0  0  0  0
 12 28  1  0  0  0  0
 13 14  2  0  0  0  0
 13 29  1  0  0  0  0
 14 30  1  0  0  0  0
 15 23  1  0  0  0  0
 15 27  2  0  0  0  0
 16 24  1  0  0  0  0
 16 25  2  0  0  0  0
 17 30  2  0  0  0  0
 17 31  1  0  0  0  0
 18 32  1  0  0  0  0
 19 32  1  0  0  0  0
 19 33  2  0  0  0  0
 19 34  1  0  0  0  0
 20 22  2  0  0  0  0
 20 39  1  0  0  0  0
 21 23  2  0  0  0  0
 21 40  1  0  0  0  0
 22 48  1  0  0  0  0
 23 41  1  0  0  0  0
 24 28  2  0  0  0  0
 24 51  1  0  0  0  0
 25 76  1  0  0  0  0
 26 85  1  0  0  0  0
 27 86  1  0  0  0  0
 28 87  1  0  0  0  0
 29 31  2  0  0  0  0
 29 85  1  0  0  0  0
 30 92  1  0  0  0  0
 31 93  1  0  0  0  0
 32 70  2  0  0  0  0
 33 71  1  0  0  0  0
 33 74  1  0  0  0  0
 34 75  1  0  0  0  0
 34 80  2  0  0  0  0
 35 49  1  0  0  0  0
 35 77  1  0  0  0  0
 35 81  2  0  0  0  0
 36 67  1  0  0  0  0
 36 72  1  0  0  0  0
 36 82  2  0  0  0  0
 37 68  1  0  0  0  0
 37 78  1  0  0  0  0
 37 83  2  0  0  0  0
 38 73  1  0  0  0  0
 38 76  1  0  0  0  0
 38 84  2  0  0  0  0
 39 42  1  0  0  0  0
 40 49  1  0  0  0  0
 41 72  1  0  0  0  0
 42 44  1  0  0  0  0
 43 45  1  0  0  0  0
 43 46  1  0  0  0  0
 44 48  1  0  0  0  0
 45 50  1  0  0  0  0
 46 73  1  0  0  0  0
 47 50  1  0  0  0  0
 47 73  1  0  0  0  0
 48 77  1  0  0  0  0
 49 72  1  0  0  0  0
 50 71  1  0  0  0  0
 52 68  1  0  0  0  0
 53 69  1  0  0  0  0
 54 69  1  0  0  0  0
 55 69  1  0  0  0  0
 56 79  1  0  0  0  0
 57 59  1  0  0  0  0
 57 86  1  0  0  0  0
 58 60  1  0  0  0  0
 58 87  1  0  0  0  0
 59 88  1  0  0  0  0
 60 89  1  0  0  0  0
 61 63  1  0  0  0  0
 61 88  1  0  0  0  0
 62 64  1  0  0  0  0
 62 89  1  0  0  0  0
 63 90  1  0  0  0  0
 64 91  1  0  0  0  0
 65 66  1  0  0  0  0
 65 90  1  0  0  0  0
 66 91  1  0  0  0  0
 67 69  1  0  0  0  0
 67 78  1  0  0  0  0
 68 79  1  0  0  0  0
 70 71  1  0  0  0  0
M  CHG  1  79   1
M  ISO  4  38 100  57 101  76 100  86 101
M  END
> <Batch ID>
0000

> <Smiles>
CNC(C)C(=O)NC(C(=O)N1Cc2cc([101O:1][101CH2:1]COCCOCCOCCOCCOc3ccc([100NH:0][100C:0](=O)N4CCCC(n5nc(-c6ccc(Oc7ccc(F)cc7F)cc6)c(C(N)=O)c5N)C4)cc3C)ccc2CC1C(=O)NC1CCCc2ccccc21)C(C)(C)C

> <Shape>
0.235

> <Color>
0.076

> <Negative vol penalty>
0.000

$$$$

  -OEChem-04052315133D

 88 96  0     1  0  0  0  0  0999 V2000
  -18.6793  -23.3833   24.9231 C   0  0  0  0  0  0  0  0  0  0  0  0
  -19.3824  -22.5864   24.0253 C   0  0  0  0  0  0  0  0  0  0  0  0
  -30.1613  -25.3333   18.1125 C   0  0  0  0  0  0  0  0  0  0  0  0
  -25.8953  -13.8999   21.7524 C   0  0  0  0  0  0  0  0  0  0  0  0
  -24.8868  -15.0209   19.8647 C   0  0  0  0  0  0  0  0  0  0  0  0
  -30.7541  -24.8764   16.9355 C   0  0  0  0  0  0  0  0  0  0  0  0
  -18.6005  -24.7601   24.7178 C   0  0  0  0  0  0  0  0  0  0  0  0
  -20.0062  -23.1659   22.9210 C   0  0  0  0  0  0  0  0  0  0  0  0
  -25.7647  -22.4093   18.7277 C   0  0  0  0  0  0  0  0  0  0  0  0
  -29.7966  -24.4263   19.1075 C   0  0  0  0  0  0  0  0  0  0  0  0
  -24.8464  -12.9806   21.7670 C   0  0  0  0  0  0  0  0  0  0  0  0
  -23.8379  -14.1016   19.8792 C   0  0  0  0  0  0  0  0  0  0  0  0
  -26.1105  -22.3076   17.3809 C   0  0  0  0  0  0  0  0  0  0  0  0
  -22.6202  -10.1232   22.0736 C   0  0  0  0  0  0  0  0  0  0  0  0
  -22.9423   -8.7739   22.2193 C   0  0  0  0  0  0  0  0  0  0  0  0
  -30.6174  -22.6053   17.7483 C   0  0  0  0  0  0  0  0  0  0  0  0
  -25.9739  -24.7069   17.1708 C   0  0  0  0  0  0  0  0  0  0  0  0
  -24.2524   -8.8677   20.1915 C   0  0  0  0  0  0  0  0  0  0  0  0
  -25.9156  -14.9201   20.8013 C   0  0  0  0  0  0  0  0  0  0  0  0
  -30.9821  -23.5124   16.7534 C   0  0  0  0  0  0  0  0  0  0  0  0
  -28.2103  -15.7669   20.0772 C   0  0  0  0  0  0  0  0  0  0  0  0
  -19.2318  -25.3579   23.6157 C   0  0  0  0  0  0  0  0  0  0  0  0
  -25.5099  -23.6619   19.3045 C   0  0  0  0  0  0  0  0  0  0  0  0
  -19.9346  -24.5518   22.7000 C   0  0  0  0  0  0  0  0  0  0  0  0
  -25.6276  -24.8220   18.5258 C   0  0  0  0  0  0  0  0  0  0  0  0
  -30.0246  -23.0623   18.9254 C   0  0  0  0  0  0  0  0  0  0  0  0
  -23.8176  -13.0815   20.8304 C   0  0  0  0  0  0  0  0  0  0  0  0
  -26.2123  -23.4562   16.6015 C   0  0  0  0  0  0  0  0  0  0  0  0
  -23.1141  -10.8448   20.9869 C   0  0  0  0  0  0  0  0  0  0  0  0
  -23.7584   -8.1462   21.2782 C   0  0  0  0  0  0  0  0  0  0  0  0
  -23.9302  -10.2171   20.0458 C   0  0  0  0  0  0  0  0  0  0  0  0
  -26.9986  -15.8703   20.7862 C   0  0  0  0  0  0  0  0  0  0  0  0
  -28.8927  -16.9161   20.3940 C   0  0  0  0  0  0  0  0  0  0  0  0
  -31.6136  -23.0272   15.4992 C   0  0  0  0  0  0  0  0  0  0  0  0
  -28.6774  -14.7253   19.2097 C   0  0  0  0  0  0  0  0  0  0  0  0
  -22.9891  -25.0286   20.6762 C   0  0  0  0  0  0  0  0  0  0  0  0
  -25.1055  -27.4076   21.2954 C   0  0  0  0  0  0  0  0  0  0  0  0
  -28.0123  -28.9892   20.4611 C   0  0  0  0  0  0  0  0  0  0  0  0
  -29.0569  -22.4283   21.1632 C   0  0  0  0  0  0  0  0  0  0  0  0
  -19.0790  -26.8442   23.4097 C   0  0  0  0  0  0  0  0  0  0  0  0
  -25.1641  -23.7567   20.7653 C   0  0  0  0  0  0  0  0  0  0  0  0
  -25.3839  -26.1920   19.1021 C   0  0  0  0  0  0  0  0  0  0  0  0
  -20.0830  -27.4282   22.4192 C   0  0  0  0  0  0  0  0  0  0  0  0
  -27.9574  -20.4404   23.9049 C   0  0  0  0  0  0  0  0  0  0  0  0
  -20.1623  -26.5620   21.1661 C   0  0  0  0  0  0  0  0  0  0  0  0
  -27.7096  -19.0657   23.2796 C   0  0  0  0  0  0  0  0  0  0  0  0
  -27.5657  -21.5732   22.9577 C   0  0  0  0  0  0  0  0  0  0  0  0
  -27.9212  -20.1266   20.9955 C   0  0  0  0  0  0  0  0  0  0  0  0
  -20.6456  -25.1464   21.5037 C   0  0  1  0  0  0  0  0  0  0  0  0
  -24.4240  -25.0423   21.1218 C   0  0  1  0  0  0  0  0  0  0  0  0
  -28.3614  -18.9541   21.8873 C   0  0  2  0  0  0  0  0  0  0  0  0
  -29.9227  -30.6048   20.6550 C   0  0  0  0  0  0  0  0  0  0  0  0
  -23.1373  -29.3314   19.9781 C   0  0  0  0  0  0  0  0  0  0  0  0
  -24.9911  -31.0063   19.8152 C   0  0  0  0  0  0  0  0  0  0  0  0
  -24.2253  -30.2097   22.0516 C   0  0  0  0  0  0  0  0  0  0  0  0
  -29.5791  -27.1156   22.1326 C   0  0  0  0  0  0  0  0  0  0  0  0
  -33.1104  -23.6144   13.6095 C   0  0  0  0  0  0  0  0  0  0  0  0
  -32.2252  -24.0118   12.4424 C   0  0  0  0  0  0  0  0  0  0  0  0
  -26.7842  -22.0501   14.7707 C   0  0  0  0  0  0  0  0  0  1  0  0
  -27.1492  -22.1544   13.3026 C   0  0  0  0  0  0  0  0  0  0  0  0
  -29.9861  -23.8987   11.7379 C   0  0  0  0  0  0  0  0  0  0  0  0
  -28.7295  -23.0530   11.8133 C   0  0  0  0  0  0  0  0  0  0  0  0
  -25.5569  -28.6525   20.5704 C   0  0  1  0  0  0  0  0  0  0  0  0
  -29.1917  -29.4398   21.3040 C   0  0  2  0  0  0  0  0  0  0  0  0
  -24.4804  -29.7741   20.5922 C   0  0  0  0  0  0  0  0  0  0  0  0
  -26.9131  -16.9961   21.4998 N   0  0  0  0  0  0  0  0  0  0  0  0
  -28.0799  -17.6107   21.2408 N   0  0  0  0  0  0  0  0  0  0  0  0
  -25.0424  -26.2322   20.5337 N   0  0  0  0  0  0  0  0  0  0  0  0
  -28.2241  -21.4036   21.6605 N   0  0  0  0  0  0  0  0  0  0  0  0
  -30.1026  -17.3900   20.0281 N   0  0  0  0  0  0  0  0  0  0  0  0
  -27.8500  -13.6149   18.9932 N   0  0  0  0  0  0  0  0  0  0  0  0
  -29.6544  -22.1411   19.9363 N   0  0  0  0  0  0  0  0  0  0  0  0
  -32.4274  -23.9368   14.8833 N   0  0  0  0  0  0  0  0  0  0  0  0
  -22.0780  -25.1370   21.7095 N   0  0  0  0  0  0  0  0  0  0  0  0
  -26.8306  -29.0349   21.1701 N   0  0  0  0  0  0  0  0  0  0  0  0
  -30.1582  -28.3198   21.4833 N   0  3  0  0  0  0  0  0  0  0  0  0
  -31.3599  -21.8940   15.0991 O   0  0  0  0  0  0  0  0  0  0  0  0
  -29.8022  -14.7700   18.6562 O   0  0  0  0  0  0  0  0  0  0  0  0
  -22.7279  -24.9287   19.4831 O   0  0  0  0  0  0  0  0  0  0  0  0
  -24.8263  -27.4742   22.4950 O   0  0  0  0  0  0  0  0  0  0  0  0
  -28.1273  -28.6357   19.2896 O   0  0  0  0  0  0  0  0  0  0  0  0
  -29.2490  -23.4715   21.7931 O   0  0  0  0  0  0  0  0  0  0  0  0
  -22.7940  -12.1845   20.8441 O   0  0  0  0  0  0  0  0  0  0  0  0
  -26.5490  -23.3597   15.2866 O   0  0  0  0  0  0  0  0  0  1  0  0
  -31.0137  -23.2716   12.4957 O   0  0  0  0  0  0  0  0  0  0  0  0
  -28.3394  -22.9225   13.1732 O   0  0  0  0  0  0  0  0  0  0  0  0
  -24.0689   -6.8508   21.4191 F   0  0  0  0  0  0  0  0  0  0  0  0
  -24.4087  -10.9054   19.0003 F   0  0  0  0  0  0  0  0  0  0  0  0
  1  2  1  0  0  0  0
  1  7  2  0  0  0  0
  2  8  2  0  0  0  0
  3  6  2  0  0  0  0
  3 10  1  0  0  0  0
  4 11  2  0  0  0  0
  4 19  1  0  0  0  0
  5 12  1  0  0  0  0
  5 19  2  0  0  0  0
  6 20  1  0  0  0  0
  7 22  1  0  0  0  0
  8 24  1  0  0  0  0
  9 13  2  0  0  0  0
  9 23  1  0  0  0  0
 10 26  2  0  0  0  0
 11 27  1  0  0  0  0
 12 27  2  0  0  0  0
 13 28  1  0  0  0  0
 14 15  2  0  0  0  0
 14 29  1  0  0  0  0
 15 30  1  0  0  0  0
 16 20  2  0  0  0  0
 16 26  1  0  0  0  0
 17 25  1  0  0  0  0
 17 28  2  0  0  0  0
 18 30  2  0  0  0  0
 18 31  1  0  0  0  0
 19 32  1  0  0  0  0
 20 34  1  0  0  0  0
 21 32  1  0  0  0  0
 21 33  2  0  0  0  0
 21 35  1  0  0  0  0
 22 24  2  0  0  0  0
 22 40  1  0  0  0  0
 23 25  2  0  0  0  0
 23 41  1  0  0  0  0
 24 49  1  0  0  0  0
 25 42  1  0  0  0  0
 26 72  1  0  0  0  0
 27 83  1  0  0  0  0
 28 84  1  0  0  0  0
 29 31  2  0  0  0  0
 29 83  1  0  0  0  0
 30 87  1  0  0  0  0
 31 88  1  0  0  0  0
 32 66  2  0  0  0  0
 33 67  1  0  0  0  0
 33 70  1  0  0  0  0
 34 73  1  0  0  0  0
 34 77  2  0  0  0  0
 35 71  1  0  0  0  0
 35 78  2  0  0  0  0
 36 50  1  0  0  0  0
 36 74  1  0  0  0  0
 36 79  2  0  0  0  0
 37 63  1  0  0  0  0
 37 68  1  0  0  0  0
 37 80  2  0  0  0  0
 38 64  1  0  0  0  0
 38 75  1  0  0  0  0
 38 81  2  0  0  0  0
 39 69  1  0  0  0  0
 39 72  1  0  0  0  0
 39 82  2  0  0  0  0
 40 43  1  0  0  0  0
 41 50  1  0  0  0  0
 42 68  1  0  0  0  0
 43 45  1  0  0  0  0
 44 46  1  0  0  0  0
 44 47  1  0  0  0  0
 45 49  1  0  0  0  0
 46 51  1  0  0  0  0
 47 69  1  0  0  0  0
 48 51  1  0  0  0  0
 48 69  1  0  0  0  0
 49 74  1  0  0  0  0
 50 68  1  0  0  0  0
 51 67  1  0  0  0  0
 52 64  1  0  0  0  0
 53 65  1  0  0  0  0
 54 65  1  0  0  0  0
 55 65  1  0  0  0  0
 56 76  1  0  0  0  0
 57 58  1  0  0  0  0
 57 73  1  0  0  0  0
 58 85  1  0  0  0  0
 59 60  1  0  0  0  0
 59 84  1  0  0  0  0
 60 86  1  0  0  0  0
 61 62  1  0  0  0  0
 61 85  1  0  0  0  0
 62 86  1  0  0  0  0
 63 65  1  0  0  0  0
 63 75  1  0  0  0  0
 64 76  1  0  0  0  0
 66 67  1  0  0  0  0
M  CHG  1  76   1
M  ISO  4  39 100  59 101  72 100  84 101
M  END
> <Batch ID>
0000

> <Smiles>
CNC(C)C(=O)NC(C(=O)N1Cc2cc([101O:1][101CH2:1]COCCOCCNC(=O)c3cccc([100NH:0][100C:0](=O)N4CCCC(n5nc(-c6ccc(Oc7ccc(F)cc7F)cc6)c(C(N)=O)c5N)C4)c3)ccc2CC1C(=O)NC1CCCc2ccccc21)C(C)(C)C

> <Shape>
0.236

> <Color>
0.035

> <Negative vol penalty>
0.000

$$$$

  -OEChem-04052315133D

 97105  0     1  0  0  0  0  0999 V2000
  -29.6760  -26.0018   16.3024 C   0  0  0  0  0  0  0  0  0  0  0  0
  -28.2968  -26.0569   16.4758 C   0  0  0  0  0  0  0  0  0  0  0  0
  -23.4599  -25.6791   18.9430 C   0  0  0  0  0  0  0  0  0  0  0  0
  -28.0837  -14.1829   23.7453 C   0  0  0  0  0  0  0  0  0  0  0  0
  -26.8102  -13.8624   21.7173 C   0  0  0  0  0  0  0  0  0  0  0  0
  -22.5555  -25.0252   18.1063 C   0  0  0  0  0  0  0  0  0  0  0  0
  -30.5239  -26.3009   17.3681 C   0  0  0  0  0  0  0  0  0  0  0  0
  -27.7646  -26.4100   17.7154 C   0  0  0  0  0  0  0  0  0  0  0  0
  -22.6431  -29.6055   18.7476 C   0  0  0  0  0  0  0  0  0  0  0  0
  -24.3919  -24.9424   19.6740 C   0  0  0  0  0  0  0  0  0  0  0  0
  -27.4804  -13.0553   24.3023 C   0  0  0  0  0  0  0  0  0  0  0  0
  -26.2070  -12.7348   22.2744 C   0  0  0  0  0  0  0  0  0  0  0  0
  -21.3446  -29.2166   19.0737 C   0  0  0  0  0  0  0  0  0  0  0  0
  -27.0053   -9.4960   22.8159 C   0  0  0  0  0  0  0  0  0  0  0  0
  -26.9052   -8.3558   22.0186 C   0  0  0  0  0  0  0  0  0  0  0  0
  -23.5151  -22.8979   18.7315 C   0  0  0  0  0  0  0  0  0  0  0  0
  -21.8275  -29.5834   21.4085 C   0  0  0  0  0  0  0  0  0  0  0  0
  -24.4991   -8.4208   22.2279 C   0  0  0  0  0  0  0  0  0  0  0  0
  -27.7486  -14.5864   22.4528 C   0  0  0  0  0  0  0  0  0  0  0  0
  -22.5830  -23.6347   18.0006 C   0  0  0  0  0  0  0  0  0  0  0  0
  -29.5593  -15.7956   21.1236 C   0  0  0  0  0  0  0  0  0  0  0  0
  -30.0019  -26.6672   18.6186 C   0  0  0  0  0  0  0  0  0  0  0  0
  -23.5485  -29.9764   19.7522 C   0  0  0  0  0  0  0  0  0  0  0  0
  -28.6062  -26.7129   18.7991 C   0  0  0  0  0  0  0  0  0  0  0  0
  -23.1361  -29.9791   21.0924 C   0  0  0  0  0  0  0  0  0  0  0  0
  -24.4195  -23.5518   19.5682 C   0  0  0  0  0  0  0  0  0  0  0  0
  -26.5421  -12.3313   23.5669 C   0  0  0  0  0  0  0  0  0  0  0  0
  -20.9375  -29.2028   20.4045 C   0  0  0  0  0  0  0  0  0  0  0  0
  -25.8524  -10.0985   23.3193 C   0  0  0  0  0  0  0  0  0  0  0  0
  -25.6521   -7.8183   21.7246 C   0  0  0  0  0  0  0  0  0  0  0  0
  -24.5993   -9.5609   23.0252 C   0  0  0  0  0  0  0  0  0  0  0  0
  -28.3710  -15.7514   21.8770 C   0  0  0  0  0  0  0  0  0  0  0  0
  -29.7193  -17.1237   20.8122 C   0  0  0  0  0  0  0  0  0  0  0  0
  -21.6192  -22.9396   17.1089 C   0  0  0  0  0  0  0  0  0  0  0  0
  -30.4398  -14.7312   20.7395 C   0  0  0  0  0  0  0  0  0  0  0  0
  -26.3417  -28.8592   20.7786 C   0  0  0  0  0  0  0  0  0  0  0  0
  -26.2785  -31.5154   22.6395 C   0  0  0  0  0  0  0  0  0  0  0  0
  -24.4237  -33.9350   24.1731 C   0  0  0  0  0  0  0  0  0  0  0  0
  -25.5369  -21.4166   20.3276 C   0  0  0  0  0  0  0  0  0  0  0  0
  -30.9578  -26.9357   19.7539 C   0  0  0  0  0  0  0  0  0  0  0  0
  -24.9375  -30.4190   19.3817 C   0  0  0  0  0  0  0  0  0  0  0  0
  -24.0635  -30.3878   22.2066 C   0  0  0  0  0  0  0  0  0  0  0  0
  -30.3157  -27.6651   20.9312 C   0  0  0  0  0  0  0  0  0  0  0  0
  -28.2205  -21.1402   23.0563 C   0  0  0  0  0  0  0  0  0  0  0  0
  -28.9788  -27.0248   21.2910 C   0  0  0  0  0  0  0  0  0  0  0  0
  -29.0711  -20.0197   22.4628 C   0  0  0  0  0  0  0  0  0  0  0  0
  -27.4104  -21.8742   21.9953 C   0  0  0  0  0  0  0  0  0  0  0  0
  -26.8477  -19.5389   21.2985 C   0  0  0  0  0  0  0  0  0  0  0  0
  -27.9910  -27.1159   20.1217 C   0  0  1  0  0  0  0  0  0  0  0  0
  -25.9337  -30.2836   20.5292 C   0  0  1  0  0  0  0  0  0  0  0  0
  -28.3578  -19.2562   21.3293 C   0  0  2  0  0  0  0  0  0  0  0  0
  -24.6497  -35.9471   25.6555 C   0  0  0  0  0  0  0  0  0  0  0  0
  -26.7367  -29.6910   25.0419 C   0  0  0  0  0  0  0  0  0  0  0  0
  -26.0128  -31.5755   26.5228 C   0  0  0  0  0  0  0  0  0  0  0  0
  -28.0391  -31.8255   25.0895 C   0  0  0  0  0  0  0  0  0  0  0  0
  -23.2534  -35.7206   22.1235 C   0  0  0  0  0  0  0  0  0  0  0  0
  -19.3701  -23.0369   16.0659 C   0  0  0  0  0  0  0  0  0  0  0  0
  -18.4401  -22.2000   16.9252 C   0  0  0  0  0  0  0  0  0  0  0  0
  -19.0397  -27.8742   19.8666 C   0  0  0  0  0  0  0  0  0  1  0  0
  -18.0607  -27.0469   20.6769 C   0  0  0  0  0  0  0  0  0  0  0  0
  -18.3385  -20.3113   18.3200 C   0  0  0  0  0  0  0  0  0  0  0  0
  -19.2102  -19.5011   19.2600 C   0  0  0  0  0  0  0  0  0  0  0  0
  -17.8919  -25.5978   22.5193 C   0  0  0  0  0  0  0  0  0  0  0  0
  -18.6996  -24.9067   23.6010 C   0  0  0  0  0  0  0  0  0  0  0  0
  -20.8200  -19.6808   20.9627 C   0  0  0  0  0  0  0  0  0  0  0  0
  -21.6315  -20.6773   21.7679 C   0  0  0  0  0  0  0  0  0  0  0  0
  -20.4580  -23.3894   23.9594 C   0  0  0  0  0  0  0  0  0  0  0  0
  -21.4541  -22.4925   23.2499 C   0  0  0  0  0  0  0  0  0  0  0  0
  -25.7506  -31.8449   24.0149 C   0  0  1  0  0  0  0  0  0  0  0  0
  -24.5795  -35.4442   24.2220 C   0  0  2  0  0  0  0  0  0  0  0  0
  -26.6177  -31.2246   25.1467 C   0  0  0  0  0  0  0  0  0  0  0  0
  -27.8155  -16.9558   22.0349 N   0  0  0  0  0  0  0  0  0  0  0  0
  -28.6586  -17.7692   21.3764 N   0  0  0  0  0  0  0  0  0  0  0  0
  -25.4133  -30.8065   21.7941 N   0  0  0  0  0  0  0  0  0  0  0  0
  -26.5790  -20.9767   21.1802 N   0  0  0  0  0  0  0  0  0  0  0  0
  -30.6625  -17.7907   20.1137 N   0  0  0  0  0  0  0  0  0  0  0  0
  -30.1264  -13.4262   21.1434 N   0  0  0  0  0  0  0  0  0  0  0  0
  -25.3668  -22.8035   20.3108 N   0  0  0  0  0  0  0  0  0  0  0  0
  -20.4444  -23.6095   16.9089 N   0  0  0  0  0  0  0  0  0  0  0  0
  -27.4315  -28.4478   20.0353 N   0  0  0  0  0  0  0  0  0  0  0  0
  -25.6428  -33.2986   24.0733 N   0  0  0  0  0  0  0  0  0  0  0  0
  -23.4270  -36.1060   23.5477 N   0  3  0  0  0  0  0  0  0  0  0  0
  -21.9164  -21.8427   16.6430 O   0  0  0  0  0  0  0  0  0  0  0  0
  -31.4825  -14.9337   20.0721 O   0  0  0  0  0  0  0  0  0  0  0  0
  -25.7152  -28.1839   21.5867 O   0  0  0  0  0  0  0  0  0  0  0  0
  -27.4140  -31.8801   22.3241 O   0  0  0  0  0  0  0  0  0  0  0  0
  -23.3301  -33.3763   24.2225 O   0  0  0  0  0  0  0  0  0  0  0  0
  -24.8660  -20.6244   19.6626 O   0  0  0  0  0  0  0  0  0  0  0  0
  -25.9534  -11.2308   24.1100 O   0  0  0  0  0  0  0  0  0  0  0  0
  -19.6707  -28.8230   20.7256 O   0  0  0  0  0  0  0  0  0  1  0  0
  -19.1699  -21.1267   17.5031 O   0  0  0  0  0  0  0  0  0  0  0  0
  -18.7634  -26.3903   21.7250 O   0  0  0  0  0  0  0  0  0  0  0  0
  -19.9804  -20.3886   20.0586 O   0  0  0  0  0  0  0  0  0  0  0  0
  -19.6695  -24.0647   22.9896 O   0  0  0  0  0  0  0  0  0  0  0  0
  -20.7450  -21.5336   22.4745 O   0  0  0  0  0  0  0  0  0  0  0  0
  -25.5560   -6.7243   20.9576 F   0  0  0  0  0  0  0  0  0  0  0  0
  -23.4880  -10.1361   23.5050 F   0  0  0  0  0  0  0  0  0  0  0  0
  1  2  1  0  0  0  0
  1  7  2  0  0  0  0
  2  8  2  0  0  0  0
  3  6  2  0  0  0  0
  3 10  1  0  0  0  0
  4 11  2  0  0  0  0
  4 19  1  0  0  0  0
  5 12  1  0  0  0  0
  5 19  2  0  0  0  0
  6 20  1  0  0  0  0
  7 22  1  0  0  0  0
  8 24  1  0  0  0  0
  9 13  2  0  0  0  0
  9 23  1  0  0  0  0
 10 26  2  0  0  0  0
 11 27  1  0  0  0  0
 12 27  2  0  0  0  0
 13 28  1  0  0  0  0
 14 15  2  0  0  0  0
 14 29  1  0  0  0  0
 15 30  1  0  0  0  0
 16 20  2  0  0  0  0
 16 26  1  0  0  0  0
 17 25  1  0  0  0  0
 17 28  2  0  0  0  0
 18 30  2  0  0  0  0
 18 31  1  0  0  0  0
 19 32  1  0  0  0  0
 20 34  1  0  0  0  0
 21 32  1  0  0  0  0
 21 33  2  0  0  0  0
 21 35  1  0  0  0  0
 22 24  2  0  0  0  0
 22 40  1  0  0  0  0
 23 25  2  0  0  0  0
 23 41  1  0  0  0  0
 24 49  1  0  0  0  0
 25 42  1  0  0  0  0
 26 78  1  0  0  0  0
 27 89  1  0  0  0  0
 28 90  1  0  0  0  0
 29 31  2  0  0  0  0
 29 89  1  0  0  0  0
 30 96  1  0  0  0  0
 31 97  1  0  0  0  0
 32 72  2  0  0  0  0
 33 73  1  0  0  0  0
 33 76  1  0  0  0  0
 34 79  1  0  0  0  0
 34 83  2  0  0  0  0
 35 77  1  0  0  0  0
 35 84  2  0  0  0  0
 36 50  1  0  0  0  0
 36 80  1  0  0  0  0
 36 85  2  0  0  0  0
 37 69  1  0  0  0  0
 37 74  1  0  0  0  0
 37 86  2  0  0  0  0
 38 70  1  0  0  0  0
 38 81  1  0  0  0  0
 38 87  2  0  0  0  0
 39 75  1  0  0  0  0
 39 78  1  0  0  0  0
 39 88  2  0  0  0  0
 40 43  1  0  0  0  0
 41 50  1  0  0  0  0
 42 74  1  0  0  0  0
 43 45  1  0  0  0  0
 44 46  1  0  0  0  0
 44 47  1  0  0  0  0
 45 49  1  0  0  0  0
 46 51  1  0  0  0  0
 47 75  1  0  0  0  0
 48 51  1  0  0  0  0
 48 75  1  0  0  0  0
 49 80  1  0  0  0  0
 50 74  1  0  0  0  0
 51 73  1  0  0  0  0
 52 70  1  0  0  0  0
 53 71  1  0  0  0  0
 54 71  1  0  0  0  0
 55 71  1  0  0  0  0
 56 82  1  0  0  0  0
 57 58  1  0  0  0  0
 57 79  1  0  0  0  0
 58 91  1  0  0  0  0
 59 60  1  0  0  0  0
 59 90  1  0  0  0  0
 60 92  1  0  0  0  0
 61 62  1  0  0  0  0
 61 91  1  0  0  0  0
 62 93  1  0  0  0  0
 63 64  1  0  0  0  0
 63 92  1  0  0  0  0
 64 94  1  0  0  0  0
 65 66  1  0  0  0  0
 65 93  1  0  0  0  0
 66 95  1  0  0  0  0
 67 68  1  0  0  0  0
 67 94  1  0  0  0  0
 68 95  1  0  0  0  0
 69 71  1  0  0  0  0
 69 81  1  0  0  0  0
 70 82  1  0  0  0  0
 72 73  1  0  0  0  0
M  CHG  1  82   1
M  ISO  4  39 100  59 101  78 100  90 101
M  END
> <Batch ID>
0000

> <Smiles>
CNC(C)C(=O)NC(C(=O)N1Cc2cc([101O:1][101CH2:1]COCCOCCOCCOCCOCCNC(=O)c3cccc([100NH:0][100C:0](=O)N4CCCC(n5nc(-c6ccc(Oc7ccc(F)cc7F)cc6)c(C(N)=O)c5N)C4)c3)ccc2CC1C(=O)NC1CCCc2ccccc21)C(C)(C)C

> <Shape>
0.261

> <Color>
0.076

> <Negative vol penalty>
0.000

$$$$

  -OEChem-04052315133D

 78 85  0     1  0  0  0  0  0999 V2000
  -22.9033  -17.2367   19.7602 C   0  0  0  0  0  0  0  0  0  0  0  0
  -24.0412  -17.9649   20.0925 C   0  0  0  0  0  0  0  0  0  0  0  0
  -25.9139  -13.2216   21.4119 C   0  0  0  0  0  0  0  0  0  0  0  0
  -26.0618  -13.4234   19.0089 C   0  0  0  0  0  0  0  0  0  0  0  0
  -21.7991  -17.8846   19.2080 C   0  0  0  0  0  0  0  0  0  0  0  0
  -24.0758  -19.3413   19.8718 C   0  0  0  0  0  0  0  0  0  0  0  0
  -26.8973  -23.5511   23.3102 C   0  0  0  0  0  0  0  0  0  0  0  0
  -24.7971  -12.3974   21.2740 C   0  0  0  0  0  0  0  0  0  0  0  0
  -24.9450  -12.5992   18.8709 C   0  0  0  0  0  0  0  0  0  0  0  0
  -28.1269  -24.1957   23.1827 C   0  0  0  0  0  0  0  0  0  0  0  0
  -24.1663   -9.1638   20.5131 C   0  0  0  0  0  0  0  0  0  0  0  0
  -24.1153   -8.0060   21.2893 C   0  0  0  0  0  0  0  0  0  0  0  0
  -27.0311  -26.0628   22.1185 C   0  0  0  0  0  0  0  0  0  0  0  0
  -22.0743   -8.7868   22.3198 C   0  0  0  0  0  0  0  0  0  0  0  0
  -26.5462  -13.7347   20.2794 C   0  0  0  0  0  0  0  0  0  0  0  0
  -29.0492  -14.1890   20.4707 C   0  0  0  0  0  0  0  0  0  0  0  0
  -21.8167  -19.2711   18.9894 C   0  0  0  0  0  0  0  0  0  0  0  0
  -25.7248  -24.1538   22.8322 C   0  0  0  0  0  0  0  0  0  0  0  0
  -22.9713  -20.0081   19.3150 C   0  0  0  0  0  0  0  0  0  0  0  0
  -25.7875  -25.4249   22.2435 C   0  0  0  0  0  0  0  0  0  0  0  0
  -24.3126  -12.0862   20.0035 C   0  0  0  0  0  0  0  0  0  0  0  0
  -28.1944  -25.4504   22.5842 C   0  0  0  0  0  0  0  0  0  0  0  0
  -23.1714  -10.1332   20.6404 C   0  0  0  0  0  0  0  0  0  0  0  0
  -23.0693   -7.8174   22.1926 C   0  0  0  0  0  0  0  0  0  0  0  0
  -22.1254   -9.9446   21.5437 C   0  0  0  0  0  0  0  0  0  0  0  0
  -27.6996  -14.5865   20.4212 C   0  0  0  0  0  0  0  0  0  0  0  0
  -29.7480  -15.3630   20.6115 C   0  0  0  0  0  0  0  0  0  0  0  0
  -29.6200  -12.8759   20.3960 C   0  0  0  0  0  0  0  0  0  0  0  0
  -23.5604  -23.4123   20.6256 C   0  0  0  0  0  0  0  0  0  0  0  0
  -22.0352  -26.0213   21.8040 C   0  0  0  0  0  0  0  0  0  0  0  0
  -22.2455  -29.0000   23.4563 C   0  0  0  0  0  0  0  0  0  0  0  0
  -28.4723  -20.9114   19.0486 C   0  0  0  0  0  0  0  0  0  0  0  0
  -20.6165  -19.9199   18.3464 C   0  0  0  0  0  0  0  0  0  0  0  0
  -24.4025  -23.4571   23.0014 C   0  0  0  0  0  0  0  0  0  0  0  0
  -24.5551  -26.1237   21.7323 C   0  0  0  0  0  0  0  0  0  0  0  0
  -20.5947  -21.4393   18.4916 C   0  0  0  0  0  0  0  0  0  0  0  0
  -29.3171  -19.7881   22.3835 C   0  0  0  0  0  0  0  0  0  0  0  0
  -21.9611  -22.0276   18.1543 C   0  0  0  0  0  0  0  0  0  0  0  0
  -29.1226  -18.2763   22.2536 C   0  0  0  0  0  0  0  0  0  0  0  0
  -28.2665  -20.5515   21.5825 C   0  0  0  0  0  0  0  0  0  0  0  0
  -28.0102  -18.6733   20.0076 C   0  0  0  0  0  0  0  0  0  0  0  0
  -23.0380  -21.5065   19.1136 C   0  0  1  0  0  0  0  0  0  0  0  0
  -23.3426  -23.9392   22.0157 C   0  0  1  0  0  0  0  0  0  0  0  0
  -29.0553  -17.8449   20.7766 C   0  0  2  0  0  0  0  0  0  0  0  0
  -20.8357  -30.9243   24.2355 C   0  0  0  0  0  0  0  0  0  0  0  0
  -21.9116  -27.0847   18.9468 C   0  0  0  0  0  0  0  0  0  0  0  0
  -21.3851  -29.3454   19.8850 C   0  0  0  0  0  0  0  0  0  0  0  0
  -19.8271  -27.4382   20.2825 C   0  0  0  0  0  0  0  0  0  0  0  0
  -22.9282  -28.5024   26.2927 C   0  0  0  0  0  0  0  0  0  0  0  0
  -30.4132  -23.3398   17.8897 C   0  0  0  0  0  0  0  0  0  0  0  0
  -31.0132  -27.0060   20.9271 C   0  0  0  0  0  0  0  0  0  0  0  0
  -28.9361  -23.2095   18.2356 C   0  0  0  0  0  0  0  0  0  0  0  0
  -31.2554  -23.8309   19.0610 C   0  0  0  0  0  0  0  0  0  0  0  0
  -29.5515  -26.9588   21.3435 C   0  0  0  0  0  0  0  0  0  1  0  0
  -31.5400  -25.6322   20.5432 C   0  0  0  0  0  0  0  0  0  0  0  0
  -22.0466  -27.4983   21.4917 C   0  0  1  0  0  0  0  0  0  0  0  0
  -21.4340  -29.5753   24.6030 C   0  0  2  0  0  0  0  0  0  0  0  0
  -21.3163  -27.8279   20.1593 C   0  0  0  0  0  0  0  0  0  0  0  0
  -27.5478  -15.9097   20.5225 N   0  0  0  0  0  0  0  0  0  0  0  0
  -28.8110  -16.3538   20.6371 N   0  0  0  0  0  0  0  0  0  0  0  0
  -23.2867  -25.3990   21.9151 N   0  0  0  0  0  0  0  0  0  0  0  0
  -28.2669  -20.1069   20.1816 N   0  0  0  0  0  0  0  0  0  0  0  0
  -31.0664  -15.6341   20.7147 N   0  0  0  0  0  0  0  0  0  0  0  0
  -28.7584  -11.7800   20.2517 N   0  0  0  0  0  0  0  0  0  0  0  0
  -22.9569  -22.1926   20.3853 N   0  0  0  0  0  0  0  0  0  0  0  0
  -21.4869  -28.1671   22.6612 N   0  0  0  0  0  0  0  0  0  0  0  0
  -28.7019  -22.2587   19.2996 N   0  0  0  0  0  0  0  0  0  0  0  0
  -22.2937  -29.7548   25.8070 N   0  3  0  0  0  0  0  0  0  0  0  0
  -30.8565  -12.6788   20.4720 O   0  0  0  0  0  0  0  0  0  0  0  0
  -24.2254  -24.0646   19.8294 O   0  0  0  0  0  0  0  0  0  0  0  0
  -20.9558  -25.4427   21.9513 O   0  0  0  0  0  0  0  0  0  0  0  0
  -23.4325  -29.2661   23.2810 O   0  0  0  0  0  0  0  0  0  0  0  0
  -28.4577  -20.4614   17.8977 O   0  0  0  0  0  0  0  0  0  0  0  0
  -23.2230  -11.2818   19.8685 O   0  0  0  0  0  0  0  0  0  0  0  0
  -29.3934  -26.0815   22.4579 O   0  0  0  0  0  0  0  0  0  1  0  0
  -30.7920  -25.1168   19.4502 O   0  0  0  0  0  0  0  0  0  0  0  0
  -23.0196   -6.7048   22.9367 F   0  0  0  0  0  0  0  0  0  0  0  0
  -21.1660  -10.8718   21.6694 F   0  0  0  0  0  0  0  0  0  0  0  0
  1  2  1  0  0  0  0
  1  5  2  0  0  0  0
  2  6  2  0  0  0  0
  3  8  2  0  0  0  0
  3 15  1  0  0  0  0
  4  9  1  0  0  0  0
  4 15  2  0  0  0  0
  5 17  1  0  0  0  0
  6 19  1  0  0  0  0
  7 10  2  0  0  0  0
  7 18  1  0  0  0  0
  8 21  1  0  0  0  0
  9 21  2  0  0  0  0
 10 22  1  0  0  0  0
 11 12  2  0  0  0  0
 11 23  1  0  0  0  0
 12 24  1  0  0  0  0
 13 20  1  0  0  0  0
 13 22  2  0  0  0  0
 14 24  2  0  0  0  0
 14 25  1  0  0  0  0
 15 26  1  0  0  0  0
 16 26  1  0  0  0  0
 16 27  2  0  0  0  0
 16 28  1  0  0  0  0
 17 19  2  0  0  0  0
 17 33  1  0  0  0  0
 18 20  2  0  0  0  0
 18 34  1  0  0  0  0
 19 42  1  0  0  0  0
 20 35  1  0  0  0  0
 21 74  1  0  0  0  0
 22 75  1  0  0  0  0
 23 25  2  0  0  0  0
 23 74  1  0  0  0  0
 24 77  1  0  0  0  0
 25 78  1  0  0  0  0
 26 59  2  0  0  0  0
 27 60  1  0  0  0  0
 27 63  1  0  0  0  0
 28 64  1  0  0  0  0
 28 69  2  0  0  0  0
 29 43  1  0  0  0  0
 29 65  1  0  0  0  0
 29 70  2  0  0  0  0
 30 56  1  0  0  0  0
 30 61  1  0  0  0  0
 30 71  2  0  0  0  0
 31 57  1  0  0  0  0
 31 66  1  0  0  0  0
 31 72  2  0  0  0  0
 32 62  1  0  0  0  0
 32 67  1  0  0  0  0
 32 73  2  0  0  0  0
 33 36  1  0  0  0  0
 34 43  1  0  0  0  0
 35 61  1  0  0  0  0
 36 38  1  0  0  0  0
 37 39  1  0  0  0  0
 37 40  1  0  0  0  0
 38 42  1  0  0  0  0
 39 44  1  0  0  0  0
 40 62  1  0  0  0  0
 41 44  1  0  0  0  0
 41 62  1  0  0  0  0
 42 65  1  0  0  0  0
 43 61  1  0  0  0  0
 44 60  1  0  0  0  0
 45 57  1  0  0  0  0
 46 58  1  0  0  0  0
 47 58  1  0  0  0  0
 48 58  1  0  0  0  0
 49 68  1  0  0  0  0
 50 52  1  0  0  0  0
 50 53  1  0  0  0  0
 51 54  1  0  0  0  0
 51 55  1  0  0  0  0
 52 67  1  0  0  0  0
 53 76  1  0  0  0  0
 54 75  1  0  0  0  0
 55 76  1  0  0  0  0
 56 58  1  0  0  0  0
 56 66  1  0  0  0  0
 57 68  1  0  0  0  0
 59 60  1  0  0  0  0
M  CHG  1  68   1
M  ISO  4  32 100  54 101  67 100  75 101
M  END
> <Batch ID>
0000

> <Smiles>
CNC(C)C(=O)NC(C(=O)N1Cc2cc([101O:1][101CH2:1]CCOCCC[100NH:0][100C:0](=O)N3CCCC(n4nc(-c5ccc(Oc6ccc(F)cc6F)cc5)c(C(N)=O)c4N)C3)ccc2CC1C(=O)NC1CCCc2ccccc21)C(C)(C)C

> <Shape>
0.224

> <Color>
0.075

> <Negative vol penalty>
0.000

$$$$

  -OEChem-04052315133D

 83 90  0     1  0  0  0  0  0999 V2000
  -21.7730  -13.4049   21.1090 C   0  0  0  0  0  0  0  0  0  0  0  0
  -22.5894  -14.4877   21.4195 C   0  0  0  0  0  0  0  0  0  0  0  0
  -25.0211  -30.4802   20.2510 C   0  0  0  0  0  0  0  0  0  0  0  0
  -24.2686  -28.7960   21.8111 C   0  0  0  0  0  0  0  0  0  0  0  0
  -22.3426  -12.1872   20.7394 C   0  0  0  0  0  0  0  0  0  0  0  0
  -23.9761  -14.3531   21.3615 C   0  0  0  0  0  0  0  0  0  0  0  0
  -26.2140  -18.2709   19.0621 C   0  0  0  0  0  0  0  0  0  0  0  0
  -24.6940  -31.4775   21.1697 C   0  0  0  0  0  0  0  0  0  0  0  0
  -23.9415  -29.7932   22.7299 C   0  0  0  0  0  0  0  0  0  0  0  0
  -26.3659  -19.4420   19.8031 C   0  0  0  0  0  0  0  0  0  0  0  0
  -26.0349  -32.8256   23.9656 C   0  0  0  0  0  0  0  0  0  0  0  0
  -26.9600  -33.8498   24.1674 C   0  0  0  0  0  0  0  0  0  0  0  0
  -28.6661  -18.8605   20.2394 C   0  0  0  0  0  0  0  0  0  0  0  0
  -25.3206  -35.4723   23.4484 C   0  0  0  0  0  0  0  0  0  0  0  0
  -24.8084  -29.1395   20.5716 C   0  0  0  0  0  0  0  0  0  0  0  0
  -26.3780  -27.4404   19.4959 C   0  0  0  0  0  0  0  0  0  0  0  0
  -23.7368  -12.0403   20.6676 C   0  0  0  0  0  0  0  0  0  0  0  0
  -27.2857  -17.3789   18.9130 C   0  0  0  0  0  0  0  0  0  0  0  0
  -24.5650  -13.1319   20.9919 C   0  0  0  0  0  0  0  0  0  0  0  0
  -28.5259  -17.6800   19.4939 C   0  0  0  0  0  0  0  0  0  0  0  0
  -24.1542  -31.1340   22.4091 C   0  0  0  0  0  0  0  0  0  0  0  0
  -27.5912  -19.7356   20.3943 C   0  0  0  0  0  0  0  0  0  0  0  0
  -24.7526  -33.1247   23.5051 C   0  0  0  0  0  0  0  0  0  0  0  0
  -26.6029  -35.1732   23.9089 C   0  0  0  0  0  0  0  0  0  0  0  0
  -24.3955  -34.4481   23.2466 C   0  0  0  0  0  0  0  0  0  0  0  0
  -25.1456  -28.1089   19.6228 C   0  0  0  0  0  0  0  0  0  0  0  0
  -26.1870  -26.5623   18.4572 C   0  0  0  0  0  0  0  0  0  0  0  0
  -27.5873  -27.5990   20.2497 C   0  0  0  0  0  0  0  0  0  0  0  0
  -27.8158  -14.3530   19.7296 C   0  0  0  0  0  0  0  0  0  0  0  0
  -30.5455  -14.7805   18.0301 C   0  0  0  0  0  0  0  0  0  0  0  0
  -32.8797  -16.9409   16.7928 C   0  0  0  0  0  0  0  0  0  0  0  0
  -23.0760  -22.7621   15.8066 C   0  0  0  0  0  0  0  0  0  0  0  0
  -24.3071  -10.6910   20.3089 C   0  0  0  0  0  0  0  0  0  0  0  0
  -27.1132  -16.1330   18.0882 C   0  0  0  0  0  0  0  0  0  0  0  0
  -29.7134  -16.7653   19.3468 C   0  0  0  0  0  0  0  0  0  0  0  0
  -25.7796  -10.7387   19.9091 C   0  0  0  0  0  0  0  0  0  0  0  0
  -22.4101  -26.1902   15.1130 C   0  0  0  0  0  0  0  0  0  0  0  0
  -26.5746  -11.5832   20.8998 C   0  0  0  0  0  0  0  0  0  0  0  0
  -23.1586  -26.9389   16.2172 C   0  0  0  0  0  0  0  0  0  0  0  0
  -21.8091  -24.8830   15.6249 C   0  0  0  0  0  0  0  0  0  0  0  0
  -23.5144  -24.7301   17.3976 C   0  0  0  0  0  0  0  0  0  0  0  0
  -26.0731  -13.0322   20.9167 C   0  0  1  0  0  0  0  0  0  0  0  0
  -28.1251  -15.0441   18.4318 C   0  0  1  0  0  0  0  0  0  0  0  0
  -24.1857  -26.0276   16.9157 C   0  0  2  0  0  0  0  0  0  0  0  0
  -35.0153  -16.9911   15.4759 C   0  0  0  0  0  0  0  0  0  0  0  0
  -32.0765  -13.7984   20.4800 C   0  0  0  0  0  0  0  0  0  0  0  0
  -34.1606  -14.7538   19.4741 C   0  0  0  0  0  0  0  0  0  0  0  0
  -32.9328  -12.9290   18.2970 C   0  0  0  0  0  0  0  0  0  0  0  0
  -31.6593  -18.5853   14.6561 C   0  0  0  0  0  0  0  0  0  0  0  0
  -27.6695  -23.2892   21.0851 C   0  0  0  0  0  0  0  0  0  0  0  0
  -24.4361  -20.7077   16.1048 C   0  0  0  0  0  0  0  0  0  0  0  0
  -26.9447  -21.9983   20.7381 C   0  0  0  0  0  0  0  0  0  1  0  0
  -29.0163  -23.3909   20.3866 C   0  0  0  0  0  0  0  0  0  0  0  0
  -25.5416  -20.6883   15.0643 C   0  0  0  0  0  0  0  0  0  0  0  0
  -30.0716  -23.4525   18.2877 C   0  0  0  0  0  0  0  0  0  0  0  0
  -27.8669  -20.9722   14.8766 C   0  0  0  0  0  0  0  0  0  0  0  0
  -29.8125  -23.3900   16.7947 C   0  0  0  0  0  0  0  0  0  0  0  0
  -28.9293  -22.0329   15.0915 C   0  0  0  0  0  0  0  0  0  0  0  0
  -31.9422  -15.2545   18.3521 C   0  0  1  0  0  0  0  0  0  0  0  0
  -33.4981  -17.0736   15.4128 C   0  0  2  0  0  0  0  0  0  0  0  0
  -32.7553  -14.2004   19.1554 C   0  0  0  0  0  0  0  0  0  0  0  0
  -24.2387  -27.6913   18.7355 N   0  0  0  0  0  0  0  0  0  0  0  0
  -24.9019  -26.7511   18.0410 N   0  0  0  0  0  0  0  0  0  0  0  0
  -29.4929  -15.5563   18.5361 N   0  0  0  0  0  0  0  0  0  0  0  0
  -22.8354  -24.0643   16.2749 N   0  0  0  0  0  0  0  0  0  0  0  0
  -26.9946  -25.6549   17.8683 N   0  0  0  0  0  0  0  0  0  0  0  0
  -27.6115  -28.5460   21.2825 N   0  0  0  0  0  0  0  0  0  0  0  0
  -26.5716  -13.7530   19.7650 N   0  0  0  0  0  0  0  0  0  0  0  0
  -32.5479  -15.6338   17.0802 N   0  0  0  0  0  0  0  0  0  0  0  0
  -24.0696  -22.0567   16.4744 N   0  0  0  0  0  0  0  0  0  0  0  0
  -33.1235  -18.3798   14.8007 N   0  3  0  0  0  0  0  0  0  0  0  0
  -28.6211  -26.9325   20.0035 O   0  0  0  0  0  0  0  0  0  0  0  0
  -28.6453  -14.3622   20.6316 O   0  0  0  0  0  0  0  0  0  0  0  0
  -30.3941  -13.7635   17.3486 O   0  0  0  0  0  0  0  0  0  0  0  0
  -32.7116  -17.9002   17.5424 O   0  0  0  0  0  0  0  0  0  0  0  0
  -22.4553  -22.2668   14.8598 O   0  0  0  0  0  0  0  0  0  0  0  0
  -23.8351  -32.1068   23.3060 O   0  0  0  0  0  0  0  0  0  0  0  0
  -27.7420  -20.8777   21.1187 O   0  0  0  0  0  0  0  0  0  1  0  0
  -28.8326  -23.3595   18.9777 O   0  0  0  0  0  0  0  0  0  0  0  0
  -26.6899  -21.3442   15.5836 O   0  0  0  0  0  0  0  0  0  0  0  0
  -29.1960  -22.1467   16.4824 O   0  0  0  0  0  0  0  0  0  0  0  0
  -27.4908  -36.1568   24.1042 F   0  0  0  0  0  0  0  0  0  0  0  0
  -23.1647  -34.7417   22.8052 F   0  0  0  0  0  0  0  0  0  0  0  0
  1  2  1  0  0  0  0
  1  5  2  0  0  0  0
  2  6  2  0  0  0  0
  3  8  2  0  0  0  0
  3 15  1  0  0  0  0
  4  9  1  0  0  0  0
  4 15  2  0  0  0  0
  5 17  1  0  0  0  0
  6 19  1  0  0  0  0
  7 10  2  0  0  0  0
  7 18  1  0  0  0  0
  8 21  1  0  0  0  0
  9 21  2  0  0  0  0
 10 22  1  0  0  0  0
 11 12  2  0  0  0  0
 11 23  1  0  0  0  0
 12 24  1  0  0  0  0
 13 20  1  0  0  0  0
 13 22  2  0  0  0  0
 14 24  2  0  0  0  0
 14 25  1  0  0  0  0
 15 26  1  0  0  0  0
 16 26  1  0  0  0  0
 16 27  2  0  0  0  0
 16 28  1  0  0  0  0
 17 19  2  0  0  0  0
 17 33  1  0  0  0  0
 18 20  2  0  0  0  0
 18 34  1  0  0  0  0
 19 42  1  0  0  0  0
 20 35  1  0  0  0  0
 21 77  1  0  0  0  0
 22 78  1  0  0  0  0
 23 25  2  0  0  0  0
 23 77  1  0  0  0  0
 24 82  1  0  0  0  0
 25 83  1  0  0  0  0
 26 62  2  0  0  0  0
 27 63  1  0  0  0  0
 27 66  1  0  0  0  0
 28 67  1  0  0  0  0
 28 72  2  0  0  0  0
 29 43  1  0  0  0  0
 29 68  1  0  0  0  0
 29 73  2  0  0  0  0
 30 59  1  0  0  0  0
 30 64  1  0  0  0  0
 30 74  2  0  0  0  0
 31 60  1  0  0  0  0
 31 69  1  0  0  0  0
 31 75  2  0  0  0  0
 32 65  1  0  0  0  0
 32 70  1  0  0  0  0
 32 76  2  0  0  0  0
 33 36  1  0  0  0  0
 34 43  1  0  0  0  0
 35 64  1  0  0  0  0
 36 38  1  0  0  0  0
 37 39  1  0  0  0  0
 37 40  1  0  0  0  0
 38 42  1  0  0  0  0
 39 44  1  0  0  0  0
 40 65  1  0  0  0  0
 41 44  1  0  0  0  0
 41 65  1  0  0  0  0
 42 68  1  0  0  0  0
 43 64  1  0  0  0  0
 44 63  1  0  0  0  0
 45 60  1  0  0  0  0
 46 61  1  0  0  0  0
 47 61  1  0  0  0  0
 48 61  1  0  0  0  0
 49 71  1  0  0  0  0
 50 52  1  0  0  0  0
 50 53  1  0  0  0  0
 51 54  1  0  0  0  0
 51 70  1  0  0  0  0
 52 78  1  0  0  0  0
 53 79  1  0  0  0  0
 54 80  1  0  0  0  0
 55 57  1  0  0  0  0
 55 79  1  0  0  0  0
 56 58  1  0  0  0  0
 56 80  1  0  0  0  0
 57 81  1  0  0  0  0
 58 81  1  0  0  0  0
 59 61  1  0  0  0  0
 59 69  1  0  0  0  0
 60 71  1  0  0  0  0
 62 63  1  0  0  0  0
M  CHG  1  71   1
M  ISO  4  32 100  52 101  70 100  78 101
M  END
> <Batch ID>
0000

> <Smiles>
CNC(C)C(=O)NC(C(=O)N1Cc2cc([101O:1][101CH2:1]CCOCCOCCOCC[100NH:0][100C:0](=O)N3CCCC(n4nc(-c5ccc(Oc6ccc(F)cc6F)cc5)c(C(N)=O)c4N)C3)ccc2CC1C(=O)NC1CCCc2ccccc21)C(C)(C)C

> <Shape>
0.251

> <Color>
0.074

> <Negative vol penalty>
0.000

$$$$

  -OEChem-04052315133D

 85 92  0     1  0  0  0  0  0999 V2000
  -20.2839  -15.4226   20.3642 C   0  0  0  0  0  0  0  0  0  0  0  0
  -21.0127  -16.3668   21.0804 C   0  0  0  0  0  0  0  0  0  0  0  0
  -25.4663  -28.6994   20.6051 C   0  0  0  0  0  0  0  0  0  0  0  0
  -25.1094  -26.6987   19.2986 C   0  0  0  0  0  0  0  0  0  0  0  0
  -20.8988  -14.2464   19.9372 C   0  0  0  0  0  0  0  0  0  0  0  0
  -22.3566  -16.1347   21.3708 C   0  0  0  0  0  0  0  0  0  0  0  0
  -25.2550  -20.2026   20.5365 C   0  0  0  0  0  0  0  0  0  0  0  0
  -26.8344  -28.4300   20.6439 C   0  0  0  0  0  0  0  0  0  0  0  0
  -26.4775  -26.4294   19.3373 C   0  0  0  0  0  0  0  0  0  0  0  0
  -25.2287  -21.2113   21.4986 C   0  0  0  0  0  0  0  0  0  0  0  0
  -28.7014  -25.1389   21.5327 C   0  0  0  0  0  0  0  0  0  0  0  0
  -29.0967  -23.8313   21.8143 C   0  0  0  0  0  0  0  0  0  0  0  0
  -27.3001  -20.3822   22.4157 C   0  0  0  0  0  0  0  0  0  0  0  0
  -30.2244  -23.7127   19.6809 C   0  0  0  0  0  0  0  0  0  0  0  0
  -24.6038  -27.8337   19.9325 C   0  0  0  0  0  0  0  0  0  0  0  0
  -22.4992  -28.8655   18.9259 C   0  0  0  0  0  0  0  0  0  0  0  0
  -22.2535  -14.0042   20.2142 C   0  0  0  0  0  0  0  0  0  0  0  0
  -26.3002  -19.2680   20.5135 C   0  0  0  0  0  0  0  0  0  0  0  0
  -22.9899  -14.9536   20.9482 C   0  0  0  0  0  0  0  0  0  0  0  0
  -27.3387  -19.3642   21.4507 C   0  0  0  0  0  0  0  0  0  0  0  0
  -27.3400  -27.2951   20.0100 C   0  0  0  0  0  0  0  0  0  0  0  0
  -26.2499  -21.2995   22.4402 C   0  0  0  0  0  0  0  0  0  0  0  0
  -29.0675  -25.7335   20.3251 C   0  0  0  0  0  0  0  0  0  0  0  0
  -29.8583  -23.1182   20.8885 C   0  0  0  0  0  0  0  0  0  0  0  0
  -29.8290  -25.0204   19.3993 C   0  0  0  0  0  0  0  0  0  0  0  0
  -23.1905  -28.1110   19.8927 C   0  0  0  0  0  0  0  0  0  0  0  0
  -21.1887  -28.8306   19.3357 C   0  0  0  0  0  0  0  0  0  0  0  0
  -22.9970  -29.5377   17.7614 C   0  0  0  0  0  0  0  0  0  0  0  0
  -26.4967  -16.1139   20.8551 C   0  0  0  0  0  0  0  0  0  0  0  0
  -29.6017  -16.6125   20.0596 C   0  0  0  0  0  0  0  0  0  0  0  0
  -32.2480  -18.7631   19.9225 C   0  0  0  0  0  0  0  0  0  0  0  0
  -18.0637  -24.9701   22.6796 C   0  0  0  0  0  0  0  0  0  0  0  0
  -22.8622  -12.6968   19.7727 C   0  0  0  0  0  0  0  0  0  0  0  0
  -26.3278  -18.2021   19.4526 C   0  0  0  0  0  0  0  0  0  0  0  0
  -28.4939  -18.3978   21.4563 C   0  0  0  0  0  0  0  0  0  0  0  0
  -24.3885  -12.6965   19.7975 C   0  0  0  0  0  0  0  0  0  0  0  0
  -18.5080  -28.4513   23.2804 C   0  0  0  0  0  0  0  0  0  0  0  0
  -24.9013  -13.2900   21.1057 C   0  0  0  0  0  0  0  0  0  0  0  0
  -19.6960  -28.8269   22.3930 C   0  0  0  0  0  0  0  0  0  0  0  0
  -18.6675  -27.0539   23.8753 C   0  0  0  0  0  0  0  0  0  0  0  0
  -20.1129  -26.3626   22.0028 C   0  0  0  0  0  0  0  0  0  0  0  0
  -24.4563  -14.7492   21.2614 C   0  0  1  0  0  0  0  0  0  0  0  0
  -27.1733  -16.9934   19.8420 C   0  0  1  0  0  0  0  0  0  0  0  0
  -19.9712  -27.7412   21.3352 C   0  0  2  0  0  0  0  0  0  0  0  0
  -34.5512  -19.5884   19.3643 C   0  0  0  0  0  0  0  0  0  0  0  0
  -30.3645  -15.1012   22.5981 C   0  0  0  0  0  0  0  0  0  0  0  0
  -32.6722  -16.0485   22.3852 C   0  0  0  0  0  0  0  0  0  0  0  0
  -31.7676  -14.5594   20.6000 C   0  0  0  0  0  0  0  0  0  0  0  0
  -31.3756  -19.7591   17.2756 C   0  0  0  0  0  0  0  0  0  0  0  0
  -17.5800  -22.9140   21.3767 C   0  0  0  0  0  0  0  0  0  0  0  0
  -18.0731  -21.7062   22.1531 C   0  0  0  0  0  0  0  0  0  0  0  0
  -24.9448  -22.7505   23.7994 C   0  0  0  0  0  0  0  0  0  1  0  0
  -25.0354  -23.2221   25.2377 C   0  0  0  0  0  0  0  0  0  0  0  0
  -18.4635  -20.8767   24.3170 C   0  0  0  0  0  0  0  0  0  0  0  0
  -18.3955  -21.2390   25.7881 C   0  0  0  0  0  0  0  0  0  0  0  0
  -23.7783  -24.1190   27.0092 C   0  0  0  0  0  0  0  0  0  0  0  0
  -22.3924  -24.5977   27.3967 C   0  0  0  0  0  0  0  0  0  0  0  0
  -19.2164  -22.7398   27.3994 C   0  0  0  0  0  0  0  0  0  0  0  0
  -20.1525  -23.9160   27.5996 C   0  0  0  0  0  0  0  0  0  0  0  0
  -30.8672  -16.9110   20.8266 C   0  0  1  0  0  0  0  0  0  0  0  0
  -33.2283  -19.0842   18.8088 C   0  0  2  0  0  0  0  0  0  0  0  0
  -31.3952  -15.6722   21.6038 C   0  0  0  0  0  0  0  0  0  0  0  0
  -22.3858  -27.6320   20.8450 N   0  0  0  0  0  0  0  0  0  0  0  0
  -21.1753  -28.0867   20.4787 N   0  0  0  0  0  0  0  0  0  0  0  0
  -28.4726  -17.3695   20.4029 N   0  0  0  0  0  0  0  0  0  0  0  0
  -18.9245  -26.0712   22.8198 N   0  0  0  0  0  0  0  0  0  0  0  0
  -20.0581  -29.3641   18.8263 N   0  0  0  0  0  0  0  0  0  0  0  0
  -24.3701  -29.4722   17.4880 N   0  0  0  0  0  0  0  0  0  0  0  0
  -25.2749  -15.6174   20.4426 N   0  0  0  0  0  0  0  0  0  0  0  0
  -31.8124  -17.4564   19.8584 N   0  0  0  0  0  0  0  0  0  0  0  0
  -18.3753  -24.0902   21.6503 N   0  0  0  0  0  0  0  0  0  0  0  0
  -32.6662  -20.1317   17.9100 N   0  3  0  0  0  0  0  0  0  0  0  0
  -22.2490  -30.1912   16.9953 O   0  0  0  0  0  0  0  0  0  0  0  0
  -27.0434  -15.9003   21.9308 O   0  0  0  0  0  0  0  0  0  0  0  0
  -29.6163  -15.7447   19.1830 O   0  0  0  0  0  0  0  0  0  0  0  0
  -31.9059  -19.5877   20.7671 O   0  0  0  0  0  0  0  0  0  0  0  0
  -17.0867  -24.7877   23.4138 O   0  0  0  0  0  0  0  0  0  0  0  0
  -28.6749  -27.0321   20.0473 O   0  0  0  0  0  0  0  0  0  0  0  0
  -26.2263  -22.2827   23.3807 O   0  0  0  0  0  0  0  0  0  1  0  0
  -18.0102  -21.9823   23.5454 O   0  0  0  0  0  0  0  0  0  0  0  0
  -23.7522  -23.6642   25.6634 O   0  0  0  0  0  0  0  0  0  0  0  0
  -19.2409  -22.3548   26.0303 O   0  0  0  0  0  0  0  0  0  0  0  0
  -21.4721  -23.5232   27.2489 O   0  0  0  0  0  0  0  0  0  0  0  0
  -30.2392  -21.8630   21.1597 F   0  0  0  0  0  0  0  0  0  0  0  0
  -30.1848  -25.5867   18.2380 F   0  0  0  0  0  0  0  0  0  0  0  0
  1  2  1  0  0  0  0
  1  5  2  0  0  0  0
  2  6  2  0  0  0  0
  3  8  2  0  0  0  0
  3 15  1  0  0  0  0
  4  9  1  0  0  0  0
  4 15  2  0  0  0  0
  5 17  1  0  0  0  0
  6 19  1  0  0  0  0
  7 10  2  0  0  0  0
  7 18  1  0  0  0  0
  8 21  1  0  0  0  0
  9 21  2  0  0  0  0
 10 22  1  0  0  0  0
 11 12  2  0  0  0  0
 11 23  1  0  0  0  0
 12 24  1  0  0  0  0
 13 20  1  0  0  0  0
 13 22  2  0  0  0  0
 14 24  2  0  0  0  0
 14 25  1  0  0  0  0
 15 26  1  0  0  0  0
 16 26  1  0  0  0  0
 16 27  2  0  0  0  0
 16 28  1  0  0  0  0
 17 19  2  0  0  0  0
 17 33  1  0  0  0  0
 18 20  2  0  0  0  0
 18 34  1  0  0  0  0
 19 42  1  0  0  0  0
 20 35  1  0  0  0  0
 21 78  1  0  0  0  0
 22 79  1  0  0  0  0
 23 25  2  0  0  0  0
 23 78  1  0  0  0  0
 24 84  1  0  0  0  0
 25 85  1  0  0  0  0
 26 63  2  0  0  0  0
 27 64  1  0  0  0  0
 27 67  1  0  0  0  0
 28 68  1  0  0  0  0
 28 73  2  0  0  0  0
 29 43  1  0  0  0  0
 29 69  1  0  0  0  0
 29 74  2  0  0  0  0
 30 60  1  0  0  0  0
 30 65  1  0  0  0  0
 30 75  2  0  0  0  0
 31 61  1  0  0  0  0
 31 70  1  0  0  0  0
 31 76  2  0  0  0  0
 32 66  1  0  0  0  0
 32 71  1  0  0  0  0
 32 77  2  0  0  0  0
 33 36  1  0  0  0  0
 34 43  1  0  0  0  0
 35 65  1  0  0  0  0
 36 38  1  0  0  0  0
 37 39  1  0  0  0  0
 37 40  1  0  0  0  0
 38 42  1  0  0  0  0
 39 44  1  0  0  0  0
 40 66  1  0  0  0  0
 41 44  1  0  0  0  0
 41 66  1  0  0  0  0
 42 69  1  0  0  0  0
 43 65  1  0  0  0  0
 44 64  1  0  0  0  0
 45 61  1  0  0  0  0
 46 62  1  0  0  0  0
 47 62  1  0  0  0  0
 48 62  1  0  0  0  0
 49 72  1  0  0  0  0
 50 51  1  0  0  0  0
 50 71  1  0  0  0  0
 51 80  1  0  0  0  0
 52 53  1  0  0  0  0
 52 79  1  0  0  0  0
 53 81  1  0  0  0  0
 54 55  1  0  0  0  0
 54 80  1  0  0  0  0
 55 82  1  0  0  0  0
 56 57  1  0  0  0  0
 56 81  1  0  0  0  0
 57 83  1  0  0  0  0
 58 59  1  0  0  0  0
 58 82  1  0  0  0  0
 59 83  1  0  0  0  0
 60 62  1  0  0  0  0
 60 70  1  0  0  0  0
 61 72  1  0  0  0  0
 63 64  1  0  0  0  0
M  CHG  1  72   1
M  ISO  4  32 100  52 101  71 100  79 101
M  END
> <Batch ID>
0000

> <Smiles>
CNC(C)C(=O)NC(C(=O)N1Cc2cc([101O:1][101CH2:1]COCCOCCOCCOCC[100NH:0][100C:0](=O)N3CCCC(n4nc(-c5ccc(Oc6ccc(F)cc6F)cc5)c(C(N)=O)c4N)C3)ccc2CC1C(=O)NC1CCCc2ccccc21)C(C)(C)C

> <Shape>
0.200

> <Color>
0.061

> <Negative vol penalty>
0.000

$$$$

  -OEChem-04052315133D

 96103  0     1  0  0  0  0  0999 V2000
  -20.0717  -12.8904   18.1330 C   0  0  0  0  0  0  0  0  0  0  0  0
  -20.6548  -14.0639   17.6658 C   0  0  0  0  0  0  0  0  0  0  0  0
  -25.9745  -25.0464   17.5350 C   0  0  0  0  0  0  0  0  0  0  0  0
  -25.3874  -24.3321   19.7670 C   0  0  0  0  0  0  0  0  0  0  0  0
  -20.5513  -12.2903   19.2965 C   0  0  0  0  0  0  0  0  0  0  0  0
  -21.7172  -14.6386   18.3625 C   0  0  0  0  0  0  0  0  0  0  0  0
  -27.7179  -18.3995   17.2834 C   0  0  0  0  0  0  0  0  0  0  0  0
  -25.4584  -23.8578   17.0188 C   0  0  0  0  0  0  0  0  0  0  0  0
  -24.8713  -23.1435   19.2509 C   0  0  0  0  0  0  0  0  0  0  0  0
  -28.3521  -19.5632   17.7160 C   0  0  0  0  0  0  0  0  0  0  0  0
  -23.0723  -20.0781   18.4857 C   0  0  0  0  0  0  0  0  0  0  0  0
  -21.8378  -19.6431   18.9676 C   0  0  0  0  0  0  0  0  0  0  0  0
  -29.1489  -18.3951   19.6705 C   0  0  0  0  0  0  0  0  0  0  0  0
  -20.8117  -21.6843   18.1817 C   0  0  0  0  0  0  0  0  0  0  0  0
  -25.9391  -25.2836   18.9091 C   0  0  0  0  0  0  0  0  0  0  0  0
  -25.7814  -27.7200   19.6483 C   0  0  0  0  0  0  0  0  0  0  0  0
  -21.6265  -12.8527   20.0025 C   0  0  0  0  0  0  0  0  0  0  0  0
  -27.7854  -17.2258   18.0477 C   0  0  0  0  0  0  0  0  0  0  0  0
  -22.2108  -14.0462   19.5373 C   0  0  0  0  0  0  0  0  0  0  0  0
  -28.5168  -17.2171   19.2440 C   0  0  0  0  0  0  0  0  0  0  0  0
  -24.9067  -22.9064   17.8767 C   0  0  0  0  0  0  0  0  0  0  0  0
  -29.0653  -19.5620   18.9112 C   0  0  0  0  0  0  0  0  0  0  0  0
  -23.1766  -21.3163   17.8519 C   0  0  0  0  0  0  0  0  0  0  0  0
  -20.7074  -20.4461   18.8155 C   0  0  0  0  0  0  0  0  0  0  0  0
  -22.0463  -22.1194   17.6999 C   0  0  0  0  0  0  0  0  0  0  0  0
  -26.4726  -26.5110   19.4430 C   0  0  0  0  0  0  0  0  0  0  0  0
  -26.7252  -28.5708   20.1697 C   0  0  0  0  0  0  0  0  0  0  0  0
  -24.4088  -28.0450   19.3909 C   0  0  0  0  0  0  0  0  0  0  0  0
  -25.6555  -15.3828   19.5212 C   0  0  0  0  0  0  0  0  0  0  0  0
  -28.2357  -13.4872   20.0423 C   0  0  0  0  0  0  0  0  0  0  0  0
  -26.2177  -23.7802   23.7889 C   0  0  0  0  0  0  0  0  0  0  0  0
  -31.6260  -13.2234   20.3305 C   0  0  0  0  0  0  0  0  0  0  0  0
  -31.7992  -27.6582   23.2147 C   0  0  0  0  0  0  0  0  0  0  0  0
  -22.0795  -12.1934   21.2811 C   0  0  0  0  0  0  0  0  0  0  0  0
  -27.1181  -15.9715   17.5538 C   0  0  0  0  0  0  0  0  0  0  0  0
  -28.6367  -15.9777   20.0912 C   0  0  0  0  0  0  0  0  0  0  0  0
  -23.4528  -12.6624   21.7548 C   0  0  0  0  0  0  0  0  0  0  0  0
  -31.4352  -29.4108   20.1370 C   0  0  0  0  0  0  0  0  0  0  0  0
  -23.5489  -14.1834   21.6905 C   0  0  0  0  0  0  0  0  0  0  0  0
  -30.0597  -28.9754   19.6286 C   0  0  0  0  0  0  0  0  0  0  0  0
  -32.1638  -28.2687   20.8418 C   0  0  0  0  0  0  0  0  0  0  0  0
  -30.0253  -27.1878   21.4180 C   0  0  0  0  0  0  0  0  0  0  0  0
  -23.3812  -14.6864   20.2516 C   0  0  1  0  0  0  0  0  0  0  0  0
  -26.8230  -14.9729   18.6688 C   0  0  1  0  0  0  0  0  0  0  0  0
  -29.2290  -28.3213   20.7491 C   0  0  2  0  0  0  0  0  0  0  0  0
  -33.4392  -11.5525   20.7970 C   0  0  0  0  0  0  0  0  0  0  0  0
  -27.5222  -13.5448   23.0084 C   0  0  0  0  0  0  0  0  0  0  0  0
  -29.8247  -12.6975   23.5073 C   0  0  0  0  0  0  0  0  0  0  0  0
  -28.2532  -11.3108   22.1544 C   0  0  0  0  0  0  0  0  0  0  0  0
  -32.8727  -13.6633   17.6826 C   0  0  0  0  0  0  0  0  0  0  0  0
  -24.7888  -23.3358   23.5599 C   0  0  0  0  0  0  0  0  0  0  0  0
  -25.5468  -30.1005   23.6650 C   0  0  0  0  0  0  0  0  0  0  0  0
  -28.5520  -22.9341   23.6128 C   0  0  0  0  0  0  0  0  0  0  0  0
  -31.2823  -27.0013   25.5515 C   0  0  0  0  0  0  0  0  0  0  0  0
  -25.7924  -29.9265   25.1547 C   0  0  0  0  0  0  0  0  0  0  0  0
  -24.0666  -30.2342   23.3433 C   0  0  0  0  0  0  0  0  0  0  0  0
  -29.1248  -23.4609   22.3098 C   0  0  0  0  0  0  0  0  0  0  0  0
  -30.8498  -28.2313   26.3294 C   0  0  0  0  0  0  0  0  0  0  0  0
  -29.0930  -21.9395   18.9600 C   0  0  0  0  0  0  0  0  0  1  0  0
  -22.6178  -24.1801   23.2485 C   0  0  0  0  0  0  0  0  0  0  0  0
  -29.3947  -22.9745   20.0265 C   0  0  0  0  0  0  0  0  0  0  0  0
  -21.6964  -25.3209   23.6352 C   0  0  0  0  0  0  0  0  0  0  0  0
  -27.4864  -29.6582   26.7613 C   0  0  0  0  0  0  0  0  0  0  0  0
  -22.1261  -28.9338   23.0863 C   0  0  0  0  0  0  0  0  0  0  0  0
  -28.9876  -29.5307   26.9347 C   0  0  0  0  0  0  0  0  0  0  0  0
  -21.4496  -27.6562   23.5448 C   0  0  0  0  0  0  0  0  0  0  0  0
  -29.2813  -13.3789   21.1258 C   0  0  1  0  0  0  0  0  0  0  0  0
  -32.6155  -12.2455   19.7228 C   0  0  2  0  0  0  0  0  0  0  0  0
  -28.7166  -12.7570   22.4342 C   0  0  0  0  0  0  0  0  0  0  0  0
  -27.7564  -26.5832   19.8043 N   0  0  0  0  0  0  0  0  0  0  0  0
  -27.8795  -27.8479   20.2418 N   0  0  0  0  0  0  0  0  0  0  0  0
  -27.9614  -14.7782   19.5690 N   0  0  0  0  0  0  0  0  0  0  0  0
  -31.3226  -27.6930   21.8939 N   0  0  0  0  0  0  0  0  0  0  0  0
  -26.6721  -29.8593   20.5689 N   0  0  0  0  0  0  0  0  0  0  0  0
  -23.5768  -27.0532   18.8538 N   0  0  0  0  0  0  0  0  0  0  0  0
  -24.6027  -14.4880   19.5012 N   0  0  0  0  0  0  0  0  0  0  0  0
  -27.0862  -22.7706   23.4809 N   0  0  0  0  0  0  0  0  0  0  0  0
  -30.3959  -12.6383   20.5448 N   0  0  0  0  0  0  0  0  0  0  0  0
  -30.9365  -27.1018   24.1511 N   0  0  0  0  0  0  0  0  0  0  0  0
  -33.5469  -12.9562   18.8018 N   0  3  0  0  0  0  0  0  0  0  0  0
  -23.9384  -29.1861   19.6147 O   0  0  0  0  0  0  0  0  0  0  0  0
  -25.7067  -16.4325   20.1515 O   0  0  0  0  0  0  0  0  0  0  0  0
  -27.6878  -12.4634   19.6261 O   0  0  0  0  0  0  0  0  0  0  0  0
  -26.5071  -24.9023   24.1953 O   0  0  0  0  0  0  0  0  0  0  0  0
  -31.9164  -14.3885   20.5924 O   0  0  0  0  0  0  0  0  0  0  0  0
  -32.9091  -28.0958   23.5367 O   0  0  0  0  0  0  0  0  0  0  0  0
  -24.4028  -21.7465   17.3734 O   0  0  0  0  0  0  0  0  0  0  0  0
  -29.6848  -20.6967   19.3361 O   0  0  0  0  0  0  0  0  0  1  0  0
  -23.8874  -24.3791   23.8636 O   0  0  0  0  0  0  0  0  0  0  0  0
  -27.1913  -29.8233   25.3808 O   0  0  0  0  0  0  0  0  0  0  0  0
  -23.3765  -29.0616   23.7523 O   0  0  0  0  0  0  0  0  0  0  0  0
  -28.8748  -22.5239   21.2715 O   0  0  0  0  0  0  0  0  0  0  0  0
  -29.4420  -28.3879   26.2200 O   0  0  0  0  0  0  0  0  0  0  0  0
  -22.2733  -26.5488   23.2075 O   0  0  0  0  0  0  0  0  0  0  0  0
  -19.5217  -20.0275   19.2769 F   0  0  0  0  0  0  0  0  0  0  0  0
  -22.1400  -23.3094   17.0908 F   0  0  0  0  0  0  0  0  0  0  0  0
  1  2  1  0  0  0  0
  1  5  2  0  0  0  0
  2  6  2  0  0  0  0
  3  8  2  0  0  0  0
  3 15  1  0  0  0  0
  4  9  1  0  0  0  0
  4 15  2  0  0  0  0
  5 17  1  0  0  0  0
  6 19  1  0  0  0  0
  7 10  2  0  0  0  0
  7 18  1  0  0  0  0
  8 21  1  0  0  0  0
  9 21  2  0  0  0  0
 10 22  1  0  0  0  0
 11 12  2  0  0  0  0
 11 23  1  0  0  0  0
 12 24  1  0  0  0  0
 13 20  1  0  0  0  0
 13 22  2  0  0  0  0
 14 24  2  0  0  0  0
 14 25  1  0  0  0  0
 15 26  1  0  0  0  0
 16 26  1  0  0  0  0
 16 27  2  0  0  0  0
 16 28  1  0  0  0  0
 17 19  2  0  0  0  0
 17 34  1  0  0  0  0
 18 20  2  0  0  0  0
 18 35  1  0  0  0  0
 19 43  1  0  0  0  0
 20 36  1  0  0  0  0
 21 87  1  0  0  0  0
 22 88  1  0  0  0  0
 23 25  2  0  0  0  0
 23 87  1  0  0  0  0
 24 95  1  0  0  0  0
 25 96  1  0  0  0  0
 26 70  2  0  0  0  0
 27 71  1  0  0  0  0
 27 74  1  0  0  0  0
 28 75  1  0  0  0  0
 28 81  2  0  0  0  0
 29 44  1  0  0  0  0
 29 76  1  0  0  0  0
 29 82  2  0  0  0  0
 30 67  1  0  0  0  0
 30 72  1  0  0  0  0
 30 83  2  0  0  0  0
 31 51  1  0  0  0  0
 31 77  1  0  0  0  0
 31 84  2  0  0  0  0
 32 68  1  0  0  0  0
 32 78  1  0  0  0  0
 32 85  2  0  0  0  0
 33 73  1  0  0  0  0
 33 79  1  0  0  0  0
 33 86  2  0  0  0  0
 34 37  1  0  0  0  0
 35 44  1  0  0  0  0
 36 72  1  0  0  0  0
 37 39  1  0  0  0  0
 38 40  1  0  0  0  0
 38 41  1  0  0  0  0
 39 43  1  0  0  0  0
 40 45  1  0  0  0  0
 41 73  1  0  0  0  0
 42 45  1  0  0  0  0
 42 73  1  0  0  0  0
 43 76  1  0  0  0  0
 44 72  1  0  0  0  0
 45 71  1  0  0  0  0
 46 68  1  0  0  0  0
 47 69  1  0  0  0  0
 48 69  1  0  0  0  0
 49 69  1  0  0  0  0
 50 80  1  0  0  0  0
 51 89  1  0  0  0  0
 52 55  1  0  0  0  0
 52 56  1  0  0  0  0
 53 57  1  0  0  0  0
 53 77  1  0  0  0  0
 54 58  1  0  0  0  0
 54 79  1  0  0  0  0
 55 90  1  0  0  0  0
 56 91  1  0  0  0  0
 57 92  1  0  0  0  0
 58 93  1  0  0  0  0
 59 61  1  0  0  0  0
 59 88  1  0  0  0  0
 60 62  1  0  0  0  0
 60 89  1  0  0  0  0
 61 92  1  0  0  0  0
 62 94  1  0  0  0  0
 63 65  1  0  0  0  0
 63 90  1  0  0  0  0
 64 66  1  0  0  0  0
 64 91  1  0  0  0  0
 65 93  1  0  0  0  0
 66 94  1  0  0  0  0
 67 69  1  0  0  0  0
 67 78  1  0  0  0  0
 68 80  1  0  0  0  0
 70 71  1  0  0  0  0
M  CHG  1  80   1
M  ISO  4  33 100  59 101  79 100  88 101
M  END
> <Batch ID>
0000

> <Smiles>
CNC(C)C(=O)NC(C(=O)N1Cc2cc([101O:1][101CH2:1]COCCNC(=O)COCCOCCOCCCOCCOCC[100NH:0][100C:0](=O)N3CCCC(n4nc(-c5ccc(Oc6ccc(F)cc6F)cc5)c(C(N)=O)c4N)C3)ccc2CC1C(=O)NC1CCCc2ccccc21)C(C)(C)C

> <Shape>
0.225

> <Color>
0.056

> <Negative vol penalty>
0.000

$$$$

  -OEChem-04052315133D

 86 94  0     1  0  0  0  0  0999 V2000
  -32.2052  -14.7434   21.2742 C   0  0  0  0  0  0  0  0  0  0  0  0
  -31.2828  -15.7460   21.5557 C   0  0  0  0  0  0  0  0  0  0  0  0
  -29.2460  -24.1293   22.2838 C   0  0  0  0  0  0  0  0  0  0  0  0
  -27.5990  -24.1946   20.5175 C   0  0  0  0  0  0  0  0  0  0  0  0
  -31.8087  -13.6135   20.5600 C   0  0  0  0  0  0  0  0  0  0  0  0
  -29.9635  -15.6199   21.1221 C   0  0  0  0  0  0  0  0  0  0  0  0
  -24.9342  -17.5798   24.0153 C   0  0  0  0  0  0  0  0  0  0  0  0
  -18.9101  -25.4133   23.5578 C   0  0  0  0  0  0  0  0  0  0  0  0
  -20.5680  -24.9504   21.8625 C   0  0  0  0  0  0  0  0  0  0  0  0
  -29.1554  -22.7378   22.3169 C   0  0  0  0  0  0  0  0  0  0  0  0
  -27.5084  -22.8031   20.5505 C   0  0  0  0  0  0  0  0  0  0  0  0
  -24.1491  -18.7217   23.8625 C   0  0  0  0  0  0  0  0  0  0  0  0
  -18.9492  -26.7676   23.2264 C   0  0  0  0  0  0  0  0  0  0  0  0
  -20.6071  -26.3048   21.5310 C   0  0  0  0  0  0  0  0  0  0  0  0
  -27.1087  -19.2447   19.9209 C   0  0  0  0  0  0  0  0  0  0  0  0
  -27.1064  -18.5651   18.7029 C   0  0  0  0  0  0  0  0  0  0  0  0
  -22.6342  -17.4840   22.4510 C   0  0  0  0  0  0  0  0  0  0  0  0
  -29.2809  -19.4828   18.1867 C   0  0  0  0  0  0  0  0  0  0  0  0
  -28.4677  -24.8577   21.3842 C   0  0  0  0  0  0  0  0  0  0  0  0
  -29.4330  -27.0724   20.5648 C   0  0  0  0  0  0  0  0  0  0  0  0
  -30.4816  -13.4690   20.1258 C   0  0  0  0  0  0  0  0  0  0  0  0
  -24.5805  -16.3822   23.3772 C   0  0  0  0  0  0  0  0  0  0  0  0
  -29.5492  -14.4877   20.4002 C   0  0  0  0  0  0  0  0  0  0  0  0
  -23.4151  -16.3276   22.5994 C   0  0  0  0  0  0  0  0  0  0  0  0
  -19.7195  -24.5047   22.8759 C   0  0  0  0  0  0  0  0  0  0  0  0
  -28.2867  -22.0747   21.4502 C   0  0  0  0  0  0  0  0  0  0  0  0
  -19.7977  -27.2133   22.2130 C   0  0  0  0  0  0  0  0  0  0  0  0
  -23.0005  -18.6748   23.0779 C   0  0  0  0  0  0  0  0  0  0  0  0
  -28.1971  -20.0434   20.2719 C   0  0  0  0  0  0  0  0  0  0  0  0
  -28.1925  -18.6842   17.8358 C   0  0  0  0  0  0  0  0  0  0  0  0
  -29.2832  -20.1625   19.4049 C   0  0  0  0  0  0  0  0  0  0  0  0
  -28.5604  -26.2952   21.3500 C   0  0  0  0  0  0  0  0  0  0  0  0
  -29.1286  -28.3702   20.8955 C   0  0  0  0  0  0  0  0  0  0  0  0
  -30.4295  -26.6581   19.6209 C   0  0  0  0  0  0  0  0  0  0  0  0
  -25.9393  -14.5208   21.1881 C   0  0  0  0  0  0  0  0  0  0  0  0
  -23.4251  -12.5785   21.8427 C   0  0  0  0  0  0  0  0  0  0  0  0
  -20.4135  -22.0950   22.6394 C   0  0  0  0  0  0  0  0  0  0  0  0
  -20.2342  -12.2644   23.0116 C   0  0  0  0  0  0  0  0  0  0  0  0
  -24.1925  -30.9749   23.0638 C   0  0  0  0  0  0  0  0  0  0  0  0
  -30.1112  -12.2517   19.3160 C   0  0  0  0  0  0  0  0  0  0  0  0
  -25.4235  -15.1521   23.5737 C   0  0  0  0  0  0  0  0  0  0  0  0
  -22.9807  -15.0611   21.9096 C   0  0  0  0  0  0  0  0  0  0  0  0
  -28.6054  -12.0211   19.2169 C   0  0  0  0  0  0  0  0  0  0  0  0
  -27.4465  -31.0178   24.5083 C   0  0  0  0  0  0  0  0  0  0  0  0
  -27.8875  -13.3228   18.8747 C   0  0  0  0  0  0  0  0  0  0  0  0
  -28.1797  -29.8824   23.7918 C   0  0  0  0  0  0  0  0  0  0  0  0
  -25.9787  -30.6753   24.7538 C   0  0  0  0  0  0  0  0  0  0  0  0
  -25.9626  -29.1280   22.8356 C   0  0  0  0  0  0  0  0  0  0  0  0
  -28.1031  -14.3758   19.9684 C   0  0  1  0  0  0  0  0  0  0  0  0
  -25.2474  -14.1232   22.4612 C   0  0  1  0  0  0  0  0  0  0  0  0
  -27.4326  -29.4496   22.5160 C   0  0  2  0  0  0  0  0  0  0  0  0
  -18.4333  -10.5579   23.3884 C   0  0  0  0  0  0  0  0  0  0  0  0
  -22.8266  -12.5530   18.8509 C   0  0  0  0  0  0  0  0  0  0  0  0
  -20.5485  -11.6625   19.3849 C   0  0  0  0  0  0  0  0  0  0  0  0
  -22.5754  -10.3377   19.9839 C   0  0  0  0  0  0  0  0  0  0  0  0
  -20.2033  -12.7708   25.9273 C   0  0  0  0  0  0  0  0  0  0  0  0
  -20.0654  -20.7659   23.2998 C   0  0  0  0  0  0  0  0  0  0  0  0
  -21.1764  -30.5207   21.7573 C   0  0  0  0  0  0  0  0  0  0  0  0
  -22.4749  -31.1583   21.2819 C   0  0  0  0  0  0  0  0  0  0  0  0
  -20.8351  -19.5898   22.7180 C   0  0  0  0  0  0  0  0  0  1  0  0
  -21.0709  -29.0456   21.3897 C   0  0  0  0  0  0  0  0  0  0  0  0
  -22.0243  -12.4239   21.3015 C   0  0  1  0  0  0  0  0  0  0  0  0
  -19.6148  -11.2939   24.0009 C   0  0  2  0  0  0  0  0  0  0  0  0
  -22.0027  -11.7688   19.8916 C   0  0  0  0  0  0  0  0  0  0  0  0
  -27.7617  -27.0374   22.1215 N   0  0  0  0  0  0  0  0  0  0  0  0
  -28.1313  -28.2945   21.8228 N   0  0  0  0  0  0  0  0  0  0  0  0
  -23.8415  -13.8868   22.1272 N   0  0  0  0  0  0  0  0  0  0  0  0
  -25.3275  -30.2745   23.5043 N   0  0  0  0  0  0  0  0  0  0  0  0
  -29.6194  -29.5574   20.4807 N   0  0  0  0  0  0  0  0  0  0  0  0
  -30.6121  -25.2860   19.4009 N   0  0  0  0  0  0  0  0  0  0  0  0
  -19.6799  -23.1306   23.2121 N   0  0  0  0  0  0  0  0  0  0  0  0
  -27.2539  -14.1023   21.1078 N   0  0  0  0  0  0  0  0  0  0  0  0
  -21.2745  -11.6881   22.3138 N   0  0  0  0  0  0  0  0  0  0  0  0
  -23.6407  -30.5345   21.8671 N   0  0  0  0  0  0  0  0  0  0  0  0
  -19.1390  -12.0213   25.2115 N   0  3  0  0  0  0  0  0  0  0  0  0
  -31.1484  -27.4799   19.0033 O   0  0  0  0  0  0  0  0  0  0  0  0
  -25.3256  -15.1586   20.3407 O   0  0  0  0  0  0  0  0  0  0  0  0
  -24.1215  -11.5749   22.0137 O   0  0  0  0  0  0  0  0  0  0  0  0
  -21.2347  -22.1779   21.7321 O   0  0  0  0  0  0  0  0  0  0  0  0
  -19.8327  -13.4173   22.8692 O   0  0  0  0  0  0  0  0  0  0  0  0
  -23.7099  -31.9260   23.6880 O   0  0  0  0  0  0  0  0  0  0  0  0
  -28.1982  -20.7168   21.4820 O   0  0  0  0  0  0  0  0  0  0  0  0
  -19.8359  -28.5349   21.8895 O   0  0  0  0  0  0  0  0  0  0  0  0
  -22.2328  -19.7881   22.9266 O   0  0  0  0  0  0  0  0  0  1  0  0
  -28.1908  -18.0303   16.6667 F   0  0  0  0  0  0  0  0  0  0  0  0
  -30.3322  -20.9274   19.7371 F   0  0  0  0  0  0  0  0  0  0  0  0
  1  2  1  0  0  0  0
  1  5  2  0  0  0  0
  2  6  2  0  0  0  0
  3 10  2  0  0  0  0
  3 19  1  0  0  0  0
  4 11  1  0  0  0  0
  4 19  2  0  0  0  0
  5 21  1  0  0  0  0
  6 23  1  0  0  0  0
  7 12  2  0  0  0  0
  7 22  1  0  0  0  0
  8 13  2  0  0  0  0
  8 25  1  0  0  0  0
  9 14  1  0  0  0  0
  9 25  2  0  0  0  0
 10 26  1  0  0  0  0
 11 26  2  0  0  0  0
 12 28  1  0  0  0  0
 13 27  1  0  0  0  0
 14 27  2  0  0  0  0
 15 16  2  0  0  0  0
 15 29  1  0  0  0  0
 16 30  1  0  0  0  0
 17 24  1  0  0  0  0
 17 28  2  0  0  0  0
 18 30  2  0  0  0  0
 18 31  1  0  0  0  0
 19 32  1  0  0  0  0
 20 32  1  0  0  0  0
 20 33  2  0  0  0  0
 20 34  1  0  0  0  0
 21 23  2  0  0  0  0
 21 40  1  0  0  0  0
 22 24  2  0  0  0  0
 22 41  1  0  0  0  0
 23 49  1  0  0  0  0
 24 42  1  0  0  0  0
 25 71  1  0  0  0  0
 26 82  1  0  0  0  0
 27 83  1  0  0  0  0
 28 84  1  0  0  0  0
 29 31  2  0  0  0  0
 29 82  1  0  0  0  0
 30 85  1  0  0  0  0
 31 86  1  0  0  0  0
 32 65  2  0  0  0  0
 33 66  1  0  0  0  0
 33 69  1  0  0  0  0
 34 70  1  0  0  0  0
 34 76  2  0  0  0  0
 35 50  1  0  0  0  0
 35 72  1  0  0  0  0
 35 77  2  0  0  0  0
 36 62  1  0  0  0  0
 36 67  1  0  0  0  0
 36 78  2  0  0  0  0
 37 57  1  0  0  0  0
 37 71  1  0  0  0  0
 37 79  2  0  0  0  0
 38 63  1  0  0  0  0
 38 73  1  0  0  0  0
 38 80  2  0  0  0  0
 39 68  1  0  0  0  0
 39 74  1  0  0  0  0
 39 81  2  0  0  0  0
 40 43  1  0  0  0  0
 41 50  1  0  0  0  0
 42 67  1  0  0  0  0
 43 45  1  0  0  0  0
 44 46  1  0  0  0  0
 44 47  1  0  0  0  0
 45 49  1  0  0  0  0
 46 51  1  0  0  0  0
 47 68  1  0  0  0  0
 48 51  1  0  0  0  0
 48 68  1  0  0  0  0
 49 72  1  0  0  0  0
 50 67  1  0  0  0  0
 51 66  1  0  0  0  0
 52 63  1  0  0  0  0
 53 64  1  0  0  0  0
 54 64  1  0  0  0  0
 55 64  1  0  0  0  0
 56 75  1  0  0  0  0
 57 60  1  0  0  0  0
 58 59  1  0  0  0  0
 58 61  1  0  0  0  0
 59 74  1  0  0  0  0
 60 84  1  0  0  0  0
 61 83  1  0  0  0  0
 62 64  1  0  0  0  0
 62 73  1  0  0  0  0
 63 75  1  0  0  0  0
 65 66  1  0  0  0  0
M  CHG  1  75   1
M  ISO  4  39 100  60 101  74 100  84 101
M  END
> <Batch ID>
0000

> <Smiles>
CNC(C)C(=O)NC(C(=O)N1Cc2cc([101O:1][101CH2:1]CC(=O)Nc3ccc(OCCC[100NH:0][100C:0](=O)N4CCCC(n5nc(-c6ccc(Oc7ccc(F)cc7F)cc6)c(C(N)=O)c5N)C4)cc3)ccc2CC1C(=O)NC1CCCc2ccccc21)C(C)(C)C

> <Shape>
0.288

> <Color>
0.053

> <Negative vol penalty>
0.000

$$$$

  -OEChem-04052315133D

109117  0     1  0  0  0  0  0999 V2000
  -30.6567  -25.1582   18.1083 C   0  0  0  0  0  0  0  0  0  0  0  0
  -29.2717  -25.0926   18.2218 C   0  0  0  0  0  0  0  0  0  0  0  0
  -27.7698  -14.1191   18.6370 C   0  0  0  0  0  0  0  0  0  0  0  0
  -25.9591  -15.1710   19.8420 C   0  0  0  0  0  0  0  0  0  0  0  0
  -23.5476  -17.4212   20.9364 C   0  0  0  0  0  0  0  0  0  0  0  0
  -25.3011  -19.0545   21.2437 C   0  0  0  0  0  0  0  0  0  0  0  0
  -31.4065  -25.7957   19.0959 C   0  0  0  0  0  0  0  0  0  0  0  0
  -28.6357  -25.6637   19.3236 C   0  0  0  0  0  0  0  0  0  0  0  0
  -23.1565  -28.3982   19.4030 C   0  0  0  0  0  0  0  0  0  0  0  0
  -23.1922  -18.0292   19.7324 C   0  0  0  0  0  0  0  0  0  0  0  0
  -24.9457  -19.6625   20.0396 C   0  0  0  0  0  0  0  0  0  0  0  0
  -27.3868  -12.8778   19.1450 C   0  0  0  0  0  0  0  0  0  0  0  0
  -25.5761  -13.9297   20.3500 C   0  0  0  0  0  0  0  0  0  0  0  0
  -21.8896  -27.9496   19.7737 C   0  0  0  0  0  0  0  0  0  0  0  0
  -23.8760  -11.2156   19.2710 C   0  0  0  0  0  0  0  0  0  0  0  0
  -22.5171  -10.9015   19.2542 C   0  0  0  0  0  0  0  0  0  0  0  0
  -22.1978  -28.9091   21.9654 C   0  0  0  0  0  0  0  0  0  0  0  0
  -22.5398  -10.6747   21.6594 C   0  0  0  0  0  0  0  0  0  0  0  0
  -27.0560  -15.2658   18.9855 C   0  0  0  0  0  0  0  0  0  0  0  0
  -24.6020  -17.9338   21.6921 C   0  0  0  0  0  0  0  0  0  0  0  0
  -27.0091  -17.1528   17.2695 C   0  0  0  0  0  0  0  0  0  0  0  0
  -30.7786  -26.3833   20.2054 C   0  0  0  0  0  0  0  0  0  0  0  0
  -23.9593  -29.0974   20.3157 C   0  0  0  0  0  0  0  0  0  0  0  0
  -29.3780  -26.3085   20.3276 C   0  0  0  0  0  0  0  0  0  0  0  0
  -23.4735  -29.3678   21.6030 C   0  0  0  0  0  0  0  0  0  0  0  0
  -23.8912  -19.1498   19.2840 C   0  0  0  0  0  0  0  0  0  0  0  0
  -26.2900  -12.7831   20.0015 C   0  0  0  0  0  0  0  0  0  0  0  0
  -21.4112  -28.2025   21.0560 C   0  0  0  0  0  0  0  0  0  0  0  0
  -24.5669  -11.2592   20.4820 C   0  0  0  0  0  0  0  0  0  0  0  0
  -21.8490  -10.6310   20.4484 C   0  0  0  0  0  0  0  0  0  0  0  0
  -23.8987  -10.9888   21.6762 C   0  0  0  0  0  0  0  0  0  0  0  0
  -27.4515  -16.5484   18.4615 C   0  0  0  0  0  0  0  0  0  0  0  0
  -27.6756  -18.3529   17.2252 C   0  0  0  0  0  0  0  0  0  0  0  0
  -21.9983  -19.7002   16.1090 C   0  0  0  0  0  0  0  0  0  0  0  0
  -21.8710  -19.3238   14.8291 C   0  0  0  0  0  0  0  0  0  0  0  0
  -24.9725  -17.3000   22.9474 C   0  0  0  0  0  0  0  0  0  0  0  0
  -26.0788  -16.6724   16.2900 C   0  0  0  0  0  0  0  0  0  0  0  0
  -22.9672  -19.0005   17.0043 C   0  0  0  0  0  0  0  0  0  0  0  0
  -26.7916  -28.5839   21.6641 C   0  0  0  0  0  0  0  0  0  0  0  0
  -26.3440  -31.5779   22.8293 C   0  0  0  0  0  0  0  0  0  0  0  0
  -24.1610  -34.0594   23.6800 C   0  0  0  0  0  0  0  0  0  0  0  0
  -30.0579  -21.8528   21.4592 C   0  0  0  0  0  0  0  0  0  0  0  0
  -31.6350  -27.0202   21.2711 C   0  0  0  0  0  0  0  0  0  0  0  0
  -25.3129  -29.5978   19.8917 C   0  0  0  0  0  0  0  0  0  0  0  0
  -24.2879  -30.1318   22.6137 C   0  0  0  0  0  0  0  0  0  0  0  0
  -30.8540  -27.9271   22.2187 C   0  0  0  0  0  0  0  0  0  0  0  0
  -31.7378  -20.4351   18.6583 C   0  0  0  0  0  0  0  0  0  0  0  0
  -29.5735  -27.2393   22.6815 C   0  0  0  0  0  0  0  0  0  0  0  0
  -30.7898  -19.3328   18.1827 C   0  0  0  0  0  0  0  0  0  0  0  0
  -31.7399  -20.5598   20.1803 C   0  0  0  0  0  0  0  0  0  0  0  0
  -29.4601  -19.6332   20.3136 C   0  0  0  0  0  0  0  0  0  0  0  0
  -28.6496  -26.9376   21.4954 C   0  0  1  0  0  0  0  0  0  0  0  0
  -26.2510  -29.8525   21.0675 C   0  0  1  0  0  0  0  0  0  0  0  0
  -29.3816  -19.5070   18.7825 C   0  0  2  0  0  0  0  0  0  0  0  0
  -21.5168  -21.1356   13.1494 C   0  0  0  0  0  0  0  0  0  0  0  0
  -24.0897  -36.3763   24.6414 C   0  0  0  0  0  0  0  0  0  0  0  0
  -26.8540  -30.4361   25.6124 C   0  0  0  0  0  0  0  0  0  0  0  0
  -25.8532  -32.5195   26.5746 C   0  0  0  0  0  0  0  0  0  0  0  0
  -27.9201  -32.6576   25.1848 C   0  0  0  0  0  0  0  0  0  0  0  0
  -22.9279  -35.1646   21.2270 C   0  0  0  0  0  0  0  0  0  0  0  0
  -20.8961  -19.9538   13.8777 C   0  0  0  0  0  0  0  0  0  0  0  0
  -26.8288  -16.8478   24.5705 C   0  0  0  0  0  0  0  0  0  0  0  0
  -28.2605  -23.0396   22.6921 C   0  0  0  0  0  0  0  0  0  0  0  0
  -23.7340  -21.2359   17.8615 C   0  0  0  0  0  0  0  0  0  0  0  0
  -26.6657  -17.8205   25.7241 C   0  0  0  0  0  0  0  0  0  0  0  0
  -28.4158  -22.7701   24.1782 C   0  0  0  0  0  0  0  0  0  0  0  0
  -22.9400  -21.9935   18.9100 C   0  0  0  0  0  0  0  0  0  0  0  0
  -19.4734  -28.5386   22.3931 C   0  0  0  0  0  0  0  0  0  1  0  0
  -17.9824  -28.4023   22.1522 C   0  0  0  0  0  0  0  0  0  0  0  0
  -26.9428  -20.0979   26.2336 C   0  0  0  0  0  0  0  0  0  0  0  0
  -27.7805  -21.3216   25.9163 C   0  0  0  0  0  0  0  0  0  0  0  0
  -20.7677  -22.4144   19.7016 C   0  0  0  0  0  0  0  0  0  0  0  0
  -19.3032  -22.1077   19.4541 C   0  0  0  0  0  0  0  0  0  0  0  0
  -16.2202  -26.8494   22.0773 C   0  0  0  0  0  0  0  0  0  0  0  0
  -15.8912  -25.3756   22.2172 C   0  0  0  0  0  0  0  0  0  0  0  0
  -17.1300  -22.5278   20.2438 C   0  0  0  0  0  0  0  0  0  0  0  0
  -16.3477  -23.2506   21.3234 C   0  0  0  0  0  0  0  0  0  0  0  0
  -25.7071  -32.1587   24.0687 C   0  0  1  0  0  0  0  0  0  0  0  0
  -24.1543  -35.5453   23.3694 C   0  0  2  0  0  0  0  0  0  0  0  0
  -26.5688  -31.9268   25.3419 C   0  0  0  0  0  0  0  0  0  0  0  0
  -28.3311  -17.3022   19.1263 N   0  0  0  0  0  0  0  0  0  0  0  0
  -28.4470  -18.3926   18.3493 N   0  0  0  0  0  0  0  0  0  0  0  0
  -25.6075  -30.5947   22.1535 N   0  0  0  0  0  0  0  0  0  0  0  0
  -30.3746  -20.7242   20.6853 N   0  0  0  0  0  0  0  0  0  0  0  0
  -27.6714  -19.3674   16.3346 N   0  0  0  0  0  0  0  0  0  0  0  0
  -25.4851  -15.4188   16.4907 N   0  0  0  0  0  0  0  0  0  0  0  0
  -26.3027  -17.4380   23.3607 N   0  0  0  0  0  0  0  0  0  0  0  0
  -27.9591  -28.1379   21.0746 N   0  0  0  0  0  0  0  0  0  0  0  0
  -25.4439  -33.5628   23.7727 N   0  0  0  0  0  0  0  0  0  0  0  0
  -28.7402  -21.9345   21.8925 N   0  0  0  0  0  0  0  0  0  0  0  0
  -23.5213  -19.7806   18.0331 N   0  0  0  0  0  0  0  0  0  0  0  0
  -22.9788  -35.8920   22.5214 N   0  3  0  0  0  0  0  0  0  0  0  0
  -24.1344  -16.6514   23.5987 O   0  0  0  0  0  0  0  0  0  0  0  0
  -25.7952  -17.3280   15.2589 O   0  0  0  0  0  0  0  0  0  0  0  0
  -23.2074  -17.8095   16.8045 O   0  0  0  0  0  0  0  0  0  0  0  0
  -26.1946  -28.0501   22.5916 O   0  0  0  0  0  0  0  0  0  0  0  0
  -27.4508  -31.9869   22.4699 O   0  0  0  0  0  0  0  0  0  0  0  0
  -23.1311  -33.4055   23.8293 O   0  0  0  0  0  0  0  0  0  0  0  0
  -30.8866  -22.7258   21.7386 O   0  0  0  0  0  0  0  0  0  0  0  0
  -25.9158  -11.5720   20.4972 O   0  0  0  0  0  0  0  0  0  0  0  0
  -20.1752  -27.7652   21.4207 O   0  0  0  0  0  0  0  0  0  1  0  0
  -27.4034  -19.0050   25.4510 O   0  0  0  0  0  0  0  0  0  0  0  0
  -27.6661  -21.6154   24.5292 O   0  0  0  0  0  0  0  0  0  0  0  0
  -21.5555  -21.7245   18.7389 O   0  0  0  0  0  0  0  0  0  0  0  0
  -17.6119  -27.0363   22.2932 O   0  0  0  0  0  0  0  0  0  0  0  0
  -18.5176  -22.7805   20.4282 O   0  0  0  0  0  0  0  0  0  0  0  0
  -16.6183  -24.6428   21.2386 O   0  0  0  0  0  0  0  0  0  0  0  0
  -20.5437  -10.3309   20.4322 F   0  0  0  0  0  0  0  0  0  0  0  0
  -24.5568  -11.0303   22.8429 F   0  0  0  0  0  0  0  0  0  0  0  0
  1  2  1  0  0  0  0
  1  7  2  0  0  0  0
  2  8  2  0  0  0  0
  3 12  2  0  0  0  0
  3 19  1  0  0  0  0
  4 13  1  0  0  0  0
  4 19  2  0  0  0  0
  5 10  2  0  0  0  0
  5 20  1  0  0  0  0
  6 11  1  0  0  0  0
  6 20  2  0  0  0  0
  7 22  1  0  0  0  0
  8 24  1  0  0  0  0
  9 14  2  0  0  0  0
  9 23  1  0  0  0  0
 10 26  1  0  0  0  0
 11 26  2  0  0  0  0
 12 27  1  0  0  0  0
 13 27  2  0  0  0  0
 14 28  1  0  0  0  0
 15 16  2  0  0  0  0
 15 29  1  0  0  0  0
 16 30  1  0  0  0  0
 17 25  1  0  0  0  0
 17 28  2  0  0  0  0
 18 30  2  0  0  0  0
 18 31  1  0  0  0  0
 19 32  1  0  0  0  0
 20 36  1  0  0  0  0
 21 32  1  0  0  0  0
 21 33  2  0  0  0  0
 21 37  1  0  0  0  0
 22 24  2  0  0  0  0
 22 43  1  0  0  0  0
 23 25  2  0  0  0  0
 23 44  1  0  0  0  0
 24 52  1  0  0  0  0
 25 45  1  0  0  0  0
 26 91  1  0  0  0  0
 27100  1  0  0  0  0
 28101  1  0  0  0  0
 29 31  2  0  0  0  0
 29100  1  0  0  0  0
 30108  1  0  0  0  0
 31109  1  0  0  0  0
 32 81  2  0  0  0  0
 33 82  1  0  0  0  0
 33 85  1  0  0  0  0
 34 35  2  0  0  0  0
 34 38  1  0  0  0  0
 35 61  1  0  0  0  0
 36 87  1  0  0  0  0
 36 93  2  0  0  0  0
 37 86  1  0  0  0  0
 37 94  2  0  0  0  0
 38 91  1  0  0  0  0
 38 95  2  0  0  0  0
 39 53  1  0  0  0  0
 39 88  1  0  0  0  0
 39 96  2  0  0  0  0
 40 78  1  0  0  0  0
 40 83  1  0  0  0  0
 40 97  2  0  0  0  0
 41 79  1  0  0  0  0
 41 89  1  0  0  0  0
 41 98  2  0  0  0  0
 42 84  1  0  0  0  0
 42 90  1  0  0  0  0
 42 99  2  0  0  0  0
 43 46  1  0  0  0  0
 44 53  1  0  0  0  0
 45 83  1  0  0  0  0
 46 48  1  0  0  0  0
 47 49  1  0  0  0  0
 47 50  1  0  0  0  0
 48 52  1  0  0  0  0
 49 54  1  0  0  0  0
 50 84  1  0  0  0  0
 51 54  1  0  0  0  0
 51 84  1  0  0  0  0
 52 88  1  0  0  0  0
 53 83  1  0  0  0  0
 54 82  1  0  0  0  0
 55 61  1  0  0  0  0
 56 79  1  0  0  0  0
 57 80  1  0  0  0  0
 58 80  1  0  0  0  0
 59 80  1  0  0  0  0
 60 92  1  0  0  0  0
 62 65  1  0  0  0  0
 62 87  1  0  0  0  0
 63 66  1  0  0  0  0
 63 90  1  0  0  0  0
 64 67  1  0  0  0  0
 64 91  1  0  0  0  0
 65102  1  0  0  0  0
 66103  1  0  0  0  0
 67104  1  0  0  0  0
 68 69  1  0  0  0  0
 68101  1  0  0  0  0
 69105  1  0  0  0  0
 70 71  1  0  0  0  0
 70102  1  0  0  0  0
 71103  1  0  0  0  0
 72 73  1  0  0  0  0
 72104  1  0  0  0  0
 73106  1  0  0  0  0
 74 75  1  0  0  0  0
 74105  1  0  0  0  0
 75107  1  0  0  0  0
 76 77  1  0  0  0  0
 76106  1  0  0  0  0
 77107  1  0  0  0  0
 78 80  1  0  0  0  0
 78 89  1  0  0  0  0
 79 92  1  0  0  0  0
 81 82  1  0  0  0  0
M  CHG  1  92   1
M  ISO  4  42 100  68 101  90 100 101 101
M  END
> <Batch ID>
0000

> <Smiles>
CCC=CC(=O)N(CCOCCOCCOCCOC[101CH2:1][101O:1]c1ccc2c(c1)CN(C(=O)C(NC(=O)C(C)NC)C(C)(C)C)C(C(=O)NC1CCCc3ccccc31)C2)c1ccc(C(=O)NCCOCCOCC[100NH:0][100C:0](=O)N2CCCC(n3nc(-c4ccc(Oc5ccc(F)cc5F)cc4)c(C(N)=O)c3N)C2)cc1

> <Shape>
0.287

> <Color>
0.057

> <Negative vol penalty>
0.000

$$$$

  -OEChem-04052315133D

 84 92  0     1  0  0  0  0  0999 V2000
  -22.3818   -7.8927   20.7520 C   0  0  0  0  0  0  0  0  0  0  0  0
  -21.7625   -9.1303   20.8937 C   0  0  0  0  0  0  0  0  0  0  0  0
  -26.0302  -32.1087   20.7131 C   0  0  0  0  0  0  0  0  0  0  0  0
  -24.3946  -30.5720   21.6077 C   0  0  0  0  0  0  0  0  0  0  0  0
  -23.7340   -7.7516   21.0615 C   0  0  0  0  0  0  0  0  0  0  0  0
  -22.4947  -10.2275   21.3460 C   0  0  0  0  0  0  0  0  0  0  0  0
  -21.8023  -16.0698   19.6449 C   0  0  0  0  0  0  0  0  0  0  0  0
  -24.3292  -22.6207   20.5710 C   0  0  0  0  0  0  0  0  0  0  0  0
  -25.6343  -21.8150   22.4378 C   0  0  0  0  0  0  0  0  0  0  0  0
  -25.0080  -32.9858   20.3507 C   0  0  0  0  0  0  0  0  0  0  0  0
  -23.3723  -31.4492   21.2454 C   0  0  0  0  0  0  0  0  0  0  0  0
  -21.1368  -17.1451   20.2319 C   0  0  0  0  0  0  0  0  0  0  0  0
  -23.1726  -22.5452   21.3470 C   0  0  0  0  0  0  0  0  0  0  0  0
  -24.4776  -21.7395   23.2138 C   0  0  0  0  0  0  0  0  0  0  0  0
  -23.0308  -35.2701   21.8693 C   0  0  0  0  0  0  0  0  0  0  0  0
  -23.2052  -36.6234   22.1583 C   0  0  0  0  0  0  0  0  0  0  0  0
  -23.2074  -17.8720   21.2336 C   0  0  0  0  0  0  0  0  0  0  0  0
  -23.0278  -37.1485   19.8067 C   0  0  0  0  0  0  0  0  0  0  0  0
  -25.7235  -30.9017   21.3415 C   0  0  0  0  0  0  0  0  0  0  0  0
  -27.4780  -29.9617   22.9369 C   0  0  0  0  0  0  0  0  0  0  0  0
  -24.4855   -8.8498   21.5086 C   0  0  0  0  0  0  0  0  0  0  0  0
  -23.1756  -15.8810   19.8570 C   0  0  0  0  0  0  0  0  0  0  0  0
  -23.8578  -10.1007   21.6630 C   0  0  0  0  0  0  0  0  0  0  0  0
  -23.8885  -16.7950   20.6460 C   0  0  0  0  0  0  0  0  0  0  0  0
  -25.5601  -22.2556   21.1164 C   0  0  0  0  0  0  0  0  0  0  0  0
  -23.6790  -32.6561   20.6169 C   0  0  0  0  0  0  0  0  0  0  0  0
  -23.2468  -22.1047   22.6684 C   0  0  0  0  0  0  0  0  0  0  0  0
  -21.8388  -18.0447   21.0287 C   0  0  0  0  0  0  0  0  0  0  0  0
  -22.8551  -34.8558   20.5490 C   0  0  0  0  0  0  0  0  0  0  0  0
  -23.2036  -37.5626   21.1271 C   0  0  0  0  0  0  0  0  0  0  0  0
  -22.8536  -35.7950   19.5177 C   0  0  0  0  0  0  0  0  0  0  0  0
  -26.7789  -29.9950   21.7155 C   0  0  0  0  0  0  0  0  0  0  0  0
  -28.3703  -28.9273   22.7938 C   0  0  0  0  0  0  0  0  0  0  0  0
  -27.3338  -30.7915   24.0972 C   0  0  0  0  0  0  0  0  0  0  0  0
  -24.9480  -13.5979   21.1798 C   0  0  0  0  0  0  0  0  0  0  0  0
  -27.4045  -15.4034   20.0715 C   0  0  0  0  0  0  0  0  0  0  0  0
  -28.5311  -18.4697   19.0841 C   0  0  0  0  0  0  0  0  0  0  0  0
  -20.6663  -18.8211   22.8805 C   0  0  0  0  0  0  0  0  0  1  0  0
  -28.3949  -24.0064   19.3829 C   0  0  0  0  0  0  0  0  0  0  0  0
  -25.9328   -8.6378   21.8760 C   0  0  0  0  0  0  0  0  0  0  0  0
  -23.8841  -14.7312   19.1949 C   0  0  0  0  0  0  0  0  0  0  0  0
  -25.3678  -16.6484   20.8884 C   0  0  0  0  0  0  0  0  0  0  0  0
  -26.7282   -9.9355   21.9917 C   0  0  0  0  0  0  0  0  0  0  0  0
  -30.8656  -26.5688   19.4619 C   0  0  0  0  0  0  0  0  0  0  0  0
  -25.9529  -10.9661   22.8064 C   0  0  0  0  0  0  0  0  0  0  0  0
  -30.1615  -27.7344   20.1586 C   0  0  0  0  0  0  0  0  0  0  0  0
  -29.9093  -25.7874   18.5637 C   0  0  0  0  0  0  0  0  0  0  0  0
  -27.9764  -26.4815   19.9260 C   0  0  0  0  0  0  0  0  0  0  0  0
  -24.6244  -11.3201   22.1272 C   0  0  1  0  0  0  0  0  0  0  0  0
  -25.1821  -14.3450   19.8973 C   0  0  1  0  0  0  0  0  0  0  0  0
  -28.8871  -27.2656   20.8862 C   0  0  2  0  0  0  0  0  0  0  0  0
  -30.5951  -19.6412   18.2686 C   0  0  0  0  0  0  0  0  0  0  0  0
  -28.5309  -15.3875   22.9071 C   0  0  0  0  0  0  0  0  0  0  0  0
  -30.0096  -17.3000   22.2558 C   0  0  0  0  0  0  0  0  0  0  0  0
  -30.2399  -15.0992   21.1041 C   0  0  0  0  0  0  0  0  0  0  0  0
  -27.2397  -19.2125   16.5269 C   0  0  0  0  0  0  0  0  0  0  0  0
  -26.7968  -22.3368   20.2871 C   0  0  0  0  0  0  0  0  0  0  0  0
  -19.9734  -20.0559   23.4160 C   0  0  0  0  0  0  0  0  0  0  0  0
  -20.6336  -20.6133   24.6737 C   0  0  0  0  0  0  0  0  0  0  0  0
  -22.0805  -21.0337   24.4428 C   0  0  0  0  0  0  0  0  0  0  0  0
  -28.2239  -16.5463   20.6204 C   0  0  1  0  0  0  0  0  0  0  0  0
  -29.3255  -18.9069   17.8666 C   0  0  2  0  0  0  0  0  0  0  0  0
  -29.2228  -16.0852   21.7191 C   0  0  0  0  0  0  0  0  0  0  0  0
  -27.1917  -29.0565   20.8594 N   0  0  0  0  0  0  0  0  0  0  0  0
  -28.1598  -28.4238   21.5439 N   0  0  0  0  0  0  0  0  0  0  0  0
  -26.0144  -15.5045   20.2244 N   0  0  0  0  0  0  0  0  0  0  0  0
  -28.7226  -25.3706   19.3146 N   0  0  0  0  0  0  0  0  0  0  0  0
  -29.3066  -28.4086   23.6164 N   0  0  0  0  0  0  0  0  0  0  0  0
  -26.3687  -31.8076   24.0761 N   0  0  0  0  0  0  0  0  0  0  0  0
  -24.8476  -12.2287   21.0231 N   0  0  0  0  0  0  0  0  0  0  0  0
  -28.8538  -17.1861   19.4706 N   0  0  0  0  0  0  0  0  0  0  0  0
  -27.2584  -23.6968   20.1198 N   0  0  0  0  0  0  0  0  0  0  0  0
  -28.5078  -19.8146   17.0132 N   0  3  0  0  0  0  0  0  0  0  0  0
  -28.0509  -30.6470   25.1162 O   0  0  0  0  0  0  0  0  0  0  0  0
  -24.8660  -14.2178   22.2338 O   0  0  0  0  0  0  0  0  0  0  0  0
  -27.9762  -14.4592   19.5208 O   0  0  0  0  0  0  0  0  0  0  0  0
  -27.7094  -19.1958   19.6392 O   0  0  0  0  0  0  0  0  0  0  0  0
  -20.7780  -17.7579   23.4757 O   0  0  0  0  0  0  0  0  0  0  0  0
  -29.0686  -23.1287   18.8326 O   0  0  0  0  0  0  0  0  0  0  0  0
  -22.6813  -33.5119   20.2638 O   0  0  0  0  0  0  0  0  0  0  0  0
  -21.1915  -19.0948   21.6034 O   0  0  0  0  0  0  0  0  0  1  0  0
  -22.1105  -22.0318   23.4310 O   0  0  0  0  0  0  0  0  0  0  0  0
  -23.3695  -38.8624   21.4049 F   0  0  0  0  0  0  0  0  0  0  0  0
  -22.6840  -35.4033   18.2475 F   0  0  0  0  0  0  0  0  0  0  0  0
  1  2  1  0  0  0  0
  1  5  2  0  0  0  0
  2  6  2  0  0  0  0
  3 10  2  0  0  0  0
  3 19  1  0  0  0  0
  4 11  1  0  0  0  0
  4 19  2  0  0  0  0
  5 21  1  0  0  0  0
  6 23  1  0  0  0  0
  7 12  2  0  0  0  0
  7 22  1  0  0  0  0
  8 13  2  0  0  0  0
  8 25  1  0  0  0  0
  9 14  1  0  0  0  0
  9 25  2  0  0  0  0
 10 26  1  0  0  0  0
 11 26  2  0  0  0  0
 12 28  1  0  0  0  0
 13 27  1  0  0  0  0
 14 27  2  0  0  0  0
 15 16  2  0  0  0  0
 15 29  1  0  0  0  0
 16 30  1  0  0  0  0
 17 24  1  0  0  0  0
 17 28  2  0  0  0  0
 18 30  2  0  0  0  0
 18 31  1  0  0  0  0
 19 32  1  0  0  0  0
 20 32  1  0  0  0  0
 20 33  2  0  0  0  0
 20 34  1  0  0  0  0
 21 23  2  0  0  0  0
 21 40  1  0  0  0  0
 22 24  2  0  0  0  0
 22 41  1  0  0  0  0
 23 49  1  0  0  0  0
 24 42  1  0  0  0  0
 25 57  1  0  0  0  0
 26 80  1  0  0  0  0
 27 82  1  0  0  0  0
 28 81  1  0  0  0  0
 29 31  2  0  0  0  0
 29 80  1  0  0  0  0
 30 83  1  0  0  0  0
 31 84  1  0  0  0  0
 32 64  2  0  0  0  0
 33 65  1  0  0  0  0
 33 68  1  0  0  0  0
 34 69  1  0  0  0  0
 34 74  2  0  0  0  0
 35 50  1  0  0  0  0
 35 70  1  0  0  0  0
 35 75  2  0  0  0  0
 36 61  1  0  0  0  0
 36 66  1  0  0  0  0
 36 76  2  0  0  0  0
 37 62  1  0  0  0  0
 37 71  1  0  0  0  0
 37 77  2  0  0  0  0
 38 58  1  0  0  0  0
 38 78  2  0  0  0  0
 38 81  1  0  0  0  0
 39 67  1  0  0  0  0
 39 72  1  0  0  0  0
 39 79  2  0  0  0  0
 40 43  1  0  0  0  0
 41 50  1  0  0  0  0
 42 66  1  0  0  0  0
 43 45  1  0  0  0  0
 44 46  1  0  0  0  0
 44 47  1  0  0  0  0
 45 49  1  0  0  0  0
 46 51  1  0  0  0  0
 47 67  1  0  0  0  0
 48 51  1  0  0  0  0
 48 67  1  0  0  0  0
 49 70  1  0  0  0  0
 50 66  1  0  0  0  0
 51 65  1  0  0  0  0
 52 62  1  0  0  0  0
 53 63  1  0  0  0  0
 54 63  1  0  0  0  0
 55 63  1  0  0  0  0
 56 73  1  0  0  0  0
 57 72  1  0  0  0  0
 58 59  1  0  0  0  0
 59 60  1  0  0  0  0
 60 82  1  0  0  0  0
 61 63  1  0  0  0  0
 61 71  1  0  0  0  0
 62 73  1  0  0  0  0
 64 65  1  0  0  0  0
M  CHG  1  73   1
M  ISO  4  38 101  39 100  72 100  81 101
M  END
> <Batch ID>
0000

> <Smiles>
CNC(C)C(=O)NC(C(=O)N1Cc2cc([101O:1][101C:1](=O)CCCOc3ccc(C[100NH:0][100C:0](=O)N4CCCC(n5nc(-c6ccc(Oc7ccc(F)cc7F)cc6)c(C(N)=O)c5N)C4)cc3)ccc2CC1C(=O)NC1CCCc2ccccc21)C(C)(C)C

> <Shape>
0.238

> <Color>
0.038

> <Negative vol penalty>
0.000

$$$$

  -OEChem-04052315133D

 98106  0     1  0  0  0  0  0999 V2000
  -30.6061  -25.5050   17.2862 C   0  0  0  0  0  0  0  0  0  0  0  0
  -29.2184  -25.4598   17.3741 C   0  0  0  0  0  0  0  0  0  0  0  0
  -28.5259  -20.0268   19.3630 C   0  0  0  0  0  0  0  0  0  0  0  0
  -26.2443  -19.3250   19.7355 C   0  0  0  0  0  0  0  0  0  0  0  0
  -31.3554  -25.9967   18.3541 C   0  0  0  0  0  0  0  0  0  0  0  0
  -28.5793  -25.9053   18.5306 C   0  0  0  0  0  0  0  0  0  0  0  0
  -23.1632  -28.7420   18.8837 C   0  0  0  0  0  0  0  0  0  0  0  0
  -20.6303  -10.5200   21.8524 C   0  0  0  0  0  0  0  0  0  0  0  0
  -21.5296  -12.4813   22.9393 C   0  0  0  0  0  0  0  0  0  0  0  0
  -28.0677  -21.1608   18.6925 C   0  0  0  0  0  0  0  0  0  0  0  0
  -25.7860  -20.4590   19.0650 C   0  0  0  0  0  0  0  0  0  0  0  0
  -21.8810  -28.2820   19.1807 C   0  0  0  0  0  0  0  0  0  0  0  0
  -21.7611   -9.7941   22.2265 C   0  0  0  0  0  0  0  0  0  0  0  0
  -22.6604  -11.7555   23.3135 C   0  0  0  0  0  0  0  0  0  0  0  0
  -25.3571  -23.7435   19.7350 C   0  0  0  0  0  0  0  0  0  0  0  0
  -24.3075  -24.4568   20.3138 C   0  0  0  0  0  0  0  0  0  0  0  0
  -22.1783  -28.9548   21.4781 C   0  0  0  0  0  0  0  0  0  0  0  0
  -22.9586  -24.0673   18.3477 C   0  0  0  0  0  0  0  0  0  0  0  0
  -27.6142  -19.1088   19.8844 C   0  0  0  0  0  0  0  0  0  0  0  0
  -28.3502  -17.8114   21.9539 C   0  0  0  0  0  0  0  0  0  0  0  0
  -30.7247  -26.4575   19.5206 C   0  0  0  0  0  0  0  0  0  0  0  0
  -23.9680  -29.3029   19.8858 C   0  0  0  0  0  0  0  0  0  0  0  0
  -29.3210  -26.4024   19.6157 C   0  0  0  0  0  0  0  0  0  0  0  0
  -23.4694  -29.4235   21.1907 C   0  0  0  0  0  0  0  0  0  0  0  0
  -20.5146  -11.8636   22.2088 C   0  0  0  0  0  0  0  0  0  0  0  0
  -26.6978  -21.3770   18.5435 C   0  0  0  0  0  0  0  0  0  0  0  0
  -22.7762  -10.4118   22.9571 C   0  0  0  0  0  0  0  0  0  0  0  0
  -21.3895  -28.3857   20.4786 C   0  0  0  0  0  0  0  0  0  0  0  0
  -25.2075  -23.1921   18.4625 C   0  0  0  0  0  0  0  0  0  0  0  0
  -23.1082  -24.6187   19.6202 C   0  0  0  0  0  0  0  0  0  0  0  0
  -24.0082  -23.3540   17.7688 C   0  0  0  0  0  0  0  0  0  0  0  0
  -28.0870  -17.9369   20.5767 C   0  0  0  0  0  0  0  0  0  0  0  0
  -28.7733  -16.5136   22.1058 C   0  0  0  0  0  0  0  0  0  0  0  0
  -28.2236  -18.7813   23.0022 C   0  0  0  0  0  0  0  0  0  0  0  0
  -26.7675  -28.5572   21.1936 C   0  0  0  0  0  0  0  0  0  0  0  0
  -26.3709  -31.3938   22.7163 C   0  0  0  0  0  0  0  0  0  0  0  0
  -24.2326  -33.8034   23.8425 C   0  0  0  0  0  0  0  0  0  0  0  0
  -28.2520  -11.0655   21.0139 C   0  0  0  0  0  0  0  0  0  0  0  0
  -31.5793  -26.9363   20.6673 C   0  0  0  0  0  0  0  0  0  0  0  0
  -25.3388  -29.8187   19.5434 C   0  0  0  0  0  0  0  0  0  0  0  0
  -24.2858  -30.0362   22.2981 C   0  0  0  0  0  0  0  0  0  0  0  0
  -30.8052  -27.7376   21.7108 C   0  0  0  0  0  0  0  0  0  0  0  0
  -30.0448  -13.0402   18.6553 C   0  0  0  0  0  0  0  0  0  0  0  0
  -29.5026  -27.0292   22.0692 C   0  0  0  0  0  0  0  0  0  0  0  0
  -29.7120  -14.4789   19.0547 C   0  0  0  0  0  0  0  0  0  0  0  0
  -28.8493  -12.1099   18.8486 C   0  0  0  0  0  0  0  0  0  0  0  0
  -27.9205  -13.5780   20.5967 C   0  0  0  0  0  0  0  0  0  0  0  0
  -28.5898  -26.8996   20.8439 C   0  0  1  0  0  0  0  0  0  0  0  0
  -26.2649  -29.9028   20.7528 C   0  0  1  0  0  0  0  0  0  0  0  0
  -29.1121  -14.5428   20.4722 C   0  0  2  0  0  0  0  0  0  0  0  0
  -24.1998  -35.9843   25.0834 C   0  0  0  0  0  0  0  0  0  0  0  0
  -26.8134  -29.9037   25.3419 C   0  0  0  0  0  0  0  0  0  0  0  0
  -25.8460  -31.8757   26.5434 C   0  0  0  0  0  0  0  0  0  0  0  0
  -27.9360  -32.1344   25.2063 C   0  0  0  0  0  0  0  0  0  0  0  0
  -23.0616  -35.2338   21.5313 C   0  0  0  0  0  0  0  0  0  0  0  0
  -19.2980  -12.6444   21.8070 C   0  0  0  0  0  0  0  0  0  0  0  0
  -26.2620   -9.4849   23.1475 C   0  0  0  0  0  0  0  0  0  0  0  0
  -18.2033  -14.0707   18.4466 C   0  0  0  0  0  0  0  0  0  0  0  0
  -18.8251  -26.3938   22.0810 C   0  0  0  0  0  0  0  0  0  0  0  0
  -15.4458  -17.9296   19.0605 C   0  0  0  0  0  0  0  0  0  0  0  0
  -17.2837  -22.1574   20.4424 C   0  0  0  0  0  0  0  0  0  0  0  0
  -27.6195  -10.1686   23.2399 C   0  0  0  0  0  0  0  0  0  0  0  0
  -18.0713  -13.7290   19.9208 C   0  0  0  0  0  0  0  0  0  0  0  0
  -25.1024  -10.4258   23.4512 C   0  0  0  0  0  0  0  0  0  0  0  0
  -16.9566  -14.7714   17.9258 C   0  0  0  0  0  0  0  0  0  0  0  0
  -19.9151  -27.4539   22.0954 C   0  0  0  0  0  0  0  0  0  1  0  0
  -19.1877  -25.2171   21.1887 C   0  0  0  0  0  0  0  0  0  0  0  0
  -15.6019  -16.6678   18.2279 C   0  0  0  0  0  0  0  0  0  0  0  0
  -16.6425  -18.8571   18.9193 C   0  0  0  0  0  0  0  0  0  0  0  0
  -18.4410  -23.1405   20.3806 C   0  0  0  0  0  0  0  0  0  0  0  0
  -17.5400  -20.9216   19.5941 C   0  0  0  0  0  0  0  0  0  0  0  0
  -25.7290  -31.8319   24.0105 C   0  0  1  0  0  0  0  0  0  0  0  0
  -24.2644  -35.3160   23.7189 C   0  0  2  0  0  0  0  0  0  0  0  0
  -26.5662  -31.4231   25.2553 C   0  0  0  0  0  0  0  0  0  0  0  0
  -28.3233  -16.8088   19.9017 N   0  0  0  0  0  0  0  0  0  0  0  0
  -28.7395  -15.9622   20.8588 N   0  0  0  0  0  0  0  0  0  0  0  0
  -25.6224  -30.5202   21.9148 N   0  0  0  0  0  0  0  0  0  0  0  0
  -28.3288  -12.2173   20.2136 N   0  0  0  0  0  0  0  0  0  0  0  0
  -29.1674  -15.8017   23.1829 N   0  0  0  0  0  0  0  0  0  0  0  0
  -27.7749  -20.0673   22.6720 N   0  0  0  0  0  0  0  0  0  0  0  0
  -27.9332  -28.1592   20.5672 N   0  0  0  0  0  0  0  0  0  0  0  0
  -25.5024  -33.2679   23.8882 N   0  0  0  0  0  0  0  0  0  0  0  0
  -27.7530  -11.2564   22.2966 N   0  0  0  0  0  0  0  0  0  0  0  0
  -23.1099  -35.7937   22.9065 N   0  3  0  0  0  0  0  0  0  0  0  0
  -19.2901  -13.0103   20.3639 N   0  3  0  0  0  0  0  0  0  0  0  0
  -28.5157  -18.5202   24.1939 O   0  0  0  0  0  0  0  0  0  0  0  0
  -26.1448  -27.9273   22.0404 O   0  0  0  0  0  0  0  0  0  0  0  0
  -27.4920  -31.8170   22.4237 O   0  0  0  0  0  0  0  0  0  0  0  0
  -23.1860  -33.1613   23.8971 O   0  0  0  0  0  0  0  0  0  0  0  0
  -28.6072   -9.9506   20.6167 O   0  0  0  0  0  0  0  0  0  0  0  0
  -26.2502  -22.4836   17.8895 O   0  0  0  0  0  0  0  0  0  0  0  0
  -23.8789   -9.7030   23.3231 O   0  0  0  0  0  0  0  0  0  0  0  0
  -20.1386  -27.9369   20.7714 O   0  0  0  0  0  0  0  0  0  1  0  0
  -16.7559  -15.9660   18.6693 O   0  0  0  0  0  0  0  0  0  0  0  0
  -18.1389  -24.2582   21.2048 O   0  0  0  0  0  0  0  0  0  0  0  0
  -16.4403  -20.0274   19.6999 O   0  0  0  0  0  0  0  0  0  0  0  0
  -22.0998  -25.3024   20.1768 F   0  0  0  0  0  0  0  0  0  0  0  0
  -23.8581  -22.8256   16.5465 F   0  0  0  0  0  0  0  0  0  0  0  0
  1  2  1  0  0  0  0
  1  5  2  0  0  0  0
  2  6  2  0  0  0  0
  3 10  2  0  0  0  0
  3 19  1  0  0  0  0
  4 11  1  0  0  0  0
  4 19  2  0  0  0  0
  5 21  1  0  0  0  0
  6 23  1  0  0  0  0
  7 12  2  0  0  0  0
  7 22  1  0  0  0  0
  8 13  2  0  0  0  0
  8 25  1  0  0  0  0
  9 14  1  0  0  0  0
  9 25  2  0  0  0  0
 10 26  1  0  0  0  0
 11 26  2  0  0  0  0
 12 28  1  0  0  0  0
 13 27  1  0  0  0  0
 14 27  2  0  0  0  0
 15 16  2  0  0  0  0
 15 29  1  0  0  0  0
 16 30  1  0  0  0  0
 17 24  1  0  0  0  0
 17 28  2  0  0  0  0
 18 30  2  0  0  0  0
 18 31  1  0  0  0  0
 19 32  1  0  0  0  0
 20 32  1  0  0  0  0
 20 33  2  0  0  0  0
 20 34  1  0  0  0  0
 21 23  2  0  0  0  0
 21 39  1  0  0  0  0
 22 24  2  0  0  0  0
 22 40  1  0  0  0  0
 23 48  1  0  0  0  0
 24 41  1  0  0  0  0
 25 56  1  0  0  0  0
 26 91  1  0  0  0  0
 27 92  1  0  0  0  0
 28 93  1  0  0  0  0
 29 31  2  0  0  0  0
 29 91  1  0  0  0  0
 30 97  1  0  0  0  0
 31 98  1  0  0  0  0
 32 75  2  0  0  0  0
 33 76  1  0  0  0  0
 33 79  1  0  0  0  0
 34 80  1  0  0  0  0
 34 86  2  0  0  0  0
 35 49  1  0  0  0  0
 35 81  1  0  0  0  0
 35 87  2  0  0  0  0
 36 72  1  0  0  0  0
 36 77  1  0  0  0  0
 36 88  2  0  0  0  0
 37 73  1  0  0  0  0
 37 82  1  0  0  0  0
 37 89  2  0  0  0  0
 38 78  1  0  0  0  0
 38 83  1  0  0  0  0
 38 90  2  0  0  0  0
 39 42  1  0  0  0  0
 40 49  1  0  0  0  0
 41 77  1  0  0  0  0
 42 44  1  0  0  0  0
 43 45  1  0  0  0  0
 43 46  1  0  0  0  0
 44 48  1  0  0  0  0
 45 50  1  0  0  0  0
 46 78  1  0  0  0  0
 47 50  1  0  0  0  0
 47 78  1  0  0  0  0
 48 81  1  0  0  0  0
 49 77  1  0  0  0  0
 50 76  1  0  0  0  0
 51 73  1  0  0  0  0
 52 74  1  0  0  0  0
 53 74  1  0  0  0  0
 54 74  1  0  0  0  0
 55 84  1  0  0  0  0
 56 85  1  0  0  0  0
 57 62  1  0  0  0  0
 57 64  1  0  0  0  0
 58 63  1  0  0  0  0
 58 65  1  0  0  0  0
 59 66  1  0  0  0  0
 59 67  1  0  0  0  0
 60 68  1  0  0  0  0
 60 69  1  0  0  0  0
 61 70  1  0  0  0  0
 61 71  1  0  0  0  0
 62 83  1  0  0  0  0
 63 85  1  0  0  0  0
 64 92  1  0  0  0  0
 65 94  1  0  0  0  0
 66 93  1  0  0  0  0
 67 95  1  0  0  0  0
 68 94  1  0  0  0  0
 69 96  1  0  0  0  0
 70 95  1  0  0  0  0
 71 96  1  0  0  0  0
 72 74  1  0  0  0  0
 72 82  1  0  0  0  0
 73 84  1  0  0  0  0
 75 76  1  0  0  0  0
M  CHG  2  84   1  85   1
M  ISO  4  38 100  66 101  83 100  93 101
M  END
> <Batch ID>
0000

> <Smiles>
CNC(C)C(=O)NC(C(=O)N1Cc2cc([101O:1][101CH2:1]CCOCCCOCCCOCCCNCc3ccc(OCCC[100NH:0][100C:0](=O)N4CCCC(n5nc(-c6ccc(Oc7ccc(F)cc7F)cc6)c(C(N)=O)c5N)C4)cc3)ccc2CC1C(=O)NC1CCCc2ccccc21)C(C)(C)C

> <Shape>
0.292

> <Color>
0.062

> <Negative vol penalty>
0.000

$$$$

  -OEChem-04052315133D

 79 86  0     1  0  0  0  0  0999 V2000
  -18.7889  -27.2484   23.3445 C   0  0  0  0  0  0  0  0  0  0  0  0
  -19.2383  -26.2084   22.5371 C   0  0  0  0  0  0  0  0  0  0  0  0
  -25.7477  -15.7088   21.4069 C   0  0  0  0  0  0  0  0  0  0  0  0
  -25.7723  -14.7733   19.1795 C   0  0  0  0  0  0  0  0  0  0  0  0
  -19.4421  -28.4800   23.3209 C   0  0  0  0  0  0  0  0  0  0  0  0
  -20.3405  -26.3997   21.7047 C   0  0  0  0  0  0  0  0  0  0  0  0
  -24.5998  -22.2555   20.2251 C   0  0  0  0  0  0  0  0  0  0  0  0
  -24.3957  -15.3874   21.5269 C   0  0  0  0  0  0  0  0  0  0  0  0
  -24.4203  -14.4518   19.2995 C   0  0  0  0  0  0  0  0  0  0  0  0
  -24.7661  -21.4395   19.1069 C   0  0  0  0  0  0  0  0  0  0  0  0
  -21.0277  -14.4877   22.5576 C   0  0  0  0  0  0  0  0  0  0  0  0
  -20.6046  -13.8982   23.7488 C   0  0  0  0  0  0  0  0  0  0  0  0
  -26.2750  -23.0628   18.1543 C   0  0  0  0  0  0  0  0  0  0  0  0
  -22.1126  -12.0492   23.3695 C   0  0  0  0  0  0  0  0  0  0  0  0
  -26.4360  -15.4018   20.2331 C   0  0  0  0  0  0  0  0  0  0  0  0
  -28.9326  -14.9287   20.4585 C   0  0  0  0  0  0  0  0  0  0  0  0
  -20.5588  -28.6835   22.4950 C   0  0  0  0  0  0  0  0  0  0  0  0
  -25.2625  -23.4883   20.3115 C   0  0  0  0  0  0  0  0  0  0  0  0
  -21.0084  -27.6356   21.6690 C   0  0  0  0  0  0  0  0  0  0  0  0
  -26.1174  -23.8913   19.2758 C   0  0  0  0  0  0  0  0  0  0  0  0
  -23.7320  -14.7588   20.4733 C   0  0  0  0  0  0  0  0  0  0  0  0
  -25.6015  -21.8444   18.0700 C   0  0  0  0  0  0  0  0  0  0  0  0
  -21.9932  -13.8579   21.7722 C   0  0  0  0  0  0  0  0  0  0  0  0
  -21.1470  -12.6790   24.1548 C   0  0  0  0  0  0  0  0  0  0  0  0
  -22.5357  -12.6387   22.1782 C   0  0  0  0  0  0  0  0  0  0  0  0
  -27.8324  -15.7342   20.1083 C   0  0  0  0  0  0  0  0  0  0  0  0
  -30.0306  -15.6934   20.1486 C   0  0  0  0  0  0  0  0  0  0  0  0
  -28.9596  -13.6073   21.0143 C   0  0  0  0  0  0  0  0  0  0  0  0
  -24.3377  -26.5226   20.5157 C   0  0  0  0  0  0  0  0  0  0  0  0
  -27.5133  -27.0574   20.9054 C   0  0  0  0  0  0  0  0  0  0  0  0
  -30.7147  -25.9874   20.4026 C   0  0  0  0  0  0  0  0  0  0  0  0
  -30.7484  -20.2155   16.2479 C   0  0  0  0  0  0  0  0  0  0  0  0
  -21.2033  -30.0468   22.4684 C   0  0  0  0  0  0  0  0  0  0  0  0
  -25.0934  -24.3447   21.5364 C   0  0  0  0  0  0  0  0  0  0  0  0
  -26.8674  -25.1964   19.3291 C   0  0  0  0  0  0  0  0  0  0  0  0
  -22.5928  -30.0515   21.8364 C   0  0  0  0  0  0  0  0  0  0  0  0
  -31.4619  -20.2352   19.7821 C   0  0  0  0  0  0  0  0  0  0  0  0
  -22.5876  -29.2646   20.5296 C   0  0  0  0  0  0  0  0  0  0  0  0
  -30.6773  -19.0310   20.3015 C   0  0  0  0  0  0  0  0  0  0  0  0
  -30.7367  -20.9191   18.6275 C   0  0  0  0  0  0  0  0  0  0  0  0
  -29.6227  -18.7898   18.0093 C   0  0  0  0  0  0  0  0  0  0  0  0
  -22.2158  -27.7966   20.7710 C   0  0  1  0  0  0  0  0  0  0  0  0
  -25.4157  -25.8148   21.2868 C   0  0  1  0  0  0  0  0  0  0  0  0
  -30.3381  -18.0582   19.1581 C   0  0  2  0  0  0  0  0  0  0  0  0
  -33.1006  -26.6565   20.7991 C   0  0  0  0  0  0  0  0  0  0  0  0
  -27.3298  -29.0620   18.6124 C   0  0  0  0  0  0  0  0  0  0  0  0
  -29.8252  -28.9756   18.4295 C   0  0  0  0  0  0  0  0  0  0  0  0
  -28.7580  -29.7974   20.5291 C   0  0  0  0  0  0  0  0  0  0  0  0
  -31.2265  -23.6025   22.0786 C   0  0  0  0  0  0  0  0  0  0  0  0
  -24.6661  -20.2179   16.6087 C   0  0  0  0  0  0  0  0  0  1  0  0
  -30.6788  -19.4042   14.0129 C   0  0  0  0  0  0  0  0  0  0  0  0
  -24.6887  -20.0033   15.1077 C   0  0  0  0  0  0  0  0  0  0  0  0
  -29.6285  -18.7187   13.1605 C   0  0  0  0  0  0  0  0  0  0  0  0
  -25.9769  -19.1251   13.3493 C   0  0  0  0  0  0  0  0  0  0  0  0
  -27.2974  -18.4524   13.0273 C   0  0  0  0  0  0  0  0  0  0  0  0
  -28.6730  -27.3313   19.9785 C   0  0  1  0  0  0  0  0  0  0  0  0
  -31.9037  -25.8908   21.3414 C   0  0  2  0  0  0  0  0  0  0  0  0
  -28.6310  -28.7678   19.3852 C   0  0  0  0  0  0  0  0  0  0  0  0
  -28.1982  -16.9198   19.6138 N   0  0  0  0  0  0  0  0  0  0  0  0
  -29.5404  -16.8650   19.6512 N   0  0  0  0  0  0  0  0  0  0  0  0
  -26.6642  -26.0016   20.5448 N   0  0  0  0  0  0  0  0  0  0  0  0
  -30.3945  -19.9614   17.5766 N   0  0  0  0  0  0  0  0  0  0  0  0
  -31.3578  -15.4714   20.2558 N   0  0  0  0  0  0  0  0  0  0  0  0
  -27.7404  -12.9654   21.2711 N   0  0  0  0  0  0  0  0  0  0  0  0
  -23.3468  -27.0705   21.3078 N   0  0  0  0  0  0  0  0  0  0  0  0
  -29.8822  -27.0339   20.7387 N   0  0  0  0  0  0  0  0  0  0  0  0
  -32.3020  -24.4669   21.5281 N   0  3  0  0  0  0  0  0  0  0  0  0
  -30.0329  -13.0197   21.2906 O   0  0  0  0  0  0  0  0  0  0  0  0
  -24.4011  -26.5694   19.2928 O   0  0  0  0  0  0  0  0  0  0  0  0
  -27.3703  -27.7501   21.9161 O   0  0  0  0  0  0  0  0  0  0  0  0
  -30.5437  -25.2142   19.4626 O   0  0  0  0  0  0  0  0  0  0  0  0
  -31.3494  -21.2200   15.8710 O   0  0  0  0  0  0  0  0  0  0  0  0
  -22.4128  -14.4448   20.5902 O   0  0  0  0  0  0  0  0  0  0  0  0
  -25.7651  -21.0502   16.9772 O   0  0  0  0  0  0  0  0  0  1  0  0
  -30.3530  -19.2191   15.3953 O   0  0  0  0  0  0  0  0  0  0  0  0
  -25.9016  -19.3522   14.7497 O   0  0  0  0  0  0  0  0  0  0  0  0
  -28.3627  -19.3096   13.4194 O   0  0  0  0  0  0  0  0  0  0  0  0
  -20.7417  -12.1138   25.2995 F   0  0  0  0  0  0  0  0  0  0  0  0
  -23.4645  -12.0294   21.4285 F   0  0  0  0  0  0  0  0  0  0  0  0
  1  2  1  0  0  0  0
  1  5  2  0  0  0  0
  2  6  2  0  0  0  0
  3  8  2  0  0  0  0
  3 15  1  0  0  0  0
  4  9  1  0  0  0  0
  4 15  2  0  0  0  0
  5 17  1  0  0  0  0
  6 19  1  0  0  0  0
  7 10  2  0  0  0  0
  7 18  1  0  0  0  0
  8 21  1  0  0  0  0
  9 21  2  0  0  0  0
 10 22  1  0  0  0  0
 11 12  2  0  0  0  0
 11 23  1  0  0  0  0
 12 24  1  0  0  0  0
 13 20  1  0  0  0  0
 13 22  2  0  0  0  0
 14 24  2  0  0  0  0
 14 25  1  0  0  0  0
 15 26  1  0  0  0  0
 16 26  1  0  0  0  0
 16 27  2  0  0  0  0
 16 28  1  0  0  0  0
 17 19  2  0  0  0  0
 17 33  1  0  0  0  0
 18 20  2  0  0  0  0
 18 34  1  0  0  0  0
 19 42  1  0  0  0  0
 20 35  1  0  0  0  0
 21 73  1  0  0  0  0
 22 74  1  0  0  0  0
 23 25  2  0  0  0  0
 23 73  1  0  0  0  0
 24 78  1  0  0  0  0
 25 79  1  0  0  0  0
 26 59  2  0  0  0  0
 27 60  1  0  0  0  0
 27 63  1  0  0  0  0
 28 64  1  0  0  0  0
 28 68  2  0  0  0  0
 29 43  1  0  0  0  0
 29 65  1  0  0  0  0
 29 69  2  0  0  0  0
 30 56  1  0  0  0  0
 30 61  1  0  0  0  0
 30 70  2  0  0  0  0
 31 57  1  0  0  0  0
 31 66  1  0  0  0  0
 31 71  2  0  0  0  0
 32 62  1  0  0  0  0
 32 72  2  0  0  0  0
 32 75  1  0  0  0  0
 33 36  1  0  0  0  0
 34 43  1  0  0  0  0
 35 61  1  0  0  0  0
 36 38  1  0  0  0  0
 37 39  1  0  0  0  0
 37 40  1  0  0  0  0
 38 42  1  0  0  0  0
 39 44  1  0  0  0  0
 40 62  1  0  0  0  0
 41 44  1  0  0  0  0
 41 62  1  0  0  0  0
 42 65  1  0  0  0  0
 43 61  1  0  0  0  0
 44 60  1  0  0  0  0
 45 57  1  0  0  0  0
 46 58  1  0  0  0  0
 47 58  1  0  0  0  0
 48 58  1  0  0  0  0
 49 67  1  0  0  0  0
 50 52  1  0  0  0  0
 50 74  1  0  0  0  0
 51 53  1  0  0  0  0
 51 75  1  0  0  0  0
 52 76  1  0  0  0  0
 53 77  1  0  0  0  0
 54 55  1  0  0  0  0
 54 76  1  0  0  0  0
 55 77  1  0  0  0  0
 56 58  1  0  0  0  0
 56 66  1  0  0  0  0
 57 67  1  0  0  0  0
 59 60  1  0  0  0  0
M  CHG  1  67   1
M  ISO  4  32 100  50 101  74 101  75 100
M  END
> <Batch ID>
0000

> <Smiles>
CNC(C)C(=O)NC(C(=O)N1Cc2cc([101O:1][101CH2:1]COCCOCC[100O:0][100C:0](=O)N3CCCC(n4nc(-c5ccc(Oc6ccc(F)cc6F)cc5)c(C(N)=O)c4N)C3)ccc2CC1C(=O)NC1CCCc2ccccc21)C(C)(C)C

> <Shape>
0.209

> <Color>
0.060

> <Negative vol penalty>
0.000

$$$$

  -OEChem-04052315133D

101110  0     1  0  0  0  0  0999 V2000
  -28.7677  -24.4967   17.7304 C   0  0  0  0  0  0  0  0  0  0  0  0
  -27.4141  -24.8075   17.8112 C   0  0  0  0  0  0  0  0  0  0  0  0
  -22.1591  -14.9996   20.5927 C   0  0  0  0  0  0  0  0  0  0  0  0
  -23.1355  -16.1117   22.5023 C   0  0  0  0  0  0  0  0  0  0  0  0
  -29.6244  -24.8410   18.7752 C   0  0  0  0  0  0  0  0  0  0  0  0
  -26.9162  -25.4620   18.9374 C   0  0  0  0  0  0  0  0  0  0  0  0
  -22.3925  -29.5871   19.0986 C   0  0  0  0  0  0  0  0  0  0  0  0
  -28.5387  -21.0195   22.4109 C   0  0  0  0  0  0  0  0  0  0  0  0
  -21.0308  -14.6878   21.3511 C   0  0  0  0  0  0  0  0  0  0  0  0
  -22.0071  -15.7999   23.2608 C   0  0  0  0  0  0  0  0  0  0  0  0
  -21.0380  -29.4820   19.4114 C   0  0  0  0  0  0  0  0  0  0  0  0
  -29.7901  -20.4083   22.2905 C   0  0  0  0  0  0  0  0  0  0  0  0
  -19.2284  -15.6099   25.5976 C   0  0  0  0  0  0  0  0  0  0  0  0
  -18.6839  -16.6162   26.3954 C   0  0  0  0  0  0  0  0  0  0  0  0
  -27.4407  -21.5601   19.0128 C   0  0  0  0  0  0  0  0  0  0  0  0
  -29.6549  -20.4774   19.8668 C   0  0  0  0  0  0  0  0  0  0  0  0
  -21.5116  -30.1820   21.6708 C   0  0  0  0  0  0  0  0  0  0  0  0
  -18.3101  -17.9716   24.4306 C   0  0  0  0  0  0  0  0  0  0  0  0
  -26.3736  -22.0801   19.7084 C   0  0  0  0  0  0  0  0  0  0  0  0
  -28.3918  -21.0943   19.9633 C   0  0  0  0  0  0  0  0  0  0  0  0
  -23.2115  -15.7115   21.1683 C   0  0  0  0  0  0  0  0  0  0  0  0
  -24.5866  -17.1875   19.6068 C   0  0  0  0  0  0  0  0  0  0  0  0
  -29.1385  -25.5086   19.9104 C   0  0  0  0  0  0  0  0  0  0  0  0
  -23.3199  -29.9806   20.0741 C   0  0  0  0  0  0  0  0  0  0  0  0
  -27.7669  -25.8144   19.9989 C   0  0  0  0  0  0  0  0  0  0  0  0
  -22.8770  -30.2938   21.3671 C   0  0  0  0  0  0  0  0  0  0  0  0
  -27.8639  -21.3506   21.2306 C   0  0  0  0  0  0  0  0  0  0  0  0
  -20.9548  -15.0880   22.6852 C   0  0  0  0  0  0  0  0  0  0  0  0
  -30.3415  -20.1406   21.0390 C   0  0  0  0  0  0  0  0  0  0  0  0
  -20.5977  -29.7767   20.6984 C   0  0  0  0  0  0  0  0  0  0  0  0
  -19.3138  -15.7844   24.2163 C   0  0  0  0  0  0  0  0  0  0  0  0
  -18.2248  -17.7971   25.8119 C   0  0  0  0  0  0  0  0  0  0  0  0
  -18.8546  -16.9652   23.6328 C   0  0  0  0  0  0  0  0  0  0  0  0
  -24.3775  -16.0335   20.3855 C   0  0  0  0  0  0  0  0  0  0  0  0
  -25.8382  -17.0159   19.0678 C   0  0  0  0  0  0  0  0  0  0  0  0
  -23.7264  -18.3139   19.3901 C   0  0  0  0  0  0  0  0  0  0  0  0
  -25.8503  -28.6257   21.4397 C   0  0  0  0  0  0  0  0  0  0  0  0
  -26.1923  -31.5492   22.8029 C   0  0  0  0  0  0  0  0  0  0  0  0
  -18.0814  -26.2739   22.5048 C   0  0  0  0  0  0  0  0  0  0  0  0
  -24.7383  -34.4774   23.7817 C   0  0  0  0  0  0  0  0  0  0  0  0
  -31.0287  -14.8403   20.4244 C   0  0  0  0  0  0  0  0  0  0  0  0
  -30.0944  -25.8182   21.0352 C   0  0  0  0  0  0  0  0  0  0  0  0
  -24.7740  -30.1149   19.7135 C   0  0  0  0  0  0  0  0  0  0  0  0
  -23.8294  -30.7403   22.4451 C   0  0  0  0  0  0  0  0  0  0  0  0
  -29.5546  -26.8442   22.0282 C   0  0  0  0  0  0  0  0  0  0  0  0
  -28.7806  -13.1258   18.2603 C   0  0  0  0  0  0  0  0  0  0  0  0
  -28.1182  -26.5077   22.4158 C   0  0  0  0  0  0  0  0  0  0  0  0
  -27.4355  -13.8081   18.5153 C   0  0  0  0  0  0  0  0  0  0  0  0
  -29.6082  -13.0142   19.5389 C   0  0  0  0  0  0  0  0  0  0  0  0
  -28.4650  -14.9678   20.5137 C   0  0  0  0  0  0  0  0  0  0  0  0
  -27.1935  -26.5458   21.1931 C   0  0  1  0  0  0  0  0  0  0  0  0
  -25.6999  -30.0285   20.9229 C   0  0  1  0  0  0  0  0  0  0  0  0
  -27.6182  -15.1536   19.2430 C   0  0  2  0  0  0  0  0  0  0  0  0
  -25.2651  -36.6604   24.9019 C   0  0  0  0  0  0  0  0  0  0  0  0
  -26.2636  -30.1408   25.5087 C   0  0  0  0  0  0  0  0  0  0  0  0
  -25.8331  -32.3553   26.5945 C   0  0  0  0  0  0  0  0  0  0  0  0
  -27.9112  -32.0057   25.2596 C   0  0  0  0  0  0  0  0  0  0  0  0
  -23.9493  -36.0289   21.3882 C   0  0  0  0  0  0  0  0  0  0  0  0
  -18.5423  -25.9193   23.9025 C   0  0  0  0  0  0  0  0  0  0  0  0
  -32.8033  -17.6346   20.1959 C   0  0  0  0  0  0  0  0  0  0  0  0
  -25.7389  -22.3873   22.1081 C   0  0  0  0  0  0  0  0  0  0  0  0
  -32.3153  -16.7552   21.3392 C   0  0  0  0  0  0  0  0  0  0  0  0
  -17.3567  -28.2338   21.1524 C   0  0  0  0  0  0  0  0  0  0  0  0
  -31.8041  -18.7202   19.8147 C   0  0  0  0  0  0  0  0  0  0  0  0
  -18.5158  -28.7018   20.2907 C   0  0  0  0  0  0  0  0  0  1  0  0
  -19.2598  -24.1767   25.3066 C   0  0  0  0  0  0  0  0  0  0  0  0
  -19.5194  -22.6831   25.3451 C   0  0  0  0  0  0  0  0  0  0  0  0
  -21.1231  -21.1083   24.6587 C   0  0  0  0  0  0  0  0  0  0  0  0
  -24.5532  -21.4575   22.3232 C   0  0  0  0  0  0  0  0  0  0  0  0
  -22.1880  -20.7958   23.6256 C   0  0  0  0  0  0  0  0  0  0  0  0
  -25.6908  -32.2046   24.0670 C   0  0  1  0  0  0  0  0  0  0  0  0
  -25.1495  -35.9242   23.5762 C   0  0  2  0  0  0  0  0  0  0  0  0
  -26.4067  -31.6663   25.3379 C   0  0  0  0  0  0  0  0  0  0  0  0
  -25.4132  -15.1909   20.3472 N   0  0  0  0  0  0  0  0  0  0  0  0
  -26.6382  -21.9495   21.0453 N   0  0  0  0  0  0  0  0  0  0  0  0
  -26.2852  -15.8161   19.5379 N   0  0  0  0  0  0  0  0  0  0  0  0
  -25.2421  -30.8502   22.0451 N   0  0  0  0  0  0  0  0  0  0  0  0
  -29.7453  -14.3245   20.1793 N   0  0  0  0  0  0  0  0  0  0  0  0
  -26.5890  -17.7757   18.2424 N   0  0  0  0  0  0  0  0  0  0  0  0
  -22.4746  -18.3295   20.0201 N   0  0  0  0  0  0  0  0  0  0  0  0
  -26.8735  -27.9133   20.8439 N   0  0  0  0  0  0  0  0  0  0  0  0
  -17.8103  -27.6306   22.3774 N   0  0  0  0  0  0  0  0  0  0  0  0
  -25.8325  -33.6425   23.8652 N   0  0  0  0  0  0  0  0  0  0  0  0
  -31.0691  -16.0907   21.0289 N   0  0  0  0  0  0  0  0  0  0  0  0
  -24.1469  -36.6326   22.7312 N   0  3  0  0  0  0  0  0  0  0  0  0
  -24.0514  -19.2703   18.6463 O   0  0  0  0  0  0  0  0  0  0  0  0
  -25.0949  -28.2201   22.3152 O   0  0  0  0  0  0  0  0  0  0  0  0
  -27.3818  -31.6595   22.4954 O   0  0  0  0  0  0  0  0  0  0  0  0
  -17.9708  -25.4396   21.6104 O   0  0  0  0  0  0  0  0  0  0  0  0
  -23.5641  -34.1239   23.8641 O   0  0  0  0  0  0  0  0  0  0  0  0
  -32.0619  -14.2338   20.1218 O   0  0  0  0  0  0  0  0  0  0  0  0
  -22.8451  -23.2728   23.1104 O   0  0  0  0  0  0  0  0  0  0  0  0
  -24.1589  -21.9997   24.8497 O   0  0  0  0  0  0  0  0  0  0  0  0
  -19.8538  -14.7841   23.4255 O   0  0  0  0  0  0  0  0  0  0  0  0
  -31.5636  -19.5432   20.9540 O   0  0  0  0  0  0  0  0  0  0  0  0
  -19.2762  -29.6742   21.0066 O   0  0  0  0  0  0  0  0  0  1  0  0
  -18.8232  -24.5392   23.9998 O   0  0  0  0  0  0  0  0  0  0  0  0
  -20.5110  -22.3593   24.3780 O   0  0  0  0  0  0  0  0  0  0  0  0
  -17.7005  -18.7627   26.5779 F   0  0  0  0  0  0  0  0  0  0  0  0
  -18.9329  -17.1381   22.3062 F   0  0  0  0  0  0  0  0  0  0  0  0
  -23.4437  -22.0374   23.5858 S   0  0  0  0  0  0  0  0  0  0  0  0
  1  2  1  0  0  0  0
  1  5  2  0  0  0  0
  2  6  2  0  0  0  0
  3  9  2  0  0  0  0
  3 21  1  0  0  0  0
  4 10  1  0  0  0  0
  4 21  2  0  0  0  0
  5 23  1  0  0  0  0
  6 25  1  0  0  0  0
  7 11  2  0  0  0  0
  7 24  1  0  0  0  0
  8 12  2  0  0  0  0
  8 27  1  0  0  0  0
  9 28  1  0  0  0  0
 10 28  2  0  0  0  0
 11 30  1  0  0  0  0
 12 29  1  0  0  0  0
 13 14  2  0  0  0  0
 13 31  1  0  0  0  0
 14 32  1  0  0  0  0
 15 19  2  0  0  0  0
 15 20  1  0  0  0  0
 16 20  1  0  0  0  0
 16 29  2  0  0  0  0
 17 26  1  0  0  0  0
 17 30  2  0  0  0  0
 18 32  2  0  0  0  0
 18 33  1  0  0  0  0
 19 75  1  0  0  0  0
 20 27  2  0  0  0  0
 21 34  1  0  0  0  0
 22 34  1  0  0  0  0
 22 35  2  0  0  0  0
 22 36  1  0  0  0  0
 23 25  2  0  0  0  0
 23 42  1  0  0  0  0
 24 26  2  0  0  0  0
 24 43  1  0  0  0  0
 25 51  1  0  0  0  0
 26 44  1  0  0  0  0
 27 75  1  0  0  0  0
 28 94  1  0  0  0  0
 29 95  1  0  0  0  0
 30 96  1  0  0  0  0
 31 33  2  0  0  0  0
 31 94  1  0  0  0  0
 32 99  1  0  0  0  0
 33100  1  0  0  0  0
 34 74  2  0  0  0  0
 35 76  1  0  0  0  0
 35 79  1  0  0  0  0
 36 80  1  0  0  0  0
 36 86  2  0  0  0  0
 37 52  1  0  0  0  0
 37 81  1  0  0  0  0
 37 87  2  0  0  0  0
 38 71  1  0  0  0  0
 38 77  1  0  0  0  0
 38 88  2  0  0  0  0
 39 59  1  0  0  0  0
 39 82  1  0  0  0  0
 39 89  2  0  0  0  0
 40 72  1  0  0  0  0
 40 83  1  0  0  0  0
 40 90  2  0  0  0  0
 41 78  1  0  0  0  0
 41 84  1  0  0  0  0
 41 91  2  0  0  0  0
 42 45  1  0  0  0  0
 43 52  1  0  0  0  0
 44 77  1  0  0  0  0
 45 47  1  0  0  0  0
 46 48  1  0  0  0  0
 46 49  1  0  0  0  0
 47 51  1  0  0  0  0
 48 53  1  0  0  0  0
 49 78  1  0  0  0  0
 50 53  1  0  0  0  0
 50 78  1  0  0  0  0
 51 81  1  0  0  0  0
 52 77  1  0  0  0  0
 53 76  1  0  0  0  0
 54 72  1  0  0  0  0
 55 73  1  0  0  0  0
 56 73  1  0  0  0  0
 57 73  1  0  0  0  0
 58 85  1  0  0  0  0
 59 97  1  0  0  0  0
 60 62  1  0  0  0  0
 60 64  1  0  0  0  0
 61 69  1  0  0  0  0
 61 75  1  0  0  0  0
 62 84  1  0  0  0  0
 63 65  1  0  0  0  0
 63 82  1  0  0  0  0
 64 95  1  0  0  0  0
 65 96  1  0  0  0  0
 66 67  1  0  0  0  0
 66 97  1  0  0  0  0
 67 98  1  0  0  0  0
 68 70  1  0  0  0  0
 68 98  1  0  0  0  0
 69101  1  0  0  0  0
 70101  1  0  0  0  0
 71 73  1  0  0  0  0
 71 83  1  0  0  0  0
 72 85  1  0  0  0  0
 74 76  1  0  0  0  0
 92101  2  0  0  0  0
 93101  2  0  0  0  0
M  CHG  1  85   1
M  ISO  4  41 100  65 101  84 100  96 101
M  END
> <Batch ID>
0000

> <Smiles>
CNC(C)C(=O)NC(C(=O)N1Cc2cc([101O:1][101CH2:1]CNC(=O)COCCOCCS(=O)(=O)CCn3ccc4cc(OCCC[100NH:0][100C:0](=O)N5CCCC(n6nc(-c7ccc(Oc8ccc(F)cc8F)cc7)c(C(N)=O)c6N)C5)ccc43)ccc2CC1C(=O)NC1CCCc2ccccc21)C(C)(C)C

> <Shape>
0.287

> <Color>
0.076

> <Negative vol penalty>
0.000

$$$$

  -OEChem-04052315133D

101110  0     1  0  0  0  0  0999 V2000
  -28.4880  -16.4223   27.3707 C   0  0  0  0  0  0  0  0  0  0  0  0
  -18.1413  -26.7650   21.1979 C   0  0  0  0  0  0  0  0  0  0  0  0
  -28.1629  -15.6633   26.2507 C   0  0  0  0  0  0  0  0  0  0  0  0
  -19.3499  -27.3084   20.7772 C   0  0  0  0  0  0  0  0  0  0  0  0
  -23.7305  -17.6154   19.2811 C   0  0  0  0  0  0  0  0  0  0  0  0
  -23.3658  -18.3669   21.5481 C   0  0  0  0  0  0  0  0  0  0  0  0
  -27.8172  -17.6193   27.6178 C   0  0  0  0  0  0  0  0  0  0  0  0
  -17.9456  -26.4702   22.5455 C   0  0  0  0  0  0  0  0  0  0  0  0
  -27.1633  -16.0991   25.3815 C   0  0  0  0  0  0  0  0  0  0  0  0
  -20.3674  -27.5460   21.7019 C   0  0  0  0  0  0  0  0  0  0  0  0
  -24.8316  -24.2200   24.8628 C   0  0  0  0  0  0  0  0  0  0  0  0
  -23.6616  -16.2898   19.7094 C   0  0  0  0  0  0  0  0  0  0  0  0
  -23.2968  -17.0412   21.9765 C   0  0  0  0  0  0  0  0  0  0  0  0
  -24.1527  -23.0023   24.8603 C   0  0  0  0  0  0  0  0  0  0  0  0
  -25.6839  -14.0618   21.2492 C   0  0  0  0  0  0  0  0  0  0  0  0
  -26.6470  -13.1751   20.7678 C   0  0  0  0  0  0  0  0  0  0  0  0
  -23.2776  -23.5015   22.6685 C   0  0  0  0  0  0  0  0  0  0  0  0
  -24.9065  -11.8197   19.7825 C   0  0  0  0  0  0  0  0  0  0  0  0
  -23.5826  -18.6540   20.2005 C   0  0  0  0  0  0  0  0  0  0  0  0
  -22.5887  -20.8320   19.3195 C   0  0  0  0  0  0  0  0  0  0  0  0
  -26.8198  -18.0718   26.7414 C   0  0  0  0  0  0  0  0  0  0  0  0
  -18.9572  -26.7162   23.4884 C   0  0  0  0  0  0  0  0  0  0  0  0
  -24.7297  -25.0940   23.7709 C   0  0  0  0  0  0  0  0  0  0  0  0
  -26.4788  -17.3006   25.6218 C   0  0  0  0  0  0  0  0  0  0  0  0
  -20.1978  -27.2330   23.0627 C   0  0  0  0  0  0  0  0  0  0  0  0
  -23.9582  -24.7286   22.6585 C   0  0  0  0  0  0  0  0  0  0  0  0
  -23.4448  -16.0026   21.0571 C   0  0  0  0  0  0  0  0  0  0  0  0
  -23.3732  -22.6441   23.7643 C   0  0  0  0  0  0  0  0  0  0  0  0
  -24.3321  -13.8275   20.9974 C   0  0  0  0  0  0  0  0  0  0  0  0
  -26.2583  -12.0541   20.0344 C   0  0  0  0  0  0  0  0  0  0  0  0
  -23.9434  -12.7065   20.2640 C   0  0  0  0  0  0  0  0  0  0  0  0
  -23.6543  -20.0236   19.7587 C   0  0  0  0  0  0  0  0  0  0  0  0
  -23.1743  -22.0366   19.0154 C   0  0  0  0  0  0  0  0  0  0  0  0
  -30.4411  -21.3937   24.3649 C   0  0  0  0  0  0  0  0  0  0  0  0
  -21.1942  -20.5219   19.1975 C   0  0  0  0  0  0  0  0  0  0  0  0
  -23.6378  -28.0506   23.3586 C   0  0  0  0  0  0  0  0  0  0  0  0
  -26.3682  -20.6545   24.9020 C   0  0  0  0  0  0  0  0  0  0  0  0
  -23.4550  -19.3188   24.4516 C   0  0  0  0  0  0  0  0  0  0  0  0
  -24.8487  -27.6641   20.3742 C   0  0  0  0  0  0  0  0  0  0  0  0
  -28.0831  -28.7485   20.2759 C   0  0  0  0  0  0  0  0  0  0  0  0
  -28.4442  -20.9070   20.3364 C   0  0  0  0  0  0  0  0  0  0  0  0
  -18.6947  -26.3710   24.9331 C   0  0  0  0  0  0  0  0  0  0  0  0
  -26.0936  -19.3546   27.0394 C   0  0  0  0  0  0  0  0  0  0  0  0
  -25.4897  -26.3920   23.7777 C   0  0  0  0  0  0  0  0  0  0  0  0
  -25.4051  -17.7314   24.6587 C   0  0  0  0  0  0  0  0  0  0  0  0
  -23.8323  -25.6223   21.4528 C   0  0  0  0  0  0  0  0  0  0  0  0
  -19.6547  -27.0648   25.8941 C   0  0  0  0  0  0  0  0  0  0  0  0
  -27.6001  -23.4357   17.6512 C   0  0  0  0  0  0  0  0  0  0  0  0
  -21.0890  -26.8730   25.4247 C   0  0  0  0  0  0  0  0  0  0  0  0
  -26.1603  -22.9330   17.6753 C   0  0  0  0  0  0  0  0  0  0  0  0
  -28.5031  -22.5289   18.4865 C   0  0  0  0  0  0  0  0  0  0  0  0
  -26.7054  -22.7842   20.1813 C   0  0  0  0  0  0  0  0  0  0  0  0
  -21.3078  -27.5285   24.0552 C   0  0  1  0  0  0  0  0  0  0  0  0
  -24.9019  -27.4334   22.8305 C   0  0  1  0  0  0  0  0  0  0  0  0
  -25.4029  -19.9608   25.8213 C   0  0  2  0  0  0  0  0  0  0  0  0
  -25.5996  -22.9197   19.1135 C   0  0  2  0  0  0  0  0  0  0  0  0
  -29.2262  -26.7535   21.2811 C   0  0  0  0  0  0  0  0  0  0  0  0
  -24.5365  -31.2536   20.9101 C   0  0  0  0  0  0  0  0  0  0  0  0
  -25.8098  -30.1996   22.7905 C   0  0  0  0  0  0  0  0  0  0  0  0
  -23.6121  -29.2509   22.0887 C   0  0  0  0  0  0  0  0  0  0  0  0
  -30.8628  -29.7241   22.2606 C   0  0  0  0  0  0  0  0  0  0  0  0
  -22.8554  -20.6258   24.9107 C   0  0  0  0  0  0  0  0  0  1  0  0
  -29.5410  -18.7243   21.6495 C   0  0  0  0  0  0  0  0  0  0  0  0
  -29.8913  -19.4549   20.3379 C   0  0  0  0  0  0  0  0  0  0  0  0
  -28.2640  -19.3156   22.2310 C   0  0  0  0  0  0  0  0  0  0  0  0
  -29.3937  -17.2569   21.2658 C   0  0  0  0  0  0  0  0  0  0  0  0
  -29.9280  -18.3751   19.2691 C   0  0  0  0  0  0  0  0  0  0  0  0
  -28.8403  -20.5135   20.0426 C   0  0  0  0  0  0  0  0  0  0  0  0
  -28.1808  -19.5928   22.1018 C   0  0  0  0  0  0  0  0  0  0  0  0
  -29.7419  -20.0770   24.0930 C   0  0  2  0  0  0  0  0  0  0  0  0
  -25.6306  -28.9357   20.5993 C   0  0  1  0  0  0  0  0  0  0  0  0
  -29.3388  -28.2351   20.9572 C   0  0  2  0  0  0  0  0  0  0  0  0
  -28.3583  -20.2824   23.4585 C   0  0  2  0  0  0  0  0  0  0  0  0
  -24.9084  -29.9113   21.5710 C   0  0  0  0  0  0  0  0  0  0  0  0
  -24.8279  -20.6608   19.7369 N   0  0  0  0  0  0  0  0  0  0  0  0
  -24.5033  -21.8824   19.2802 N   0  0  0  0  0  0  0  0  0  0  0  0
  -24.6918  -18.9690   25.0124 N   0  0  0  0  0  0  0  0  0  0  0  0
  -24.5893  -26.8837   21.5098 N   0  0  0  0  0  0  0  0  0  0  0  0
  -27.8526  -22.0079   19.6924 N   0  0  0  0  0  0  0  0  0  0  0  0
  -22.6770  -23.2020   18.5498 N   0  0  0  0  0  0  0  0  0  0  0  0
  -20.7620  -19.2369   19.5531 N   0  0  0  0  0  0  0  0  0  0  0  0
  -22.6094  -27.1481   23.5523 N   0  0  0  0  0  0  0  0  0  0  0  0
  -27.3331  -19.8222   24.3675 N   0  0  0  0  0  0  0  0  0  0  0  0
  -26.9587  -28.5253   21.0422 N   0  0  0  0  0  0  0  0  0  0  0  0
  -27.7836  -20.4455   21.4678 N   0  0  0  0  0  0  0  0  0  0  0  0
  -29.5793  -28.9768   22.2272 N   0  3  0  0  0  0  0  0  0  0  0  0
  -31.5524  -21.6895   23.9362 O   0  0  0  0  0  0  0  0  0  0  0  0
  -20.3588  -21.3542   18.7699 O   0  0  0  0  0  0  0  0  0  0  0  0
  -23.5989  -29.2560   23.5758 O   0  0  0  0  0  0  0  0  0  0  0  0
  -26.2457  -21.8556   24.6920 O   0  0  0  0  0  0  0  0  0  0  0  0
  -22.8515  -18.6362   23.6201 O   0  0  0  0  0  0  0  0  0  0  0  0
  -24.4755  -27.3775   19.2339 O   0  0  0  0  0  0  0  0  0  0  0  0
  -28.0986  -29.2964   19.1759 O   0  0  0  0  0  0  0  0  0  0  0  0
  -29.4797  -20.3749   19.9219 O   0  0  0  0  0  0  0  0  0  0  0  0
  -29.5782  -19.4199   25.3446 O   0  0  0  0  0  0  0  0  0  0  0  0
  -23.3772  -14.7092   21.4754 O   0  0  0  0  0  0  0  0  0  0  0  0
  -22.7090  -21.4564   23.7596 O   0  0  0  0  0  0  0  0  0  1  0  0
  -29.6310  -17.1227   19.8709 O   0  0  0  0  0  0  0  0  0  0  0  0
  -27.8823  -20.5476   21.0915 O   0  0  0  0  0  0  0  0  0  0  0  0
  -27.1834  -11.2035   19.5708 F   0  0  0  0  0  0  0  0  0  0  0  0
  -22.6463  -12.4767   20.0178 F   0  0  0  0  0  0  0  0  0  0  0  0
  1  3  1  0  0  0  0
  1  7  2  0  0  0  0
  2  4  1  0  0  0  0
  2  8  2  0  0  0  0
  3  9  2  0  0  0  0
  4 10  2  0  0  0  0
  5 12  2  0  0  0  0
  5 19  1  0  0  0  0
  6 13  1  0  0  0  0
  6 19  2  0  0  0  0
  7 21  1  0  0  0  0
  8 22  1  0  0  0  0
  9 24  1  0  0  0  0
 10 25  1  0  0  0  0
 11 14  2  0  0  0  0
 11 23  1  0  0  0  0
 12 27  1  0  0  0  0
 13 27  2  0  0  0  0
 14 28  1  0  0  0  0
 15 16  2  0  0  0  0
 15 29  1  0  0  0  0
 16 30  1  0  0  0  0
 17 26  1  0  0  0  0
 17 28  2  0  0  0  0
 18 30  2  0  0  0  0
 18 31  1  0  0  0  0
 19 32  1  0  0  0  0
 20 32  1  0  0  0  0
 20 33  2  0  0  0  0
 20 35  1  0  0  0  0
 21 24  2  0  0  0  0
 21 43  1  0  0  0  0
 22 25  2  0  0  0  0
 22 42  1  0  0  0  0
 23 26  2  0  0  0  0
 23 44  1  0  0  0  0
 24 45  1  0  0  0  0
 25 53  1  0  0  0  0
 26 46  1  0  0  0  0
 27 96  1  0  0  0  0
 28 97  1  0  0  0  0
 29 31  2  0  0  0  0
 29 96  1  0  0  0  0
 30100  1  0  0  0  0
 31101  1  0  0  0  0
 32 75  2  0  0  0  0
 33 76  1  0  0  0  0
 33 80  1  0  0  0  0
 34 70  1  0  0  0  0
 34 87  2  0  0  0  0
 35 81  1  0  0  0  0
 35 88  2  0  0  0  0
 36 54  1  0  0  0  0
 36 82  1  0  0  0  0
 36 89  2  0  0  0  0
 37 55  1  0  0  0  0
 37 83  1  0  0  0  0
 37 90  2  0  0  0  0
 38 62  1  0  0  0  0
 38 77  1  0  0  0  0
 38 91  2  0  0  0  0
 39 71  1  0  0  0  0
 39 78  1  0  0  0  0
 39 92  2  0  0  0  0
 40 72  1  0  0  0  0
 40 84  1  0  0  0  0
 40 93  2  0  0  0  0
 41 79  1  0  0  0  0
 41 85  1  0  0  0  0
 41 94  2  0  0  0  0
 42 47  1  0  0  0  0
 43 55  1  0  0  0  0
 44 54  1  0  0  0  0
 45 77  1  0  0  0  0
 46 78  1  0  0  0  0
 47 49  1  0  0  0  0
 48 50  1  0  0  0  0
 48 51  1  0  0  0  0
 49 53  1  0  0  0  0
 50 56  1  0  0  0  0
 51 79  1  0  0  0  0
 52 56  1  0  0  0  0
 52 79  1  0  0  0  0
 53 82  1  0  0  0  0
 54 78  1  0  0  0  0
 55 77  1  0  0  0  0
 56 76  1  0  0  0  0
 57 72  1  0  0  0  0
 58 74  1  0  0  0  0
 59 74  1  0  0  0  0
 60 74  1  0  0  0  0
 61 86  1  0  0  0  0
 62 97  1  0  0  0  0
 63 65  1  0  0  0  0
 63 66  1  0  0  0  0
 64 67  1  0  0  0  0
 64 68  1  0  0  0  0
 65 85  1  0  0  0  0
 66 98  1  0  0  0  0
 67 98  1  0  0  0  0
 68 99  1  0  0  0  0
 69 73  1  0  0  0  0
 69 99  1  0  0  0  0
 70 73  1  0  0  0  0
 70 95  1  0  0  0  0
 71 74  1  0  0  0  0
 71 84  1  0  0  0  0
 72 86  1  0  0  0  0
 73 83  1  0  0  0  0
 75 76  1  0  0  0  0
M  CHG  1  86   1
M  ISO  4  41 100  62 101  85 100  97 101
M  END
> <Batch ID>
0000

> <Smiles>
CNC(C)C(=O)NC(C(=O)N1Cc2cc([101O:1][101CH2:1]C(=O)N3Cc4ccccc4CC3C(=O)NC(COCCCOCCC[100NH:0][100C:0](=O)N3CCCC(n4nc(-c5ccc(Oc6ccc(F)cc6F)cc5)c(C(N)=O)c4N)C3)C(=O)CO)ccc2CC1C(=O)NC1CCCc2ccccc21)C(C)(C)C

> <Shape>
0.187

> <Color>
0.064

> <Negative vol penalty>
0.000

$$$$

  -OEChem-04052315133D

 80 87  0     1  0  0  0  0  0999 V2000
  -23.0021  -19.5760   22.6656 C   0  0  0  0  0  0  0  0  0  0  0  0
  -24.0925  -20.3413   22.2647 C   0  0  0  0  0  0  0  0  0  0  0  0
  -26.1107  -15.4247   22.0814 C   0  0  0  0  0  0  0  0  0  0  0  0
  -25.9342  -14.5619   19.8316 C   0  0  0  0  0  0  0  0  0  0  0  0
  -21.7297  -20.1444   22.7051 C   0  0  0  0  0  0  0  0  0  0  0  0
  -23.9108  -21.6754   21.9019 C   0  0  0  0  0  0  0  0  0  0  0  0
  -27.4169  -24.7292   23.9086 C   0  0  0  0  0  0  0  0  0  0  0  0
  -25.0759  -14.5815   22.4860 C   0  0  0  0  0  0  0  0  0  0  0  0
  -24.8994  -13.7186   20.2362 C   0  0  0  0  0  0  0  0  0  0  0  0
  -28.6721  -24.7427   23.3019 C   0  0  0  0  0  0  0  0  0  0  0  0
  -22.4540  -11.0791   20.7568 C   0  0  0  0  0  0  0  0  0  0  0  0
  -22.4898   -9.7536   20.3240 C   0  0  0  0  0  0  0  0  0  0  0  0
  -28.0874  -26.7808   22.1515 C   0  0  0  0  0  0  0  0  0  0  0  0
  -24.6137   -9.4484   21.4345 C   0  0  0  0  0  0  0  0  0  0  0  0
  -26.5398  -15.4150   20.7541 C   0  0  0  0  0  0  0  0  0  0  0  0
  -28.9870  -16.0017   20.3362 C   0  0  0  0  0  0  0  0  0  0  0  0
  -21.5338  -21.4889   22.3519 C   0  0  0  0  0  0  0  0  0  0  0  0
  -26.4820  -25.7372   23.6325 C   0  0  0  0  0  0  0  0  0  0  0  0
  -22.6343  -22.2620   21.9354 C   0  0  0  0  0  0  0  0  0  0  0  0
  -26.8220  -26.7792   22.7580 C   0  0  0  0  0  0  0  0  0  0  0  0
  -24.4703  -13.7284   21.5635 C   0  0  0  0  0  0  0  0  0  0  0  0
  -29.0065  -25.7670   22.4210 C   0  0  0  0  0  0  0  0  0  0  0  0
  -23.4981  -11.5893   21.5284 C   0  0  0  0  0  0  0  0  0  0  0  0
  -23.5696   -8.9382   20.6629 C   0  0  0  0  0  0  0  0  0  0  0  0
  -24.5779  -10.7739   21.8673 C   0  0  0  0  0  0  0  0  0  0  0  0
  -27.6083  -16.2863   20.3354 C   0  0  0  0  0  0  0  0  0  0  0  0
  -29.5738  -17.1448   19.8508 C   0  0  0  0  0  0  0  0  0  0  0  0
  -29.6757  -14.8106   20.7394 C   0  0  0  0  0  0  0  0  0  0  0  0
  -23.5792  -25.8112   22.3395 C   0  0  0  0  0  0  0  0  0  0  0  0
  -23.6943  -28.9328   23.2142 C   0  0  0  0  0  0  0  0  0  0  0  0
  -25.5996  -31.6605   23.9731 C   0  0  0  0  0  0  0  0  0  0  0  0
  -27.8352  -21.6312   16.5983 C   0  0  0  0  0  0  0  0  0  0  0  0
  -20.1323  -22.0461   22.3649 C   0  0  0  0  0  0  0  0  0  0  0  0
  -25.1421  -25.7228   24.3157 C   0  0  0  0  0  0  0  0  0  0  0  0
  -25.8616  -27.8960   22.4437 C   0  0  0  0  0  0  0  0  0  0  0  0
  -20.0829  -23.5713   22.3239 C   0  0  0  0  0  0  0  0  0  0  0  0
  -27.6406  -21.3845   20.3400 C   0  0  0  0  0  0  0  0  0  0  0  0
  -21.0292  -24.1075   21.2545 C   0  0  0  0  0  0  0  0  0  0  0  0
  -28.8653  -20.4897   20.1491 C   0  0  0  0  0  0  0  0  0  0  0  0
  -27.2083  -22.0474   19.0272 C   0  0  0  0  0  0  0  0  0  0  0  0
  -27.4492  -19.7473   18.1513 C   0  0  0  0  0  0  0  0  0  0  0  0
  -22.4814  -23.7196   21.5581 C   0  0  1  0  0  0  0  0  0  0  0  0
  -24.0802  -26.5209   23.5655 C   0  0  1  0  0  0  0  0  0  0  0  0
  -28.6564  -19.4225   19.0486 C   0  0  2  0  0  0  0  0  0  0  0  0
  -25.4099  -34.0801   24.6111 C   0  0  0  0  0  0  0  0  0  0  0  0
  -23.0061  -29.6378   20.3264 C   0  0  0  0  0  0  0  0  0  0  0  0
  -23.7563  -31.9804   20.7929 C   0  0  0  0  0  0  0  0  0  0  0  0
  -21.8265  -31.0176   22.0466 C   0  0  0  0  0  0  0  0  0  0  0  0
  -26.3037  -23.6480   16.6691 C   0  0  0  0  0  0  0  0  0  0  0  0
  -26.9768  -31.2080   26.5533 C   0  0  0  0  0  0  0  0  0  0  0  0
  -28.2638  -23.5965   15.1738 C   0  0  0  0  0  0  0  0  0  0  0  0
  -28.9516  -24.8572   15.6666 C   0  0  0  0  0  0  0  0  0  0  0  0
  -30.8515  -24.5201   21.5861 C   0  0  0  0  0  0  0  0  0  1  0  0
  -31.7374  -24.6298   20.3603 C   0  0  0  0  0  0  0  0  0  0  0  0
  -30.8233  -25.5381   16.9138 C   0  0  0  0  0  0  0  0  0  0  0  0
  -31.7254  -25.1415   18.0667 C   0  0  0  0  0  0  0  0  0  0  0  0
  -24.1662  -30.2094   22.5610 C   0  0  1  0  0  0  0  0  0  0  0  0
  -25.5275  -32.6520   25.1204 C   0  0  2  0  0  0  0  0  0  0  0  0
  -23.2064  -30.6894   21.4360 C   0  0  0  0  0  0  0  0  0  0  0  0
  -27.3354  -17.5139   19.8855 N   0  0  0  0  0  0  0  0  0  0  0  0
  -28.5508  -18.0109   19.5990 N   0  0  0  0  0  0  0  0  0  0  0  0
  -24.5615  -27.8341   23.1319 N   0  0  0  0  0  0  0  0  0  0  0  0
  -27.4070  -21.1788   17.8578 N   0  0  0  0  0  0  0  0  0  0  0  0
  -30.8599  -17.4835   19.6192 N   0  0  0  0  0  0  0  0  0  0  0  0
  -28.9198  -13.7300   21.2140 N   0  0  0  0  0  0  0  0  0  0  0  0
  -23.0259  -24.5708   22.5940 N   0  0  0  0  0  0  0  0  0  0  0  0
  -24.3533  -31.1745   23.6390 N   0  0  0  0  0  0  0  0  0  0  0  0
  -27.5057  -22.9442   16.2327 N   0  0  0  0  0  0  0  0  0  0  0  0
  -26.7499  -32.5541   25.9671 N   0  3  0  0  0  0  0  0  0  0  0  0
  -30.9256  -14.7135   20.6961 O   0  0  0  0  0  0  0  0  0  0  0  0
  -23.6852  -26.3498   21.2439 O   0  0  0  0  0  0  0  0  0  0  0  0
  -22.5998  -28.9132   23.7828 O   0  0  0  0  0  0  0  0  0  0  0  0
  -26.6555  -31.3513   23.4254 O   0  0  0  0  0  0  0  0  0  0  0  0
  -28.4938  -20.9031   15.8436 O   0  0  0  0  0  0  0  0  0  0  0  0
  -23.4607  -12.9052   21.9580 O   0  0  0  0  0  0  0  0  0  0  0  0
  -30.2307  -25.7822   21.8269 O   0  0  0  0  0  0  0  0  0  1  0  0
  -29.8412  -24.5268   16.7240 O   0  0  0  0  0  0  0  0  0  0  0  0
  -30.9438  -25.0228   19.2472 O   0  0  0  0  0  0  0  0  0  0  0  0
  -23.6031   -7.6649   20.2485 F   0  0  0  0  0  0  0  0  0  0  0  0
  -25.5833  -11.2581   22.6093 F   0  0  0  0  0  0  0  0  0  0  0  0
  1  2  1  0  0  0  0
  1  5  2  0  0  0  0
  2  6  2  0  0  0  0
  3  8  2  0  0  0  0
  3 15  1  0  0  0  0
  4  9  1  0  0  0  0
  4 15  2  0  0  0  0
  5 17  1  0  0  0  0
  6 19  1  0  0  0  0
  7 10  2  0  0  0  0
  7 18  1  0  0  0  0
  8 21  1  0  0  0  0
  9 21  2  0  0  0  0
 10 22  1  0  0  0  0
 11 12  2  0  0  0  0
 11 23  1  0  0  0  0
 12 24  1  0  0  0  0
 13 20  1  0  0  0  0
 13 22  2  0  0  0  0
 14 24  2  0  0  0  0
 14 25  1  0  0  0  0
 15 26  1  0  0  0  0
 16 26  1  0  0  0  0
 16 27  2  0  0  0  0
 16 28  1  0  0  0  0
 17 19  2  0  0  0  0
 17 33  1  0  0  0  0
 18 20  2  0  0  0  0
 18 34  1  0  0  0  0
 19 42  1  0  0  0  0
 20 35  1  0  0  0  0
 21 75  1  0  0  0  0
 22 76  1  0  0  0  0
 23 25  2  0  0  0  0
 23 75  1  0  0  0  0
 24 79  1  0  0  0  0
 25 80  1  0  0  0  0
 26 60  2  0  0  0  0
 27 61  1  0  0  0  0
 27 64  1  0  0  0  0
 28 65  1  0  0  0  0
 28 70  2  0  0  0  0
 29 43  1  0  0  0  0
 29 66  1  0  0  0  0
 29 71  2  0  0  0  0
 30 57  1  0  0  0  0
 30 62  1  0  0  0  0
 30 72  2  0  0  0  0
 31 58  1  0  0  0  0
 31 67  1  0  0  0  0
 31 73  2  0  0  0  0
 32 63  1  0  0  0  0
 32 68  1  0  0  0  0
 32 74  2  0  0  0  0
 33 36  1  0  0  0  0
 34 43  1  0  0  0  0
 35 62  1  0  0  0  0
 36 38  1  0  0  0  0
 37 39  1  0  0  0  0
 37 40  1  0  0  0  0
 38 42  1  0  0  0  0
 39 44  1  0  0  0  0
 40 63  1  0  0  0  0
 41 44  1  0  0  0  0
 41 63  1  0  0  0  0
 42 66  1  0  0  0  0
 43 62  1  0  0  0  0
 44 61  1  0  0  0  0
 45 58  1  0  0  0  0
 46 59  1  0  0  0  0
 47 59  1  0  0  0  0
 48 59  1  0  0  0  0
 49 68  1  0  0  0  0
 50 69  1  0  0  0  0
 51 52  1  0  0  0  0
 51 68  1  0  0  0  0
 52 77  1  0  0  0  0
 53 54  1  0  0  0  0
 53 76  1  0  0  0  0
 54 78  1  0  0  0  0
 55 56  1  0  0  0  0
 55 77  1  0  0  0  0
 56 78  1  0  0  0  0
 57 59  1  0  0  0  0
 57 67  1  0  0  0  0
 58 69  1  0  0  0  0
 60 61  1  0  0  0  0
M  CHG  1  69   1
M  ISO  4  32 100  53 101  68 100  76 101
M  END
> <Batch ID>
0000

> <Smiles>
CNC(C)C(=O)NC(C(=O)N1Cc2cc([101O:1][101CH2:1]COCCOCC[100N:0](C)[100C:0](=O)N3CCCC(n4nc(-c5ccc(Oc6ccc(F)cc6F)cc5)c(C(N)=O)c4N)C3)ccc2CC1C(=O)NC1CCCc2ccccc21)C(C)(C)C

> <Shape>
0.233

> <Color>
0.050

> <Negative vol penalty>
0.000

$$$$

  -OEChem-04052315133D

 82 89  0     1  0  0  0  0  0999 V2000
  -32.1465  -13.7135   21.4347 C   0  0  0  0  0  0  0  0  0  0  0  0
  -31.4367  -14.9100   21.4328 C   0  0  0  0  0  0  0  0  0  0  0  0
  -28.9743  -26.3807   20.6244 C   0  0  0  0  0  0  0  0  0  0  0  0
  -27.0125  -25.0317   20.2136 C   0  0  0  0  0  0  0  0  0  0  0  0
  -31.5565  -12.5535   20.9346 C   0  0  0  0  0  0  0  0  0  0  0  0
  -30.1368  -14.9474   20.9296 C   0  0  0  0  0  0  0  0  0  0  0  0
  -26.9756  -17.5530   23.9066 C   0  0  0  0  0  0  0  0  0  0  0  0
  -29.6997  -25.2308   20.9360 C   0  0  0  0  0  0  0  0  0  0  0  0
  -27.7380  -23.8818   20.5251 C   0  0  0  0  0  0  0  0  0  0  0  0
  -27.0354  -18.9441   23.8356 C   0  0  0  0  0  0  0  0  0  0  0  0
  -29.1696  -20.5569   20.8625 C   0  0  0  0  0  0  0  0  0  0  0  0
  -29.0288  -19.4528   20.0219 C   0  0  0  0  0  0  0  0  0  0  0  0
  -25.0967  -18.9482   22.4002 C   0  0  0  0  0  0  0  0  0  0  0  0
  -29.8475  -20.7627   18.1642 C   0  0  0  0  0  0  0  0  0  0  0  0
  -27.6306  -26.2812   20.2633 C   0  0  0  0  0  0  0  0  0  0  0  0
  -26.7352  -28.0655   18.6752 C   0  0  0  0  0  0  0  0  0  0  0  0
  -30.2451  -12.5746   20.4339 C   0  0  0  0  0  0  0  0  0  0  0  0
  -25.9808  -16.8472   23.2149 C   0  0  0  0  0  0  0  0  0  0  0  0
  -29.5291  -13.7869   20.4211 C   0  0  0  0  0  0  0  0  0  0  0  0
  -25.0249  -17.5483   22.4660 C   0  0  0  0  0  0  0  0  0  0  0  0
  -29.0816  -23.9814   20.8863 C   0  0  0  0  0  0  0  0  0  0  0  0
  -26.0976  -19.6418   23.0800 C   0  0  0  0  0  0  0  0  0  0  0  0
  -29.6493  -21.7640   20.3540 C   0  0  0  0  0  0  0  0  0  0  0  0
  -29.3678  -19.5557   18.6727 C   0  0  0  0  0  0  0  0  0  0  0  0
  -29.9883  -21.8669   19.0048 C   0  0  0  0  0  0  0  0  0  0  0  0
  -26.8806  -27.4687   19.9419 C   0  0  0  0  0  0  0  0  0  0  0  0
  -25.9351  -29.1589   18.9007 C   0  0  0  0  0  0  0  0  0  0  0  0
  -27.2751  -27.6672   17.4081 C   0  0  0  0  0  0  0  0  0  0  0  0
  -25.9738  -14.6746   20.8947 C   0  0  0  0  0  0  0  0  0  0  0  0
  -22.7899  -14.5955   21.5102 C   0  0  0  0  0  0  0  0  0  0  0  0
  -20.0370  -16.1913   22.7438 C   0  0  0  0  0  0  0  0  0  0  0  0
  -21.8864  -30.4485   23.1191 C   0  0  0  0  0  0  0  0  0  0  0  0
  -29.6666  -11.3055   19.8603 C   0  0  0  0  0  0  0  0  0  0  0  0
  -25.9138  -15.3484   23.3233 C   0  0  0  0  0  0  0  0  0  0  0  0
  -23.9247  -16.8389   21.7213 C   0  0  0  0  0  0  0  0  0  0  0  0
  -28.1502  -11.3500   19.6898 C   0  0  0  0  0  0  0  0  0  0  0  0
  -24.7964  -32.3288   22.2987 C   0  0  0  0  0  0  0  0  0  0  0  0
  -27.7249  -12.6603   19.0350 C   0  0  0  0  0  0  0  0  0  0  0  0
  -25.6474  -31.3502   21.4873 C   0  0  0  0  0  0  0  0  0  0  0  0
  -24.0456  -31.6234   23.4259 C   0  0  0  0  0  0  0  0  0  0  0  0
  -24.0810  -29.4921   22.1889 C   0  0  0  0  0  0  0  0  0  0  0  0
  -28.1080  -13.8624   19.9065 C   0  0  1  0  0  0  0  0  0  0  0  0
  -25.1676  -14.6981   22.1624 C   0  0  1  0  0  0  0  0  0  0  0  0
  -24.8136  -30.1477   21.0058 C   0  0  2  0  0  0  0  0  0  0  0  0
  -17.5681  -15.8884   23.0759 C   0  0  0  0  0  0  0  0  0  0  0  0
  -22.3295  -15.1090   18.5380 C   0  0  0  0  0  0  0  0  0  0  0  0
  -19.9673  -15.7344   19.0832 C   0  0  0  0  0  0  0  0  0  0  0  0
  -20.7856  -13.4261   19.5573 C   0  0  0  0  0  0  0  0  0  0  0  0
  -20.2838  -16.4435   25.6822 C   0  0  0  0  0  0  0  0  0  0  0  0
  -19.8018  -29.1627   22.7186 C   0  0  0  0  0  0  0  0  0  0  0  0
  -19.4491  -28.3845   23.9736 C   0  0  0  0  0  0  0  0  0  0  0  0
  -26.6857  -21.6880   24.1398 C   0  0  0  0  0  0  0  0  0  1  0  0
  -26.0302  -23.0515   24.2427 C   0  0  0  0  0  0  0  0  0  0  0  0
  -19.7525  -26.3315   25.0764 C   0  0  0  0  0  0  0  0  0  0  0  0
  -20.4048  -24.9683   24.9492 C   0  0  0  0  0  0  0  0  0  0  0  0
  -23.9621  -24.1314   24.5248 C   0  0  0  0  0  0  0  0  0  0  0  0
  -22.4746  -23.8861   24.6900 C   0  0  0  0  0  0  0  0  0  0  0  0
  -21.5831  -15.3443   20.9984 C   0  0  1  0  0  0  0  0  0  0  0  0
  -18.9479  -15.7308   23.6958 C   0  0  2  0  0  0  0  0  0  0  0  0
  -21.1881  -14.9170   19.5566 C   0  0  0  0  0  0  0  0  0  0  0  0
  -26.2255  -28.1283   20.9010 N   0  0  0  0  0  0  0  0  0  0  0  0
  -25.6609  -29.1511   20.2367 N   0  0  0  0  0  0  0  0  0  0  0  0
  -23.9052  -15.3727   21.8532 N   0  0  0  0  0  0  0  0  0  0  0  0
  -23.2734  -30.4940   22.9023 N   0  0  0  0  0  0  0  0  0  0  0  0
  -25.4466  -30.1168   18.0844 N   0  0  0  0  0  0  0  0  0  0  0  0
  -28.0768  -26.5188   17.3547 N   0  0  0  0  0  0  0  0  0  0  0  0
  -27.1781  -14.0063   21.0061 N   0  0  0  0  0  0  0  0  0  0  0  0
  -20.5304  -15.1481   21.9892 N   0  0  0  0  0  0  0  0  0  0  0  0
  -21.2296  -29.3471   22.5840 N   0  0  0  0  0  0  0  0  0  0  0  0
  -18.9908  -16.5259   24.9555 N   0  3  0  0  0  0  0  0  0  0  0  0
  -27.0666  -28.3197   16.3573 O   0  0  0  0  0  0  0  0  0  0  0  0
  -25.5349  -15.2209   19.8894 O   0  0  0  0  0  0  0  0  0  0  0  0
  -22.7421  -13.3668   21.6090 O   0  0  0  0  0  0  0  0  0  0  0  0
  -20.4099  -17.3603   22.6737 O   0  0  0  0  0  0  0  0  0  0  0  0
  -21.2775  -31.3273   23.7388 O   0  0  0  0  0  0  0  0  0  0  0  0
  -29.7893  -22.8591   21.1900 O   0  0  0  0  0  0  0  0  0  0  0  0
  -26.1541  -20.9995   23.0085 O   0  0  0  0  0  0  0  0  0  1  0  0
  -20.0550  -27.1006   23.9186 O   0  0  0  0  0  0  0  0  0  0  0  0
  -24.6294  -22.8813   24.4219 O   0  0  0  0  0  0  0  0  0  0  0  0
  -21.8089  -25.1371   24.8135 O   0  0  0  0  0  0  0  0  0  0  0  0
  -29.2339  -18.4949   17.8659 F   0  0  0  0  0  0  0  0  0  0  0  0
  -30.4508  -23.0235   18.5108 F   0  0  0  0  0  0  0  0  0  0  0  0
  1  2  1  0  0  0  0
  1  5  2  0  0  0  0
  2  6  2  0  0  0  0
  3  8  2  0  0  0  0
  3 15  1  0  0  0  0
  4  9  1  0  0  0  0
  4 15  2  0  0  0  0
  5 17  1  0  0  0  0
  6 19  1  0  0  0  0
  7 10  2  0  0  0  0
  7 18  1  0  0  0  0
  8 21  1  0  0  0  0
  9 21  2  0  0  0  0
 10 22  1  0  0  0  0
 11 12  2  0  0  0  0
 11 23  1  0  0  0  0
 12 24  1  0  0  0  0
 13 20  1  0  0  0  0
 13 22  2  0  0  0  0
 14 24  2  0  0  0  0
 14 25  1  0  0  0  0
 15 26  1  0  0  0  0
 16 26  1  0  0  0  0
 16 27  2  0  0  0  0
 16 28  1  0  0  0  0
 17 19  2  0  0  0  0
 17 33  1  0  0  0  0
 18 20  2  0  0  0  0
 18 34  1  0  0  0  0
 19 42  1  0  0  0  0
 20 35  1  0  0  0  0
 21 76  1  0  0  0  0
 22 77  1  0  0  0  0
 23 25  2  0  0  0  0
 23 76  1  0  0  0  0
 24 81  1  0  0  0  0
 25 82  1  0  0  0  0
 26 61  2  0  0  0  0
 27 62  1  0  0  0  0
 27 65  1  0  0  0  0
 28 66  1  0  0  0  0
 28 71  2  0  0  0  0
 29 43  1  0  0  0  0
 29 67  1  0  0  0  0
 29 72  2  0  0  0  0
 30 58  1  0  0  0  0
 30 63  1  0  0  0  0
 30 73  2  0  0  0  0
 31 59  1  0  0  0  0
 31 68  1  0  0  0  0
 31 74  2  0  0  0  0
 32 64  1  0  0  0  0
 32 69  1  0  0  0  0
 32 75  2  0  0  0  0
 33 36  1  0  0  0  0
 34 43  1  0  0  0  0
 35 63  1  0  0  0  0
 36 38  1  0  0  0  0
 37 39  1  0  0  0  0
 37 40  1  0  0  0  0
 38 42  1  0  0  0  0
 39 44  1  0  0  0  0
 40 64  1  0  0  0  0
 41 44  1  0  0  0  0
 41 64  1  0  0  0  0
 42 67  1  0  0  0  0
 43 63  1  0  0  0  0
 44 62  1  0  0  0  0
 45 59  1  0  0  0  0
 46 60  1  0  0  0  0
 47 60  1  0  0  0  0
 48 60  1  0  0  0  0
 49 70  1  0  0  0  0
 50 51  1  0  0  0  0
 50 69  1  0  0  0  0
 51 78  1  0  0  0  0
 52 53  1  0  0  0  0
 52 77  1  0  0  0  0
 53 79  1  0  0  0  0
 54 55  1  0  0  0  0
 54 78  1  0  0  0  0
 55 80  1  0  0  0  0
 56 57  1  0  0  0  0
 56 79  1  0  0  0  0
 57 80  1  0  0  0  0
 58 60  1  0  0  0  0
 58 68  1  0  0  0  0
 59 70  1  0  0  0  0
 61 62  1  0  0  0  0
M  CHG  1  70   1
M  ISO  4  32 100  52 101  69 100  77 101
M  END
> <Batch ID>
0000

> <Smiles>
CNC(C)C(=O)NC(C(=O)N1Cc2cc([101O:1][101CH2:1]COCCOCCOCC[100NH:0][100C:0](=O)N3CCCC(n4nc(-c5ccc(Oc6ccc(F)cc6F)cc5)c(C(N)=O)c4N)C3)ccc2CC1C(=O)NC1CCCc2ccccc21)C(C)(C)C

> <Shape>
0.233

> <Color>
0.068

> <Negative vol penalty>
0.000

$$$$

  -OEChem-04052315133D

 76 83  0     1  0  0  0  0  0999 V2000
  -23.6992   -8.5157   21.8889 C   0  0  0  0  0  0  0  0  0  0  0  0
  -24.8792   -9.1930   21.5987 C   0  0  0  0  0  0  0  0  0  0  0  0
  -26.2545  -27.9989   21.3502 C   0  0  0  0  0  0  0  0  0  0  0  0
  -25.9997  -28.1355   18.9515 C   0  0  0  0  0  0  0  0  0  0  0  0
  -22.4695   -9.1374   21.6762 C   0  0  0  0  0  0  0  0  0  0  0  0
  -24.8301  -10.4921   21.0945 C   0  0  0  0  0  0  0  0  0  0  0  0
  -28.7890  -15.0282   22.2155 C   0  0  0  0  0  0  0  0  0  0  0  0
  -25.4349  -29.1174   21.5010 C   0  0  0  0  0  0  0  0  0  0  0  0
  -25.1800  -29.2540   19.1023 C   0  0  0  0  0  0  0  0  0  0  0  0
  -29.8731  -15.5267   21.4943 C   0  0  0  0  0  0  0  0  0  0  0  0
  -25.7223  -32.4727   21.2118 C   0  0  0  0  0  0  0  0  0  0  0  0
  -26.1354  -33.4625   22.1035 C   0  0  0  0  0  0  0  0  0  0  0  0
  -28.4555  -17.2397   20.5588 C   0  0  0  0  0  0  0  0  0  0  0  0
  -24.1159  -33.1453   23.3912 C   0  0  0  0  0  0  0  0  0  0  0  0
  -26.5370  -27.5080   20.0754 C   0  0  0  0  0  0  0  0  0  0  0  0
  -26.9840  -25.0037   19.8844 C   0  0  0  0  0  0  0  0  0  0  0  0
  -22.4056  -10.4483   21.1782 C   0  0  0  0  0  0  0  0  0  0  0  0
  -27.5254  -15.6261   22.1051 C   0  0  0  0  0  0  0  0  0  0  0  0
  -23.5984  -11.1315   20.8736 C   0  0  0  0  0  0  0  0  0  0  0  0
  -27.3576  -16.7485   21.2815 C   0  0  0  0  0  0  0  0  0  0  0  0
  -24.8976  -29.7449   20.3771 C   0  0  0  0  0  0  0  0  0  0  0  0
  -29.7058  -16.6308   20.6636 C   0  0  0  0  0  0  0  0  0  0  0  0
  -24.5059  -31.8192   21.4097 C   0  0  0  0  0  0  0  0  0  0  0  0
  -25.3323  -33.7988   23.1932 C   0  0  0  0  0  0  0  0  0  0  0  0
  -23.7028  -32.1555   22.4994 C   0  0  0  0  0  0  0  0  0  0  0  0
  -27.3841  -26.3530   19.9189 C   0  0  0  0  0  0  0  0  0  0  0  0
  -28.1536  -24.3029   19.7194 C   0  0  0  0  0  0  0  0  0  0  0  0
  -25.6723  -24.4348   19.9918 C   0  0  0  0  0  0  0  0  0  0  0  0
  -24.6670  -14.6611   21.1042 C   0  0  0  0  0  0  0  0  0  0  0  0
  -23.7352  -17.5715   22.1921 C   0  0  0  0  0  0  0  0  0  0  0  0
  -24.5873  -20.7845   22.9650 C   0  0  0  0  0  0  0  0  0  0  0  0
  -33.1018  -23.6086   17.2337 C   0  0  0  0  0  0  0  0  0  0  0  0
  -21.0521  -11.0616   20.9201 C   0  0  0  0  0  0  0  0  0  0  0  0
  -26.3722  -15.0928   22.9102 C   0  0  0  0  0  0  0  0  0  0  0  0
  -26.0262  -17.4391   21.1438 C   0  0  0  0  0  0  0  0  0  0  0  0
  -21.0948  -12.5764   20.7362 C   0  0  0  0  0  0  0  0  0  0  0  0
  -32.9702  -25.8176   20.0229 C   0  0  0  0  0  0  0  0  0  0  0  0
  -22.2224  -12.9672   19.7862 C   0  0  0  0  0  0  0  0  0  0  0  0
  -31.4731  -26.0472   20.2374 C   0  0  0  0  0  0  0  0  0  0  0  0
  -33.3168  -25.7023   18.5401 C   0  0  0  0  0  0  0  0  0  0  0  0
  -31.0384  -24.9247   18.0125 C   0  0  0  0  0  0  0  0  0  0  0  0
  -23.5869  -12.5508   20.3486 C   0  0  1  0  0  0  0  0  0  0  0  0
  -25.0129  -15.4646   22.3258 C   0  0  1  0  0  0  0  0  0  0  0  0
  -30.6319  -24.9917   19.4946 C   0  0  2  0  0  0  0  0  0  0  0  0
  -23.6027  -22.9382   23.7953 C   0  0  0  0  0  0  0  0  0  0  0  0
  -22.5070  -18.0669   19.4432 C   0  0  0  0  0  0  0  0  0  0  0  0
  -22.3988  -20.5036   20.0078 C   0  0  0  0  0  0  0  0  0  0  0  0
  -21.1133  -18.8523   21.3654 C   0  0  0  0  0  0  0  0  0  0  0  0
  -26.3240  -20.7893   25.3615 C   0  0  0  0  0  0  0  0  0  0  0  0
  -31.5932  -19.8735   17.5173 C   0  0  0  0  0  0  0  0  0  0  0  0
  -32.9044  -20.3146   16.8603 C   0  0  0  0  0  0  0  0  0  0  0  0
  -31.8105  -18.6727   18.4361 C   0  0  0  0  0  0  0  0  0  0  0  0
  -32.7247  -21.5213   15.9452 C   0  0  0  0  0  0  0  0  0  0  0  0
  -30.5194  -18.2527   19.1263 C   0  0  0  0  0  0  0  0  0  1  0  0
  -23.6292  -18.9531   21.5930 C   0  0  1  0  0  0  0  0  0  0  0  0
  -24.2918  -21.6395   24.1841 C   0  0  2  0  0  0  0  0  0  0  0  0
  -22.4369  -19.0800   20.6032 C   0  0  0  0  0  0  0  0  0  0  0  0
  -28.7047  -26.5027   19.7867 N   0  0  0  0  0  0  0  0  0  0  0  0
  -29.1446  -25.2385   19.6675 N   0  0  0  0  0  0  0  0  0  0  0  0
  -24.9278  -16.8764   21.9465 N   0  0  0  0  0  0  0  0  0  0  0  0
  -32.4851  -24.6836   17.8948 N   0  0  0  0  0  0  0  0  0  0  0  0
  -28.4207  -22.9837   19.6151 N   0  0  0  0  0  0  0  0  0  0  0  0
  -24.5810  -25.2984   20.1577 N   0  0  0  0  0  0  0  0  0  0  0  0
  -24.0128  -13.4750   21.3776 N   0  0  0  0  0  0  0  0  0  0  0  0
  -23.5747  -19.8821   22.7165 N   0  0  0  0  0  0  0  0  0  0  0  0
  -32.2406  -22.6846   16.6546 N   0  0  0  0  0  0  0  0  0  0  0  0
  -25.5549  -21.9739   24.9007 N   0  3  0  0  0  0  0  0  0  0  0  0
  -25.4757  -23.1963   19.9587 O   0  0  0  0  0  0  0  0  0  0  0  0
  -24.9697  -15.0864   19.9955 O   0  0  0  0  0  0  0  0  0  0  0  0
  -22.7973  -17.1283   22.8596 O   0  0  0  0  0  0  0  0  0  0  0  0
  -25.6120  -20.9075   22.2977 O   0  0  0  0  0  0  0  0  0  0  0  0
  -34.3290  -23.4788   17.1693 O   0  0  0  0  0  0  0  0  0  0  0  0
  -24.0975  -30.8362   20.5239 O   0  0  0  0  0  0  0  0  0  0  0  0
  -30.7622  -17.1189   19.9581 O   0  0  0  0  0  0  0  0  0  1  0  0
  -25.7299  -34.7482   24.0503 F   0  0  0  0  0  0  0  0  0  0  0  0
  -22.5338  -31.5303   22.6954 F   0  0  0  0  0  0  0  0  0  0  0  0
  1  2  1  0  0  0  0
  1  5  2  0  0  0  0
  2  6  2  0  0  0  0
  3  8  2  0  0  0  0
  3 15  1  0  0  0  0
  4  9  1  0  0  0  0
  4 15  2  0  0  0  0
  5 17  1  0  0  0  0
  6 19  1  0  0  0  0
  7 10  2  0  0  0  0
  7 18  1  0  0  0  0
  8 21  1  0  0  0  0
  9 21  2  0  0  0  0
 10 22  1  0  0  0  0
 11 12  2  0  0  0  0
 11 23  1  0  0  0  0
 12 24  1  0  0  0  0
 13 20  1  0  0  0  0
 13 22  2  0  0  0  0
 14 24  2  0  0  0  0
 14 25  1  0  0  0  0
 15 26  1  0  0  0  0
 16 26  1  0  0  0  0
 16 27  2  0  0  0  0
 16 28  1  0  0  0  0
 17 19  2  0  0  0  0
 17 33  1  0  0  0  0
 18 20  2  0  0  0  0
 18 34  1  0  0  0  0
 19 42  1  0  0  0  0
 20 35  1  0  0  0  0
 21 73  1  0  0  0  0
 22 74  1  0  0  0  0
 23 25  2  0  0  0  0
 23 73  1  0  0  0  0
 24 75  1  0  0  0  0
 25 76  1  0  0  0  0
 26 58  2  0  0  0  0
 27 59  1  0  0  0  0
 27 62  1  0  0  0  0
 28 63  1  0  0  0  0
 28 68  2  0  0  0  0
 29 43  1  0  0  0  0
 29 64  1  0  0  0  0
 29 69  2  0  0  0  0
 30 55  1  0  0  0  0
 30 60  1  0  0  0  0
 30 70  2  0  0  0  0
 31 56  1  0  0  0  0
 31 65  1  0  0  0  0
 31 71  2  0  0  0  0
 32 61  1  0  0  0  0
 32 66  1  0  0  0  0
 32 72  2  0  0  0  0
 33 36  1  0  0  0  0
 34 43  1  0  0  0  0
 35 60  1  0  0  0  0
 36 38  1  0  0  0  0
 37 39  1  0  0  0  0
 37 40  1  0  0  0  0
 38 42  1  0  0  0  0
 39 44  1  0  0  0  0
 40 61  1  0  0  0  0
 41 44  1  0  0  0  0
 41 61  1  0  0  0  0
 42 64  1  0  0  0  0
 43 60  1  0  0  0  0
 44 59  1  0  0  0  0
 45 56  1  0  0  0  0
 46 57  1  0  0  0  0
 47 57  1  0  0  0  0
 48 57  1  0  0  0  0
 49 67  1  0  0  0  0
 50 51  1  0  0  0  0
 50 52  1  0  0  0  0
 51 53  1  0  0  0  0
 52 54  1  0  0  0  0
 53 66  1  0  0  0  0
 54 74  1  0  0  0  0
 55 57  1  0  0  0  0
 55 65  1  0  0  0  0
 56 67  1  0  0  0  0
 58 59  1  0  0  0  0
M  CHG  1  67   1
M  ISO  4  32 100  54 101  66 100  74 101
M  END
> <Batch ID>
0000

> <Smiles>
CNC(C)C(=O)NC(C(=O)N1Cc2cc([101O:1][101CH2:1]CCCC[100NH:0][100C:0](=O)N3CCCC(n4nc(-c5ccc(Oc6ccc(F)cc6F)cc5)c(C(N)=O)c4N)C3)ccc2CC1C(=O)NC1CCCc2ccccc21)C(C)(C)C

> <Shape>
0.204

> <Color>
0.079

> <Negative vol penalty>
0.000

$$$$

  -OEChem-04052315133D

 79 86  0     1  0  0  0  0  0999 V2000
  -24.1488  -21.5364   17.0982 C   0  0  0  0  0  0  0  0  0  0  0  0
  -25.2246  -20.6811   16.8822 C   0  0  0  0  0  0  0  0  0  0  0  0
  -27.9659  -23.3978   17.2597 C   0  0  0  0  0  0  0  0  0  0  0  0
  -29.4539  -24.6259   18.7138 C   0  0  0  0  0  0  0  0  0  0  0  0
  -23.4472  -21.4819   18.3019 C   0  0  0  0  0  0  0  0  0  0  0  0
  -25.6000  -19.7715   17.8701 C   0  0  0  0  0  0  0  0  0  0  0  0
  -28.3657  -13.2105   18.6580 C   0  0  0  0  0  0  0  0  0  0  0  0
  -27.1215  -24.5056   17.1879 C   0  0  0  0  0  0  0  0  0  0  0  0
  -28.6095  -25.7339   18.6420 C   0  0  0  0  0  0  0  0  0  0  0  0
  -29.3989  -12.5497   19.3211 C   0  0  0  0  0  0  0  0  0  0  0  0
  -25.6958  -26.7397   20.0310 C   0  0  0  0  0  0  0  0  0  0  0  0
  -25.3996  -27.4069   21.2196 C   0  0  0  0  0  0  0  0  0  0  0  0
  -28.0640  -12.4905   21.3295 C   0  0  0  0  0  0  0  0  0  0  0  0
  -26.3659  -29.4320   20.3237 C   0  0  0  0  0  0  0  0  0  0  0  0
  -29.1321  -23.4578   18.0227 C   0  0  0  0  0  0  0  0  0  0  0  0
  -31.0851  -22.0112   17.2476 C   0  0  0  0  0  0  0  0  0  0  0  0
  -23.8082  -20.5645   19.3012 C   0  0  0  0  0  0  0  0  0  0  0  0
  -27.1762  -13.5265   19.3300 C   0  0  0  0  0  0  0  0  0  0  0  0
  -24.9034  -19.7056   19.0888 C   0  0  0  0  0  0  0  0  0  0  0  0
  -27.0163  -13.1531   20.6720 C   0  0  0  0  0  0  0  0  0  0  0  0
  -27.4433  -25.6737   17.8791 C   0  0  0  0  0  0  0  0  0  0  0  0
  -29.2493  -12.1921   20.6578 C   0  0  0  0  0  0  0  0  0  0  0  0
  -26.3271  -27.4186   18.9888 C   0  0  0  0  0  0  0  0  0  0  0  0
  -25.7346  -28.7530   21.3659 C   0  0  0  0  0  0  0  0  0  0  0  0
  -26.6621  -28.7648   19.1351 C   0  0  0  0  0  0  0  0  0  0  0  0
  -30.0044  -22.3135   18.0977 C   0  0  0  0  0  0  0  0  0  0  0  0
  -31.5855  -20.8289   17.7355 C   0  0  0  0  0  0  0  0  0  0  0  0
  -31.5913  -22.7346   16.1179 C   0  0  0  0  0  0  0  0  0  0  0  0
  -25.6635  -16.2239   20.0648 C   0  0  0  0  0  0  0  0  0  0  0  0
  -23.3609  -14.1909   21.1077 C   0  0  0  0  0  0  0  0  0  0  0  0
  -22.5428  -11.0812   22.2511 C   0  0  0  0  0  0  0  0  0  0  0  0
  -31.4488  -18.4269   23.1270 C   0  0  0  0  0  0  0  0  0  0  0  0
  -23.0495  -20.5751   20.6047 C   0  0  0  0  0  0  0  0  0  0  0  0
  -26.0608  -14.2159   18.5930 C   0  0  0  0  0  0  0  0  0  0  0  0
  -25.7510  -13.4512   21.4328 C   0  0  0  0  0  0  0  0  0  0  0  0
  -23.2764  -19.3255   21.4516 C   0  0  0  0  0  0  0  0  0  0  0  0
  -30.2441  -16.8806   20.0848 C   0  0  0  0  0  0  0  0  0  0  0  0
  -24.7628  -18.9900   21.5206 C   0  0  0  0  0  0  0  0  0  0  0  0
  -30.1510  -18.0857   19.1472 C   0  0  0  0  0  0  0  0  0  0  0  0
  -29.8381  -17.2542   21.5074 C   0  0  0  0  0  0  0  0  0  0  0  0
  -30.5135  -19.5977   21.1529 C   0  0  0  0  0  0  0  0  0  0  0  0
  -25.3256  -18.6882   20.1264 C   0  0  1  0  0  0  0  0  0  0  0  0
  -25.0931  -14.9450   19.5201 C   0  0  1  0  0  0  0  0  0  0  0  0
  -30.9328  -19.2904   19.7038 C   0  0  2  0  0  0  0  0  0  0  0  0
  -20.5878   -9.7300   23.0570 C   0  0  0  0  0  0  0  0  0  0  0  0
  -23.4523  -15.6580   23.7815 C   0  0  0  0  0  0  0  0  0  0  0  0
  -22.2294  -13.7271   24.8035 C   0  0  0  0  0  0  0  0  0  0  0  0
  -21.1535  -15.0660   22.9944 C   0  0  0  0  0  0  0  0  0  0  0  0
  -22.8469   -9.1181   20.0574 C   0  0  0  0  0  0  0  0  0  0  0  0
  -32.3027  -17.1272   25.0605 C   0  0  0  0  0  0  0  0  0  0  0  0
  -32.1882  -15.7446   25.6773 C   0  0  0  0  0  0  0  0  0  0  0  0
  -31.5886  -11.8245   20.8775 C   0  0  0  0  0  0  0  0  0  1  0  0
  -32.5314  -11.6696   22.0552 C   0  0  0  0  0  0  0  0  0  0  0  0
  -32.5348  -13.4559   25.2720 C   0  0  0  0  0  0  0  0  0  0  0  0
  -32.9891  -12.4631   24.2193 C   0  0  0  0  0  0  0  0  0  0  0  0
  -23.0548  -13.5030   22.4161 C   0  0  1  0  0  0  0  0  0  0  0  0
  -21.4344  -10.1222   21.8561 C   0  0  2  0  0  0  0  0  0  0  0  0
  -22.4972  -14.4845   23.4854 C   0  0  0  0  0  0  0  0  0  0  0  0
  -29.8279  -21.3970   19.0531 N   0  0  0  0  0  0  0  0  0  0  0  0
  -30.8043  -20.5072   18.8063 N   0  0  0  0  0  0  0  0  0  0  0  0
  -24.6917  -14.1324   20.6703 N   0  0  0  0  0  0  0  0  0  0  0  0
  -30.6323  -18.3952   21.9843 N   0  0  0  0  0  0  0  0  0  0  0  0
  -32.6130  -20.0433   17.3488 N   0  0  0  0  0  0  0  0  0  0  0  0
  -30.9593  -23.9311   15.7528 N   0  0  0  0  0  0  0  0  0  0  0  0
  -24.9522  -17.3538   19.7087 N   0  0  0  0  0  0  0  0  0  0  0  0
  -22.1594  -12.3966   22.0959 N   0  0  0  0  0  0  0  0  0  0  0  0
  -31.5012  -17.2497   23.8632 N   0  0  0  0  0  0  0  0  0  0  0  0
  -22.0095   -8.8825   21.2616 N   0  3  0  0  0  0  0  0  0  0  0  0
  -32.5648  -22.3234   15.4420 O   0  0  0  0  0  0  0  0  0  0  0  0
  -26.6733  -16.1880   20.7581 O   0  0  0  0  0  0  0  0  0  0  0  0
  -22.4513  -14.7531   20.4927 O   0  0  0  0  0  0  0  0  0  0  0  0
  -23.6378  -10.7016   22.6602 O   0  0  0  0  0  0  0  0  0  0  0  0
  -32.0886  -19.4291   23.4636 O   0  0  0  0  0  0  0  0  0  0  0  0
  -26.6198  -26.7551   17.8091 O   0  0  0  0  0  0  0  0  0  0  0  0
  -30.2564  -11.5476   21.3076 O   0  0  0  0  0  0  0  0  0  1  0  0
  -32.6238  -14.7714   24.7383 O   0  0  0  0  0  0  0  0  0  0  0  0
  -32.1372  -12.5659   23.0870 O   0  0  0  0  0  0  0  0  0  0  0  0
  -25.4487  -29.3940   22.5068 F   0  0  0  0  0  0  0  0  0  0  0  0
  -27.2676  -29.4226   18.1369 F   0  0  0  0  0  0  0  0  0  0  0  0
  1  2  1  0  0  0  0
  1  5  2  0  0  0  0
  2  6  2  0  0  0  0
  3  8  2  0  0  0  0
  3 15  1  0  0  0  0
  4  9  1  0  0  0  0
  4 15  2  0  0  0  0
  5 17  1  0  0  0  0
  6 19  1  0  0  0  0
  7 10  2  0  0  0  0
  7 18  1  0  0  0  0
  8 21  1  0  0  0  0
  9 21  2  0  0  0  0
 10 22  1  0  0  0  0
 11 12  2  0  0  0  0
 11 23  1  0  0  0  0
 12 24  1  0  0  0  0
 13 20  1  0  0  0  0
 13 22  2  0  0  0  0
 14 24  2  0  0  0  0
 14 25  1  0  0  0  0
 15 26  1  0  0  0  0
 16 26  1  0  0  0  0
 16 27  2  0  0  0  0
 16 28  1  0  0  0  0
 17 19  2  0  0  0  0
 17 33  1  0  0  0  0
 18 20  2  0  0  0  0
 18 34  1  0  0  0  0
 19 42  1  0  0  0  0
 20 35  1  0  0  0  0
 21 74  1  0  0  0  0
 22 75  1  0  0  0  0
 23 25  2  0  0  0  0
 23 74  1  0  0  0  0
 24 78  1  0  0  0  0
 25 79  1  0  0  0  0
 26 59  2  0  0  0  0
 27 60  1  0  0  0  0
 27 63  1  0  0  0  0
 28 64  1  0  0  0  0
 28 69  2  0  0  0  0
 29 43  1  0  0  0  0
 29 65  1  0  0  0  0
 29 70  2  0  0  0  0
 30 56  1  0  0  0  0
 30 61  1  0  0  0  0
 30 71  2  0  0  0  0
 31 57  1  0  0  0  0
 31 66  1  0  0  0  0
 31 72  2  0  0  0  0
 32 62  1  0  0  0  0
 32 67  1  0  0  0  0
 32 73  2  0  0  0  0
 33 36  1  0  0  0  0
 34 43  1  0  0  0  0
 35 61  1  0  0  0  0
 36 38  1  0  0  0  0
 37 39  1  0  0  0  0
 37 40  1  0  0  0  0
 38 42  1  0  0  0  0
 39 44  1  0  0  0  0
 40 62  1  0  0  0  0
 41 44  1  0  0  0  0
 41 62  1  0  0  0  0
 42 65  1  0  0  0  0
 43 61  1  0  0  0  0
 44 60  1  0  0  0  0
 45 57  1  0  0  0  0
 46 58  1  0  0  0  0
 47 58  1  0  0  0  0
 48 58  1  0  0  0  0
 49 68  1  0  0  0  0
 50 51  1  0  0  0  0
 50 67  1  0  0  0  0
 51 76  1  0  0  0  0
 52 53  1  0  0  0  0
 52 75  1  0  0  0  0
 53 77  1  0  0  0  0
 54 55  1  0  0  0  0
 54 76  1  0  0  0  0
 55 77  1  0  0  0  0
 56 58  1  0  0  0  0
 56 66  1  0  0  0  0
 57 68  1  0  0  0  0
 59 60  1  0  0  0  0
M  CHG  1  68   1
M  ISO  4  32 100  52 101  67 100  75 101
M  END
> <Batch ID>
0000

> <Smiles>
CNC(C)C(=O)NC(C(=O)N1Cc2cc([101O:1][101CH2:1]COCCOCC[100NH:0][100C:0](=O)N3CCCC(n4nc(-c5ccc(Oc6ccc(F)cc6F)cc5)c(C(N)=O)c4N)C3)ccc2CC1C(=O)NC1CCCc2ccccc21)C(C)(C)C

> <Shape>
0.193

> <Color>
0.068

> <Negative vol penalty>
0.000

$$$$

  -OEChem-04052315133D

 82 89  0     1  0  0  0  0  0999 V2000
  -32.1465  -13.7135   21.4347 C   0  0  0  0  0  0  0  0  0  0  0  0
  -31.4367  -14.9100   21.4328 C   0  0  0  0  0  0  0  0  0  0  0  0
  -28.9743  -26.3807   20.6244 C   0  0  0  0  0  0  0  0  0  0  0  0
  -27.0125  -25.0317   20.2136 C   0  0  0  0  0  0  0  0  0  0  0  0
  -31.5565  -12.5535   20.9346 C   0  0  0  0  0  0  0  0  0  0  0  0
  -30.1368  -14.9474   20.9296 C   0  0  0  0  0  0  0  0  0  0  0  0
  -26.9756  -17.5530   23.9066 C   0  0  0  0  0  0  0  0  0  0  0  0
  -29.6997  -25.2308   20.9360 C   0  0  0  0  0  0  0  0  0  0  0  0
  -27.7380  -23.8818   20.5251 C   0  0  0  0  0  0  0  0  0  0  0  0
  -27.0354  -18.9441   23.8356 C   0  0  0  0  0  0  0  0  0  0  0  0
  -29.1696  -20.5569   20.8625 C   0  0  0  0  0  0  0  0  0  0  0  0
  -29.0288  -19.4528   20.0219 C   0  0  0  0  0  0  0  0  0  0  0  0
  -25.0967  -18.9482   22.4002 C   0  0  0  0  0  0  0  0  0  0  0  0
  -29.8475  -20.7627   18.1642 C   0  0  0  0  0  0  0  0  0  0  0  0
  -27.6306  -26.2812   20.2633 C   0  0  0  0  0  0  0  0  0  0  0  0
  -26.7352  -28.0655   18.6752 C   0  0  0  0  0  0  0  0  0  0  0  0
  -30.2451  -12.5746   20.4339 C   0  0  0  0  0  0  0  0  0  0  0  0
  -25.9808  -16.8472   23.2149 C   0  0  0  0  0  0  0  0  0  0  0  0
  -29.5291  -13.7869   20.4211 C   0  0  0  0  0  0  0  0  0  0  0  0
  -25.0249  -17.5483   22.4660 C   0  0  0  0  0  0  0  0  0  0  0  0
  -29.0816  -23.9814   20.8863 C   0  0  0  0  0  0  0  0  0  0  0  0
  -26.0976  -19.6418   23.0800 C   0  0  0  0  0  0  0  0  0  0  0  0
  -29.6493  -21.7640   20.3540 C   0  0  0  0  0  0  0  0  0  0  0  0
  -29.3678  -19.5557   18.6727 C   0  0  0  0  0  0  0  0  0  0  0  0
  -29.9883  -21.8669   19.0048 C   0  0  0  0  0  0  0  0  0  0  0  0
  -26.8806  -27.4687   19.9419 C   0  0  0  0  0  0  0  0  0  0  0  0
  -25.9351  -29.1589   18.9007 C   0  0  0  0  0  0  0  0  0  0  0  0
  -27.2751  -27.6672   17.4081 C   0  0  0  0  0  0  0  0  0  0  0  0
  -25.9738  -14.6746   20.8947 C   0  0  0  0  0  0  0  0  0  0  0  0
  -22.7899  -14.5955   21.5102 C   0  0  0  0  0  0  0  0  0  0  0  0
  -20.0370  -16.1913   22.7438 C   0  0  0  0  0  0  0  0  0  0  0  0
  -21.8864  -30.4485   23.1191 C   0  0  0  0  0  0  0  0  0  0  0  0
  -29.6666  -11.3055   19.8603 C   0  0  0  0  0  0  0  0  0  0  0  0
  -25.9138  -15.3484   23.3233 C   0  0  0  0  0  0  0  0  0  0  0  0
  -23.9247  -16.8389   21.7213 C   0  0  0  0  0  0  0  0  0  0  0  0
  -28.1502  -11.3500   19.6898 C   0  0  0  0  0  0  0  0  0  0  0  0
  -24.7964  -32.3288   22.2987 C   0  0  0  0  0  0  0  0  0  0  0  0
  -27.7249  -12.6603   19.0350 C   0  0  0  0  0  0  0  0  0  0  0  0
  -25.6474  -31.3502   21.4873 C   0  0  0  0  0  0  0  0  0  0  0  0
  -24.0456  -31.6234   23.4259 C   0  0  0  0  0  0  0  0  0  0  0  0
  -24.0810  -29.4921   22.1889 C   0  0  0  0  0  0  0  0  0  0  0  0
  -28.1080  -13.8624   19.9065 C   0  0  1  0  0  0  0  0  0  0  0  0
  -25.1676  -14.6981   22.1624 C   0  0  1  0  0  0  0  0  0  0  0  0
  -24.8136  -30.1477   21.0058 C   0  0  2  0  0  0  0  0  0  0  0  0
  -17.5681  -15.8884   23.0759 C   0  0  0  0  0  0  0  0  0  0  0  0
  -22.3295  -15.1090   18.5380 C   0  0  0  0  0  0  0  0  0  0  0  0
  -19.9673  -15.7344   19.0832 C   0  0  0  0  0  0  0  0  0  0  0  0
  -20.7856  -13.4261   19.5573 C   0  0  0  0  0  0  0  0  0  0  0  0
  -20.2838  -16.4435   25.6822 C   0  0  0  0  0  0  0  0  0  0  0  0
  -19.8018  -29.1627   22.7186 C   0  0  0  0  0  0  0  0  0  0  0  0
  -19.4491  -28.3845   23.9736 C   0  0  0  0  0  0  0  0  0  0  0  0
  -26.6857  -21.6880   24.1398 C   0  0  0  0  0  0  0  0  0  1  0  0
  -26.0302  -23.0515   24.2427 C   0  0  0  0  0  0  0  0  0  0  0  0
  -19.7525  -26.3315   25.0764 C   0  0  0  0  0  0  0  0  0  0  0  0
  -20.4048  -24.9683   24.9492 C   0  0  0  0  0  0  0  0  0  0  0  0
  -23.9621  -24.1314   24.5248 C   0  0  0  0  0  0  0  0  0  0  0  0
  -22.4746  -23.8861   24.6900 C   0  0  0  0  0  0  0  0  0  0  0  0
  -21.5831  -15.3443   20.9984 C   0  0  1  0  0  0  0  0  0  0  0  0
  -18.9479  -15.7308   23.6958 C   0  0  2  0  0  0  0  0  0  0  0  0
  -21.1881  -14.9170   19.5566 C   0  0  0  0  0  0  0  0  0  0  0  0
  -26.2255  -28.1283   20.9010 N   0  0  0  0  0  0  0  0  0  0  0  0
  -25.6609  -29.1511   20.2367 N   0  0  0  0  0  0  0  0  0  0  0  0
  -23.9052  -15.3727   21.8532 N   0  0  0  0  0  0  0  0  0  0  0  0
  -23.2734  -30.4940   22.9023 N   0  0  0  0  0  0  0  0  0  0  0  0
  -25.4466  -30.1168   18.0844 N   0  0  0  0  0  0  0  0  0  0  0  0
  -28.0768  -26.5188   17.3547 N   0  0  0  0  0  0  0  0  0  0  0  0
  -27.1781  -14.0063   21.0061 N   0  0  0  0  0  0  0  0  0  0  0  0
  -20.5304  -15.1481   21.9892 N   0  0  0  0  0  0  0  0  0  0  0  0
  -21.2296  -29.3471   22.5840 N   0  0  0  0  0  0  0  0  0  0  0  0
  -18.9908  -16.5259   24.9555 N   0  3  0  0  0  0  0  0  0  0  0  0
  -27.0666  -28.3197   16.3573 O   0  0  0  0  0  0  0  0  0  0  0  0
  -25.5349  -15.2209   19.8894 O   0  0  0  0  0  0  0  0  0  0  0  0
  -22.7421  -13.3668   21.6090 O   0  0  0  0  0  0  0  0  0  0  0  0
  -20.4099  -17.3603   22.6737 O   0  0  0  0  0  0  0  0  0  0  0  0
  -21.2775  -31.3273   23.7388 O   0  0  0  0  0  0  0  0  0  0  0  0
  -29.7893  -22.8591   21.1900 O   0  0  0  0  0  0  0  0  0  0  0  0
  -26.1541  -20.9995   23.0085 O   0  0  0  0  0  0  0  0  0  1  0  0
  -20.0550  -27.1006   23.9186 O   0  0  0  0  0  0  0  0  0  0  0  0
  -24.6294  -22.8813   24.4219 O   0  0  0  0  0  0  0  0  0  0  0  0
  -21.8089  -25.1371   24.8135 O   0  0  0  0  0  0  0  0  0  0  0  0
  -29.2339  -18.4949   17.8659 F   0  0  0  0  0  0  0  0  0  0  0  0
  -30.4508  -23.0235   18.5108 F   0  0  0  0  0  0  0  0  0  0  0  0
  1  2  1  0  0  0  0
  1  5  2  0  0  0  0
  2  6  2  0  0  0  0
  3  8  2  0  0  0  0
  3 15  1  0  0  0  0
  4  9  1  0  0  0  0
  4 15  2  0  0  0  0
  5 17  1  0  0  0  0
  6 19  1  0  0  0  0
  7 10  2  0  0  0  0
  7 18  1  0  0  0  0
  8 21  1  0  0  0  0
  9 21  2  0  0  0  0
 10 22  1  0  0  0  0
 11 12  2  0  0  0  0
 11 23  1  0  0  0  0
 12 24  1  0  0  0  0
 13 20  1  0  0  0  0
 13 22  2  0  0  0  0
 14 24  2  0  0  0  0
 14 25  1  0  0  0  0
 15 26  1  0  0  0  0
 16 26  1  0  0  0  0
 16 27  2  0  0  0  0
 16 28  1  0  0  0  0
 17 19  2  0  0  0  0
 17 33  1  0  0  0  0
 18 20  2  0  0  0  0
 18 34  1  0  0  0  0
 19 42  1  0  0  0  0
 20 35  1  0  0  0  0
 21 76  1  0  0  0  0
 22 77  1  0  0  0  0
 23 25  2  0  0  0  0
 23 76  1  0  0  0  0
 24 81  1  0  0  0  0
 25 82  1  0  0  0  0
 26 61  2  0  0  0  0
 27 62  1  0  0  0  0
 27 65  1  0  0  0  0
 28 66  1  0  0  0  0
 28 71  2  0  0  0  0
 29 43  1  0  0  0  0
 29 67  1  0  0  0  0
 29 72  2  0  0  0  0
 30 58  1  0  0  0  0
 30 63  1  0  0  0  0
 30 73  2  0  0  0  0
 31 59  1  0  0  0  0
 31 68  1  0  0  0  0
 31 74  2  0  0  0  0
 32 64  1  0  0  0  0
 32 69  1  0  0  0  0
 32 75  2  0  0  0  0
 33 36  1  0  0  0  0
 34 43  1  0  0  0  0
 35 63  1  0  0  0  0
 36 38  1  0  0  0  0
 37 39  1  0  0  0  0
 37 40  1  0  0  0  0
 38 42  1  0  0  0  0
 39 44  1  0  0  0  0
 40 64  1  0  0  0  0
 41 44  1  0  0  0  0
 41 64  1  0  0  0  0
 42 67  1  0  0  0  0
 43 63  1  0  0  0  0
 44 62  1  0  0  0  0
 45 59  1  0  0  0  0
 46 60  1  0  0  0  0
 47 60  1  0  0  0  0
 48 60  1  0  0  0  0
 49 70  1  0  0  0  0
 50 51  1  0  0  0  0
 50 69  1  0  0  0  0
 51 78  1  0  0  0  0
 52 53  1  0  0  0  0
 52 77  1  0  0  0  0
 53 79  1  0  0  0  0
 54 55  1  0  0  0  0
 54 78  1  0  0  0  0
 55 80  1  0  0  0  0
 56 57  1  0  0  0  0
 56 79  1  0  0  0  0
 57 80  1  0  0  0  0
 58 60  1  0  0  0  0
 58 68  1  0  0  0  0
 59 70  1  0  0  0  0
 61 62  1  0  0  0  0
M  CHG  1  70   1
M  ISO  4  32 100  52 101  69 100  77 101
M  END
> <Batch ID>
0000

> <Smiles>
CNC(C)C(=O)NC(C(=O)N1Cc2cc([101O:1][101CH2:1]COCCOCCOCC[100NH:0][100C:0](=O)N3CCCC(n4nc(-c5ccc(Oc6ccc(F)cc6F)cc5)c(C(N)=O)c4N)C3)ccc2CC1C(=O)NC1CCCc2ccccc21)C(C)(C)C

> <Shape>
0.233

> <Color>
0.068

> <Negative vol penalty>
0.000

$$$$

  -OEChem-04052315133D

 85 92  0     1  0  0  0  0  0999 V2000
  -20.2839  -15.4226   20.3642 C   0  0  0  0  0  0  0  0  0  0  0  0
  -21.0127  -16.3668   21.0804 C   0  0  0  0  0  0  0  0  0  0  0  0
  -25.4663  -28.6994   20.6051 C   0  0  0  0  0  0  0  0  0  0  0  0
  -25.1094  -26.6987   19.2986 C   0  0  0  0  0  0  0  0  0  0  0  0
  -20.8988  -14.2464   19.9372 C   0  0  0  0  0  0  0  0  0  0  0  0
  -22.3566  -16.1347   21.3708 C   0  0  0  0  0  0  0  0  0  0  0  0
  -25.2550  -20.2026   20.5365 C   0  0  0  0  0  0  0  0  0  0  0  0
  -26.8344  -28.4300   20.6439 C   0  0  0  0  0  0  0  0  0  0  0  0
  -26.4775  -26.4294   19.3373 C   0  0  0  0  0  0  0  0  0  0  0  0
  -25.2287  -21.2113   21.4986 C   0  0  0  0  0  0  0  0  0  0  0  0
  -28.7014  -25.1389   21.5327 C   0  0  0  0  0  0  0  0  0  0  0  0
  -29.0967  -23.8313   21.8143 C   0  0  0  0  0  0  0  0  0  0  0  0
  -27.3001  -20.3822   22.4157 C   0  0  0  0  0  0  0  0  0  0  0  0
  -30.2244  -23.7127   19.6809 C   0  0  0  0  0  0  0  0  0  0  0  0
  -24.6038  -27.8337   19.9325 C   0  0  0  0  0  0  0  0  0  0  0  0
  -22.4992  -28.8655   18.9259 C   0  0  0  0  0  0  0  0  0  0  0  0
  -22.2535  -14.0042   20.2142 C   0  0  0  0  0  0  0  0  0  0  0  0
  -26.3002  -19.2680   20.5135 C   0  0  0  0  0  0  0  0  0  0  0  0
  -22.9899  -14.9536   20.9482 C   0  0  0  0  0  0  0  0  0  0  0  0
  -27.3387  -19.3642   21.4507 C   0  0  0  0  0  0  0  0  0  0  0  0
  -27.3400  -27.2951   20.0100 C   0  0  0  0  0  0  0  0  0  0  0  0
  -26.2499  -21.2995   22.4402 C   0  0  0  0  0  0  0  0  0  0  0  0
  -29.0675  -25.7335   20.3251 C   0  0  0  0  0  0  0  0  0  0  0  0
  -29.8583  -23.1182   20.8885 C   0  0  0  0  0  0  0  0  0  0  0  0
  -29.8290  -25.0204   19.3993 C   0  0  0  0  0  0  0  0  0  0  0  0
  -23.1905  -28.1110   19.8927 C   0  0  0  0  0  0  0  0  0  0  0  0
  -21.1887  -28.8306   19.3357 C   0  0  0  0  0  0  0  0  0  0  0  0
  -22.9970  -29.5377   17.7614 C   0  0  0  0  0  0  0  0  0  0  0  0
  -26.4967  -16.1139   20.8551 C   0  0  0  0  0  0  0  0  0  0  0  0
  -29.6017  -16.6125   20.0596 C   0  0  0  0  0  0  0  0  0  0  0  0
  -32.2480  -18.7631   19.9225 C   0  0  0  0  0  0  0  0  0  0  0  0
  -18.0637  -24.9701   22.6796 C   0  0  0  0  0  0  0  0  0  0  0  0
  -22.8622  -12.6968   19.7727 C   0  0  0  0  0  0  0  0  0  0  0  0
  -26.3278  -18.2021   19.4526 C   0  0  0  0  0  0  0  0  0  0  0  0
  -28.4939  -18.3978   21.4563 C   0  0  0  0  0  0  0  0  0  0  0  0
  -24.3885  -12.6965   19.7975 C   0  0  0  0  0  0  0  0  0  0  0  0
  -18.5080  -28.4513   23.2804 C   0  0  0  0  0  0  0  0  0  0  0  0
  -24.9013  -13.2900   21.1057 C   0  0  0  0  0  0  0  0  0  0  0  0
  -19.6960  -28.8269   22.3930 C   0  0  0  0  0  0  0  0  0  0  0  0
  -18.6675  -27.0539   23.8753 C   0  0  0  0  0  0  0  0  0  0  0  0
  -20.1129  -26.3626   22.0028 C   0  0  0  0  0  0  0  0  0  0  0  0
  -24.4563  -14.7492   21.2614 C   0  0  1  0  0  0  0  0  0  0  0  0
  -27.1733  -16.9934   19.8420 C   0  0  1  0  0  0  0  0  0  0  0  0
  -19.9712  -27.7412   21.3352 C   0  0  2  0  0  0  0  0  0  0  0  0
  -34.5512  -19.5884   19.3643 C   0  0  0  0  0  0  0  0  0  0  0  0
  -30.3645  -15.1012   22.5981 C   0  0  0  0  0  0  0  0  0  0  0  0
  -32.6722  -16.0485   22.3852 C   0  0  0  0  0  0  0  0  0  0  0  0
  -31.7676  -14.5594   20.6000 C   0  0  0  0  0  0  0  0  0  0  0  0
  -31.3756  -19.7591   17.2756 C   0  0  0  0  0  0  0  0  0  0  0  0
  -17.5800  -22.9140   21.3767 C   0  0  0  0  0  0  0  0  0  0  0  0
  -18.0731  -21.7062   22.1531 C   0  0  0  0  0  0  0  0  0  0  0  0
  -24.9448  -22.7505   23.7994 C   0  0  0  0  0  0  0  0  0  1  0  0
  -25.0354  -23.2221   25.2377 C   0  0  0  0  0  0  0  0  0  0  0  0
  -18.4635  -20.8767   24.3170 C   0  0  0  0  0  0  0  0  0  0  0  0
  -18.3955  -21.2390   25.7881 C   0  0  0  0  0  0  0  0  0  0  0  0
  -23.7783  -24.1190   27.0092 C   0  0  0  0  0  0  0  0  0  0  0  0
  -22.3924  -24.5977   27.3967 C   0  0  0  0  0  0  0  0  0  0  0  0
  -19.2164  -22.7398   27.3994 C   0  0  0  0  0  0  0  0  0  0  0  0
  -20.1525  -23.9160   27.5996 C   0  0  0  0  0  0  0  0  0  0  0  0
  -30.8672  -16.9110   20.8266 C   0  0  1  0  0  0  0  0  0  0  0  0
  -33.2283  -19.0842   18.8088 C   0  0  2  0  0  0  0  0  0  0  0  0
  -31.3952  -15.6722   21.6038 C   0  0  0  0  0  0  0  0  0  0  0  0
  -22.3858  -27.6320   20.8450 N   0  0  0  0  0  0  0  0  0  0  0  0
  -21.1753  -28.0867   20.4787 N   0  0  0  0  0  0  0  0  0  0  0  0
  -28.4726  -17.3695   20.4029 N   0  0  0  0  0  0  0  0  0  0  0  0
  -18.9245  -26.0712   22.8198 N   0  0  0  0  0  0  0  0  0  0  0  0
  -20.0581  -29.3641   18.8263 N   0  0  0  0  0  0  0  0  0  0  0  0
  -24.3701  -29.4722   17.4880 N   0  0  0  0  0  0  0  0  0  0  0  0
  -25.2749  -15.6174   20.4426 N   0  0  0  0  0  0  0  0  0  0  0  0
  -31.8124  -17.4564   19.8584 N   0  0  0  0  0  0  0  0  0  0  0  0
  -18.3753  -24.0902   21.6503 N   0  0  0  0  0  0  0  0  0  0  0  0
  -32.6662  -20.1317   17.9100 N   0  3  0  0  0  0  0  0  0  0  0  0
  -22.2490  -30.1912   16.9953 O   0  0  0  0  0  0  0  0  0  0  0  0
  -27.0434  -15.9003   21.9308 O   0  0  0  0  0  0  0  0  0  0  0  0
  -29.6163  -15.7447   19.1830 O   0  0  0  0  0  0  0  0  0  0  0  0
  -31.9059  -19.5877   20.7671 O   0  0  0  0  0  0  0  0  0  0  0  0
  -17.0867  -24.7877   23.4138 O   0  0  0  0  0  0  0  0  0  0  0  0
  -28.6749  -27.0321   20.0473 O   0  0  0  0  0  0  0  0  0  0  0  0
  -26.2263  -22.2827   23.3807 O   0  0  0  0  0  0  0  0  0  1  0  0
  -18.0102  -21.9823   23.5454 O   0  0  0  0  0  0  0  0  0  0  0  0
  -23.7522  -23.6642   25.6634 O   0  0  0  0  0  0  0  0  0  0  0  0
  -19.2409  -22.3548   26.0303 O   0  0  0  0  0  0  0  0  0  0  0  0
  -21.4721  -23.5232   27.2489 O   0  0  0  0  0  0  0  0  0  0  0  0
  -30.2392  -21.8630   21.1597 F   0  0  0  0  0  0  0  0  0  0  0  0
  -30.1848  -25.5867   18.2380 F   0  0  0  0  0  0  0  0  0  0  0  0
  1  2  1  0  0  0  0
  1  5  2  0  0  0  0
  2  6  2  0  0  0  0
  3  8  2  0  0  0  0
  3 15  1  0  0  0  0
  4  9  1  0  0  0  0
  4 15  2  0  0  0  0
  5 17  1  0  0  0  0
  6 19  1  0  0  0  0
  7 10  2  0  0  0  0
  7 18  1  0  0  0  0
  8 21  1  0  0  0  0
  9 21  2  0  0  0  0
 10 22  1  0  0  0  0
 11 12  2  0  0  0  0
 11 23  1  0  0  0  0
 12 24  1  0  0  0  0
 13 20  1  0  0  0  0
 13 22  2  0  0  0  0
 14 24  2  0  0  0  0
 14 25  1  0  0  0  0
 15 26  1  0  0  0  0
 16 26  1  0  0  0  0
 16 27  2  0  0  0  0
 16 28  1  0  0  0  0
 17 19  2  0  0  0  0
 17 33  1  0  0  0  0
 18 20  2  0  0  0  0
 18 34  1  0  0  0  0
 19 42  1  0  0  0  0
 20 35  1  0  0  0  0
 21 78  1  0  0  0  0
 22 79  1  0  0  0  0
 23 25  2  0  0  0  0
 23 78  1  0  0  0  0
 24 84  1  0  0  0  0
 25 85  1  0  0  0  0
 26 63  2  0  0  0  0
 27 64  1  0  0  0  0
 27 67  1  0  0  0  0
 28 68  1  0  0  0  0
 28 73  2  0  0  0  0
 29 43  1  0  0  0  0
 29 69  1  0  0  0  0
 29 74  2  0  0  0  0
 30 60  1  0  0  0  0
 30 65  1  0  0  0  0
 30 75  2  0  0  0  0
 31 61  1  0  0  0  0
 31 70  1  0  0  0  0
 31 76  2  0  0  0  0
 32 66  1  0  0  0  0
 32 71  1  0  0  0  0
 32 77  2  0  0  0  0
 33 36  1  0  0  0  0
 34 43  1  0  0  0  0
 35 65  1  0  0  0  0
 36 38  1  0  0  0  0
 37 39  1  0  0  0  0
 37 40  1  0  0  0  0
 38 42  1  0  0  0  0
 39 44  1  0  0  0  0
 40 66  1  0  0  0  0
 41 44  1  0  0  0  0
 41 66  1  0  0  0  0
 42 69  1  0  0  0  0
 43 65  1  0  0  0  0
 44 64  1  0  0  0  0
 45 61  1  0  0  0  0
 46 62  1  0  0  0  0
 47 62  1  0  0  0  0
 48 62  1  0  0  0  0
 49 72  1  0  0  0  0
 50 51  1  0  0  0  0
 50 71  1  0  0  0  0
 51 80  1  0  0  0  0
 52 53  1  0  0  0  0
 52 79  1  0  0  0  0
 53 81  1  0  0  0  0
 54 55  1  0  0  0  0
 54 80  1  0  0  0  0
 55 82  1  0  0  0  0
 56 57  1  0  0  0  0
 56 81  1  0  0  0  0
 57 83  1  0  0  0  0
 58 59  1  0  0  0  0
 58 82  1  0  0  0  0
 59 83  1  0  0  0  0
 60 62  1  0  0  0  0
 60 70  1  0  0  0  0
 61 72  1  0  0  0  0
 63 64  1  0  0  0  0
M  CHG  1  72   1
M  ISO  4  32 100  52 101  71 100  79 101
M  END
> <Batch ID>
0000

> <Smiles>
CNC(C)C(=O)NC(C(=O)N1Cc2cc([101O:1][101CH2:1]COCCOCCOCCOCC[100NH:0][100C:0](=O)N3CCCC(n4nc(-c5ccc(Oc6ccc(F)cc6F)cc5)c(C(N)=O)c4N)C3)ccc2CC1C(=O)NC1CCCc2ccccc21)C(C)(C)C

> <Shape>
0.200

> <Color>
0.061

> <Negative vol penalty>
0.000

$$$$

  -OEChem-04052315133D

 91 98  0     1  0  0  0  0  0999 V2000
  -19.8883   -9.0542   19.3881 C   0  0  0  0  0  0  0  0  0  0  0  0
  -19.8106  -10.3710   19.8303 C   0  0  0  0  0  0  0  0  0  0  0  0
  -20.1415  -27.4999   23.5079 C   0  0  0  0  0  0  0  0  0  0  0  0
  -21.7162  -25.6681   23.5508 C   0  0  0  0  0  0  0  0  0  0  0  0
  -21.0102   -8.2836   19.6903 C   0  0  0  0  0  0  0  0  0  0  0  0
  -20.8545  -10.9176   20.5760 C   0  0  0  0  0  0  0  0  0  0  0  0
  -22.8318  -16.7123   20.4449 C   0  0  0  0  0  0  0  0  0  0  0  0
  -19.1397  -26.6287   23.0802 C   0  0  0  0  0  0  0  0  0  0  0  0
  -20.7144  -24.7969   23.1231 C   0  0  0  0  0  0  0  0  0  0  0  0
  -22.5850  -17.8065   21.2728 C   0  0  0  0  0  0  0  0  0  0  0  0
  -18.6619  -22.1579   21.6972 C   0  0  0  0  0  0  0  0  0  0  0  0
  -18.9787  -21.2529   20.6842 C   0  0  0  0  0  0  0  0  0  0  0  0
  -24.6124  -17.3338   22.4917 C   0  0  0  0  0  0  0  0  0  0  0  0
  -19.4976  -23.0909   19.2044 C   0  0  0  0  0  0  0  0  0  0  0  0
  -21.4298  -27.0196   23.7431 C   0  0  0  0  0  0  0  0  0  0  0  0
  -22.8030  -28.2405   25.5127 C   0  0  0  0  0  0  0  0  0  0  0  0
  -22.0726   -8.8241   20.4319 C   0  0  0  0  0  0  0  0  0  0  0  0
  -23.9669  -15.9127   20.6413 C   0  0  0  0  0  0  0  0  0  0  0  0
  -21.9911  -10.1531   20.8896 C   0  0  0  0  0  0  0  0  0  0  0  0
  -24.8726  -16.2315   21.6632 C   0  0  0  0  0  0  0  0  0  0  0  0
  -19.4261  -25.2772   22.8878 C   0  0  0  0  0  0  0  0  0  0  0  0
  -23.4739  -18.1157   22.2982 C   0  0  0  0  0  0  0  0  0  0  0  0
  -18.7629  -23.5295   21.4638 C   0  0  0  0  0  0  0  0  0  0  0  0
  -19.3966  -21.7194   19.4378 C   0  0  0  0  0  0  0  0  0  0  0  0
  -19.1807  -23.9959   20.2174 C   0  0  0  0  0  0  0  0  0  0  0  0
  -22.4653  -27.9192   24.1844 C   0  0  0  0  0  0  0  0  0  0  0  0
  -23.8427  -29.1305   25.3970 C   0  0  0  0  0  0  0  0  0  0  0  0
  -22.2284  -27.7759   26.7414 C   0  0  0  0  0  0  0  0  0  0  0  0
  -24.4605  -12.8590   21.3724 C   0  0  0  0  0  0  0  0  0  0  0  0
  -27.5653  -13.6398   20.8501 C   0  0  0  0  0  0  0  0  0  0  0  0
  -29.9626  -16.0660   20.7348 C   0  0  0  0  0  0  0  0  0  0  0  0
  -27.9244  -30.0991   21.1247 C   0  0  0  0  0  0  0  0  0  0  0  0
  -23.2438   -7.9376   20.7742 C   0  0  0  0  0  0  0  0  0  0  0  0
  -24.2327  -14.7517   19.7227 C   0  0  0  0  0  0  0  0  0  0  0  0
  -26.1165  -15.4168   21.9030 C   0  0  0  0  0  0  0  0  0  0  0  0
  -24.4727   -8.7085   21.2497 C   0  0  0  0  0  0  0  0  0  0  0  0
  -25.6119  -32.4592   22.4507 C   0  0  0  0  0  0  0  0  0  0  0  0
  -24.0771   -9.7593   22.2821 C   0  0  0  0  0  0  0  0  0  0  0  0
  -24.5737  -31.5923   23.1653 C   0  0  0  0  0  0  0  0  0  0  0  0
  -26.1190  -31.7945   21.1729 C   0  0  0  0  0  0  0  0  0  0  0  0
  -25.5965  -29.5572   22.0648 C   0  0  0  0  0  0  0  0  0  0  0  0
  -23.1139  -10.7894   21.6798 C   0  0  1  0  0  0  0  0  0  0  0  0
  -25.1520  -13.7012   20.3380 C   0  0  1  0  0  0  0  0  0  0  0  0
  -25.0967  -30.1606   23.3886 C   0  0  2  0  0  0  0  0  0  0  0  0
  -32.4153  -16.3935   20.3170 C   0  0  0  0  0  0  0  0  0  0  0  0
  -28.1849  -12.5080   23.6150 C   0  0  0  0  0  0  0  0  0  0  0  0
  -30.3862  -13.6977   23.5322 C   0  0  0  0  0  0  0  0  0  0  0  0
  -29.8615  -11.9304   21.8516 C   0  0  0  0  0  0  0  0  0  0  0  0
  -29.4501  -17.8424   18.4238 C   0  0  0  0  0  0  0  0  0  0  0  0
  -29.6334  -28.2997   21.1576 C   0  0  0  0  0  0  0  0  0  0  0  0
  -29.7324  -27.6831   19.7738 C   0  0  0  0  0  0  0  0  0  0  0  0
  -21.8707  -19.5350   23.3332 C   0  0  0  0  0  0  0  0  0  1  0  0
  -21.7415  -20.1635   24.7072 C   0  0  0  0  0  0  0  0  0  0  0  0
  -28.8826  -25.9807   18.3944 C   0  0  0  0  0  0  0  0  0  0  0  0
  -27.9146  -24.8138   18.3601 C   0  0  0  0  0  0  0  0  0  0  0  0
  -22.4534  -21.9744   26.0251 C   0  0  0  0  0  0  0  0  0  0  0  0
  -23.3374  -23.2066   26.0231 C   0  0  0  0  0  0  0  0  0  0  0  0
  -27.4200  -22.7454   19.3599 C   0  0  0  0  0  0  0  0  0  0  0  0
  -27.8908  -21.7610   20.4131 C   0  0  0  0  0  0  0  0  0  0  0  0
  -25.5592  -23.9303   25.7729 C   0  0  0  0  0  0  0  0  0  0  0  0
  -26.9772  -23.4457   25.5398 C   0  0  0  0  0  0  0  0  0  0  0  0
  -28.3332  -21.5254   22.7091 C   0  0  0  0  0  0  0  0  0  0  0  0
  -28.3427  -22.2739   24.0281 C   0  0  0  0  0  0  0  0  0  0  0  0
  -28.6931  -14.1675   21.7036 C   0  0  1  0  0  0  0  0  0  0  0  0
  -31.0259  -16.3829   19.6987 C   0  0  2  0  0  0  0  0  0  0  0  0
  -29.2571  -13.0903   22.6726 C   0  0  0  0  0  0  0  0  0  0  0  0
  -23.2284  -28.5537   23.2904 N   0  0  0  0  0  0  0  0  0  0  0  0
  -24.0560  -29.2825   24.0585 N   0  0  0  0  0  0  0  0  0  0  0  0
  -26.3289  -14.2878   20.9823 N   0  0  0  0  0  0  0  0  0  0  0  0
  -26.6023  -30.4404   21.4538 N   0  0  0  0  0  0  0  0  0  0  0  0
  -24.5861  -29.7900   26.3106 N   0  0  0  0  0  0  0  0  0  0  0  0
  -21.1669  -26.8628   26.6793 N   0  0  0  0  0  0  0  0  0  0  0  0
  -23.8365  -11.7378   20.8595 N   0  0  0  0  0  0  0  0  0  0  0  0
  -29.6806  -14.7170   20.7810 N   0  0  0  0  0  0  0  0  0  0  0  0
  -28.3036  -28.7977   21.4303 N   0  0  0  0  0  0  0  0  0  0  0  0
  -30.7728  -17.7189   19.0887 N   0  3  0  0  0  0  0  0  0  0  0  0
  -22.6331  -28.1716   27.8608 O   0  0  0  0  0  0  0  0  0  0  0  0
  -24.4920  -13.2002   22.5490 O   0  0  0  0  0  0  0  0  0  0  0  0
  -27.7753  -12.6923   20.0887 O   0  0  0  0  0  0  0  0  0  0  0  0
  -29.4376  -16.9282   21.4358 O   0  0  0  0  0  0  0  0  0  0  0  0
  -28.7106  -30.8967   20.6025 O   0  0  0  0  0  0  0  0  0  0  0  0
  -18.4487  -24.4267   22.4707 O   0  0  0  0  0  0  0  0  0  0  0  0
  -23.2351  -19.1829   23.1082 O   0  0  0  0  0  0  0  0  0  1  0  0
  -28.8263  -26.5930   19.6771 O   0  0  0  0  0  0  0  0  0  0  0  0
  -22.5368  -21.3419   24.7557 O   0  0  0  0  0  0  0  0  0  0  0  0
  -28.2964  -23.8656   19.3469 O   0  0  0  0  0  0  0  0  0  0  0  0
  -24.6832  -22.8119   25.7855 O   0  0  0  0  0  0  0  0  0  0  0  0
  -27.8982  -22.4051   21.6794 O   0  0  0  0  0  0  0  0  0  0  0  0
  -27.0326  -22.7521   24.2991 O   0  0  0  0  0  0  0  0  0  0  0  0
  -19.7023  -20.8501   18.4656 F   0  0  0  0  0  0  0  0  0  0  0  0
  -19.2808  -25.3124   19.9876 F   0  0  0  0  0  0  0  0  0  0  0  0
  1  2  1  0  0  0  0
  1  5  2  0  0  0  0
  2  6  2  0  0  0  0
  3  8  2  0  0  0  0
  3 15  1  0  0  0  0
  4  9  1  0  0  0  0
  4 15  2  0  0  0  0
  5 17  1  0  0  0  0
  6 19  1  0  0  0  0
  7 10  2  0  0  0  0
  7 18  1  0  0  0  0
  8 21  1  0  0  0  0
  9 21  2  0  0  0  0
 10 22  1  0  0  0  0
 11 12  2  0  0  0  0
 11 23  1  0  0  0  0
 12 24  1  0  0  0  0
 13 20  1  0  0  0  0
 13 22  2  0  0  0  0
 14 24  2  0  0  0  0
 14 25  1  0  0  0  0
 15 26  1  0  0  0  0
 16 26  1  0  0  0  0
 16 27  2  0  0  0  0
 16 28  1  0  0  0  0
 17 19  2  0  0  0  0
 17 33  1  0  0  0  0
 18 20  2  0  0  0  0
 18 34  1  0  0  0  0
 19 42  1  0  0  0  0
 20 35  1  0  0  0  0
 21 82  1  0  0  0  0
 22 83  1  0  0  0  0
 23 25  2  0  0  0  0
 23 82  1  0  0  0  0
 24 90  1  0  0  0  0
 25 91  1  0  0  0  0
 26 67  2  0  0  0  0
 27 68  1  0  0  0  0
 27 71  1  0  0  0  0
 28 72  1  0  0  0  0
 28 77  2  0  0  0  0
 29 43  1  0  0  0  0
 29 73  1  0  0  0  0
 29 78  2  0  0  0  0
 30 64  1  0  0  0  0
 30 69  1  0  0  0  0
 30 79  2  0  0  0  0
 31 65  1  0  0  0  0
 31 74  1  0  0  0  0
 31 80  2  0  0  0  0
 32 70  1  0  0  0  0
 32 75  1  0  0  0  0
 32 81  2  0  0  0  0
 33 36  1  0  0  0  0
 34 43  1  0  0  0  0
 35 69  1  0  0  0  0
 36 38  1  0  0  0  0
 37 39  1  0  0  0  0
 37 40  1  0  0  0  0
 38 42  1  0  0  0  0
 39 44  1  0  0  0  0
 40 70  1  0  0  0  0
 41 44  1  0  0  0  0
 41 70  1  0  0  0  0
 42 73  1  0  0  0  0
 43 69  1  0  0  0  0
 44 68  1  0  0  0  0
 45 65  1  0  0  0  0
 46 66  1  0  0  0  0
 47 66  1  0  0  0  0
 48 66  1  0  0  0  0
 49 76  1  0  0  0  0
 50 51  1  0  0  0  0
 50 75  1  0  0  0  0
 51 84  1  0  0  0  0
 52 53  1  0  0  0  0
 52 83  1  0  0  0  0
 53 85  1  0  0  0  0
 54 55  1  0  0  0  0
 54 84  1  0  0  0  0
 55 86  1  0  0  0  0
 56 57  1  0  0  0  0
 56 85  1  0  0  0  0
 57 87  1  0  0  0  0
 58 59  1  0  0  0  0
 58 86  1  0  0  0  0
 59 88  1  0  0  0  0
 60 61  1  0  0  0  0
 60 87  1  0  0  0  0
 61 89  1  0  0  0  0
 62 63  1  0  0  0  0
 62 88  1  0  0  0  0
 63 89  1  0  0  0  0
 64 66  1  0  0  0  0
 64 74  1  0  0  0  0
 65 76  1  0  0  0  0
 67 68  1  0  0  0  0
M  CHG  1  76   1
M  ISO  4  32 100  52 101  75 100  83 101
M  END
> <Batch ID>
0000

> <Smiles>
CNC(C)C(=O)NC(C(=O)N1Cc2cc([101O:1][101CH2:1]COCCOCCOCCOCCOCCOCC[100NH:0][100C:0](=O)N3CCCC(n4nc(-c5ccc(Oc6ccc(F)cc6F)cc5)c(C(N)=O)c4N)C3)ccc2CC1C(=O)NC1CCCc2ccccc21)C(C)(C)C

> <Shape>
0.235

> <Color>
0.053

> <Negative vol penalty>
0.000

$$$$

  -OEChem-04052315133D

 83 90  0     1  0  0  0  0  0999 V2000
  -25.8068  -11.3609   20.5526 C   0  0  0  0  0  0  0  0  0  0  0  0
  -26.3297  -12.5622   20.0847 C   0  0  0  0  0  0  0  0  0  0  0  0
  -19.6724  -27.1946   20.8954 C   0  0  0  0  0  0  0  0  0  0  0  0
  -20.6560  -26.4004   22.9542 C   0  0  0  0  0  0  0  0  0  0  0  0
  -24.5954  -11.3511   21.2428 C   0  0  0  0  0  0  0  0  0  0  0  0
  -25.6408  -13.7543   20.3057 C   0  0  0  0  0  0  0  0  0  0  0  0
  -28.6802  -17.4949   21.8596 C   0  0  0  0  0  0  0  0  0  0  0  0
  -18.3992  -26.9427   21.4064 C   0  0  0  0  0  0  0  0  0  0  0  0
  -19.3828  -26.1485   23.4653 C   0  0  0  0  0  0  0  0  0  0  0  0
  -29.4545  -18.1306   20.8899 C   0  0  0  0  0  0  0  0  0  0  0  0
  -16.4054  -24.9591   25.1772 C   0  0  0  0  0  0  0  0  0  0  0  0
  -16.1989  -23.7463   25.8344 C   0  0  0  0  0  0  0  0  0  0  0  0
  -27.8680  -19.9466   20.8222 C   0  0  0  0  0  0  0  0  0  0  0  0
  -16.7953  -22.5531   23.8199 C   0  0  0  0  0  0  0  0  0  0  0  0
  -20.8008  -26.9234   21.6692 C   0  0  0  0  0  0  0  0  0  0  0  0
  -22.8551  -28.3763   21.2493 C   0  0  0  0  0  0  0  0  0  0  0  0
  -23.8962  -12.5448   21.4809 C   0  0  0  0  0  0  0  0  0  0  0  0
  -27.4864  -18.0761   22.3107 C   0  0  0  0  0  0  0  0  0  0  0  0
  -24.4183  -13.7602   20.9986 C   0  0  0  0  0  0  0  0  0  0  0  0
  -27.0817  -19.3175   21.7995 C   0  0  0  0  0  0  0  0  0  0  0  0
  -18.2544  -26.4197   22.6914 C   0  0  0  0  0  0  0  0  0  0  0  0
  -29.0470  -19.3552   20.3690 C   0  0  0  0  0  0  0  0  0  0  0  0
  -16.8068  -24.9690   23.8413 C   0  0  0  0  0  0  0  0  0  0  0  0
  -16.3939  -22.5433   25.1558 C   0  0  0  0  0  0  0  0  0  0  0  0
  -17.0018  -23.7660   23.1627 C   0  0  0  0  0  0  0  0  0  0  0  0
  -22.1162  -27.1829   21.1417 C   0  0  0  0  0  0  0  0  0  0  0  0
  -24.0298  -28.1137   20.5878 C   0  0  0  0  0  0  0  0  0  0  0  0
  -22.5105  -29.6118   21.8900 C   0  0  0  0  0  0  0  0  0  0  0  0
  -24.4219  -17.2337   22.2588 C   0  0  0  0  0  0  0  0  0  0  0  0
  -24.0613  -19.8986   24.0728 C   0  0  0  0  0  0  0  0  0  0  0  0
  -25.2651  -22.9525   25.0065 C   0  0  0  0  0  0  0  0  0  0  0  0
  -27.7773  -23.7962   19.6767 C   0  0  0  0  0  0  0  0  0  0  0  0
  -22.5670  -12.4784   22.1905 C   0  0  0  0  0  0  0  0  0  0  0  0
  -26.6763  -17.3905   23.3765 C   0  0  0  0  0  0  0  0  0  0  0  0
  -25.8187  -19.9932   22.2650 C   0  0  0  0  0  0  0  0  0  0  0  0
  -22.0855  -13.8308   22.7097 C   0  0  0  0  0  0  0  0  0  0  0  0
  -25.4509  -24.8216   17.1841 C   0  0  0  0  0  0  0  0  0  0  0  0
  -22.2415  -14.9016   21.6346 C   0  0  0  0  0  0  0  0  0  0  0  0
  -24.4225  -25.6460   17.9605 C   0  0  0  0  0  0  0  0  0  0  0  0
  -25.9584  -23.6365   18.0026 C   0  0  0  0  0  0  0  0  0  0  0  0
  -25.4575  -24.8091   20.1116 C   0  0  0  0  0  0  0  0  0  0  0  0
  -23.7129  -15.0771   21.2402 C   0  0  1  0  0  0  0  0  0  0  0  0
  -25.2144  -17.8268   23.3892 C   0  0  1  0  0  0  0  0  0  0  0  0
  -24.9580  -26.0476   19.3481 C   0  0  2  0  0  0  0  0  0  0  0  0
  -24.7320  -24.9141   26.4779 C   0  0  0  0  0  0  0  0  0  0  0  0
  -21.9533  -20.8245   22.0705 C   0  0  0  0  0  0  0  0  0  0  0  0
  -22.1546  -23.1283   23.0298 C   0  0  0  0  0  0  0  0  0  0  0  0
  -21.3723  -21.2450   24.4664 C   0  0  0  0  0  0  0  0  0  0  0  0
  -27.7422  -22.5896   26.5848 C   0  0  0  0  0  0  0  0  0  0  0  0
  -30.2259  -25.3571   21.7346 C   0  0  0  0  0  0  0  0  0  0  0  0
  -29.5008  -24.0499   21.4443 C   0  0  0  0  0  0  0  0  0  0  0  0
  -30.4107  -26.2210   20.4929 C   0  0  0  0  0  0  0  0  0  0  0  0
  -30.5611  -19.1453   18.5470 C   0  0  0  0  0  0  0  0  0  1  0  0
  -30.7117  -19.8414   17.2083 C   0  0  0  0  0  0  0  0  0  0  0  0
  -31.0240  -26.0216   18.2331 C   0  0  0  0  0  0  0  0  0  0  0  0
  -31.8941  -25.2309   17.2751 C   0  0  0  0  0  0  0  0  0  0  0  0
  -31.5757  -21.7654   16.1717 C   0  0  0  0  0  0  0  0  0  0  0  0
  -32.2982  -23.0714   16.4408 C   0  0  0  0  0  0  0  0  0  0  0  0
  -23.8053  -21.3589   23.7883 C   0  0  1  0  0  0  0  0  0  0  0  0
  -25.4604  -23.5832   26.3734 C   0  0  2  0  0  0  0  0  0  0  0  0
  -22.3442  -21.6258   23.3283 C   0  0  0  0  0  0  0  0  0  0  0  0
  -22.7669  -26.2328   20.4649 N   0  0  0  0  0  0  0  0  0  0  0  0
  -23.9270  -26.8291   20.1412 N   0  0  0  0  0  0  0  0  0  0  0  0
  -25.0576  -19.2802   23.3041 N   0  0  0  0  0  0  0  0  0  0  0  0
  -26.4537  -24.0855   19.3061 N   0  0  0  0  0  0  0  0  0  0  0  0
  -25.1303  -28.8586   20.3502 N   0  0  0  0  0  0  0  0  0  0  0  0
  -21.2640  -29.7112   22.5230 N   0  0  0  0  0  0  0  0  0  0  0  0
  -24.4154  -15.8520   22.2405 N   0  0  0  0  0  0  0  0  0  0  0  0
  -24.1943  -22.0838   24.9931 N   0  0  0  0  0  0  0  0  0  0  0  0
  -28.1681  -24.2634   20.9256 N   0  0  0  0  0  0  0  0  0  0  0  0
  -26.9089  -23.8185   26.6331 N   0  3  0  0  0  0  0  0  0  0  0  0
  -23.2782  -30.6038   21.8868 O   0  0  0  0  0  0  0  0  0  0  0  0
  -23.8568  -17.9747   21.4631 O   0  0  0  0  0  0  0  0  0  0  0  0
  -23.4066  -19.3295   24.9497 O   0  0  0  0  0  0  0  0  0  0  0  0
  -25.9877  -23.2078   24.0457 O   0  0  0  0  0  0  0  0  0  0  0  0
  -28.5549  -23.1726   18.9464 O   0  0  0  0  0  0  0  0  0  0  0  0
  -17.0122  -26.1739   23.1905 O   0  0  0  0  0  0  0  0  0  0  0  0
  -29.8005  -19.9774   19.4220 O   0  0  0  0  0  0  0  0  0  1  0  0
  -31.1887  -25.5014   19.5468 O   0  0  0  0  0  0  0  0  0  0  0  0
  -31.4057  -21.0684   17.3980 O   0  0  0  0  0  0  0  0  0  0  0  0
  -31.5122  -23.8633   17.3232 O   0  0  0  0  0  0  0  0  0  0  0  0
  -16.1970  -21.3786   25.7875 F   0  0  0  0  0  0  0  0  0  0  0  0
  -17.3885  -23.7692   21.8797 F   0  0  0  0  0  0  0  0  0  0  0  0
  1  2  1  0  0  0  0
  1  5  2  0  0  0  0
  2  6  2  0  0  0  0
  3  8  2  0  0  0  0
  3 15  1  0  0  0  0
  4  9  1  0  0  0  0
  4 15  2  0  0  0  0
  5 17  1  0  0  0  0
  6 19  1  0  0  0  0
  7 10  2  0  0  0  0
  7 18  1  0  0  0  0
  8 21  1  0  0  0  0
  9 21  2  0  0  0  0
 10 22  1  0  0  0  0
 11 12  2  0  0  0  0
 11 23  1  0  0  0  0
 12 24  1  0  0  0  0
 13 20  1  0  0  0  0
 13 22  2  0  0  0  0
 14 24  2  0  0  0  0
 14 25  1  0  0  0  0
 15 26  1  0  0  0  0
 16 26  1  0  0  0  0
 16 27  2  0  0  0  0
 16 28  1  0  0  0  0
 17 19  2  0  0  0  0
 17 33  1  0  0  0  0
 18 20  2  0  0  0  0
 18 34  1  0  0  0  0
 19 42  1  0  0  0  0
 20 35  1  0  0  0  0
 21 77  1  0  0  0  0
 22 78  1  0  0  0  0
 23 25  2  0  0  0  0
 23 77  1  0  0  0  0
 24 82  1  0  0  0  0
 25 83  1  0  0  0  0
 26 62  2  0  0  0  0
 27 63  1  0  0  0  0
 27 66  1  0  0  0  0
 28 67  1  0  0  0  0
 28 72  2  0  0  0  0
 29 43  1  0  0  0  0
 29 68  1  0  0  0  0
 29 73  2  0  0  0  0
 30 59  1  0  0  0  0
 30 64  1  0  0  0  0
 30 74  2  0  0  0  0
 31 60  1  0  0  0  0
 31 69  1  0  0  0  0
 31 75  2  0  0  0  0
 32 65  1  0  0  0  0
 32 70  1  0  0  0  0
 32 76  2  0  0  0  0
 33 36  1  0  0  0  0
 34 43  1  0  0  0  0
 35 64  1  0  0  0  0
 36 38  1  0  0  0  0
 37 39  1  0  0  0  0
 37 40  1  0  0  0  0
 38 42  1  0  0  0  0
 39 44  1  0  0  0  0
 40 65  1  0  0  0  0
 41 44  1  0  0  0  0
 41 65  1  0  0  0  0
 42 68  1  0  0  0  0
 43 64  1  0  0  0  0
 44 63  1  0  0  0  0
 45 60  1  0  0  0  0
 46 61  1  0  0  0  0
 47 61  1  0  0  0  0
 48 61  1  0  0  0  0
 49 71  1  0  0  0  0
 50 51  1  0  0  0  0
 50 52  1  0  0  0  0
 51 70  1  0  0  0  0
 52 79  1  0  0  0  0
 53 54  1  0  0  0  0
 53 78  1  0  0  0  0
 54 80  1  0  0  0  0
 55 56  1  0  0  0  0
 55 79  1  0  0  0  0
 56 81  1  0  0  0  0
 57 58  1  0  0  0  0
 57 80  1  0  0  0  0
 58 81  1  0  0  0  0
 59 61  1  0  0  0  0
 59 69  1  0  0  0  0
 60 71  1  0  0  0  0
 62 63  1  0  0  0  0
M  CHG  1  71   1
M  ISO  4  32 100  53 101  70 100  78 101
M  END
> <Batch ID>
0000

> <Smiles>
CNC(C)C(=O)NC(C(=O)N1Cc2cc([101O:1][101CH2:1]COCCOCCOCCC[100NH:0][100C:0](=O)N3CCCC(n4nc(-c5ccc(Oc6ccc(F)cc6F)cc5)c(C(N)=O)c4N)C3)ccc2CC1C(=O)NC1CCCc2ccccc21)C(C)(C)C

> <Shape>
0.194

> <Color>
0.082

> <Negative vol penalty>
0.000

$$$$

  -OEChem-04052315132D

  0  0  0     0  0  0  0  0  0999 V2000
M  END
$$$$

  -OEChem-04052315133D

 91 99  0     1  0  0  0  0  0999 V2000
  -26.1660   -8.0746   41.7870 C   0  0  0  0  0  0  0  0  0  0  0  0
  -25.2793   -8.4862   40.7971 C   0  0  0  0  0  0  0  0  0  0  0  0
  -30.2379  -11.2105   27.2181 C   0  0  0  0  0  0  0  0  0  0  0  0
  -23.1893   -9.8184   19.9312 C   0  0  0  0  0  0  0  0  0  0  0  0
  -23.5628   -9.9996   22.3113 C   0  0  0  0  0  0  0  0  0  0  0  0
  -27.5387   -8.2333   41.6015 C   0  0  0  0  0  0  0  0  0  0  0  0
  -25.7649   -9.0578   39.6216 C   0  0  0  0  0  0  0  0  0  0  0  0
  -23.4064   -8.4799   33.9993 C   0  0  0  0  0  0  0  0  0  0  0  0
  -29.4580  -12.2658   27.6911 C   0  0  0  0  0  0  0  0  0  0  0  0
  -30.8979  -11.3248   25.9945 C   0  0  0  0  0  0  0  0  0  0  0  0
  -22.4215   -8.6726   20.1389 C   0  0  0  0  0  0  0  0  0  0  0  0
  -22.7949   -8.8538   22.5190 C   0  0  0  0  0  0  0  0  0  0  0  0
  -22.5751   -9.3037   33.2416 C   0  0  0  0  0  0  0  0  0  0  0  0
  -23.1932   -5.5066   22.2573 C   0  0  0  0  0  0  0  0  0  0  0  0
  -23.6887   -4.5452   23.1381 C   0  0  0  0  0  0  0  0  0  0  0  0
  -24.5095  -10.2301   32.1376 C   0  0  0  0  0  0  0  0  0  0  0  0
  -29.9978  -13.5496   25.7168 C   0  0  0  0  0  0  0  0  0  0  0  0
  -21.7295   -4.8078   24.5272 C   0  0  0  0  0  0  0  0  0  0  0  0
  -23.7601  -10.4819   21.0174 C   0  0  0  0  0  0  0  0  0  0  0  0
  -24.1018  -12.9980   20.7731 C   0  0  0  0  0  0  0  0  0  0  0  0
  -28.0418   -8.7983   40.4190 C   0  0  0  0  0  0  0  0  0  0  0  0
  -24.7985   -8.5329   33.8393 C   0  0  0  0  0  0  0  0  0  0  0  0
  -27.1455   -9.2255   39.4207 C   0  0  0  0  0  0  0  0  0  0  0  0
  -25.3561   -9.4041   32.8927 C   0  0  0  0  0  0  0  0  0  0  0  0
  -29.3379  -13.4353   26.9404 C   0  0  0  0  0  0  0  0  0  0  0  0
  -30.7778  -12.4943   25.2439 C   0  0  0  0  0  0  0  0  0  0  0  0
  -22.2242   -8.1903   21.4327 C   0  0  0  0  0  0  0  0  0  0  0  0
  -23.1268  -10.1810   32.3127 C   0  0  0  0  0  0  0  0  0  0  0  0
  -21.9658   -6.1187   22.5115 C   0  0  0  0  0  0  0  0  0  0  0  0
  -22.9569   -4.1957   24.2730 C   0  0  0  0  0  0  0  0  0  0  0  0
  -21.2340   -5.7693   23.6464 C   0  0  0  0  0  0  0  0  0  0  0  0
  -24.5539  -11.6652   20.8035 C   0  0  0  0  0  0  0  0  0  0  0  0
  -25.2343  -13.7394   20.5399 C   0  0  0  0  0  0  0  0  0  0  0  0
  -22.7768  -13.5194   20.9409 C   0  0  0  0  0  0  0  0  0  0  0  0
  -27.2469   -9.2707   35.7273 C   0  0  0  0  0  0  0  0  0  0  0  0
  -29.0016   -8.2842   33.1837 C   0  0  0  0  0  0  0  0  0  0  0  0
  -29.1798   -7.7561   29.8168 C   0  0  0  0  0  0  0  0  0  0  0  0
  -31.0379  -12.5665   21.5990 C   0  0  0  0  0  0  0  0  0  0  0  0
  -29.5313   -8.9929   40.2839 C   0  0  0  0  0  0  0  0  0  0  0  0
  -25.6799   -7.6186   34.6453 C   0  0  0  0  0  0  0  0  0  0  0  0
  -26.8433   -9.4848   32.6683 C   0  0  0  0  0  0  0  0  0  0  0  0
  -29.9826   -9.2642   38.8511 C   0  0  0  0  0  0  0  0  0  0  0  0
  -29.5255  -13.4878   18.4583 C   0  0  0  0  0  0  0  0  0  0  0  0
  -29.0873  -10.3130   38.1989 C   0  0  0  0  0  0  0  0  0  0  0  0
  -28.0416  -13.2066   18.6917 C   0  0  0  0  0  0  0  0  0  0  0  0
  -30.4073  -12.4885   19.2003 C   0  0  0  0  0  0  0  0  0  0  0  0
  -28.6425  -12.1337   20.9081 C   0  0  0  0  0  0  0  0  0  0  0  0
  -27.6349   -9.8272   38.1212 C   0  0  1  0  0  0  0  0  0  0  0  0
  -27.1142   -8.1241   34.7654 C   0  0  1  0  0  0  0  0  0  0  0  0
  -27.7222  -13.1398   20.1957 C   0  0  2  0  0  0  0  0  0  0  0  0
  -30.7563   -6.9798   28.0253 C   0  0  0  0  0  0  0  0  0  0  0  0
  -30.4596  -10.9615   33.3101 C   0  0  0  0  0  0  0  0  0  0  0  0
  -31.3101  -10.5285   30.9954 C   0  0  0  0  0  0  0  0  0  0  0  0
  -31.9329   -8.9917   32.8590 C   0  0  0  0  0  0  0  0  0  0  0  0
  -27.4174   -5.4942   29.0840 C   0  0  0  0  0  0  0  0  0  0  0  0
  -28.5000  -14.5705   27.4506 C   0  0  0  0  0  0  0  0  0  0  0  0
  -31.4830  -12.6161   23.9352 C   0  0  0  0  0  0  0  0  0  0  0  0
  -26.4960  -16.0047   27.0438 C   0  0  0  0  0  0  0  0  0  0  0  0
  -25.4186  -16.2923   26.0167 C   0  0  0  0  0  0  0  0  0  0  0  0
  -22.7755  -11.3462   30.2694 C   0  0  0  0  0  0  0  0  0  1  0  0
  -21.5772  -11.5649   29.3662 C   0  0  0  0  0  0  0  0  0  0  0  0
  -23.6019  -15.3532   24.8589 C   0  0  0  0  0  0  0  0  0  0  0  0
  -22.8101  -14.0733   24.6725 C   0  0  0  0  0  0  0  0  0  0  0  0
  -20.9490  -12.1145   27.1694 C   0  0  0  0  0  0  0  0  0  0  0  0
  -21.4965  -12.4877   25.8053 C   0  0  0  0  0  0  0  0  0  0  0  0
  -29.5720   -8.9509   31.9552 C   0  0  1  0  0  0  0  0  0  0  0  0
  -29.6709   -6.5690   29.0080 C   0  0  2  0  0  0  0  0  0  0  0  0
  -30.7907   -9.8583   32.2853 C   0  0  0  0  0  0  0  0  0  0  0  0
  -25.8707  -11.5627   20.6051 N   0  0  0  0  0  0  0  0  0  0  0  0
  -26.2559  -12.8406   20.4479 N   0  0  0  0  0  0  0  0  0  0  0  0
  -27.6636   -8.5751   33.4851 N   0  0  0  0  0  0  0  0  0  0  0  0
  -30.0527  -12.4206   20.6174 N   0  0  0  0  0  0  0  0  0  0  0  0
  -25.4458  -15.0660   20.4064 N   0  0  0  0  0  0  0  0  0  0  0  0
  -21.7287  -12.6183   21.1732 N   0  0  0  0  0  0  0  0  0  0  0  0
  -27.4746   -8.8849   37.0346 N   0  0  0  0  0  0  0  0  0  0  0  0
  -29.8633   -7.8804   31.0079 N   0  0  0  0  0  0  0  0  0  0  0  0
  -28.5458   -5.9646   28.2399 N   0  3  0  0  0  0  0  0  0  0  0  0
  -27.3793  -14.9239   26.5379 N   0  3  0  0  0  0  0  0  0  0  0  0
  -22.5270  -14.7466   20.8701 O   0  0  0  0  0  0  0  0  0  0  0  0
  -27.1513  -10.4204   35.3140 O   0  0  0  0  0  0  0  0  0  0  0  0
  -29.7147   -7.5274   33.8473 O   0  0  0  0  0  0  0  0  0  0  0  0
  -28.2825   -8.5009   29.4289 O   0  0  0  0  0  0  0  0  0  0  0  0
  -32.2297  -12.7553   21.3617 O   0  0  0  0  0  0  0  0  0  0  0  0
  -21.4748   -7.0724   21.6358 O   0  0  0  0  0  0  0  0  0  0  0  0
  -22.3177  -10.9867   31.5723 O   0  0  0  0  0  0  0  0  0  1  0  0
  -30.5355  -12.4768   22.8701 O   0  0  0  0  0  0  0  0  0  0  0  0
  -24.6284  -15.1285   25.8176 O   0  0  0  0  0  0  0  0  0  0  0  0
  -22.0338  -11.8978   28.0609 O   0  0  0  0  0  0  0  0  0  0  0  0
  -22.2528  -13.6869   25.9209 O   0  0  0  0  0  0  0  0  0  0  0  0
  -23.4322   -3.2714   25.1178 F   0  0  0  0  0  0  0  0  0  0  0  0
  -20.0537   -6.3530   23.8953 F   0  0  0  0  0  0  0  0  0  0  0  0
  1  2  1  0  0  0  0
  1  6  2  0  0  0  0
  2  7  2  0  0  0  0
  3  9  2  0  0  0  0
  3 10  1  0  0  0  0
  4 11  2  0  0  0  0
  4 19  1  0  0  0  0
  5 12  1  0  0  0  0
  5 19  2  0  0  0  0
  6 21  1  0  0  0  0
  7 23  1  0  0  0  0
  8 13  2  0  0  0  0
  8 22  1  0  0  0  0
  9 25  1  0  0  0  0
 10 26  2  0  0  0  0
 11 27  1  0  0  0  0
 12 27  2  0  0  0  0
 13 28  1  0  0  0  0
 14 15  2  0  0  0  0
 14 29  1  0  0  0  0
 15 30  1  0  0  0  0
 16 24  1  0  0  0  0
 16 28  2  0  0  0  0
 17 25  2  0  0  0  0
 17 26  1  0  0  0  0
 18 30  2  0  0  0  0
 18 31  1  0  0  0  0
 19 32  1  0  0  0  0
 20 32  1  0  0  0  0
 20 33  2  0  0  0  0
 20 34  1  0  0  0  0
 21 23  2  0  0  0  0
 21 39  1  0  0  0  0
 22 24  2  0  0  0  0
 22 40  1  0  0  0  0
 23 48  1  0  0  0  0
 24 41  1  0  0  0  0
 25 56  1  0  0  0  0
 26 57  1  0  0  0  0
 27 84  1  0  0  0  0
 28 85  1  0  0  0  0
 29 31  2  0  0  0  0
 29 84  1  0  0  0  0
 30 90  1  0  0  0  0
 31 91  1  0  0  0  0
 32 69  2  0  0  0  0
 33 70  1  0  0  0  0
 33 73  1  0  0  0  0
 34 74  1  0  0  0  0
 34 79  2  0  0  0  0
 35 49  1  0  0  0  0
 35 75  1  0  0  0  0
 35 80  2  0  0  0  0
 36 66  1  0  0  0  0
 36 71  1  0  0  0  0
 36 81  2  0  0  0  0
 37 67  1  0  0  0  0
 37 76  1  0  0  0  0
 37 82  2  0  0  0  0
 38 72  1  0  0  0  0
 38 83  2  0  0  0  0
 38 86  1  0  0  0  0
 39 42  1  0  0  0  0
 40 49  1  0  0  0  0
 41 71  1  0  0  0  0
 42 44  1  0  0  0  0
 43 45  1  0  0  0  0
 43 46  1  0  0  0  0
 44 48  1  0  0  0  0
 45 50  1  0  0  0  0
 46 72  1  0  0  0  0
 47 50  1  0  0  0  0
 47 72  1  0  0  0  0
 48 75  1  0  0  0  0
 49 71  1  0  0  0  0
 50 70  1  0  0  0  0
 51 67  1  0  0  0  0
 52 68  1  0  0  0  0
 53 68  1  0  0  0  0
 54 68  1  0  0  0  0
 55 77  1  0  0  0  0
 56 78  1  0  0  0  0
 57 86  1  0  0  0  0
 58 59  1  0  0  0  0
 58 78  1  0  0  0  0
 59 87  1  0  0  0  0
 60 61  1  0  0  0  0
 60 85  1  0  0  0  0
 61 88  1  0  0  0  0
 62 63  1  0  0  0  0
 62 87  1  0  0  0  0
 63 89  1  0  0  0  0
 64 65  1  0  0  0  0
 64 88  1  0  0  0  0
 65 89  1  0  0  0  0
 66 68  1  0  0  0  0
 66 76  1  0  0  0  0
 67 77  1  0  0  0  0
 69 70  1  0  0  0  0
M  CHG  2  77   1  78   1
M  ISO  4  38 100  60 101  85 101  86 100
M  END
> <Batch ID>
0000

> <Smiles>
CNC(C)C(=O)NC(C(=O)N1Cc2cc([101O:1][101CH2:1]COCCOCCOCCNCc3cccc(C[100O:0][100C:0](=O)N4CCCC(n5nc(-c6ccc(Oc7ccc(F)cc7F)cc6)c(C(N)=O)c5N)C4)c3)ccc2CC1C(=O)NC1CCCc2ccccc21)C(C)(C)C

> <Shape>
0.136

> <Color>
0.174

> <Negative vol penalty>
0.000

$$$$

  -OEChem-04052315132D

  0  0  0     0  0  0  0  0  0999 V2000
M  END
$$$$

  -OEChem-04052315133D

 93101  0     1  0  0  0  0  0999 V2000
  -18.9694  -31.8830   25.3439 C   0  0  0  0  0  0  0  0  0  0  0  0
  -18.7091  -30.5554   25.0197 C   0  0  0  0  0  0  0  0  0  0  0  0
  -23.1003   -9.9006   19.8742 C   0  0  0  0  0  0  0  0  0  0  0  0
  -23.9028   -9.7563   22.1485 C   0  0  0  0  0  0  0  0  0  0  0  0
  -19.7778  -32.6569   24.5124 C   0  0  0  0  0  0  0  0  0  0  0  0
  -19.2563  -30.0011   23.8631 C   0  0  0  0  0  0  0  0  0  0  0  0
  -21.1548  -24.2304   23.0881 C   0  0  0  0  0  0  0  0  0  0  0  0
  -22.3787   -8.7205   20.0540 C   0  0  0  0  0  0  0  0  0  0  0  0
  -23.1811   -8.5763   22.3283 C   0  0  0  0  0  0  0  0  0  0  0  0
  -20.5519  -23.1144   22.5095 C   0  0  0  0  0  0  0  0  0  0  0  0
  -19.9772   -7.6849   22.9288 C   0  0  0  0  0  0  0  0  0  0  0  0
  -19.2430   -7.5492   24.1070 C   0  0  0  0  0  0  0  0  0  0  0  0
  -21.6976  -23.5773   20.4377 C   0  0  0  0  0  0  0  0  0  0  0  0
  -20.5269   -5.5847   24.6808 C   0  0  0  0  0  0  0  0  0  0  0  0
  -23.8624  -10.4185   20.9214 C   0  0  0  0  0  0  0  0  0  0  0  0
  -24.1639  -12.9510   20.9766 C   0  0  0  0  0  0  0  0  0  0  0  0
  -20.3430  -32.1091   23.3500 C   0  0  0  0  0  0  0  0  0  0  0  0
  -22.0265  -25.0359   22.3414 C   0  0  0  0  0  0  0  0  0  0  0  0
  -20.0720  -30.7688   23.0145 C   0  0  0  0  0  0  0  0  0  0  0  0
  -22.3122  -24.7015   21.0099 C   0  0  0  0  0  0  0  0  0  0  0  0
  -22.4190   -8.0584   21.2810 C   0  0  0  0  0  0  0  0  0  0  0  0
  -20.8211  -22.7893   21.1832 C   0  0  0  0  0  0  0  0  0  0  0  0
  -20.9862   -6.7705   22.6266 C   0  0  0  0  0  0  0  0  0  0  0  0
  -19.5178   -6.4991   24.9830 C   0  0  0  0  0  0  0  0  0  0  0  0
  -21.2611   -5.7204   23.5026 C   0  0  0  0  0  0  0  0  0  0  0  0
  -24.6086  -11.6371   20.7362 C   0  0  0  0  0  0  0  0  0  0  0  0
  -25.2377  -13.7422   20.6488 C   0  0  0  0  0  0  0  0  0  0  0  0
  -22.8939  -13.4148   21.4537 C   0  0  0  0  0  0  0  0  0  0  0  0
  -22.0306  -28.0759   21.4129 C   0  0  0  0  0  0  0  0  0  0  0  0
  -25.0006  -27.3375   20.3376 C   0  0  0  0  0  0  0  0  0  0  0  0
  -25.0201  -19.1989   18.4888 C   0  0  0  0  0  0  0  0  0  0  0  0
  -27.1878  -24.9379   19.2865 C   0  0  0  0  0  0  0  0  0  0  0  0
  -30.5831  -14.9243   20.6573 C   0  0  0  0  0  0  0  0  0  0  0  0
  -21.1720  -32.9983   22.4574 C   0  0  0  0  0  0  0  0  0  0  0  0
  -22.6895  -26.2210   22.9882 C   0  0  0  0  0  0  0  0  0  0  0  0
  -23.2565  -25.5221   20.1713 C   0  0  0  0  0  0  0  0  0  0  0  0
  -22.0184  -32.2281   21.4471 C   0  0  0  0  0  0  0  0  0  0  0  0
  -29.5589  -12.6335   18.2789 C   0  0  0  0  0  0  0  0  0  0  0  0
  -21.1841  -31.1491   20.7641 C   0  0  0  0  0  0  0  0  0  0  0  0
  -28.1395  -12.2691   18.7136 C   0  0  0  0  0  0  0  0  0  0  0  0
  -29.5990  -18.1442   22.2034 C   0  0  0  0  0  0  0  0  0  0  0  0
  -28.1028  -16.3207   23.0894 C   0  0  0  0  0  0  0  0  0  0  0  0
  -30.4868  -12.7459   19.4831 C   0  0  0  0  0  0  0  0  0  0  0  0
  -30.6399  -17.0885   21.8412 C   0  0  0  0  0  0  0  0  0  0  0  0
  -29.1734  -15.3007   22.7159 C   0  0  0  0  0  0  0  0  0  0  0  0
  -28.6032  -13.3704   20.9588 C   0  0  0  0  0  0  0  0  0  0  0  0
  -20.6675  -30.1246   21.7814 C   0  0  1  0  0  0  0  0  0  0  0  0
  -23.1611  -27.2653   21.9809 C   0  0  1  0  0  0  0  0  0  0  0  0
  -28.7207  -17.6954   23.3785 C   0  0  0  0  0  0  0  0  0  0  0  0
  -27.6185  -13.2509   19.7782 C   0  0  2  0  0  0  0  0  0  0  0  0
  -29.5307  -24.6440   18.4369 C   0  0  0  0  0  0  0  0  0  0  0  0
  -24.1440  -28.4089   17.6121 C   0  0  0  0  0  0  0  0  0  0  0  0
  -26.1200  -27.2426   16.6104 C   0  0  0  0  0  0  0  0  0  0  0  0
  -26.4626  -29.0445   18.3011 C   0  0  0  0  0  0  0  0  0  0  0  0
  -27.9251  -23.2124   21.5752 C   0  0  0  0  0  0  0  0  0  0  0  0
  -25.1656  -20.5491   19.1579 C   0  0  0  0  0  0  0  0  0  0  0  0
  -27.6350  -18.7282   23.6717 C   0  0  0  0  0  0  0  0  0  0  0  0
  -23.4982  -17.9593   16.9580 C   0  0  0  0  0  0  0  0  0  0  0  0
  -22.6232  -17.0665   17.8188 C   0  0  0  0  0  0  0  0  0  0  0  0
  -19.3520  -20.9363   21.4368 C   0  0  0  0  0  0  0  0  0  1  0  0
  -24.9988  -19.9694   21.4292 C   0  0  0  0  0  0  0  0  0  0  0  0
  -25.7979  -19.8349   22.7111 C   0  0  0  0  0  0  0  0  0  0  0  0
  -18.8040  -19.7701   20.6373 C   0  0  0  0  0  0  0  0  0  0  0  0
  -20.6186  -16.9949   19.0433 C   0  0  0  0  0  0  0  0  0  0  0  0
  -19.4248  -17.8266   19.4709 C   0  0  0  0  0  0  0  0  0  0  0  0
  -25.5669  -26.8004   19.0454 C   0  0  1  0  0  0  0  0  0  0  0  0
  -28.6312  -24.6560   19.6630 C   0  0  2  0  0  0  0  0  0  0  0  0
  -25.5541  -27.8595   17.9072 C   0  0  0  0  0  0  0  0  0  0  0  0
  -25.8667  -11.5920   20.2899 N   0  0  0  0  0  0  0  0  0  0  0  0
  -26.2218  -12.8875   20.2472 N   0  0  0  0  0  0  0  0  0  0  0  0
  -23.8749  -26.6748   20.8469 N   0  0  0  0  0  0  0  0  0  0  0  0
  -29.9552  -13.6834   20.4722 N   0  0  0  0  0  0  0  0  0  0  0  0
  -30.0221  -15.7822   21.6178 N   0  0  0  0  0  0  0  0  0  0  0  0
  -25.4267  -15.0788   20.6676 N   0  0  0  0  0  0  0  0  0  0  0  0
  -21.9023  -12.4675   21.7427 N   0  0  0  0  0  0  0  0  0  0  0  0
  -21.7208  -29.2030   22.1499 N   0  0  0  0  0  0  0  0  0  0  0  0
  -23.8767  -19.1351   17.7078 N   0  0  0  0  0  0  0  0  0  0  0  0
  -26.8929  -26.2826   19.3649 N   0  0  0  0  0  0  0  0  0  0  0  0
  -28.7410  -23.3327   20.3395 N   0  3  0  0  0  0  0  0  0  0  0  0
  -22.6403  -14.6342   21.6031 O   0  0  0  0  0  0  0  0  0  0  0  0
  -21.4812  -27.7070   20.3816 O   0  0  0  0  0  0  0  0  0  0  0  0
  -25.5416  -28.3049   20.8791 O   0  0  0  0  0  0  0  0  0  0  0  0
  -25.8341  -18.2919   18.6396 O   0  0  0  0  0  0  0  0  0  0  0  0
  -26.4017  -24.0542   18.9525 O   0  0  0  0  0  0  0  0  0  0  0  0
  -31.5812  -15.2505   20.0027 O   0  0  0  0  0  0  0  0  0  0  0  0
  -21.7148   -6.9070   21.4569 O   0  0  0  0  0  0  0  0  0  0  0  0
  -20.2295  -21.6935   20.6119 O   0  0  0  0  0  0  0  0  0  1  0  0
  -25.8586  -20.4254   20.3919 O   0  0  0  0  0  0  0  0  0  0  0  0
  -26.8370  -18.8827   22.5129 O   0  0  0  0  0  0  0  0  0  0  0  0
  -21.4717  -17.7910   18.2323 O   0  0  0  0  0  0  0  0  0  0  0  0
  -19.8824  -18.9408   20.2276 O   0  0  0  0  0  0  0  0  0  0  0  0
  -18.8137   -6.3698   26.1151 F   0  0  0  0  0  0  0  0  0  0  0  0
  -22.2301   -4.8395   23.2182 F   0  0  0  0  0  0  0  0  0  0  0  0
  1  2  1  0  0  0  0
  1  5  2  0  0  0  0
  2  6  2  0  0  0  0
  3  8  2  0  0  0  0
  3 15  1  0  0  0  0
  4  9  1  0  0  0  0
  4 15  2  0  0  0  0
  5 17  1  0  0  0  0
  6 19  1  0  0  0  0
  7 10  2  0  0  0  0
  7 18  1  0  0  0  0
  8 21  1  0  0  0  0
  9 21  2  0  0  0  0
 10 22  1  0  0  0  0
 11 12  2  0  0  0  0
 11 23  1  0  0  0  0
 12 24  1  0  0  0  0
 13 20  1  0  0  0  0
 13 22  2  0  0  0  0
 14 24  2  0  0  0  0
 14 25  1  0  0  0  0
 15 26  1  0  0  0  0
 16 26  1  0  0  0  0
 16 27  2  0  0  0  0
 16 28  1  0  0  0  0
 17 19  2  0  0  0  0
 17 34  1  0  0  0  0
 18 20  2  0  0  0  0
 18 35  1  0  0  0  0
 19 47  1  0  0  0  0
 20 36  1  0  0  0  0
 21 86  1  0  0  0  0
 22 87  1  0  0  0  0
 23 25  2  0  0  0  0
 23 86  1  0  0  0  0
 24 92  1  0  0  0  0
 25 93  1  0  0  0  0
 26 69  2  0  0  0  0
 27 70  1  0  0  0  0
 27 74  1  0  0  0  0
 28 75  1  0  0  0  0
 28 80  2  0  0  0  0
 29 48  1  0  0  0  0
 29 76  1  0  0  0  0
 29 81  2  0  0  0  0
 30 66  1  0  0  0  0
 30 71  1  0  0  0  0
 30 82  2  0  0  0  0
 31 56  1  0  0  0  0
 31 77  1  0  0  0  0
 31 83  2  0  0  0  0
 32 67  1  0  0  0  0
 32 78  1  0  0  0  0
 32 84  2  0  0  0  0
 33 72  1  0  0  0  0
 33 73  1  0  0  0  0
 33 85  2  0  0  0  0
 34 37  1  0  0  0  0
 35 48  1  0  0  0  0
 36 71  1  0  0  0  0
 37 39  1  0  0  0  0
 38 40  1  0  0  0  0
 38 43  1  0  0  0  0
 39 47  1  0  0  0  0
 40 50  1  0  0  0  0
 41 44  1  0  0  0  0
 41 49  1  0  0  0  0
 42 45  1  0  0  0  0
 42 49  1  0  0  0  0
 43 72  1  0  0  0  0
 44 73  1  0  0  0  0
 45 73  1  0  0  0  0
 46 50  1  0  0  0  0
 46 72  1  0  0  0  0
 47 76  1  0  0  0  0
 48 71  1  0  0  0  0
 49 57  1  0  0  0  0
 50 70  1  0  0  0  0
 51 67  1  0  0  0  0
 52 68  1  0  0  0  0
 53 68  1  0  0  0  0
 54 68  1  0  0  0  0
 55 79  1  0  0  0  0
 56 88  1  0  0  0  0
 57 89  1  0  0  0  0
 58 59  1  0  0  0  0
 58 77  1  0  0  0  0
 59 90  1  0  0  0  0
 60 63  1  0  0  0  0
 60 87  1  0  0  0  0
 61 62  1  0  0  0  0
 61 88  1  0  0  0  0
 62 89  1  0  0  0  0
 63 91  1  0  0  0  0
 64 65  1  0  0  0  0
 64 90  1  0  0  0  0
 65 91  1  0  0  0  0
 66 68  1  0  0  0  0
 66 78  1  0  0  0  0
 67 79  1  0  0  0  0
 69 70  1  0  0  0  0
M  CHG  1  79   1
M  ISO  4  33 100  60 101  73 100  87 101
M  END
> <Batch ID>
0000

> <Smiles>
CNC(C)C(=O)NC(C(=O)N1Cc2cc([101O:1][101CH2:1]COCCOCCNC(=O)COCCOCC3CC[100N:0]([100C:0](=O)N4CCCC(n5nc(-c6ccc(Oc7ccc(F)cc7F)cc6)c(C(N)=O)c5N)C4)CC3)ccc2CC1C(=O)NC1CCCc2ccccc21)C(C)(C)C

> <Shape>
0.266

> <Color>
0.190

> <Negative vol penalty>
0.000

$$$$

  -OEChem-04052315133D

 82 90  0     1  0  0  0  0  0999 V2000
  -27.4765  -32.5784   27.6980 C   0  0  0  0  0  0  0  0  0  0  0  0
  -27.6940  -31.5320   26.8074 C   0  0  0  0  0  0  0  0  0  0  0  0
  -24.2629   -9.0646   21.4678 C   0  0  0  0  0  0  0  0  0  0  0  0
  -24.8122  -10.3470   23.4403 C   0  0  0  0  0  0  0  0  0  0  0  0
  -26.1825  -33.0496   27.9155 C   0  0  0  0  0  0  0  0  0  0  0  0
  -26.6172  -30.9555   26.1345 C   0  0  0  0  0  0  0  0  0  0  0  0
  -27.5682  -30.2223   21.2149 C   0  0  0  0  0  0  0  0  0  0  0  0
  -30.2016  -18.8225   19.9706 C   0  0  0  0  0  0  0  0  0  0  0  0
  -23.9433   -7.9687   22.2692 C   0  0  0  0  0  0  0  0  0  0  0  0
  -24.4926   -9.2510   24.2418 C   0  0  0  0  0  0  0  0  0  0  0  0
  -28.3584  -29.1248   20.8758 C   0  0  0  0  0  0  0  0  0  0  0  0
  -30.4104  -20.1541   20.3294 C   0  0  0  0  0  0  0  0  0  0  0  0
  -21.3523   -6.9615   24.1941 C   0  0  0  0  0  0  0  0  0  0  0  0
  -20.1776   -6.2674   23.9047 C   0  0  0  0  0  0  0  0  0  0  0  0
  -26.3734  -27.8817   20.2981 C   0  0  0  0  0  0  0  0  0  0  0  0
  -28.0384  -20.4265   20.6989 C   0  0  0  0  0  0  0  0  0  0  0  0
  -21.4598   -4.2547   23.5274 C   0  0  0  0  0  0  0  0  0  0  0  0
  -24.6974  -10.2538   22.0533 C   0  0  0  0  0  0  0  0  0  0  0  0
  -24.1613  -12.4109   20.8014 C   0  0  0  0  0  0  0  0  0  0  0  0
  -25.0905  -32.4850   27.2378 C   0  0  0  0  0  0  0  0  0  0  0  0
  -26.1716  -30.1539   21.1083 C   0  0  0  0  0  0  0  0  0  0  0  0
  -25.3072  -31.4187   26.3442 C   0  0  0  0  0  0  0  0  0  0  0  0
  -25.5679  -28.9805   20.6340 C   0  0  0  0  0  0  0  0  0  0  0  0
  -28.9112  -18.2929   19.9757 C   0  0  0  0  0  0  0  0  0  0  0  0
  -27.8296  -19.0948   20.3399 C   0  0  0  0  0  0  0  0  0  0  0  0
  -24.0581   -8.0618   23.6562 C   0  0  0  0  0  0  0  0  0  0  0  0
  -27.7609  -27.9534   20.4200 C   0  0  0  0  0  0  0  0  0  0  0  0
  -29.3288  -20.9561   20.6936 C   0  0  0  0  0  0  0  0  0  0  0  0
  -22.5808   -6.3023   24.1502 C   0  0  0  0  0  0  0  0  0  0  0  0
  -20.2313   -4.9140   23.5714 C   0  0  0  0  0  0  0  0  0  0  0  0
  -22.6346   -4.9489   23.8169 C   0  0  0  0  0  0  0  0  0  0  0  0
  -25.0282  -11.3861   21.2260 C   0  0  0  0  0  0  0  0  0  0  0  0
  -24.9534  -13.2386   20.0438 C   0  0  0  0  0  0  0  0  0  0  0  0
  -22.7650  -12.5979   21.0681 C   0  0  0  0  0  0  0  0  0  0  0  0
  -23.7518  -30.3828   23.1567 C   0  0  0  0  0  0  0  0  0  0  0  0
  -21.9617  -30.2422   20.4551 C   0  0  0  0  0  0  0  0  0  0  0  0
  -21.7146  -29.2800   17.1902 C   0  0  0  0  0  0  0  0  0  0  0  0
  -29.7046  -16.0234   19.2230 C   0  0  0  0  0  0  0  0  0  0  0  0
  -23.7045  -32.9965   27.5412 C   0  0  0  0  0  0  0  0  0  0  0  0
  -25.3350  -31.3554   21.4527 C   0  0  0  0  0  0  0  0  0  0  0  0
  -24.0741  -28.8628   20.4823 C   0  0  0  0  0  0  0  0  0  0  0  0
  -22.6617  -32.5804   26.5069 C   0  0  0  0  0  0  0  0  0  0  0  0
  -29.6526  -12.5912   18.2774 C   0  0  0  0  0  0  0  0  0  0  0  0
  -22.7942  -31.0958   26.1827 C   0  0  0  0  0  0  0  0  0  0  0  0
  -28.3735  -12.0560   18.9253 C   0  0  0  0  0  0  0  0  0  0  0  0
  -30.3476  -13.6239   19.1630 C   0  0  0  0  0  0  0  0  0  0  0  0
  -28.2163  -14.1982   20.2570 C   0  0  0  0  0  0  0  0  0  0  0  0
  -24.1679  -30.7838   25.5768 C   0  0  1  0  0  0  0  0  0  0  0  0
  -23.8911  -31.0003   21.7939 C   0  0  1  0  0  0  0  0  0  0  0  0
  -27.4465  -13.2028   19.3737 C   0  0  2  0  0  0  0  0  0  0  0  0
  -20.1156  -29.2663   15.2562 C   0  0  0  0  0  0  0  0  0  0  0  0
  -20.4367  -27.9303   21.7356 C   0  0  0  0  0  0  0  0  0  0  0  0
  -19.5413  -27.3572   19.4690 C   0  0  0  0  0  0  0  0  0  0  0  0
  -19.0056  -29.5656   20.4978 C   0  0  0  0  0  0  0  0  0  0  0  0
  -23.5178  -30.9461   15.5374 C   0  0  0  0  0  0  0  0  0  0  0  0
  -29.0442  -24.5702   20.5578 C   0  0  0  0  0  0  0  0  0  0  0  0
  -27.9522  -25.5878   20.2670 C   0  0  0  0  0  0  0  0  0  1  0  0
  -28.4787  -23.1756   20.7760 C   0  0  0  0  0  0  0  0  0  0  0  0
  -21.3437  -29.1329   19.6387 C   0  0  1  0  0  0  0  0  0  0  0  0
  -21.2355  -30.0213   15.9551 C   0  0  2  0  0  0  0  0  0  0  0  0
  -20.1099  -28.4977   20.3399 C   0  0  0  0  0  0  0  0  0  0  0  0
  -26.2753  -11.5460   20.7754 N   0  0  0  0  0  0  0  0  0  0  0  0
  -26.1979  -12.6809   20.0597 N   0  0  0  0  0  0  0  0  0  0  0  0
  -23.2986  -30.0627   20.8378 N   0  0  0  0  0  0  0  0  0  0  0  0
  -29.4096  -14.6818   19.5449 N   0  0  0  0  0  0  0  0  0  0  0  0
  -26.5145  -18.5785   20.3538 N   0  0  0  0  0  0  0  0  0  0  0  0
  -24.6997  -14.3819   19.3721 N   0  0  0  0  0  0  0  0  0  0  0  0
  -22.1047  -11.6530   21.8653 N   0  0  0  0  0  0  0  0  0  0  0  0
  -28.7241  -16.9375   19.6072 N   0  0  0  0  0  0  0  0  0  0  0  0
  -24.2094  -31.1829   24.1862 N   0  0  0  0  0  0  0  0  0  0  0  0
  -21.0577  -29.7026   18.3264 N   0  0  0  0  0  0  0  0  0  0  0  0
  -22.3568  -30.1983   14.9897 N   0  3  0  0  0  0  0  0  0  0  0  0
  -22.1183  -13.5651   20.5994 O   0  0  0  0  0  0  0  0  0  0  0  0
  -23.2639  -29.2640   23.2661 O   0  0  0  0  0  0  0  0  0  0  0  0
  -21.2855  -31.2347   20.7367 O   0  0  0  0  0  0  0  0  0  0  0  0
  -22.5820  -28.4103   17.1504 O   0  0  0  0  0  0  0  0  0  0  0  0
  -30.7374  -16.3353   18.6246 O   0  0  0  0  0  0  0  0  0  0  0  0
  -23.7461   -6.9926   24.4385 O   0  0  0  0  0  0  0  0  0  0  0  0
  -28.5298  -26.8805   20.0890 O   0  0  0  0  0  0  0  0  0  1  0  0
  -29.5345  -22.2641   21.0480 O   0  0  0  0  0  0  0  0  0  0  0  0
  -19.1030   -4.2472   23.2949 F   0  0  0  0  0  0  0  0  0  0  0  0
  -23.8117   -4.3099   23.7742 F   0  0  0  0  0  0  0  0  0  0  0  0
  1  2  1  0  0  0  0
  1  5  2  0  0  0  0
  2  6  2  0  0  0  0
  3  9  2  0  0  0  0
  3 18  1  0  0  0  0
  4 10  1  0  0  0  0
  4 18  2  0  0  0  0
  5 20  1  0  0  0  0
  6 22  1  0  0  0  0
  7 11  2  0  0  0  0
  7 21  1  0  0  0  0
  8 12  2  0  0  0  0
  8 24  1  0  0  0  0
  9 26  1  0  0  0  0
 10 26  2  0  0  0  0
 11 27  1  0  0  0  0
 12 28  1  0  0  0  0
 13 14  2  0  0  0  0
 13 29  1  0  0  0  0
 14 30  1  0  0  0  0
 15 23  1  0  0  0  0
 15 27  2  0  0  0  0
 16 25  1  0  0  0  0
 16 28  2  0  0  0  0
 17 30  2  0  0  0  0
 17 31  1  0  0  0  0
 18 32  1  0  0  0  0
 19 32  1  0  0  0  0
 19 33  2  0  0  0  0
 19 34  1  0  0  0  0
 20 22  2  0  0  0  0
 20 39  1  0  0  0  0
 21 23  2  0  0  0  0
 21 40  1  0  0  0  0
 22 48  1  0  0  0  0
 23 41  1  0  0  0  0
 24 25  2  0  0  0  0
 24 69  1  0  0  0  0
 25 66  1  0  0  0  0
 26 78  1  0  0  0  0
 27 79  1  0  0  0  0
 28 80  1  0  0  0  0
 29 31  2  0  0  0  0
 29 78  1  0  0  0  0
 30 81  1  0  0  0  0
 31 82  1  0  0  0  0
 32 62  2  0  0  0  0
 33 63  1  0  0  0  0
 33 67  1  0  0  0  0
 34 68  1  0  0  0  0
 34 73  2  0  0  0  0
 35 49  1  0  0  0  0
 35 70  1  0  0  0  0
 35 74  2  0  0  0  0
 36 59  1  0  0  0  0
 36 64  1  0  0  0  0
 36 75  2  0  0  0  0
 37 60  1  0  0  0  0
 37 71  1  0  0  0  0
 37 76  2  0  0  0  0
 38 65  1  0  0  0  0
 38 69  1  0  0  0  0
 38 77  2  0  0  0  0
 39 42  1  0  0  0  0
 40 49  1  0  0  0  0
 41 64  1  0  0  0  0
 42 44  1  0  0  0  0
 43 45  1  0  0  0  0
 43 46  1  0  0  0  0
 44 48  1  0  0  0  0
 45 50  1  0  0  0  0
 46 65  1  0  0  0  0
 47 50  1  0  0  0  0
 47 65  1  0  0  0  0
 48 70  1  0  0  0  0
 49 64  1  0  0  0  0
 50 63  1  0  0  0  0
 51 60  1  0  0  0  0
 52 61  1  0  0  0  0
 53 61  1  0  0  0  0
 54 61  1  0  0  0  0
 55 72  1  0  0  0  0
 56 57  1  0  0  0  0
 56 58  1  0  0  0  0
 57 79  1  0  0  0  0
 58 80  1  0  0  0  0
 59 61  1  0  0  0  0
 59 71  1  0  0  0  0
 60 72  1  0  0  0  0
 62 63  1  0  0  0  0
M  CHG  1  72   1
M  ISO  4  38 100  57 101  69 100  79 101
M  END
> <Batch ID>
0000

> <Smiles>
CNC(C)C(=O)NC(C(=O)N1Cc2cc([101O:1][101CH2:1]CCOc3ccc([100NH:0][100C:0](=O)N4CCCC(n5nc(-c6ccc(Oc7ccc(F)cc7F)cc6)c(C(N)=O)c5N)C4)c(N)c3)ccc2CC1C(=O)NC1CCCc2ccccc21)C(C)(C)C

> <Shape>
0.333

> <Color>
0.136

> <Negative vol penalty>
0.000

$$$$

  -OEChem-04052315133D

 88 96  0     1  0  0  0  0  0999 V2000
  -32.7251  -26.6952   19.8538 C   0  0  0  0  0  0  0  0  0  0  0  0
  -31.5000  -26.3835   19.2728 C   0  0  0  0  0  0  0  0  0  0  0  0
  -26.4663  -16.0609   21.6557 C   0  0  0  0  0  0  0  0  0  0  0  0
  -26.3831  -16.5502   19.2912 C   0  0  0  0  0  0  0  0  0  0  0  0
  -32.7735  -27.1680   21.1645 C   0  0  0  0  0  0  0  0  0  0  0  0
  -30.3227  -26.5435   20.0026 C   0  0  0  0  0  0  0  0  0  0  0  0
  -23.4183  -28.2551   19.1562 C   0  0  0  0  0  0  0  0  0  0  0  0
  -25.0781  -16.1754   21.7282 C   0  0  0  0  0  0  0  0  0  0  0  0
  -24.9949  -16.6647   19.3637 C   0  0  0  0  0  0  0  0  0  0  0  0
  -22.1448  -27.7757   19.4595 C   0  0  0  0  0  0  0  0  0  0  0  0
  -22.3797  -14.2827   20.9738 C   0  0  0  0  0  0  0  0  0  0  0  0
  -21.6851  -13.3057   21.6868 C   0  0  0  0  0  0  0  0  0  0  0  0
  -22.3437  -28.6752   21.6889 C   0  0  0  0  0  0  0  0  0  0  0  0
  -20.8270  -15.0032   23.1766 C   0  0  0  0  0  0  0  0  0  0  0  0
  -27.1189  -16.2483   20.4371 C   0  0  0  0  0  0  0  0  0  0  0  0
  -29.2975  -14.9662   20.0943 C   0  0  0  0  0  0  0  0  0  0  0  0
  -31.5954  -27.3430   21.9075 C   0  0  0  0  0  0  0  0  0  0  0  0
  -24.1698  -28.9398   20.1220 C   0  0  0  0  0  0  0  0  0  0  0  0
  -30.3555  -27.0178   21.3250 C   0  0  0  0  0  0  0  0  0  0  0  0
  -23.6255  -29.1645   21.3946 C   0  0  0  0  0  0  0  0  0  0  0  0
  -24.3424  -16.4773   20.5823 C   0  0  0  0  0  0  0  0  0  0  0  0
  -21.6085  -27.9831   20.7269 C   0  0  0  0  0  0  0  0  0  0  0  0
  -22.2981  -15.6200   21.3621 C   0  0  0  0  0  0  0  0  0  0  0  0
  -20.9087  -13.6659   22.7883 C   0  0  0  0  0  0  0  0  0  0  0  0
  -21.5217  -15.9802   22.4636 C   0  0  0  0  0  0  0  0  0  0  0  0
  -28.5529  -16.1307   20.3616 C   0  0  0  0  0  0  0  0  0  0  0  0
  -30.6068  -15.3794   20.1329 C   0  0  0  0  0  0  0  0  0  0  0  0
  -28.8460  -13.6305   19.8342 C   0  0  0  0  0  0  0  0  0  0  0  0
  -26.9511  -28.4322   21.5747 C   0  0  0  0  0  0  0  0  0  0  0  0
  -25.3179  -22.9574   22.6389 C   0  0  0  0  0  0  0  0  0  0  0  0
  -26.4033  -31.3832   22.8052 C   0  0  0  0  0  0  0  0  0  0  0  0
  -24.1441  -33.8034   23.6327 C   0  0  0  0  0  0  0  0  0  0  0  0
  -29.9662  -20.9539   20.6819 C   0  0  0  0  0  0  0  0  0  0  0  0
  -31.7016  -27.8121   23.3370 C   0  0  0  0  0  0  0  0  0  0  0  0
  -25.5313  -29.4740   19.7707 C   0  0  0  0  0  0  0  0  0  0  0  0
  -24.3833  -29.9114   22.4606 C   0  0  0  0  0  0  0  0  0  0  0  0
  -30.3789  -28.3087   23.9149 C   0  0  0  0  0  0  0  0  0  0  0  0
  -31.5179  -18.4403   22.9791 C   0  0  0  0  0  0  0  0  0  0  0  0
  -29.2540  -27.3307   23.5910 C   0  0  0  0  0  0  0  0  0  0  0  0
  -32.3354  -17.6107   21.9911 C   0  0  0  0  0  0  0  0  0  0  0  0
  -31.3543  -19.8706   22.4838 C   0  0  0  0  0  0  0  0  0  0  0  0
  -27.2896  -23.0963   21.1571 C   0  0  0  0  0  0  0  0  0  0  0  0
  -26.8660  -20.9649   22.3534 C   0  0  0  0  0  0  0  0  0  0  0  0
  -28.7720  -22.9698   21.4832 C   0  0  0  0  0  0  0  0  0  0  0  0
  -28.3627  -20.8365   22.6429 C   0  0  0  0  0  0  0  0  0  0  0  0
  -31.5225  -19.1197   20.1269 C   0  0  0  0  0  0  0  0  0  0  0  0
  -29.0546  -27.2015   22.0760 C   0  0  1  0  0  0  0  0  0  0  0  0
  -26.4144  -29.7090   20.9923 C   0  0  1  0  0  0  0  0  0  0  0  0
  -31.7555  -17.6593   20.5635 C   0  0  2  0  0  0  0  0  0  0  0  0
  -23.9925  -36.0896   24.6563 C   0  0  0  0  0  0  0  0  0  0  0  0
  -26.8151  -30.1683   25.5736 C   0  0  0  0  0  0  0  0  0  0  0  0
  -25.7388  -32.2063   26.5516 C   0  0  0  0  0  0  0  0  0  0  0  0
  -27.8599  -32.4181   25.2558 C   0  0  0  0  0  0  0  0  0  0  0  0
  -22.9968  -34.9605   21.1621 C   0  0  0  0  0  0  0  0  0  0  0  0
  -24.5214  -22.1452   23.6289 C   0  0  0  0  0  0  0  0  0  0  0  0
  -19.9349  -26.3364   20.3480 C   0  0  0  0  0  0  0  0  0  1  0  0
  -22.6027  -22.1666   24.9857 C   0  0  0  0  0  0  0  0  0  0  0  0
  -18.9771  -25.5674   21.2373 C   0  0  0  0  0  0  0  0  0  0  0  0
  -21.4281  -23.0284   25.4074 C   0  0  0  0  0  0  0  0  0  0  0  0
  -18.7803  -24.5136   23.3287 C   0  0  0  0  0  0  0  0  0  0  0  0
  -19.5431  -24.1719   24.5941 C   0  0  0  0  0  0  0  0  0  0  0  0
  -25.7048  -31.9170   24.0324 C   0  0  1  0  0  0  0  0  0  0  0  0
  -24.1250  -35.2976   23.3649 C   0  0  2  0  0  0  0  0  0  0  0  0
  -26.5159  -31.6616   25.3341 C   0  0  0  0  0  0  0  0  0  0  0  0
  -29.3251  -17.2031   20.5559 N   0  0  0  0  0  0  0  0  0  0  0  0
  -30.5684  -16.7142   20.4105 N   0  0  0  0  0  0  0  0  0  0  0  0
  -25.7130  -30.4086   22.0706 N   0  0  0  0  0  0  0  0  0  0  0  0
  -26.4677  -22.3592   22.1205 N   0  0  0  0  0  0  0  0  0  0  0  0
  -30.8008  -19.9136   21.1254 N   0  0  0  0  0  0  0  0  0  0  0  0
  -29.1519  -21.5683   21.6452 N   0  0  0  0  0  0  0  0  0  0  0  0
  -31.7757  -14.7276   19.9561 N   0  0  0  0  0  0  0  0  0  0  0  0
  -27.4670  -13.3800   19.8317 N   0  0  0  0  0  0  0  0  0  0  0  0
  -28.3300  -28.3441   21.5624 N   0  0  0  0  0  0  0  0  0  0  0  0
  -25.4303  -33.3248   23.7659 N   0  0  0  0  0  0  0  0  0  0  0  0
  -22.9806  -35.6502   22.4778 N   0  3  0  0  0  0  0  0  0  0  0  0
  -29.6423  -12.6837   19.6270 O   0  0  0  0  0  0  0  0  0  0  0  0
  -26.1718  -27.5899   22.0050 O   0  0  0  0  0  0  0  0  0  0  0  0
  -24.9314  -24.0899   22.3389 O   0  0  0  0  0  0  0  0  0  0  0  0
  -27.5172  -31.8201   22.5052 O   0  0  0  0  0  0  0  0  0  0  0  0
  -23.1202  -33.1291   23.7191 O   0  0  0  0  0  0  0  0  0  0  0  0
  -29.9431  -21.3018   19.4947 O   0  0  0  0  0  0  0  0  0  0  0  0
  -22.9877  -16.5889   20.6527 O   0  0  0  0  0  0  0  0  0  0  0  0
  -20.3574  -27.5124   21.0278 O   0  0  0  0  0  0  0  0  0  1  0  0
  -23.3945  -22.8876   24.0465 O   0  0  0  0  0  0  0  0  0  0  0  0
  -19.6351  -25.2385   22.4528 O   0  0  0  0  0  0  0  0  0  0  0  0
  -20.6608  -23.3622   24.2571 O   0  0  0  0  0  0  0  0  0  0  0  0
  -20.2404  -12.7278   23.4720 F   0  0  0  0  0  0  0  0  0  0  0  0
  -21.4384  -17.2634   22.8407 F   0  0  0  0  0  0  0  0  0  0  0  0
  1  2  1  0  0  0  0
  1  5  2  0  0  0  0
  2  6  2  0  0  0  0
  3  8  2  0  0  0  0
  3 15  1  0  0  0  0
  4  9  1  0  0  0  0
  4 15  2  0  0  0  0
  5 17  1  0  0  0  0
  6 19  1  0  0  0  0
  7 10  2  0  0  0  0
  7 18  1  0  0  0  0
  8 21  1  0  0  0  0
  9 21  2  0  0  0  0
 10 22  1  0  0  0  0
 11 12  2  0  0  0  0
 11 23  1  0  0  0  0
 12 24  1  0  0  0  0
 13 20  1  0  0  0  0
 13 22  2  0  0  0  0
 14 24  2  0  0  0  0
 14 25  1  0  0  0  0
 15 26  1  0  0  0  0
 16 26  1  0  0  0  0
 16 27  2  0  0  0  0
 16 28  1  0  0  0  0
 17 19  2  0  0  0  0
 17 34  1  0  0  0  0
 18 20  2  0  0  0  0
 18 35  1  0  0  0  0
 19 47  1  0  0  0  0
 20 36  1  0  0  0  0
 21 82  1  0  0  0  0
 22 83  1  0  0  0  0
 23 25  2  0  0  0  0
 23 82  1  0  0  0  0
 24 87  1  0  0  0  0
 25 88  1  0  0  0  0
 26 65  2  0  0  0  0
 27 66  1  0  0  0  0
 27 71  1  0  0  0  0
 28 72  1  0  0  0  0
 28 76  2  0  0  0  0
 29 48  1  0  0  0  0
 29 73  1  0  0  0  0
 29 77  2  0  0  0  0
 30 55  1  0  0  0  0
 30 68  1  0  0  0  0
 30 78  2  0  0  0  0
 31 62  1  0  0  0  0
 31 67  1  0  0  0  0
 31 79  2  0  0  0  0
 32 63  1  0  0  0  0
 32 74  1  0  0  0  0
 32 80  2  0  0  0  0
 33 69  1  0  0  0  0
 33 70  1  0  0  0  0
 33 81  2  0  0  0  0
 34 37  1  0  0  0  0
 35 48  1  0  0  0  0
 36 67  1  0  0  0  0
 37 39  1  0  0  0  0
 38 40  1  0  0  0  0
 38 41  1  0  0  0  0
 39 47  1  0  0  0  0
 40 49  1  0  0  0  0
 41 69  1  0  0  0  0
 42 44  1  0  0  0  0
 42 68  1  0  0  0  0
 43 45  1  0  0  0  0
 43 68  1  0  0  0  0
 44 70  1  0  0  0  0
 45 70  1  0  0  0  0
 46 49  1  0  0  0  0
 46 69  1  0  0  0  0
 47 73  1  0  0  0  0
 48 67  1  0  0  0  0
 49 66  1  0  0  0  0
 50 63  1  0  0  0  0
 51 64  1  0  0  0  0
 52 64  1  0  0  0  0
 53 64  1  0  0  0  0
 54 75  1  0  0  0  0
 55 84  1  0  0  0  0
 56 58  1  0  0  0  0
 56 83  1  0  0  0  0
 57 59  1  0  0  0  0
 57 84  1  0  0  0  0
 58 85  1  0  0  0  0
 59 86  1  0  0  0  0
 60 61  1  0  0  0  0
 60 85  1  0  0  0  0
 61 86  1  0  0  0  0
 62 64  1  0  0  0  0
 62 74  1  0  0  0  0
 63 75  1  0  0  0  0
 65 66  1  0  0  0  0
M  CHG  1  75   1
M  ISO  4  33 100  56 101  70 100  83 101
M  END
> <Batch ID>
0000

> <Smiles>
CNC(C)C(=O)NC(C(=O)N1Cc2cc([101O:1][101CH2:1]COCCOCCOCC(=O)N3CC[100N:0]([100C:0](=O)N4CCCC(n5nc(-c6ccc(Oc7ccc(F)cc7F)cc6)c(C(N)=O)c5N)C4)CC3)ccc2CC1C(=O)NC1CCCc2ccccc21)C(C)(C)C

> <Shape>
0.276

> <Color>
0.075

> <Negative vol penalty>
0.000

$$$$

  -OEChem-04052315133D

 94102  0     1  0  0  0  0  0999 V2000
  -21.4927  -23.2017   25.9632 C   0  0  0  0  0  0  0  0  0  0  0  0
  -22.8175  -23.2253   25.5394 C   0  0  0  0  0  0  0  0  0  0  0  0
  -24.4510   -9.4507   20.9407 C   0  0  0  0  0  0  0  0  0  0  0  0
  -24.8386  -10.2654   23.1820 C   0  0  0  0  0  0  0  0  0  0  0  0
  -20.5850  -24.1338   25.4621 C   0  0  0  0  0  0  0  0  0  0  0  0
  -23.2352  -24.1804   24.6133 C   0  0  0  0  0  0  0  0  0  0  0  0
  -28.7063  -26.9211   24.3643 C   0  0  0  0  0  0  0  0  0  0  0  0
  -29.5627  -17.8729   24.0875 C   0  0  0  0  0  0  0  0  0  0  0  0
  -31.4295  -18.5827   22.7278 C   0  0  0  0  0  0  0  0  0  0  0  0
  -29.1097  -19.1904   24.1533 C   0  0  0  0  0  0  0  0  0  0  0  0
  -30.9764  -19.9003   22.7937 C   0  0  0  0  0  0  0  0  0  0  0  0
  -24.1701   -8.1829   21.4501 C   0  0  0  0  0  0  0  0  0  0  0  0
  -24.5576   -8.9976   23.6914 C   0  0  0  0  0  0  0  0  0  0  0  0
  -29.8422  -26.6794   23.5929 C   0  0  0  0  0  0  0  0  0  0  0  0
  -21.5738   -6.6203   22.9500 C   0  0  0  0  0  0  0  0  0  0  0  0
  -20.4581   -5.9518   22.4462 C   0  0  0  0  0  0  0  0  0  0  0  0
  -29.1283  -28.3667   22.0237 C   0  0  0  0  0  0  0  0  0  0  0  0
  -21.8797   -4.1527   21.6850 C   0  0  0  0  0  0  0  0  0  0  0  0
  -24.7853  -10.4919   21.8066 C   0  0  0  0  0  0  0  0  0  0  0  0
  -24.1635  -12.8500   21.0580 C   0  0  0  0  0  0  0  0  0  0  0  0
  -20.9940  -25.1070   24.5367 C   0  0  0  0  0  0  0  0  0  0  0  0
  -27.7658  -27.8814   23.9648 C   0  0  0  0  0  0  0  0  0  0  0  0
  -22.3318  -25.1256   24.0983 C   0  0  0  0  0  0  0  0  0  0  0  0
  -27.9826  -28.6205   22.7931 C   0  0  0  0  0  0  0  0  0  0  0  0
  -30.7227  -17.5690   23.3747 C   0  0  0  0  0  0  0  0  0  0  0  0
  -29.8165  -20.2041   23.5064 C   0  0  0  0  0  0  0  0  0  0  0  0
  -24.2234   -7.9564   22.8254 C   0  0  0  0  0  0  0  0  0  0  0  0
  -30.0519  -27.4002   22.4209 C   0  0  0  0  0  0  0  0  0  0  0  0
  -22.8425   -6.0550   22.8213 C   0  0  0  0  0  0  0  0  0  0  0  0
  -20.6110   -4.7180   21.8137 C   0  0  0  0  0  0  0  0  0  0  0  0
  -22.9954   -4.8212   22.1889 C   0  0  0  0  0  0  0  0  0  0  0  0
  -25.0762  -11.8016   21.2810 C   0  0  0  0  0  0  0  0  0  0  0  0
  -24.9309  -13.8720   20.5547 C   0  0  0  0  0  0  0  0  0  0  0  0
  -22.7487  -12.8960   21.2854 C   0  0  0  0  0  0  0  0  0  0  0  0
  -24.6906  -27.8117   23.1633 C   0  0  0  0  0  0  0  0  0  0  0  0
  -25.0341  -31.0367   23.1046 C   0  0  0  0  0  0  0  0  0  0  0  0
  -27.1119  -33.7234   22.7715 C   0  0  0  0  0  0  0  0  0  0  0  0
  -30.7406  -15.2334   21.0496 C   0  0  0  0  0  0  0  0  0  0  0  0
  -19.9658  -26.0639   23.9874 C   0  0  0  0  0  0  0  0  0  0  0  0
  -26.5591  -28.1491   24.8219 C   0  0  0  0  0  0  0  0  0  0  0  0
  -27.0134  -29.6768   22.3310 C   0  0  0  0  0  0  0  0  0  0  0  0
  -20.5746  -27.2791   23.2924 C   0  0  0  0  0  0  0  0  0  0  0  0
  -28.9228  -14.6690   18.0407 C   0  0  0  0  0  0  0  0  0  0  0  0
  -21.6922  -26.8493   22.3474 C   0  0  0  0  0  0  0  0  0  0  0  0
  -27.6485  -13.9647   18.5098 C   0  0  0  0  0  0  0  0  0  0  0  0
  -30.1381  -14.2421   18.8608 C   0  0  0  0  0  0  0  0  0  0  0  0
  -28.7086  -13.6842   20.7893 C   0  0  0  0  0  0  0  0  0  0  0  0
  -22.8288  -26.1618   23.1137 C   0  0  1  0  0  0  0  0  0  0  0  0
  -25.4085  -28.7886   24.0509 C   0  0  1  0  0  0  0  0  0  0  0  0
  -27.4462  -14.1246   20.0286 C   0  0  2  0  0  0  0  0  0  0  0  0
  -27.0965  -36.2325   22.7309 C   0  0  0  0  0  0  0  0  0  0  0  0
  -23.8918  -30.9815   20.2758 C   0  0  0  0  0  0  0  0  0  0  0  0
  -24.7719  -33.3026   19.9499 C   0  0  0  0  0  0  0  0  0  0  0  0
  -23.0539  -32.8566   21.7028 C   0  0  0  0  0  0  0  0  0  0  0  0
  -28.8886  -33.8882   25.1327 C   0  0  0  0  0  0  0  0  0  0  0  0
  -31.2077  -16.1606   23.3038 C   0  0  0  0  0  0  0  0  0  0  0  0
  -29.3275  -21.6208   23.5764 C   0  0  0  0  0  0  0  0  0  0  0  0
  -27.5994  -23.2505   22.8041 C   0  0  0  0  0  0  0  0  0  0  0  0
  -26.4225  -23.3888   21.8586 C   0  0  0  0  0  0  0  0  0  0  0  0
  -31.6973  -25.8443   21.6943 C   0  0  0  0  0  0  0  0  0  1  0  0
  -32.3683  -25.5540   20.3658 C   0  0  0  0  0  0  0  0  0  0  0  0
  -25.7662  -23.2182   19.6085 C   0  0  0  0  0  0  0  0  0  0  0  0
  -26.2786  -22.9229   18.2120 C   0  0  0  0  0  0  0  0  0  0  0  0
  -31.9866  -25.4254   18.0505 C   0  0  0  0  0  0  0  0  0  0  0  0
  -30.9155  -25.5592   16.9852 C   0  0  0  0  0  0  0  0  0  0  0  0
  -27.8045  -23.6379   16.5740 C   0  0  0  0  0  0  0  0  0  0  0  0
  -28.8544  -24.6883   16.2668 C   0  0  0  0  0  0  0  0  0  0  0  0
  -25.4242  -32.0514   22.0571 C   0  0  1  0  0  0  0  0  0  0  0  0
  -27.2593  -34.9909   23.5938 C   0  0  2  0  0  0  0  0  0  0  0  0
  -24.3029  -32.2768   21.0038 C   0  0  0  0  0  0  0  0  0  0  0  0
  -26.3276  -12.1275   20.9467 N   0  0  0  0  0  0  0  0  0  0  0  0
  -26.2067  -13.3921   20.5084 N   0  0  0  0  0  0  0  0  0  0  0  0
  -25.8455  -29.8973   23.2000 N   0  0  0  0  0  0  0  0  0  0  0  0
  -29.8817  -14.4201   20.2921 N   0  0  0  0  0  0  0  0  0  0  0  0
  -24.6319  -15.1252   20.1516 N   0  0  0  0  0  0  0  0  0  0  0  0
  -22.1185  -11.7580   21.8072 N   0  0  0  0  0  0  0  0  0  0  0  0
  -23.6524  -27.1444   23.7849 N   0  0  0  0  0  0  0  0  0  0  0  0
  -25.8147  -33.2562   22.7813 N   0  0  0  0  0  0  0  0  0  0  0  0
  -30.4223  -15.3535   22.3969 N   0  0  0  0  0  0  0  0  0  0  0  0
  -28.6031  -35.0381   24.2365 N   0  3  0  0  0  0  0  0  0  0  0  0
  -28.1435  -21.8723   22.7111 N   0  3  0  0  0  0  0  0  0  0  0  0
  -22.0609  -13.9104   21.0180 O   0  0  0  0  0  0  0  0  0  0  0  0
  -25.0510  -27.6745   22.0001 O   0  0  0  0  0  0  0  0  0  0  0  0
  -24.0500  -31.2507   23.8169 O   0  0  0  0  0  0  0  0  0  0  0  0
  -28.0527  -33.2022   22.1766 O   0  0  0  0  0  0  0  0  0  0  0  0
  -31.7155  -15.8140   20.5604 O   0  0  0  0  0  0  0  0  0  0  0  0
  -23.9491   -6.7195   23.3228 O   0  0  0  0  0  0  0  0  0  0  0  0
  -31.1595  -27.1658   21.6658 O   0  0  0  0  0  0  0  0  0  1  0  0
  -26.8416  -23.1004   20.5321 O   0  0  0  0  0  0  0  0  0  0  0  0
  -31.4106  -25.6872   19.3226 O   0  0  0  0  0  0  0  0  0  0  0  0
  -27.2858  -23.8678   17.8784 O   0  0  0  0  0  0  0  0  0  0  0  0
  -29.8885  -24.6079   17.2377 O   0  0  0  0  0  0  0  0  0  0  0  0
  -19.5393   -4.0755   21.3312 F   0  0  0  0  0  0  0  0  0  0  0  0
  -24.2116   -4.2726   22.0633 F   0  0  0  0  0  0  0  0  0  0  0  0
  1  2  1  0  0  0  0
  1  5  2  0  0  0  0
  2  6  2  0  0  0  0
  3 12  2  0  0  0  0
  3 19  1  0  0  0  0
  4 13  1  0  0  0  0
  4 19  2  0  0  0  0
  5 21  1  0  0  0  0
  6 23  1  0  0  0  0
  7 14  2  0  0  0  0
  7 22  1  0  0  0  0
  8 10  2  0  0  0  0
  8 25  1  0  0  0  0
  9 11  1  0  0  0  0
  9 25  2  0  0  0  0
 10 26  1  0  0  0  0
 11 26  2  0  0  0  0
 12 27  1  0  0  0  0
 13 27  2  0  0  0  0
 14 28  1  0  0  0  0
 15 16  2  0  0  0  0
 15 29  1  0  0  0  0
 16 30  1  0  0  0  0
 17 24  1  0  0  0  0
 17 28  2  0  0  0  0
 18 30  2  0  0  0  0
 18 31  1  0  0  0  0
 19 32  1  0  0  0  0
 20 32  1  0  0  0  0
 20 33  2  0  0  0  0
 20 34  1  0  0  0  0
 21 23  2  0  0  0  0
 21 39  1  0  0  0  0
 22 24  2  0  0  0  0
 22 40  1  0  0  0  0
 23 48  1  0  0  0  0
 24 41  1  0  0  0  0
 25 56  1  0  0  0  0
 26 57  1  0  0  0  0
 27 87  1  0  0  0  0
 28 88  1  0  0  0  0
 29 31  2  0  0  0  0
 29 87  1  0  0  0  0
 30 93  1  0  0  0  0
 31 94  1  0  0  0  0
 32 71  2  0  0  0  0
 33 72  1  0  0  0  0
 33 75  1  0  0  0  0
 34 76  1  0  0  0  0
 34 82  2  0  0  0  0
 35 49  1  0  0  0  0
 35 77  1  0  0  0  0
 35 83  2  0  0  0  0
 36 68  1  0  0  0  0
 36 73  1  0  0  0  0
 36 84  2  0  0  0  0
 37 69  1  0  0  0  0
 37 78  1  0  0  0  0
 37 85  2  0  0  0  0
 38 74  1  0  0  0  0
 38 79  1  0  0  0  0
 38 86  2  0  0  0  0
 39 42  1  0  0  0  0
 40 49  1  0  0  0  0
 41 73  1  0  0  0  0
 42 44  1  0  0  0  0
 43 45  1  0  0  0  0
 43 46  1  0  0  0  0
 44 48  1  0  0  0  0
 45 50  1  0  0  0  0
 46 74  1  0  0  0  0
 47 50  1  0  0  0  0
 47 74  1  0  0  0  0
 48 77  1  0  0  0  0
 49 73  1  0  0  0  0
 50 72  1  0  0  0  0
 51 69  1  0  0  0  0
 52 70  1  0  0  0  0
 53 70  1  0  0  0  0
 54 70  1  0  0  0  0
 55 80  1  0  0  0  0
 56 79  1  0  0  0  0
 57 81  1  0  0  0  0
 58 59  1  0  0  0  0
 58 81  1  0  0  0  0
 59 89  1  0  0  0  0
 60 61  1  0  0  0  0
 60 88  1  0  0  0  0
 61 90  1  0  0  0  0
 62 63  1  0  0  0  0
 62 89  1  0  0  0  0
 63 91  1  0  0  0  0
 64 65  1  0  0  0  0
 64 90  1  0  0  0  0
 65 92  1  0  0  0  0
 66 67  1  0  0  0  0
 66 91  1  0  0  0  0
 67 92  1  0  0  0  0
 68 70  1  0  0  0  0
 68 78  1  0  0  0  0
 69 80  1  0  0  0  0
 71 72  1  0  0  0  0
M  CHG  2  80   1  81   1
M  ISO  4  38 100  60 101  79 100  88 101
M  END
> <Batch ID>
0000

> <Smiles>
CNC(C)C(=O)NC(C(=O)N1Cc2cc([101O:1][101CH2:1]COCCOCCOCCOCCNCc3ccc(C[100NH:0][100C:0](=O)N4CCCC(n5nc(-c6ccc(Oc7ccc(F)cc7F)cc6)c(C(N)=O)c5N)C4)cc3)ccc2CC1C(=O)NC1CCCc2ccccc21)C(C)(C)C

> <Shape>
0.260

> <Color>
0.091

> <Negative vol penalty>
0.000

$$$$

  -OEChem-04052315133D

 99108  0     1  0  0  0  0  0999 V2000
  -17.8379  -28.9951   23.9093 C   0  0  0  0  0  0  0  0  0  0  0  0
  -19.2250  -29.0826   23.9702 C   0  0  0  0  0  0  0  0  0  0  0  0
  -23.6476  -22.6861   23.3707 C   0  0  0  0  0  0  0  0  0  0  0  0
  -24.2936  -12.0359   20.3733 C   0  0  0  0  0  0  0  0  0  0  0  0
  -22.5420  -13.5461   21.0722 C   0  0  0  0  0  0  0  0  0  0  0  0
  -30.1585  -25.0782   22.8874 C   0  0  0  0  0  0  0  0  0  0  0  0
  -17.2360  -28.0496   23.0801 C   0  0  0  0  0  0  0  0  0  0  0  0
  -20.0111  -28.2239   23.2026 C   0  0  0  0  0  0  0  0  0  0  0  0
  -23.8220  -30.6257   20.8890 C   0  0  0  0  0  0  0  0  0  0  0  0
  -24.1792  -21.4829   22.9068 C   0  0  0  0  0  0  0  0  0  0  0  0
  -24.4985  -23.7230   23.7536 C   0  0  0  0  0  0  0  0  0  0  0  0
  -23.6364  -10.9808   21.0061 C   0  0  0  0  0  0  0  0  0  0  0  0
  -21.8848  -12.4910   21.7050 C   0  0  0  0  0  0  0  0  0  0  0  0
  -29.0813  -24.7813   23.7224 C   0  0  0  0  0  0  0  0  0  0  0  0
  -24.9375  -30.9435   21.6626 C   0  0  0  0  0  0  0  0  0  0  0  0
  -21.0115   -8.9448   20.3758 C   0  0  0  0  0  0  0  0  0  0  0  0
  -20.8986   -7.7410   19.6802 C   0  0  0  0  0  0  0  0  0  0  0  0
  -28.6264  -25.5634   21.0834 C   0  0  0  0  0  0  0  0  0  0  0  0
  -26.0953  -29.0242   20.7709 C   0  0  0  0  0  0  0  0  0  0  0  0
  -26.4127  -22.3533   23.2089 C   0  0  0  0  0  0  0  0  0  0  0  0
  -22.1221   -6.6139   21.4323 C   0  0  0  0  0  0  0  0  0  0  0  0
  -23.7464  -13.3186   20.4064 C   0  0  0  0  0  0  0  0  0  0  0  0
  -29.9310  -25.4693   21.5679 C   0  0  0  0  0  0  0  0  0  0  0  0
  -24.2621  -14.8365   18.4220 C   0  0  0  0  0  0  0  0  0  0  0  0
  -18.0149  -27.1853   22.2946 C   0  0  0  0  0  0  0  0  0  0  0  0
  -23.8309  -29.4967   20.0573 C   0  0  0  0  0  0  0  0  0  0  0  0
  -19.4190  -27.2650   22.3631 C   0  0  0  0  0  0  0  0  0  0  0  0
  -24.9796  -28.6957   19.9858 C   0  0  0  0  0  0  0  0  0  0  0  0
  -25.5617  -21.3164   22.8259 C   0  0  0  0  0  0  0  0  0  0  0  0
  -22.4320  -11.2083   21.6719 C   0  0  0  0  0  0  0  0  0  0  0  0
  -26.0733  -30.1411   21.6059 C   0  0  0  0  0  0  0  0  0  0  0  0
  -25.8810  -23.5566   23.6727 C   0  0  0  0  0  0  0  0  0  0  0  0
  -27.7767  -24.8755   23.2379 C   0  0  0  0  0  0  0  0  0  0  0  0
  -21.6797   -8.9832   21.5995 C   0  0  0  0  0  0  0  0  0  0  0  0
  -21.4538   -6.5756   20.2085 C   0  0  0  0  0  0  0  0  0  0  0  0
  -27.5492  -25.2665   21.9184 C   0  0  0  0  0  0  0  0  0  0  0  0
  -22.2350   -7.8177   22.1278 C   0  0  0  0  0  0  0  0  0  0  0  0
  -24.4251  -14.4090   19.7534 C   0  0  0  0  0  0  0  0  0  0  0  0
  -25.1248  -15.8976   18.2941 C   0  0  0  0  0  0  0  0  0  0  0  0
  -31.0781  -25.7851   20.6782 C   0  0  0  0  0  0  0  0  0  0  0  0
  -23.4073  -14.3206   17.3930 C   0  0  0  0  0  0  0  0  0  0  0  0
  -22.1399  -26.8095   19.9050 C   0  0  0  0  0  0  0  0  0  0  0  0
  -23.8484  -26.3476   17.1866 C   0  0  0  0  0  0  0  0  0  0  0  0
  -26.6682  -27.0233   15.3869 C   0  0  0  0  0  0  0  0  0  0  0  0
  -27.4489  -19.7646   22.2120 C   0  0  0  0  0  0  0  0  0  0  0  0
  -17.3196  -26.1479   21.4492 C   0  0  0  0  0  0  0  0  0  0  0  0
  -22.6292  -29.1826   19.2089 C   0  0  0  0  0  0  0  0  0  0  0  0
  -25.0472  -27.4842   19.0936 C   0  0  0  0  0  0  0  0  0  0  0  0
  -18.2200  -25.5264   20.3846 C   0  0  0  0  0  0  0  0  0  0  0  0
  -29.2495  -17.6011   20.0317 C   0  0  0  0  0  0  0  0  0  0  0  0
  -19.5671  -25.1376   20.9855 C   0  0  0  0  0  0  0  0  0  0  0  0
  -28.2004  -16.5794   19.5869 C   0  0  0  0  0  0  0  0  0  0  0  0
  -29.0572  -18.0133   21.4900 C   0  0  0  0  0  0  0  0  0  0  0  0
  -26.6587  -17.4609   21.3850 C   0  0  0  0  0  0  0  0  0  0  0  0
  -20.3054  -26.3677   21.5269 C   0  0  1  0  0  0  0  0  0  0  0  0
  -22.5627  -27.7184   18.7858 C   0  0  1  0  0  0  0  0  0  0  0  0
  -26.7720  -17.0640   19.9040 C   0  0  2  0  0  0  0  0  0  0  0  0
  -27.7999  -26.4696   13.2167 C   0  0  0  0  0  0  0  0  0  0  0  0
  -24.6539  -23.6251   18.3041 C   0  0  0  0  0  0  0  0  0  0  0  0
  -26.4816  -23.5421   16.5950 C   0  0  0  0  0  0  0  0  0  0  0  0
  -24.0976  -23.6288   15.8659 C   0  0  0  0  0  0  0  0  0  0  0  0
  -26.6158  -29.8480   14.5051 C   0  0  0  0  0  0  0  0  0  0  0  0
  -33.4182  -26.6039   20.5800 C   0  0  0  0  0  0  0  0  0  0  0  0
  -33.3630  -28.0804   20.2329 C   0  0  0  0  0  0  0  0  0  0  0  0
  -26.9279  -31.1160   23.5996 C   0  0  0  0  0  0  0  0  0  1  0  0
  -28.0199  -30.7374   24.5812 C   0  0  0  0  0  0  0  0  0  0  0  0
  -33.1929  -30.2364   21.1524 C   0  0  0  0  0  0  0  0  0  0  0  0
  -33.0473  -30.9925   22.4590 C   0  0  0  0  0  0  0  0  0  0  0  0
  -30.3401  -30.8253   24.9446 C   0  0  0  0  0  0  0  0  0  0  0  0
  -31.6514  -31.2736   24.3285 C   0  0  0  0  0  0  0  0  0  0  0  0
  -25.1684  -25.6963   16.8511 C   0  0  1  0  0  0  0  0  0  0  0  0
  -26.8650  -27.4285   13.9372 C   0  0  2  0  0  0  0  0  0  0  0  0
  -25.0987  -24.1447   16.9224 C   0  0  0  0  0  0  0  0  0  0  0  0
  -25.3210  -15.1389   20.4233 N   0  0  0  0  0  0  0  0  0  0  0  0
  -25.7288  -16.0356   19.5091 N   0  0  0  0  0  0  0  0  0  0  0  0
  -23.8446  -27.2151   18.2881 N   0  0  0  0  0  0  0  0  0  0  0  0
  -27.6823  -18.4649   21.7149 N   0  0  0  0  0  0  0  0  0  0  0  0
  -25.4181  -16.7167   17.2618 N   0  0  0  0  0  0  0  0  0  0  0  0
  -22.5849  -13.2263   17.6939 N   0  0  0  0  0  0  0  0  0  0  0  0
  -26.1014  -20.0941   22.3544 N   0  0  0  0  0  0  0  0  0  0  0  0
  -32.1981  -26.2236   21.3281 N   0  0  0  0  0  0  0  0  0  0  0  0
  -20.9041  -27.1157   20.4422 N   0  0  0  0  0  0  0  0  0  0  0  0
  -25.5607  -26.2175   15.5462 N   0  0  0  0  0  0  0  0  0  0  0  0
  -27.4442  -28.7992   13.8565 N   0  3  0  0  0  0  0  0  0  0  0  0
  -30.9480  -25.6581   19.4635 O   0  0  0  0  0  0  0  0  0  0  0  0
  -23.3858  -14.8050   16.2361 O   0  0  0  0  0  0  0  0  0  0  0  0
  -22.8794  -25.8969   20.2544 O   0  0  0  0  0  0  0  0  0  0  0  0
  -22.8589  -26.1015   16.4924 O   0  0  0  0  0  0  0  0  0  0  0  0
  -27.4237  -27.3825   16.2873 O   0  0  0  0  0  0  0  0  0  0  0  0
  -28.3755  -20.5388   22.4650 O   0  0  0  0  0  0  0  0  0  0  0  0
  -21.7903  -10.1789   22.2892 O   0  0  0  0  0  0  0  0  0  0  0  0
  -26.7258  -24.5858   24.0530 O   0  0  0  0  0  0  0  0  0  0  0  0
  -27.1632  -30.4486   22.3604 O   0  0  0  0  0  0  0  0  0  1  0  0
  -33.2483  -28.8418   21.4269 O   0  0  0  0  0  0  0  0  0  0  0  0
  -29.2765  -31.1559   24.0624 O   0  0  0  0  0  0  0  0  0  0  0  0
  -31.8404  -30.5935   23.0935 O   0  0  0  0  0  0  0  0  0  0  0  0
  -21.3440   -5.4194   19.5412 F   0  0  0  0  0  0  0  0  0  0  0  0
  -26.2982  -25.3595   21.4467 F   0  0  0  0  0  0  0  0  0  0  0  0
  -22.8772   -7.8481   23.3036 F   0  0  0  0  0  0  0  0  0  0  0  0
  1  2  1  0  0  0  0
  1  7  2  0  0  0  0
  2  8  2  0  0  0  0
  3 10  1  0  0  0  0
  3 11  2  0  0  0  0
  4 12  2  0  0  0  0
  4 22  1  0  0  0  0
  5 13  1  0  0  0  0
  5 22  2  0  0  0  0
  6 14  2  0  0  0  0
  6 23  1  0  0  0  0
  7 25  1  0  0  0  0
  8 27  1  0  0  0  0
  9 15  2  0  0  0  0
  9 26  1  0  0  0  0
 10 29  2  0  0  0  0
 11 32  1  0  0  0  0
 12 30  1  0  0  0  0
 13 30  2  0  0  0  0
 14 33  1  0  0  0  0
 15 31  1  0  0  0  0
 16 17  2  0  0  0  0
 16 34  1  0  0  0  0
 17 35  1  0  0  0  0
 18 23  2  0  0  0  0
 18 36  1  0  0  0  0
 19 28  1  0  0  0  0
 19 31  2  0  0  0  0
 20 29  1  0  0  0  0
 20 32  2  0  0  0  0
 21 35  2  0  0  0  0
 21 37  1  0  0  0  0
 22 38  1  0  0  0  0
 23 40  1  0  0  0  0
 24 38  1  0  0  0  0
 24 39  2  0  0  0  0
 24 41  1  0  0  0  0
 25 27  2  0  0  0  0
 25 46  1  0  0  0  0
 26 28  2  0  0  0  0
 26 47  1  0  0  0  0
 27 55  1  0  0  0  0
 28 48  1  0  0  0  0
 29 80  1  0  0  0  0
 30 91  1  0  0  0  0
 31 93  1  0  0  0  0
 32 92  1  0  0  0  0
 33 36  2  0  0  0  0
 33 92  1  0  0  0  0
 34 37  2  0  0  0  0
 34 91  1  0  0  0  0
 35 97  1  0  0  0  0
 36 98  1  0  0  0  0
 37 99  1  0  0  0  0
 38 74  2  0  0  0  0
 39 75  1  0  0  0  0
 39 78  1  0  0  0  0
 40 81  1  0  0  0  0
 40 85  2  0  0  0  0
 41 79  1  0  0  0  0
 41 86  2  0  0  0  0
 42 56  1  0  0  0  0
 42 82  1  0  0  0  0
 42 87  2  0  0  0  0
 43 71  1  0  0  0  0
 43 76  1  0  0  0  0
 43 88  2  0  0  0  0
 44 72  1  0  0  0  0
 44 83  1  0  0  0  0
 44 89  2  0  0  0  0
 45 77  1  0  0  0  0
 45 80  1  0  0  0  0
 45 90  2  0  0  0  0
 46 49  1  0  0  0  0
 47 56  1  0  0  0  0
 48 76  1  0  0  0  0
 49 51  1  0  0  0  0
 50 52  1  0  0  0  0
 50 53  1  0  0  0  0
 51 55  1  0  0  0  0
 52 57  1  0  0  0  0
 53 77  1  0  0  0  0
 54 57  1  0  0  0  0
 54 77  1  0  0  0  0
 55 82  1  0  0  0  0
 56 76  1  0  0  0  0
 57 75  1  0  0  0  0
 58 72  1  0  0  0  0
 59 73  1  0  0  0  0
 60 73  1  0  0  0  0
 61 73  1  0  0  0  0
 62 84  1  0  0  0  0
 63 64  1  0  0  0  0
 63 81  1  0  0  0  0
 64 94  1  0  0  0  0
 65 66  1  0  0  0  0
 65 93  1  0  0  0  0
 66 95  1  0  0  0  0
 67 68  1  0  0  0  0
 67 94  1  0  0  0  0
 68 96  1  0  0  0  0
 69 70  1  0  0  0  0
 69 95  1  0  0  0  0
 70 96  1  0  0  0  0
 71 73  1  0  0  0  0
 71 83  1  0  0  0  0
 72 84  1  0  0  0  0
 74 75  1  0  0  0  0
M  CHG  1  84   1
M  ISO  4  45 100  65 101  80 100  93 101
M  END
> <Batch ID>
0000

> <Smiles>
CNC(C)C(=O)NC(C(=O)N1Cc2cc([101O:1][101CH2:1]COCCOCCOCCNC(=O)c3ccc(Oc4cccc([100NH:0][100C:0](=O)N5CCCC(n6nc(-c7ccc(Oc8ccc(F)cc8F)cc7)c(C(N)=O)c6N)C5)c4)c(F)c3)ccc2CC1C(=O)NC1CCCc2ccccc21)C(C)(C)C

> <Shape>
0.229

> <Color>
0.055

> <Negative vol penalty>
0.000

$$$$

  -OEChem-04052315133D

 91 99  0     1  0  0  0  0  0999 V2000
  -30.9375  -26.4112   16.7339 C   0  0  0  0  0  0  0  0  0  0  0  0
  -29.5689  -26.2053   16.8753 C   0  0  0  0  0  0  0  0  0  0  0  0
  -30.4077  -21.0923   13.0927 C   0  0  0  0  0  0  0  0  0  0  0  0
  -29.5978  -20.0587   12.6222 C   0  0  0  0  0  0  0  0  0  0  0  0
  -27.2591  -18.6787   22.9860 C   0  0  0  0  0  0  0  0  0  0  0  0
  -27.6831  -18.1204   20.6740 C   0  0  0  0  0  0  0  0  0  0  0  0
  -31.6770  -26.9280   17.7968 C   0  0  0  0  0  0  0  0  0  0  0  0
  -28.9393  -26.5151   18.0803 C   0  0  0  0  0  0  0  0  0  0  0  0
  -23.2656  -28.7008   18.8142 C   0  0  0  0  0  0  0  0  0  0  0  0
  -29.8291  -22.2431   13.6282 C   0  0  0  0  0  0  0  0  0  0  0  0
  -28.2094  -20.1758   12.6872 C   0  0  0  0  0  0  0  0  0  0  0  0
  -27.0172  -17.3339   23.2664 C   0  0  0  0  0  0  0  0  0  0  0  0
  -27.4413  -16.7756   20.9543 C   0  0  0  0  0  0  0  0  0  0  0  0
  -22.0573  -28.0843   19.1363 C   0  0  0  0  0  0  0  0  0  0  0  0
  -24.7587  -14.7698   21.4139 C   0  0  0  0  0  0  0  0  0  0  0  0
  -23.9519  -14.0577   20.5265 C   0  0  0  0  0  0  0  0  0  0  0  0
  -22.3856  -28.6657   21.4544 C   0  0  0  0  0  0  0  0  0  0  0  0
  -25.7738  -12.5307   20.0953 C   0  0  0  0  0  0  0  0  0  0  0  0
  -27.5920  -19.0720   21.6898 C   0  0  0  0  0  0  0  0  0  0  0  0
  -28.8317  -21.2840   21.9684 C   0  0  0  0  0  0  0  0  0  0  0  0
  -31.0545  -27.2533   19.0123 C   0  0  0  0  0  0  0  0  0  0  0  0
  -24.0496  -29.2958   19.8131 C   0  0  0  0  0  0  0  0  0  0  0  0
  -29.6714  -27.0354   19.1610 C   0  0  0  0  0  0  0  0  0  0  0  0
  -23.6022  -29.2913   21.1420 C   0  0  0  0  0  0  0  0  0  0  0  0
  -28.4407  -22.3602   13.6932 C   0  0  0  0  0  0  0  0  0  0  0  0
  -27.1084  -16.3823   22.2506 C   0  0  0  0  0  0  0  0  0  0  0  0
  -21.6185  -28.0642   20.4569 C   0  0  0  0  0  0  0  0  0  0  0  0
  -27.6308  -21.3266   13.2227 C   0  0  0  0  0  0  0  0  0  0  0  0
  -26.0731  -14.3624   21.6419 C   0  0  0  0  0  0  0  0  0  0  0  0
  -24.4594  -12.9381   19.8672 C   0  0  0  0  0  0  0  0  0  0  0  0
  -26.5807  -13.2428   20.9827 C   0  0  0  0  0  0  0  0  0  0  0  0
  -27.8413  -20.4611   21.3994 C   0  0  0  0  0  0  0  0  0  0  0  0
  -28.6533  -22.5042   21.3636 C   0  0  0  0  0  0  0  0  0  0  0  0
  -29.8242  -20.9732   22.9553 C   0  0  0  0  0  0  0  0  0  0  0  0
  -26.9723  -28.8034   20.9616 C   0  0  0  0  0  0  0  0  0  0  0  0
  -26.3367  -31.4940   22.6583 C   0  0  0  0  0  0  0  0  0  0  0  0
  -24.0004  -33.5851   24.0060 C   0  0  0  0  0  0  0  0  0  0  0  0
  -26.2776  -24.1470   16.1188 C   0  0  0  0  0  0  0  0  0  0  0  0
  -31.9037  -27.7650   20.1487 C   0  0  0  0  0  0  0  0  0  0  0  0
  -25.3376  -29.9801   19.4453 C   0  0  0  0  0  0  0  0  0  0  0  0
  -24.3969  -29.9336   22.2485 C   0  0  0  0  0  0  0  0  0  0  0  0
  -31.0955  -28.4183   21.2668 C   0  0  0  0  0  0  0  0  0  0  0  0
  -25.2718  -25.2305   19.3578 C   0  0  0  0  0  0  0  0  0  0  0  0
  -29.8972  -27.5500   21.6369 C   0  0  0  0  0  0  0  0  0  0  0  0
  -25.9057  -24.2053   20.2996 C   0  0  0  0  0  0  0  0  0  0  0  0
  -24.7987  -24.5852   18.0571 C   0  0  0  0  0  0  0  0  0  0  0  0
  -26.4605  -22.7796   18.2851 C   0  0  0  0  0  0  0  0  0  0  0  0
  -28.9481  -27.3823   20.4442 C   0  0  1  0  0  0  0  0  0  0  0  0
  -26.3042  -30.1049   20.6190 C   0  0  1  0  0  0  0  0  0  0  0  0
  -27.0036  -23.3929   19.5871 C   0  0  2  0  0  0  0  0  0  0  0  0
  -23.0831  -35.6101   25.1701 C   0  0  0  0  0  0  0  0  0  0  0  0
  -27.0630  -29.9285   25.1746 C   0  0  0  0  0  0  0  0  0  0  0  0
  -25.9411  -31.7135   26.5248 C   0  0  0  0  0  0  0  0  0  0  0  0
  -27.9251  -32.2755   25.1209 C   0  0  0  0  0  0  0  0  0  0  0  0
  -23.8090  -35.0993   21.4704 C   0  0  0  0  0  0  0  0  0  0  0  0
  -27.8389  -23.5991   14.2691 C   0  0  0  0  0  0  0  0  0  0  0  0
  -20.7016  -21.6869   18.1015 C   0  0  0  0  0  0  0  0  0  0  0  0
  -20.3383  -20.4842   17.2378 C   0  0  0  0  0  0  0  0  0  0  0  0
  -19.2275  -25.3765   20.7921 C   0  0  0  0  0  0  0  0  0  0  0  0
  -24.2998  -21.0427   14.5887 C   0  0  0  0  0  0  0  0  0  0  0  0
  -19.4623  -22.3827   18.6464 C   0  0  0  0  0  0  0  0  0  0  0  0
  -21.5781  -19.7633   16.7281 C   0  0  0  0  0  0  0  0  0  0  0  0
  -20.0322  -26.3632   19.9608 C   0  0  0  0  0  0  0  0  0  1  0  0
  -25.5804  -20.4383   14.0368 C   0  0  0  0  0  0  0  0  0  0  0  0
  -18.7506  -24.1925   19.9658 C   0  0  0  0  0  0  0  0  0  0  0  0
  -23.5157  -20.0467   15.4288 C   0  0  0  0  0  0  0  0  0  0  0  0
  -25.7115  -31.7888   24.0004 C   0  0  1  0  0  0  0  0  0  0  0  0
  -23.8593  -35.0960   23.9676 C   0  0  2  0  0  0  0  0  0  0  0  0
  -26.6459  -31.4127   25.1849 C   0  0  0  0  0  0  0  0  0  0  0  0
  -27.0894  -21.1043   20.5022 N   0  0  0  0  0  0  0  0  0  0  0  0
  -27.6075  -22.3443   20.5029 N   0  0  0  0  0  0  0  0  0  0  0  0
  -25.6525  -30.5845   21.8394 N   0  0  0  0  0  0  0  0  0  0  0  0
  -25.8874  -23.8313   17.4307 N   0  0  0  0  0  0  0  0  0  0  0  0
  -29.2906  -23.6876   21.4895 N   0  0  0  0  0  0  0  0  0  0  0  0
  -31.0711  -20.5010   22.5233 N   0  0  0  0  0  0  0  0  0  0  0  0
  -28.1442  -28.5725   20.2667 N   0  0  0  0  0  0  0  0  0  0  0  0
  -25.3223  -33.1945   23.9695 N   0  0  0  0  0  0  0  0  0  0  0  0
  -27.3213  -23.3886   15.6027 N   0  0  0  0  0  0  0  0  0  0  0  0
  -23.1432  -35.5181   22.7306 N   0  3  0  0  0  0  0  0  0  0  0  0
  -29.6060  -21.0945   24.1846 O   0  0  0  0  0  0  0  0  0  0  0  0
  -26.4631  -28.0640   21.7957 O   0  0  0  0  0  0  0  0  0  0  0  0
  -27.3894  -32.0555   22.3451 O   0  0  0  0  0  0  0  0  0  0  0  0
  -23.0348  -32.8272   24.0664 O   0  0  0  0  0  0  0  0  0  0  0  0
  -25.7396  -25.0422   15.4584 O   0  0  0  0  0  0  0  0  0  0  0  0
  -26.8727  -15.0700   22.5239 O   0  0  0  0  0  0  0  0  0  0  0  0
  -20.4398  -27.4626   20.7742 O   0  0  0  0  0  0  0  0  0  1  0  0
  -26.2648  -21.4259   13.2783 O   0  0  0  0  0  0  0  0  0  0  0  0
  -19.8679  -23.4988   19.4271 O   0  0  0  0  0  0  0  0  0  0  0  0
  -22.3400  -20.6637   15.9359 O   0  0  0  0  0  0  0  0  0  0  0  0
  -23.6840  -12.2535   19.0162 F   0  0  0  0  0  0  0  0  0  0  0  0
  -27.8423  -12.8459   21.1986 F   0  0  0  0  0  0  0  0  0  0  0  0
  1  2  1  0  0  0  0
  1  7  2  0  0  0  0
  2  8  2  0  0  0  0
  3  4  1  0  0  0  0
  3 10  2  0  0  0  0
  4 11  2  0  0  0  0
  5 12  2  0  0  0  0
  5 19  1  0  0  0  0
  6 13  1  0  0  0  0
  6 19  2  0  0  0  0
  7 21  1  0  0  0  0
  8 23  1  0  0  0  0
  9 14  2  0  0  0  0
  9 22  1  0  0  0  0
 10 25  1  0  0  0  0
 11 28  1  0  0  0  0
 12 26  1  0  0  0  0
 13 26  2  0  0  0  0
 14 27  1  0  0  0  0
 15 16  2  0  0  0  0
 15 29  1  0  0  0  0
 16 30  1  0  0  0  0
 17 24  1  0  0  0  0
 17 27  2  0  0  0  0
 18 30  2  0  0  0  0
 18 31  1  0  0  0  0
 19 32  1  0  0  0  0
 20 32  1  0  0  0  0
 20 33  2  0  0  0  0
 20 34  1  0  0  0  0
 21 23  2  0  0  0  0
 21 39  1  0  0  0  0
 22 24  2  0  0  0  0
 22 40  1  0  0  0  0
 23 48  1  0  0  0  0
 24 41  1  0  0  0  0
 25 28  2  0  0  0  0
 25 56  1  0  0  0  0
 26 85  1  0  0  0  0
 27 86  1  0  0  0  0
 28 87  1  0  0  0  0
 29 31  2  0  0  0  0
 29 85  1  0  0  0  0
 30 90  1  0  0  0  0
 31 91  1  0  0  0  0
 32 70  2  0  0  0  0
 33 71  1  0  0  0  0
 33 74  1  0  0  0  0
 34 75  1  0  0  0  0
 34 80  2  0  0  0  0
 35 49  1  0  0  0  0
 35 76  1  0  0  0  0
 35 81  2  0  0  0  0
 36 67  1  0  0  0  0
 36 72  1  0  0  0  0
 36 82  2  0  0  0  0
 37 68  1  0  0  0  0
 37 77  1  0  0  0  0
 37 83  2  0  0  0  0
 38 73  1  0  0  0  0
 38 78  1  0  0  0  0
 38 84  2  0  0  0  0
 39 42  1  0  0  0  0
 40 49  1  0  0  0  0
 41 72  1  0  0  0  0
 42 44  1  0  0  0  0
 43 45  1  0  0  0  0
 43 46  1  0  0  0  0
 44 48  1  0  0  0  0
 45 50  1  0  0  0  0
 46 73  1  0  0  0  0
 47 50  1  0  0  0  0
 47 73  1  0  0  0  0
 48 76  1  0  0  0  0
 49 72  1  0  0  0  0
 50 71  1  0  0  0  0
 51 68  1  0  0  0  0
 52 69  1  0  0  0  0
 53 69  1  0  0  0  0
 54 69  1  0  0  0  0
 55 79  1  0  0  0  0
 56 78  1  0  0  0  0
 57 58  1  0  0  0  0
 57 61  1  0  0  0  0
 58 62  1  0  0  0  0
 59 63  1  0  0  0  0
 59 65  1  0  0  0  0
 60 64  1  0  0  0  0
 60 66  1  0  0  0  0
 61 88  1  0  0  0  0
 62 89  1  0  0  0  0
 63 86  1  0  0  0  0
 64 87  1  0  0  0  0
 65 88  1  0  0  0  0
 66 89  1  0  0  0  0
 67 69  1  0  0  0  0
 67 77  1  0  0  0  0
 68 79  1  0  0  0  0
 70 71  1  0  0  0  0
M  CHG  1  79   1
M  ISO  4  38 100  63 101  78 100  86 101
M  END
> <Batch ID>
0000

> <Smiles>
CNC(C)C(=O)NC(C(=O)N1Cc2cc([101O:1][101CH2:1]CCOCCCCOCCCOc3ccccc3C[100NH:0][100C:0](=O)N3CCCC(n4nc(-c5ccc(Oc6ccc(F)cc6F)cc5)c(C(N)=O)c4N)C3)ccc2CC1C(=O)NC1CCCc2ccccc21)C(C)(C)C

> <Shape>
0.238

> <Color>
0.059

> <Negative vol penalty>
0.000

$$$$

  -OEChem-04052315133D

 78 86  0     1  0  0  0  0  0999 V2000
  -26.6841  -10.9203   17.4068 C   0  0  0  0  0  0  0  0  0  0  0  0
  -25.9165  -12.0441   17.6955 C   0  0  0  0  0  0  0  0  0  0  0  0
  -19.9748  -20.0918   15.6358 C   0  0  0  0  0  0  0  0  0  0  0  0
  -26.2164  -29.3106   20.5870 C   0  0  0  0  0  0  0  0  0  0  0  0
  -23.8093  -29.2573   20.3869 C   0  0  0  0  0  0  0  0  0  0  0  0
  -27.9824  -10.8178   17.9046 C   0  0  0  0  0  0  0  0  0  0  0  0
  -26.4464  -13.0655   18.4831 C   0  0  0  0  0  0  0  0  0  0  0  0
  -25.4958  -17.6671   16.5943 C   0  0  0  0  0  0  0  0  0  0  0  0
  -20.6014  -20.8556   14.6511 C   0  0  0  0  0  0  0  0  0  0  0  0
  -20.6913  -19.6775   16.7585 C   0  0  0  0  0  0  0  0  0  0  0  0
  -26.1283  -30.4847   21.3348 C   0  0  0  0  0  0  0  0  0  0  0  0
  -23.7211  -30.4314   21.1348 C   0  0  0  0  0  0  0  0  0  0  0  0
  -24.2173  -18.1859   16.7945 C   0  0  0  0  0  0  0  0  0  0  0  0
  -26.5161  -33.2993   23.6026 C   0  0  0  0  0  0  0  0  0  0  0  0
  -27.2957  -33.3941   24.7552 C   0  0  0  0  0  0  0  0  0  0  0  0
  -25.0503  -19.5155   18.6269 C   0  0  0  0  0  0  0  0  0  0  0  0
  -22.6613  -20.7908   15.9118 C   0  0  0  0  0  0  0  0  0  0  0  0
  -26.1775  -31.4580   25.6708 C   0  0  0  0  0  0  0  0  0  0  0  0
  -25.0569  -28.6969   20.1130 C   0  0  0  0  0  0  0  0  0  0  0  0
  -25.1360  -26.1633   19.8263 C   0  0  0  0  0  0  0  0  0  0  0  0
  -28.5320  -11.8429   18.6907 C   0  0  0  0  0  0  0  0  0  0  0  0
  -26.5607  -18.0611   17.4173 C   0  0  0  0  0  0  0  0  0  0  0  0
  -27.7528  -12.9760   18.9929 C   0  0  0  0  0  0  0  0  0  0  0  0
  -26.3419  -19.0022   18.4334 C   0  0  0  0  0  0  0  0  0  0  0  0
  -21.9447  -21.2051   14.7892 C   0  0  0  0  0  0  0  0  0  0  0  0
  -24.8807  -31.0451   21.6087 C   0  0  0  0  0  0  0  0  0  0  0  0
  -23.9938  -19.1080   17.8127 C   0  0  0  0  0  0  0  0  0  0  0  0
  -22.0346  -20.0270   16.8965 C   0  0  0  0  0  0  0  0  0  1  0  0
  -25.5670  -32.2839   23.4840 C   0  0  0  0  0  0  0  0  0  0  0  0
  -27.1265  -32.4734   25.7893 C   0  0  0  0  0  0  0  0  0  0  0  0
  -25.3978  -31.3633   24.5181 C   0  0  0  0  0  0  0  0  0  0  0  0
  -25.1473  -27.4843   19.3400 C   0  0  0  0  0  0  0  0  0  0  0  0
  -25.2459  -25.3824   18.7017 C   0  0  0  0  0  0  0  0  0  0  0  0
  -25.0350  -25.6848   21.1741 C   0  0  0  0  0  0  0  0  0  0  0  0
  -28.5059  -16.5659   19.4382 C   0  0  0  0  0  0  0  0  0  0  0  0
  -29.9681  -19.4589   19.5605 C   0  0  0  0  0  0  0  0  0  0  0  0
  -29.7385  -22.8404   19.1610 C   0  0  0  0  0  0  0  0  0  0  0  0
  -23.7955  -24.1852   13.4474 C   0  0  0  0  0  0  0  0  0  0  0  0
  -29.9231  -11.6657   19.2455 C   0  0  0  0  0  0  0  0  0  0  0  0
  -27.9394  -17.5124   17.1713 C   0  0  0  0  0  0  0  0  0  0  0  0
  -27.4556  -19.4731   19.3314 C   0  0  0  0  0  0  0  0  0  0  0  0
  -30.5429  -12.9620   19.7612 C   0  0  0  0  0  0  0  0  0  0  0  0
  -26.3418  -26.6277   13.9232 C   0  0  0  0  0  0  0  0  0  0  0  0
  -29.5451  -13.7225   20.6288 C   0  0  0  0  0  0  0  0  0  0  0  0
  -26.2528  -26.9636   15.4129 C   0  0  0  0  0  0  0  0  0  0  0  0
  -24.9634  -26.3660   13.3203 C   0  0  0  0  0  0  0  0  0  0  0  0
  -24.0734  -25.6835   15.5147 C   0  0  0  0  0  0  0  0  0  0  0  0
  -28.3012  -14.1163   19.8231 C   0  0  1  0  0  0  0  0  0  0  0  0
  -28.8433  -17.5957   18.3974 C   0  0  1  0  0  0  0  0  0  0  0  0
  -25.4433  -25.9007   16.1799 C   0  0  2  0  0  0  0  0  0  0  0  0
  -31.0889  -24.9450   19.3711 C   0  0  0  0  0  0  0  0  0  0  0  0
  -29.6895  -19.3316   22.5963 C   0  0  0  0  0  0  0  0  0  0  0  0
  -30.1591  -21.7896   22.6727 C   0  0  0  0  0  0  0  0  0  0  0  0
  -31.8828  -20.2193   21.7863 C   0  0  0  0  0  0  0  0  0  0  0  0
  -29.4207  -23.4692   16.2865 C   0  0  0  0  0  0  0  0  0  0  0  0
  -22.6139  -22.0219   13.7363 C   0  0  0  0  0  0  0  0  0  0  0  0
  -29.8171  -20.6981   20.4094 C   0  0  1  0  0  0  0  0  0  0  0  0
  -30.6330  -23.8325   18.4399 C   0  0  2  0  0  0  0  0  0  0  0  0
  -30.3655  -20.4995   21.8507 C   0  0  0  0  0  0  0  0  0  0  0  0
  -25.2560  -27.5432   18.0100 N   0  0  0  0  0  0  0  0  0  0  0  0
  -25.3141  -26.2495   17.6511 N   0  0  0  0  0  0  0  0  0  0  0  0
  -28.7845  -18.9027   19.0551 N   0  0  0  0  0  0  0  0  0  0  0  0
  -24.2485  -25.3474   14.0931 N   0  0  0  0  0  0  0  0  0  0  0  0
  -25.2899  -24.0456   18.5190 N   0  0  0  0  0  0  0  0  0  0  0  0
  -24.9289  -26.6229   22.2099 N   0  0  0  0  0  0  0  0  0  0  0  0
  -28.5833  -15.2625   18.9859 N   0  0  0  0  0  0  0  0  0  0  0  0
  -30.4581  -21.7801   19.6700 N   0  0  0  0  0  0  0  0  0  0  0  0
  -23.1329  -23.2682   14.2542 N   0  0  0  0  0  0  0  0  0  0  0  0
  -29.9058  -24.4476   17.2936 N   0  3  0  0  0  0  0  0  0  0  0  0
  -25.0553  -24.4619   21.4530 O   0  0  0  0  0  0  0  0  0  0  0  0
  -28.1997  -16.9270   20.5685 O   0  0  0  0  0  0  0  0  0  0  0  0
  -31.0953  -19.0054   19.3476 O   0  0  0  0  0  0  0  0  0  0  0  0
  -28.5234  -22.9928   19.2657 O   0  0  0  0  0  0  0  0  0  0  0  0
  -23.9733  -23.9774   12.2423 O   0  0  0  0  0  0  0  0  0  0  0  0
  -24.7943  -32.1907   22.3386 O   0  0  0  0  0  0  0  0  0  0  0  0
  -22.7467  -19.6154   18.0107 O   0  0  0  0  0  0  0  0  0  1  0  0
  -27.8763  -32.5636   26.8956 F   0  0  0  0  0  0  0  0  0  0  0  0
  -24.4885  -30.3849   24.4094 F   0  0  0  0  0  0  0  0  0  0  0  0
  1  2  1  0  0  0  0
  1  6  2  0  0  0  0
  2  7  2  0  0  0  0
  3  9  1  0  0  0  0
  3 10  2  0  0  0  0
  4 11  2  0  0  0  0
  4 19  1  0  0  0  0
  5 12  1  0  0  0  0
  5 19  2  0  0  0  0
  6 21  1  0  0  0  0
  7 23  1  0  0  0  0
  8 13  2  0  0  0  0
  8 22  1  0  0  0  0
  9 25  2  0  0  0  0
 10 28  1  0  0  0  0
 11 26  1  0  0  0  0
 12 26  2  0  0  0  0
 13 27  1  0  0  0  0
 14 15  2  0  0  0  0
 14 29  1  0  0  0  0
 15 30  1  0  0  0  0
 16 24  1  0  0  0  0
 16 27  2  0  0  0  0
 17 25  1  0  0  0  0
 17 28  2  0  0  0  0
 18 30  2  0  0  0  0
 18 31  1  0  0  0  0
 19 32  1  0  0  0  0
 20 32  1  0  0  0  0
 20 33  2  0  0  0  0
 20 34  1  0  0  0  0
 21 23  2  0  0  0  0
 21 39  1  0  0  0  0
 22 24  2  0  0  0  0
 22 40  1  0  0  0  0
 23 48  1  0  0  0  0
 24 41  1  0  0  0  0
 25 56  1  0  0  0  0
 26 75  1  0  0  0  0
 27 76  1  0  0  0  0
 28 76  1  0  0  0  0
 29 31  2  0  0  0  0
 29 75  1  0  0  0  0
 30 77  1  0  0  0  0
 31 78  1  0  0  0  0
 32 60  2  0  0  0  0
 33 61  1  0  0  0  0
 33 64  1  0  0  0  0
 34 65  1  0  0  0  0
 34 70  2  0  0  0  0
 35 49  1  0  0  0  0
 35 66  1  0  0  0  0
 35 71  2  0  0  0  0
 36 57  1  0  0  0  0
 36 62  1  0  0  0  0
 36 72  2  0  0  0  0
 37 58  1  0  0  0  0
 37 67  1  0  0  0  0
 37 73  2  0  0  0  0
 38 63  1  0  0  0  0
 38 68  1  0  0  0  0
 38 74  2  0  0  0  0
 39 42  1  0  0  0  0
 40 49  1  0  0  0  0
 41 62  1  0  0  0  0
 42 44  1  0  0  0  0
 43 45  1  0  0  0  0
 43 46  1  0  0  0  0
 44 48  1  0  0  0  0
 45 50  1  0  0  0  0
 46 63  1  0  0  0  0
 47 50  1  0  0  0  0
 47 63  1  0  0  0  0
 48 66  1  0  0  0  0
 49 62  1  0  0  0  0
 50 61  1  0  0  0  0
 51 58  1  0  0  0  0
 52 59  1  0  0  0  0
 53 59  1  0  0  0  0
 54 59  1  0  0  0  0
 55 69  1  0  0  0  0
 56 68  1  0  0  0  0
 57 59  1  0  0  0  0
 57 67  1  0  0  0  0
 58 69  1  0  0  0  0
 60 61  1  0  0  0  0
M  CHG  1  69   1
M  ISO  4  28 101  38 100  68 100  76 101
M  END
> <Batch ID>
0000

> <Smiles>
CNC(C)C(=O)NC(C(=O)N1Cc2cc([101O:1][101c:1]3cccc(C[100NH:0][100C:0](=O)N4CCCC(n5nc(-c6ccc(Oc7ccc(F)cc7F)cc6)c(C(N)=O)c5N)C4)c3)ccc2CC1C(=O)NC1CCCc2ccccc21)C(C)(C)C

> <Shape>
0.233

> <Color>
0.052

> <Negative vol penalty>
0.000

$$$$

  -OEChem-04052315133D

 98106  0     1  0  0  0  0  0999 V2000
  -24.8497  -27.0504   11.2786 C   0  0  0  0  0  0  0  0  0  0  0  0
  -24.3832  -26.1588   12.2393 C   0  0  0  0  0  0  0  0  0  0  0  0
  -27.7939  -23.1994   20.3692 C   0  0  0  0  0  0  0  0  0  0  0  0
  -28.8831  -23.9166   18.3354 C   0  0  0  0  0  0  0  0  0  0  0  0
  -25.5066  -28.2158   11.6713 C   0  0  0  0  0  0  0  0  0  0  0  0
  -24.5743  -26.4317   13.5934 C   0  0  0  0  0  0  0  0  0  0  0  0
  -20.4158  -25.5749   16.3535 C   0  0  0  0  0  0  0  0  0  0  0  0
  -27.6935  -24.5274   20.7837 C   0  0  0  0  0  0  0  0  0  0  0  0
  -28.7827  -25.2446   18.7499 C   0  0  0  0  0  0  0  0  0  0  0  0
  -20.1234  -24.2488   16.6694 C   0  0  0  0  0  0  0  0  0  0  0  0
  -29.1373  -28.7964   19.4348 C   0  0  0  0  0  0  0  0  0  0  0  0
  -30.2606  -29.6093   19.2840 C   0  0  0  0  0  0  0  0  0  0  0  0
  -22.7867  -15.5667   22.6655 C   0  0  0  0  0  0  0  0  0  0  0  0
  -21.6999  -16.0414   20.5607 C   0  0  0  0  0  0  0  0  0  0  0  0
  -21.0665  -24.5705   18.8662 C   0  0  0  0  0  0  0  0  0  0  0  0
  -23.0785  -17.7225   21.6145 C   0  0  0  0  0  0  0  0  0  0  0  0
  -31.5211  -28.1345   20.7240 C   0  0  0  0  0  0  0  0  0  0  0  0
  -28.3888  -22.8939   19.1450 C   0  0  0  0  0  0  0  0  0  0  0  0
  -21.9649  -15.1646   21.6127 C   0  0  0  0  0  0  0  0  0  0  0  0
  -27.5566  -20.7948   17.9581 C   0  0  0  0  0  0  0  0  0  0  0  0
  -25.6973  -28.5078   13.0311 C   0  0  0  0  0  0  0  0  0  0  0  0
  -21.0468  -26.4070   17.2893 C   0  0  0  0  0  0  0  0  0  0  0  0
  -25.2355  -27.6015   14.0046 C   0  0  0  0  0  0  0  0  0  0  0  0
  -21.3636  -25.9075   18.5606 C   0  0  0  0  0  0  0  0  0  0  0  0
  -28.1878  -25.5500   19.9741 C   0  0  0  0  0  0  0  0  0  0  0  0
  -20.4513  -23.7456   17.9249 C   0  0  0  0  0  0  0  0  0  0  0  0
  -29.2057  -27.6525   20.2302 C   0  0  0  0  0  0  0  0  0  0  0  0
  -23.3434  -16.8457   22.6665 C   0  0  0  0  0  0  0  0  0  0  0  0
  -22.2567  -17.3204   20.5616 C   0  0  0  0  0  0  0  0  0  0  0  0
  -31.4525  -29.2784   19.9286 C   0  0  0  0  0  0  0  0  0  0  0  0
  -30.3976  -27.3216   20.8747 C   0  0  0  0  0  0  0  0  0  0  0  0
  -28.4933  -21.5223   18.7165 C   0  0  0  0  0  0  0  0  0  0  0  0
  -28.1196  -19.5497   17.8196 C   0  0  0  0  0  0  0  0  0  0  0  0
  -21.3847  -13.8309   21.6121 C   0  0  0  0  0  0  0  0  0  0  0  0
  -26.2907  -21.2077   17.4262 C   0  0  0  0  0  0  0  0  0  0  0  0
  -23.8083  -27.9777   17.3920 C   0  0  0  0  0  0  0  0  0  0  0  0
  -22.5837  -29.1647   20.1513 C   0  0  0  0  0  0  0  0  0  0  0  0
  -24.4318  -18.8026   25.4915 C   0  0  0  0  0  0  0  0  0  0  0  0
  -20.4205  -28.7799   22.7627 C   0  0  0  0  0  0  0  0  0  0  0  0
  -30.7986  -15.1782   20.1499 C   0  0  0  0  0  0  0  0  0  0  0  0
  -26.4548  -29.7569   13.4060 C   0  0  0  0  0  0  0  0  0  0  0  0
  -21.3313  -27.8427   16.9424 C   0  0  0  0  0  0  0  0  0  0  0  0
  -22.0233  -26.7655   19.6080 C   0  0  0  0  0  0  0  0  0  0  0  0
  -26.2858  -30.1555   14.8699 C   0  0  0  0  0  0  0  0  0  0  0  0
  -32.7730  -17.8959   18.8493 C   0  0  0  0  0  0  0  0  0  0  0  0
  -26.4625  -28.9422   15.7773 C   0  0  0  0  0  0  0  0  0  0  0  0
  -31.7682  -19.0323   18.6762 C   0  0  0  0  0  0  0  0  0  0  0  0
  -32.4340  -17.0377   20.0627 C   0  0  0  0  0  0  0  0  0  0  0  0
  -30.0299  -17.6016   19.8516 C   0  0  0  0  0  0  0  0  0  0  0  0
  -25.4017  -27.8745   15.4838 C   0  0  1  0  0  0  0  0  0  0  0  0
  -22.4407  -28.4542   17.7924 C   0  0  1  0  0  0  0  0  0  0  0  0
  -30.3307  -18.4889   18.6290 C   0  0  1  0  0  0  0  0  0  0  0  0
  -19.6720  -29.8967   24.8816 C   0  0  0  0  0  0  0  0  0  0  0  0
  -25.1458  -28.2521   21.5344 C   0  0  0  0  0  0  0  0  0  0  0  0
  -23.9712  -28.5138   23.7298 C   0  0  0  0  0  0  0  0  0  0  0  0
  -24.3134  -30.4972   22.2562 C   0  0  0  0  0  0  0  0  0  0  0  0
  -17.6409  -29.0406   21.7805 C   0  0  0  0  0  0  0  0  0  0  0  0
  -24.1519  -18.6282   24.0175 C   0  0  0  0  0  0  0  0  0  0  0  0
  -21.0680  -20.3083   18.8822 C   0  0  0  0  0  0  0  0  0  0  0  0
  -21.6490  -11.4572   22.3737 C   0  0  0  0  0  0  0  0  0  0  0  0
  -21.0334  -21.8019   19.1656 C   0  0  0  0  0  0  0  0  0  1  0  0
  -21.9944  -19.5697   19.8354 C   0  0  0  0  0  0  0  0  0  0  0  0
  -22.2410  -10.6756   21.2152 C   0  0  0  0  0  0  0  0  0  0  0  0
  -24.2619  -10.0393   20.1983 C   0  0  0  0  0  0  0  0  0  0  0  0
  -25.7686  -10.1836   20.2924 C   0  0  0  0  0  0  0  0  0  0  0  0
  -27.5158  -11.7550   20.2628 C   0  0  0  0  0  0  0  0  0  0  0  0
  -27.8194  -13.2334   20.1143 C   0  0  0  0  0  0  0  0  0  0  0  0
  -22.6123  -28.7453   21.6012 C   0  0  1  0  0  0  0  0  0  0  0  0
  -19.4200  -29.7334   23.3908 C   0  0  2  0  0  0  0  0  0  0  0  0
  -24.0000  -28.9851   22.2602 C   0  0  0  0  0  0  0  0  0  0  0  0
  -29.5696  -20.7994   19.0375 N   0  0  0  0  0  0  0  0  0  0  0  0
  -29.3127  -19.6048   18.4781 N   0  0  0  0  0  0  0  0  0  0  0  0
  -22.2869  -28.1606   19.2188 N   0  0  0  0  0  0  0  0  0  0  0  0
  -31.0521  -16.5539   20.0091 N   0  0  0  0  0  0  0  0  0  0  0  0
  -27.7055  -18.4241   17.2000 N   0  0  0  0  0  0  0  0  0  0  0  0
  -25.8636  -22.5217   17.6617 N   0  0  0  0  0  0  0  0  0  0  0  0
  -24.4580  -20.1279   25.8673 N   0  0  0  0  0  0  0  0  0  0  0  0
  -22.0836  -12.8337   22.3022 N   0  0  0  0  0  0  0  0  0  0  0  0
  -24.1342  -28.2451   16.0760 N   0  0  0  0  0  0  0  0  0  0  0  0
  -21.5123  -29.4492   22.2516 N   0  0  0  0  0  0  0  0  0  0  0  0
  -29.4703  -14.8112   20.0746 N   0  0  0  0  0  0  0  0  0  0  0  0
  -18.0316  -29.2259   23.2017 N   0  3  0  0  0  0  0  0  0  0  0  0
  -20.3250  -13.6039   21.0019 O   0  0  0  0  0  0  0  0  0  0  0  0
  -25.5526  -20.4295   16.7759 O   0  0  0  0  0  0  0  0  0  0  0  0
  -24.5160  -27.4109   18.2163 O   0  0  0  0  0  0  0  0  0  0  0  0
  -22.8091  -30.3414   19.8576 O   0  0  0  0  0  0  0  0  0  0  0  0
  -24.6157  -17.8666   26.2642 O   0  0  0  0  0  0  0  0  0  0  0  0
  -20.2521  -27.5629   22.7321 O   0  0  0  0  0  0  0  0  0  0  0  0
  -31.6956  -14.3455   20.3189 O   0  0  0  0  0  0  0  0  0  0  0  0
  -28.0898  -26.8461   20.3782 O   0  0  0  0  0  0  0  0  0  0  0  0
  -24.1444  -17.2385   23.6948 O   0  0  0  0  0  0  0  0  0  0  0  0
  -20.1676  -22.4515   18.2356 O   0  0  0  0  0  0  0  0  0  1  0  0
  -21.9960  -18.1822   19.5281 O   0  0  0  0  0  0  0  0  0  0  0  0
  -23.6597  -10.7578   21.2660 O   0  0  0  0  0  0  0  0  0  0  0  0
  -26.1109  -11.5598   20.1810 O   0  0  0  0  0  0  0  0  0  0  0  0
  -29.2233  -13.4311   20.2165 O   0  0  0  0  0  0  0  0  0  0  0  0
  -32.5317  -30.0583   19.7825 F   0  0  0  0  0  0  0  0  0  0  0  0
  -30.4699  -26.2234   21.6392 F   0  0  0  0  0  0  0  0  0  0  0  0
  1  2  1  0  0  0  0
  1  5  2  0  0  0  0
  2  6  2  0  0  0  0
  3  8  2  0  0  0  0
  3 18  1  0  0  0  0
  4  9  1  0  0  0  0
  4 18  2  0  0  0  0
  5 21  1  0  0  0  0
  6 23  1  0  0  0  0
  7 10  2  0  0  0  0
  7 22  1  0  0  0  0
  8 25  1  0  0  0  0
  9 25  2  0  0  0  0
 10 26  1  0  0  0  0
 11 12  2  0  0  0  0
 11 27  1  0  0  0  0
 12 30  1  0  0  0  0
 13 19  2  0  0  0  0
 13 28  1  0  0  0  0
 14 19  1  0  0  0  0
 14 29  2  0  0  0  0
 15 24  1  0  0  0  0
 15 26  2  0  0  0  0
 16 28  2  0  0  0  0
 16 29  1  0  0  0  0
 17 30  2  0  0  0  0
 17 31  1  0  0  0  0
 18 32  1  0  0  0  0
 19 34  1  0  0  0  0
 20 32  1  0  0  0  0
 20 33  2  0  0  0  0
 20 35  1  0  0  0  0
 21 23  2  0  0  0  0
 21 41  1  0  0  0  0
 22 24  2  0  0  0  0
 22 42  1  0  0  0  0
 23 50  1  0  0  0  0
 24 43  1  0  0  0  0
 25 90  1  0  0  0  0
 26 92  1  0  0  0  0
 27 31  2  0  0  0  0
 27 90  1  0  0  0  0
 28 91  1  0  0  0  0
 29 93  1  0  0  0  0
 30 97  1  0  0  0  0
 31 98  1  0  0  0  0
 32 71  2  0  0  0  0
 33 72  1  0  0  0  0
 33 75  1  0  0  0  0
 34 78  1  0  0  0  0
 34 83  2  0  0  0  0
 35 76  1  0  0  0  0
 35 84  2  0  0  0  0
 36 51  1  0  0  0  0
 36 79  1  0  0  0  0
 36 85  2  0  0  0  0
 37 68  1  0  0  0  0
 37 73  1  0  0  0  0
 37 86  2  0  0  0  0
 38 58  1  0  0  0  0
 38 77  1  0  0  0  0
 38 87  2  0  0  0  0
 39 69  1  0  0  0  0
 39 80  1  0  0  0  0
 39 88  2  0  0  0  0
 40 74  1  0  0  0  0
 40 81  1  0  0  0  0
 40 89  2  0  0  0  0
 41 44  1  0  0  0  0
 42 51  1  0  0  0  0
 43 73  1  0  0  0  0
 44 46  1  0  0  0  0
 45 47  1  0  0  0  0
 45 48  1  0  0  0  0
 46 50  1  0  0  0  0
 47 52  1  0  0  0  0
 48 74  1  0  0  0  0
 49 52  1  0  0  0  0
 49 74  1  0  0  0  0
 50 79  1  0  0  0  0
 51 73  1  0  0  0  0
 52 72  1  0  0  0  0
 53 69  1  0  0  0  0
 54 70  1  0  0  0  0
 55 70  1  0  0  0  0
 56 70  1  0  0  0  0
 57 82  1  0  0  0  0
 58 91  1  0  0  0  0
 59 61  1  0  0  0  0
 59 62  1  0  0  0  0
 60 63  1  0  0  0  0
 60 78  1  0  0  0  0
 61 92  1  0  0  0  0
 62 93  1  0  0  0  0
 63 94  1  0  0  0  0
 64 65  1  0  0  0  0
 64 94  1  0  0  0  0
 65 95  1  0  0  0  0
 66 67  1  0  0  0  0
 66 95  1  0  0  0  0
 67 96  1  0  0  0  0
 68 70  1  0  0  0  0
 68 80  1  0  0  0  0
 69 82  1  0  0  0  0
 71 72  1  0  0  0  0
 81 96  1  0  0  0  0
M  CHG  1  82   1
M  ISO  4  40 100  61 101  81 100  92 101
M  END
> <Batch ID>
0000

> <Smiles>
CNC(C)C(=O)NC(C(=O)N1Cc2cc([101O:1][101CH2:1]CCOc3cc(OCC(N)=O)cc(C(=O)NCCOCCOCCO[100NH:0][100C:0](=O)N4CCCC(n5nc(-c6ccc(Oc7ccc(F)cc7F)cc6)c(C(N)=O)c5N)C4)c3)ccc2CC1C(=O)NC1CCCc2ccccc21)C(C)(C)C

> <Shape>
0.209

> <Color>
0.082

> <Negative vol penalty>
0.000

$$$$

  -OEChem-04052315133D

 86 94  0     1  0  0  0  0  0999 V2000
  -15.7939  -15.5331   26.5844 C   0  0  0  0  0  0  0  0  0  0  0  0
  -17.0041  -16.1695   26.3274 C   0  0  0  0  0  0  0  0  0  0  0  0
  -31.3071  -22.4702   23.4403 C   0  0  0  0  0  0  0  0  0  0  0  0
  -23.0669   -9.8726   19.9521 C   0  0  0  0  0  0  0  0  0  0  0  0
  -23.8557   -9.8796   22.2357 C   0  0  0  0  0  0  0  0  0  0  0  0
  -30.1105  -22.5962   24.1460 C   0  0  0  0  0  0  0  0  0  0  0  0
  -14.6134  -16.0367   26.0396 C   0  0  0  0  0  0  0  0  0  0  0  0
  -17.0345  -17.3091   25.5245 C   0  0  0  0  0  0  0  0  0  0  0  0
  -19.9450  -20.9728   27.4615 C   0  0  0  0  0  0  0  0  0  0  0  0
  -31.7875  -21.2051   23.1022 C   0  0  0  0  0  0  0  0  0  0  0  0
  -22.3284   -8.7179   20.2108 C   0  0  0  0  0  0  0  0  0  0  0  0
  -23.1171   -8.7249   22.4944 C   0  0  0  0  0  0  0  0  0  0  0  0
  -21.3242  -20.8376   27.3094 C   0  0  0  0  0  0  0  0  0  0  0  0
  -19.8984   -7.9207   23.1372 C   0  0  0  0  0  0  0  0  0  0  0  0
  -19.1563   -7.8786   24.3175 C   0  0  0  0  0  0  0  0  0  0  0  0
  -29.8748  -20.1919   24.1755 C   0  0  0  0  0  0  0  0  0  0  0  0
  -21.2643  -22.3763   25.4525 C   0  0  0  0  0  0  0  0  0  0  0  0
  -20.4106   -5.9431   25.0371 C   0  0  0  0  0  0  0  0  0  0  0  0
  -23.8306  -10.4534   20.9646 C   0  0  0  0  0  0  0  0  0  0  0  0
  -29.3944  -21.4571   24.5136 C   0  0  0  0  0  0  0  0  0  0  0  0
  -24.1661  -12.9793   20.8418 C   0  0  0  0  0  0  0  0  0  0  0  0
  -14.6282  -17.1887   25.2375 C   0  0  0  0  0  0  0  0  0  0  0  0
  -19.2122  -21.8037   26.6018 C   0  0  0  0  0  0  0  0  0  0  0  0
  -15.8533  -17.8278   24.9674 C   0  0  0  0  0  0  0  0  0  0  0  0
  -19.8762  -22.5223   25.5974 C   0  0  0  0  0  0  0  0  0  0  0  0
  -22.3535   -8.1441   21.4819 C   0  0  0  0  0  0  0  0  0  0  0  0
  -31.0714  -20.0659   23.4698 C   0  0  0  0  0  0  0  0  0  0  0  0
  -21.9837  -21.5371   26.3030 C   0  0  0  0  0  0  0  0  0  0  0  0
  -20.8965   -6.9739   22.9067 C   0  0  0  0  0  0  0  0  0  0  0  0
  -19.4125   -6.8899   25.2675 C   0  0  0  0  0  0  0  0  0  0  0  0
  -21.1526   -5.9851   23.8567 C   0  0  0  0  0  0  0  0  0  0  0  0
  -24.5941  -11.6459   20.6979 C   0  0  0  0  0  0  0  0  0  0  0  0
  -25.2521  -13.7311   20.4652 C   0  0  0  0  0  0  0  0  0  0  0  0
  -28.1173  -21.5910   25.2664 C   0  0  0  0  0  0  0  0  0  0  0  0
  -22.9000  -13.4925   21.2771 C   0  0  0  0  0  0  0  0  0  0  0  0
  -16.8647  -21.3517   24.5069 C   0  0  0  0  0  0  0  0  0  0  0  0
  -30.7581  -14.6939   20.6815 C   0  0  0  0  0  0  0  0  0  0  0  0
  -16.9145  -24.5909   24.3412 C   0  0  0  0  0  0  0  0  0  0  0  0
  -18.6713  -27.4866   24.7599 C   0  0  0  0  0  0  0  0  0  0  0  0
  -13.3328  -17.6683   24.6320 C   0  0  0  0  0  0  0  0  0  0  0  0
  -17.7288  -21.9594   26.7960 C   0  0  0  0  0  0  0  0  0  0  0  0
  -19.1383  -23.4429   24.6612 C   0  0  0  0  0  0  0  0  0  0  0  0
  -13.4019  -19.0969   24.0986 C   0  0  0  0  0  0  0  0  0  0  0  0
  -29.5662  -12.3966   18.2033 C   0  0  0  0  0  0  0  0  0  0  0  0
  -14.6671  -19.2967   23.2701 C   0  0  0  0  0  0  0  0  0  0  0  0
  -28.1421  -12.0828   18.6600 C   0  0  0  0  0  0  0  0  0  0  0  0
  -30.5014  -12.6003   19.3912 C   0  0  0  0  0  0  0  0  0  0  0  0
  -28.6145  -13.3306   20.8153 C   0  0  0  0  0  0  0  0  0  0  0  0
  -15.9239  -19.0807   24.1216 C   0  0  1  0  0  0  0  0  0  0  0  0
  -17.0082  -22.4350   25.5382 C   0  0  1  0  0  0  0  0  0  0  0  0
  -27.6306  -13.1479   19.6462 C   0  0  2  0  0  0  0  0  0  0  0  0
  -27.9510  -22.7807   26.1912 C   0  0  0  0  0  0  0  0  0  0  0  0
  -18.4576  -29.9742   24.5079 C   0  0  0  0  0  0  0  0  0  0  0  0
  -17.2043  -24.3069   21.3171 C   0  0  0  0  0  0  0  0  0  0  0  0
  -17.9299  -26.7016   21.2318 C   0  0  0  0  0  0  0  0  0  0  0  0
  -15.6461  -26.1206   22.0501 C   0  0  0  0  0  0  0  0  0  0  0  0
  -19.1474  -27.9365   27.6461 C   0  0  0  0  0  0  0  0  0  0  0  0
  -30.1402  -15.6862   21.6341 C   0  0  0  0  0  0  0  0  0  0  0  0
  -31.1309  -16.8042   21.9245 C   0  0  0  0  0  0  0  0  0  0  0  0
  -30.5717  -17.8059   22.9237 C   0  0  0  0  0  0  0  0  0  0  0  0
  -23.9076  -20.1577   26.5302 C   0  0  0  0  0  0  0  0  0  1  0  0
  -25.1350  -19.9014   25.6774 C   0  0  0  0  0  0  0  0  0  0  0  0
  -17.6509  -25.6073   23.5024 C   0  0  1  0  0  0  0  0  0  0  0  0
  -18.3146  -28.7901   25.4514 C   0  0  2  0  0  0  0  0  0  0  0  0
  -17.1217  -25.6653   22.0416 C   0  0  0  0  0  0  0  0  0  0  0  0
  -25.8537  -11.5527   20.2636 N   0  0  0  0  0  0  0  0  0  0  0  0
  -27.2046  -20.6789   25.1083 N   0  0  0  0  0  0  0  0  0  0  0  0
  -26.2266  -12.8371   20.1313 N   0  0  0  0  0  0  0  0  0  0  0  0
  -17.6880  -23.5568   24.8873 N   0  0  0  0  0  0  0  0  0  0  0  0
  -29.9694  -13.6030   20.3156 N   0  0  0  0  0  0  0  0  0  0  0  0
  -25.4591  -15.0630   20.3904 N   0  0  0  0  0  0  0  0  0  0  0  0
  -21.8942  -12.5812   21.6265 N   0  0  0  0  0  0  0  0  0  0  0  0
  -16.1772  -20.2387   24.9519 N   0  0  0  0  0  0  0  0  0  0  0  0
  -17.5598  -26.8732   24.2217 N   0  0  0  0  0  0  0  0  0  0  0  0
  -19.2050  -29.0143   26.6252 N   0  3  0  0  0  0  0  0  0  0  0  0
  -22.6622  -14.7226   21.3381 O   0  0  0  0  0  0  0  0  0  0  0  0
  -17.3412  -21.5142   23.3896 O   0  0  0  0  0  0  0  0  0  0  0  0
  -31.9066  -14.8859   20.2736 O   0  0  0  0  0  0  0  0  0  0  0  0
  -15.6990  -24.7140   24.5117 O   0  0  0  0  0  0  0  0  0  0  0  0
  -19.8214  -27.0575   24.6998 O   0  0  0  0  0  0  0  0  0  0  0  0
  -21.6328   -7.0174   21.7347 O   0  0  0  0  0  0  0  0  0  0  0  0
  -31.5398  -18.8314   23.1400 O   0  0  0  0  0  0  0  0  0  0  0  0
  -23.3298  -21.4065   26.1520 O   0  0  0  0  0  0  0  0  0  1  0  0
  -26.0832  -20.9370   25.9047 O   0  0  0  0  0  0  0  0  0  0  0  0
  -18.7009   -6.8505   26.4016 F   0  0  0  0  0  0  0  0  0  0  0  0
  -22.1110   -5.0736   23.6414 F   0  0  0  0  0  0  0  0  0  0  0  0
  1  2  1  0  0  0  0
  1  7  2  0  0  0  0
  2  8  2  0  0  0  0
  3  6  2  0  0  0  0
  3 10  1  0  0  0  0
  4 11  2  0  0  0  0
  4 19  1  0  0  0  0
  5 12  1  0  0  0  0
  5 19  2  0  0  0  0
  6 20  1  0  0  0  0
  7 22  1  0  0  0  0
  8 24  1  0  0  0  0
  9 13  2  0  0  0  0
  9 23  1  0  0  0  0
 10 27  2  0  0  0  0
 11 26  1  0  0  0  0
 12 26  2  0  0  0  0
 13 28  1  0  0  0  0
 14 15  2  0  0  0  0
 14 29  1  0  0  0  0
 15 30  1  0  0  0  0
 16 20  2  0  0  0  0
 16 27  1  0  0  0  0
 17 25  1  0  0  0  0
 17 28  2  0  0  0  0
 18 30  2  0  0  0  0
 18 31  1  0  0  0  0
 19 32  1  0  0  0  0
 20 34  1  0  0  0  0
 21 32  1  0  0  0  0
 21 33  2  0  0  0  0
 21 35  1  0  0  0  0
 22 24  2  0  0  0  0
 22 40  1  0  0  0  0
 23 25  2  0  0  0  0
 23 41  1  0  0  0  0
 24 49  1  0  0  0  0
 25 42  1  0  0  0  0
 26 81  1  0  0  0  0
 27 82  1  0  0  0  0
 28 83  1  0  0  0  0
 29 31  2  0  0  0  0
 29 81  1  0  0  0  0
 30 85  1  0  0  0  0
 31 86  1  0  0  0  0
 32 66  2  0  0  0  0
 33 68  1  0  0  0  0
 33 71  1  0  0  0  0
 34 52  1  0  0  0  0
 34 67  2  0  0  0  0
 35 72  1  0  0  0  0
 35 76  2  0  0  0  0
 36 50  1  0  0  0  0
 36 73  1  0  0  0  0
 36 77  2  0  0  0  0
 37 58  1  0  0  0  0
 37 70  1  0  0  0  0
 37 78  2  0  0  0  0
 38 63  1  0  0  0  0
 38 69  1  0  0  0  0
 38 79  2  0  0  0  0
 39 64  1  0  0  0  0
 39 74  1  0  0  0  0
 39 80  2  0  0  0  0
 40 43  1  0  0  0  0
 41 50  1  0  0  0  0
 42 69  1  0  0  0  0
 43 45  1  0  0  0  0
 44 46  1  0  0  0  0
 44 47  1  0  0  0  0
 45 49  1  0  0  0  0
 46 51  1  0  0  0  0
 47 70  1  0  0  0  0
 48 51  1  0  0  0  0
 48 70  1  0  0  0  0
 49 73  1  0  0  0  0
 50 69  1  0  0  0  0
 51 68  1  0  0  0  0
 53 64  1  0  0  0  0
 54 65  1  0  0  0  0
 55 65  1  0  0  0  0
 56 65  1  0  0  0  0
 57 75  1  0  0  0  0
 58 59  1  0  0  0  0
 59 60  1  0  0  0  0
 60 82  1  0  0  0  0
 61 62  1  0  0  0  0
 61 83  1  0  0  0  0
 62 84  1  0  0  0  0
 63 65  1  0  0  0  0
 63 74  1  0  0  0  0
 64 75  1  0  0  0  0
 66 68  1  0  0  0  0
 67 84  1  0  0  0  0
M  CHG  1  75   1
M  ISO  4  37 100  58 100  61 101  83 101
M  END
> <Batch ID>
0000

> <Smiles>
CNC(C)C(=O)NC(C(=O)N1Cc2cc([101O:1][101CH2:1]CON=C(C)c3cccc(OCC[100CH2:0][100C:0](=O)N4CCCC(n5nc(-c6ccc(Oc7ccc(F)cc7F)cc6)c(C(N)=O)c5N)C4)c3)ccc2CC1C(=O)NC1CCCc2ccccc21)C(C)(C)C

> <Shape>
0.189

> <Color>
0.195

> <Negative vol penalty>
0.000

$$$$

  -OEChem-04052315133D

 82 89  0     1  0  0  0  0  0999 V2000
  -32.1465  -13.7135   21.4347 C   0  0  0  0  0  0  0  0  0  0  0  0
  -31.4367  -14.9100   21.4328 C   0  0  0  0  0  0  0  0  0  0  0  0
  -28.9743  -26.3807   20.6244 C   0  0  0  0  0  0  0  0  0  0  0  0
  -27.0125  -25.0317   20.2136 C   0  0  0  0  0  0  0  0  0  0  0  0
  -31.5565  -12.5535   20.9346 C   0  0  0  0  0  0  0  0  0  0  0  0
  -30.1368  -14.9474   20.9296 C   0  0  0  0  0  0  0  0  0  0  0  0
  -26.9756  -17.5530   23.9066 C   0  0  0  0  0  0  0  0  0  0  0  0
  -29.6997  -25.2308   20.9360 C   0  0  0  0  0  0  0  0  0  0  0  0
  -27.7380  -23.8818   20.5251 C   0  0  0  0  0  0  0  0  0  0  0  0
  -27.0354  -18.9441   23.8356 C   0  0  0  0  0  0  0  0  0  0  0  0
  -29.1696  -20.5569   20.8625 C   0  0  0  0  0  0  0  0  0  0  0  0
  -29.0288  -19.4528   20.0219 C   0  0  0  0  0  0  0  0  0  0  0  0
  -25.0967  -18.9482   22.4002 C   0  0  0  0  0  0  0  0  0  0  0  0
  -29.8475  -20.7627   18.1642 C   0  0  0  0  0  0  0  0  0  0  0  0
  -27.6306  -26.2812   20.2633 C   0  0  0  0  0  0  0  0  0  0  0  0
  -26.7352  -28.0655   18.6752 C   0  0  0  0  0  0  0  0  0  0  0  0
  -30.2451  -12.5746   20.4339 C   0  0  0  0  0  0  0  0  0  0  0  0
  -25.9808  -16.8472   23.2149 C   0  0  0  0  0  0  0  0  0  0  0  0
  -29.5291  -13.7869   20.4211 C   0  0  0  0  0  0  0  0  0  0  0  0
  -25.0249  -17.5483   22.4660 C   0  0  0  0  0  0  0  0  0  0  0  0
  -29.0816  -23.9814   20.8863 C   0  0  0  0  0  0  0  0  0  0  0  0
  -26.0976  -19.6418   23.0800 C   0  0  0  0  0  0  0  0  0  0  0  0
  -29.6493  -21.7640   20.3540 C   0  0  0  0  0  0  0  0  0  0  0  0
  -29.3678  -19.5557   18.6727 C   0  0  0  0  0  0  0  0  0  0  0  0
  -29.9883  -21.8669   19.0048 C   0  0  0  0  0  0  0  0  0  0  0  0
  -26.8806  -27.4687   19.9419 C   0  0  0  0  0  0  0  0  0  0  0  0
  -25.9351  -29.1589   18.9007 C   0  0  0  0  0  0  0  0  0  0  0  0
  -27.2751  -27.6672   17.4081 C   0  0  0  0  0  0  0  0  0  0  0  0
  -25.9738  -14.6746   20.8947 C   0  0  0  0  0  0  0  0  0  0  0  0
  -22.7899  -14.5955   21.5102 C   0  0  0  0  0  0  0  0  0  0  0  0
  -20.0370  -16.1913   22.7438 C   0  0  0  0  0  0  0  0  0  0  0  0
  -21.8864  -30.4485   23.1191 C   0  0  0  0  0  0  0  0  0  0  0  0
  -29.6666  -11.3055   19.8603 C   0  0  0  0  0  0  0  0  0  0  0  0
  -25.9138  -15.3484   23.3233 C   0  0  0  0  0  0  0  0  0  0  0  0
  -23.9247  -16.8389   21.7213 C   0  0  0  0  0  0  0  0  0  0  0  0
  -28.1502  -11.3500   19.6898 C   0  0  0  0  0  0  0  0  0  0  0  0
  -24.7964  -32.3288   22.2987 C   0  0  0  0  0  0  0  0  0  0  0  0
  -27.7249  -12.6603   19.0350 C   0  0  0  0  0  0  0  0  0  0  0  0
  -25.6474  -31.3502   21.4873 C   0  0  0  0  0  0  0  0  0  0  0  0
  -24.0456  -31.6234   23.4259 C   0  0  0  0  0  0  0  0  0  0  0  0
  -24.0810  -29.4921   22.1889 C   0  0  0  0  0  0  0  0  0  0  0  0
  -28.1080  -13.8624   19.9065 C   0  0  1  0  0  0  0  0  0  0  0  0
  -25.1676  -14.6981   22.1624 C   0  0  1  0  0  0  0  0  0  0  0  0
  -24.8136  -30.1477   21.0058 C   0  0  2  0  0  0  0  0  0  0  0  0
  -17.5681  -15.8884   23.0759 C   0  0  0  0  0  0  0  0  0  0  0  0
  -22.3295  -15.1090   18.5380 C   0  0  0  0  0  0  0  0  0  0  0  0
  -19.9673  -15.7344   19.0832 C   0  0  0  0  0  0  0  0  0  0  0  0
  -20.7856  -13.4261   19.5573 C   0  0  0  0  0  0  0  0  0  0  0  0
  -20.2838  -16.4435   25.6822 C   0  0  0  0  0  0  0  0  0  0  0  0
  -19.8018  -29.1627   22.7186 C   0  0  0  0  0  0  0  0  0  0  0  0
  -19.4491  -28.3845   23.9736 C   0  0  0  0  0  0  0  0  0  0  0  0
  -26.6857  -21.6880   24.1398 C   0  0  0  0  0  0  0  0  0  1  0  0
  -26.0302  -23.0515   24.2427 C   0  0  0  0  0  0  0  0  0  0  0  0
  -19.7525  -26.3315   25.0764 C   0  0  0  0  0  0  0  0  0  0  0  0
  -20.4048  -24.9683   24.9492 C   0  0  0  0  0  0  0  0  0  0  0  0
  -23.9621  -24.1314   24.5248 C   0  0  0  0  0  0  0  0  0  0  0  0
  -22.4746  -23.8861   24.6900 C   0  0  0  0  0  0  0  0  0  0  0  0
  -21.5831  -15.3443   20.9984 C   0  0  1  0  0  0  0  0  0  0  0  0
  -18.9479  -15.7308   23.6958 C   0  0  2  0  0  0  0  0  0  0  0  0
  -21.1881  -14.9170   19.5566 C   0  0  0  0  0  0  0  0  0  0  0  0
  -26.2255  -28.1283   20.9010 N   0  0  0  0  0  0  0  0  0  0  0  0
  -25.6609  -29.1511   20.2367 N   0  0  0  0  0  0  0  0  0  0  0  0
  -23.9052  -15.3727   21.8532 N   0  0  0  0  0  0  0  0  0  0  0  0
  -23.2734  -30.4940   22.9023 N   0  0  0  0  0  0  0  0  0  0  0  0
  -25.4466  -30.1168   18.0844 N   0  0  0  0  0  0  0  0  0  0  0  0
  -28.0768  -26.5188   17.3547 N   0  0  0  0  0  0  0  0  0  0  0  0
  -27.1781  -14.0063   21.0061 N   0  0  0  0  0  0  0  0  0  0  0  0
  -20.5304  -15.1481   21.9892 N   0  0  0  0  0  0  0  0  0  0  0  0
  -21.2296  -29.3471   22.5840 N   0  0  0  0  0  0  0  0  0  0  0  0
  -18.9908  -16.5259   24.9555 N   0  3  0  0  0  0  0  0  0  0  0  0
  -27.0666  -28.3197   16.3573 O   0  0  0  0  0  0  0  0  0  0  0  0
  -25.5349  -15.2209   19.8894 O   0  0  0  0  0  0  0  0  0  0  0  0
  -22.7421  -13.3668   21.6090 O   0  0  0  0  0  0  0  0  0  0  0  0
  -20.4099  -17.3603   22.6737 O   0  0  0  0  0  0  0  0  0  0  0  0
  -21.2775  -31.3273   23.7388 O   0  0  0  0  0  0  0  0  0  0  0  0
  -29.7893  -22.8591   21.1900 O   0  0  0  0  0  0  0  0  0  0  0  0
  -26.1541  -20.9995   23.0085 O   0  0  0  0  0  0  0  0  0  1  0  0
  -20.0550  -27.1006   23.9186 O   0  0  0  0  0  0  0  0  0  0  0  0
  -24.6294  -22.8813   24.4219 O   0  0  0  0  0  0  0  0  0  0  0  0
  -21.8089  -25.1371   24.8135 O   0  0  0  0  0  0  0  0  0  0  0  0
  -29.2339  -18.4949   17.8659 F   0  0  0  0  0  0  0  0  0  0  0  0
  -30.4508  -23.0235   18.5108 F   0  0  0  0  0  0  0  0  0  0  0  0
  1  2  1  0  0  0  0
  1  5  2  0  0  0  0
  2  6  2  0  0  0  0
  3  8  2  0  0  0  0
  3 15  1  0  0  0  0
  4  9  1  0  0  0  0
  4 15  2  0  0  0  0
  5 17  1  0  0  0  0
  6 19  1  0  0  0  0
  7 10  2  0  0  0  0
  7 18  1  0  0  0  0
  8 21  1  0  0  0  0
  9 21  2  0  0  0  0
 10 22  1  0  0  0  0
 11 12  2  0  0  0  0
 11 23  1  0  0  0  0
 12 24  1  0  0  0  0
 13 20  1  0  0  0  0
 13 22  2  0  0  0  0
 14 24  2  0  0  0  0
 14 25  1  0  0  0  0
 15 26  1  0  0  0  0
 16 26  1  0  0  0  0
 16 27  2  0  0  0  0
 16 28  1  0  0  0  0
 17 19  2  0  0  0  0
 17 33  1  0  0  0  0
 18 20  2  0  0  0  0
 18 34  1  0  0  0  0
 19 42  1  0  0  0  0
 20 35  1  0  0  0  0
 21 76  1  0  0  0  0
 22 77  1  0  0  0  0
 23 25  2  0  0  0  0
 23 76  1  0  0  0  0
 24 81  1  0  0  0  0
 25 82  1  0  0  0  0
 26 61  2  0  0  0  0
 27 62  1  0  0  0  0
 27 65  1  0  0  0  0
 28 66  1  0  0  0  0
 28 71  2  0  0  0  0
 29 43  1  0  0  0  0
 29 67  1  0  0  0  0
 29 72  2  0  0  0  0
 30 58  1  0  0  0  0
 30 63  1  0  0  0  0
 30 73  2  0  0  0  0
 31 59  1  0  0  0  0
 31 68  1  0  0  0  0
 31 74  2  0  0  0  0
 32 64  1  0  0  0  0
 32 69  1  0  0  0  0
 32 75  2  0  0  0  0
 33 36  1  0  0  0  0
 34 43  1  0  0  0  0
 35 63  1  0  0  0  0
 36 38  1  0  0  0  0
 37 39  1  0  0  0  0
 37 40  1  0  0  0  0
 38 42  1  0  0  0  0
 39 44  1  0  0  0  0
 40 64  1  0  0  0  0
 41 44  1  0  0  0  0
 41 64  1  0  0  0  0
 42 67  1  0  0  0  0
 43 63  1  0  0  0  0
 44 62  1  0  0  0  0
 45 59  1  0  0  0  0
 46 60  1  0  0  0  0
 47 60  1  0  0  0  0
 48 60  1  0  0  0  0
 49 70  1  0  0  0  0
 50 51  1  0  0  0  0
 50 69  1  0  0  0  0
 51 78  1  0  0  0  0
 52 53  1  0  0  0  0
 52 77  1  0  0  0  0
 53 79  1  0  0  0  0
 54 55  1  0  0  0  0
 54 78  1  0  0  0  0
 55 80  1  0  0  0  0
 56 57  1  0  0  0  0
 56 79  1  0  0  0  0
 57 80  1  0  0  0  0
 58 60  1  0  0  0  0
 58 68  1  0  0  0  0
 59 70  1  0  0  0  0
 61 62  1  0  0  0  0
M  CHG  1  70   1
M  ISO  4  32 100  52 101  69 100  77 101
M  END
> <Batch ID>
0000

> <Smiles>
CNC(C)C(=O)NC(C(=O)N1Cc2cc([101O:1][101CH2:1]COCCOCCOCC[100NH:0][100C:0](=O)N3CCCC(n4nc(-c5ccc(Oc6ccc(F)cc6F)cc5)c(C(N)=O)c4N)C3)ccc2CC1C(=O)NC1CCCc2ccccc21)C(C)(C)C

> <Shape>
0.233

> <Color>
0.068

> <Negative vol penalty>
0.000

$$$$

  -OEChem-04052315133D

 88 95  0     1  0  0  0  0  0999 V2000
  -21.3006  -34.9269   22.5189 C   0  0  0  0  0  0  0  0  0  0  0  0
  -21.9764  -34.0966   23.4074 C   0  0  0  0  0  0  0  0  0  0  0  0
  -23.0147   -9.9310   19.8966 C   0  0  0  0  0  0  0  0  0  0  0  0
  -23.9355   -9.6855   22.1167 C   0  0  0  0  0  0  0  0  0  0  0  0
  -20.3116  -34.4003   21.6892 C   0  0  0  0  0  0  0  0  0  0  0  0
  -21.6628  -32.7392   23.4674 C   0  0  0  0  0  0  0  0  0  0  0  0
  -25.7826  -29.7980   23.6129 C   0  0  0  0  0  0  0  0  0  0  0  0
  -22.2788   -8.7593   20.0722 C   0  0  0  0  0  0  0  0  0  0  0  0
  -23.1994   -8.5138   22.2924 C   0  0  0  0  0  0  0  0  0  0  0  0
  -26.4459  -29.6914   24.8346 C   0  0  0  0  0  0  0  0  0  0  0  0
  -19.4329   -7.8159   21.6356 C   0  0  0  0  0  0  0  0  0  0  0  0
  -18.0945   -7.8261   21.2431 C   0  0  0  0  0  0  0  0  0  0  0  0
  -25.3694  -27.5685   25.2269 C   0  0  0  0  0  0  0  0  0  0  0  0
  -18.5391   -6.0378   19.6805 C   0  0  0  0  0  0  0  0  0  0  0  0
  -23.8432  -10.3941   20.9188 C   0  0  0  0  0  0  0  0  0  0  0  0
  -24.2014  -12.9165   21.0501 C   0  0  0  0  0  0  0  0  0  0  0  0
  -19.9924  -33.0339   21.7322 C   0  0  0  0  0  0  0  0  0  0  0  0
  -24.8979  -28.7942   23.1934 C   0  0  0  0  0  0  0  0  0  0  0  0
  -20.6677  -32.1940   22.6384 C   0  0  0  0  0  0  0  0  0  0  0  0
  -24.6981  -27.6636   23.9983 C   0  0  0  0  0  0  0  0  0  0  0  0
  -22.3711   -8.0506   21.2701 C   0  0  0  0  0  0  0  0  0  0  0  0
  -26.2372  -28.5779   25.6431 C   0  0  0  0  0  0  0  0  0  0  0  0
  -20.3245   -6.9167   21.0505 C   0  0  0  0  0  0  0  0  0  0  0  0
  -17.6476   -6.9371   20.2656 C   0  0  0  0  0  0  0  0  0  0  0  0
  -19.8776   -6.0277   20.0730 C   0  0  0  0  0  0  0  0  0  0  0  0
  -24.6041  -11.6042   20.7378 C   0  0  0  0  0  0  0  0  0  0  0  0
  -25.2726  -13.6985   20.6933 C   0  0  0  0  0  0  0  0  0  0  0  0
  -22.9691  -13.3865   21.6126 C   0  0  0  0  0  0  0  0  0  0  0  0
  -21.7914  -28.6758   22.5303 C   0  0  0  0  0  0  0  0  0  0  0  0
  -22.5030  -25.6513   21.5981 C   0  0  0  0  0  0  0  0  0  0  0  0
  -28.5971  -19.7462   23.1935 C   0  0  0  0  0  0  0  0  0  0  0  0
  -24.5847  -22.9581   21.8435 C   0  0  0  0  0  0  0  0  0  0  0  0
  -30.7660  -14.6777   20.5981 C   0  0  0  0  0  0  0  0  0  0  0  0
  -18.8831  -32.5194   20.8494 C   0  0  0  0  0  0  0  0  0  0  0  0
  -24.2105  -28.9115   21.8606 C   0  0  0  0  0  0  0  0  0  0  0  0
  -23.7741  -26.5486   23.5843 C   0  0  0  0  0  0  0  0  0  0  0  0
  -18.8713  -30.9994   20.7094 C   0  0  0  0  0  0  0  0  0  0  0  0
  -29.4377  -12.5710   18.0537 C   0  0  0  0  0  0  0  0  0  0  0  0
  -19.0317  -30.3364   22.0738 C   0  0  0  0  0  0  0  0  0  0  0  0
  -28.0316  -12.2352   18.5539 C   0  0  0  0  0  0  0  0  0  0  0  0
  -30.4399  -12.6571   19.2027 C   0  0  0  0  0  0  0  0  0  0  0  0
  -28.6489  -13.2368   20.7932 C   0  0  0  0  0  0  0  0  0  0  0  0
  -20.3731  -30.7117   22.7152 C   0  0  1  0  0  0  0  0  0  0  0  0
  -22.9385  -28.0743   21.7686 C   0  0  1  0  0  0  0  0  0  0  0  0
  -27.5919  -13.1943   19.6764 C   0  0  2  0  0  0  0  0  0  0  0  0
  -24.8867  -20.6177   20.9900 C   0  0  0  0  0  0  0  0  0  0  0  0
  -20.2814  -24.6899   23.4555 C   0  0  0  0  0  0  0  0  0  0  0  0
  -21.2424  -22.3835   23.2971 C   0  0  0  0  0  0  0  0  0  0  0  0
  -20.3779  -23.5158   21.2494 C   0  0  0  0  0  0  0  0  0  0  0  0
  -27.1937  -23.6196   20.6131 C   0  0  0  0  0  0  0  0  0  0  0  0
  -27.9938  -19.6801   24.5804 C   0  0  0  0  0  0  0  0  0  0  0  0
  -30.6044  -17.9318   21.2469 C   0  0  0  0  0  0  0  0  0  0  0  0
  -27.4327  -22.3283   27.0737 C   0  0  0  0  0  0  0  0  0  0  0  0
  -29.1189  -18.2864   21.2460 C   0  0  0  0  0  0  0  0  0  0  0  0
  -30.9414  -16.6801   22.0538 C   0  0  0  0  0  0  0  0  0  0  0  0
  -27.4263  -20.9244   26.4915 C   0  0  0  0  0  0  0  0  0  0  0  0
  -28.8378  -22.9036   27.1583 C   0  0  0  0  0  0  0  0  0  0  0  0
  -28.1652  -29.0893   26.9381 C   0  0  0  0  0  0  0  0  0  1  0  0
  -29.0136  -28.3097   27.9241 C   0  0  0  0  0  0  0  0  0  0  0  0
  -30.0870  -24.7931   27.7845 C   0  0  0  0  0  0  0  0  0  0  0  0
  -29.9677  -26.2015   28.3339 C   0  0  0  0  0  0  0  0  0  0  0  0
  -22.5476  -24.3051   22.2798 C   0  0  1  0  0  0  0  0  0  0  0  0
  -25.2308  -22.0845   20.7834 C   0  0  2  0  0  0  0  0  0  0  0  0
  -21.1283  -23.7453   22.5794 C   0  0  0  0  0  0  0  0  0  0  0  0
  -25.8351  -11.5516   20.2220 N   0  0  0  0  0  0  0  0  0  0  0  0
  -26.2150  -12.8406   20.2075 N   0  0  0  0  0  0  0  0  0  0  0  0
  -23.1203  -26.7126   22.2754 N   0  0  0  0  0  0  0  0  0  0  0  0
  -29.9641  -13.5840   20.2325 N   0  0  0  0  0  0  0  0  0  0  0  0
  -25.4909  -15.0295   20.7507 N   0  0  0  0  0  0  0  0  0  0  0  0
  -21.9745  -12.4483   21.9205 N   0  0  0  0  0  0  0  0  0  0  0  0
  -21.4493  -29.9497   22.1188 N   0  0  0  0  0  0  0  0  0  0  0  0
  -28.5999  -18.5049   22.5767 N   0  0  0  0  0  0  0  0  0  0  0  0
  -23.3624  -23.4439   21.4296 N   0  0  0  0  0  0  0  0  0  0  0  0
  -30.2376  -15.5104   21.5770 N   0  0  0  0  0  0  0  0  0  0  0  0
  -26.7134  -22.2300   20.8254 N   0  3  0  0  0  0  0  0  0  0  0  0
  -22.7501  -14.6040   21.8203 O   0  0  0  0  0  0  0  0  0  0  0  0
  -21.2555  -28.0311   23.4240 O   0  0  0  0  0  0  0  0  0  0  0  0
  -21.9475  -25.7560   20.5017 O   0  0  0  0  0  0  0  0  0  0  0  0
  -29.0226  -20.7887   22.7034 O   0  0  0  0  0  0  0  0  0  0  0  0
  -25.1099  -23.1838   22.9315 O   0  0  0  0  0  0  0  0  0  0  0  0
  -31.8686  -14.8990   20.0861 O   0  0  0  0  0  0  0  0  0  0  0  0
  -21.6528   -6.9073   21.4419 O   0  0  0  0  0  0  0  0  0  0  0  0
  -26.8829  -28.4716   26.8362 O   0  0  0  0  0  0  0  0  0  1  0  0
  -27.9893  -20.9652   25.1876 O   0  0  0  0  0  0  0  0  0  0  0  0
  -28.7885  -24.2202   27.6898 O   0  0  0  0  0  0  0  0  0  0  0  0
  -29.1779  -26.9802   27.4459 O   0  0  0  0  0  0  0  0  0  0  0  0
  -16.3619   -6.9460   19.8898 F   0  0  0  0  0  0  0  0  0  0  0  0
  -20.7292   -5.1607   19.5083 F   0  0  0  0  0  0  0  0  0  0  0  0
  1  2  1  0  0  0  0
  1  5  2  0  0  0  0
  2  6  2  0  0  0  0
  3  8  2  0  0  0  0
  3 15  1  0  0  0  0
  4  9  1  0  0  0  0
  4 15  2  0  0  0  0
  5 17  1  0  0  0  0
  6 19  1  0  0  0  0
  7 10  2  0  0  0  0
  7 18  1  0  0  0  0
  8 21  1  0  0  0  0
  9 21  2  0  0  0  0
 10 22  1  0  0  0  0
 11 12  2  0  0  0  0
 11 23  1  0  0  0  0
 12 24  1  0  0  0  0
 13 20  1  0  0  0  0
 13 22  2  0  0  0  0
 14 24  2  0  0  0  0
 14 25  1  0  0  0  0
 15 26  1  0  0  0  0
 16 26  1  0  0  0  0
 16 27  2  0  0  0  0
 16 28  1  0  0  0  0
 17 19  2  0  0  0  0
 17 34  1  0  0  0  0
 18 20  2  0  0  0  0
 18 35  1  0  0  0  0
 19 43  1  0  0  0  0
 20 36  1  0  0  0  0
 21 82  1  0  0  0  0
 22 83  1  0  0  0  0
 23 25  2  0  0  0  0
 23 82  1  0  0  0  0
 24 87  1  0  0  0  0
 25 88  1  0  0  0  0
 26 65  2  0  0  0  0
 27 66  1  0  0  0  0
 27 69  1  0  0  0  0
 28 70  1  0  0  0  0
 28 76  2  0  0  0  0
 29 44  1  0  0  0  0
 29 71  1  0  0  0  0
 29 77  2  0  0  0  0
 30 62  1  0  0  0  0
 30 67  1  0  0  0  0
 30 78  2  0  0  0  0
 31 51  1  0  0  0  0
 31 72  1  0  0  0  0
 31 79  2  0  0  0  0
 32 63  1  0  0  0  0
 32 73  1  0  0  0  0
 32 80  2  0  0  0  0
 33 68  1  0  0  0  0
 33 74  1  0  0  0  0
 33 81  2  0  0  0  0
 34 37  1  0  0  0  0
 35 44  1  0  0  0  0
 36 67  1  0  0  0  0
 37 39  1  0  0  0  0
 38 40  1  0  0  0  0
 38 41  1  0  0  0  0
 39 43  1  0  0  0  0
 40 45  1  0  0  0  0
 41 68  1  0  0  0  0
 42 45  1  0  0  0  0
 42 68  1  0  0  0  0
 43 71  1  0  0  0  0
 44 67  1  0  0  0  0
 45 66  1  0  0  0  0
 46 63  1  0  0  0  0
 47 64  1  0  0  0  0
 48 64  1  0  0  0  0
 49 64  1  0  0  0  0
 50 75  1  0  0  0  0
 51 84  1  0  0  0  0
 52 54  1  0  0  0  0
 52 55  1  0  0  0  0
 53 56  1  0  0  0  0
 53 57  1  0  0  0  0
 54 72  1  0  0  0  0
 55 74  1  0  0  0  0
 56 84  1  0  0  0  0
 57 85  1  0  0  0  0
 58 59  1  0  0  0  0
 58 83  1  0  0  0  0
 59 86  1  0  0  0  0
 60 61  1  0  0  0  0
 60 85  1  0  0  0  0
 61 86  1  0  0  0  0
 62 64  1  0  0  0  0
 62 73  1  0  0  0  0
 63 75  1  0  0  0  0
 65 66  1  0  0  0  0
M  CHG  1  75   1
M  ISO  4  33 100  58 101  74 100  83 101
M  END
> <Batch ID>
0000

> <Smiles>
CNC(C)C(=O)NC(C(=O)N1Cc2cc([101O:1][101CH2:1]COCCOCCCOCC(=O)NCCC[100NH:0][100C:0](=O)N3CCCC(n4nc(-c5ccc(Oc6ccc(F)cc6F)cc5)c(C(N)=O)c4N)C3)ccc2CC1C(=O)NC1CCCc2ccccc21)C(C)(C)C

> <Shape>
0.217

> <Color>
0.188

> <Negative vol penalty>
0.000

$$$$

  -OEChem-04052315133D

 80 87  0     1  0  0  0  0  0999 V2000
  -23.6011  -23.8594   18.8257 C   0  0  0  0  0  0  0  0  0  0  0  0
  -24.6818  -23.0876   19.2403 C   0  0  0  0  0  0  0  0  0  0  0  0
  -25.2890  -28.8990   20.3108 C   0  0  0  0  0  0  0  0  0  0  0  0
  -24.9942  -26.6603   21.1700 C   0  0  0  0  0  0  0  0  0  0  0  0
  -22.3022  -23.4676   19.1468 C   0  0  0  0  0  0  0  0  0  0  0  0
  -24.4641  -21.9241   19.9773 C   0  0  0  0  0  0  0  0  0  0  0  0
  -27.2702  -18.0372   18.3453 C   0  0  0  0  0  0  0  0  0  0  0  0
  -23.9048  -29.0492   20.2271 C   0  0  0  0  0  0  0  0  0  0  0  0
  -23.6100  -26.8104   21.0864 C   0  0  0  0  0  0  0  0  0  0  0  0
  -28.6119  -18.0174   18.7238 C   0  0  0  0  0  0  0  0  0  0  0  0
  -19.9922  -26.7352   21.4391 C   0  0  0  0  0  0  0  0  0  0  0  0
  -19.2263  -26.3096   22.5244 C   0  0  0  0  0  0  0  0  0  0  0  0
  -28.0912  -16.4305   20.4645 C   0  0  0  0  0  0  0  0  0  0  0  0
  -20.3865  -27.8721   23.9560 C   0  0  0  0  0  0  0  0  0  0  0  0
  -25.8337  -27.7045   20.7821 C   0  0  0  0  0  0  0  0  0  0  0  0
  -28.0882  -27.8610   21.9656 C   0  0  0  0  0  0  0  0  0  0  0  0
  -22.0680  -22.2935   19.8799 C   0  0  0  0  0  0  0  0  0  0  0  0
  -26.3255  -17.2609   19.0318 C   0  0  0  0  0  0  0  0  0  0  0  0
  -23.1609  -21.5169   20.3098 C   0  0  0  0  0  0  0  0  0  0  0  0
  -26.7385  -16.4404   20.0911 C   0  0  0  0  0  0  0  0  0  0  0  0
  -23.0653  -28.0049   20.6150 C   0  0  0  0  0  0  0  0  0  0  0  0
  -29.0221  -17.2162   19.7854 C   0  0  0  0  0  0  0  0  0  0  0  0
  -20.9554  -27.7292   21.6123 C   0  0  0  0  0  0  0  0  0  0  0  0
  -19.4233  -26.8781   23.7828 C   0  0  0  0  0  0  0  0  0  0  0  0
  -21.1525  -28.2977   22.8707 C   0  0  0  0  0  0  0  0  0  0  0  0
  -27.2635  -27.5486   20.8682 C   0  0  0  0  0  0  0  0  0  0  0  0
  -29.3547  -27.5329   21.5476 C   0  0  0  0  0  0  0  0  0  0  0  0
  -27.7404  -28.3995   23.2480 C   0  0  0  0  0  0  0  0  0  0  0  0
  -23.7219  -17.8906   20.7431 C   0  0  0  0  0  0  0  0  0  0  0  0
  -23.4168  -14.6611   20.7461 C   0  0  0  0  0  0  0  0  0  0  0  0
  -31.8445  -19.1553   21.7717 C   0  0  0  0  0  0  0  0  0  0  0  0
  -24.9176  -11.6090   20.4652 C   0  0  0  0  0  0  0  0  0  0  0  0
  -32.8905  -24.0371   19.0131 C   0  0  0  0  0  0  0  0  0  0  0  0
  -20.6487  -21.9358   20.2437 C   0  0  0  0  0  0  0  0  0  0  0  0
  -24.8865  -17.2730   18.5940 C   0  0  0  0  0  0  0  0  0  0  0  0
  -25.7672  -15.5727   20.8475 C   0  0  0  0  0  0  0  0  0  0  0  0
  -20.4844  -20.4904   20.7064 C   0  0  0  0  0  0  0  0  0  0  0  0
  -31.0959  -26.3222   16.9553 C   0  0  0  0  0  0  0  0  0  0  0  0
  -21.5686  -20.1264   21.7158 C   0  0  0  0  0  0  0  0  0  0  0  0
  -30.0038  -26.8656   17.8783 C   0  0  0  0  0  0  0  0  0  0  0  0
  -31.3795  -24.8460   17.2246 C   0  0  0  0  0  0  0  0  0  0  0  0
  -30.5993  -25.0648   19.5520 C   0  0  0  0  0  0  0  0  0  0  0  0
  -22.9642  -20.2350   21.0896 C   0  0  1  0  0  0  0  0  0  0  0  0
  -23.9238  -16.8346   19.6934 C   0  0  1  0  0  0  0  0  0  0  0  0
  -30.3175  -26.5643   19.3561 C   0  0  2  0  0  0  0  0  0  0  0  0
  -24.4156   -9.1517   20.5500 C   0  0  0  0  0  0  0  0  0  0  0  0
  -23.2301  -14.8068   23.7881 C   0  0  0  0  0  0  0  0  0  0  0  0
  -23.6865  -12.3463   23.8643 C   0  0  0  0  0  0  0  0  0  0  0  0
  -21.6397  -13.1985   22.7211 C   0  0  0  0  0  0  0  0  0  0  0  0
  -34.2113  -19.1924   22.5886 C   0  0  0  0  0  0  0  0  0  0  0  0
  -25.8162  -11.2110   17.6735 C   0  0  0  0  0  0  0  0  0  0  0  0
  -31.9090  -17.6390   21.9233 C   0  0  0  0  0  0  0  0  0  0  0  0
  -34.1958  -21.7689   21.0639 C   0  0  0  0  0  0  0  0  0  0  0  0
  -34.2977  -23.2853   20.9141 C   0  0  0  0  0  0  0  0  0  0  0  0
  -33.0952  -21.3140   22.0196 C   0  0  0  0  0  0  0  0  0  0  0  0
  -30.6112  -16.9428   21.5334 C   0  0  0  0  0  0  0  0  0  1  0  0
  -23.8983  -13.5426   21.6384 C   0  0  1  0  0  0  0  0  0  0  0  0
  -24.5505  -10.3764   19.6586 C   0  0  2  0  0  0  0  0  0  0  0  0
  -23.1319  -13.4913   22.9902 C   0  0  0  0  0  0  0  0  0  0  0  0
  -27.9486  -27.0598   19.8310 N   0  0  0  0  0  0  0  0  0  0  0  0
  -29.2171  -27.0626   20.2748 N   0  0  0  0  0  0  0  0  0  0  0  0
  -24.3701  -15.6240   20.3858 N   0  0  0  0  0  0  0  0  0  0  0  0
  -31.6711  -24.6283   18.6435 N   0  0  0  0  0  0  0  0  0  0  0  0
  -30.5616  -27.6038   22.1483 N   0  0  0  0  0  0  0  0  0  0  0  0
  -26.3927  -28.6791   23.5121 N   0  0  0  0  0  0  0  0  0  0  0  0
  -23.2330  -19.0860   20.2518 N   0  0  0  0  0  0  0  0  0  0  0  0
  -23.8001  -12.3197   20.8490 N   0  0  0  0  0  0  0  0  0  0  0  0
  -33.0899  -23.8728   20.3784 N   0  0  0  0  0  0  0  0  0  0  0  0
  -33.0050  -19.8587   22.1134 N   0  0  0  0  0  0  0  0  0  0  0  0
  -25.5954  -10.0984   18.6330 N   0  3  0  0  0  0  0  0  0  0  0  0
  -28.6014  -28.6413   24.1277 O   0  0  0  0  0  0  0  0  0  0  0  0
  -23.9884  -17.6388   21.9124 O   0  0  0  0  0  0  0  0  0  0  0  0
  -22.2401  -14.6759   20.3764 O   0  0  0  0  0  0  0  0  0  0  0  0
  -30.8147  -19.7020   21.3679 O   0  0  0  0  0  0  0  0  0  0  0  0
  -26.0793  -11.9091   20.7315 O   0  0  0  0  0  0  0  0  0  0  0  0
  -33.7409  -23.6870   18.1878 O   0  0  0  0  0  0  0  0  0  0  0  0
  -21.7145  -28.1512   20.5337 O   0  0  0  0  0  0  0  0  0  0  0  0
  -30.3310  -17.1954   20.1572 O   0  0  0  0  0  0  0  0  0  1  0  0
  -18.6866  -26.4704   24.8245 F   0  0  0  0  0  0  0  0  0  0  0  0
  -22.0754  -29.2539   23.0430 F   0  0  0  0  0  0  0  0  0  0  0  0
  1  2  1  0  0  0  0
  1  5  2  0  0  0  0
  2  6  2  0  0  0  0
  3  8  2  0  0  0  0
  3 15  1  0  0  0  0
  4  9  1  0  0  0  0
  4 15  2  0  0  0  0
  5 17  1  0  0  0  0
  6 19  1  0  0  0  0
  7 10  2  0  0  0  0
  7 18  1  0  0  0  0
  8 21  1  0  0  0  0
  9 21  2  0  0  0  0
 10 22  1  0  0  0  0
 11 12  2  0  0  0  0
 11 23  1  0  0  0  0
 12 24  1  0  0  0  0
 13 20  1  0  0  0  0
 13 22  2  0  0  0  0
 14 24  2  0  0  0  0
 14 25  1  0  0  0  0
 15 26  1  0  0  0  0
 16 26  1  0  0  0  0
 16 27  2  0  0  0  0
 16 28  1  0  0  0  0
 17 19  2  0  0  0  0
 17 34  1  0  0  0  0
 18 20  2  0  0  0  0
 18 35  1  0  0  0  0
 19 43  1  0  0  0  0
 20 36  1  0  0  0  0
 21 77  1  0  0  0  0
 22 78  1  0  0  0  0
 23 25  2  0  0  0  0
 23 77  1  0  0  0  0
 24 79  1  0  0  0  0
 25 80  1  0  0  0  0
 26 60  2  0  0  0  0
 27 61  1  0  0  0  0
 27 64  1  0  0  0  0
 28 65  1  0  0  0  0
 28 71  2  0  0  0  0
 29 44  1  0  0  0  0
 29 66  1  0  0  0  0
 29 72  2  0  0  0  0
 30 57  1  0  0  0  0
 30 62  1  0  0  0  0
 30 73  2  0  0  0  0
 31 52  1  0  0  0  0
 31 69  1  0  0  0  0
 31 74  2  0  0  0  0
 32 58  1  0  0  0  0
 32 67  1  0  0  0  0
 32 75  2  0  0  0  0
 33 63  1  0  0  0  0
 33 68  1  0  0  0  0
 33 76  2  0  0  0  0
 34 37  1  0  0  0  0
 35 44  1  0  0  0  0
 36 62  1  0  0  0  0
 37 39  1  0  0  0  0
 38 40  1  0  0  0  0
 38 41  1  0  0  0  0
 39 43  1  0  0  0  0
 40 45  1  0  0  0  0
 41 63  1  0  0  0  0
 42 45  1  0  0  0  0
 42 63  1  0  0  0  0
 43 66  1  0  0  0  0
 44 62  1  0  0  0  0
 45 61  1  0  0  0  0
 46 58  1  0  0  0  0
 47 59  1  0  0  0  0
 48 59  1  0  0  0  0
 49 59  1  0  0  0  0
 50 69  1  0  0  0  0
 51 70  1  0  0  0  0
 52 56  1  0  0  0  0
 53 54  1  0  0  0  0
 53 55  1  0  0  0  0
 54 68  1  0  0  0  0
 55 69  1  0  0  0  0
 56 78  1  0  0  0  0
 57 59  1  0  0  0  0
 57 67  1  0  0  0  0
 58 70  1  0  0  0  0
 60 61  1  0  0  0  0
M  CHG  1  70   1
M  ISO  4  33 100  56 101  68 100  78 101
M  END
> <Batch ID>
0000

> <Smiles>
CNC(C)C(=O)NC(C(=O)N1Cc2cc([101O:1][101CH2:1]CC(=O)N(C)CCC[100NH:0][100C:0](=O)N3CCCC(n4nc(-c5ccc(Oc6ccc(F)cc6F)cc5)c(C(N)=O)c4N)C3)ccc2CC1C(=O)NC1CCCc2ccccc21)C(C)(C)C

> <Shape>
0.211

> <Color>
0.075

> <Negative vol penalty>
0.000

$$$$

  -OEChem-04052315133D

 83 91  0     1  0  0  0  0  0999 V2000
  -32.3424  -13.4784   20.8405 C   0  0  0  0  0  0  0  0  0  0  0  0
  -31.8715  -14.7547   21.1318 C   0  0  0  0  0  0  0  0  0  0  0  0
  -18.2473  -27.9999   21.4935 C   0  0  0  0  0  0  0  0  0  0  0  0
  -29.2437  -25.7328   20.4905 C   0  0  0  0  0  0  0  0  0  0  0  0
  -27.2075  -24.4335   20.4376 C   0  0  0  0  0  0  0  0  0  0  0  0
  -31.5383  -12.5841   20.1351 C   0  0  0  0  0  0  0  0  0  0  0  0
  -30.5966  -15.1377   20.7168 C   0  0  0  0  0  0  0  0  0  0  0  0
  -25.0728  -19.2385   22.7140 C   0  0  0  0  0  0  0  0  0  0  0  0
  -19.0027  -28.6708   22.4552 C   0  0  0  0  0  0  0  0  0  0  0  0
  -18.3750  -26.6189   21.3450 C   0  0  0  0  0  0  0  0  0  0  0  0
  -29.9864  -24.5625   20.6471 C   0  0  0  0  0  0  0  0  0  0  0  0
  -27.9502  -23.2632   20.5941 C   0  0  0  0  0  0  0  0  0  0  0  0
  -24.2470  -20.2478   22.2209 C   0  0  0  0  0  0  0  0  0  0  0  0
  -29.8276  -21.2285   18.6561 C   0  0  0  0  0  0  0  0  0  0  0  0
  -29.5047  -20.1439   17.8407 C   0  0  0  0  0  0  0  0  0  0  0  0
  -22.9161  -18.5921   21.0778 C   0  0  0  0  0  0  0  0  0  0  0  0
  -20.0137  -26.5796   23.1199 C   0  0  0  0  0  0  0  0  0  0  0  0
  -29.0142  -18.8174   19.7995 C   0  0  0  0  0  0  0  0  0  0  0  0
  -27.8543  -25.6683   20.3858 C   0  0  0  0  0  0  0  0  0  0  0  0
  -26.7218  -27.4973   19.0147 C   0  0  0  0  0  0  0  0  0  0  0  0
  -30.2492  -12.9531   19.7197 C   0  0  0  0  0  0  0  0  0  0  0  0
  -24.8325  -17.8971   22.3833 C   0  0  0  0  0  0  0  0  0  0  0  0
  -29.7750  -14.2480   20.0041 C   0  0  0  0  0  0  0  0  0  0  0  0
  -23.7388  -17.5674   21.5701 C   0  0  0  0  0  0  0  0  0  0  0  0
  -19.8859  -27.9607   23.2684 C   0  0  0  0  0  0  0  0  0  0  0  0
  -29.3397  -23.3277   20.6989 C   0  0  0  0  0  0  0  0  0  0  0  0
  -23.1702  -19.9249   21.4003 C   0  0  0  0  0  0  0  0  0  0  0  0
  -19.2582  -25.9087   22.1582 C   0  0  0  0  0  0  0  0  0  0  0  0
  -29.7439  -21.1076   20.0432 C   0  0  0  0  0  0  0  0  0  0  0  0
  -29.0980  -18.9383   18.4124 C   0  0  0  0  0  0  0  0  0  0  0  0
  -29.3371  -19.9020   20.6149 C   0  0  0  0  0  0  0  0  0  0  0  0
  -27.0865  -26.8768   20.2246 C   0  0  0  0  0  0  0  0  0  0  0  0
  -26.0047  -28.6039   19.3989 C   0  0  0  0  0  0  0  0  0  0  0  0
  -27.0058  -27.1080   17.6643 C   0  0  0  0  0  0  0  0  0  0  0  0
  -26.4568  -15.6412   20.8417 C   0  0  0  0  0  0  0  0  0  0  0  0
  -23.9972  -13.7587   21.8055 C   0  0  0  0  0  0  0  0  0  0  0  0
  -20.7410  -13.5308   22.8014 C   0  0  0  0  0  0  0  0  0  0  0  0
  -22.8472  -29.9119   24.3152 C   0  0  0  0  0  0  0  0  0  0  0  0
  -29.4349  -11.9682   18.9187 C   0  0  0  0  0  0  0  0  0  0  0  0
  -25.7168  -16.8178   22.9450 C   0  0  0  0  0  0  0  0  0  0  0  0
  -23.4258  -16.1409   21.2020 C   0  0  0  0  0  0  0  0  0  0  0  0
  -27.9525  -12.3242   18.8412 C   0  0  0  0  0  0  0  0  0  0  0  0
  -25.5978  -31.7418   22.9876 C   0  0  0  0  0  0  0  0  0  0  0  0
  -27.7751  -13.8015   18.5051 C   0  0  0  0  0  0  0  0  0  0  0  0
  -26.2583  -30.7585   22.0198 C   0  0  0  0  0  0  0  0  0  0  0  0
  -25.0537  -31.0345   24.2268 C   0  0  0  0  0  0  0  0  0  0  0  0
  -24.8057  -28.9234   22.9796 C   0  0  0  0  0  0  0  0  0  0  0  0
  -28.3881  -14.6921   19.5926 C   0  0  1  0  0  0  0  0  0  0  0  0
  -25.6838  -15.5315   22.1255 C   0  0  1  0  0  0  0  0  0  0  0  0
  -25.3202  -29.5823   21.6883 C   0  0  2  0  0  0  0  0  0  0  0  0
  -19.0025  -11.8547   23.4840 C   0  0  0  0  0  0  0  0  0  0  0  0
  -23.6475  -12.9367   18.8879 C   0  0  0  0  0  0  0  0  0  0  0  0
  -21.3804  -12.0551   19.4807 C   0  0  0  0  0  0  0  0  0  0  0  0
  -23.4150  -11.0678   20.5334 C   0  0  0  0  0  0  0  0  0  0  0  0
  -20.4465  -14.7541   25.4801 C   0  0  0  0  0  0  0  0  0  0  0  0
  -20.6939  -28.6782   24.2962 C   0  0  0  0  0  0  0  0  0  0  0  0
  -22.2106  -22.0772   21.7213 C   0  0  0  0  0  0  0  0  0  1  0  0
  -20.6524  -23.9895   22.3277 C   0  0  0  0  0  0  0  0  0  0  0  0
  -22.6548  -13.3761   21.2305 C   0  0  1  0  0  0  0  0  0  0  0  0
  -20.0918  -12.8013   23.9637 C   0  0  2  0  0  0  0  0  0  0  0  0
  -20.8570  -22.7376   21.4810 C   0  0  1  0  0  0  0  0  0  0  0  0
  -22.7812  -12.3861   20.0383 C   0  0  0  0  0  0  0  0  0  0  0  0
  -26.6382  -27.5348   21.2971 N   0  0  0  0  0  0  0  0  0  0  0  0
  -25.9846  -28.5802   20.7624 N   0  0  0  0  0  0  0  0  0  0  0  0
  -24.3233  -15.1219   21.7710 N   0  0  0  0  0  0  0  0  0  0  0  0
  -24.1701  -29.9308   23.8433 N   0  0  0  0  0  0  0  0  0  0  0  0
  -25.3958  -29.5853   18.6999 N   0  0  0  0  0  0  0  0  0  0  0  0
  -27.7553  -25.9436   17.4482 N   0  0  0  0  0  0  0  0  0  0  0  0
  -27.5144  -14.7571   20.7445 N   0  0  0  0  0  0  0  0  0  0  0  0
  -21.8623  -12.8700   22.3459 N   0  0  0  0  0  0  0  0  0  0  0  0
  -22.0755  -28.8339   23.8992 N   0  0  0  0  0  0  0  0  0  0  0  0
  -19.4830  -13.7764   24.9121 N   0  3  0  0  0  0  0  0  0  0  0  0
  -26.6207  -27.7820   16.6789 O   0  0  0  0  0  0  0  0  0  0  0  0
  -26.1180  -16.4659   20.0010 O   0  0  0  0  0  0  0  0  0  0  0  0
  -24.7264  -12.8814   22.2747 O   0  0  0  0  0  0  0  0  0  0  0  0
  -20.2956  -14.5797   22.3409 O   0  0  0  0  0  0  0  0  0  0  0  0
  -22.3863  -30.7934   25.0483 O   0  0  0  0  0  0  0  0  0  0  0  0
  -20.7795  -23.0949   20.1000 O   0  0  0  0  0  0  0  0  0  0  0  0
  -30.0641  -22.1856   20.8514 O   0  0  0  0  0  0  0  0  0  0  0  0
  -22.3630  -20.9082   20.9171 O   0  0  0  0  0  0  0  0  0  1  0  0
  -19.3831  -24.5528   22.0129 O   0  0  0  0  0  0  0  0  0  0  0  0
  -28.7864  -17.8973   17.6292 F   0  0  0  0  0  0  0  0  0  0  0  0
  -29.2536  -19.7802   21.9468 F   0  0  0  0  0  0  0  0  0  0  0  0
  1  2  1  0  0  0  0
  1  6  2  0  0  0  0
  2  7  2  0  0  0  0
  3  9  1  0  0  0  0
  3 10  2  0  0  0  0
  4 11  2  0  0  0  0
  4 19  1  0  0  0  0
  5 12  1  0  0  0  0
  5 19  2  0  0  0  0
  6 21  1  0  0  0  0
  7 23  1  0  0  0  0
  8 13  2  0  0  0  0
  8 22  1  0  0  0  0
  9 25  2  0  0  0  0
 10 28  1  0  0  0  0
 11 26  1  0  0  0  0
 12 26  2  0  0  0  0
 13 27  1  0  0  0  0
 14 15  2  0  0  0  0
 14 29  1  0  0  0  0
 15 30  1  0  0  0  0
 16 24  1  0  0  0  0
 16 27  2  0  0  0  0
 17 25  1  0  0  0  0
 17 28  2  0  0  0  0
 18 30  2  0  0  0  0
 18 31  1  0  0  0  0
 19 32  1  0  0  0  0
 20 32  1  0  0  0  0
 20 33  2  0  0  0  0
 20 34  1  0  0  0  0
 21 23  2  0  0  0  0
 21 39  1  0  0  0  0
 22 24  2  0  0  0  0
 22 40  1  0  0  0  0
 23 48  1  0  0  0  0
 24 41  1  0  0  0  0
 25 56  1  0  0  0  0
 26 79  1  0  0  0  0
 27 80  1  0  0  0  0
 28 81  1  0  0  0  0
 29 31  2  0  0  0  0
 29 79  1  0  0  0  0
 30 82  1  0  0  0  0
 31 83  1  0  0  0  0
 32 63  2  0  0  0  0
 33 64  1  0  0  0  0
 33 67  1  0  0  0  0
 34 68  1  0  0  0  0
 34 73  2  0  0  0  0
 35 49  1  0  0  0  0
 35 69  1  0  0  0  0
 35 74  2  0  0  0  0
 36 59  1  0  0  0  0
 36 65  1  0  0  0  0
 36 75  2  0  0  0  0
 37 60  1  0  0  0  0
 37 70  1  0  0  0  0
 37 76  2  0  0  0  0
 38 66  1  0  0  0  0
 38 71  1  0  0  0  0
 38 77  2  0  0  0  0
 39 42  1  0  0  0  0
 40 49  1  0  0  0  0
 41 65  1  0  0  0  0
 42 44  1  0  0  0  0
 43 45  1  0  0  0  0
 43 46  1  0  0  0  0
 44 48  1  0  0  0  0
 45 50  1  0  0  0  0
 46 66  1  0  0  0  0
 47 50  1  0  0  0  0
 47 66  1  0  0  0  0
 48 69  1  0  0  0  0
 49 65  1  0  0  0  0
 50 64  1  0  0  0  0
 51 60  1  0  0  0  0
 52 62  1  0  0  0  0
 53 62  1  0  0  0  0
 54 62  1  0  0  0  0
 55 72  1  0  0  0  0
 56 71  1  0  0  0  0
 57 61  1  0  0  0  0
 57 80  1  0  0  0  0
 58 61  1  0  0  0  0
 58 81  1  0  0  0  0
 59 62  1  0  0  0  0
 59 70  1  0  0  0  0
 60 72  1  0  0  0  0
 61 78  1  0  0  0  0
 63 64  1  0  0  0  0
M  CHG  1  72   1
M  ISO  4  38 100  57 101  71 100  80 101
M  END
> <Batch ID>
0000

> <Smiles>
CNC(C)C(=O)NC(C(=O)N1Cc2cc([101O:1][101CH2:1]C(O)COc3cccc(C[100NH:0][100C:0](=O)N4CCCC(n5nc(-c6ccc(Oc7ccc(F)cc7F)cc6)c(C(N)=O)c5N)C4)c3)ccc2CC1C(=O)NC1CCCc2ccccc21)C(C)(C)C

> <Shape>
0.269

> <Color>
0.059

> <Negative vol penalty>
0.000

$$$$

  -OEChem-04052315133D

 84 91  0     1  0  0  0  0  0999 V2000
  -32.5219  -34.1750   19.9114 C   0  0  0  0  0  0  0  0  0  0  0  0
  -33.1710  -32.9481   20.0043 C   0  0  0  0  0  0  0  0  0  0  0  0
  -23.0001   -9.8912   19.9901 C   0  0  0  0  0  0  0  0  0  0  0  0
  -23.7775   -9.9312   22.2772 C   0  0  0  0  0  0  0  0  0  0  0  0
  -31.1523  -34.2583   20.1591 C   0  0  0  0  0  0  0  0  0  0  0  0
  -32.4510  -31.8038   20.3461 C   0  0  0  0  0  0  0  0  0  0  0  0
  -32.2615  -24.7503   19.1098 C   0  0  0  0  0  0  0  0  0  0  0  0
  -22.2471   -8.7500   20.2659 C   0  0  0  0  0  0  0  0  0  0  0  0
  -23.0244   -8.7899   22.5531 C   0  0  0  0  0  0  0  0  0  0  0  0
  -32.2321  -23.5370   19.7959 C   0  0  0  0  0  0  0  0  0  0  0  0
  -23.2792   -5.4559   22.0524 C   0  0  0  0  0  0  0  0  0  0  0  0
  -23.8902   -4.4375   22.7838 C   0  0  0  0  0  0  0  0  0  0  0  0
  -29.8554  -23.7873   20.1242 C   0  0  0  0  0  0  0  0  0  0  0  0
  -22.2036   -4.6577   24.4996 C   0  0  0  0  0  0  0  0  0  0  0  0
  -23.7653  -10.4818   20.9957 C   0  0  0  0  0  0  0  0  0  0  0  0
  -24.1305  -13.0010   20.8286 C   0  0  0  0  0  0  0  0  0  0  0  0
  -30.4134  -33.1129   20.4947 C   0  0  0  0  0  0  0  0  0  0  0  0
  -31.0880  -25.4978   18.9349 C   0  0  0  0  0  0  0  0  0  0  0  0
  -31.0706  -31.8721   20.5999 C   0  0  0  0  0  0  0  0  0  0  0  0
  -29.8722  -25.0085   19.4333 C   0  0  0  0  0  0  0  0  0  0  0  0
  -22.2592   -8.1993   21.5474 C   0  0  0  0  0  0  0  0  0  0  0  0
  -31.0294  -23.0567   20.3057 C   0  0  0  0  0  0  0  0  0  0  0  0
  -22.1303   -6.0754   22.5446 C   0  0  0  0  0  0  0  0  0  0  0  0
  -23.3524   -4.0383   24.0073 C   0  0  0  0  0  0  0  0  0  0  0  0
  -21.5926   -5.6762   23.7682 C   0  0  0  0  0  0  0  0  0  0  0  0
  -24.5438  -11.6604   20.7113 C   0  0  0  0  0  0  0  0  0  0  0  0
  -25.2270  -13.7333   20.4440 C   0  0  0  0  0  0  0  0  0  0  0  0
  -22.8682  -13.5365   21.2478 C   0  0  0  0  0  0  0  0  0  0  0  0
  -30.1132  -28.3862   19.8354 C   0  0  0  0  0  0  0  0  0  0  0  0
  -27.5557  -27.6772   17.9702 C   0  0  0  0  0  0  0  0  0  0  0  0
  -25.6004  -25.2841   16.5223 C   0  0  0  0  0  0  0  0  0  0  0  0
  -30.7431  -14.6132   20.7270 C   0  0  0  0  0  0  0  0  0  0  0  0
  -28.9438  -33.2606   20.7997 C   0  0  0  0  0  0  0  0  0  0  0  0
  -31.1320  -26.7917   18.1693 C   0  0  0  0  0  0  0  0  0  0  0  0
  -28.5809  -25.7630   19.2548 C   0  0  0  0  0  0  0  0  0  0  0  0
  -28.1836  -31.9369   20.7898 C   0  0  0  0  0  0  0  0  0  0  0  0
  -29.5359  -12.3141   18.2257 C   0  0  0  0  0  0  0  0  0  0  0  0
  -28.9486  -30.8761   21.5749 C   0  0  0  0  0  0  0  0  0  0  0  0
  -28.1082  -12.0198   18.6846 C   0  0  0  0  0  0  0  0  0  0  0  0
  -30.4716  -12.5269   19.4114 C   0  0  0  0  0  0  0  0  0  0  0  0
  -28.5811  -13.3019   20.8194 C   0  0  0  0  0  0  0  0  0  0  0  0
  -30.3194  -30.6042   20.9438 C   0  0  1  0  0  0  0  0  0  0  0  0
  -29.9662  -27.7197   18.4968 C   0  0  1  0  0  0  0  0  0  0  0  0
  -27.6026  -13.1082   19.6482 C   0  0  2  0  0  0  0  0  0  0  0  0
  -23.5605  -25.0102   15.0866 C   0  0  0  0  0  0  0  0  0  0  0  0
  -26.9012  -17.1471   23.5045 C   0  0  0  0  0  0  0  0  0  0  0  0
  -25.7843  -28.3349   20.3660 C   0  0  0  0  0  0  0  0  0  0  0  0
  -23.9019  -27.1577   19.2089 C   0  0  0  0  0  0  0  0  0  0  0  0
  -24.9297  -29.1809   18.1731 C   0  0  0  0  0  0  0  0  0  0  0  0
  -26.1248  -18.9517   21.0801 C   0  0  0  0  0  0  0  0  0  0  0  0
  -27.7134  -20.6850   21.9452 C   0  0  0  0  0  0  0  0  0  0  0  0
  -27.1383  -23.9151   14.3962 C   0  0  0  0  0  0  0  0  0  0  0  0
  -32.1757  -21.4994   21.6903 C   0  0  0  0  0  0  0  0  0  1  0  0
  -31.7826  -20.6549   22.8869 C   0  0  0  0  0  0  0  0  0  0  0  0
  -30.8475  -16.5938   22.0404 C   0  0  0  0  0  0  0  0  0  0  0  0
  -30.7348  -18.6468   23.5130 C   0  0  0  0  0  0  0  0  0  0  0  0
  -26.2215  -27.0077   18.1949 C   0  0  1  0  0  0  0  0  0  0  0  0
  -25.0762  -25.1331   15.1056 C   0  0  2  0  0  0  0  0  0  0  0  0
  -27.6809  -18.3878   23.0665 C   0  0  2  0  0  0  0  0  0  0  0  0
  -29.9870  -17.4323   22.9774 C   0  0  1  0  0  0  0  0  0  0  0  0
  -25.2338  -27.9068   18.9910 C   0  0  0  0  0  0  0  0  0  0  0  0
  -26.8423  -19.4753   22.3349 C   0  0  0  0  0  0  0  0  0  0  0  0
  -25.8045  -11.5449   20.2854 N   0  0  0  0  0  0  0  0  0  0  0  0
  -26.1927  -12.8223   20.1316 N   0  0  0  0  0  0  0  0  0  0  0  0
  -28.6766  -27.0261   18.5045 N   0  0  0  0  0  0  0  0  0  0  0  0
  -29.9438  -13.5379   20.3267 N   0  0  0  0  0  0  0  0  0  0  0  0
  -25.4496  -15.0612   20.3459 N   0  0  0  0  0  0  0  0  0  0  0  0
  -21.8502  -12.6433   21.6086 N   0  0  0  0  0  0  0  0  0  0  0  0
  -25.8060  -19.9599   23.2637 N   0  0  0  0  0  0  0  0  0  0  0  0
  -30.1794  -29.7650   19.7731 N   0  0  0  0  0  0  0  0  0  0  0  0
  -25.7376  -26.6093   16.8775 N   0  0  0  0  0  0  0  0  0  0  0  0
  -25.6543  -23.9174   14.4662 N   0  3  0  0  0  0  0  0  0  0  0  0
  -28.7977  -17.9169   22.2111 N   0  3  0  0  0  0  0  0  0  0  0  0
  -22.6443  -14.7702   21.2851 O   0  0  0  0  0  0  0  0  0  0  0  0
  -30.1615  -27.7003   20.8498 O   0  0  0  0  0  0  0  0  0  0  0  0
  -27.6025  -28.7351   17.3376 O   0  0  0  0  0  0  0  0  0  0  0  0
  -25.8586  -24.3226   17.2430 O   0  0  0  0  0  0  0  0  0  0  0  0
  -31.9032  -14.7890   20.3588 O   0  0  0  0  0  0  0  0  0  0  0  0
  -21.5244   -7.0858   21.8170 O   0  0  0  0  0  0  0  0  0  0  0  0
  -30.9979  -21.8730   20.9764 O   0  0  0  0  0  0  0  0  0  1  0  0
  -30.0952  -15.4640   21.5830 O   0  0  0  0  0  0  0  0  0  0  0  0
  -31.1268  -19.4784   22.4298 O   0  0  0  0  0  0  0  0  0  0  0  0
  -23.9385   -3.0592   24.7088 F   0  0  0  0  0  0  0  0  0  0  0  0
  -20.4884   -6.2667   24.2456 F   0  0  0  0  0  0  0  0  0  0  0  0
  1  2  1  0  0  0  0
  1  5  2  0  0  0  0
  2  6  2  0  0  0  0
  3  8  2  0  0  0  0
  3 15  1  0  0  0  0
  4  9  1  0  0  0  0
  4 15  2  0  0  0  0
  5 17  1  0  0  0  0
  6 19  1  0  0  0  0
  7 10  2  0  0  0  0
  7 18  1  0  0  0  0
  8 21  1  0  0  0  0
  9 21  2  0  0  0  0
 10 22  1  0  0  0  0
 11 12  2  0  0  0  0
 11 23  1  0  0  0  0
 12 24  1  0  0  0  0
 13 20  1  0  0  0  0
 13 22  2  0  0  0  0
 14 24  2  0  0  0  0
 14 25  1  0  0  0  0
 15 26  1  0  0  0  0
 16 26  1  0  0  0  0
 16 27  2  0  0  0  0
 16 28  1  0  0  0  0
 17 19  2  0  0  0  0
 17 33  1  0  0  0  0
 18 20  2  0  0  0  0
 18 34  1  0  0  0  0
 19 42  1  0  0  0  0
 20 35  1  0  0  0  0
 21 79  1  0  0  0  0
 22 80  1  0  0  0  0
 23 25  2  0  0  0  0
 23 79  1  0  0  0  0
 24 83  1  0  0  0  0
 25 84  1  0  0  0  0
 26 63  2  0  0  0  0
 27 64  1  0  0  0  0
 27 67  1  0  0  0  0
 28 68  1  0  0  0  0
 28 74  2  0  0  0  0
 29 43  1  0  0  0  0
 29 70  1  0  0  0  0
 29 75  2  0  0  0  0
 30 57  1  0  0  0  0
 30 65  1  0  0  0  0
 30 76  2  0  0  0  0
 31 58  1  0  0  0  0
 31 71  1  0  0  0  0
 31 77  2  0  0  0  0
 32 66  1  0  0  0  0
 32 78  2  0  0  0  0
 32 81  1  0  0  0  0
 33 36  1  0  0  0  0
 34 43  1  0  0  0  0
 35 65  1  0  0  0  0
 36 38  1  0  0  0  0
 37 39  1  0  0  0  0
 37 40  1  0  0  0  0
 38 42  1  0  0  0  0
 39 44  1  0  0  0  0
 40 66  1  0  0  0  0
 41 44  1  0  0  0  0
 41 66  1  0  0  0  0
 42 70  1  0  0  0  0
 43 65  1  0  0  0  0
 44 64  1  0  0  0  0
 45 58  1  0  0  0  0
 46 59  1  0  0  0  0
 47 61  1  0  0  0  0
 48 61  1  0  0  0  0
 49 61  1  0  0  0  0
 50 62  1  0  0  0  0
 51 62  1  0  0  0  0
 52 72  1  0  0  0  0
 53 54  1  0  0  0  0
 53 80  1  0  0  0  0
 54 82  1  0  0  0  0
 55 60  1  0  0  0  0
 55 81  1  0  0  0  0
 56 60  1  0  0  0  0
 56 82  1  0  0  0  0
 57 61  1  0  0  0  0
 57 71  1  0  0  0  0
 58 72  1  0  0  0  0
 59 62  1  0  0  0  0
 59 73  1  0  0  0  0
 60 73  1  0  0  0  0
 62 69  1  0  0  0  0
 63 64  1  0  0  0  0
M  CHG  2  72   1  73   1
M  ISO  4  32 100  53 101  80 101  81 100
M  END
> <Batch ID>
0000

> <Smiles>
CNC(C)C(=O)NC(C(=O)N1Cc2cc([101O:1][101CH2:1]COCC(C[100O:0][100C:0](=O)N3CCCC(n4nc(-c5ccc(Oc6ccc(F)cc6F)cc5)c(C(N)=O)c4N)C3)NC(C)C(C)(C)N)ccc2CC1C(=O)NC1CCCc2ccccc21)C(C)(C)C

> <Shape>
0.264

> <Color>
0.187

> <Negative vol penalty>
0.000

$$$$

  -OEChem-04052315133D

 93101  0     1  0  0  0  0  0999 V2000
  -25.5831  -39.5681   24.8041 C   0  0  0  0  0  0  0  0  0  0  0  0
  -24.6225  -38.6959   25.3059 C   0  0  0  0  0  0  0  0  0  0  0  0
  -32.9516  -20.0458   26.2676 C   0  0  0  0  0  0  0  0  0  0  0  0
  -22.6447  -10.2606   21.2921 C   0  0  0  0  0  0  0  0  0  0  0  0
  -24.7291   -9.1299   20.8298 C   0  0  0  0  0  0  0  0  0  0  0  0
  -31.8538  -20.6093   26.9178 C   0  0  0  0  0  0  0  0  0  0  0  0
  -26.4543  -39.1422   23.8023 C   0  0  0  0  0  0  0  0  0  0  0  0
  -24.5317  -37.3975   24.8054 C   0  0  0  0  0  0  0  0  0  0  0  0
  -25.2621  -31.6920   29.1419 C   0  0  0  0  0  0  0  0  0  0  0  0
  -33.0502  -18.6603   26.1385 C   0  0  0  0  0  0  0  0  0  0  0  0
  -22.0320   -9.0314   21.5360 C   0  0  0  0  0  0  0  0  0  0  0  0
  -24.1165   -7.9007   21.0737 C   0  0  0  0  0  0  0  0  0  0  0  0
  -25.1805  -30.5516   29.9413 C   0  0  0  0  0  0  0  0  0  0  0  0
  -20.1709   -5.4553   22.2656 C   0  0  0  0  0  0  0  0  0  0  0  0
  -18.8205   -5.4599   22.6148 C   0  0  0  0  0  0  0  0  0  0  0  0
  -30.9530  -18.4021   27.3099 C   0  0  0  0  0  0  0  0  0  0  0  0
  -24.9660  -29.1706   27.9678 C   0  0  0  0  0  0  0  0  0  0  0  0
  -18.7880   -7.8705   22.4572 C   0  0  0  0  0  0  0  0  0  0  0  0
  -23.9932  -10.3098   20.9390 C   0  0  0  0  0  0  0  0  0  0  0  0
  -30.8545  -19.7875   27.4389 C   0  0  0  0  0  0  0  0  0  0  0  0
  -24.0322  -12.8537   20.7518 C   0  0  0  0  0  0  0  0  0  0  0  0
  -26.3805  -37.8349   23.2961 C   0  0  0  0  0  0  0  0  0  0  0  0
  -25.2113  -31.5743   27.7501 C   0  0  0  0  0  0  0  0  0  0  0  0
  -25.4019  -36.9542   23.7950 C   0  0  0  0  0  0  0  0  0  0  0  0
  -25.0598  -30.3081   27.1615 C   0  0  0  0  0  0  0  0  0  0  0  0
  -22.7679   -7.8515   21.4268 C   0  0  0  0  0  0  0  0  0  0  0  0
  -32.0509  -17.8385   26.6597 C   0  0  0  0  0  0  0  0  0  0  0  0
  -25.0326  -29.2941   29.3556 C   0  0  0  0  0  0  0  0  0  0  0  0
  -20.8299   -6.6583   22.0122 C   0  0  0  0  0  0  0  0  0  0  0  0
  -18.1290   -6.6675   22.7106 C   0  0  0  0  0  0  0  0  0  0  0  0
  -20.1384   -7.8659   22.1080 C   0  0  0  0  0  0  0  0  0  0  0  0
  -24.6265  -11.5792   20.6864 C   0  0  0  0  0  0  0  0  0  0  0  0
  -25.0459  -13.7222   20.4287 C   0  0  0  0  0  0  0  0  0  0  0  0
  -29.7270  -20.3660   28.1063 C   0  0  0  0  0  0  0  0  0  0  0  0
  -29.5515  -21.6862   28.2751 C   0  0  0  0  0  0  0  0  0  0  0  0
  -22.6843  -13.2197   21.0758 C   0  0  0  0  0  0  0  0  0  0  0  0
  -25.3050  -33.3151   24.4280 C   0  0  0  0  0  0  0  0  0  0  0  0
  -26.9394  -30.7364   24.1291 C   0  0  0  0  0  0  0  0  0  0  0  0
  -27.0546  -27.3270   24.1294 C   0  0  0  0  0  0  0  0  0  0  0  0
  -30.7506  -14.3983   21.1453 C   0  0  0  0  0  0  0  0  0  0  0  0
  -27.3129  -37.4349   22.1801 C   0  0  0  0  0  0  0  0  0  0  0  0
  -25.2336  -32.7813   26.8522 C   0  0  0  0  0  0  0  0  0  0  0  0
  -24.9750  -30.2329   25.6615 C   0  0  0  0  0  0  0  0  0  0  0  0
  -27.3960  -35.9256   21.9673 C   0  0  0  0  0  0  0  0  0  0  0  0
  -29.3619  -13.3105   18.0527 C   0  0  0  0  0  0  0  0  0  0  0  0
  -26.0001  -35.3106   21.9547 C   0  0  0  0  0  0  0  0  0  0  0  0
  -27.9440  -12.8716   18.4226 C   0  0  0  0  0  0  0  0  0  0  0  0
  -30.3627  -12.9742   19.1559 C   0  0  0  0  0  0  0  0  0  0  0  0
  -28.5866  -13.0441   20.8631 C   0  0  0  0  0  0  0  0  0  0  0  0
  -25.2884  -35.5303   23.2951 C   0  0  1  0  0  0  0  0  0  0  0  0
  -25.9672  -32.5308   25.5224 C   0  0  1  0  0  0  0  0  0  0  0  0
  -27.5324  -13.4124   19.8052 C   0  0  2  0  0  0  0  0  0  0  0  0
  -27.9545  -25.0276   23.6819 C   0  0  0  0  0  0  0  0  0  0  0  0
  -25.6473  -31.1581   21.3984 C   0  0  0  0  0  0  0  0  0  0  0  0
  -26.2052  -28.7807   20.8462 C   0  0  0  0  0  0  0  0  0  0  0  0
  -28.0328  -30.4111   21.3200 C   0  0  0  0  0  0  0  0  0  0  0  0
  -28.6131  -27.3212   26.6453 C   0  0  0  0  0  0  0  0  0  0  0  0
  -28.3703  -22.2759   28.9981 C   0  0  0  0  0  0  0  0  0  0  0  0
  -30.9871  -15.7899   23.1866 C   0  0  0  0  0  0  0  0  0  0  0  0
  -27.5950  -23.2449   28.1134 C   0  0  0  0  0  0  0  0  0  0  0  0
  -32.3330  -16.1450   22.5803 C   0  0  0  0  0  0  0  0  0  0  0  0
  -33.2955  -15.9774   25.8577 C   0  0  0  0  0  0  0  0  0  0  0  0
  -25.6547  -28.2237   31.3866 C   0  0  0  0  0  0  0  0  0  1  0  0
  -32.8447  -15.1694   24.6562 C   0  0  0  0  0  0  0  0  0  0  0  0
  -26.1010  -26.8204   31.7488 C   0  0  0  0  0  0  0  0  0  0  0  0
  -28.3463  -24.5561   29.9131 C   0  0  0  0  0  0  0  0  0  0  0  0
  -27.4331  -25.0226   31.0304 C   0  0  0  0  0  0  0  0  0  0  0  0
  -26.5835  -29.5868   23.2207 C   0  0  1  0  0  0  0  0  0  0  0  0
  -28.1957  -26.3575   24.3791 C   0  0  2  0  0  0  0  0  0  0  0  0
  -26.6015  -29.9904   21.7193 C   0  0  0  0  0  0  0  0  0  0  0  0
  -25.9177  -11.6291   20.3481 N   0  0  0  0  0  0  0  0  0  0  0  0
  -26.1430  -12.9454   20.1979 N   0  0  0  0  0  0  0  0  0  0  0  0
  -25.9685  -31.1337   25.0564 N   0  0  0  0  0  0  0  0  0  0  0  0
  -29.9144  -13.5168   20.4406 N   0  0  0  0  0  0  0  0  0  0  0  0
  -25.0970  -15.0670   20.3221 N   0  0  0  0  0  0  0  0  0  0  0  0
  -21.7712  -12.2019   21.3834 N   0  0  0  0  0  0  0  0  0  0  0  0
  -25.7853  -34.6033   24.2892 N   0  0  0  0  0  0  0  0  0  0  0  0
  -27.4978  -28.5013   23.5586 N   0  0  0  0  0  0  0  0  0  0  0  0
  -30.2468  -14.8710   22.3509 N   0  0  0  0  0  0  0  0  0  0  0  0
  -28.3479  -26.1017   25.8394 N   0  3  0  0  0  0  0  0  0  0  0  0
  -22.2970  -14.4128   21.0761 O   0  0  0  0  0  0  0  0  0  0  0  0
  -24.4239  -32.7907   23.7569 O   0  0  0  0  0  0  0  0  0  0  0  0
  -28.0452  -31.2730   24.0178 O   0  0  0  0  0  0  0  0  0  0  0  0
  -25.8863  -27.0670   24.4089 O   0  0  0  0  0  0  0  0  0  0  0  0
  -31.8616  -14.7430   20.7283 O   0  0  0  0  0  0  0  0  0  0  0  0
  -22.1704   -6.6520   21.6649 O   0  0  0  0  0  0  0  0  0  0  0  0
  -32.1469  -16.4867   26.5338 O   0  0  0  0  0  0  0  0  0  0  0  0
  -24.9581  -28.1845   30.1418 O   0  0  0  0  0  0  0  0  0  1  0  0
  -27.6164  -24.5422   28.6923 O   0  0  0  0  0  0  0  0  0  0  0  0
  -33.3689  -15.7630   23.4745 O   0  0  0  0  0  0  0  0  0  0  0  0
  -26.9820  -26.3385   30.7415 O   0  0  0  0  0  0  0  0  0  0  0  0
  -16.8318   -6.6717   23.0444 F   0  0  0  0  0  0  0  0  0  0  0  0
  -20.7659   -9.0247   21.8646 F   0  0  0  0  0  0  0  0  0  0  0  0
  1  2  1  0  0  0  0
  1  7  2  0  0  0  0
  2  8  2  0  0  0  0
  3  6  2  0  0  0  0
  3 10  1  0  0  0  0
  4 11  2  0  0  0  0
  4 19  1  0  0  0  0
  5 12  1  0  0  0  0
  5 19  2  0  0  0  0
  6 20  1  0  0  0  0
  7 22  1  0  0  0  0
  8 24  1  0  0  0  0
  9 13  2  0  0  0  0
  9 23  1  0  0  0  0
 10 27  2  0  0  0  0
 11 26  1  0  0  0  0
 12 26  2  0  0  0  0
 13 28  1  0  0  0  0
 14 15  2  0  0  0  0
 14 29  1  0  0  0  0
 15 30  1  0  0  0  0
 16 20  2  0  0  0  0
 16 27  1  0  0  0  0
 17 25  1  0  0  0  0
 17 28  2  0  0  0  0
 18 30  2  0  0  0  0
 18 31  1  0  0  0  0
 19 32  1  0  0  0  0
 20 34  1  0  0  0  0
 21 32  1  0  0  0  0
 21 33  2  0  0  0  0
 21 36  1  0  0  0  0
 22 24  2  0  0  0  0
 22 41  1  0  0  0  0
 23 25  2  0  0  0  0
 23 42  1  0  0  0  0
 24 50  1  0  0  0  0
 25 43  1  0  0  0  0
 26 86  1  0  0  0  0
 27 87  1  0  0  0  0
 28 88  1  0  0  0  0
 29 31  2  0  0  0  0
 29 86  1  0  0  0  0
 30 92  1  0  0  0  0
 31 93  1  0  0  0  0
 32 71  2  0  0  0  0
 33 72  1  0  0  0  0
 33 75  1  0  0  0  0
 34 35  2  0  0  0  0
 35 58  1  0  0  0  0
 36 76  1  0  0  0  0
 36 81  2  0  0  0  0
 37 51  1  0  0  0  0
 37 77  1  0  0  0  0
 37 82  2  0  0  0  0
 38 68  1  0  0  0  0
 38 73  1  0  0  0  0
 38 83  2  0  0  0  0
 39 69  1  0  0  0  0
 39 78  1  0  0  0  0
 39 84  2  0  0  0  0
 40 74  1  0  0  0  0
 40 79  1  0  0  0  0
 40 85  2  0  0  0  0
 41 44  1  0  0  0  0
 42 51  1  0  0  0  0
 43 73  1  0  0  0  0
 44 46  1  0  0  0  0
 45 47  1  0  0  0  0
 45 48  1  0  0  0  0
 46 50  1  0  0  0  0
 47 52  1  0  0  0  0
 48 74  1  0  0  0  0
 49 52  1  0  0  0  0
 49 74  1  0  0  0  0
 50 77  1  0  0  0  0
 51 73  1  0  0  0  0
 52 72  1  0  0  0  0
 53 69  1  0  0  0  0
 54 70  1  0  0  0  0
 55 70  1  0  0  0  0
 56 70  1  0  0  0  0
 57 80  1  0  0  0  0
 58 60  1  0  0  0  0
 59 61  1  0  0  0  0
 59 79  1  0  0  0  0
 60 89  1  0  0  0  0
 61 90  1  0  0  0  0
 62 64  1  0  0  0  0
 62 87  1  0  0  0  0
 63 65  1  0  0  0  0
 63 88  1  0  0  0  0
 64 90  1  0  0  0  0
 65 91  1  0  0  0  0
 66 67  1  0  0  0  0
 66 89  1  0  0  0  0
 67 91  1  0  0  0  0
 68 70  1  0  0  0  0
 68 78  1  0  0  0  0
 69 80  1  0  0  0  0
 71 72  1  0  0  0  0
M  CHG  1  80   1
M  ISO  4  40 100  63 101  79 100  88 101
M  END
> <Batch ID>
0000

> <Smiles>
CNC(C)C(=O)NC(C(=O)N1Cc2cc([101O:1][101CH2:1]COCCOCCC=Cc3cccc(OCCOCC[100NH:0][100C:0](=O)N4CCCC(n5nc(-c6ccc(Oc7ccc(F)cc7F)cc6)c(C(N)=O)c5N)C4)c3)ccc2CC1C(=O)NC1CCCc2ccccc21)C(C)(C)C

> <Shape>
0.262

> <Color>
0.180

> <Negative vol penalty>
0.000

$$$$

  -OEChem-04052315133D

 81 89  0     1  0  0  0  0  0999 V2000
  -16.6897  -29.4611   23.1319 C   0  0  0  0  0  0  0  0  0  0  0  0
  -17.6537  -29.5874   22.1369 C   0  0  0  0  0  0  0  0  0  0  0  0
  -26.5850  -12.6865   21.9931 C   0  0  0  0  0  0  0  0  0  0  0  0
  -25.7693  -14.3575   20.4506 C   0  0  0  0  0  0  0  0  0  0  0  0
  -17.0736  -29.1677   24.4398 C   0  0  0  0  0  0  0  0  0  0  0  0
  -19.0025  -29.4214   22.4495 C   0  0  0  0  0  0  0  0  0  0  0  0
  -25.1332  -27.0212   19.6262 C   0  0  0  0  0  0  0  0  0  0  0  0
  -28.8220  -22.0323   20.5317 C   0  0  0  0  0  0  0  0  0  0  0  0
  -30.6671  -22.6487   21.9643 C   0  0  0  0  0  0  0  0  0  0  0  0
  -25.3403  -12.0575   21.9700 C   0  0  0  0  0  0  0  0  0  0  0  0
  -24.5245  -13.7284   20.4274 C   0  0  0  0  0  0  0  0  0  0  0  0
  -26.4510  -27.4234   19.4131 C   0  0  0  0  0  0  0  0  0  0  0  0
  -29.1192  -23.1028   19.6883 C   0  0  0  0  0  0  0  0  0  0  0  0
  -30.9644  -23.7192   21.1209 C   0  0  0  0  0  0  0  0  0  0  0  0
  -22.4870   -9.8060   22.0365 C   0  0  0  0  0  0  0  0  0  0  0  0
  -22.4646   -8.4169   21.9129 C   0  0  0  0  0  0  0  0  0  0  0  0
  -26.9909  -26.8404   21.6907 C   0  0  0  0  0  0  0  0  0  0  0  0
  -23.6152   -8.5868   19.7952 C   0  0  0  0  0  0  0  0  0  0  0  0
  -26.7995  -13.8366   21.2335 C   0  0  0  0  0  0  0  0  0  0  0  0
  -29.1797  -14.2381   20.4083 C   0  0  0  0  0  0  0  0  0  0  0  0
  -18.4270  -28.9886   24.7666 C   0  0  0  0  0  0  0  0  0  0  0  0
  -24.7311  -26.5350   20.8786 C   0  0  0  0  0  0  0  0  0  0  0  0
  -19.4050  -29.1267   23.7632 C   0  0  0  0  0  0  0  0  0  0  0  0
  -25.6680  -26.4303   21.9165 C   0  0  0  0  0  0  0  0  0  0  0  0
  -29.5959  -21.8053   21.6698 C   0  0  0  0  0  0  0  0  0  0  0  0
  -24.3101  -12.5784   21.1871 C   0  0  0  0  0  0  0  0  0  0  0  0
  -30.1904  -23.9462   19.9829 C   0  0  0  0  0  0  0  0  0  0  0  0
  -27.3794  -27.3357   20.4462 C   0  0  0  0  0  0  0  0  0  0  0  0
  -23.0734  -10.5856   21.0395 C   0  0  0  0  0  0  0  0  0  0  0  0
  -23.0288   -7.8072   20.7923 C   0  0  0  0  0  0  0  0  0  0  0  0
  -23.6375   -9.9760   19.9189 C   0  0  0  0  0  0  0  0  0  0  0  0
  -28.0849  -14.4872   21.2574 C   0  0  0  0  0  0  0  0  0  0  0  0
  -30.1515  -15.1091   20.8365 C   0  0  0  0  0  0  0  0  0  0  0  0
  -29.3069  -13.3031   19.3288 C   0  0  0  0  0  0  0  0  0  0  0  0
  -22.6340  -27.4660   23.0784 C   0  0  0  0  0  0  0  0  0  0  0  0
  -23.4563  -24.6625   24.4878 C   0  0  0  0  0  0  0  0  0  0  0  0
  -25.7688  -22.1825   24.8734 C   0  0  0  0  0  0  0  0  0  0  0  0
  -29.9615  -20.3528   23.6953 C   0  0  0  0  0  0  0  0  0  0  0  0
  -18.7973  -28.7192   26.2036 C   0  0  0  0  0  0  0  0  0  0  0  0
  -23.3122  -26.0803   21.0845 C   0  0  0  0  0  0  0  0  0  0  0  0
  -25.2918  -25.8963   23.2735 C   0  0  0  0  0  0  0  0  0  0  0  0
  -20.2180  -28.1885   26.3773 C   0  0  0  0  0  0  0  0  0  0  0  0
  -31.6554  -17.4075   24.7596 C   0  0  0  0  0  0  0  0  0  0  0  0
  -21.2010  -29.0149   25.5542 C   0  0  0  0  0  0  0  0  0  0  0  0
  -31.0359  -16.3026   23.9007 C   0  0  0  0  0  0  0  0  0  0  0  0
  -30.6229  -18.4591   25.1620 C   0  0  0  0  0  0  0  0  0  0  0  0
  -29.2429  -17.9355   23.1896 C   0  0  0  0  0  0  0  0  0  0  0  0
  -20.8762  -28.9294   24.0580 C   0  0  1  0  0  0  0  0  0  0  0  0
  -22.8907  -26.0828   22.5507 C   0  0  1  0  0  0  0  0  0  0  0  0
  -30.2581  -16.8873   22.7054 C   0  0  2  0  0  0  0  0  0  0  0  0
  -26.7383  -20.0040   25.6554 C   0  0  0  0  0  0  0  0  0  0  0  0
  -24.0606  -26.2563   27.0185 C   0  0  0  0  0  0  0  0  0  0  0  0
  -25.3278  -24.2761   27.8794 C   0  0  0  0  0  0  0  0  0  0  0  0
  -22.8855  -24.0837   27.4097 C   0  0  0  0  0  0  0  0  0  0  0  0
  -24.6824  -20.7270   22.5367 C   0  0  0  0  0  0  0  0  0  0  0  0
  -30.6908  -27.3904   18.9728 C   0  0  0  0  0  0  0  0  0  0  0  0
  -31.0716  -26.1434   19.7552 C   0  0  0  0  0  0  0  0  0  0  0  0
  -29.1843  -27.5901   18.9186 C   0  0  0  0  0  0  0  0  0  1  0  0
  -24.5109  -24.2332   25.4790 C   0  0  1  0  0  0  0  0  0  0  0  0
  -25.6386  -20.6703   24.8434 C   0  0  2  0  0  0  0  0  0  0  0  0
  -24.2031  -24.7242   26.9218 C   0  0  0  0  0  0  0  0  0  0  0  0
  -28.3369  -15.4416   22.1572 N   0  0  0  0  0  0  0  0  0  0  0  0
  -29.6013  -15.7998   21.8759 N   0  0  0  0  0  0  0  0  0  0  0  0
  -23.8910  -25.4702   23.4273 N   0  0  0  0  0  0  0  0  0  0  0  0
  -29.9288  -18.9709   23.9784 N   0  0  0  0  0  0  0  0  0  0  0  0
  -31.4146  -15.3439   20.4217 N   0  0  0  0  0  0  0  0  0  0  0  0
  -28.2117  -12.4841   19.0219 N   0  0  0  0  0  0  0  0  0  0  0  0
  -29.2941  -20.7179   22.5266 N   0  0  0  0  0  0  0  0  0  0  0  0
  -21.3380  -27.6713   23.5117 N   0  0  0  0  0  0  0  0  0  0  0  0
  -24.6244  -22.7842   25.3524 N   0  0  0  0  0  0  0  0  0  0  0  0
  -25.7210  -20.1710   23.4417 N   0  3  0  0  0  0  0  0  0  0  0  0
  -30.3659  -13.1856   18.6670 O   0  0  0  0  0  0  0  0  0  0  0  0
  -23.5446  -28.2859   23.0928 O   0  0  0  0  0  0  0  0  0  0  0  0
  -22.2912  -24.2890   24.6446 O   0  0  0  0  0  0  0  0  0  0  0  0
  -26.7855  -22.7708   24.5118 O   0  0  0  0  0  0  0  0  0  0  0  0
  -30.5621  -21.1498   24.4207 O   0  0  0  0  0  0  0  0  0  0  0  0
  -23.0954  -11.9646   21.1640 O   0  0  0  0  0  0  0  0  0  0  0  0
  -30.4825  -24.9982   19.1542 O   0  0  0  0  0  0  0  0  0  0  0  0
  -28.6662  -27.7281   20.2411 O   0  0  0  0  0  0  0  0  0  1  0  0
  -23.0086   -6.4731   20.6744 F   0  0  0  0  0  0  0  0  0  0  0  0
  -24.2034  -10.7197   18.9583 F   0  0  0  0  0  0  0  0  0  0  0  0
  1  2  1  0  0  0  0
  1  5  2  0  0  0  0
  2  6  2  0  0  0  0
  3 10  2  0  0  0  0
  3 19  1  0  0  0  0
  4 11  1  0  0  0  0
  4 19  2  0  0  0  0
  5 21  1  0  0  0  0
  6 23  1  0  0  0  0
  7 12  2  0  0  0  0
  7 22  1  0  0  0  0
  8 13  2  0  0  0  0
  8 25  1  0  0  0  0
  9 14  1  0  0  0  0
  9 25  2  0  0  0  0
 10 26  1  0  0  0  0
 11 26  2  0  0  0  0
 12 28  1  0  0  0  0
 13 27  1  0  0  0  0
 14 27  2  0  0  0  0
 15 16  2  0  0  0  0
 15 29  1  0  0  0  0
 16 30  1  0  0  0  0
 17 24  1  0  0  0  0
 17 28  2  0  0  0  0
 18 30  2  0  0  0  0
 18 31  1  0  0  0  0
 19 32  1  0  0  0  0
 20 32  1  0  0  0  0
 20 33  2  0  0  0  0
 20 34  1  0  0  0  0
 21 23  2  0  0  0  0
 21 39  1  0  0  0  0
 22 24  2  0  0  0  0
 22 40  1  0  0  0  0
 23 48  1  0  0  0  0
 24 41  1  0  0  0  0
 25 68  1  0  0  0  0
 26 77  1  0  0  0  0
 27 78  1  0  0  0  0
 28 79  1  0  0  0  0
 29 31  2  0  0  0  0
 29 77  1  0  0  0  0
 30 80  1  0  0  0  0
 31 81  1  0  0  0  0
 32 62  2  0  0  0  0
 33 63  1  0  0  0  0
 33 66  1  0  0  0  0
 34 67  1  0  0  0  0
 34 72  2  0  0  0  0
 35 49  1  0  0  0  0
 35 69  1  0  0  0  0
 35 73  2  0  0  0  0
 36 59  1  0  0  0  0
 36 64  1  0  0  0  0
 36 74  2  0  0  0  0
 37 60  1  0  0  0  0
 37 70  1  0  0  0  0
 37 75  2  0  0  0  0
 38 65  1  0  0  0  0
 38 68  1  0  0  0  0
 38 76  2  0  0  0  0
 39 42  1  0  0  0  0
 40 49  1  0  0  0  0
 41 64  1  0  0  0  0
 42 44  1  0  0  0  0
 43 45  1  0  0  0  0
 43 46  1  0  0  0  0
 44 48  1  0  0  0  0
 45 50  1  0  0  0  0
 46 65  1  0  0  0  0
 47 50  1  0  0  0  0
 47 65  1  0  0  0  0
 48 69  1  0  0  0  0
 49 64  1  0  0  0  0
 50 63  1  0  0  0  0
 51 60  1  0  0  0  0
 52 61  1  0  0  0  0
 53 61  1  0  0  0  0
 54 61  1  0  0  0  0
 55 71  1  0  0  0  0
 56 57  1  0  0  0  0
 56 58  1  0  0  0  0
 57 78  1  0  0  0  0
 58 79  1  0  0  0  0
 59 61  1  0  0  0  0
 59 70  1  0  0  0  0
 60 71  1  0  0  0  0
 62 63  1  0  0  0  0
M  CHG  1  71   1
M  ISO  4  38 100  58 101  68 100  79 101
M  END
> <Batch ID>
0000

> <Smiles>
CNC(C)C(=O)NC(C(=O)N1Cc2cc([101O:1][101CH2:1]CCOc3ccc([100NH:0][100C:0](=O)N4CCCC(n5nc(-c6ccc(Oc7ccc(F)cc7F)cc6)c(C(N)=O)c5N)C4)cc3)ccc2CC1C(=O)NC1CCCc2ccccc21)C(C)(C)C

> <Shape>
0.239

> <Color>
0.096

> <Negative vol penalty>
0.000

$$$$

  -OEChem-04052315133D

 88 95  0     1  0  0  0  0  0999 V2000
  -31.2996  -26.0107   17.6181 C   0  0  0  0  0  0  0  0  0  0  0  0
  -29.9248  -25.8155   17.7035 C   0  0  0  0  0  0  0  0  0  0  0  0
  -20.9270  -17.0791   21.9159 C   0  0  0  0  0  0  0  0  0  0  0  0
  -21.3543  -19.2082   20.8568 C   0  0  0  0  0  0  0  0  0  0  0  0
  -31.9817  -26.6255   18.6672 C   0  0  0  0  0  0  0  0  0  0  0  0
  -29.2315  -26.2339   18.8387 C   0  0  0  0  0  0  0  0  0  0  0  0
  -23.5322  -28.4644   19.0581 C   0  0  0  0  0  0  0  0  0  0  0  0
  -19.9987  -17.6861   22.7616 C   0  0  0  0  0  0  0  0  0  0  0  0
  -20.4259  -19.8152   21.7025 C   0  0  0  0  0  0  0  0  0  0  0  0
  -22.3066  -27.8775   19.3699 C   0  0  0  0  0  0  0  0  0  0  0  0
  -20.0453  -19.5770   25.5629 C   0  0  0  0  0  0  0  0  0  0  0  0
  -20.0941  -19.2508   26.9181 C   0  0  0  0  0  0  0  0  0  0  0  0
  -22.5101  -28.6717   21.6386 C   0  0  0  0  0  0  0  0  0  0  0  0
  -17.8299  -18.4165   26.7988 C   0  0  0  0  0  0  0  0  0  0  0  0
  -21.6049  -17.8402   20.9635 C   0  0  0  0  0  0  0  0  0  0  0  0
  -22.3171  -16.6369   18.8298 C   0  0  0  0  0  0  0  0  0  0  0  0
  -31.2950  -27.0604   19.8117 C   0  0  0  0  0  0  0  0  0  0  0  0
  -24.2623  -29.1512   20.0387 C   0  0  0  0  0  0  0  0  0  0  0  0
  -29.9054  -26.8539   19.9047 C   0  0  0  0  0  0  0  0  0  0  0  0
  -23.7435  -29.2687   21.3360 C   0  0  0  0  0  0  0  0  0  0  0  0
  -19.7481  -19.0542   22.6550 C   0  0  0  0  0  0  0  0  0  0  0  0
  -21.7967  -27.9786   20.6610 C   0  0  0  0  0  0  0  0  0  0  0  0
  -18.8888  -19.3230   24.8255 C   0  0  0  0  0  0  0  0  0  0  0  0
  -18.9864  -18.6705   27.5361 C   0  0  0  0  0  0  0  0  0  0  0  0
  -17.7811  -18.7428   25.4435 C   0  0  0  0  0  0  0  0  0  0  0  0
  -22.5644  -17.2138   20.0899 C   0  0  0  0  0  0  0  0  0  0  0  0
  -23.5448  -16.1839   18.4127 C   0  0  0  0  0  0  0  0  0  0  0  0
  -21.0876  -16.5208   18.1015 C   0  0  0  0  0  0  0  0  0  0  0  0
  -27.1171  -28.7744   21.3847 C   0  0  0  0  0  0  0  0  0  0  0  0
  -26.3974  -31.6090   22.7880 C   0  0  0  0  0  0  0  0  0  0  0  0
  -23.9969  -33.8102   23.8075 C   0  0  0  0  0  0  0  0  0  0  0  0
  -29.1544  -17.8124   19.7289 C   0  0  0  0  0  0  0  0  0  0  0  0
  -32.0826  -27.6772   20.9403 C   0  0  0  0  0  0  0  0  0  0  0  0
  -25.5701  -29.8017   19.6796 C   0  0  0  0  0  0  0  0  0  0  0  0
  -24.4786  -30.0127   22.4198 C   0  0  0  0  0  0  0  0  0  0  0  0
  -31.2166  -28.4293   21.9476 C   0  0  0  0  0  0  0  0  0  0  0  0
  -27.7185  -14.5770   20.1124 C   0  0  0  0  0  0  0  0  0  0  0  0
  -29.9978  -27.5960   22.3309 C   0  0  0  0  0  0  0  0  0  0  0  0
  -26.2125  -14.8338   20.0364 C   0  0  0  0  0  0  0  0  0  0  0  0
  -28.4486  -15.7093   20.8313 C   0  0  0  0  0  0  0  0  0  0  0  0
  -26.6821  -17.3131   20.2138 C   0  0  0  0  0  0  0  0  0  0  0  0
  -29.1144  -27.3163   21.1091 C   0  0  1  0  0  0  0  0  0  0  0  0
  -26.4720  -30.0369   20.8873 C   0  0  1  0  0  0  0  0  0  0  0  0
  -25.9099  -16.2251   19.4481 C   0  0  2  0  0  0  0  0  0  0  0  0
  -23.7135  -36.0226   24.9575 C   0  0  0  0  0  0  0  0  0  0  0  0
  -26.9821  -30.2850   25.4741 C   0  0  0  0  0  0  0  0  0  0  0  0
  -25.7933  -32.1847   26.5904 C   0  0  0  0  0  0  0  0  0  0  0  0
  -27.8519  -32.6191   25.2502 C   0  0  0  0  0  0  0  0  0  0  0  0
  -22.6924  -35.0069   21.4358 C   0  0  0  0  0  0  0  0  0  0  0  0
  -29.7034  -19.9562   18.6055 C   0  0  0  0  0  0  0  0  0  0  0  0
  -30.1904  -20.9509   19.6440 C   0  0  0  0  0  0  0  0  0  0  0  0
  -20.2352  -26.2351   20.2391 C   0  0  0  0  0  0  0  0  0  1  0  0
  -19.3630  -25.3580   21.1163 C   0  0  0  0  0  0  0  0  0  0  0  0
  -29.4919  -22.6363   21.1253 C   0  0  0  0  0  0  0  0  0  0  0  0
  -28.2762  -23.4059   21.6046 C   0  0  0  0  0  0  0  0  0  0  0  0
  -19.3119  -24.1908   23.1554 C   0  0  0  0  0  0  0  0  0  0  0  0
  -20.1391  -23.8405   24.3772 C   0  0  0  0  0  0  0  0  0  0  0  0
  -26.1710  -23.1620   22.6202 C   0  0  0  0  0  0  0  0  0  0  0  0
  -25.1983  -22.1366   23.1702 C   0  0  0  0  0  0  0  0  0  0  0  0
  -22.1137  -22.7723   25.0719 C   0  0  0  0  0  0  0  0  0  0  0  0
  -23.3175  -21.9968   24.5721 C   0  0  0  0  0  0  0  0  0  0  0  0
  -25.7011  -32.0253   24.0612 C   0  0  1  0  0  0  0  0  0  0  0  0
  -23.8620  -35.3108   23.6218 C   0  0  2  0  0  0  0  0  0  0  0  0
  -26.5689  -31.7628   25.3243 C   0  0  0  0  0  0  0  0  0  0  0  0
  -23.8483  -17.1357   20.4497 N   0  0  0  0  0  0  0  0  0  0  0  0
  -24.4188  -16.5043   19.4095 N   0  0  0  0  0  0  0  0  0  0  0  0
  -25.7563  -30.6259   22.0209 N   0  0  0  0  0  0  0  0  0  0  0  0
  -28.1200  -17.0012   20.2238 N   0  0  0  0  0  0  0  0  0  0  0  0
  -23.9513  -15.5467   17.2941 N   0  0  0  0  0  0  0  0  0  0  0  0
  -19.9193  -17.0401   18.6757 N   0  0  0  0  0  0  0  0  0  0  0  0
  -28.3244  -28.4831   20.7788 N   0  0  0  0  0  0  0  0  0  0  0  0
  -25.3178  -33.4211   23.8791 N   0  0  0  0  0  0  0  0  0  0  0  0
  -28.7556  -19.0174   19.1634 N   0  0  0  0  0  0  0  0  0  0  0  0
  -22.6680  -35.6241   22.7869 N   0  3  0  0  0  0  0  0  0  0  0  0
  -21.0238  -15.9583   16.9821 O   0  0  0  0  0  0  0  0  0  0  0  0
  -26.5615  -28.1142   22.2548 O   0  0  0  0  0  0  0  0  0  0  0  0
  -27.4670  -32.1417   22.4817 O   0  0  0  0  0  0  0  0  0  0  0  0
  -23.0275  -33.0588   23.8853 O   0  0  0  0  0  0  0  0  0  0  0  0
  -30.3446  -17.4846   19.7819 O   0  0  0  0  0  0  0  0  0  0  0  0
  -18.8421  -19.6468   23.4799 O   0  0  0  0  0  0  0  0  0  0  0  0
  -20.6010  -27.4061   20.9681 O   0  0  0  0  0  0  0  0  0  1  0  0
  -29.0847  -21.6883   20.1461 O   0  0  0  0  0  0  0  0  0  0  0  0
  -20.0840  -25.0152   22.2936 O   0  0  0  0  0  0  0  0  0  0  0  0
  -27.3359  -22.4928   22.1528 O   0  0  0  0  0  0  0  0  0  0  0  0
  -21.2985  -23.1275   23.9638 O   0  0  0  0  0  0  0  0  0  0  0  0
  -24.0435  -22.8069   23.6555 O   0  0  0  0  0  0  0  0  0  0  0  0
  -19.0340  -18.3559   28.8372 F   0  0  0  0  0  0  0  0  0  0  0  0
  -16.6676  -18.4953   24.7401 F   0  0  0  0  0  0  0  0  0  0  0  0
  1  2  1  0  0  0  0
  1  5  2  0  0  0  0
  2  6  2  0  0  0  0
  3  8  2  0  0  0  0
  3 15  1  0  0  0  0
  4  9  1  0  0  0  0
  4 15  2  0  0  0  0
  5 17  1  0  0  0  0
  6 19  1  0  0  0  0
  7 10  2  0  0  0  0
  7 18  1  0  0  0  0
  8 21  1  0  0  0  0
  9 21  2  0  0  0  0
 10 22  1  0  0  0  0
 11 12  2  0  0  0  0
 11 23  1  0  0  0  0
 12 24  1  0  0  0  0
 13 20  1  0  0  0  0
 13 22  2  0  0  0  0
 14 24  2  0  0  0  0
 14 25  1  0  0  0  0
 15 26  1  0  0  0  0
 16 26  1  0  0  0  0
 16 27  2  0  0  0  0
 16 28  1  0  0  0  0
 17 19  2  0  0  0  0
 17 33  1  0  0  0  0
 18 20  2  0  0  0  0
 18 34  1  0  0  0  0
 19 42  1  0  0  0  0
 20 35  1  0  0  0  0
 21 80  1  0  0  0  0
 22 81  1  0  0  0  0
 23 25  2  0  0  0  0
 23 80  1  0  0  0  0
 24 87  1  0  0  0  0
 25 88  1  0  0  0  0
 26 65  2  0  0  0  0
 27 66  1  0  0  0  0
 27 69  1  0  0  0  0
 28 70  1  0  0  0  0
 28 75  2  0  0  0  0
 29 43  1  0  0  0  0
 29 71  1  0  0  0  0
 29 76  2  0  0  0  0
 30 62  1  0  0  0  0
 30 67  1  0  0  0  0
 30 77  2  0  0  0  0
 31 63  1  0  0  0  0
 31 72  1  0  0  0  0
 31 78  2  0  0  0  0
 32 68  1  0  0  0  0
 32 73  1  0  0  0  0
 32 79  2  0  0  0  0
 33 36  1  0  0  0  0
 34 43  1  0  0  0  0
 35 67  1  0  0  0  0
 36 38  1  0  0  0  0
 37 39  1  0  0  0  0
 37 40  1  0  0  0  0
 38 42  1  0  0  0  0
 39 44  1  0  0  0  0
 40 68  1  0  0  0  0
 41 44  1  0  0  0  0
 41 68  1  0  0  0  0
 42 71  1  0  0  0  0
 43 67  1  0  0  0  0
 44 66  1  0  0  0  0
 45 63  1  0  0  0  0
 46 64  1  0  0  0  0
 47 64  1  0  0  0  0
 48 64  1  0  0  0  0
 49 74  1  0  0  0  0
 50 51  1  0  0  0  0
 50 73  1  0  0  0  0
 51 82  1  0  0  0  0
 52 53  1  0  0  0  0
 52 81  1  0  0  0  0
 53 83  1  0  0  0  0
 54 55  1  0  0  0  0
 54 82  1  0  0  0  0
 55 84  1  0  0  0  0
 56 57  1  0  0  0  0
 56 83  1  0  0  0  0
 57 85  1  0  0  0  0
 58 59  1  0  0  0  0
 58 84  1  0  0  0  0
 59 86  1  0  0  0  0
 60 61  1  0  0  0  0
 60 85  1  0  0  0  0
 61 86  1  0  0  0  0
 62 64  1  0  0  0  0
 62 72  1  0  0  0  0
 63 74  1  0  0  0  0
 65 66  1  0  0  0  0
M  CHG  1  74   1
M  ISO  4  32 100  52 101  73 100  81 101
M  END
> <Batch ID>
0000

> <Smiles>
CNC(C)C(=O)NC(C(=O)N1Cc2cc([101O:1][101CH2:1]COCCOCCOCCOCCOCC[100NH:0][100C:0](=O)N3CCCC(n4nc(-c5ccc(Oc6ccc(F)cc6F)cc5)c(C(N)=O)c4N)C3)ccc2CC1C(=O)NC1CCCc2ccccc21)C(C)(C)C

> <Shape>
0.241

> <Color>
0.070

> <Negative vol penalty>
0.000

$$$$

  -OEChem-04052315133D

 93102  0     1  0  0  0  0  0999 V2000
  -27.7664  -21.3571   24.9816 C   0  0  0  0  0  0  0  0  0  0  0  0
  -28.1818  -22.6597   24.7244 C   0  0  0  0  0  0  0  0  0  0  0  0
  -26.8101  -12.3610   21.8373 C   0  0  0  0  0  0  0  0  0  0  0  0
  -25.9933  -14.0640   20.3307 C   0  0  0  0  0  0  0  0  0  0  0  0
  -26.7425  -20.7907   24.2236 C   0  0  0  0  0  0  0  0  0  0  0  0
  -27.5741  -23.3963   23.7082 C   0  0  0  0  0  0  0  0  0  0  0  0
  -25.7357  -30.1090   22.0126 C   0  0  0  0  0  0  0  0  0  0  0  0
  -29.1371  -21.7554   20.4164 C   0  0  0  0  0  0  0  0  0  0  0  0
  -30.5779  -22.5917   22.1662 C   0  0  0  0  0  0  0  0  0  0  0  0
  -25.5326  -11.8046   21.9010 C   0  0  0  0  0  0  0  0  0  0  0  0
  -24.7158  -13.5076   20.3944 C   0  0  0  0  0  0  0  0  0  0  0  0
  -25.8784  -31.0372   20.9821 C   0  0  0  0  0  0  0  0  0  0  0  0
  -29.0417  -23.0399   19.8811 C   0  0  0  0  0  0  0  0  0  0  0  0
  -30.4825  -23.8762   21.6308 C   0  0  0  0  0  0  0  0  0  0  0  0
  -23.5851   -9.8117   19.9856 C   0  0  0  0  0  0  0  0  0  0  0  0
  -23.4756   -8.4255   19.8761 C   0  0  0  0  0  0  0  0  0  0  0  0
  -30.7644  -24.8402   17.9355 C   0  0  0  0  0  0  0  0  0  0  0  0
  -24.0656  -29.9832   19.7897 C   0  0  0  0  0  0  0  0  0  0  0  0
  -28.8691  -26.3204   17.9002 C   0  0  0  0  0  0  0  0  0  0  0  0
  -22.4556   -8.3333   22.0643 C   0  0  0  0  0  0  0  0  0  0  0  0
  -30.8549  -25.0108   16.5635 C   0  0  0  0  0  0  0  0  0  0  0  0
  -27.0404  -13.4907   21.0521 C   0  0  0  0  0  0  0  0  0  0  0  0
  -29.3815  -13.7476   20.0719 C   0  0  0  0  0  0  0  0  0  0  0  0
  -26.1154  -21.5240   23.2040 C   0  0  0  0  0  0  0  0  0  0  0  0
  -24.7624  -29.1026   21.9342 C   0  0  0  0  0  0  0  0  0  0  0  0
  -26.5417  -22.8386   22.9350 C   0  0  0  0  0  0  0  0  0  0  0  0
  -23.9108  -29.0450   20.8217 C   0  0  0  0  0  0  0  0  0  0  0  0
  -29.9051  -21.5313   21.5591 C   0  0  0  0  0  0  0  0  0  0  0  0
  -24.4854  -12.3779   21.1796 C   0  0  0  0  0  0  0  0  0  0  0  0
  -29.7144  -24.1003   20.4882 C   0  0  0  0  0  0  0  0  0  0  0  0
  -25.0452  -30.9726   19.8691 C   0  0  0  0  0  0  0  0  0  0  0  0
  -23.1300  -10.4588   21.1345 C   0  0  0  0  0  0  0  0  0  0  0  0
  -29.7497  -25.5110   18.6092 C   0  0  0  0  0  0  0  0  0  0  0  0
  -22.9108   -7.6863   20.9154 C   0  0  0  0  0  0  0  0  0  0  0  0
  -22.5652   -9.7196   22.1738 C   0  0  0  0  0  0  0  0  0  0  0  0
  -28.3597  -14.0662   20.9863 C   0  0  0  0  0  0  0  0  0  0  0  0
  -29.0446  -26.4250   16.5298 C   0  0  0  0  0  0  0  0  0  0  0  0
  -30.4271  -14.5644   20.4270 C   0  0  0  0  0  0  0  0  0  0  0  0
  -29.3852  -12.7982   18.9975 C   0  0  0  0  0  0  0  0  0  0  0  0
  -24.8223  -25.9255   21.8543 C   0  0  0  0  0  0  0  0  0  0  0  0
  -21.5996  -26.2487   22.0329 C   0  0  0  0  0  0  0  0  0  0  0  0
  -18.8490  -28.1964   21.4966 C   0  0  0  0  0  0  0  0  0  0  0  0
  -30.7215  -19.8328   23.2309 C   0  0  0  0  0  0  0  0  0  0  0  0
  -25.0452  -20.8529   22.3800 C   0  0  0  0  0  0  0  0  0  0  0  0
  -24.6035  -28.1252   23.0665 C   0  0  0  0  0  0  0  0  0  0  0  0
  -22.8368  -27.9963   20.6986 C   0  0  0  0  0  0  0  0  0  0  0  0
  -24.1980  -21.8303   21.5693 C   0  0  0  0  0  0  0  0  0  0  0  0
  -32.3095  -16.8031   24.2190 C   0  0  0  0  0  0  0  0  0  0  0  0
  -25.0879  -22.8417   20.8536 C   0  0  0  0  0  0  0  0  0  0  0  0
  -31.5739  -15.7291   23.4143 C   0  0  0  0  0  0  0  0  0  0  0  0
  -31.3669  -17.9157   24.6743 C   0  0  0  0  0  0  0  0  0  0  0  0
  -29.8349  -17.4571   22.8002 C   0  0  0  0  0  0  0  0  0  0  0  0
  -25.8902  -23.6782   21.8576 C   0  0  1  0  0  0  0  0  0  0  0  0
  -23.9187  -26.8288   22.6450 C   0  0  1  0  0  0  0  0  0  0  0  0
  -30.7552  -16.3482   22.2645 C   0  0  2  0  0  0  0  0  0  0  0  0
  -16.3483  -28.1739   21.7051 C   0  0  0  0  0  0  0  0  0  0  0  0
  -21.4107  -24.4871   19.5487 C   0  0  0  0  0  0  0  0  0  0  0  0
  -19.0507  -25.2705   19.2578 C   0  0  0  0  0  0  0  0  0  0  0  0
  -19.6981  -24.0008   21.3051 C   0  0  0  0  0  0  0  0  0  0  0  0
  -18.8707  -30.4681   23.3934 C   0  0  0  0  0  0  0  0  0  0  0  0
  -28.2543  -27.4170   14.3811 C   0  0  0  0  0  0  0  0  0  0  0  0
  -27.1733  -28.3841   13.9342 C   0  0  0  0  0  0  0  0  0  0  0  0
  -26.4892  -32.4059   18.6375 C   0  0  0  0  0  0  0  0  0  1  0  0
  -26.6374  -32.7536   17.1690 C   0  0  0  0  0  0  0  0  0  0  0  0
  -26.3431  -30.5631   14.2273 C   0  0  0  0  0  0  0  0  0  0  0  0
  -26.5540  -31.8502   15.0011 C   0  0  0  0  0  0  0  0  0  0  0  0
  -20.4818  -26.3885   21.0279 C   0  0  1  0  0  0  0  0  0  0  0  0
  -17.6624  -28.5296   22.3828 C   0  0  2  0  0  0  0  0  0  0  0  0
  -20.1818  -25.0554   20.2860 C   0  0  0  0  0  0  0  0  0  0  0  0
  -30.0182  -25.7887   15.8407 N   0  0  0  0  0  0  0  0  0  0  0  0
  -28.7233  -15.0115   21.8570 N   0  0  0  0  0  0  0  0  0  0  0  0
  -29.9853  -15.2939   21.4913 N   0  0  0  0  0  0  0  0  0  0  0  0
  -22.7251  -27.0595   21.8288 N   0  0  0  0  0  0  0  0  0  0  0  0
  -30.6282  -18.4574   23.5315 N   0  0  0  0  0  0  0  0  0  0  0  0
  -31.6721  -14.7225   19.9296 N   0  0  0  0  0  0  0  0  0  0  0  0
  -28.2276  -12.0413   18.7707 N   0  0  0  0  0  0  0  0  0  0  0  0
  -30.0020  -20.2265   22.1031 N   0  0  0  0  0  0  0  0  0  0  0  0
  -28.1722  -27.2232   15.8469 N   0  0  0  0  0  0  0  0  0  0  0  0
  -25.0520  -24.6993   22.4486 N   0  0  0  0  0  0  0  0  0  0  0  0
  -19.3431  -26.9358   21.7573 N   0  0  0  0  0  0  0  0  0  0  0  0
  -17.6474  -29.9851   22.7026 N   0  3  0  0  0  0  0  0  0  0  0  0
  -30.3910  -12.6145   18.2707 O   0  0  0  0  0  0  0  0  0  0  0  0
  -25.2762  -26.3118   20.7836 O   0  0  0  0  0  0  0  0  0  0  0  0
  -21.4755  -25.4547   22.9687 O   0  0  0  0  0  0  0  0  0  0  0  0
  -19.2909  -28.9749   20.6545 O   0  0  0  0  0  0  0  0  0  0  0  0
  -31.4121  -20.5995   23.9071 O   0  0  0  0  0  0  0  0  0  0  0  0
  -23.2388  -11.8352   21.2414 O   0  0  0  0  0  0  0  0  0  0  0  0
  -29.6198  -25.3757   19.9567 O   0  0  0  0  0  0  0  0  0  0  0  0
  -25.1829  -31.8770   18.8616 O   0  0  0  0  0  0  0  0  0  1  0  0
  -27.3361  -29.6209   14.6141 O   0  0  0  0  0  0  0  0  0  0  0  0
  -26.4266  -31.5819   16.3905 O   0  0  0  0  0  0  0  0  0  0  0  0
  -22.8042   -6.3553   20.8095 F   0  0  0  0  0  0  0  0  0  0  0  0
  -22.1251  -10.3357   23.2795 F   0  0  0  0  0  0  0  0  0  0  0  0
  1  2  1  0  0  0  0
  1  5  2  0  0  0  0
  2  6  2  0  0  0  0
  3 10  2  0  0  0  0
  3 22  1  0  0  0  0
  4 11  1  0  0  0  0
  4 22  2  0  0  0  0
  5 24  1  0  0  0  0
  6 26  1  0  0  0  0
  7 12  2  0  0  0  0
  7 25  1  0  0  0  0
  8 13  2  0  0  0  0
  8 28  1  0  0  0  0
  9 14  1  0  0  0  0
  9 28  2  0  0  0  0
 10 29  1  0  0  0  0
 11 29  2  0  0  0  0
 12 31  1  0  0  0  0
 13 30  1  0  0  0  0
 14 30  2  0  0  0  0
 15 16  2  0  0  0  0
 15 32  1  0  0  0  0
 16 34  1  0  0  0  0
 17 21  2  0  0  0  0
 17 33  1  0  0  0  0
 18 27  1  0  0  0  0
 18 31  2  0  0  0  0
 19 33  2  0  0  0  0
 19 37  1  0  0  0  0
 20 34  2  0  0  0  0
 20 35  1  0  0  0  0
 21 70  1  0  0  0  0
 22 36  1  0  0  0  0
 23 36  1  0  0  0  0
 23 38  2  0  0  0  0
 23 39  1  0  0  0  0
 24 26  2  0  0  0  0
 24 44  1  0  0  0  0
 25 27  2  0  0  0  0
 25 45  1  0  0  0  0
 26 53  1  0  0  0  0
 27 46  1  0  0  0  0
 28 77  1  0  0  0  0
 29 87  1  0  0  0  0
 30 88  1  0  0  0  0
 31 89  1  0  0  0  0
 32 35  2  0  0  0  0
 32 87  1  0  0  0  0
 33 88  1  0  0  0  0
 34 92  1  0  0  0  0
 35 93  1  0  0  0  0
 36 71  2  0  0  0  0
 37 70  2  0  0  0  0
 37 78  1  0  0  0  0
 38 72  1  0  0  0  0
 38 75  1  0  0  0  0
 39 76  1  0  0  0  0
 39 82  2  0  0  0  0
 40 54  1  0  0  0  0
 40 79  1  0  0  0  0
 40 83  2  0  0  0  0
 41 67  1  0  0  0  0
 41 73  1  0  0  0  0
 41 84  2  0  0  0  0
 42 68  1  0  0  0  0
 42 80  1  0  0  0  0
 42 85  2  0  0  0  0
 43 74  1  0  0  0  0
 43 77  1  0  0  0  0
 43 86  2  0  0  0  0
 44 47  1  0  0  0  0
 45 54  1  0  0  0  0
 46 73  1  0  0  0  0
 47 49  1  0  0  0  0
 48 50  1  0  0  0  0
 48 51  1  0  0  0  0
 49 53  1  0  0  0  0
 50 55  1  0  0  0  0
 51 74  1  0  0  0  0
 52 55  1  0  0  0  0
 52 74  1  0  0  0  0
 53 79  1  0  0  0  0
 54 73  1  0  0  0  0
 55 72  1  0  0  0  0
 56 68  1  0  0  0  0
 57 69  1  0  0  0  0
 58 69  1  0  0  0  0
 59 69  1  0  0  0  0
 60 81  1  0  0  0  0
 61 62  1  0  0  0  0
 61 78  1  0  0  0  0
 62 90  1  0  0  0  0
 63 64  1  0  0  0  0
 63 89  1  0  0  0  0
 64 91  1  0  0  0  0
 65 66  1  0  0  0  0
 65 90  1  0  0  0  0
 66 91  1  0  0  0  0
 67 69  1  0  0  0  0
 67 80  1  0  0  0  0
 68 81  1  0  0  0  0
 71 72  1  0  0  0  0
M  CHG  1  81   1
M  ISO  4  43 100  63 101  77 100  89 101
M  END
> <Batch ID>
0000

> <Smiles>
CNC(C)C(=O)NC(C(=O)N1Cc2cc([101O:1][101CH2:1]COCCOCCNc3cc(Oc4ccc([100NH:0][100C:0](=O)N5CCCC(n6nc(-c7ccc(Oc8ccc(F)cc8F)cc7)c(C(N)=O)c6N)C5)cc4)ccn3)ccc2CC1C(=O)NC1CCCc2ccccc21)C(C)(C)C

> <Shape>
0.264

> <Color>
0.065

> <Negative vol penalty>
0.000

$$$$

  -OEChem-04052315133D

 98105  0     1  0  0  0  0  0999 V2000
  -32.7726  -22.8774   17.9246 C   0  0  0  0  0  0  0  0  0  0  0  0
  -32.4923  -22.2535   19.1360 C   0  0  0  0  0  0  0  0  0  0  0  0
  -26.3632  -26.2755   18.1287 C   0  0  0  0  0  0  0  0  0  0  0  0
  -26.2123  -25.5093   20.4150 C   0  0  0  0  0  0  0  0  0  0  0  0
  -31.7613  -23.5454   17.2354 C   0  0  0  0  0  0  0  0  0  0  0  0
  -31.2006  -22.2982   19.6595 C   0  0  0  0  0  0  0  0  0  0  0  0
  -24.3541  -18.3588   17.9489 C   0  0  0  0  0  0  0  0  0  0  0  0
  -25.3716  -27.2235   18.3809 C   0  0  0  0  0  0  0  0  0  0  0  0
  -25.2207  -26.4573   20.6672 C   0  0  0  0  0  0  0  0  0  0  0  0
  -24.1723  -17.4294   16.9246 C   0  0  0  0  0  0  0  0  0  0  0  0
  -22.3957  -28.4339   21.8171 C   0  0  0  0  0  0  0  0  0  0  0  0
  -21.2694  -28.0205   22.5285 C   0  0  0  0  0  0  0  0  0  0  0  0
  -26.5617  -17.3463   16.5614 C   0  0  0  0  0  0  0  0  0  0  0  0
  -20.7796  -26.3958   20.8087 C   0  0  0  0  0  0  0  0  0  0  0  0
  -26.7835  -25.4183   19.1457 C   0  0  0  0  0  0  0  0  0  0  0  0
  -29.1979  -24.6024   19.0325 C   0  0  0  0  0  0  0  0  0  0  0  0
  -30.4544  -23.5901   17.7460 C   0  0  0  0  0  0  0  0  0  0  0  0
  -25.6431  -18.7745   18.2940 C   0  0  0  0  0  0  0  0  0  0  0  0
  -30.1712  -22.9686   18.9772 C   0  0  0  0  0  0  0  0  0  0  0  0
  -26.7508  -18.2677   17.5949 C   0  0  0  0  0  0  0  0  0  0  0  0
  -24.8003  -27.3144   19.6502 C   0  0  0  0  0  0  0  0  0  0  0  0
  -25.2734  -16.9246   16.2324 C   0  0  0  0  0  0  0  0  0  0  0  0
  -22.7139  -27.8284   20.6014 C   0  0  0  0  0  0  0  0  0  0  0  0
  -20.4613  -27.0014   22.0243 C   0  0  0  0  0  0  0  0  0  0  0  0
  -21.9059  -26.8093   20.0973 C   0  0  0  0  0  0  0  0  0  0  0  0
  -27.8074  -24.4385   18.8856 C   0  0  0  0  0  0  0  0  0  0  0  0
  -29.7275  -23.3904   18.6622 C   0  0  0  0  0  0  0  0  0  0  0  0
  -29.9440  -25.7477   19.4651 C   0  0  0  0  0  0  0  0  0  0  0  0
  -27.7848  -20.9021   20.5216 C   0  0  0  0  0  0  0  0  0  0  0  0
  -29.2323  -18.2174   20.1933 C   0  0  0  0  0  0  0  0  0  0  0  0
  -24.7152  -16.5936   19.1823 C   0  0  0  0  0  0  0  0  0  0  0  0
  -27.9667  -16.6426   22.9420 C   0  0  0  0  0  0  0  0  0  0  0  0
  -26.6940  -17.9444   18.4138 C   0  0  0  0  0  0  0  0  0  0  0  0
  -23.7476  -15.6587   14.9956 C   0  0  0  0  0  0  0  0  0  1  0  0
  -29.4052  -24.3645   16.9883 C   0  0  0  0  0  0  0  0  0  0  0  0
  -25.8818  -19.8201   19.3493 C   0  0  0  0  0  0  0  0  0  0  0  0
  -28.1164  -18.7696   17.9774 C   0  0  0  0  0  0  0  0  0  0  0  0
  -27.9780  -24.0460   17.4267 C   0  0  0  0  0  0  0  0  0  0  0  0
  -28.5247  -19.7063   15.7525 C   0  0  0  0  0  0  0  0  0  0  0  0
  -27.8738  -24.0488   18.9485 C   0  0  0  0  0  0  0  0  0  0  0  0
  -28.8863  -21.0780   16.3252 C   0  0  0  0  0  0  0  0  0  0  0  0
  -28.4623  -18.6172   16.8146 C   0  0  0  0  0  0  0  0  0  0  0  0
  -27.4765  -20.3612   18.3172 C   0  0  0  0  0  0  0  0  0  0  0  0
  -28.7768  -22.9739   19.5653 C   0  0  1  0  0  0  0  0  0  0  0  0
  -27.1729  -19.5826   20.1529 C   0  0  1  0  0  0  0  0  0  0  0  0
  -28.6996  -21.1650   17.8492 C   0  0  2  0  0  0  0  0  0  0  0  0
  -25.7610  -15.8855   22.0154 C   0  0  0  0  0  0  0  0  0  0  0  0
  -30.5606  -20.1820   22.9562 C   0  0  0  0  0  0  0  0  0  0  0  0
  -28.0618  -20.3286   22.9049 C   0  0  0  0  0  0  0  0  0  0  0  0
  -29.3785  -20.7769   20.8342 C   0  0  0  0  0  0  0  0  0  0  0  0
  -25.4240  -16.7568   25.4197 C   0  0  0  0  0  0  0  0  0  0  0  0
  -25.5947  -16.2640   20.3695 C   0  0  0  0  0  0  0  0  0  0  0  0
  -24.8675  -17.4280   16.8421 C   0  0  0  0  0  0  0  0  0  0  0  0
  -23.3557  -17.2761   16.8484 C   0  0  0  0  0  0  0  0  0  0  0  0
  -24.9065  -17.4581   20.0668 C   0  0  0  0  0  0  0  0  0  0  0  0
  -23.5721  -17.3806   19.3468 C   0  0  0  0  0  0  0  0  0  0  0  0
  -24.5515  -14.2177   19.8723 C   0  0  0  0  0  0  0  0  0  0  0  0
  -23.4300  -13.6409   20.7146 C   0  0  0  0  0  0  0  0  0  0  0  0
  -23.0474  -18.1314   21.5110 C   0  0  0  0  0  0  0  0  0  0  0  0
  -22.4095  -17.2410   22.5600 C   0  0  0  0  0  0  0  0  0  0  0  0
  -22.3814  -15.1308   19.2302 C   0  0  0  0  0  0  0  0  0  0  0  0
  -21.8626  -16.4906   19.6566 C   0  0  0  0  0  0  0  0  0  0  0  0
  -24.7138  -16.7991   22.6934 C   0  0  0  0  0  0  0  0  0  0  0  0
  -25.3425  -15.5311   22.1487 C   0  0  0  0  0  0  0  0  0  0  0  0
  -24.1475  -16.8148   19.2127 C   0  0  0  0  0  0  0  0  0  0  0  0
  -25.1841  -16.9822   20.3070 C   0  0  0  0  0  0  0  0  0  0  0  0
  -29.1812  -18.4055   21.6884 C   0  0  1  0  0  0  0  0  0  0  0  0
  -26.5631  -16.1704   23.2756 C   0  0  2  0  0  0  0  0  0  0  0  0
  -29.3085  -19.8988   22.1025 C   0  0  0  0  0  0  0  0  0  0  0  0
  -27.4746  -23.2186   18.4554 N   0  0  0  0  0  0  0  0  0  0  0  0
  -28.6635  -22.6050   18.3286 N   0  0  0  0  0  0  0  0  0  0  0  0
  -28.2315  -18.8457   19.4421 N   0  0  0  0  0  0  0  0  0  0  0  0
  -27.5103  -18.9577   17.8749 N   0  0  0  0  0  0  0  0  0  0  0  0
  -30.9948  -22.9307   18.5925 N   0  0  0  0  0  0  0  0  0  0  0  0
  -29.2425  -26.9116   19.8081 N   0  0  0  0  0  0  0  0  0  0  0  0
  -28.1678  -21.6674   19.4366 N   0  0  0  0  0  0  0  0  0  0  0  0
  -25.4566  -17.0467   18.0976 N   0  0  0  0  0  0  0  0  0  0  0  0
  -27.9512  -17.7633   22.1388 N   0  0  0  0  0  0  0  0  0  0  0  0
  -25.8188  -18.3665   19.4108 N   0  0  0  0  0  0  0  0  0  0  0  0
  -22.9020  -16.3355   15.8502 N   0  0  0  0  0  0  0  0  0  0  0  0
  -25.8422  -17.2070   24.0672 N   0  3  0  0  0  0  0  0  0  0  0  0
  -31.1968  -25.7446   19.5295 O   0  0  0  0  0  0  0  0  0  0  0  0
  -27.9003  -21.2055   21.7032 O   0  0  0  0  0  0  0  0  0  0  0  0
  -30.1307  -17.5280   19.7025 O   0  0  0  0  0  0  0  0  0  0  0  0
  -23.4941  -16.4650   19.2045 O   0  0  0  0  0  0  0  0  0  0  0  0
  -28.9760  -16.0764   23.3559 O   0  0  0  0  0  0  0  0  0  0  0  0
  -26.7394  -16.7702   18.0347 O   0  0  0  0  0  0  0  0  0  0  0  0
  -23.4017  -14.8530   14.1366 O   0  0  0  0  0  0  0  0  0  0  0  0
  -23.8329  -28.2395   19.8967 O   0  0  0  0  0  0  0  0  0  0  0  0
  -25.0891  -16.0141   15.2365 O   0  0  0  0  0  0  0  0  0  1  0  0
  -25.4663  -14.9032   20.7226 O   0  0  0  0  0  0  0  0  0  0  0  0
  -22.5348  -17.7813   20.2312 O   0  0  0  0  0  0  0  0  0  0  0  0
  -22.1952  -14.2088   20.2950 O   0  0  0  0  0  0  0  0  0  0  0  0
  -23.4255  -16.4924   23.2126 O   0  0  0  0  0  0  0  0  0  0  0  0
  -22.9336  -17.4262   19.6265 O   0  0  0  0  0  0  0  0  0  0  0  0
  -25.5924  -15.6972   20.7600 O   0  0  0  0  0  0  0  0  0  0  0  0
  -19.3807  -26.6034   22.7083 F   0  0  0  0  0  0  0  0  0  0  0  0
  -22.2072  -26.2230   18.9305 F   0  0  0  0  0  0  0  0  0  0  0  0
  1  2  1  0  0  0  0
  1  5  2  0  0  0  0
  2  6  2  0  0  0  0
  3  8  2  0  0  0  0
  3 15  1  0  0  0  0
  4  9  1  0  0  0  0
  4 15  2  0  0  0  0
  5 17  1  0  0  0  0
  6 19  1  0  0  0  0
  7 10  2  0  0  0  0
  7 18  1  0  0  0  0
  8 21  1  0  0  0  0
  9 21  2  0  0  0  0
 10 22  1  0  0  0  0
 11 12  2  0  0  0  0
 11 23  1  0  0  0  0
 12 24  1  0  0  0  0
 13 20  1  0  0  0  0
 13 22  2  0  0  0  0
 14 24  2  0  0  0  0
 14 25  1  0  0  0  0
 15 26  1  0  0  0  0
 16 26  1  0  0  0  0
 16 27  2  0  0  0  0
 16 28  1  0  0  0  0
 17 19  2  0  0  0  0
 17 35  1  0  0  0  0
 18 20  2  0  0  0  0
 18 36  1  0  0  0  0
 19 44  1  0  0  0  0
 20 37  1  0  0  0  0
 21 89  1  0  0  0  0
 22 90  1  0  0  0  0
 23 25  2  0  0  0  0
 23 89  1  0  0  0  0
 24 97  1  0  0  0  0
 25 98  1  0  0  0  0
 26 70  2  0  0  0  0
 27 71  1  0  0  0  0
 27 74  1  0  0  0  0
 28 75  1  0  0  0  0
 28 82  2  0  0  0  0
 29 45  1  0  0  0  0
 29 76  1  0  0  0  0
 29 83  2  0  0  0  0
 30 67  1  0  0  0  0
 30 72  1  0  0  0  0
 30 84  2  0  0  0  0
 31 52  1  0  0  0  0
 31 77  1  0  0  0  0
 31 85  2  0  0  0  0
 32 68  1  0  0  0  0
 32 78  1  0  0  0  0
 32 86  2  0  0  0  0
 33 73  1  0  0  0  0
 33 79  1  0  0  0  0
 33 87  2  0  0  0  0
 34 80  1  0  0  0  0
 34 88  2  0  0  0  0
 34 90  1  0  0  0  0
 35 38  1  0  0  0  0
 36 45  1  0  0  0  0
 37 72  1  0  0  0  0
 38 40  1  0  0  0  0
 39 41  1  0  0  0  0
 39 42  1  0  0  0  0
 40 44  1  0  0  0  0
 41 46  1  0  0  0  0
 42 73  1  0  0  0  0
 43 46  1  0  0  0  0
 43 73  1  0  0  0  0
 44 76  1  0  0  0  0
 45 72  1  0  0  0  0
 46 71  1  0  0  0  0
 47 68  1  0  0  0  0
 48 69  1  0  0  0  0
 49 69  1  0  0  0  0
 50 69  1  0  0  0  0
 51 81  1  0  0  0  0
 52 91  1  0  0  0  0
 53 54  1  0  0  0  0
 53 77  1  0  0  0  0
 54 80  1  0  0  0  0
 55 56  1  0  0  0  0
 55 79  1  0  0  0  0
 56 92  1  0  0  0  0
 57 58  1  0  0  0  0
 57 91  1  0  0  0  0
 58 93  1  0  0  0  0
 59 60  1  0  0  0  0
 59 92  1  0  0  0  0
 60 94  1  0  0  0  0
 61 62  1  0  0  0  0
 61 93  1  0  0  0  0
 62 95  1  0  0  0  0
 63 64  1  0  0  0  0
 63 94  1  0  0  0  0
 64 96  1  0  0  0  0
 65 66  1  0  0  0  0
 65 95  1  0  0  0  0
 66 96  1  0  0  0  0
 67 69  1  0  0  0  0
 67 78  1  0  0  0  0
 68 81  1  0  0  0  0
 70 71  1  0  0  0  0
M  CHG  1  81   1
M  ISO  4  33 100  34 101  79 100  90 101
M  END
> <Batch ID>
0000

> <Smiles>
CNC(C)C(=O)NC(C(=O)N1Cc2cc([101O:1][101C:1](=O)NCCNC(=O)COCCOCCOCCOCCOCCOCC[100NH:0][100C:0](=O)N3CCCC(n4nc(-c5ccc(Oc6ccc(F)cc6F)cc5)c(C(N)=O)c4N)C3)ccc2CC1C(=O)NC1CCCc2ccccc21)C(C)(C)C

> <Shape>
0.197

> <Color>
0.065

> <Negative vol penalty>
0.000

$$$$

  -OEChem-04052315133D

108116  0     1  0  0  0  0  0999 V2000
  -24.5012  -24.6425   19.4921 C   0  0  0  0  0  0  0  0  0  0  0  0
  -18.7598  -26.0102   22.4978 C   0  0  0  0  0  0  0  0  0  0  0  0
  -18.5780  -27.2213   21.8397 C   0  0  0  0  0  0  0  0  0  0  0  0
  -24.7628  -23.7985   18.4128 C   0  0  0  0  0  0  0  0  0  0  0  0
  -25.5020  -24.9114   20.4258 C   0  0  0  0  0  0  0  0  0  0  0  0
  -24.4563   -8.6168   21.2560 C   0  0  0  0  0  0  0  0  0  0  0  0
  -23.6696  -10.5670   22.4456 C   0  0  0  0  0  0  0  0  0  0  0  0
  -19.7157  -25.9060   23.5061 C   0  0  0  0  0  0  0  0  0  0  0  0
  -19.3600  -28.3252   22.1814 C   0  0  0  0  0  0  0  0  0  0  0  0
  -25.2858  -30.5025   21.1196 C   0  0  0  0  0  0  0  0  0  0  0  0
  -26.0252  -23.2232   18.2673 C   0  0  0  0  0  0  0  0  0  0  0  0
  -26.7644  -24.3362   20.2803 C   0  0  0  0  0  0  0  0  0  0  0  0
  -23.9175   -7.7954   22.2463 C   0  0  0  0  0  0  0  0  0  0  0  0
  -23.1307   -9.7456   23.4358 C   0  0  0  0  0  0  0  0  0  0  0  0
  -25.8775  -29.2568   20.9144 C   0  0  0  0  0  0  0  0  0  0  0  0
  -22.4346   -5.1702   24.2772 C   0  0  0  0  0  0  0  0  0  0  0  0
  -21.7162   -4.0469   23.8679 C   0  0  0  0  0  0  0  0  0  0  0  0
  -23.8609  -28.4826   19.8406 C   0  0  0  0  0  0  0  0  0  0  0  0
  -20.1561   -5.4716   22.6960 C   0  0  0  0  0  0  0  0  0  0  0  0
  -24.3324  -10.0026   21.3557 C   0  0  0  0  0  0  0  0  0  0  0  0
  -24.2498  -11.3067   19.1648 C   0  0  0  0  0  0  0  0  0  0  0  0
  -20.5007  -27.0130   23.8682 C   0  0  0  0  0  0  0  0  0  0  0  0
  -23.9712  -30.7445   20.6958 C   0  0  0  0  0  0  0  0  0  0  0  0
  -20.3465  -28.2335   23.1799 C   0  0  0  0  0  0  0  0  0  0  0  0
  -23.2557  -29.7330   20.0393 C   0  0  0  0  0  0  0  0  0  0  0  0
  -27.0260  -23.4921   19.2011 C   0  0  0  0  0  0  0  0  0  0  0  0
  -23.2547   -8.3598   23.3361 C   0  0  0  0  0  0  0  0  0  0  0  0
  -25.1640  -28.2458   20.2774 C   0  0  0  0  0  0  0  0  0  0  0  0
  -22.0138   -6.4443   23.8959 C   0  0  0  0  0  0  0  0  0  0  0  0
  -20.5770   -4.1975   23.0773 C   0  0  0  0  0  0  0  0  0  0  0  0
  -20.8745   -6.5950   23.1053 C   0  0  0  0  0  0  0  0  0  0  0  0
  -24.8893  -10.8517   20.3334 C   0  0  0  0  0  0  0  0  0  0  0  0
  -25.1963  -12.0753   18.5325 C   0  0  0  0  0  0  0  0  0  0  0  0
  -22.9191  -11.0571   18.6931 C   0  0  0  0  0  0  0  0  0  0  0  0
  -21.2499  -31.5068   22.1508 C   0  0  0  0  0  0  0  0  0  0  0  0
  -20.1489  -31.7609   19.1101 C   0  0  0  0  0  0  0  0  0  0  0  0
  -30.7324  -25.2997   20.2570 C   0  0  0  0  0  0  0  0  0  0  0  0
  -20.5482  -34.9584   17.9861 C   0  0  0  0  0  0  0  0  0  0  0  0
  -31.4742  -21.6939   20.5537 C   0  0  0  0  0  0  0  0  0  0  0  0
  -29.4542  -15.7155   20.1004 C   0  0  0  0  0  0  0  0  0  0  0  0
  -21.5260  -26.8422   24.9614 C   0  0  0  0  0  0  0  0  0  0  0  0
  -23.3568  -32.1021   20.9007 C   0  0  0  0  0  0  0  0  0  0  0  0
  -21.8487  -29.9484   19.5470 C   0  0  0  0  0  0  0  0  0  0  0  0
  -21.9908  -28.1689   25.5530 C   0  0  0  0  0  0  0  0  0  0  0  0
  -29.8825  -11.8971   19.9790 C   0  0  0  0  0  0  0  0  0  0  0  0
  -22.3761  -29.1289   24.4374 C   0  0  0  0  0  0  0  0  0  0  0  0
  -28.7944  -11.7140   18.9252 C   0  0  0  0  0  0  0  0  0  0  0  0
  -30.3588  -13.3456   20.0261 C   0  0  0  0  0  0  0  0  0  0  0  0
  -27.9063  -13.7765   20.1746 C   0  0  0  0  0  0  0  0  0  0  0  0
  -21.1644  -29.4559   23.5555 C   0  0  1  0  0  0  0  0  0  0  0  0
  -21.8315  -32.0757   20.8875 C   0  0  1  0  0  0  0  0  0  0  0  0
  -27.6356  -12.7220   19.0869 C   0  0  2  0  0  0  0  0  0  0  0  0
  -22.9816  -34.8892   17.3769 C   0  0  0  0  0  0  0  0  0  0  0  0
  -17.8593  -33.6683   21.2050 C   0  0  0  0  0  0  0  0  0  0  0  0
  -20.2214  -34.3902   21.6147 C   0  0  0  0  0  0  0  0  0  0  0  0
  -19.6277  -31.9686   21.6931 C   0  0  0  0  0  0  0  0  0  0  0  0
  -22.1262  -38.0728   18.6399 C   0  0  0  0  0  0  0  0  0  0  0  0
  -28.3840  -22.8735   19.0453 C   0  0  0  0  0  0  0  0  0  0  0  0
  -30.7255  -19.2698   21.6780 C   0  0  0  0  0  0  0  0  0  0  0  0
  -31.4866  -17.9531   21.5202 C   0  0  0  0  0  0  0  0  0  0  0  0
  -31.3490  -18.0425   21.5212 C   0  0  0  0  0  0  0  0  0  0  0  0
  -30.9694  -16.9168   22.5415 C   0  0  0  0  0  0  0  0  0  0  0  0
  -30.0219  -19.6957   20.3933 C   0  0  0  0  0  0  0  0  0  0  0  0
  -31.1647  -17.5170   20.1040 C   0  0  0  0  0  0  0  0  0  0  0  0
  -31.1365  -26.4170   22.4383 C   0  0  0  0  0  0  0  0  0  0  0  0
  -32.9670  -18.1211   21.8340 C   0  0  0  0  0  0  0  0  0  0  0  0
  -30.4299  -19.2146   21.8432 C   0  0  0  0  0  0  0  0  0  0  0  0
  -32.1762  -16.5442   23.3867 C   0  0  0  0  0  0  0  0  0  0  0  0
  -29.8558  -17.5290   23.3768 C   0  0  0  0  0  0  0  0  0  0  0  0
  -31.0468  -27.6562   21.5665 C   0  0  0  0  0  0  0  0  0  0  0  0
  -27.0762  -26.8571   20.5439 C   0  0  0  0  0  0  0  0  0  1  0  0
  -27.1049  -25.7320   21.5602 C   0  0  0  0  0  0  0  0  0  0  0  0
  -29.2822  -27.8708   23.1037 C   0  0  0  0  0  0  0  0  0  0  0  0
  -27.8311  -27.6362   22.7304 C   0  0  0  0  0  0  0  0  0  0  0  0
  -19.6945  -33.1567   19.4625 C   0  0  1  0  0  0  0  0  0  0  0  0
  -30.5729  -23.9231   19.6335 C   0  0  1  0  0  0  0  0  0  0  0  0
  -21.7939  -35.7798   17.7070 C   0  0  2  0  0  0  0  0  0  0  0  0
  -31.7908  -23.0148   19.8569 C   0  0  2  0  0  0  0  0  0  0  0  0
  -19.3381  -33.3014   20.9689 C   0  0  0  0  0  0  0  0  0  0  0  0
  -26.1451  -11.2941   20.4396 N   0  0  0  0  0  0  0  0  0  0  0  0
  -26.3023  -12.0352   19.3296 N   0  0  0  0  0  0  0  0  0  0  0  0
  -21.2893  -31.2908   19.7766 N   0  0  0  0  0  0  0  0  0  0  0  0
  -29.2618  -14.3205   20.0745 N   0  0  0  0  0  0  0  0  0  0  0  0
  -25.1822  -12.7747   17.3779 N   0  0  0  0  0  0  0  0  0  0  0  0
  -22.0775  -10.2453   19.4658 N   0  0  0  0  0  0  0  0  0  0  0  0
  -21.6106  -30.1955   22.3955 N   0  0  0  0  0  0  0  0  0  0  0  0
  -30.9486  -25.2082   21.6039 N   0  0  0  0  0  0  0  0  0  0  0  0
  -30.4903  -20.9688   19.9007 N   0  0  0  0  0  0  0  0  0  0  0  0
  -20.7499  -34.0562   19.0091 N   0  0  0  0  0  0  0  0  0  0  0  0
  -30.7858  -16.1226   20.0795 N   0  0  0  0  0  0  0  0  0  0  0  0
  -22.1442  -36.6093   18.8945 N   0  3  0  0  0  0  0  0  0  0  0  0
  -29.3280  -23.2631   20.1234 N   0  3  0  0  0  0  0  0  0  0  0  0
  -22.4944  -11.5262   17.6099 O   0  0  0  0  0  0  0  0  0  0  0  0
  -20.5285  -32.2062   22.8523 O   0  0  0  0  0  0  0  0  0  0  0  0
  -19.5111  -31.1089   18.2796 O   0  0  0  0  0  0  0  0  0  0  0  0
  -30.6691  -26.3365   19.5998 O   0  0  0  0  0  0  0  0  0  0  0  0
  -19.4998  -35.1052   17.3617 O   0  0  0  0  0  0  0  0  0  0  0  0
  -32.0348  -21.3409   21.5893 O   0  0  0  0  0  0  0  0  0  0  0  0
  -28.5225  -16.5247   20.1411 O   0  0  0  0  0  0  0  0  0  0  0  0
  -32.3553  -22.7175   18.5840 O   0  0  0  0  0  0  0  0  0  0  0  0
  -22.7285   -7.5585   24.3024 O   0  0  0  0  0  0  0  0  0  0  0  0
  -25.7388  -27.0288   20.0765 O   0  0  0  0  0  0  0  0  0  1  0  0
  -33.3037  -17.2769   22.9262 O   0  0  0  0  0  0  0  0  0  0  0  0
  -29.5886  -18.8513   22.9294 O   0  0  0  0  0  0  0  0  0  0  0  0
  -29.9567  -28.4588   21.9980 O   0  0  0  0  0  0  0  0  0  0  0  0
  -27.5511  -26.2456   22.8094 O   0  0  0  0  0  0  0  0  0  0  0  0
  -19.8881   -3.1186   22.6830 F   0  0  0  0  0  0  0  0  0  0  0  0
  -20.4660   -7.8163   22.7349 F   0  0  0  0  0  0  0  0  0  0  0  0
  1  4  1  0  0  0  0
  1  5  2  0  0  0  0
  2  3  1  0  0  0  0
  2  8  2  0  0  0  0
  3  9  2  0  0  0  0
  4 11  2  0  0  0  0
  5 12  1  0  0  0  0
  6 13  2  0  0  0  0
  6 20  1  0  0  0  0
  7 14  1  0  0  0  0
  7 20  2  0  0  0  0
  8 22  1  0  0  0  0
  9 24  1  0  0  0  0
 10 15  2  0  0  0  0
 10 23  1  0  0  0  0
 11 26  1  0  0  0  0
 12 26  2  0  0  0  0
 13 27  1  0  0  0  0
 14 27  2  0  0  0  0
 15 28  1  0  0  0  0
 16 17  2  0  0  0  0
 16 29  1  0  0  0  0
 17 30  1  0  0  0  0
 18 25  1  0  0  0  0
 18 28  2  0  0  0  0
 19 30  2  0  0  0  0
 19 31  1  0  0  0  0
 20 32  1  0  0  0  0
 21 32  1  0  0  0  0
 21 33  2  0  0  0  0
 21 34  1  0  0  0  0
 22 24  2  0  0  0  0
 22 41  1  0  0  0  0
 23 25  2  0  0  0  0
 23 42  1  0  0  0  0
 24 50  1  0  0  0  0
 25 43  1  0  0  0  0
 26 58  1  0  0  0  0
 27101  1  0  0  0  0
 28102  1  0  0  0  0
 29 31  2  0  0  0  0
 29101  1  0  0  0  0
 30107  1  0  0  0  0
 31108  1  0  0  0  0
 32 80  2  0  0  0  0
 33 81  1  0  0  0  0
 33 84  1  0  0  0  0
 34 85  1  0  0  0  0
 34 93  2  0  0  0  0
 35 51  1  0  0  0  0
 35 86  1  0  0  0  0
 35 94  2  0  0  0  0
 36 75  1  0  0  0  0
 36 82  1  0  0  0  0
 36 95  2  0  0  0  0
 37 76  1  0  0  0  0
 37 87  1  0  0  0  0
 37 96  2  0  0  0  0
 38 77  1  0  0  0  0
 38 89  1  0  0  0  0
 38 97  2  0  0  0  0
 39 78  1  0  0  0  0
 39 88  1  0  0  0  0
 39 98  2  0  0  0  0
 40 83  1  0  0  0  0
 40 90  1  0  0  0  0
 40 99  2  0  0  0  0
 41 44  1  0  0  0  0
 42 51  1  0  0  0  0
 43 82  1  0  0  0  0
 44 46  1  0  0  0  0
 45 47  1  0  0  0  0
 45 48  1  0  0  0  0
 46 50  1  0  0  0  0
 47 52  1  0  0  0  0
 48 83  1  0  0  0  0
 49 52  1  0  0  0  0
 49 83  1  0  0  0  0
 50 86  1  0  0  0  0
 51 82  1  0  0  0  0
 52 81  1  0  0  0  0
 53 77  1  0  0  0  0
 54 79  1  0  0  0  0
 55 79  1  0  0  0  0
 56 79  1  0  0  0  0
 57 91  1  0  0  0  0
 58 92  1  0  0  0  0
 59 60  1  0  0  0  0
 59 63  1  0  0  0  0
 60 66  1  0  0  0  0
 61 64  1  0  0  0  0
 61 67  1  0  0  0  0
 62 68  1  0  0  0  0
 62 69  1  0  0  0  0
 63 88  1  0  0  0  0
 64 90  1  0  0  0  0
 65 70  1  0  0  0  0
 65 87  1  0  0  0  0
 66103  1  0  0  0  0
 67104  1  0  0  0  0
 68103  1  0  0  0  0
 69104  1  0  0  0  0
 70105  1  0  0  0  0
 71 72  1  0  0  0  0
 71102  1  0  0  0  0
 72106  1  0  0  0  0
 73 74  1  0  0  0  0
 73105  1  0  0  0  0
 74106  1  0  0  0  0
 75 79  1  0  0  0  0
 75 89  1  0  0  0  0
 76 78  1  0  0  0  0
 76 92  1  0  0  0  0
 77 91  1  0  0  0  0
 78100  1  0  0  0  0
 80 81  1  0  0  0  0
M  CHG  2  91   1  92   1
M  ISO  4  40 100  71 101  90 100 102 101
M  END
> <Batch ID>
0000

> <Smiles>
CNC(C)C(=O)NC(C(=O)N1Cc2cc([101O:1][101CH2:1]COCCOCCNC(=O)C(NCc3ccccc3)C(O)C(=O)NCCCCOCCCOCCC[100NH:0][100C:0](=O)N3CCCC(n4nc(-c5ccc(Oc6ccc(F)cc6F)cc5)c(C(N)=O)c4N)C3)ccc2CC1C(=O)NC1CCCc2ccccc21)C(C)(C)C

> <Shape>
0.292

> <Color>
0.080

> <Negative vol penalty>
0.000

$$$$

  -OEChem-04052315133D

 79 86  0     1  0  0  0  0  0999 V2000
  -29.7354  -31.2212   21.9622 C   0  0  0  0  0  0  0  0  0  0  0  0
  -29.1762  -29.9523   21.8501 C   0  0  0  0  0  0  0  0  0  0  0  0
  -22.9309  -10.1340   19.9207 C   0  0  0  0  0  0  0  0  0  0  0  0
  -23.9546   -9.7062   22.0669 C   0  0  0  0  0  0  0  0  0  0  0  0
  -28.9834  -32.2687   22.4926 C   0  0  0  0  0  0  0  0  0  0  0  0
  -27.8650  -29.7299   22.2693 C   0  0  0  0  0  0  0  0  0  0  0  0
  -25.2070  -26.9734   18.9555 C   0  0  0  0  0  0  0  0  0  0  0  0
  -22.1604   -8.9794   20.0581 C   0  0  0  0  0  0  0  0  0  0  0  0
  -23.1841   -8.5516   22.2043 C   0  0  0  0  0  0  0  0  0  0  0  0
  -25.4304  -25.5972   18.9480 C   0  0  0  0  0  0  0  0  0  0  0  0
  -20.0109   -7.7638   23.0592 C   0  0  0  0  0  0  0  0  0  0  0  0
  -19.3959   -7.5397   24.2909 C   0  0  0  0  0  0  0  0  0  0  0  0
  -23.4317  -25.2717   20.2589 C   0  0  0  0  0  0  0  0  0  0  0  0
  -20.6089   -5.4626   24.5185 C   0  0  0  0  0  0  0  0  0  0  0  0
  -23.8281  -10.4973   20.9251 C   0  0  0  0  0  0  0  0  0  0  0  0
  -24.2893  -12.9909   21.2031 C   0  0  0  0  0  0  0  0  0  0  0  0
  -27.6591  -32.0612   22.9095 C   0  0  0  0  0  0  0  0  0  0  0  0
  -24.0983  -27.5108   19.6251 C   0  0  0  0  0  0  0  0  0  0  0  0
  -27.0951  -30.7753   22.8070 C   0  0  0  0  0  0  0  0  0  0  0  0
  -23.1951  -26.6548   20.2712 C   0  0  0  0  0  0  0  0  0  0  0  0
  -22.2869   -8.1882   21.1999 C   0  0  0  0  0  0  0  0  0  0  0  0
  -24.5443  -24.7464   19.6022 C   0  0  0  0  0  0  0  0  0  0  0  0
  -20.9248   -6.8373   22.5570 C   0  0  0  0  0  0  0  0  0  0  0  0
  -19.6949   -6.3891   25.0206 C   0  0  0  0  0  0  0  0  0  0  0  0
  -21.2238   -5.6868   23.2867 C   0  0  0  0  0  0  0  0  0  0  0  0
  -24.6247  -11.6896   20.7835 C   0  0  0  0  0  0  0  0  0  0  0  0
  -25.3700  -13.7575   20.8414 C   0  0  0  0  0  0  0  0  0  0  0  0
  -23.1067  -13.4643   21.8611 C   0  0  0  0  0  0  0  0  0  0  0  0
  -23.7037  -29.5104   22.0643 C   0  0  0  0  0  0  0  0  0  0  0  0
  -20.5715  -29.2563   21.2599 C   0  0  0  0  0  0  0  0  0  0  0  0
  -18.1022  -27.4336   19.7676 C   0  0  0  0  0  0  0  0  0  0  0  0
  -30.8848  -14.5484   20.5146 C   0  0  0  0  0  0  0  0  0  0  0  0
  -26.9014  -33.2134   23.5202 C   0  0  0  0  0  0  0  0  0  0  0  0
  -23.8569  -28.9953   19.6011 C   0  0  0  0  0  0  0  0  0  0  0  0
  -21.9786  -27.1800   20.9874 C   0  0  0  0  0  0  0  0  0  0  0  0
  -25.3946  -32.9806   23.5942 C   0  0  0  0  0  0  0  0  0  0  0  0
  -29.3471  -12.6672   17.9121 C   0  0  0  0  0  0  0  0  0  0  0  0
  -25.0958  -31.5892   24.1434 C   0  0  0  0  0  0  0  0  0  0  0  0
  -27.9568  -12.3475   18.4642 C   0  0  0  0  0  0  0  0  0  0  0  0
  -30.4098  -12.6399   19.0085 C   0  0  0  0  0  0  0  0  0  0  0  0
  -28.7267  -13.1724   20.7282 C   0  0  0  0  0  0  0  0  0  0  0  0
  -25.6678  -30.5001   23.2278 C   0  0  1  0  0  0  0  0  0  0  0  0
  -22.9760  -29.4760   20.7502 C   0  0  1  0  0  0  0  0  0  0  0  0
  -27.6127  -13.2428   19.6697 C   0  0  2  0  0  0  0  0  0  0  0  0
  -15.6364  -27.4665   19.3028 C   0  0  0  0  0  0  0  0  0  0  0  0
  -20.0166  -28.4981   24.1628 C   0  0  0  0  0  0  0  0  0  0  0  0
  -17.7801  -27.6375   23.4376 C   0  0  0  0  0  0  0  0  0  0  0  0
  -18.3382  -30.0519   23.1514 C   0  0  0  0  0  0  0  0  0  0  0  0
  -18.5360  -27.4059   16.8402 C   0  0  0  0  0  0  0  0  0  0  0  0
  -26.2590  -21.6158   20.2223 C   0  0  0  0  0  0  0  0  0  0  0  0
  -27.6991  -21.1161   20.1897 C   0  0  0  0  0  0  0  0  0  0  0  0
  -30.8820  -17.7502   21.3856 C   0  0  0  0  0  0  0  0  0  0  0  0
  -31.2119  -16.4399   22.0877 C   0  0  0  0  0  0  0  0  0  0  0  0
  -26.1161  -22.9633   19.5272 C   0  0  0  0  0  0  0  0  0  1  0  0
  -27.8508  -19.7901   20.9216 C   0  0  0  0  0  0  0  0  0  0  0  0
  -29.4130  -18.1359   21.5098 C   0  0  0  0  0  0  0  0  0  0  0  0
  -19.4381  -28.3393   21.6516 C   0  0  1  0  0  0  0  0  0  0  0  0
  -17.0185  -27.8250   18.7793 C   0  0  2  0  0  0  0  0  0  0  0  0
  -18.9171  -28.6216   23.0891 C   0  0  0  0  0  0  0  0  0  0  0  0
  -25.8245  -11.6292   20.1997 N   0  0  0  0  0  0  0  0  0  0  0  0
  -26.2525  -12.9022   20.2498 N   0  0  0  0  0  0  0  0  0  0  0  0
  -21.7895  -28.6393   20.9410 N   0  0  0  0  0  0  0  0  0  0  0  0
  -30.0237  -13.5107   20.1214 N   0  0  0  0  0  0  0  0  0  0  0  0
  -25.6420  -15.0730   20.9746 N   0  0  0  0  0  0  0  0  0  0  0  0
  -22.0939  -12.5427   22.1597 N   0  0  0  0  0  0  0  0  0  0  0  0
  -24.8228  -30.3210   22.0666 N   0  0  0  0  0  0  0  0  0  0  0  0
  -18.4245  -28.4756   20.6112 N   0  0  0  0  0  0  0  0  0  0  0  0
  -30.4400  -15.3306   21.5734 N   0  0  0  0  0  0  0  0  0  0  0  0
  -17.2250  -27.1249   17.4800 N   0  3  0  0  0  0  0  0  0  0  0  0
  -22.9457  -14.6718   22.1602 O   0  0  0  0  0  0  0  0  0  0  0  0
  -23.2804  -28.8515   23.0068 O   0  0  0  0  0  0  0  0  0  0  0  0
  -20.3811  -30.4747   21.2308 O   0  0  0  0  0  0  0  0  0  0  0  0
  -18.6091  -26.3143   19.7916 O   0  0  0  0  0  0  0  0  0  0  0  0
  -31.9673  -14.7653   19.9595 O   0  0  0  0  0  0  0  0  0  0  0  0
  -21.5351   -7.0617   21.3343 O   0  0  0  0  0  0  0  0  0  0  0  0
  -24.7603  -23.4028   19.5970 O   0  0  0  0  0  0  0  0  0  1  0  0
  -29.2069  -19.3735   20.8420 O   0  0  0  0  0  0  0  0  0  0  0  0
  -19.1055   -6.1748   26.2041 F   0  0  0  0  0  0  0  0  0  0  0  0
  -22.1019   -4.7937   22.8100 F   0  0  0  0  0  0  0  0  0  0  0  0
  1  2  1  0  0  0  0
  1  5  2  0  0  0  0
  2  6  2  0  0  0  0
  3  8  2  0  0  0  0
  3 15  1  0  0  0  0
  4  9  1  0  0  0  0
  4 15  2  0  0  0  0
  5 17  1  0  0  0  0
  6 19  1  0  0  0  0
  7 10  2  0  0  0  0
  7 18  1  0  0  0  0
  8 21  1  0  0  0  0
  9 21  2  0  0  0  0
 10 22  1  0  0  0  0
 11 12  2  0  0  0  0
 11 23  1  0  0  0  0
 12 24  1  0  0  0  0
 13 20  1  0  0  0  0
 13 22  2  0  0  0  0
 14 24  2  0  0  0  0
 14 25  1  0  0  0  0
 15 26  1  0  0  0  0
 16 26  1  0  0  0  0
 16 27  2  0  0  0  0
 16 28  1  0  0  0  0
 17 19  2  0  0  0  0
 17 33  1  0  0  0  0
 18 20  2  0  0  0  0
 18 34  1  0  0  0  0
 19 42  1  0  0  0  0
 20 35  1  0  0  0  0
 21 75  1  0  0  0  0
 22 76  1  0  0  0  0
 23 25  2  0  0  0  0
 23 75  1  0  0  0  0
 24 78  1  0  0  0  0
 25 79  1  0  0  0  0
 26 60  2  0  0  0  0
 27 61  1  0  0  0  0
 27 64  1  0  0  0  0
 28 65  1  0  0  0  0
 28 70  2  0  0  0  0
 29 43  1  0  0  0  0
 29 66  1  0  0  0  0
 29 71  2  0  0  0  0
 30 57  1  0  0  0  0
 30 62  1  0  0  0  0
 30 72  2  0  0  0  0
 31 58  1  0  0  0  0
 31 67  1  0  0  0  0
 31 73  2  0  0  0  0
 32 63  1  0  0  0  0
 32 68  1  0  0  0  0
 32 74  2  0  0  0  0
 33 36  1  0  0  0  0
 34 43  1  0  0  0  0
 35 62  1  0  0  0  0
 36 38  1  0  0  0  0
 37 39  1  0  0  0  0
 37 40  1  0  0  0  0
 38 42  1  0  0  0  0
 39 44  1  0  0  0  0
 40 63  1  0  0  0  0
 41 44  1  0  0  0  0
 41 63  1  0  0  0  0
 42 66  1  0  0  0  0
 43 62  1  0  0  0  0
 44 61  1  0  0  0  0
 45 58  1  0  0  0  0
 46 59  1  0  0  0  0
 47 59  1  0  0  0  0
 48 59  1  0  0  0  0
 49 69  1  0  0  0  0
 50 51  1  0  0  0  0
 50 54  1  0  0  0  0
 51 55  1  0  0  0  0
 52 53  1  0  0  0  0
 52 56  1  0  0  0  0
 53 68  1  0  0  0  0
 54 76  1  0  0  0  0
 55 77  1  0  0  0  0
 56 77  1  0  0  0  0
 57 59  1  0  0  0  0
 57 67  1  0  0  0  0
 58 69  1  0  0  0  0
 60 61  1  0  0  0  0
M  CHG  1  69   1
M  ISO  4  32 100  54 101  68 100  76 101
M  END
> <Batch ID>
0000

> <Smiles>
CNC(C)C(=O)NC(C(=O)N1Cc2cc([101O:1][101CH2:1]CCCOCCC[100NH:0][100C:0](=O)N3CCCC(n4nc(-c5ccc(Oc6ccc(F)cc6F)cc5)c(C(N)=O)c4N)C3)ccc2CC1C(=O)NC1CCCc2ccccc21)C(C)(C)C

> <Shape>
0.354

> <Color>
0.201

> <Negative vol penalty>
0.000

$$$$

  -OEChem-04052315133D

 96105  0     1  0  0  0  0  0999 V2000
  -22.0033  -21.9345   23.1196 C   0  0  0  0  0  0  0  0  0  0  0  0
  -22.1205  -23.2982   23.3686 C   0  0  0  0  0  0  0  0  0  0  0  0
  -23.8452   -9.5832   19.7664 C   0  0  0  0  0  0  0  0  0  0  0  0
  -24.5801   -9.6488   22.0670 C   0  0  0  0  0  0  0  0  0  0  0  0
  -23.0742  -21.2335   22.5666 C   0  0  0  0  0  0  0  0  0  0  0  0
  -23.3091  -23.9615   23.0658 C   0  0  0  0  0  0  0  0  0  0  0  0
  -23.9052  -29.7168   21.0590 C   0  0  0  0  0  0  0  0  0  0  0  0
  -27.8228  -18.6862   23.6941 C   0  0  0  0  0  0  0  0  0  0  0  0
  -30.1593  -18.6481   23.0805 C   0  0  0  0  0  0  0  0  0  0  0  0
  -23.5208   -8.2341   19.9085 C   0  0  0  0  0  0  0  0  0  0  0  0
  -24.2557   -8.2996   22.2091 C   0  0  0  0  0  0  0  0  0  0  0  0
  -24.2111  -30.9105   21.7110 C   0  0  0  0  0  0  0  0  0  0  0  0
  -28.0967  -19.6359   24.6783 C   0  0  0  0  0  0  0  0  0  0  0  0
  -30.4332  -19.5979   24.0646 C   0  0  0  0  0  0  0  0  0  0  0  0
  -21.4701   -6.4459   22.6837 C   0  0  0  0  0  0  0  0  0  0  0  0
  -20.7775   -6.0651   23.8329 C   0  0  0  0  0  0  0  0  0  0  0  0
  -26.5279  -30.6477   21.0925 C   0  0  0  0  0  0  0  0  0  0  0  0
  -22.5896   -4.5847   24.4345 C   0  0  0  0  0  0  0  0  0  0  0  0
  -24.3749  -10.2906   20.8457 C   0  0  0  0  0  0  0  0  0  0  0  0
  -23.8724  -12.7900   20.9359 C   0  0  0  0  0  0  0  0  0  0  0  0
  -24.2731  -21.8904   22.2479 C   0  0  0  0  0  0  0  0  0  0  0  0
  -24.9119  -28.9727   20.4271 C   0  0  0  0  0  0  0  0  0  0  0  0
  -24.3975  -23.2683   22.5093 C   0  0  0  0  0  0  0  0  0  0  0  0
  -26.2317  -29.4461   20.4310 C   0  0  0  0  0  0  0  0  0  0  0  0
  -28.8541  -18.1922   22.8952 C   0  0  0  0  0  0  0  0  0  0  0  0
  -23.7260   -7.5923   21.1298 C   0  0  0  0  0  0  0  0  0  0  0  0
  -29.4019  -20.0918   24.8635 C   0  0  0  0  0  0  0  0  0  0  0  0
  -25.5231  -31.3747   21.7303 C   0  0  0  0  0  0  0  0  0  0  0  0
  -22.7225   -5.8961   22.4098 C   0  0  0  0  0  0  0  0  0  0  0  0
  -21.3372   -5.1345   24.7083 C   0  0  0  0  0  0  0  0  0  0  0  0
  -23.2822   -4.9656   23.2852 C   0  0  0  0  0  0  0  0  0  0  0  0
  -24.7108  -11.6841   20.6994 C   0  0  0  0  0  0  0  0  0  0  0  0
  -24.6568  -13.8819   20.6551 C   0  0  0  0  0  0  0  0  0  0  0  0
  -22.5066  -12.8269   21.3707 C   0  0  0  0  0  0  0  0  0  0  0  0
  -26.1232  -26.0590   20.8102 C   0  0  0  0  0  0  0  0  0  0  0  0
  -27.7743  -26.8156   18.1224 C   0  0  0  0  0  0  0  0  0  0  0  0
  -28.1895  -30.4196   26.1456 C   0  0  0  0  0  0  0  0  0  0  0  0
  -29.0504  -29.2451   16.0937 C   0  0  0  0  0  0  0  0  0  0  0  0
  -29.4831  -16.6348   21.0177 C   0  0  0  0  0  0  0  0  0  0  0  0
  -25.4197  -21.0811   21.6956 C   0  0  0  0  0  0  0  0  0  0  0  0
  -24.5611  -27.7006   19.7053 C   0  0  0  0  0  0  0  0  0  0  0  0
  -27.3456  -28.6950   19.7502 C   0  0  0  0  0  0  0  0  0  0  0  0
  -26.5137  -21.9324   21.0562 C   0  0  0  0  0  0  0  0  0  0  0  0
  -29.1985  -14.1932   18.4420 C   0  0  0  0  0  0  0  0  0  0  0  0
  -26.8709  -23.1088   21.9591 C   0  0  0  0  0  0  0  0  0  0  0  0
  -27.9366  -13.4137   18.8191 C   0  0  0  0  0  0  0  0  0  0  0  0
  -27.4292  -25.5675   26.3880 C   0  0  0  0  0  0  0  0  0  0  0  0
  -29.8138  -26.2984   26.0350 C   0  0  0  0  0  0  0  0  0  0  0  0
  -29.9986  -14.6081   19.6754 C   0  0  0  0  0  0  0  0  0  0  0  0
  -27.9712  -14.5548   21.0738 C   0  0  0  0  0  0  0  0  0  0  0  0
  -27.1290  -26.8970   27.0667 C   0  0  0  0  0  0  0  0  0  0  0  0
  -29.5014  -27.6240   26.7157 C   0  0  0  0  0  0  0  0  0  0  0  0
  -25.6620  -24.0280   22.1716 C   0  0  1  0  0  0  0  0  0  0  0  0
  -25.7518  -26.7621   19.5353 C   0  0  1  0  0  0  0  0  0  0  0  0
  -28.9029  -25.1726   26.5385 C   0  0  0  0  0  0  0  0  0  0  0  0
  -27.0985  -14.1713   19.8675 C   0  0  2  0  0  0  0  0  0  0  0  0
  -30.3838  -29.5556   13.9906 C   0  0  0  0  0  0  0  0  0  0  0  0
  -30.3232  -26.0889   19.6341 C   0  0  0  0  0  0  0  0  0  0  0  0
  -31.6294  -27.2951   17.8713 C   0  0  0  0  0  0  0  0  0  0  0  0
  -30.2578  -25.3029   17.2608 C   0  0  0  0  0  0  0  0  0  0  0  0
  -26.8294  -30.6748   14.7587 C   0  0  0  0  0  0  0  0  0  0  0  0
  -27.7085  -29.3215   27.0606 C   0  0  0  0  0  0  0  0  0  0  0  0
  -29.1928  -23.8687   25.7982 C   0  0  0  0  0  0  0  0  0  0  0  0
  -30.4851  -23.2295   26.2907 C   0  0  0  0  0  0  0  0  0  0  0  0
  -28.9636  -32.7723   26.1968 C   0  0  0  0  0  0  0  0  0  0  0  0
  -30.7565  -21.9086   25.5847 C   0  0  0  0  0  0  0  0  0  0  0  0
  -27.7863  -33.6406   25.7922 C   0  0  0  0  0  0  0  0  0  0  0  0
  -25.0167  -32.8946   23.4880 C   0  0  0  0  0  0  0  0  0  1  0  0
  -25.8502  -33.7050   24.4617 C   0  0  0  0  0  0  0  0  0  0  0  0
  -29.1002  -27.4766   17.8328 C   0  0  1  0  0  0  0  0  0  0  0  0
  -28.9908  -29.4345   14.5887 C   0  0  2  0  0  0  0  0  0  0  0  0
  -30.3072  -26.5543   18.1643 C   0  0  0  0  0  0  0  0  0  0  0  0
  -25.9341  -12.0408   20.2990 N   0  0  0  0  0  0  0  0  0  0  0  0
  -25.8701  -13.3830   20.2816 N   0  0  0  0  0  0  0  0  0  0  0  0
  -26.9533  -27.4533   19.0632 N   0  0  0  0  0  0  0  0  0  0  0  0
  -29.1410  -15.3244   20.6221 N   0  0  0  0  0  0  0  0  0  0  0  0
  -24.4203  -15.2104   20.6935 N   0  0  0  0  0  0  0  0  0  0  0  0
  -21.8499  -11.6129   21.6143 N   0  0  0  0  0  0  0  0  0  0  0  0
  -28.5759  -17.2274   21.8955 N   0  0  0  0  0  0  0  0  0  0  0  0
  -25.4543  -24.8665   21.0104 N   0  0  0  0  0  0  0  0  0  0  0  0
  -28.4704  -31.5471   26.8663 N   0  0  0  0  0  0  0  0  0  0  0  0
  -29.0445  -27.9107   16.4411 N   0  0  0  0  0  0  0  0  0  0  0  0
  -28.0443  -27.9617   26.5128 N   0  3  0  0  0  0  0  0  0  0  0  0
  -28.2259  -30.6684   14.2518 N   0  3  0  0  0  0  0  0  0  0  0  0
  -21.8819  -13.9041   21.5224 O   0  0  0  0  0  0  0  0  0  0  0  0
  -26.9562  -26.5603   21.5561 O   0  0  0  0  0  0  0  0  0  0  0  0
  -27.4748  -25.7757   17.5303 O   0  0  0  0  0  0  0  0  0  0  0  0
  -28.3016  -30.2835   24.9302 O   0  0  0  0  0  0  0  0  0  0  0  0
  -29.1011  -30.1865   16.8821 O   0  0  0  0  0  0  0  0  0  0  0  0
  -30.4913  -17.2004   20.5869 O   0  0  0  0  0  0  0  0  0  0  0  0
  -23.4093   -6.2759   21.2688 O   0  0  0  0  0  0  0  0  0  0  0  0
  -29.6712  -21.0251   25.8307 O   0  0  0  0  0  0  0  0  0  0  0  0
  -25.8245  -32.5393   22.3665 O   0  0  0  0  0  0  0  0  0  1  0  0
  -26.9704  -32.9299   24.8714 O   0  0  0  0  0  0  0  0  0  0  0  0
  -20.6725   -4.7700   25.8126 F   0  0  0  0  0  0  0  0  0  0  0  0
  -24.4856   -4.4348   23.0280 F   0  0  0  0  0  0  0  0  0  0  0  0
  1  2  1  0  0  0  0
  1  5  2  0  0  0  0
  2  6  2  0  0  0  0
  3 10  2  0  0  0  0
  3 19  1  0  0  0  0
  4 11  1  0  0  0  0
  4 19  2  0  0  0  0
  5 21  1  0  0  0  0
  6 23  1  0  0  0  0
  7 12  2  0  0  0  0
  7 22  1  0  0  0  0
  8 13  2  0  0  0  0
  8 25  1  0  0  0  0
  9 14  1  0  0  0  0
  9 25  2  0  0  0  0
 10 26  1  0  0  0  0
 11 26  2  0  0  0  0
 12 28  1  0  0  0  0
 13 27  1  0  0  0  0
 14 27  2  0  0  0  0
 15 16  2  0  0  0  0
 15 29  1  0  0  0  0
 16 30  1  0  0  0  0
 17 24  1  0  0  0  0
 17 28  2  0  0  0  0
 18 30  2  0  0  0  0
 18 31  1  0  0  0  0
 19 32  1  0  0  0  0
 20 32  1  0  0  0  0
 20 33  2  0  0  0  0
 20 34  1  0  0  0  0
 21 23  2  0  0  0  0
 21 40  1  0  0  0  0
 22 24  2  0  0  0  0
 22 41  1  0  0  0  0
 23 53  1  0  0  0  0
 24 42  1  0  0  0  0
 25 79  1  0  0  0  0
 26 91  1  0  0  0  0
 27 92  1  0  0  0  0
 28 93  1  0  0  0  0
 29 31  2  0  0  0  0
 29 91  1  0  0  0  0
 30 95  1  0  0  0  0
 31 96  1  0  0  0  0
 32 73  2  0  0  0  0
 33 74  1  0  0  0  0
 33 77  1  0  0  0  0
 34 78  1  0  0  0  0
 34 85  2  0  0  0  0
 35 54  1  0  0  0  0
 35 80  1  0  0  0  0
 35 86  2  0  0  0  0
 36 70  1  0  0  0  0
 36 75  1  0  0  0  0
 36 87  2  0  0  0  0
 37 62  1  0  0  0  0
 37 81  1  0  0  0  0
 37 88  2  0  0  0  0
 38 71  1  0  0  0  0
 38 82  1  0  0  0  0
 38 89  2  0  0  0  0
 39 76  1  0  0  0  0
 39 79  1  0  0  0  0
 39 90  2  0  0  0  0
 40 43  1  0  0  0  0
 41 54  1  0  0  0  0
 42 75  1  0  0  0  0
 43 45  1  0  0  0  0
 44 46  1  0  0  0  0
 44 49  1  0  0  0  0
 45 53  1  0  0  0  0
 46 56  1  0  0  0  0
 47 51  1  0  0  0  0
 47 55  1  0  0  0  0
 48 52  1  0  0  0  0
 48 55  1  0  0  0  0
 49 76  1  0  0  0  0
 50 56  1  0  0  0  0
 50 76  1  0  0  0  0
 51 83  1  0  0  0  0
 52 83  1  0  0  0  0
 53 80  1  0  0  0  0
 54 75  1  0  0  0  0
 55 63  1  0  0  0  0
 56 74  1  0  0  0  0
 57 71  1  0  0  0  0
 58 72  1  0  0  0  0
 59 72  1  0  0  0  0
 60 72  1  0  0  0  0
 61 84  1  0  0  0  0
 62 83  1  0  0  0  0
 63 64  1  0  0  0  0
 64 66  1  0  0  0  0
 65 67  1  0  0  0  0
 65 81  1  0  0  0  0
 66 92  1  0  0  0  0
 67 94  1  0  0  0  0
 68 69  1  0  0  0  0
 68 93  1  0  0  0  0
 69 94  1  0  0  0  0
 70 72  1  0  0  0  0
 70 82  1  0  0  0  0
 71 84  1  0  0  0  0
 73 74  1  0  0  0  0
M  CHG  2  83   1  84   1
M  ISO  4  39 100  68 101  79 100  93 101
M  END
> <Batch ID>
0000

> <Smiles>
CNC(C)C(=O)NC(C(=O)N1Cc2cc([101O:1][101CH2:1]COCCNC(=O)CN3CCC(CCCOc4ccc([100NH:0][100C:0](=O)N5CCCC(n6nc(-c7ccc(Oc8ccc(F)cc8F)cc7)c(C(N)=O)c6N)C5)cc4)CC3)ccc2CC1C(=O)NC1CCCc2ccccc21)C(C)(C)C

> <Shape>
0.276

> <Color>
0.116

> <Negative vol penalty>
0.000

$$$$

  -OEChem-04052315133D

 89 98  0     1  0  0  0  0  0999 V2000
  -13.0480  -20.8624   20.2654 C   0  0  0  0  0  0  0  0  0  0  0  0
  -13.4700  -20.1404   21.3772 C   0  0  0  0  0  0  0  0  0  0  0  0
  -22.6464  -10.2129   20.2565 C   0  0  0  0  0  0  0  0  0  0  0  0
  -24.2543   -9.5402   21.9295 C   0  0  0  0  0  0  0  0  0  0  0  0
  -13.8241  -20.8733   19.1071 C   0  0  0  0  0  0  0  0  0  0  0  0
  -14.6678  -19.4281   21.3310 C   0  0  0  0  0  0  0  0  0  0  0  0
  -20.9220  -19.8517   25.9929 C   0  0  0  0  0  0  0  0  0  0  0  0
  -29.8183  -17.3694   24.1341 C   0  0  0  0  0  0  0  0  0  0  0  0
  -29.3467  -18.8746   22.3041 C   0  0  0  0  0  0  0  0  0  0  0  0
  -29.0343  -18.1530   24.9808 C   0  0  0  0  0  0  0  0  0  0  0  0
  -28.5626  -19.6582   23.1508 C   0  0  0  0  0  0  0  0  0  0  0  0
  -21.9019   -9.0606   20.5087 C   0  0  0  0  0  0  0  0  0  0  0  0
  -23.5098   -8.3879   22.1817 C   0  0  0  0  0  0  0  0  0  0  0  0
  -22.1476  -19.9472   26.6524 C   0  0  0  0  0  0  0  0  0  0  0  0
  -23.0519   -5.3561   20.7571 C   0  0  0  0  0  0  0  0  0  0  0  0
  -23.7427   -4.1494   20.8674 C   0  0  0  0  0  0  0  0  0  0  0  0
  -23.2874  -19.1572   24.6714 C   0  0  0  0  0  0  0  0  0  0  0  0
  -22.9160   -3.8822   23.1217 C   0  0  0  0  0  0  0  0  0  0  0  0
  -23.8227  -10.4526   20.9669 C   0  0  0  0  0  0  0  0  0  0  0  0
  -24.1665  -12.9773   20.8426 C   0  0  0  0  0  0  0  0  0  0  0  0
  -15.0368  -20.1685   19.0500 C   0  0  0  0  0  0  0  0  0  0  0  0
  -20.8760  -19.4227   24.6635 C   0  0  0  0  0  0  0  0  0  0  0  0
  -15.4602  -19.4285   20.1705 C   0  0  0  0  0  0  0  0  0  0  0  0
  -22.0640  -19.0714   24.0016 C   0  0  0  0  0  0  0  0  0  0  0  0
  -29.9746  -17.7302   22.7958 C   0  0  0  0  0  0  0  0  0  0  0  0
  -28.4064  -19.2974   24.4891 C   0  0  0  0  0  0  0  0  0  0  0  0
  -22.3336   -8.1481   21.4713 C   0  0  0  0  0  0  0  0  0  0  0  0
  -23.3273  -19.6005   25.9934 C   0  0  0  0  0  0  0  0  0  0  0  0
  -22.2931   -5.8260   21.8291 C   0  0  0  0  0  0  0  0  0  0  0  0
  -23.6747   -3.4124   22.0497 C   0  0  0  0  0  0  0  0  0  0  0  0
  -22.2252   -5.0889   23.0114 C   0  0  0  0  0  0  0  0  0  0  0  0
  -24.5925  -11.6425   20.7064 C   0  0  0  0  0  0  0  0  0  0  0  0
  -25.2589  -13.7253   20.4769 C   0  0  0  0  0  0  0  0  0  0  0  0
  -22.8970  -13.4949   21.2623 C   0  0  0  0  0  0  0  0  0  0  0  0
  -18.7594  -18.6797   21.6562 C   0  0  0  0  0  0  0  0  0  0  0  0
  -27.3511  -19.8812   26.6959 C   0  0  0  0  0  0  0  0  0  0  0  0
  -25.1474  -20.9495   26.5015 C   0  0  0  0  0  0  0  0  0  1  0  0
  -21.2938  -20.0768   20.6388 C   0  0  0  0  0  0  0  0  0  0  0  0
  -24.0230  -22.0123   19.9733 C   0  0  0  0  0  0  0  0  0  0  0  0
  -30.7437  -14.7399   20.6571 C   0  0  0  0  0  0  0  0  0  0  0  0
  -15.8181  -20.1716   17.7600 C   0  0  0  0  0  0  0  0  0  0  0  0
  -19.5724  -19.2459   23.9333 C   0  0  0  0  0  0  0  0  0  0  0  0
  -21.9629  -18.5821   22.5827 C   0  0  0  0  0  0  0  0  0  0  0  0
  -17.2596  -19.6953   17.9198 C   0  0  0  0  0  0  0  0  0  0  0  0
  -29.6012  -12.3528   18.2753 C   0  0  0  0  0  0  0  0  0  0  0  0
  -17.3109  -18.4200   18.7550 C   0  0  0  0  0  0  0  0  0  0  0  0
  -28.1640  -12.0609   18.7104 C   0  0  0  0  0  0  0  0  0  0  0  0
  -27.1140  -22.3366   27.0620 C   0  0  0  0  0  0  0  0  0  0  0  0
  -26.1633  -20.6811   28.7377 C   0  0  0  0  0  0  0  0  0  0  0  0
  -30.5200  -12.5746   19.4748 C   0  0  0  0  0  0  0  0  0  0  0  0
  -28.6205  -13.3094   20.8626 C   0  0  0  0  0  0  0  0  0  0  0  0
  -28.2987  -22.5648   27.9914 C   0  0  0  0  0  0  0  0  0  0  0  0
  -27.3636  -20.9367   29.6395 C   0  0  0  0  0  0  0  0  0  0  0  0
  -16.7658  -18.6633   20.1675 C   0  0  1  0  0  0  0  0  0  0  0  0
  -19.6696  -19.5835   22.4347 C   0  0  1  0  0  0  0  0  0  0  0  0
  -27.6448  -13.1339   19.6864 C   0  0  2  0  0  0  0  0  0  0  0  0
  -26.4543  -20.9587   27.2518 C   0  0  0  0  0  0  0  0  0  0  0  0
  -25.2496  -23.1014   18.0742 C   0  0  0  0  0  0  0  0  0  0  0  0
  -22.4358  -17.3673   19.8273 C   0  0  0  0  0  0  0  0  0  0  0  0
  -24.2829  -18.5785   18.6485 C   0  0  0  0  0  0  0  0  0  0  0  0
  -21.9194  -18.8966   17.9171 C   0  0  0  0  0  0  0  0  0  0  0  0
  -23.6086  -24.7159   21.1035 C   0  0  0  0  0  0  0  0  0  0  0  0
  -30.8129  -16.8923   21.8907 C   0  0  0  0  0  0  0  0  0  0  0  0
  -22.6916  -19.9225   20.0950 C   0  0  1  0  0  0  0  0  0  0  0  0
  -24.1852  -23.2750   19.1465 C   0  0  2  0  0  0  0  0  0  0  0  0
  -22.8277  -18.6956   19.1497 C   0  0  0  0  0  0  0  0  0  0  0  0
  -25.8567  -11.5449   20.2867 N   0  0  0  0  0  0  0  0  0  0  0  0
  -26.2346  -12.8280   20.1560 N   0  0  0  0  0  0  0  0  0  0  0  0
  -21.0026  -19.4076   21.8338 N   0  0  0  0  0  0  0  0  0  0  0  0
  -29.9714  -13.6049   20.3599 N   0  0  0  0  0  0  0  0  0  0  0  0
  -25.4704  -15.0565   20.4016 N   0  0  0  0  0  0  0  0  0  0  0  0
  -21.8847  -12.5871   21.6021 N   0  0  0  0  0  0  0  0  0  0  0  0
  -27.6107  -20.0925   25.3477 N   0  0  0  0  0  0  0  0  0  0  0  0
  -17.7525  -19.3419   20.9801 N   0  0  0  0  0  0  0  0  0  0  0  0
  -23.0302  -21.1974   19.4717 N   0  0  0  0  0  0  0  0  0  0  0  0
  -30.1464  -15.6705   21.4985 N   0  0  0  0  0  0  0  0  0  0  0  0
  -27.8770  -22.3152   29.3992 N   0  3  0  0  0  0  0  0  0  0  0  0
  -24.5783  -24.4180   20.0183 N   0  3  0  0  0  0  0  0  0  0  0  0
  -22.6619  -14.7258   21.3180 O   0  0  0  0  0  0  0  0  0  0  0  0
  -18.9560  -17.4702   21.6661 O   0  0  0  0  0  0  0  0  0  0  0  0
  -27.7581  -18.9717   27.4114 O   0  0  0  0  0  0  0  0  0  0  0  0
  -24.7122  -21.9003   25.8656 O   0  0  0  0  0  0  0  0  0  0  0  0
  -20.4786  -20.7666   20.0201 O   0  0  0  0  0  0  0  0  0  0  0  0
  -24.7109  -21.7710   20.9628 O   0  0  0  0  0  0  0  0  0  0  0  0
  -31.8793  -14.9137   20.2019 O   0  0  0  0  0  0  0  0  0  0  0  0
  -21.6072   -7.0238   21.7178 O   0  0  0  0  0  0  0  0  0  0  0  0
  -24.5208  -19.7004   26.6418 O   0  0  0  0  0  0  0  0  0  1  0  0
  -24.3369   -2.2529   22.1549 F   0  0  0  0  0  0  0  0  0  0  0  0
  -21.4969   -5.5346   24.0443 F   0  0  0  0  0  0  0  0  0  0  0  0
  1  2  1  0  0  0  0
  1  5  2  0  0  0  0
  2  6  2  0  0  0  0
  3 12  2  0  0  0  0
  3 19  1  0  0  0  0
  4 13  1  0  0  0  0
  4 19  2  0  0  0  0
  5 21  1  0  0  0  0
  6 23  1  0  0  0  0
  7 14  2  0  0  0  0
  7 22  1  0  0  0  0
  8 10  2  0  0  0  0
  8 25  1  0  0  0  0
  9 11  1  0  0  0  0
  9 25  2  0  0  0  0
 10 26  1  0  0  0  0
 11 26  2  0  0  0  0
 12 27  1  0  0  0  0
 13 27  2  0  0  0  0
 14 28  1  0  0  0  0
 15 16  2  0  0  0  0
 15 29  1  0  0  0  0
 16 30  1  0  0  0  0
 17 24  1  0  0  0  0
 17 28  2  0  0  0  0
 18 30  2  0  0  0  0
 18 31  1  0  0  0  0
 19 32  1  0  0  0  0
 20 32  1  0  0  0  0
 20 33  2  0  0  0  0
 20 34  1  0  0  0  0
 21 23  2  0  0  0  0
 21 41  1  0  0  0  0
 22 24  2  0  0  0  0
 22 42  1  0  0  0  0
 23 54  1  0  0  0  0
 24 43  1  0  0  0  0
 25 63  1  0  0  0  0
 26 73  1  0  0  0  0
 27 86  1  0  0  0  0
 28 87  1  0  0  0  0
 29 31  2  0  0  0  0
 29 86  1  0  0  0  0
 30 88  1  0  0  0  0
 31 89  1  0  0  0  0
 32 67  2  0  0  0  0
 33 68  1  0  0  0  0
 33 71  1  0  0  0  0
 34 72  1  0  0  0  0
 34 79  2  0  0  0  0
 35 55  1  0  0  0  0
 35 74  1  0  0  0  0
 35 80  2  0  0  0  0
 36 57  1  0  0  0  0
 36 73  1  0  0  0  0
 36 81  2  0  0  0  0
 37 57  1  0  0  0  0
 37 82  2  0  0  0  0
 37 87  1  0  0  0  0
 38 64  1  0  0  0  0
 38 69  1  0  0  0  0
 38 83  2  0  0  0  0
 39 65  1  0  0  0  0
 39 75  1  0  0  0  0
 39 84  2  0  0  0  0
 40 70  1  0  0  0  0
 40 76  1  0  0  0  0
 40 85  2  0  0  0  0
 41 44  1  0  0  0  0
 42 55  1  0  0  0  0
 43 69  1  0  0  0  0
 44 46  1  0  0  0  0
 45 47  1  0  0  0  0
 45 50  1  0  0  0  0
 46 54  1  0  0  0  0
 47 56  1  0  0  0  0
 48 52  1  0  0  0  0
 48 57  1  0  0  0  0
 49 53  1  0  0  0  0
 49 57  1  0  0  0  0
 50 70  1  0  0  0  0
 51 56  1  0  0  0  0
 51 70  1  0  0  0  0
 52 77  1  0  0  0  0
 53 77  1  0  0  0  0
 54 74  1  0  0  0  0
 55 69  1  0  0  0  0
 56 68  1  0  0  0  0
 58 65  1  0  0  0  0
 59 66  1  0  0  0  0
 60 66  1  0  0  0  0
 61 66  1  0  0  0  0
 62 78  1  0  0  0  0
 63 76  1  0  0  0  0
 64 66  1  0  0  0  0
 64 75  1  0  0  0  0
 65 78  1  0  0  0  0
 67 68  1  0  0  0  0
M  CHG  2  77   1  78   1
M  ISO  4  37 101  40 100  76 100  87 101
M  END
> <Batch ID>
0000

> <Smiles>
CNC(C)C(=O)NC(C(=O)N1Cc2cc([101O:1][101C:1](=O)C3(C(=O)Nc4ccc(C[100NH:0][100C:0](=O)N5CCCC(n6nc(-c7ccc(Oc8ccc(F)cc8F)cc7)c(C(N)=O)c6N)C5)cc4)CCNCC3)ccc2CC1C(=O)NC1CCCc2ccccc21)C(C)(C)C

> <Shape>
0.169

> <Color>
0.180

> <Negative vol penalty>
0.000

$$$$

  -OEChem-04052315133D

 94102  0     1  0  0  0  0  0999 V2000
  -26.9312  -32.2578   28.4094 C   0  0  0  0  0  0  0  0  0  0  0  0
  -27.3784  -31.3952   27.4137 C   0  0  0  0  0  0  0  0  0  0  0  0
  -32.0135  -18.9167   18.1573 C   0  0  0  0  0  0  0  0  0  0  0  0
  -29.8894  -19.8899   18.7723 C   0  0  0  0  0  0  0  0  0  0  0  0
  -25.5648  -32.4787   28.5768 C   0  0  0  0  0  0  0  0  0  0  0  0
  -26.4592  -30.7521   26.5855 C   0  0  0  0  0  0  0  0  0  0  0  0
  -27.1823  -29.3599   20.6657 C   0  0  0  0  0  0  0  0  0  0  0  0
  -32.1867  -19.9061   17.1895 C   0  0  0  0  0  0  0  0  0  0  0  0
  -30.0626  -20.8794   17.8045 C   0  0  0  0  0  0  0  0  0  0  0  0
  -27.5489  -28.1813   20.0172 C   0  0  0  0  0  0  0  0  0  0  0  0
  -29.7338  -21.1700   14.4521 C   0  0  0  0  0  0  0  0  0  0  0  0
  -28.6451  -21.4751   13.6353 C   0  0  0  0  0  0  0  0  0  0  0  0
  -25.3365  -20.2968   19.2457 C   0  0  0  0  0  0  0  0  0  0  0  0
  -23.1733  -20.2227   20.3189 C   0  0  0  0  0  0  0  0  0  0  0  0
  -25.2204  -27.6556   19.6691 C   0  0  0  0  0  0  0  0  0  0  0  0
  -24.7305  -21.9889   20.8601 C   0  0  0  0  0  0  0  0  0  0  0  0
  -28.6862  -23.7555   14.4323 C   0  0  0  0  0  0  0  0  0  0  0  0
  -30.8649  -18.9086   18.9487 C   0  0  0  0  0  0  0  0  0  0  0  0
  -24.0965  -19.6833   19.4231 C   0  0  0  0  0  0  0  0  0  0  0  0
  -31.0955  -17.9321   21.2941 C   0  0  0  0  0  0  0  0  0  0  0  0
  -24.6289  -31.8454   27.7440 C   0  0  0  0  0  0  0  0  0  0  0  0
  -25.8295  -29.6903   20.8305 C   0  0  0  0  0  0  0  0  0  0  0  0
  -25.0789  -30.9637   26.7428 C   0  0  0  0  0  0  0  0  0  0  0  0
  -24.8393  -28.8402   20.3177 C   0  0  0  0  0  0  0  0  0  0  0  0
  -31.2112  -20.8875   17.0131 C   0  0  0  0  0  0  0  0  0  0  0  0
  -26.5679  -27.3276   19.5214 C   0  0  0  0  0  0  0  0  0  0  0  0
  -30.2987  -22.1576   15.2591 C   0  0  0  0  0  0  0  0  0  0  0  0
  -25.6536  -21.4495   19.9642 C   0  0  0  0  0  0  0  0  0  0  0  0
  -23.4904  -21.3755   21.0375 C   0  0  0  0  0  0  0  0  0  0  0  0
  -28.1213  -22.7678   13.6253 C   0  0  0  0  0  0  0  0  0  0  0  0
  -29.7749  -23.4503   15.2492 C   0  0  0  0  0  0  0  0  0  0  0  0
  -30.6852  -17.8864   19.9482 C   0  0  0  0  0  0  0  0  0  0  0  0
  -30.6937  -16.7270   21.8166 C   0  0  0  0  0  0  0  0  0  0  0  0
  -23.7664  -18.4814   18.6735 C   0  0  0  0  0  0  0  0  0  0  0  0
  -31.7786  -18.9708   22.0082 C   0  0  0  0  0  0  0  0  0  0  0  0
  -23.9203  -30.1459   23.3308 C   0  0  0  0  0  0  0  0  0  0  0  0
  -21.7904  -31.0303   21.0497 C   0  0  0  0  0  0  0  0  0  0  0  0
  -20.7859  -30.8395   17.7937 C   0  0  0  0  0  0  0  0  0  0  0  0
  -26.3796  -12.8612   20.3017 C   0  0  0  0  0  0  0  0  0  0  0  0
  -23.1599  -32.0788   27.9938 C   0  0  0  0  0  0  0  0  0  0  0  0
  -25.4510  -30.9784   21.5087 C   0  0  0  0  0  0  0  0  0  0  0  0
  -23.3734  -29.1592   20.4509 C   0  0  0  0  0  0  0  0  0  0  0  0
  -22.2686  -31.6484   26.8316 C   0  0  0  0  0  0  0  0  0  0  0  0
  -29.8665  -12.1871   20.5532 C   0  0  0  0  0  0  0  0  0  0  0  0
  -22.6728  -30.2648   26.3328 C   0  0  0  0  0  0  0  0  0  0  0  0
  -30.5088  -13.5755   20.5481 C   0  0  0  0  0  0  0  0  0  0  0  0
  -28.6487  -12.1253   19.6339 C   0  0  0  0  0  0  0  0  0  0  0  0
  -28.2705  -14.5479   19.8824 C   0  0  0  0  0  0  0  0  0  0  0  0
  -24.1139  -30.2666   25.8085 C   0  0  1  0  0  0  0  0  0  0  0  0
  -24.0342  -30.9620   22.0744 C   0  0  1  0  0  0  0  0  0  0  0  0
  -29.4695  -14.6751   20.8377 C   0  0  2  0  0  0  0  0  0  0  0  0
  -18.1771  -23.5872   20.3854 C   0  0  0  0  0  0  0  0  0  0  0  0
  -18.9878  -31.6395   16.2368 C   0  0  0  0  0  0  0  0  0  0  0  0
  -19.8515  -29.0040   22.2517 C   0  0  0  0  0  0  0  0  0  0  0  0
  -18.5001  -29.1546   20.1495 C   0  0  0  0  0  0  0  0  0  0  0  0
  -18.8077  -31.1750   21.5798 C   0  0  0  0  0  0  0  0  0  0  0  0
  -22.7388  -32.2566   16.0800 C   0  0  0  0  0  0  0  0  0  0  0  0
  -23.3159  -15.1846   19.0558 C   0  0  0  0  0  0  0  0  0  0  0  0
  -23.2894  -14.9317   20.5681 C   0  0  0  0  0  0  0  0  0  0  0  0
  -28.0403  -24.0515   19.1309 C   0  0  0  0  0  0  0  0  0  0  0  0
  -22.4323  -16.3592   18.6456 C   0  0  0  0  0  0  0  0  0  0  0  0
  -24.1640  -13.7511   20.9789 C   0  0  0  0  0  0  0  0  0  0  0  0
  -19.0368  -23.9285   21.5838 C   0  0  0  0  0  0  0  0  0  0  0  0
  -28.1427  -25.5594   19.2987 C   0  0  0  0  0  0  0  0  0  1  0  0
  -26.9251  -23.4593   19.9781 C   0  0  0  0  0  0  0  0  0  0  0  0
  -22.6259  -23.3142   22.1099 C   0  0  0  0  0  0  0  0  0  0  0  0
  -21.2267  -23.8052   22.4277 C   0  0  0  0  0  0  0  0  0  0  0  0
  -20.7552  -30.3125   20.2177 C   0  0  1  0  0  0  0  0  0  0  0  0
  -20.3728  -31.9125   16.8025 C   0  0  2  0  0  0  0  0  0  0  0  0
  -19.5061  -29.9043   21.0487 C   0  0  0  0  0  0  0  0  0  0  0  0
  -30.0700  -16.7429   19.6352 N   0  0  0  0  0  0  0  0  0  0  0  0
  -30.0909  -16.0588   20.7917 N   0  0  0  0  0  0  0  0  0  0  0  0
  -23.0537  -30.4271   21.1274 N   0  0  0  0  0  0  0  0  0  0  0  0
  -27.7014  -13.1934   19.9619 N   0  0  0  0  0  0  0  0  0  0  0  0
  -30.8008  -16.1844   23.0480 N   0  0  0  0  0  0  0  0  0  0  0  0
  -32.1174  -20.1436   21.3195 N   0  0  0  0  0  0  0  0  0  0  0  0
  -22.8438  -17.6037   19.2545 N   0  0  0  0  0  0  0  0  0  0  0  0
  -24.1707  -30.8575   24.4886 N   0  0  0  0  0  0  0  0  0  0  0  0
  -20.4614  -31.1874   19.0878 N   0  0  0  0  0  0  0  0  0  0  0  0
  -25.5488  -13.9330   20.6048 N   0  0  0  0  0  0  0  0  0  0  0  0
  -21.3397  -31.9715   15.6700 N   0  3  0  0  0  0  0  0  0  0  0  0
  -24.3070  -18.2529   17.5770 O   0  0  0  0  0  0  0  0  0  0  0  0
  -32.0943  -18.8556   23.2167 O   0  0  0  0  0  0  0  0  0  0  0  0
  -23.6255  -28.9588   23.2555 O   0  0  0  0  0  0  0  0  0  0  0  0
  -21.4913  -32.0908   21.6041 O   0  0  0  0  0  0  0  0  0  0  0  0
  -21.3378  -29.7953   17.4535 O   0  0  0  0  0  0  0  0  0  0  0  0
  -25.9715  -11.6954   20.3378 O   0  0  0  0  0  0  0  0  0  0  0  0
  -31.3800  -21.8532   16.0690 O   0  0  0  0  0  0  0  0  0  0  0  0
  -26.9230  -26.1763   18.8886 O   0  0  0  0  0  0  0  0  0  1  0  0
  -26.8727  -22.0514   19.7908 O   0  0  0  0  0  0  0  0  0  0  0  0
  -22.5898  -21.9017   21.9120 O   0  0  0  0  0  0  0  0  0  0  0  0
  -20.3705  -23.5089   21.3311 O   0  0  0  0  0  0  0  0  0  0  0  0
  -27.0769  -23.0611   12.8397 F   0  0  0  0  0  0  0  0  0  0  0  0
  -30.3141  -24.4036   16.0214 F   0  0  0  0  0  0  0  0  0  0  0  0
  1  2  1  0  0  0  0
  1  5  2  0  0  0  0
  2  6  2  0  0  0  0
  3  8  2  0  0  0  0
  3 18  1  0  0  0  0
  4  9  1  0  0  0  0
  4 18  2  0  0  0  0
  5 21  1  0  0  0  0
  6 23  1  0  0  0  0
  7 10  2  0  0  0  0
  7 22  1  0  0  0  0
  8 25  1  0  0  0  0
  9 25  2  0  0  0  0
 10 26  1  0  0  0  0
 11 12  2  0  0  0  0
 11 27  1  0  0  0  0
 12 30  1  0  0  0  0
 13 19  2  0  0  0  0
 13 28  1  0  0  0  0
 14 19  1  0  0  0  0
 14 29  2  0  0  0  0
 15 24  1  0  0  0  0
 15 26  2  0  0  0  0
 16 28  2  0  0  0  0
 16 29  1  0  0  0  0
 17 30  2  0  0  0  0
 17 31  1  0  0  0  0
 18 32  1  0  0  0  0
 19 34  1  0  0  0  0
 20 32  1  0  0  0  0
 20 33  2  0  0  0  0
 20 35  1  0  0  0  0
 21 23  2  0  0  0  0
 21 40  1  0  0  0  0
 22 24  2  0  0  0  0
 22 41  1  0  0  0  0
 23 49  1  0  0  0  0
 24 42  1  0  0  0  0
 25 88  1  0  0  0  0
 26 89  1  0  0  0  0
 27 31  2  0  0  0  0
 27 88  1  0  0  0  0
 28 90  1  0  0  0  0
 29 91  1  0  0  0  0
 30 93  1  0  0  0  0
 31 94  1  0  0  0  0
 32 71  2  0  0  0  0
 33 72  1  0  0  0  0
 33 75  1  0  0  0  0
 34 77  1  0  0  0  0
 34 82  2  0  0  0  0
 35 76  1  0  0  0  0
 35 83  2  0  0  0  0
 36 50  1  0  0  0  0
 36 78  1  0  0  0  0
 36 84  2  0  0  0  0
 37 68  1  0  0  0  0
 37 73  1  0  0  0  0
 37 85  2  0  0  0  0
 38 69  1  0  0  0  0
 38 79  1  0  0  0  0
 38 86  2  0  0  0  0
 39 74  1  0  0  0  0
 39 80  1  0  0  0  0
 39 87  2  0  0  0  0
 40 43  1  0  0  0  0
 41 50  1  0  0  0  0
 42 73  1  0  0  0  0
 43 45  1  0  0  0  0
 44 46  1  0  0  0  0
 44 47  1  0  0  0  0
 45 49  1  0  0  0  0
 46 51  1  0  0  0  0
 47 74  1  0  0  0  0
 48 51  1  0  0  0  0
 48 74  1  0  0  0  0
 49 78  1  0  0  0  0
 50 73  1  0  0  0  0
 51 72  1  0  0  0  0
 52 63  1  0  0  0  0
 53 69  1  0  0  0  0
 54 70  1  0  0  0  0
 55 70  1  0  0  0  0
 56 70  1  0  0  0  0
 57 81  1  0  0  0  0
 58 59  1  0  0  0  0
 58 61  1  0  0  0  0
 59 62  1  0  0  0  0
 60 64  1  0  0  0  0
 60 65  1  0  0  0  0
 61 77  1  0  0  0  0
 62 80  1  0  0  0  0
 63 92  1  0  0  0  0
 64 89  1  0  0  0  0
 65 90  1  0  0  0  0
 66 67  1  0  0  0  0
 66 91  1  0  0  0  0
 67 92  1  0  0  0  0
 68 70  1  0  0  0  0
 68 79  1  0  0  0  0
 69 81  1  0  0  0  0
 71 72  1  0  0  0  0
M  CHG  1  81   1
M  ISO  4  39 100  64 101  80 100  89 101
M  END
> <Batch ID>
0000

> <Smiles>
CCOCCOc1cc(OCC[101CH2:1][101O:1]c2ccc3c(c2)CN(C(=O)C(NC(=O)C(C)NC)C(C)(C)C)C(C(=O)NC2CCCc4ccccc42)C3)cc(C(=O)NCCCC[100NH:0][100C:0](=O)N2CCCC(n3nc(-c4ccc(Oc5ccc(F)cc5F)cc4)c(C(N)=O)c3N)C2)c1

> <Shape>
0.217

> <Color>
0.087

> <Negative vol penalty>
0.000

$$$$

  -OEChem-04052315133D

 82 89  0     1  0  0  0  0  0999 V2000
  -32.1465  -13.7135   21.4347 C   0  0  0  0  0  0  0  0  0  0  0  0
  -31.4367  -14.9100   21.4328 C   0  0  0  0  0  0  0  0  0  0  0  0
  -28.9743  -26.3807   20.6244 C   0  0  0  0  0  0  0  0  0  0  0  0
  -27.0125  -25.0317   20.2136 C   0  0  0  0  0  0  0  0  0  0  0  0
  -31.5565  -12.5535   20.9346 C   0  0  0  0  0  0  0  0  0  0  0  0
  -30.1368  -14.9474   20.9296 C   0  0  0  0  0  0  0  0  0  0  0  0
  -26.9756  -17.5530   23.9066 C   0  0  0  0  0  0  0  0  0  0  0  0
  -29.6997  -25.2308   20.9360 C   0  0  0  0  0  0  0  0  0  0  0  0
  -27.7380  -23.8818   20.5251 C   0  0  0  0  0  0  0  0  0  0  0  0
  -27.0354  -18.9441   23.8356 C   0  0  0  0  0  0  0  0  0  0  0  0
  -29.1696  -20.5569   20.8625 C   0  0  0  0  0  0  0  0  0  0  0  0
  -29.0288  -19.4528   20.0219 C   0  0  0  0  0  0  0  0  0  0  0  0
  -25.0967  -18.9482   22.4002 C   0  0  0  0  0  0  0  0  0  0  0  0
  -29.8475  -20.7627   18.1642 C   0  0  0  0  0  0  0  0  0  0  0  0
  -27.6306  -26.2812   20.2633 C   0  0  0  0  0  0  0  0  0  0  0  0
  -26.7352  -28.0655   18.6752 C   0  0  0  0  0  0  0  0  0  0  0  0
  -30.2451  -12.5746   20.4339 C   0  0  0  0  0  0  0  0  0  0  0  0
  -25.9808  -16.8472   23.2149 C   0  0  0  0  0  0  0  0  0  0  0  0
  -29.5291  -13.7869   20.4211 C   0  0  0  0  0  0  0  0  0  0  0  0
  -25.0249  -17.5483   22.4660 C   0  0  0  0  0  0  0  0  0  0  0  0
  -29.0816  -23.9814   20.8863 C   0  0  0  0  0  0  0  0  0  0  0  0
  -26.0976  -19.6418   23.0800 C   0  0  0  0  0  0  0  0  0  0  0  0
  -29.6493  -21.7640   20.3540 C   0  0  0  0  0  0  0  0  0  0  0  0
  -29.3678  -19.5557   18.6727 C   0  0  0  0  0  0  0  0  0  0  0  0
  -29.9883  -21.8669   19.0048 C   0  0  0  0  0  0  0  0  0  0  0  0
  -26.8806  -27.4687   19.9419 C   0  0  0  0  0  0  0  0  0  0  0  0
  -25.9351  -29.1589   18.9007 C   0  0  0  0  0  0  0  0  0  0  0  0
  -27.2751  -27.6672   17.4081 C   0  0  0  0  0  0  0  0  0  0  0  0
  -25.9738  -14.6746   20.8947 C   0  0  0  0  0  0  0  0  0  0  0  0
  -22.7899  -14.5955   21.5102 C   0  0  0  0  0  0  0  0  0  0  0  0
  -20.0370  -16.1913   22.7438 C   0  0  0  0  0  0  0  0  0  0  0  0
  -21.8864  -30.4485   23.1191 C   0  0  0  0  0  0  0  0  0  0  0  0
  -29.6666  -11.3055   19.8603 C   0  0  0  0  0  0  0  0  0  0  0  0
  -25.9138  -15.3484   23.3233 C   0  0  0  0  0  0  0  0  0  0  0  0
  -23.9247  -16.8389   21.7213 C   0  0  0  0  0  0  0  0  0  0  0  0
  -28.1502  -11.3500   19.6898 C   0  0  0  0  0  0  0  0  0  0  0  0
  -24.7964  -32.3288   22.2987 C   0  0  0  0  0  0  0  0  0  0  0  0
  -27.7249  -12.6603   19.0350 C   0  0  0  0  0  0  0  0  0  0  0  0
  -25.6474  -31.3502   21.4873 C   0  0  0  0  0  0  0  0  0  0  0  0
  -24.0456  -31.6234   23.4259 C   0  0  0  0  0  0  0  0  0  0  0  0
  -24.0810  -29.4921   22.1889 C   0  0  0  0  0  0  0  0  0  0  0  0
  -28.1080  -13.8624   19.9065 C   0  0  1  0  0  0  0  0  0  0  0  0
  -25.1676  -14.6981   22.1624 C   0  0  1  0  0  0  0  0  0  0  0  0
  -24.8136  -30.1477   21.0058 C   0  0  2  0  0  0  0  0  0  0  0  0
  -17.5681  -15.8884   23.0759 C   0  0  0  0  0  0  0  0  0  0  0  0
  -22.3295  -15.1090   18.5380 C   0  0  0  0  0  0  0  0  0  0  0  0
  -19.9673  -15.7344   19.0832 C   0  0  0  0  0  0  0  0  0  0  0  0
  -20.7856  -13.4261   19.5573 C   0  0  0  0  0  0  0  0  0  0  0  0
  -20.2838  -16.4435   25.6822 C   0  0  0  0  0  0  0  0  0  0  0  0
  -19.8018  -29.1627   22.7186 C   0  0  0  0  0  0  0  0  0  0  0  0
  -19.4491  -28.3845   23.9736 C   0  0  0  0  0  0  0  0  0  0  0  0
  -26.6857  -21.6880   24.1398 C   0  0  0  0  0  0  0  0  0  1  0  0
  -26.0302  -23.0515   24.2427 C   0  0  0  0  0  0  0  0  0  0  0  0
  -19.7525  -26.3315   25.0764 C   0  0  0  0  0  0  0  0  0  0  0  0
  -20.4048  -24.9683   24.9492 C   0  0  0  0  0  0  0  0  0  0  0  0
  -23.9621  -24.1314   24.5248 C   0  0  0  0  0  0  0  0  0  0  0  0
  -22.4746  -23.8861   24.6900 C   0  0  0  0  0  0  0  0  0  0  0  0
  -21.5831  -15.3443   20.9984 C   0  0  1  0  0  0  0  0  0  0  0  0
  -18.9479  -15.7308   23.6958 C   0  0  2  0  0  0  0  0  0  0  0  0
  -21.1881  -14.9170   19.5566 C   0  0  0  0  0  0  0  0  0  0  0  0
  -26.2255  -28.1283   20.9010 N   0  0  0  0  0  0  0  0  0  0  0  0
  -25.6609  -29.1511   20.2367 N   0  0  0  0  0  0  0  0  0  0  0  0
  -23.9052  -15.3727   21.8532 N   0  0  0  0  0  0  0  0  0  0  0  0
  -23.2734  -30.4940   22.9023 N   0  0  0  0  0  0  0  0  0  0  0  0
  -25.4466  -30.1168   18.0844 N   0  0  0  0  0  0  0  0  0  0  0  0
  -28.0768  -26.5188   17.3547 N   0  0  0  0  0  0  0  0  0  0  0  0
  -27.1781  -14.0063   21.0061 N   0  0  0  0  0  0  0  0  0  0  0  0
  -20.5304  -15.1481   21.9892 N   0  0  0  0  0  0  0  0  0  0  0  0
  -21.2296  -29.3471   22.5840 N   0  0  0  0  0  0  0  0  0  0  0  0
  -18.9908  -16.5259   24.9555 N   0  3  0  0  0  0  0  0  0  0  0  0
  -27.0666  -28.3197   16.3573 O   0  0  0  0  0  0  0  0  0  0  0  0
  -25.5349  -15.2209   19.8894 O   0  0  0  0  0  0  0  0  0  0  0  0
  -22.7421  -13.3668   21.6090 O   0  0  0  0  0  0  0  0  0  0  0  0
  -20.4099  -17.3603   22.6737 O   0  0  0  0  0  0  0  0  0  0  0  0
  -21.2775  -31.3273   23.7388 O   0  0  0  0  0  0  0  0  0  0  0  0
  -29.7893  -22.8591   21.1900 O   0  0  0  0  0  0  0  0  0  0  0  0
  -26.1541  -20.9995   23.0085 O   0  0  0  0  0  0  0  0  0  1  0  0
  -20.0550  -27.1006   23.9186 O   0  0  0  0  0  0  0  0  0  0  0  0
  -24.6294  -22.8813   24.4219 O   0  0  0  0  0  0  0  0  0  0  0  0
  -21.8089  -25.1371   24.8135 O   0  0  0  0  0  0  0  0  0  0  0  0
  -29.2339  -18.4949   17.8659 F   0  0  0  0  0  0  0  0  0  0  0  0
  -30.4508  -23.0235   18.5108 F   0  0  0  0  0  0  0  0  0  0  0  0
  1  2  1  0  0  0  0
  1  5  2  0  0  0  0
  2  6  2  0  0  0  0
  3  8  2  0  0  0  0
  3 15  1  0  0  0  0
  4  9  1  0  0  0  0
  4 15  2  0  0  0  0
  5 17  1  0  0  0  0
  6 19  1  0  0  0  0
  7 10  2  0  0  0  0
  7 18  1  0  0  0  0
  8 21  1  0  0  0  0
  9 21  2  0  0  0  0
 10 22  1  0  0  0  0
 11 12  2  0  0  0  0
 11 23  1  0  0  0  0
 12 24  1  0  0  0  0
 13 20  1  0  0  0  0
 13 22  2  0  0  0  0
 14 24  2  0  0  0  0
 14 25  1  0  0  0  0
 15 26  1  0  0  0  0
 16 26  1  0  0  0  0
 16 27  2  0  0  0  0
 16 28  1  0  0  0  0
 17 19  2  0  0  0  0
 17 33  1  0  0  0  0
 18 20  2  0  0  0  0
 18 34  1  0  0  0  0
 19 42  1  0  0  0  0
 20 35  1  0  0  0  0
 21 76  1  0  0  0  0
 22 77  1  0  0  0  0
 23 25  2  0  0  0  0
 23 76  1  0  0  0  0
 24 81  1  0  0  0  0
 25 82  1  0  0  0  0
 26 61  2  0  0  0  0
 27 62  1  0  0  0  0
 27 65  1  0  0  0  0
 28 66  1  0  0  0  0
 28 71  2  0  0  0  0
 29 43  1  0  0  0  0
 29 67  1  0  0  0  0
 29 72  2  0  0  0  0
 30 58  1  0  0  0  0
 30 63  1  0  0  0  0
 30 73  2  0  0  0  0
 31 59  1  0  0  0  0
 31 68  1  0  0  0  0
 31 74  2  0  0  0  0
 32 64  1  0  0  0  0
 32 69  1  0  0  0  0
 32 75  2  0  0  0  0
 33 36  1  0  0  0  0
 34 43  1  0  0  0  0
 35 63  1  0  0  0  0
 36 38  1  0  0  0  0
 37 39  1  0  0  0  0
 37 40  1  0  0  0  0
 38 42  1  0  0  0  0
 39 44  1  0  0  0  0
 40 64  1  0  0  0  0
 41 44  1  0  0  0  0
 41 64  1  0  0  0  0
 42 67  1  0  0  0  0
 43 63  1  0  0  0  0
 44 62  1  0  0  0  0
 45 59  1  0  0  0  0
 46 60  1  0  0  0  0
 47 60  1  0  0  0  0
 48 60  1  0  0  0  0
 49 70  1  0  0  0  0
 50 51  1  0  0  0  0
 50 69  1  0  0  0  0
 51 78  1  0  0  0  0
 52 53  1  0  0  0  0
 52 77  1  0  0  0  0
 53 79  1  0  0  0  0
 54 55  1  0  0  0  0
 54 78  1  0  0  0  0
 55 80  1  0  0  0  0
 56 57  1  0  0  0  0
 56 79  1  0  0  0  0
 57 80  1  0  0  0  0
 58 60  1  0  0  0  0
 58 68  1  0  0  0  0
 59 70  1  0  0  0  0
 61 62  1  0  0  0  0
M  CHG  1  70   1
M  ISO  4  32 100  52 101  69 100  77 101
M  END
> <Batch ID>
0000

> <Smiles>
CNC(C)C(=O)NC(C(=O)N1Cc2cc([101O:1][101CH2:1]COCCOCCOCC[100NH:0][100C:0](=O)N3CCCC(n4nc(-c5ccc(Oc6ccc(F)cc6F)cc5)c(C(N)=O)c4N)C3)ccc2CC1C(=O)NC1CCCc2ccccc21)C(C)(C)C

> <Shape>
0.233

> <Color>
0.068

> <Negative vol penalty>
0.000

$$$$

  -OEChem-04052315133D

 79 86  0     1  0  0  0  0  0999 V2000
  -24.1488  -21.5364   17.0982 C   0  0  0  0  0  0  0  0  0  0  0  0
  -25.2246  -20.6811   16.8822 C   0  0  0  0  0  0  0  0  0  0  0  0
  -27.9659  -23.3978   17.2597 C   0  0  0  0  0  0  0  0  0  0  0  0
  -29.4539  -24.6259   18.7138 C   0  0  0  0  0  0  0  0  0  0  0  0
  -23.4472  -21.4819   18.3019 C   0  0  0  0  0  0  0  0  0  0  0  0
  -25.6000  -19.7715   17.8701 C   0  0  0  0  0  0  0  0  0  0  0  0
  -28.3657  -13.2105   18.6580 C   0  0  0  0  0  0  0  0  0  0  0  0
  -27.1215  -24.5056   17.1879 C   0  0  0  0  0  0  0  0  0  0  0  0
  -28.6095  -25.7339   18.6420 C   0  0  0  0  0  0  0  0  0  0  0  0
  -29.3989  -12.5497   19.3211 C   0  0  0  0  0  0  0  0  0  0  0  0
  -25.6958  -26.7397   20.0310 C   0  0  0  0  0  0  0  0  0  0  0  0
  -25.3996  -27.4069   21.2196 C   0  0  0  0  0  0  0  0  0  0  0  0
  -28.0640  -12.4905   21.3295 C   0  0  0  0  0  0  0  0  0  0  0  0
  -26.3659  -29.4320   20.3237 C   0  0  0  0  0  0  0  0  0  0  0  0
  -29.1321  -23.4578   18.0227 C   0  0  0  0  0  0  0  0  0  0  0  0
  -31.0851  -22.0112   17.2476 C   0  0  0  0  0  0  0  0  0  0  0  0
  -23.8082  -20.5645   19.3012 C   0  0  0  0  0  0  0  0  0  0  0  0
  -27.1762  -13.5265   19.3300 C   0  0  0  0  0  0  0  0  0  0  0  0
  -24.9034  -19.7056   19.0888 C   0  0  0  0  0  0  0  0  0  0  0  0
  -27.0163  -13.1531   20.6720 C   0  0  0  0  0  0  0  0  0  0  0  0
  -27.4433  -25.6737   17.8791 C   0  0  0  0  0  0  0  0  0  0  0  0
  -29.2493  -12.1921   20.6578 C   0  0  0  0  0  0  0  0  0  0  0  0
  -26.3271  -27.4186   18.9888 C   0  0  0  0  0  0  0  0  0  0  0  0
  -25.7346  -28.7530   21.3659 C   0  0  0  0  0  0  0  0  0  0  0  0
  -26.6621  -28.7648   19.1351 C   0  0  0  0  0  0  0  0  0  0  0  0
  -30.0044  -22.3135   18.0977 C   0  0  0  0  0  0  0  0  0  0  0  0
  -31.5855  -20.8289   17.7355 C   0  0  0  0  0  0  0  0  0  0  0  0
  -31.5913  -22.7346   16.1179 C   0  0  0  0  0  0  0  0  0  0  0  0
  -25.6635  -16.2239   20.0648 C   0  0  0  0  0  0  0  0  0  0  0  0
  -23.3609  -14.1909   21.1077 C   0  0  0  0  0  0  0  0  0  0  0  0
  -22.5428  -11.0812   22.2511 C   0  0  0  0  0  0  0  0  0  0  0  0
  -31.4488  -18.4269   23.1270 C   0  0  0  0  0  0  0  0  0  0  0  0
  -23.0495  -20.5751   20.6047 C   0  0  0  0  0  0  0  0  0  0  0  0
  -26.0608  -14.2159   18.5930 C   0  0  0  0  0  0  0  0  0  0  0  0
  -25.7510  -13.4512   21.4328 C   0  0  0  0  0  0  0  0  0  0  0  0
  -23.2764  -19.3255   21.4516 C   0  0  0  0  0  0  0  0  0  0  0  0
  -30.2441  -16.8806   20.0848 C   0  0  0  0  0  0  0  0  0  0  0  0
  -24.7628  -18.9900   21.5206 C   0  0  0  0  0  0  0  0  0  0  0  0
  -30.1510  -18.0857   19.1472 C   0  0  0  0  0  0  0  0  0  0  0  0
  -29.8381  -17.2542   21.5074 C   0  0  0  0  0  0  0  0  0  0  0  0
  -30.5135  -19.5977   21.1529 C   0  0  0  0  0  0  0  0  0  0  0  0
  -25.3256  -18.6882   20.1264 C   0  0  1  0  0  0  0  0  0  0  0  0
  -25.0931  -14.9450   19.5201 C   0  0  1  0  0  0  0  0  0  0  0  0
  -30.9328  -19.2904   19.7038 C   0  0  2  0  0  0  0  0  0  0  0  0
  -20.5878   -9.7300   23.0570 C   0  0  0  0  0  0  0  0  0  0  0  0
  -23.4523  -15.6580   23.7815 C   0  0  0  0  0  0  0  0  0  0  0  0
  -22.2294  -13.7271   24.8035 C   0  0  0  0  0  0  0  0  0  0  0  0
  -21.1535  -15.0660   22.9944 C   0  0  0  0  0  0  0  0  0  0  0  0
  -22.8469   -9.1181   20.0574 C   0  0  0  0  0  0  0  0  0  0  0  0
  -32.3027  -17.1272   25.0605 C   0  0  0  0  0  0  0  0  0  0  0  0
  -32.1882  -15.7446   25.6773 C   0  0  0  0  0  0  0  0  0  0  0  0
  -31.5886  -11.8245   20.8775 C   0  0  0  0  0  0  0  0  0  1  0  0
  -32.5314  -11.6696   22.0552 C   0  0  0  0  0  0  0  0  0  0  0  0
  -32.5348  -13.4559   25.2720 C   0  0  0  0  0  0  0  0  0  0  0  0
  -32.9891  -12.4631   24.2193 C   0  0  0  0  0  0  0  0  0  0  0  0
  -23.0548  -13.5030   22.4161 C   0  0  1  0  0  0  0  0  0  0  0  0
  -21.4344  -10.1222   21.8561 C   0  0  2  0  0  0  0  0  0  0  0  0
  -22.4972  -14.4845   23.4854 C   0  0  0  0  0  0  0  0  0  0  0  0
  -29.8279  -21.3970   19.0531 N   0  0  0  0  0  0  0  0  0  0  0  0
  -30.8043  -20.5072   18.8063 N   0  0  0  0  0  0  0  0  0  0  0  0
  -24.6917  -14.1324   20.6703 N   0  0  0  0  0  0  0  0  0  0  0  0
  -30.6323  -18.3952   21.9843 N   0  0  0  0  0  0  0  0  0  0  0  0
  -32.6130  -20.0433   17.3488 N   0  0  0  0  0  0  0  0  0  0  0  0
  -30.9593  -23.9311   15.7528 N   0  0  0  0  0  0  0  0  0  0  0  0
  -24.9522  -17.3538   19.7087 N   0  0  0  0  0  0  0  0  0  0  0  0
  -22.1594  -12.3966   22.0959 N   0  0  0  0  0  0  0  0  0  0  0  0
  -31.5012  -17.2497   23.8632 N   0  0  0  0  0  0  0  0  0  0  0  0
  -22.0095   -8.8825   21.2616 N   0  3  0  0  0  0  0  0  0  0  0  0
  -32.5648  -22.3234   15.4420 O   0  0  0  0  0  0  0  0  0  0  0  0
  -26.6733  -16.1880   20.7581 O   0  0  0  0  0  0  0  0  0  0  0  0
  -22.4513  -14.7531   20.4927 O   0  0  0  0  0  0  0  0  0  0  0  0
  -23.6378  -10.7016   22.6602 O   0  0  0  0  0  0  0  0  0  0  0  0
  -32.0886  -19.4291   23.4636 O   0  0  0  0  0  0  0  0  0  0  0  0
  -26.6198  -26.7551   17.8091 O   0  0  0  0  0  0  0  0  0  0  0  0
  -30.2564  -11.5476   21.3076 O   0  0  0  0  0  0  0  0  0  1  0  0
  -32.6238  -14.7714   24.7383 O   0  0  0  0  0  0  0  0  0  0  0  0
  -32.1372  -12.5659   23.0870 O   0  0  0  0  0  0  0  0  0  0  0  0
  -25.4487  -29.3940   22.5068 F   0  0  0  0  0  0  0  0  0  0  0  0
  -27.2676  -29.4226   18.1369 F   0  0  0  0  0  0  0  0  0  0  0  0
  1  2  1  0  0  0  0
  1  5  2  0  0  0  0
  2  6  2  0  0  0  0
  3  8  2  0  0  0  0
  3 15  1  0  0  0  0
  4  9  1  0  0  0  0
  4 15  2  0  0  0  0
  5 17  1  0  0  0  0
  6 19  1  0  0  0  0
  7 10  2  0  0  0  0
  7 18  1  0  0  0  0
  8 21  1  0  0  0  0
  9 21  2  0  0  0  0
 10 22  1  0  0  0  0
 11 12  2  0  0  0  0
 11 23  1  0  0  0  0
 12 24  1  0  0  0  0
 13 20  1  0  0  0  0
 13 22  2  0  0  0  0
 14 24  2  0  0  0  0
 14 25  1  0  0  0  0
 15 26  1  0  0  0  0
 16 26  1  0  0  0  0
 16 27  2  0  0  0  0
 16 28  1  0  0  0  0
 17 19  2  0  0  0  0
 17 33  1  0  0  0  0
 18 20  2  0  0  0  0
 18 34  1  0  0  0  0
 19 42  1  0  0  0  0
 20 35  1  0  0  0  0
 21 74  1  0  0  0  0
 22 75  1  0  0  0  0
 23 25  2  0  0  0  0
 23 74  1  0  0  0  0
 24 78  1  0  0  0  0
 25 79  1  0  0  0  0
 26 59  2  0  0  0  0
 27 60  1  0  0  0  0
 27 63  1  0  0  0  0
 28 64  1  0  0  0  0
 28 69  2  0  0  0  0
 29 43  1  0  0  0  0
 29 65  1  0  0  0  0
 29 70  2  0  0  0  0
 30 56  1  0  0  0  0
 30 61  1  0  0  0  0
 30 71  2  0  0  0  0
 31 57  1  0  0  0  0
 31 66  1  0  0  0  0
 31 72  2  0  0  0  0
 32 62  1  0  0  0  0
 32 67  1  0  0  0  0
 32 73  2  0  0  0  0
 33 36  1  0  0  0  0
 34 43  1  0  0  0  0
 35 61  1  0  0  0  0
 36 38  1  0  0  0  0
 37 39  1  0  0  0  0
 37 40  1  0  0  0  0
 38 42  1  0  0  0  0
 39 44  1  0  0  0  0
 40 62  1  0  0  0  0
 41 44  1  0  0  0  0
 41 62  1  0  0  0  0
 42 65  1  0  0  0  0
 43 61  1  0  0  0  0
 44 60  1  0  0  0  0
 45 57  1  0  0  0  0
 46 58  1  0  0  0  0
 47 58  1  0  0  0  0
 48 58  1  0  0  0  0
 49 68  1  0  0  0  0
 50 51  1  0  0  0  0
 50 67  1  0  0  0  0
 51 76  1  0  0  0  0
 52 53  1  0  0  0  0
 52 75  1  0  0  0  0
 53 77  1  0  0  0  0
 54 55  1  0  0  0  0
 54 76  1  0  0  0  0
 55 77  1  0  0  0  0
 56 58  1  0  0  0  0
 56 66  1  0  0  0  0
 57 68  1  0  0  0  0
 59 60  1  0  0  0  0
M  CHG  1  68   1
M  ISO  4  32 100  52 101  67 100  75 101
M  END
> <Batch ID>
0000

> <Smiles>
CNC(C)C(=O)NC(C(=O)N1Cc2cc([101O:1][101CH2:1]COCCOCC[100NH:0][100C:0](=O)N3CCCC(n4nc(-c5ccc(Oc6ccc(F)cc6F)cc5)c(C(N)=O)c4N)C3)ccc2CC1C(=O)NC1CCCc2ccccc21)C(C)(C)C

> <Shape>
0.193

> <Color>
0.068

> <Negative vol penalty>
0.000

$$$$

  -OEChem-04052315133D

 83 91  0     1  0  0  0  0  0999 V2000
  -26.1730  -35.5486   13.8498 C   0  0  0  0  0  0  0  0  0  0  0  0
  -26.0560  -34.2008   14.1741 C   0  0  0  0  0  0  0  0  0  0  0  0
  -23.0944   -9.8553   19.9022 C   0  0  0  0  0  0  0  0  0  0  0  0
  -23.8511   -9.8168   22.1963 C   0  0  0  0  0  0  0  0  0  0  0  0
  -26.9704  -36.3853   14.6295 C   0  0  0  0  0  0  0  0  0  0  0  0
  -26.7372  -33.6887   15.2778 C   0  0  0  0  0  0  0  0  0  0  0  0
  -24.8296  -29.2580   19.0508 C   0  0  0  0  0  0  0  0  0  0  0  0
  -27.2521  -23.3580   18.9029 C   0  0  0  0  0  0  0  0  0  0  0  0
  -25.2295  -22.9530   20.1606 C   0  0  0  0  0  0  0  0  0  0  0  0
  -22.3717   -8.6825   20.1209 C   0  0  0  0  0  0  0  0  0  0  0  0
  -23.1284   -8.6440   22.4150 C   0  0  0  0  0  0  0  0  0  0  0  0
  -25.1099  -27.8937   19.1128 C   0  0  0  0  0  0  0  0  0  0  0  0
  -27.6507  -22.0389   19.1189 C   0  0  0  0  0  0  0  0  0  0  0  0
  -25.6280  -21.6338   20.3766 C   0  0  0  0  0  0  0  0  0  0  0  0
  -23.4817   -5.3436   21.7723 C   0  0  0  0  0  0  0  0  0  0  0  0
  -24.1152   -4.3115   22.4645 C   0  0  0  0  0  0  0  0  0  0  0  0
  -26.8083  -28.3240   20.7709 C   0  0  0  0  0  0  0  0  0  0  0  0
  -22.4087   -4.4093   24.1720 C   0  0  0  0  0  0  0  0  0  0  0  0
  -23.8342  -10.4225   20.9399 C   0  0  0  0  0  0  0  0  0  0  0  0
  -24.1292  -12.9558   20.8860 C   0  0  0  0  0  0  0  0  0  0  0  0
  -27.6540  -35.8853   15.7489 C   0  0  0  0  0  0  0  0  0  0  0  0
  -25.5454  -30.1683   19.8417 C   0  0  0  0  0  0  0  0  0  0  0  0
  -27.5456  -34.5193   16.0724 C   0  0  0  0  0  0  0  0  0  0  0  0
  -26.5335  -29.6991   20.7189 C   0  0  0  0  0  0  0  0  0  0  0  0
  -26.0415  -23.8151   19.4238 C   0  0  0  0  0  0  0  0  0  0  0  0
  -22.3887   -8.0768   21.3773 C   0  0  0  0  0  0  0  0  0  0  0  0
  -26.8386  -21.1768   19.8557 C   0  0  0  0  0  0  0  0  0  0  0  0
  -26.1013  -27.4268   19.9708 C   0  0  0  0  0  0  0  0  0  0  0  0
  -22.3117   -5.9085   22.2799 C   0  0  0  0  0  0  0  0  0  0  0  0
  -23.5787   -3.8444   23.6643 C   0  0  0  0  0  0  0  0  0  0  0  0
  -21.7752   -5.4414   23.4797 C   0  0  0  0  0  0  0  0  0  0  0  0
  -24.5813  -11.6337   20.7145 C   0  0  0  0  0  0  0  0  0  0  0  0
  -25.2077  -13.7345   20.5442 C   0  0  0  0  0  0  0  0  0  0  0  0
  -22.8488  -13.4369   21.3159 C   0  0  0  0  0  0  0  0  0  0  0  0
  -27.4657  -32.6305   19.2471 C   0  0  0  0  0  0  0  0  0  0  0  0
  -27.3416  -33.0036   22.4670 C   0  0  0  0  0  0  0  0  0  0  0  0
  -26.8137  -31.5919   25.5290 C   0  0  0  0  0  0  0  0  0  0  0  0
  -30.6714  -14.8497   20.7684 C   0  0  0  0  0  0  0  0  0  0  0  0
  -28.5417  -36.8183   16.5339 C   0  0  0  0  0  0  0  0  0  0  0  0
  -25.2127  -31.6340   19.7828 C   0  0  0  0  0  0  0  0  0  0  0  0
  -27.3166  -30.6330   21.6038 C   0  0  0  0  0  0  0  0  0  0  0  0
  -28.9325  -36.2764   17.9064 C   0  0  0  0  0  0  0  0  0  0  0  0
  -29.5812  -12.5073   18.3187 C   0  0  0  0  0  0  0  0  0  0  0  0
  -29.3828  -34.8230   17.7981 C   0  0  0  0  0  0  0  0  0  0  0  0
  -28.1489  -12.1759   18.7413 C   0  0  0  0  0  0  0  0  0  0  0  0
  -30.4926  -12.7138   19.5265 C   0  0  0  0  0  0  0  0  0  0  0  0
  -28.5759  -13.3733   20.9282 C   0  0  0  0  0  0  0  0  0  0  0  0
  -28.2493  -33.9317   17.2764 C   0  0  1  0  0  0  0  0  0  0  0  0
  -26.3566  -32.5258   20.2555 C   0  0  1  0  0  0  0  0  0  0  0  0
  -27.6066  -13.2114   19.7448 C   0  0  2  0  0  0  0  0  0  0  0  0
  -26.8208  -32.1391   27.9780 C   0  0  0  0  0  0  0  0  0  0  0  0
  -30.3927  -32.9720   22.4627 C   0  0  0  0  0  0  0  0  0  0  0  0
  -30.3226  -32.5640   24.9319 C   0  0  0  0  0  0  0  0  0  0  0  0
  -29.3692  -34.6677   23.9895 C   0  0  0  0  0  0  0  0  0  0  0  0
  -23.9496  -30.9014   25.8101 C   0  0  0  0  0  0  0  0  0  0  0  0
  -25.6124  -25.2339   19.1910 C   0  0  0  0  0  0  0  0  0  1  0  0
  -30.3968  -18.1417   21.1330 C   0  0  0  0  0  0  0  0  0  0  0  0
  -28.9003  -18.4360   21.0243 C   0  0  0  0  0  0  0  0  0  0  0  0
  -30.6957  -16.9683   22.0608 C   0  0  0  0  0  0  0  0  0  0  0  0
  -28.6299  -19.6359   20.1253 C   0  0  0  0  0  0  0  0  0  0  0  0
  -28.1447  -32.4844   23.6352 C   0  0  1  0  0  0  0  0  0  0  0  0
  -25.9795  -32.0413   26.7150 C   0  0  2  0  0  0  0  0  0  0  0  0
  -29.5440  -33.1543   23.7369 C   0  0  0  0  0  0  0  0  0  0  0  0
  -25.8483  -11.5722   20.2961 N   0  0  0  0  0  0  0  0  0  0  0  0
  -26.2015  -12.8654   20.2017 N   0  0  0  0  0  0  0  0  0  0  0  0
  -26.9588  -32.0577   21.5055 N   0  0  0  0  0  0  0  0  0  0  0  0
  -29.9219  -13.7086   20.4379 N   0  0  0  0  0  0  0  0  0  0  0  0
  -25.3935  -15.0711   20.5061 N   0  0  0  0  0  0  0  0  0  0  0  0
  -21.8535  -12.5007   21.6277 N   0  0  0  0  0  0  0  0  0  0  0  0
  -27.2994  -33.6524   18.3320 N   0  0  0  0  0  0  0  0  0  0  0  0
  -27.3088  -32.6641   24.8173 N   0  0  0  0  0  0  0  0  0  0  0  0
  -30.0540  -15.7451   21.6332 N   0  0  0  0  0  0  0  0  0  0  0  0
  -24.8700  -31.0776   26.9628 N   0  3  0  0  0  0  0  0  0  0  0  0
  -22.5897  -14.6611   21.4047 O   0  0  0  0  0  0  0  0  0  0  0  0
  -28.4037  -31.8434   19.2967 O   0  0  0  0  0  0  0  0  0  0  0  0
  -27.0581  -34.2029   22.4135 O   0  0  0  0  0  0  0  0  0  0  0  0
  -27.0098  -30.4082   25.2628 O   0  0  0  0  0  0  0  0  0  0  0  0
  -31.8044  -15.0579   20.3215 O   0  0  0  0  0  0  0  0  0  0  0  0
  -21.6835   -6.9325   21.5911 O   0  0  0  0  0  0  0  0  0  0  0  0
  -26.3773  -26.0957   20.0328 O   0  0  0  0  0  0  0  0  0  1  0  0
  -27.2271  -19.8893   20.0653 O   0  0  0  0  0  0  0  0  0  0  0  0
  -24.1863   -2.8523   24.3281 F   0  0  0  0  0  0  0  0  0  0  0  0
  -20.6508   -5.9794   23.9718 F   0  0  0  0  0  0  0  0  0  0  0  0
  1  2  1  0  0  0  0
  1  5  2  0  0  0  0
  2  6  2  0  0  0  0
  3 10  2  0  0  0  0
  3 19  1  0  0  0  0
  4 11  1  0  0  0  0
  4 19  2  0  0  0  0
  5 21  1  0  0  0  0
  6 23  1  0  0  0  0
  7 12  2  0  0  0  0
  7 22  1  0  0  0  0
  8 13  2  0  0  0  0
  8 25  1  0  0  0  0
  9 14  1  0  0  0  0
  9 25  2  0  0  0  0
 10 26  1  0  0  0  0
 11 26  2  0  0  0  0
 12 28  1  0  0  0  0
 13 27  1  0  0  0  0
 14 27  2  0  0  0  0
 15 16  2  0  0  0  0
 15 29  1  0  0  0  0
 16 30  1  0  0  0  0
 17 24  1  0  0  0  0
 17 28  2  0  0  0  0
 18 30  2  0  0  0  0
 18 31  1  0  0  0  0
 19 32  1  0  0  0  0
 20 32  1  0  0  0  0
 20 33  2  0  0  0  0
 20 34  1  0  0  0  0
 21 23  2  0  0  0  0
 21 39  1  0  0  0  0
 22 24  2  0  0  0  0
 22 40  1  0  0  0  0
 23 48  1  0  0  0  0
 24 41  1  0  0  0  0
 25 56  1  0  0  0  0
 26 79  1  0  0  0  0
 27 81  1  0  0  0  0
 28 80  1  0  0  0  0
 29 31  2  0  0  0  0
 29 79  1  0  0  0  0
 30 82  1  0  0  0  0
 31 83  1  0  0  0  0
 32 64  2  0  0  0  0
 33 65  1  0  0  0  0
 33 68  1  0  0  0  0
 34 69  1  0  0  0  0
 34 74  2  0  0  0  0
 35 49  1  0  0  0  0
 35 70  1  0  0  0  0
 35 75  2  0  0  0  0
 36 61  1  0  0  0  0
 36 66  1  0  0  0  0
 36 76  2  0  0  0  0
 37 62  1  0  0  0  0
 37 71  1  0  0  0  0
 37 77  2  0  0  0  0
 38 67  1  0  0  0  0
 38 72  1  0  0  0  0
 38 78  2  0  0  0  0
 39 42  1  0  0  0  0
 40 49  1  0  0  0  0
 41 66  1  0  0  0  0
 42 44  1  0  0  0  0
 43 45  1  0  0  0  0
 43 46  1  0  0  0  0
 44 48  1  0  0  0  0
 45 50  1  0  0  0  0
 46 67  1  0  0  0  0
 47 50  1  0  0  0  0
 47 67  1  0  0  0  0
 48 70  1  0  0  0  0
 49 66  1  0  0  0  0
 50 65  1  0  0  0  0
 51 62  1  0  0  0  0
 52 63  1  0  0  0  0
 53 63  1  0  0  0  0
 54 63  1  0  0  0  0
 55 73  1  0  0  0  0
 56 80  1  0  0  0  0
 57 58  1  0  0  0  0
 57 59  1  0  0  0  0
 58 60  1  0  0  0  0
 59 72  1  0  0  0  0
 60 81  1  0  0  0  0
 61 63  1  0  0  0  0
 61 71  1  0  0  0  0
 62 73  1  0  0  0  0
 64 65  1  0  0  0  0
M  CHG  1  73   1
M  ISO  4  38 100  56 101  72 100  80 101
M  END
> <Batch ID>
0000

> <Smiles>
CNC(C)C(=O)NC(C(=O)N1Cc2cc([101O:1][101CH2:1]c3ccc(OCCCC[100NH:0][100C:0](=O)N4CCCC(n5nc(-c6ccc(Oc7ccc(F)cc7F)cc6)c(C(N)=O)c5N)C4)cc3)ccc2CC1C(=O)NC1CCCc2ccccc21)C(C)(C)C

> <Shape>
0.319

> <Color>
0.228

> <Negative vol penalty>
0.000

$$$$

  -OEChem-04052315133D

 81 89  0     1  0  0  0  0  0999 V2000
  -25.9048   -6.9630   23.0526 C   0  0  0  0  0  0  0  0  0  0  0  0
  -26.6941   -8.0531   22.7004 C   0  0  0  0  0  0  0  0  0  0  0  0
  -21.4994  -30.1621   20.9884 C   0  0  0  0  0  0  0  0  0  0  0  0
  -22.5050  -28.9466   22.8183 C   0  0  0  0  0  0  0  0  0  0  0  0
  -24.5699   -6.9124   22.6532 C   0  0  0  0  0  0  0  0  0  0  0  0
  -26.1492   -9.0928   21.9477 C   0  0  0  0  0  0  0  0  0  0  0  0
  -27.5101  -15.0490   22.3698 C   0  0  0  0  0  0  0  0  0  0  0  0
  -30.7400  -23.4308   19.6692 C   0  0  0  0  0  0  0  0  0  0  0  0
  -28.8009  -23.7377   21.0772 C   0  0  0  0  0  0  0  0  0  0  0  0
  -20.2388  -29.7155   21.3846 C   0  0  0  0  0  0  0  0  0  0  0  0
  -21.2443  -28.5001   23.2145 C   0  0  0  0  0  0  0  0  0  0  0  0
  -28.3530  -15.8735   21.6259 C   0  0  0  0  0  0  0  0  0  0  0  0
  -30.4441  -22.0723   19.5577 C   0  0  0  0  0  0  0  0  0  0  0  0
  -28.5049  -22.3792   20.9657 C   0  0  0  0  0  0  0  0  0  0  0  0
  -19.0299  -26.1280   22.2655 C   0  0  0  0  0  0  0  0  0  0  0  0
  -18.8943  -24.7797   22.5960 C   0  0  0  0  0  0  0  0  0  0  0  0
  -26.4719  -16.5840   20.2933 C   0  0  0  0  0  0  0  0  0  0  0  0
  -18.1925  -25.3963   24.8241 C   0  0  0  0  0  0  0  0  0  0  0  0
  -22.6326  -29.7776   21.7053 C   0  0  0  0  0  0  0  0  0  0  0  0
  -24.5922  -31.4108   21.7144 C   0  0  0  0  0  0  0  0  0  0  0  0
  -24.0058   -7.9565   21.9035 C   0  0  0  0  0  0  0  0  0  0  0  0
  -26.1413  -14.9773   22.0735 C   0  0  0  0  0  0  0  0  0  0  0  0
  -24.8059   -9.0555   21.5368 C   0  0  0  0  0  0  0  0  0  0  0  0
  -25.6133  -15.7597   21.0365 C   0  0  0  0  0  0  0  0  0  0  0  0
  -29.9184  -24.2635   20.4290 C   0  0  0  0  0  0  0  0  0  0  0  0
  -20.1112  -28.8845   22.4976 C   0  0  0  0  0  0  0  0  0  0  0  0
  -29.3265  -21.5465   20.2060 C   0  0  0  0  0  0  0  0  0  0  0  0
  -27.8345  -16.6390   20.5856 C   0  0  0  0  0  0  0  0  0  0  0  0
  -18.7468  -27.1106   23.2144 C   0  0  0  0  0  0  0  0  0  0  0  0
  -18.4756  -24.4138   23.8752 C   0  0  0  0  0  0  0  0  0  0  0  0
  -18.3281  -26.7447   24.4936 C   0  0  0  0  0  0  0  0  0  0  0  0
  -23.9351  -30.2381   21.2962 C   0  0  0  0  0  0  0  0  0  0  0  0
  -25.7906  -31.3907   21.0436 C   0  0  0  0  0  0  0  0  0  0  0  0
  -24.1581  -32.4274   22.6275 C   0  0  0  0  0  0  0  0  0  0  0  0
  -24.1692  -12.6719   21.1253 C   0  0  0  0  0  0  0  0  0  0  0  0
  -21.9108  -14.9587   21.5638 C   0  0  0  0  0  0  0  0  0  0  0  0
  -21.1458  -18.2803   21.7335 C   0  0  0  0  0  0  0  0  0  0  0  0
  -29.0951  -26.9655   18.7310 C   0  0  0  0  0  0  0  0  0  0  0  0
  -22.5711   -7.8350   21.4545 C   0  0  0  0  0  0  0  0  0  0  0  0
  -25.2408  -14.1033   22.9026 C   0  0  0  0  0  0  0  0  0  0  0  0
  -24.1475  -15.7341   20.6913 C   0  0  0  0  0  0  0  0  0  0  0  0
  -21.9682   -9.1540   20.9779 C   0  0  0  0  0  0  0  0  0  0  0  0
  -27.7936  -29.7933   17.0029 C   0  0  0  0  0  0  0  0  0  0  0  0
  -22.9289   -9.8697   20.0337 C   0  0  0  0  0  0  0  0  0  0  0  0
  -26.7164  -30.3338   17.9450 C   0  0  0  0  0  0  0  0  0  0  0  0
  -27.8524  -28.2676   17.0291 C   0  0  0  0  0  0  0  0  0  0  0  0
  -26.9294  -28.2171   19.3137 C   0  0  0  0  0  0  0  0  0  0  0  0
  -24.2444  -10.2145   20.7422 C   0  0  1  0  0  0  0  0  0  0  0  0
  -23.9526  -13.7183   22.1816 C   0  0  1  0  0  0  0  0  0  0  0  0
  -26.8698  -29.7534   19.3638 C   0  0  2  0  0  0  0  0  0  0  0  0
  -19.2093  -19.8413   22.0662 C   0  0  0  0  0  0  0  0  0  0  0  0
  -20.9858  -14.4161   18.7072 C   0  0  0  0  0  0  0  0  0  0  0  0
  -19.7392  -16.5864   18.7728 C   0  0  0  0  0  0  0  0  0  0  0  0
  -19.1362  -14.7554   20.3560 C   0  0  0  0  0  0  0  0  0  0  0  0
  -22.3510  -19.4410   24.1746 C   0  0  0  0  0  0  0  0  0  0  0  0
  -30.2343  -25.7161   20.5477 C   0  0  0  0  0  0  0  0  0  0  0  0
  -30.1360  -19.3292   19.9153 C   0  0  0  0  0  0  0  0  0  0  0  0
  -29.7955  -17.9830   20.5249 C   0  0  0  0  0  0  0  0  0  1  0  0
  -21.2924  -16.0303   20.6988 C   0  0  1  0  0  0  0  0  0  0  0  0
  -20.3379  -19.0777   22.7414 C   0  0  2  0  0  0  0  0  0  0  0  0
  -20.3164  -15.4463   19.6387 C   0  0  0  0  0  0  0  0  0  0  0  0
  -24.6562  -29.5250   20.4270 N   0  0  0  0  0  0  0  0  0  0  0  0
  -25.7788  -30.2518   20.2934 N   0  0  0  0  0  0  0  0  0  0  0  0
  -23.3088  -14.8590   21.5269 N   0  0  0  0  0  0  0  0  0  0  0  0
  -27.9999  -27.7815   18.4031 N   0  0  0  0  0  0  0  0  0  0  0  0
  -26.8427  -32.2365   21.0281 N   0  0  0  0  0  0  0  0  0  0  0  0
  -22.8992  -32.2923   23.2286 N   0  0  0  0  0  0  0  0  0  0  0  0
  -24.0725  -11.3743   21.5906 N   0  0  0  0  0  0  0  0  0  0  0  0
  -20.6790  -16.9886   21.6120 N   0  0  0  0  0  0  0  0  0  0  0  0
  -29.1630  -26.5538   20.0564 N   0  0  0  0  0  0  0  0  0  0  0  0
  -21.2117  -20.0572   23.4471 N   0  3  0  0  0  0  0  0  0  0  0  0
  -24.8587  -33.4343   22.8898 O   0  0  0  0  0  0  0  0  0  0  0  0
  -24.4049  -13.0161   19.9731 O   0  0  0  0  0  0  0  0  0  0  0  0
  -21.1808  -14.2414   22.2524 O   0  0  0  0  0  0  0  0  0  0  0  0
  -22.0937  -18.7568   21.1130 O   0  0  0  0  0  0  0  0  0  0  0  0
  -29.9521  -26.6332   17.9051 O   0  0  0  0  0  0  0  0  0  0  0  0
  -18.8812  -28.4488   22.8846 O   0  0  0  0  0  0  0  0  0  0  0  0
  -29.0353  -20.2123   20.0953 O   0  0  0  0  0  0  0  0  0  0  0  0
  -28.6551  -17.4442   19.8575 O   0  0  0  0  0  0  0  0  0  1  0  0
  -18.3439  -23.1190   24.1919 F   0  0  0  0  0  0  0  0  0  0  0  0
  -18.0536  -27.6841   25.4090 F   0  0  0  0  0  0  0  0  0  0  0  0
  1  2  1  0  0  0  0
  1  5  2  0  0  0  0
  2  6  2  0  0  0  0
  3 10  2  0  0  0  0
  3 19  1  0  0  0  0
  4 11  1  0  0  0  0
  4 19  2  0  0  0  0
  5 21  1  0  0  0  0
  6 23  1  0  0  0  0
  7 12  2  0  0  0  0
  7 22  1  0  0  0  0
  8 13  2  0  0  0  0
  8 25  1  0  0  0  0
  9 14  1  0  0  0  0
  9 25  2  0  0  0  0
 10 26  1  0  0  0  0
 11 26  2  0  0  0  0
 12 28  1  0  0  0  0
 13 27  1  0  0  0  0
 14 27  2  0  0  0  0
 15 16  2  0  0  0  0
 15 29  1  0  0  0  0
 16 30  1  0  0  0  0
 17 24  1  0  0  0  0
 17 28  2  0  0  0  0
 18 30  2  0  0  0  0
 18 31  1  0  0  0  0
 19 32  1  0  0  0  0
 20 32  1  0  0  0  0
 20 33  2  0  0  0  0
 20 34  1  0  0  0  0
 21 23  2  0  0  0  0
 21 39  1  0  0  0  0
 22 24  2  0  0  0  0
 22 40  1  0  0  0  0
 23 48  1  0  0  0  0
 24 41  1  0  0  0  0
 25 56  1  0  0  0  0
 26 77  1  0  0  0  0
 27 78  1  0  0  0  0
 28 79  1  0  0  0  0
 29 31  2  0  0  0  0
 29 77  1  0  0  0  0
 30 80  1  0  0  0  0
 31 81  1  0  0  0  0
 32 62  2  0  0  0  0
 33 63  1  0  0  0  0
 33 66  1  0  0  0  0
 34 67  1  0  0  0  0
 34 72  2  0  0  0  0
 35 49  1  0  0  0  0
 35 68  1  0  0  0  0
 35 73  2  0  0  0  0
 36 59  1  0  0  0  0
 36 64  1  0  0  0  0
 36 74  2  0  0  0  0
 37 60  1  0  0  0  0
 37 69  1  0  0  0  0
 37 75  2  0  0  0  0
 38 65  1  0  0  0  0
 38 70  1  0  0  0  0
 38 76  2  0  0  0  0
 39 42  1  0  0  0  0
 40 49  1  0  0  0  0
 41 64  1  0  0  0  0
 42 44  1  0  0  0  0
 43 45  1  0  0  0  0
 43 46  1  0  0  0  0
 44 48  1  0  0  0  0
 45 50  1  0  0  0  0
 46 65  1  0  0  0  0
 47 50  1  0  0  0  0
 47 65  1  0  0  0  0
 48 68  1  0  0  0  0
 49 64  1  0  0  0  0
 50 63  1  0  0  0  0
 51 60  1  0  0  0  0
 52 61  1  0  0  0  0
 53 61  1  0  0  0  0
 54 61  1  0  0  0  0
 55 71  1  0  0  0  0
 56 70  1  0  0  0  0
 57 58  1  0  0  0  0
 57 78  1  0  0  0  0
 58 79  1  0  0  0  0
 59 61  1  0  0  0  0
 59 69  1  0  0  0  0
 60 71  1  0  0  0  0
 62 63  1  0  0  0  0
M  CHG  1  71   1
M  ISO  4  38 100  58 101  70 100  79 101
M  END
> <Batch ID>
0000

> <Smiles>
CNC(C)C(=O)NC(C(=O)N1Cc2cc([101O:1][101CH2:1]COc3ccc(C[100NH:0][100C:0](=O)N4CCCC(n5nc(-c6ccc(Oc7ccc(F)cc7F)cc6)c(C(N)=O)c5N)C4)cc3)ccc2CC1C(=O)NC1CCCc2ccccc21)C(C)(C)C

> <Shape>
0.269

> <Color>
0.051

> <Negative vol penalty>
0.000

$$$$

  -OEChem-04052315133D

 82 90  0     1  0  0  0  0  0999 V2000
  -23.5506  -23.7403   17.5408 C   0  0  0  0  0  0  0  0  0  0  0  0
  -24.6317  -23.0671   18.1007 C   0  0  0  0  0  0  0  0  0  0  0  0
  -34.5520  -16.9126   20.6017 C   0  0  0  0  0  0  0  0  0  0  0  0
  -25.3021  -26.7486   20.4620 C   0  0  0  0  0  0  0  0  0  0  0  0
  -27.3819  -27.9647   20.2809 C   0  0  0  0  0  0  0  0  0  0  0  0
  -22.2494  -23.3599   17.8665 C   0  0  0  0  0  0  0  0  0  0  0  0
  -24.4121  -22.0137   18.9876 C   0  0  0  0  0  0  0  0  0  0  0  0
  -27.3742  -18.0192   18.0309 C   0  0  0  0  0  0  0  0  0  0  0  0
  -33.2796  -16.9724   20.0334 C   0  0  0  0  0  0  0  0  0  0  0  0
  -35.2006  -18.0866   20.9850 C   0  0  0  0  0  0  0  0  0  0  0  0
  -24.6291  -27.9399   20.7328 C   0  0  0  0  0  0  0  0  0  0  0  0
  -26.7088  -29.1561   20.5516 C   0  0  0  0  0  0  0  0  0  0  0  0
  -28.6995  -18.0926   18.4574 C   0  0  0  0  0  0  0  0  0  0  0  0
  -25.4842  -30.7655   23.2610 C   0  0  0  0  0  0  0  0  0  0  0  0
  -26.0637  -31.6435   24.1769 C   0  0  0  0  0  0  0  0  0  0  0  0
  -28.1466  -16.7535   20.3862 C   0  0  0  0  0  0  0  0  0  0  0  0
  -33.3044  -19.3802   20.2314 C   0  0  0  0  0  0  0  0  0  0  0  0
  -26.1786  -33.3488   22.4692 C   0  0  0  0  0  0  0  0  0  0  0  0
  -26.6786  -26.7610   20.2361 C   0  0  0  0  0  0  0  0  0  0  0  0
  -27.6037  -24.9510   18.6947 C   0  0  0  0  0  0  0  0  0  0  0  0
  -22.0138  -22.2950   18.7504 C   0  0  0  0  0  0  0  0  0  0  0  0
  -26.4212  -17.3204   18.7857 C   0  0  0  0  0  0  0  0  0  0  0  0
  -23.1066  -21.6195   19.3265 C   0  0  0  0  0  0  0  0  0  0  0  0
  -26.8104  -16.6706   19.9657 C   0  0  0  0  0  0  0  0  0  0  0  0
  -32.6558  -18.2062   19.8482 C   0  0  0  0  0  0  0  0  0  0  0  0
  -34.5768  -19.3203   20.7997 C   0  0  0  0  0  0  0  0  0  0  0  0
  -25.3324  -29.1436   20.7775 C   0  0  0  0  0  0  0  0  0  0  0  0
  -29.0853  -17.4622   19.6367 C   0  0  0  0  0  0  0  0  0  0  0  0
  -25.2520  -31.1790   21.9492 C   0  0  0  0  0  0  0  0  0  0  0  0
  -26.4109  -32.9352   23.7810 C   0  0  0  0  0  0  0  0  0  0  0  0
  -25.5991  -32.4707   21.5534 C   0  0  0  0  0  0  0  0  0  0  0  0
  -27.3745  -25.5306   19.9570 C   0  0  0  0  0  0  0  0  0  0  0  0
  -28.3015  -23.7998   18.9670 C   0  0  0  0  0  0  0  0  0  0  0  0
  -27.2201  -25.4122   17.3924 C   0  0  0  0  0  0  0  0  0  0  0  0
  -23.7359  -18.1091   20.2928 C   0  0  0  0  0  0  0  0  0  0  0  0
  -23.5082  -14.9050   20.7449 C   0  0  0  0  0  0  0  0  0  0  0  0
  -25.0917  -11.8893   20.9575 C   0  0  0  0  0  0  0  0  0  0  0  0
  -31.8163  -22.1434   23.5227 C   0  0  0  0  0  0  0  0  0  0  0  0
  -20.5898  -21.9507   19.1089 C   0  0  0  0  0  0  0  0  0  0  0  0
  -25.0013  -17.2282   18.2981 C   0  0  0  0  0  0  0  0  0  0  0  0
  -25.8301  -15.8906   20.8018 C   0  0  0  0  0  0  0  0  0  0  0  0
  -20.4414  -20.5812   19.7666 C   0  0  0  0  0  0  0  0  0  0  0  0
  -28.8810  -20.4891   22.3720 C   0  0  0  0  0  0  0  0  0  0  0  0
  -21.4921  -20.3958   20.8568 C   0  0  0  0  0  0  0  0  0  0  0  0
  -28.1827  -21.5413   21.5087 C   0  0  0  0  0  0  0  0  0  0  0  0
  -29.5627  -21.1169   23.5858 C   0  0  0  0  0  0  0  0  0  0  0  0
  -29.7944  -23.2703   22.4098 C   0  0  0  0  0  0  0  0  0  0  0  0
  -22.9090  -20.4557   20.2734 C   0  0  1  0  0  0  0  0  0  0  0  0
  -24.0055  -16.9216   19.4125 C   0  0  1  0  0  0  0  0  0  0  0  0
  -29.1397  -22.6920   21.1436 C   0  0  2  0  0  0  0  0  0  0  0  0
  -24.6455   -9.4551   21.3733 C   0  0  0  0  0  0  0  0  0  0  0  0
  -23.1946  -15.4742   23.7261 C   0  0  0  0  0  0  0  0  0  0  0  0
  -23.7063  -13.0638   24.1691 C   0  0  0  0  0  0  0  0  0  0  0  0
  -21.6878  -13.6850   22.8415 C   0  0  0  0  0  0  0  0  0  0  0  0
  -26.1121  -11.1268   18.2861 C   0  0  0  0  0  0  0  0  0  0  0  0
  -31.2864  -18.2695   19.2382 C   0  0  0  0  0  0  0  0  0  1  0  0
  -35.2708  -20.5757   21.2089 C   0  0  0  0  0  0  0  0  0  0  0  0
  -34.0126  -23.2877   23.3620 C   0  0  0  0  0  0  0  0  0  0  0  0
  -34.8397  -22.6253   22.2748 C   0  0  0  0  0  0  0  0  0  0  0  0
  -23.9796  -13.9387   21.8047 C   0  0  1  0  0  0  0  0  0  0  0  0
  -24.7872  -10.5448   20.3219 C   0  0  2  0  0  0  0  0  0  0  0  0
  -23.1604  -14.0567   23.1209 C   0  0  0  0  0  0  0  0  0  0  0  0
  -27.8852  -24.8071   20.9569 N   0  0  0  0  0  0  0  0  0  0  0  0
  -28.4422  -23.7611   20.3231 N   0  0  0  0  0  0  0  0  0  0  0  0
  -24.4521  -15.8349   20.2864 N   0  0  0  0  0  0  0  0  0  0  0  0
  -30.4576  -22.1998   23.1707 N   0  0  0  0  0  0  0  0  0  0  0  0
  -28.8024  -22.8270   18.1764 N   0  0  0  0  0  0  0  0  0  0  0  0
  -26.5073  -26.6148   17.2926 N   0  0  0  0  0  0  0  0  0  0  0  0
  -23.2390  -19.2081   19.6184 N   0  0  0  0  0  0  0  0  0  0  0  0
  -23.9428  -12.6140   21.1946 N   0  0  0  0  0  0  0  0  0  0  0  0
  -32.5959  -23.2067   23.0842 N   0  0  0  0  0  0  0  0  0  0  0  0
  -25.8792  -10.1553   19.3856 N   0  3  0  0  0  0  0  0  0  0  0  0
  -27.4868  -24.7682   16.3495 O   0  0  0  0  0  0  0  0  0  0  0  0
  -23.9607  -18.0333   21.4950 O   0  0  0  0  0  0  0  0  0  0  0  0
  -22.3475  -14.8327   20.3339 O   0  0  0  0  0  0  0  0  0  0  0  0
  -26.2341  -12.2582   21.2208 O   0  0  0  0  0  0  0  0  0  0  0  0
  -32.2999  -21.2116   24.1745 O   0  0  0  0  0  0  0  0  0  0  0  0
  -24.6759  -30.3064   21.0414 O   0  0  0  0  0  0  0  0  0  0  0  0
  -30.3781  -17.5328   20.0557 O   0  0  0  0  0  0  0  0  0  1  0  0
  -34.4872  -21.2519   22.1845 O   0  0  0  0  0  0  0  0  0  0  0  0
  -26.9659  -33.7788   24.6610 F   0  0  0  0  0  0  0  0  0  0  0  0
  -25.3773  -32.8741   20.2948 F   0  0  0  0  0  0  0  0  0  0  0  0
  1  2  1  0  0  0  0
  1  6  2  0  0  0  0
  2  7  2  0  0  0  0
  3  9  2  0  0  0  0
  3 10  1  0  0  0  0
  4 11  2  0  0  0  0
  4 19  1  0  0  0  0
  5 12  1  0  0  0  0
  5 19  2  0  0  0  0
  6 21  1  0  0  0  0
  7 23  1  0  0  0  0
  8 13  2  0  0  0  0
  8 22  1  0  0  0  0
  9 25  1  0  0  0  0
 10 26  2  0  0  0  0
 11 27  1  0  0  0  0
 12 27  2  0  0  0  0
 13 28  1  0  0  0  0
 14 15  2  0  0  0  0
 14 29  1  0  0  0  0
 15 30  1  0  0  0  0
 16 24  1  0  0  0  0
 16 28  2  0  0  0  0
 17 25  2  0  0  0  0
 17 26  1  0  0  0  0
 18 30  2  0  0  0  0
 18 31  1  0  0  0  0
 19 32  1  0  0  0  0
 20 32  1  0  0  0  0
 20 33  2  0  0  0  0
 20 34  1  0  0  0  0
 21 23  2  0  0  0  0
 21 39  1  0  0  0  0
 22 24  2  0  0  0  0
 22 40  1  0  0  0  0
 23 48  1  0  0  0  0
 24 41  1  0  0  0  0
 25 56  1  0  0  0  0
 26 57  1  0  0  0  0
 27 78  1  0  0  0  0
 28 79  1  0  0  0  0
 29 31  2  0  0  0  0
 29 78  1  0  0  0  0
 30 81  1  0  0  0  0
 31 82  1  0  0  0  0
 32 63  2  0  0  0  0
 33 64  1  0  0  0  0
 33 67  1  0  0  0  0
 34 68  1  0  0  0  0
 34 73  2  0  0  0  0
 35 49  1  0  0  0  0
 35 69  1  0  0  0  0
 35 74  2  0  0  0  0
 36 60  1  0  0  0  0
 36 65  1  0  0  0  0
 36 75  2  0  0  0  0
 37 61  1  0  0  0  0
 37 70  1  0  0  0  0
 37 76  2  0  0  0  0
 38 66  1  0  0  0  0
 38 71  1  0  0  0  0
 38 77  2  0  0  0  0
 39 42  1  0  0  0  0
 40 49  1  0  0  0  0
 41 65  1  0  0  0  0
 42 44  1  0  0  0  0
 43 45  1  0  0  0  0
 43 46  1  0  0  0  0
 44 48  1  0  0  0  0
 45 50  1  0  0  0  0
 46 66  1  0  0  0  0
 47 50  1  0  0  0  0
 47 66  1  0  0  0  0
 48 69  1  0  0  0  0
 49 65  1  0  0  0  0
 50 64  1  0  0  0  0
 51 61  1  0  0  0  0
 52 62  1  0  0  0  0
 53 62  1  0  0  0  0
 54 62  1  0  0  0  0
 55 72  1  0  0  0  0
 56 79  1  0  0  0  0
 57 80  1  0  0  0  0
 58 59  1  0  0  0  0
 58 71  1  0  0  0  0
 59 80  1  0  0  0  0
 60 62  1  0  0  0  0
 60 70  1  0  0  0  0
 61 72  1  0  0  0  0
 63 64  1  0  0  0  0
M  CHG  1  72   1
M  ISO  4  38 100  56 101  71 100  79 101
M  END
> <Batch ID>
0000

> <Smiles>
CNC(C)C(=O)NC(C(=O)N1Cc2cc([101O:1][101CH2:1]c3cccc(COCC[100NH:0][100C:0](=O)N4CCCC(n5nc(-c6ccc(Oc7ccc(F)cc7F)cc6)c(C(N)=O)c5N)C4)c3)ccc2CC1C(=O)NC1CCCc2ccccc21)C(C)(C)C

> <Shape>
0.183

> <Color>
0.071

> <Negative vol penalty>
0.000

$$$$

  -OEChem-04052315133D

 86 94  0     1  0  0  0  0  0999 V2000
  -26.8717  -23.7942   17.6243 C   0  0  0  0  0  0  0  0  0  0  0  0
  -25.7148  -24.3208   18.1898 C   0  0  0  0  0  0  0  0  0  0  0  0
  -25.8696  -12.2651   19.8203 C   0  0  0  0  0  0  0  0  0  0  0  0
  -24.3397  -12.9327   21.5670 C   0  0  0  0  0  0  0  0  0  0  0  0
  -28.1128  -24.0652   18.1988 C   0  0  0  0  0  0  0  0  0  0  0  0
  -25.7984  -25.1178   19.3310 C   0  0  0  0  0  0  0  0  0  0  0  0
  -22.9043  -29.2619   19.0223 C   0  0  0  0  0  0  0  0  0  0  0  0
  -23.2001  -20.9140   23.3635 C   0  0  0  0  0  0  0  0  0  0  0  0
  -24.2387  -22.6674   22.0659 C   0  0  0  0  0  0  0  0  0  0  0  0
  -26.1143  -11.0676   20.4923 C   0  0  0  0  0  0  0  0  0  0  0  0
  -24.5843  -11.7351   22.2390 C   0  0  0  0  0  0  0  0  0  0  0  0
  -21.5371  -29.1016   19.2432 C   0  0  0  0  0  0  0  0  0  0  0  0
  -22.2240  -21.8119   23.7955 C   0  0  0  0  0  0  0  0  0  0  0  0
  -23.2626  -23.5653   22.4978 C   0  0  0  0  0  0  0  0  0  0  0  0
  -24.5313   -8.6963   24.2343 C   0  0  0  0  0  0  0  0  0  0  0  0
  -23.4345   -8.0037   24.7469 C   0  0  0  0  0  0  0  0  0  0  0  0
  -21.8125  -29.9122   21.4985 C   0  0  0  0  0  0  0  0  0  0  0  0
  -22.5153   -7.8118   22.5209 C   0  0  0  0  0  0  0  0  0  0  0  0
  -24.9823  -13.1977   20.3577 C   0  0  0  0  0  0  0  0  0  0  0  0
  -23.7346  -14.6810   18.6991 C   0  0  0  0  0  0  0  0  0  0  0  0
  -28.2125  -24.8739   19.3419 C   0  0  0  0  0  0  0  0  0  0  0  0
  -23.7391  -29.7391   20.0431 C   0  0  0  0  0  0  0  0  0  0  0  0
  -27.0419  -25.3988   19.9221 C   0  0  0  0  0  0  0  0  0  0  0  0
  -23.1896  -30.0801   21.2872 C   0  0  0  0  0  0  0  0  0  0  0  0
  -24.2075  -21.3418   22.4987 C   0  0  0  0  0  0  0  0  0  0  0  0
  -25.4717  -10.8025   21.7016 C   0  0  0  0  0  0  0  0  0  0  0  0
  -22.2552  -23.1375   23.3627 C   0  0  0  0  0  0  0  0  0  0  0  0
  -20.9915  -29.4240   20.4823 C   0  0  0  0  0  0  0  0  0  0  0  0
  -24.6201   -8.9468   22.8650 C   0  0  0  0  0  0  0  0  0  0  0  0
  -22.4265   -7.5614   23.8902 C   0  0  0  0  0  0  0  0  0  0  0  0
  -23.6121   -8.5045   22.0083 C   0  0  0  0  0  0  0  0  0  0  0  0
  -24.7295  -14.4352   19.6643 C   0  0  0  0  0  0  0  0  0  0  0  0
  -23.9112  -15.9980   18.3517 C   0  0  0  0  0  0  0  0  0  0  0  0
  -22.7397  -13.7978   18.1646 C   0  0  0  0  0  0  0  0  0  0  0  0
  -26.2249  -28.5665   21.6398 C   0  0  0  0  0  0  0  0  0  0  0  0
  -26.3295  -31.5545   22.8982 C   0  0  0  0  0  0  0  0  0  0  0  0
  -24.6726  -34.4426   23.6467 C   0  0  0  0  0  0  0  0  0  0  0  0
  -26.2673  -20.6914   21.2023 C   0  0  0  0  0  0  0  0  0  0  0  0
  -29.5719  -25.1001   19.9548 C   0  0  0  0  0  0  0  0  0  0  0  0
  -25.2075  -29.9316   19.7804 C   0  0  0  0  0  0  0  0  0  0  0  0
  -24.0394  -30.6153   22.4096 C   0  0  0  0  0  0  0  0  0  0  0  0
  -29.6079  -26.2612   20.9451 C   0  0  0  0  0  0  0  0  0  0  0  0
  -27.2970  -19.3723   18.0596 C   0  0  0  0  0  0  0  0  0  0  0  0
  -28.4231  -26.1831   21.9027 C   0  0  0  0  0  0  0  0  0  0  0  0
  -26.6599  -17.9812   18.0240 C   0  0  0  0  0  0  0  0  0  0  0  0
  -27.7693  -19.7439   19.4641 C   0  0  0  0  0  0  0  0  0  0  0  0
  -26.1140  -18.2278   20.4792 C   0  0  0  0  0  0  0  0  0  0  0  0
  -27.0939  -26.2881   21.1454 C   0  0  1  0  0  0  0  0  0  0  0  0
  -26.0466  -29.9389   21.0545 C   0  0  1  0  0  0  0  0  0  0  0  0
  -25.5641  -17.8356   19.0981 C   0  0  2  0  0  0  0  0  0  0  0  0
  -25.0137  -36.6912   24.7073 C   0  0  0  0  0  0  0  0  0  0  0  0
  -26.2710  -30.2582   25.6597 C   0  0  0  0  0  0  0  0  0  0  0  0
  -25.6593  -32.4892   26.6173 C   0  0  0  0  0  0  0  0  0  0  0  0
  -27.8428  -32.1919   25.4481 C   0  0  0  0  0  0  0  0  0  0  0  0
  -23.9868  -35.8580   21.1397 C   0  0  0  0  0  0  0  0  0  0  0  0
  -20.3022  -23.5102   24.6675 C   0  0  0  0  0  0  0  0  0  0  0  0
  -18.9973  -28.2315   19.9751 C   0  0  0  0  0  0  0  0  0  1  0  0
  -19.3520  -24.6312   25.0423 C   0  0  0  0  0  0  0  0  0  0  0  0
  -17.8322  -27.7159   20.7975 C   0  0  0  0  0  0  0  0  0  0  0  0
  -17.8520  -26.2067   24.1532 C   0  0  0  0  0  0  0  0  0  0  0  0
  -17.2683  -26.7316   22.8556 C   0  0  0  0  0  0  0  0  0  0  0  0
  -25.7076  -32.2330   24.0948 C   0  0  1  0  0  0  0  0  0  0  0  0
  -25.0290  -35.8989   23.4093 C   0  0  2  0  0  0  0  0  0  0  0  0
  -26.3542  -31.7812   25.4347 C   0  0  0  0  0  0  0  0  0  0  0  0
  -25.4825  -15.5098   19.9138 N   0  0  0  0  0  0  0  0  0  0  0  0
  -24.9606  -16.4436   19.1004 N   0  0  0  0  0  0  0  0  0  0  0  0
  -25.4706  -30.7799   22.1058 N   0  0  0  0  0  0  0  0  0  0  0  0
  -26.6775  -19.5859   20.4274 N   0  0  0  0  0  0  0  0  0  0  0  0
  -23.2698  -16.8068   17.4817 N   0  0  0  0  0  0  0  0  0  0  0  0
  -22.6981  -12.4771   18.6319 N   0  0  0  0  0  0  0  0  0  0  0  0
  -25.1992  -20.4298   22.0598 N   0  0  0  0  0  0  0  0  0  0  0  0
  -26.8256  -27.6634   20.7836 N   0  0  0  0  0  0  0  0  0  0  0  0
  -25.7958  -33.6672   23.8424 N   0  0  0  0  0  0  0  0  0  0  0  0
  -24.0581  -36.5228   22.4664 N   0  3  0  0  0  0  0  0  0  0  0  0
  -21.9225  -14.1642   17.2862 O   0  0  0  0  0  0  0  0  0  0  0  0
  -25.8470  -28.3439   22.7841 O   0  0  0  0  0  0  0  0  0  0  0  0
  -27.5317  -31.7120   22.6708 O   0  0  0  0  0  0  0  0  0  0  0  0
  -23.5134  -34.0343   23.6612 O   0  0  0  0  0  0  0  0  0  0  0  0
  -26.8048  -21.7963   21.0922 O   0  0  0  0  0  0  0  0  0  0  0  0
  -25.7100   -9.6339   22.3575 O   0  0  0  0  0  0  0  0  0  0  0  0
  -21.2965  -24.0195   23.7870 O   0  0  0  0  0  0  0  0  0  0  0  0
  -19.6574  -29.2679   20.7008 O   0  0  0  0  0  0  0  0  0  1  0  0
  -18.7563  -25.1484   23.8607 O   0  0  0  0  0  0  0  0  0  0  0  0
  -18.3210  -27.2290   22.0414 O   0  0  0  0  0  0  0  0  0  0  0  0
  -21.3740   -6.8949   24.3825 F   0  0  0  0  0  0  0  0  0  0  0  0
  -23.6924   -8.7411   20.6917 F   0  0  0  0  0  0  0  0  0  0  0  0
  1  2  1  0  0  0  0
  1  5  2  0  0  0  0
  2  6  2  0  0  0  0
  3 10  2  0  0  0  0
  3 19  1  0  0  0  0
  4 11  1  0  0  0  0
  4 19  2  0  0  0  0
  5 21  1  0  0  0  0
  6 23  1  0  0  0  0
  7 12  2  0  0  0  0
  7 22  1  0  0  0  0
  8 13  2  0  0  0  0
  8 25  1  0  0  0  0
  9 14  1  0  0  0  0
  9 25  2  0  0  0  0
 10 26  1  0  0  0  0
 11 26  2  0  0  0  0
 12 28  1  0  0  0  0
 13 27  1  0  0  0  0
 14 27  2  0  0  0  0
 15 16  2  0  0  0  0
 15 29  1  0  0  0  0
 16 30  1  0  0  0  0
 17 24  1  0  0  0  0
 17 28  2  0  0  0  0
 18 30  2  0  0  0  0
 18 31  1  0  0  0  0
 19 32  1  0  0  0  0
 20 32  1  0  0  0  0
 20 33  2  0  0  0  0
 20 34  1  0  0  0  0
 21 23  2  0  0  0  0
 21 39  1  0  0  0  0
 22 24  2  0  0  0  0
 22 40  1  0  0  0  0
 23 48  1  0  0  0  0
 24 41  1  0  0  0  0
 25 71  1  0  0  0  0
 26 80  1  0  0  0  0
 27 81  1  0  0  0  0
 28 82  1  0  0  0  0
 29 31  2  0  0  0  0
 29 80  1  0  0  0  0
 30 85  1  0  0  0  0
 31 86  1  0  0  0  0
 32 65  2  0  0  0  0
 33 66  1  0  0  0  0
 33 69  1  0  0  0  0
 34 70  1  0  0  0  0
 34 75  2  0  0  0  0
 35 49  1  0  0  0  0
 35 72  1  0  0  0  0
 35 76  2  0  0  0  0
 36 62  1  0  0  0  0
 36 67  1  0  0  0  0
 36 77  2  0  0  0  0
 37 63  1  0  0  0  0
 37 73  1  0  0  0  0
 37 78  2  0  0  0  0
 38 68  1  0  0  0  0
 38 71  1  0  0  0  0
 38 79  2  0  0  0  0
 39 42  1  0  0  0  0
 40 49  1  0  0  0  0
 41 67  1  0  0  0  0
 42 44  1  0  0  0  0
 43 45  1  0  0  0  0
 43 46  1  0  0  0  0
 44 48  1  0  0  0  0
 45 50  1  0  0  0  0
 46 68  1  0  0  0  0
 47 50  1  0  0  0  0
 47 68  1  0  0  0  0
 48 72  1  0  0  0  0
 49 67  1  0  0  0  0
 50 66  1  0  0  0  0
 51 63  1  0  0  0  0
 52 64  1  0  0  0  0
 53 64  1  0  0  0  0
 54 64  1  0  0  0  0
 55 74  1  0  0  0  0
 56 58  1  0  0  0  0
 56 81  1  0  0  0  0
 57 59  1  0  0  0  0
 57 82  1  0  0  0  0
 58 83  1  0  0  0  0
 59 84  1  0  0  0  0
 60 61  1  0  0  0  0
 60 83  1  0  0  0  0
 61 84  1  0  0  0  0
 62 64  1  0  0  0  0
 62 73  1  0  0  0  0
 63 74  1  0  0  0  0
 65 66  1  0  0  0  0
M  CHG  1  74   1
M  ISO  4  38 100  57 101  71 100  82 101
M  END
> <Batch ID>
0000

> <Smiles>
CNC(C)C(=O)NC(C(=O)N1Cc2cc([101O:1][101CH2:1]COCCOCCOc3ccc([100NH:0][100C:0](=O)N4CCCC(n5nc(-c6ccc(Oc7ccc(F)cc7F)cc6)c(C(N)=O)c5N)C4)cc3)ccc2CC1C(=O)NC1CCCc2ccccc21)C(C)(C)C

> <Shape>
0.273

> <Color>
0.073

> <Negative vol penalty>
0.000

$$$$

  -OEChem-04052315133D

 81 89  0     1  0  0  0  0  0999 V2000
  -16.6897  -29.4611   23.1319 C   0  0  0  0  0  0  0  0  0  0  0  0
  -17.6537  -29.5874   22.1369 C   0  0  0  0  0  0  0  0  0  0  0  0
  -26.5850  -12.6865   21.9931 C   0  0  0  0  0  0  0  0  0  0  0  0
  -25.7693  -14.3575   20.4506 C   0  0  0  0  0  0  0  0  0  0  0  0
  -17.0736  -29.1677   24.4398 C   0  0  0  0  0  0  0  0  0  0  0  0
  -19.0025  -29.4214   22.4495 C   0  0  0  0  0  0  0  0  0  0  0  0
  -25.1332  -27.0212   19.6262 C   0  0  0  0  0  0  0  0  0  0  0  0
  -28.8220  -22.0323   20.5317 C   0  0  0  0  0  0  0  0  0  0  0  0
  -30.6671  -22.6487   21.9643 C   0  0  0  0  0  0  0  0  0  0  0  0
  -25.3403  -12.0575   21.9700 C   0  0  0  0  0  0  0  0  0  0  0  0
  -24.5245  -13.7284   20.4274 C   0  0  0  0  0  0  0  0  0  0  0  0
  -26.4510  -27.4234   19.4131 C   0  0  0  0  0  0  0  0  0  0  0  0
  -29.1192  -23.1028   19.6883 C   0  0  0  0  0  0  0  0  0  0  0  0
  -30.9644  -23.7192   21.1209 C   0  0  0  0  0  0  0  0  0  0  0  0
  -22.4870   -9.8060   22.0365 C   0  0  0  0  0  0  0  0  0  0  0  0
  -22.4646   -8.4169   21.9129 C   0  0  0  0  0  0  0  0  0  0  0  0
  -26.9909  -26.8404   21.6907 C   0  0  0  0  0  0  0  0  0  0  0  0
  -23.6152   -8.5868   19.7952 C   0  0  0  0  0  0  0  0  0  0  0  0
  -26.7995  -13.8366   21.2335 C   0  0  0  0  0  0  0  0  0  0  0  0
  -29.1797  -14.2381   20.4083 C   0  0  0  0  0  0  0  0  0  0  0  0
  -18.4270  -28.9886   24.7666 C   0  0  0  0  0  0  0  0  0  0  0  0
  -24.7311  -26.5350   20.8786 C   0  0  0  0  0  0  0  0  0  0  0  0
  -19.4050  -29.1267   23.7632 C   0  0  0  0  0  0  0  0  0  0  0  0
  -25.6680  -26.4303   21.9165 C   0  0  0  0  0  0  0  0  0  0  0  0
  -29.5959  -21.8053   21.6698 C   0  0  0  0  0  0  0  0  0  0  0  0
  -24.3101  -12.5784   21.1871 C   0  0  0  0  0  0  0  0  0  0  0  0
  -30.1904  -23.9462   19.9829 C   0  0  0  0  0  0  0  0  0  0  0  0
  -27.3794  -27.3357   20.4462 C   0  0  0  0  0  0  0  0  0  0  0  0
  -23.0734  -10.5856   21.0395 C   0  0  0  0  0  0  0  0  0  0  0  0
  -23.0288   -7.8072   20.7923 C   0  0  0  0  0  0  0  0  0  0  0  0
  -23.6375   -9.9760   19.9189 C   0  0  0  0  0  0  0  0  0  0  0  0
  -28.0849  -14.4872   21.2574 C   0  0  0  0  0  0  0  0  0  0  0  0
  -30.1515  -15.1091   20.8365 C   0  0  0  0  0  0  0  0  0  0  0  0
  -29.3069  -13.3031   19.3288 C   0  0  0  0  0  0  0  0  0  0  0  0
  -22.6340  -27.4660   23.0784 C   0  0  0  0  0  0  0  0  0  0  0  0
  -23.4563  -24.6625   24.4878 C   0  0  0  0  0  0  0  0  0  0  0  0
  -25.7688  -22.1825   24.8734 C   0  0  0  0  0  0  0  0  0  0  0  0
  -29.9615  -20.3528   23.6953 C   0  0  0  0  0  0  0  0  0  0  0  0
  -18.7973  -28.7192   26.2036 C   0  0  0  0  0  0  0  0  0  0  0  0
  -23.3122  -26.0803   21.0845 C   0  0  0  0  0  0  0  0  0  0  0  0
  -25.2918  -25.8963   23.2735 C   0  0  0  0  0  0  0  0  0  0  0  0
  -20.2180  -28.1885   26.3773 C   0  0  0  0  0  0  0  0  0  0  0  0
  -31.6554  -17.4075   24.7596 C   0  0  0  0  0  0  0  0  0  0  0  0
  -21.2010  -29.0149   25.5542 C   0  0  0  0  0  0  0  0  0  0  0  0
  -31.0359  -16.3026   23.9007 C   0  0  0  0  0  0  0  0  0  0  0  0
  -30.6229  -18.4591   25.1620 C   0  0  0  0  0  0  0  0  0  0  0  0
  -29.2429  -17.9355   23.1896 C   0  0  0  0  0  0  0  0  0  0  0  0
  -20.8762  -28.9294   24.0580 C   0  0  1  0  0  0  0  0  0  0  0  0
  -22.8907  -26.0828   22.5507 C   0  0  1  0  0  0  0  0  0  0  0  0
  -30.2581  -16.8873   22.7054 C   0  0  2  0  0  0  0  0  0  0  0  0
  -26.7383  -20.0040   25.6554 C   0  0  0  0  0  0  0  0  0  0  0  0
  -24.0606  -26.2563   27.0185 C   0  0  0  0  0  0  0  0  0  0  0  0
  -25.3278  -24.2761   27.8794 C   0  0  0  0  0  0  0  0  0  0  0  0
  -22.8855  -24.0837   27.4097 C   0  0  0  0  0  0  0  0  0  0  0  0
  -24.6824  -20.7270   22.5367 C   0  0  0  0  0  0  0  0  0  0  0  0
  -30.6908  -27.3904   18.9728 C   0  0  0  0  0  0  0  0  0  0  0  0
  -31.0716  -26.1434   19.7552 C   0  0  0  0  0  0  0  0  0  0  0  0
  -29.1843  -27.5901   18.9186 C   0  0  0  0  0  0  0  0  0  1  0  0
  -24.5109  -24.2332   25.4790 C   0  0  1  0  0  0  0  0  0  0  0  0
  -25.6386  -20.6703   24.8434 C   0  0  2  0  0  0  0  0  0  0  0  0
  -24.2031  -24.7242   26.9218 C   0  0  0  0  0  0  0  0  0  0  0  0
  -28.3369  -15.4416   22.1572 N   0  0  0  0  0  0  0  0  0  0  0  0
  -29.6013  -15.7998   21.8759 N   0  0  0  0  0  0  0  0  0  0  0  0
  -23.8910  -25.4702   23.4273 N   0  0  0  0  0  0  0  0  0  0  0  0
  -29.9288  -18.9709   23.9784 N   0  0  0  0  0  0  0  0  0  0  0  0
  -31.4146  -15.3439   20.4217 N   0  0  0  0  0  0  0  0  0  0  0  0
  -28.2117  -12.4841   19.0219 N   0  0  0  0  0  0  0  0  0  0  0  0
  -29.2941  -20.7179   22.5266 N   0  0  0  0  0  0  0  0  0  0  0  0
  -21.3380  -27.6713   23.5117 N   0  0  0  0  0  0  0  0  0  0  0  0
  -24.6244  -22.7842   25.3524 N   0  0  0  0  0  0  0  0  0  0  0  0
  -25.7210  -20.1710   23.4417 N   0  3  0  0  0  0  0  0  0  0  0  0
  -30.3659  -13.1856   18.6670 O   0  0  0  0  0  0  0  0  0  0  0  0
  -23.5446  -28.2859   23.0928 O   0  0  0  0  0  0  0  0  0  0  0  0
  -22.2912  -24.2890   24.6446 O   0  0  0  0  0  0  0  0  0  0  0  0
  -26.7855  -22.7708   24.5118 O   0  0  0  0  0  0  0  0  0  0  0  0
  -30.5621  -21.1498   24.4207 O   0  0  0  0  0  0  0  0  0  0  0  0
  -23.0954  -11.9646   21.1640 O   0  0  0  0  0  0  0  0  0  0  0  0
  -30.4825  -24.9982   19.1542 O   0  0  0  0  0  0  0  0  0  0  0  0
  -28.6662  -27.7281   20.2411 O   0  0  0  0  0  0  0  0  0  1  0  0
  -23.0086   -6.4731   20.6744 F   0  0  0  0  0  0  0  0  0  0  0  0
  -24.2034  -10.7197   18.9583 F   0  0  0  0  0  0  0  0  0  0  0  0
  1  2  1  0  0  0  0
  1  5  2  0  0  0  0
  2  6  2  0  0  0  0
  3 10  2  0  0  0  0
  3 19  1  0  0  0  0
  4 11  1  0  0  0  0
  4 19  2  0  0  0  0
  5 21  1  0  0  0  0
  6 23  1  0  0  0  0
  7 12  2  0  0  0  0
  7 22  1  0  0  0  0
  8 13  2  0  0  0  0
  8 25  1  0  0  0  0
  9 14  1  0  0  0  0
  9 25  2  0  0  0  0
 10 26  1  0  0  0  0
 11 26  2  0  0  0  0
 12 28  1  0  0  0  0
 13 27  1  0  0  0  0
 14 27  2  0  0  0  0
 15 16  2  0  0  0  0
 15 29  1  0  0  0  0
 16 30  1  0  0  0  0
 17 24  1  0  0  0  0
 17 28  2  0  0  0  0
 18 30  2  0  0  0  0
 18 31  1  0  0  0  0
 19 32  1  0  0  0  0
 20 32  1  0  0  0  0
 20 33  2  0  0  0  0
 20 34  1  0  0  0  0
 21 23  2  0  0  0  0
 21 39  1  0  0  0  0
 22 24  2  0  0  0  0
 22 40  1  0  0  0  0
 23 48  1  0  0  0  0
 24 41  1  0  0  0  0
 25 68  1  0  0  0  0
 26 77  1  0  0  0  0
 27 78  1  0  0  0  0
 28 79  1  0  0  0  0
 29 31  2  0  0  0  0
 29 77  1  0  0  0  0
 30 80  1  0  0  0  0
 31 81  1  0  0  0  0
 32 62  2  0  0  0  0
 33 63  1  0  0  0  0
 33 66  1  0  0  0  0
 34 67  1  0  0  0  0
 34 72  2  0  0  0  0
 35 49  1  0  0  0  0
 35 69  1  0  0  0  0
 35 73  2  0  0  0  0
 36 59  1  0  0  0  0
 36 64  1  0  0  0  0
 36 74  2  0  0  0  0
 37 60  1  0  0  0  0
 37 70  1  0  0  0  0
 37 75  2  0  0  0  0
 38 65  1  0  0  0  0
 38 68  1  0  0  0  0
 38 76  2  0  0  0  0
 39 42  1  0  0  0  0
 40 49  1  0  0  0  0
 41 64  1  0  0  0  0
 42 44  1  0  0  0  0
 43 45  1  0  0  0  0
 43 46  1  0  0  0  0
 44 48  1  0  0  0  0
 45 50  1  0  0  0  0
 46 65  1  0  0  0  0
 47 50  1  0  0  0  0
 47 65  1  0  0  0  0
 48 69  1  0  0  0  0
 49 64  1  0  0  0  0
 50 63  1  0  0  0  0
 51 60  1  0  0  0  0
 52 61  1  0  0  0  0
 53 61  1  0  0  0  0
 54 61  1  0  0  0  0
 55 71  1  0  0  0  0
 56 57  1  0  0  0  0
 56 58  1  0  0  0  0
 57 78  1  0  0  0  0
 58 79  1  0  0  0  0
 59 61  1  0  0  0  0
 59 70  1  0  0  0  0
 60 71  1  0  0  0  0
 62 63  1  0  0  0  0
M  CHG  1  71   1
M  ISO  4  38 100  58 101  68 100  79 101
M  END
> <Batch ID>
0000

> <Smiles>
CNC(C)C(=O)NC(C(=O)N1Cc2cc([101O:1][101CH2:1]CCOc3ccc([100NH:0][100C:0](=O)N4CCCC(n5nc(-c6ccc(Oc7ccc(F)cc7F)cc6)c(C(N)=O)c5N)C4)cc3)ccc2CC1C(=O)NC1CCCc2ccccc21)C(C)(C)C

> <Shape>
0.239

> <Color>
0.096

> <Negative vol penalty>
0.000

$$$$

  -OEChem-04052315133D

 79 86  0     1  0  0  0  0  0999 V2000
  -24.1488  -21.5364   17.0982 C   0  0  0  0  0  0  0  0  0  0  0  0
  -25.2246  -20.6811   16.8822 C   0  0  0  0  0  0  0  0  0  0  0  0
  -27.9659  -23.3978   17.2597 C   0  0  0  0  0  0  0  0  0  0  0  0
  -29.4539  -24.6259   18.7138 C   0  0  0  0  0  0  0  0  0  0  0  0
  -23.4472  -21.4819   18.3019 C   0  0  0  0  0  0  0  0  0  0  0  0
  -25.6000  -19.7715   17.8701 C   0  0  0  0  0  0  0  0  0  0  0  0
  -28.3657  -13.2105   18.6580 C   0  0  0  0  0  0  0  0  0  0  0  0
  -27.1215  -24.5056   17.1879 C   0  0  0  0  0  0  0  0  0  0  0  0
  -28.6095  -25.7339   18.6420 C   0  0  0  0  0  0  0  0  0  0  0  0
  -29.3989  -12.5497   19.3211 C   0  0  0  0  0  0  0  0  0  0  0  0
  -25.6958  -26.7397   20.0310 C   0  0  0  0  0  0  0  0  0  0  0  0
  -25.3996  -27.4069   21.2196 C   0  0  0  0  0  0  0  0  0  0  0  0
  -28.0640  -12.4905   21.3295 C   0  0  0  0  0  0  0  0  0  0  0  0
  -26.3659  -29.4320   20.3237 C   0  0  0  0  0  0  0  0  0  0  0  0
  -29.1321  -23.4578   18.0227 C   0  0  0  0  0  0  0  0  0  0  0  0
  -31.0851  -22.0112   17.2476 C   0  0  0  0  0  0  0  0  0  0  0  0
  -23.8082  -20.5645   19.3012 C   0  0  0  0  0  0  0  0  0  0  0  0
  -27.1762  -13.5265   19.3300 C   0  0  0  0  0  0  0  0  0  0  0  0
  -24.9034  -19.7056   19.0888 C   0  0  0  0  0  0  0  0  0  0  0  0
  -27.0163  -13.1531   20.6720 C   0  0  0  0  0  0  0  0  0  0  0  0
  -27.4433  -25.6737   17.8791 C   0  0  0  0  0  0  0  0  0  0  0  0
  -29.2493  -12.1921   20.6578 C   0  0  0  0  0  0  0  0  0  0  0  0
  -26.3271  -27.4186   18.9888 C   0  0  0  0  0  0  0  0  0  0  0  0
  -25.7346  -28.7530   21.3659 C   0  0  0  0  0  0  0  0  0  0  0  0
  -26.6621  -28.7648   19.1351 C   0  0  0  0  0  0  0  0  0  0  0  0
  -30.0044  -22.3135   18.0977 C   0  0  0  0  0  0  0  0  0  0  0  0
  -31.5855  -20.8289   17.7355 C   0  0  0  0  0  0  0  0  0  0  0  0
  -31.5913  -22.7346   16.1179 C   0  0  0  0  0  0  0  0  0  0  0  0
  -25.6635  -16.2239   20.0648 C   0  0  0  0  0  0  0  0  0  0  0  0
  -23.3609  -14.1909   21.1077 C   0  0  0  0  0  0  0  0  0  0  0  0
  -22.5428  -11.0812   22.2511 C   0  0  0  0  0  0  0  0  0  0  0  0
  -31.4488  -18.4269   23.1270 C   0  0  0  0  0  0  0  0  0  0  0  0
  -23.0495  -20.5751   20.6047 C   0  0  0  0  0  0  0  0  0  0  0  0
  -26.0608  -14.2159   18.5930 C   0  0  0  0  0  0  0  0  0  0  0  0
  -25.7510  -13.4512   21.4328 C   0  0  0  0  0  0  0  0  0  0  0  0
  -23.2764  -19.3255   21.4516 C   0  0  0  0  0  0  0  0  0  0  0  0
  -30.2441  -16.8806   20.0848 C   0  0  0  0  0  0  0  0  0  0  0  0
  -24.7628  -18.9900   21.5206 C   0  0  0  0  0  0  0  0  0  0  0  0
  -30.1510  -18.0857   19.1472 C   0  0  0  0  0  0  0  0  0  0  0  0
  -29.8381  -17.2542   21.5074 C   0  0  0  0  0  0  0  0  0  0  0  0
  -30.5135  -19.5977   21.1529 C   0  0  0  0  0  0  0  0  0  0  0  0
  -25.3256  -18.6882   20.1264 C   0  0  1  0  0  0  0  0  0  0  0  0
  -25.0931  -14.9450   19.5201 C   0  0  1  0  0  0  0  0  0  0  0  0
  -30.9328  -19.2904   19.7038 C   0  0  2  0  0  0  0  0  0  0  0  0
  -20.5878   -9.7300   23.0570 C   0  0  0  0  0  0  0  0  0  0  0  0
  -23.4523  -15.6580   23.7815 C   0  0  0  0  0  0  0  0  0  0  0  0
  -22.2294  -13.7271   24.8035 C   0  0  0  0  0  0  0  0  0  0  0  0
  -21.1535  -15.0660   22.9944 C   0  0  0  0  0  0  0  0  0  0  0  0
  -22.8469   -9.1181   20.0574 C   0  0  0  0  0  0  0  0  0  0  0  0
  -32.3027  -17.1272   25.0605 C   0  0  0  0  0  0  0  0  0  0  0  0
  -32.1882  -15.7446   25.6773 C   0  0  0  0  0  0  0  0  0  0  0  0
  -31.5886  -11.8245   20.8775 C   0  0  0  0  0  0  0  0  0  1  0  0
  -32.5314  -11.6696   22.0552 C   0  0  0  0  0  0  0  0  0  0  0  0
  -32.5348  -13.4559   25.2720 C   0  0  0  0  0  0  0  0  0  0  0  0
  -32.9891  -12.4631   24.2193 C   0  0  0  0  0  0  0  0  0  0  0  0
  -23.0548  -13.5030   22.4161 C   0  0  1  0  0  0  0  0  0  0  0  0
  -21.4344  -10.1222   21.8561 C   0  0  2  0  0  0  0  0  0  0  0  0
  -22.4972  -14.4845   23.4854 C   0  0  0  0  0  0  0  0  0  0  0  0
  -29.8279  -21.3970   19.0531 N   0  0  0  0  0  0  0  0  0  0  0  0
  -30.8043  -20.5072   18.8063 N   0  0  0  0  0  0  0  0  0  0  0  0
  -24.6917  -14.1324   20.6703 N   0  0  0  0  0  0  0  0  0  0  0  0
  -30.6323  -18.3952   21.9843 N   0  0  0  0  0  0  0  0  0  0  0  0
  -32.6130  -20.0433   17.3488 N   0  0  0  0  0  0  0  0  0  0  0  0
  -30.9593  -23.9311   15.7528 N   0  0  0  0  0  0  0  0  0  0  0  0
  -24.9522  -17.3538   19.7087 N   0  0  0  0  0  0  0  0  0  0  0  0
  -22.1594  -12.3966   22.0959 N   0  0  0  0  0  0  0  0  0  0  0  0
  -31.5012  -17.2497   23.8632 N   0  0  0  0  0  0  0  0  0  0  0  0
  -22.0095   -8.8825   21.2616 N   0  3  0  0  0  0  0  0  0  0  0  0
  -32.5648  -22.3234   15.4420 O   0  0  0  0  0  0  0  0  0  0  0  0
  -26.6733  -16.1880   20.7581 O   0  0  0  0  0  0  0  0  0  0  0  0
  -22.4513  -14.7531   20.4927 O   0  0  0  0  0  0  0  0  0  0  0  0
  -23.6378  -10.7016   22.6602 O   0  0  0  0  0  0  0  0  0  0  0  0
  -32.0886  -19.4291   23.4636 O   0  0  0  0  0  0  0  0  0  0  0  0
  -26.6198  -26.7551   17.8091 O   0  0  0  0  0  0  0  0  0  0  0  0
  -30.2564  -11.5476   21.3076 O   0  0  0  0  0  0  0  0  0  1  0  0
  -32.6238  -14.7714   24.7383 O   0  0  0  0  0  0  0  0  0  0  0  0
  -32.1372  -12.5659   23.0870 O   0  0  0  0  0  0  0  0  0  0  0  0
  -25.4487  -29.3940   22.5068 F   0  0  0  0  0  0  0  0  0  0  0  0
  -27.2676  -29.4226   18.1369 F   0  0  0  0  0  0  0  0  0  0  0  0
  1  2  1  0  0  0  0
  1  5  2  0  0  0  0
  2  6  2  0  0  0  0
  3  8  2  0  0  0  0
  3 15  1  0  0  0  0
  4  9  1  0  0  0  0
  4 15  2  0  0  0  0
  5 17  1  0  0  0  0
  6 19  1  0  0  0  0
  7 10  2  0  0  0  0
  7 18  1  0  0  0  0
  8 21  1  0  0  0  0
  9 21  2  0  0  0  0
 10 22  1  0  0  0  0
 11 12  2  0  0  0  0
 11 23  1  0  0  0  0
 12 24  1  0  0  0  0
 13 20  1  0  0  0  0
 13 22  2  0  0  0  0
 14 24  2  0  0  0  0
 14 25  1  0  0  0  0
 15 26  1  0  0  0  0
 16 26  1  0  0  0  0
 16 27  2  0  0  0  0
 16 28  1  0  0  0  0
 17 19  2  0  0  0  0
 17 33  1  0  0  0  0
 18 20  2  0  0  0  0
 18 34  1  0  0  0  0
 19 42  1  0  0  0  0
 20 35  1  0  0  0  0
 21 74  1  0  0  0  0
 22 75  1  0  0  0  0
 23 25  2  0  0  0  0
 23 74  1  0  0  0  0
 24 78  1  0  0  0  0
 25 79  1  0  0  0  0
 26 59  2  0  0  0  0
 27 60  1  0  0  0  0
 27 63  1  0  0  0  0
 28 64  1  0  0  0  0
 28 69  2  0  0  0  0
 29 43  1  0  0  0  0
 29 65  1  0  0  0  0
 29 70  2  0  0  0  0
 30 56  1  0  0  0  0
 30 61  1  0  0  0  0
 30 71  2  0  0  0  0
 31 57  1  0  0  0  0
 31 66  1  0  0  0  0
 31 72  2  0  0  0  0
 32 62  1  0  0  0  0
 32 67  1  0  0  0  0
 32 73  2  0  0  0  0
 33 36  1  0  0  0  0
 34 43  1  0  0  0  0
 35 61  1  0  0  0  0
 36 38  1  0  0  0  0
 37 39  1  0  0  0  0
 37 40  1  0  0  0  0
 38 42  1  0  0  0  0
 39 44  1  0  0  0  0
 40 62  1  0  0  0  0
 41 44  1  0  0  0  0
 41 62  1  0  0  0  0
 42 65  1  0  0  0  0
 43 61  1  0  0  0  0
 44 60  1  0  0  0  0
 45 57  1  0  0  0  0
 46 58  1  0  0  0  0
 47 58  1  0  0  0  0
 48 58  1  0  0  0  0
 49 68  1  0  0  0  0
 50 51  1  0  0  0  0
 50 67  1  0  0  0  0
 51 76  1  0  0  0  0
 52 53  1  0  0  0  0
 52 75  1  0  0  0  0
 53 77  1  0  0  0  0
 54 55  1  0  0  0  0
 54 76  1  0  0  0  0
 55 77  1  0  0  0  0
 56 58  1  0  0  0  0
 56 66  1  0  0  0  0
 57 68  1  0  0  0  0
 59 60  1  0  0  0  0
M  CHG  1  68   1
M  ISO  4  32 100  52 101  67 100  75 101
M  END
> <Batch ID>
0000

> <Smiles>
CNC(C)C(=O)NC(C(=O)N1Cc2cc([101O:1][101CH2:1]COCCOCC[100NH:0][100C:0](=O)N3CCCC(n4nc(-c5ccc(Oc6ccc(F)cc6F)cc5)c(C(N)=O)c4N)C3)ccc2CC1C(=O)NC1CCCc2ccccc21)C(C)(C)C

> <Shape>
0.193

> <Color>
0.068

> <Negative vol penalty>
0.000

$$$$

  -OEChem-04052315132D

  0  0  0     0  0  0  0  0  0999 V2000
M  END
$$$$

  -OEChem-04052315133D

103110  0     1  0  0  0  0  0999 V2000
  -30.3774  -34.2433   21.0695 C   0  0  0  0  0  0  0  0  0  0  0  0
  -30.5108  -32.9403   20.6006 C   0  0  0  0  0  0  0  0  0  0  0  0
  -23.2389   -9.8480   19.8621 C   0  0  0  0  0  0  0  0  0  0  0  0
  -23.6209   -9.9317   22.2462 C   0  0  0  0  0  0  0  0  0  0  0  0
  -31.4059  -34.8255   21.8092 C   0  0  0  0  0  0  0  0  0  0  0  0
  -31.6734  -32.2191   20.8703 C   0  0  0  0  0  0  0  0  0  0  0  0
  -30.7148  -27.4748   22.3595 C   0  0  0  0  0  0  0  0  0  0  0  0
  -22.4580   -8.7042   20.0273 C   0  0  0  0  0  0  0  0  0  0  0  0
  -22.8399   -8.7878   22.4115 C   0  0  0  0  0  0  0  0  0  0  0  0
  -30.3806  -26.5519   21.3694 C   0  0  0  0  0  0  0  0  0  0  0  0
  -19.3105   -7.9577   21.0119 C   0  0  0  0  0  0  0  0  0  0  0  0
  -18.0982   -7.8957   20.3249 C   0  0  0  0  0  0  0  0  0  0  0  0
  -32.6413  -25.7110   21.3986 C   0  0  0  0  0  0  0  0  0  0  0  0
  -18.8517   -5.9091   19.1746 C   0  0  0  0  0  0  0  0  0  0  0  0
  -23.8204  -10.4617   20.9715 C   0  0  0  0  0  0  0  0  0  0  0  0
  -24.1915  -12.9813   20.8246 C   0  0  0  0  0  0  0  0  0  0  0  0
  -32.5776  -34.1077   22.0964 C   0  0  0  0  0  0  0  0  0  0  0  0
  -32.0198  -27.5301   22.8697 C   0  0  0  0  0  0  0  0  0  0  0  0
  -32.7190  -32.7927   21.6134 C   0  0  0  0  0  0  0  0  0  0  0  0
  -32.9889  -26.6338   22.3969 C   0  0  0  0  0  0  0  0  0  0  0  0
  -22.2584   -8.1740   21.3020 C   0  0  0  0  0  0  0  0  0  0  0  0
  -31.3446  -25.6718   20.8867 C   0  0  0  0  0  0  0  0  0  0  0  0
  -20.2935   -6.9955   20.7802 C   0  0  0  0  0  0  0  0  0  0  0  0
  -17.8688   -6.8714   19.4062 C   0  0  0  0  0  0  0  0  0  0  0  0
  -20.0641   -5.9712   19.8616 C   0  0  0  0  0  0  0  0  0  0  0  0
  -24.6277  -11.6430   20.8014 C   0  0  0  0  0  0  0  0  0  0  0  0
  -25.3321  -13.7178   20.6168 C   0  0  0  0  0  0  0  0  0  0  0  0
  -22.8732  -13.5113   21.0168 C   0  0  0  0  0  0  0  0  0  0  0  0
  -34.3128  -29.7306   22.9312 C   0  0  0  0  0  0  0  0  0  0  0  0
  -35.8169  -27.5501   24.8035 C   0  0  0  0  0  0  0  0  0  0  0  0
  -31.0125  -22.2909   16.9508 C   0  0  0  0  0  0  0  0  0  0  0  0
  -36.1714  -24.2870   25.7379 C   0  0  0  0  0  0  0  0  0  0  0  0
  -28.4438  -20.8409   18.6717 C   0  0  0  0  0  0  0  0  0  0  0  0
  -30.5585  -23.5361   20.4042 C   0  0  0  0  0  0  0  0  0  1  0  0
  -31.1342  -12.6140   21.6007 C   0  0  0  0  0  0  0  0  0  0  0  0
  -33.6817  -34.7956   22.8595 C   0  0  0  0  0  0  0  0  0  0  0  0
  -32.3574  -28.5136   23.9565 C   0  0  0  0  0  0  0  0  0  0  0  0
  -34.3991  -26.6388   22.9260 C   0  0  0  0  0  0  0  0  0  0  0  0
  -34.7251  -33.8332   23.4211 C   0  0  0  0  0  0  0  0  0  0  0  0
  -29.6143  -13.4713   18.4973 C   0  0  0  0  0  0  0  0  0  0  0  0
  -35.1458  -32.8226   22.3588 C   0  0  0  0  0  0  0  0  0  0  0  0
  -28.1246  -13.2207   18.7380 C   0  0  0  0  0  0  0  0  0  0  0  0
  -30.4832  -12.4421   19.2168 C   0  0  0  0  0  0  0  0  0  0  0  0
  -28.7264  -12.0568   20.9017 C   0  0  0  0  0  0  0  0  0  0  0  0
  -33.9546  -31.9695   21.9065 C   0  0  1  0  0  0  0  0  0  0  0  0
  -33.8485  -28.8261   24.0375 C   0  0  1  0  0  0  0  0  0  0  0  0
  -27.8116  -13.1027   20.2418 C   0  0  2  0  0  0  0  0  0  0  0  0
  -31.3068  -23.0439   15.6959 C   0  0  0  0  0  0  0  0  0  0  0  0
  -37.5075  -22.8088   27.2633 C   0  0  0  0  0  0  0  0  0  0  0  0
  -38.1986  -27.7497   22.9067 C   0  0  0  0  0  0  0  0  0  0  0  0
  -39.0755  -25.6234   23.8957 C   0  0  0  0  0  0  0  0  0  0  0  0
  -38.8019  -27.6449   25.3314 C   0  0  0  0  0  0  0  0  0  0  0  0
  -33.7524  -23.4185   27.2054 C   0  0  0  0  0  0  0  0  0  0  0  0
  -26.6004  -23.1684   19.2431 C   0  0  0  0  0  0  0  0  0  0  0  0
  -31.6843  -14.2282   24.4471 C   0  0  0  0  0  0  0  0  0  0  0  0
  -33.9615  -20.2575   22.2856 C   0  0  0  0  0  0  0  0  0  0  0  0
  -31.6290  -12.7653   24.0280 C   0  0  0  0  0  0  0  0  0  0  0  0
  -28.2466  -18.4066   19.1248 C   0  0  0  0  0  0  0  0  0  0  0  0
  -30.3269  -14.7746   24.8728 C   0  0  0  0  0  0  0  0  0  0  0  0
  -33.7693  -18.7790   21.9907 C   0  0  0  0  0  0  0  0  0  0  0  0
  -32.6503  -20.9440   22.6348 C   0  0  0  0  0  0  0  0  0  0  0  0
  -29.5457  -17.7600   18.6798 C   0  0  0  0  0  0  0  0  0  0  0  0
  -29.2444  -16.7021   25.6702 C   0  0  0  0  0  0  0  0  0  0  0  0
  -32.6735  -17.2748   20.5557 C   0  0  0  0  0  0  0  0  0  0  0  0
  -30.8405  -20.9398   24.1339 C   0  0  0  0  0  0  0  0  0  0  0  0
  -31.7151  -17.1927   19.3832 C   0  0  0  0  0  0  0  0  0  0  0  0
  -29.4771  -18.1398   26.0928 C   0  0  0  0  0  0  0  0  0  0  0  0
  -30.2614  -20.2227   25.3382 C   0  0  0  0  0  0  0  0  0  0  0  0
  -36.7495  -26.3894   24.5547 C   0  0  1  0  0  0  0  0  0  0  0  0
  -36.2390  -23.6326   27.1060 C   0  0  2  0  0  0  0  0  0  0  0  0
  -28.7247  -22.1707   19.3644 C   0  0  1  0  0  0  0  0  0  0  0  0
  -30.2079  -22.5567   19.2884 C   0  0  1  0  0  0  0  0  0  0  0  0
  -38.1804  -26.8528   24.1606 C   0  0  0  0  0  0  0  0  0  0  0  0
  -25.9427  -11.5328   20.5951 N   0  0  0  0  0  0  0  0  0  0  0  0
  -26.3427  -12.8112   20.4866 N   0  0  0  0  0  0  0  0  0  0  0  0
  -34.6818  -27.6232   23.9837 N   0  0  0  0  0  0  0  0  0  0  0  0
  -30.1374  -12.3806   20.6390 N   0  0  0  0  0  0  0  0  0  0  0  0
  -25.5591  -15.0460   20.5346 N   0  0  0  0  0  0  0  0  0  0  0  0
  -21.8151  -12.6143   21.2170 N   0  0  0  0  0  0  0  0  0  0  0  0
  -33.6617  -30.9487   22.8897 N   0  0  0  0  0  0  0  0  0  0  0  0
  -28.5006  -19.7651   19.5441 N   0  0  0  0  0  0  0  0  0  0  0  0
  -36.6990  -25.5608   25.7544 N   0  0  0  0  0  0  0  0  0  0  0  0
  -30.5534  -23.0809   17.9893 N   0  0  0  0  0  0  0  0  0  0  0  0
  -30.7205  -12.5428   22.9253 N   0  0  0  0  0  0  0  0  0  0  0  0
  -35.0671  -22.7346   27.3092 N   0  3  0  0  0  0  0  0  0  0  0  0
  -22.6379  -14.7433   20.9947 O   0  0  0  0  0  0  0  0  0  0  0  0
  -35.1974  -29.3520   22.1723 O   0  0  0  0  0  0  0  0  0  0  0  0
  -36.0819  -28.3580   25.6971 O   0  0  0  0  0  0  0  0  0  0  0  0
  -31.1856  -21.0782   16.9824 O   0  0  0  0  0  0  0  0  0  0  0  0
  -35.7011  -23.7230   24.7523 O   0  0  0  0  0  0  0  0  0  0  0  0
  -28.1783  -20.7652   17.4739 O   0  0  0  0  0  0  0  0  0  0  0  0
  -30.4407  -23.2580   21.5937 O   0  0  0  0  0  0  0  0  0  0  0  0
  -32.3049  -12.8722   21.3011 O   0  0  0  0  0  0  0  0  0  0  0  0
  -21.4963   -7.0580   21.4637 O   0  0  0  0  0  0  0  0  0  0  0  0
  -31.0212  -24.7704   19.9199 O   0  0  0  0  0  0  0  0  0  1  0  0
  -27.9378  -23.1878   18.7616 O   0  0  0  0  0  0  0  0  0  0  0  0
  -30.4818  -16.1327   25.2603 O   0  0  0  0  0  0  0  0  0  0  0  0
  -32.8928  -18.6421   20.8809 O   0  0  0  0  0  0  0  0  0  0  0  0
  -32.0705  -20.3249   23.7752 O   0  0  0  0  0  0  0  0  0  0  0  0
  -30.4790  -17.7887   19.7521 O   0  0  0  0  0  0  0  0  0  0  0  0
  -30.0219  -18.8625   24.9976 O   0  0  0  0  0  0  0  0  0  0  0  0
  -16.7039   -6.8110   18.7477 F   0  0  0  0  0  0  0  0  0  0  0  0
  -21.0041   -5.0433   19.6357 F   0  0  0  0  0  0  0  0  0  0  0  0
  1  2  1  0  0  0  0
  1  5  2  0  0  0  0
  2  6  2  0  0  0  0
  3  8  2  0  0  0  0
  3 15  1  0  0  0  0
  4  9  1  0  0  0  0
  4 15  2  0  0  0  0
  5 17  1  0  0  0  0
  6 19  1  0  0  0  0
  7 10  2  0  0  0  0
  7 18  1  0  0  0  0
  8 21  1  0  0  0  0
  9 21  2  0  0  0  0
 10 22  1  0  0  0  0
 11 12  2  0  0  0  0
 11 23  1  0  0  0  0
 12 24  1  0  0  0  0
 13 20  1  0  0  0  0
 13 22  2  0  0  0  0
 14 24  2  0  0  0  0
 14 25  1  0  0  0  0
 15 26  1  0  0  0  0
 16 26  1  0  0  0  0
 16 27  2  0  0  0  0
 16 28  1  0  0  0  0
 17 19  2  0  0  0  0
 17 36  1  0  0  0  0
 18 20  2  0  0  0  0
 18 37  1  0  0  0  0
 19 45  1  0  0  0  0
 20 38  1  0  0  0  0
 21 94  1  0  0  0  0
 22 95  1  0  0  0  0
 23 25  2  0  0  0  0
 23 94  1  0  0  0  0
 24102  1  0  0  0  0
 25103  1  0  0  0  0
 26 74  2  0  0  0  0
 27 75  1  0  0  0  0
 27 78  1  0  0  0  0
 28 79  1  0  0  0  0
 28 86  2  0  0  0  0
 29 46  1  0  0  0  0
 29 80  1  0  0  0  0
 29 87  2  0  0  0  0
 30 69  1  0  0  0  0
 30 76  1  0  0  0  0
 30 88  2  0  0  0  0
 31 48  1  0  0  0  0
 31 83  1  0  0  0  0
 31 89  2  0  0  0  0
 32 70  1  0  0  0  0
 32 82  1  0  0  0  0
 32 90  2  0  0  0  0
 33 71  1  0  0  0  0
 33 81  1  0  0  0  0
 33 91  2  0  0  0  0
 34 72  1  0  0  0  0
 34 92  2  0  0  0  0
 34 95  1  0  0  0  0
 35 77  1  0  0  0  0
 35 84  1  0  0  0  0
 35 93  2  0  0  0  0
 36 39  1  0  0  0  0
 37 46  1  0  0  0  0
 38 76  1  0  0  0  0
 39 41  1  0  0  0  0
 40 42  1  0  0  0  0
 40 43  1  0  0  0  0
 41 45  1  0  0  0  0
 42 47  1  0  0  0  0
 43 77  1  0  0  0  0
 44 47  1  0  0  0  0
 44 77  1  0  0  0  0
 45 80  1  0  0  0  0
 46 76  1  0  0  0  0
 47 75  1  0  0  0  0
 49 70  1  0  0  0  0
 50 73  1  0  0  0  0
 51 73  1  0  0  0  0
 52 73  1  0  0  0  0
 53 85  1  0  0  0  0
 54 96  1  0  0  0  0
 55 57  1  0  0  0  0
 55 59  1  0  0  0  0
 56 60  1  0  0  0  0
 56 61  1  0  0  0  0
 57 84  1  0  0  0  0
 58 62  1  0  0  0  0
 58 81  1  0  0  0  0
 59 97  1  0  0  0  0
 60 98  1  0  0  0  0
 61 99  1  0  0  0  0
 62100  1  0  0  0  0
 63 67  1  0  0  0  0
 63 97  1  0  0  0  0
 64 66  1  0  0  0  0
 64 98  1  0  0  0  0
 65 68  1  0  0  0  0
 65 99  1  0  0  0  0
 66100  1  0  0  0  0
 67101  1  0  0  0  0
 68101  1  0  0  0  0
 69 73  1  0  0  0  0
 69 82  1  0  0  0  0
 70 85  1  0  0  0  0
 71 72  1  0  0  0  0
 71 96  1  0  0  0  0
 72 83  1  0  0  0  0
 74 75  1  0  0  0  0
M  CHG  1  85   1
M  ISO  4  34 101  35 100  84 100  95 101
M  END
> <Batch ID>
0000

> <Smiles>
CNC(C)C(=O)NC(C(=O)N1Cc2cc([101O:1][101C:1](=O)C(NC(C)=O)C(OC)C(=O)NCCOCCOCCCOCCOCCOCCC[100NH:0][100C:0](=O)N3CCCC(n4nc(-c5ccc(Oc6ccc(F)cc6F)cc5)c(C(N)=O)c4N)C3)ccc2CC1C(=O)NC1CCCc2ccccc21)C(C)(C)C

> <Shape>
0.182

> <Color>
0.174

> <Negative vol penalty>
0.000

$$$$

  -OEChem-04052315133D

101109  0     1  0  0  0  0  0999 V2000
  -33.2782  -25.5237   33.6369 C   0  0  0  0  0  0  0  0  0  0  0  0
  -32.9013  -24.4158   32.8845 C   0  0  0  0  0  0  0  0  0  0  0  0
  -27.0161  -16.1473   23.8304 C   0  0  0  0  0  0  0  0  0  0  0  0
  -22.9901   -9.8994   19.9994 C   0  0  0  0  0  0  0  0  0  0  0  0
  -23.7217   -9.9687   22.3010 C   0  0  0  0  0  0  0  0  0  0  0  0
  -27.6665  -17.2952   24.2829 C   0  0  0  0  0  0  0  0  0  0  0  0
  -32.6647  -26.7561   33.4163 C   0  0  0  0  0  0  0  0  0  0  0  0
  -31.9099  -24.5395   31.9118 C   0  0  0  0  0  0  0  0  0  0  0  0
  -31.6146  -21.5790   26.5588 C   0  0  0  0  0  0  0  0  0  0  0  0
  -25.7301  -15.8505   24.2820 C   0  0  0  0  0  0  0  0  0  0  0  0
  -22.2177   -8.7721   20.2789 C   0  0  0  0  0  0  0  0  0  0  0  0
  -22.9492   -8.8414   22.5804 C   0  0  0  0  0  0  0  0  0  0  0  0
  -30.9085  -20.4485   26.1499 C   0  0  0  0  0  0  0  0  0  0  0  0
  -23.1728   -5.4966   22.1407 C   0  0  0  0  0  0  0  0  0  0  0  0
  -23.7564   -4.4835   22.9013 C   0  0  0  0  0  0  0  0  0  0  0  0
  -25.7451  -17.8495   25.6387 C   0  0  0  0  0  0  0  0  0  0  0  0
  -29.1720  -21.8641   25.2556 C   0  0  0  0  0  0  0  0  0  0  0  0
  -22.0383   -4.7529   24.5785 C   0  0  0  0  0  0  0  0  0  0  0  0
  -23.7422  -10.4977   21.0105 C   0  0  0  0  0  0  0  0  0  0  0  0
  -27.0311  -18.1463   25.1870 C   0  0  0  0  0  0  0  0  0  0  0  0
  -24.1417  -13.0091   20.8088 C   0  0  0  0  0  0  0  0  0  0  0  0
  -31.6720  -26.8972   32.4337 C   0  0  0  0  0  0  0  0  0  0  0  0
  -31.0986  -22.8624   26.3285 C   0  0  0  0  0  0  0  0  0  0  0  0
  -31.2816  -25.7747   31.6787 C   0  0  0  0  0  0  0  0  0  0  0  0
  -29.8747  -23.0093   25.6603 C   0  0  0  0  0  0  0  0  0  0  0  0
  -22.1972   -8.2431   21.5694 C   0  0  0  0  0  0  0  0  0  0  0  0
  -25.0946  -16.7016   25.1861 C   0  0  0  0  0  0  0  0  0  0  0  0
  -29.6856  -20.5909   25.5007 C   0  0  0  0  0  0  0  0  0  0  0  0
  -22.0220   -6.1380   22.5991 C   0  0  0  0  0  0  0  0  0  0  0  0
  -23.1891   -4.1115   24.1201 C   0  0  0  0  0  0  0  0  0  0  0  0
  -21.4548   -5.7661   23.8179 C   0  0  0  0  0  0  0  0  0  0  0  0
  -24.5407  -11.6619   20.7223 C   0  0  0  0  0  0  0  0  0  0  0  0
  -25.2547  -13.7216   20.4344 C   0  0  0  0  0  0  0  0  0  0  0  0
  -22.8780  -13.5667   21.1932 C   0  0  0  0  0  0  0  0  0  0  0  0
  -27.7233  -19.3691   25.6691 C   0  0  0  0  0  0  0  0  0  1  0  0
  -30.1975  -25.2834   28.1807 C   0  0  0  0  0  0  0  0  0  0  0  0
  -29.8664  -26.8209   25.3437 C   0  0  0  0  0  0  0  0  0  0  0  0
  -21.5377  -16.0571   24.9732 C   0  0  0  0  0  0  0  0  0  0  0  0
  -29.3714  -26.6084   21.9737 C   0  0  0  0  0  0  0  0  0  0  0  0
  -30.7570  -14.6264   20.6596 C   0  0  0  0  0  0  0  0  0  0  0  0
  -31.0041  -28.2387   32.2640 C   0  0  0  0  0  0  0  0  0  0  0  0
  -31.8853  -24.0725   26.7521 C   0  0  0  0  0  0  0  0  0  0  0  0
  -29.2869  -24.3655   25.3710 C   0  0  0  0  0  0  0  0  0  0  0  0
  -30.2266  -28.3710   30.9570 C   0  0  0  0  0  0  0  0  0  0  0  0
  -29.5960  -12.1866   18.3410 C   0  0  0  0  0  0  0  0  0  0  0  0
  -29.3636  -27.1354   30.7218 C   0  0  0  0  0  0  0  0  0  0  0  0
  -28.1472  -11.9394   18.7648 C   0  0  0  0  0  0  0  0  0  0  0  0
  -30.5030  -12.4285   19.5455 C   0  0  0  0  0  0  0  0  0  0  0  0
  -28.6011  -13.2483   20.8813 C   0  0  0  0  0  0  0  0  0  0  0  0
  -30.2276  -25.8746   30.5974 C   0  0  1  0  0  0  0  0  0  0  0  0
  -31.0203  -25.3173   26.9239 C   0  0  1  0  0  0  0  0  0  0  0  0
  -27.6379  -13.0546   19.6977 C   0  0  2  0  0  0  0  0  0  0  0  0
  -29.1087  -28.0369   19.9273 C   0  0  0  0  0  0  0  0  0  0  0  0
  -27.0147  -27.5023   26.1883 C   0  0  0  0  0  0  0  0  0  0  0  0
  -26.5166  -28.0668   23.8005 C   0  0  0  0  0  0  0  0  0  0  0  0
  -28.2397  -29.3641   25.0536 C   0  0  0  0  0  0  0  0  0  0  0  0
  -31.7705  -25.4310   20.7021 C   0  0  0  0  0  0  0  0  0  0  0  0
  -22.9881  -15.6941   24.7356 C   0  0  0  0  0  0  0  0  0  0  0  0
  -19.2539  -15.5176   24.1433 C   0  0  0  0  0  0  0  0  0  0  0  0
  -30.8556  -16.8163   21.8231 C   0  0  0  0  0  0  0  0  0  0  0  0
  -18.8511  -16.6221   23.1832 C   0  0  0  0  0  0  0  0  0  0  0  0
  -30.6040  -17.9252   20.8171 C   0  0  0  0  0  0  0  0  0  0  0  0
  -19.0879  -18.9161   22.7315 C   0  0  0  0  0  0  0  0  0  0  0  0
  -28.9238  -19.2282   19.8161 C   0  0  0  0  0  0  0  0  0  0  0  0
  -19.7204  -20.1967   23.2412 C   0  0  0  0  0  0  0  0  0  0  0  0
  -27.4245  -19.4516   19.7700 C   0  0  0  0  0  0  0  0  0  0  0  0
  -21.7794  -21.2036   23.7608 C   0  0  0  0  0  0  0  0  0  0  0  0
  -25.5638  -20.0292   21.0840 C   0  0  0  0  0  0  0  0  0  0  0  0
  -23.2750  -20.9576   23.8114 C   0  0  0  0  0  0  0  0  0  0  0  0
  -25.1346  -20.3804   22.4955 C   0  0  0  0  0  0  0  0  0  0  0  0
  -28.7479  -26.9913   24.3442 C   0  0  1  0  0  0  0  0  0  0  0  0
  -30.0832  -27.2697   20.8074 C   0  0  2  0  0  0  0  0  0  0  0  0
  -27.6396  -27.9554   24.8537 C   0  0  0  0  0  0  0  0  0  0  0  0
  -25.8082  -11.5241   20.3241 N   0  0  0  0  0  0  0  0  0  0  0  0
  -26.2152  -12.7939   20.1570 N   0  0  0  0  0  0  0  0  0  0  0  0
  -30.0909  -25.5179   25.8103 N   0  0  0  0  0  0  0  0  0  0  0  0
  -29.9646  -13.4987   20.3886 N   0  0  0  0  0  0  0  0  0  0  0  0
  -25.4956  -15.0449   20.3187 N   0  0  0  0  0  0  0  0  0  0  0  0
  -21.8419  -12.6921   21.5480 N   0  0  0  0  0  0  0  0  0  0  0  0
  -30.8383  -25.8076   29.2870 N   0  0  0  0  0  0  0  0  0  0  0  0
  -20.6901  -15.3604   24.1261 N   0  0  0  0  0  0  0  0  0  0  0  0
  -29.3763  -27.4097   23.0958 N   0  0  0  0  0  0  0  0  0  0  0  0
  -30.1684  -15.5965   21.4615 N   0  0  0  0  0  0  0  0  0  0  0  0
  -30.7666  -26.2445   19.9690 N   0  3  0  0  0  0  0  0  0  0  0  0
  -22.6685  -14.8035   21.2054 O   0  0  0  0  0  0  0  0  0  0  0  0
  -27.2217  -20.1540   26.4599 O   0  0  0  0  0  0  0  0  0  0  0  0
  -29.0645  -24.8175   28.1487 O   0  0  0  0  0  0  0  0  0  0  0  0
  -30.5215  -27.8063   25.6919 O   0  0  0  0  0  0  0  0  0  0  0  0
  -21.1879  -16.8730   25.8217 O   0  0  0  0  0  0  0  0  0  0  0  0
  -28.8587  -25.4941   21.8959 O   0  0  0  0  0  0  0  0  0  0  0  0
  -31.9021  -14.7612   20.2151 O   0  0  0  0  0  0  0  0  0  0  0  0
  -21.4434   -7.1432   21.8425 O   0  0  0  0  0  0  0  0  0  0  0  0
  -28.9941  -19.4891   25.1011 O   0  0  0  0  0  0  0  0  0  1  0  0
  -23.8399  -16.4123   25.6268 O   0  0  0  0  0  0  0  0  0  0  0  0
  -19.4369  -17.8483   23.6016 O   0  0  0  0  0  0  0  0  0  0  0  0
  -29.2104  -18.1930   20.7485 O   0  0  0  0  0  0  0  0  0  0  0  0
  -21.1323  -20.0302   23.2886 O   0  0  0  0  0  0  0  0  0  0  0  0
  -26.9686  -19.8069   21.0679 O   0  0  0  0  0  0  0  0  0  0  0  0
  -23.7346  -20.6224   22.5077 O   0  0  0  0  0  0  0  0  0  0  0  0
  -23.7488   -3.1375   24.8496 F   0  0  0  0  0  0  0  0  0  0  0  0
  -20.3486   -6.3779   24.2629 F   0  0  0  0  0  0  0  0  0  0  0  0
  1  2  1  0  0  0  0
  1  7  2  0  0  0  0
  2  8  2  0  0  0  0
  3  6  2  0  0  0  0
  3 10  1  0  0  0  0
  4 11  2  0  0  0  0
  4 19  1  0  0  0  0
  5 12  1  0  0  0  0
  5 19  2  0  0  0  0
  6 20  1  0  0  0  0
  7 22  1  0  0  0  0
  8 24  1  0  0  0  0
  9 13  2  0  0  0  0
  9 23  1  0  0  0  0
 10 27  2  0  0  0  0
 11 26  1  0  0  0  0
 12 26  2  0  0  0  0
 13 28  1  0  0  0  0
 14 15  2  0  0  0  0
 14 29  1  0  0  0  0
 15 30  1  0  0  0  0
 16 20  2  0  0  0  0
 16 27  1  0  0  0  0
 17 25  1  0  0  0  0
 17 28  2  0  0  0  0
 18 30  2  0  0  0  0
 18 31  1  0  0  0  0
 19 32  1  0  0  0  0
 20 35  1  0  0  0  0
 21 32  1  0  0  0  0
 21 33  2  0  0  0  0
 21 34  1  0  0  0  0
 22 24  2  0  0  0  0
 22 41  1  0  0  0  0
 23 25  2  0  0  0  0
 23 42  1  0  0  0  0
 24 50  1  0  0  0  0
 25 43  1  0  0  0  0
 26 92  1  0  0  0  0
 27 94  1  0  0  0  0
 28 93  1  0  0  0  0
 29 31  2  0  0  0  0
 29 92  1  0  0  0  0
 30100  1  0  0  0  0
 31101  1  0  0  0  0
 32 74  2  0  0  0  0
 33 75  1  0  0  0  0
 33 78  1  0  0  0  0
 34 79  1  0  0  0  0
 34 85  2  0  0  0  0
 35 86  2  0  0  0  0
 35 93  1  0  0  0  0
 36 51  1  0  0  0  0
 36 80  1  0  0  0  0
 36 87  2  0  0  0  0
 37 71  1  0  0  0  0
 37 76  1  0  0  0  0
 37 88  2  0  0  0  0
 38 58  1  0  0  0  0
 38 81  1  0  0  0  0
 38 89  2  0  0  0  0
 39 72  1  0  0  0  0
 39 82  1  0  0  0  0
 39 90  2  0  0  0  0
 40 77  1  0  0  0  0
 40 83  1  0  0  0  0
 40 91  2  0  0  0  0
 41 44  1  0  0  0  0
 42 51  1  0  0  0  0
 43 76  1  0  0  0  0
 44 46  1  0  0  0  0
 45 47  1  0  0  0  0
 45 48  1  0  0  0  0
 46 50  1  0  0  0  0
 47 52  1  0  0  0  0
 48 77  1  0  0  0  0
 49 52  1  0  0  0  0
 49 77  1  0  0  0  0
 50 80  1  0  0  0  0
 51 76  1  0  0  0  0
 52 75  1  0  0  0  0
 53 72  1  0  0  0  0
 54 73  1  0  0  0  0
 55 73  1  0  0  0  0
 56 73  1  0  0  0  0
 57 84  1  0  0  0  0
 58 94  1  0  0  0  0
 59 61  1  0  0  0  0
 59 81  1  0  0  0  0
 60 62  1  0  0  0  0
 60 83  1  0  0  0  0
 61 95  1  0  0  0  0
 62 96  1  0  0  0  0
 63 65  1  0  0  0  0
 63 95  1  0  0  0  0
 64 66  1  0  0  0  0
 64 96  1  0  0  0  0
 65 97  1  0  0  0  0
 66 98  1  0  0  0  0
 67 69  1  0  0  0  0
 67 97  1  0  0  0  0
 68 70  1  0  0  0  0
 68 98  1  0  0  0  0
 69 99  1  0  0  0  0
 70 99  1  0  0  0  0
 71 73  1  0  0  0  0
 71 82  1  0  0  0  0
 72 84  1  0  0  0  0
 74 75  1  0  0  0  0
M  CHG  1  84   1
M  ISO  4  35 101  40 100  83 100  93 101
M  END
> <Batch ID>
0000

> <Smiles>
CNC(C)C(=O)NC(C(=O)N1Cc2cc([101O:1][101C:1](=O)c3cccc(OCC(=O)NCCOCCOCCOCCOCCOCC[100NH:0][100C:0](=O)N4CCCC(n5nc(-c6ccc(Oc7ccc(F)cc7F)cc6)c(C(N)=O)c5N)C4)c3)ccc2CC1C(=O)NC1CCCc2ccccc21)C(C)(C)C

> <Shape>
0.215

> <Color>
0.177

> <Negative vol penalty>
0.000

$$$$

  -OEChem-04052315133D

 96104  0     1  0  0  0  0  0999 V2000
  -31.4126  -34.1223   24.4473 C   0  0  0  0  0  0  0  0  0  0  0  0
  -31.3473  -32.9987   23.6296 C   0  0  0  0  0  0  0  0  0  0  0  0
  -20.9848  -12.2897   22.0564 C   0  0  0  0  0  0  0  0  0  0  0  0
  -20.8620  -12.1401   19.6481 C   0  0  0  0  0  0  0  0  0  0  0  0
  -30.4575  -34.3134   25.4449 C   0  0  0  0  0  0  0  0  0  0  0  0
  -30.3275  -32.0650   23.8097 C   0  0  0  0  0  0  0  0  0  0  0  0
  -27.5228  -28.7913   19.4597 C   0  0  0  0  0  0  0  0  0  0  0  0
  -29.3941  -18.9352   19.7813 C   0  0  0  0  0  0  0  0  0  0  0  0
  -27.9615  -18.3899   21.6488 C   0  0  0  0  0  0  0  0  0  0  0  0
  -28.8398  -20.2141   19.7295 C   0  0  0  0  0  0  0  0  0  0  0  0
  -27.4072  -19.6689   21.5970 C   0  0  0  0  0  0  0  0  0  0  0  0
  -19.9671  -11.3423   22.1671 C   0  0  0  0  0  0  0  0  0  0  0  0
  -19.8443  -11.1926   19.7589 C   0  0  0  0  0  0  0  0  0  0  0  0
  -27.7004  -27.4843   19.0083 C   0  0  0  0  0  0  0  0  0  0  0  0
  -17.6504   -8.6965   23.0879 C   0  0  0  0  0  0  0  0  0  0  0  0
  -17.8165   -7.6725   24.0203 C   0  0  0  0  0  0  0  0  0  0  0  0
  -25.9175  -26.7481   20.4568 C   0  0  0  0  0  0  0  0  0  0  0  0
  -19.8218   -6.9577   22.8779 C   0  0  0  0  0  0  0  0  0  0  0  0
  -21.4322  -12.6887   20.7968 C   0  0  0  0  0  0  0  0  0  0  0  0
  -23.8685  -13.4253   20.6260 C   0  0  0  0  0  0  0  0  0  0  0  0
  -29.4199  -33.3865   25.6311 C   0  0  0  0  0  0  0  0  0  0  0  0
  -26.5468  -29.0853   20.4228 C   0  0  0  0  0  0  0  0  0  0  0  0
  -29.3584  -32.2432   24.8116 C   0  0  0  0  0  0  0  0  0  0  0  0
  -25.7278  -28.0601   20.9169 C   0  0  0  0  0  0  0  0  0  0  0  0
  -28.9549  -18.0231   20.7410 C   0  0  0  0  0  0  0  0  0  0  0  0
  -27.8463  -20.5810   20.6374 C   0  0  0  0  0  0  0  0  0  0  0  0
  -19.3969  -10.7936   21.0184 C   0  0  0  0  0  0  0  0  0  0  0  0
  -26.8997  -26.4619   19.5090 C   0  0  0  0  0  0  0  0  0  0  0  0
  -18.5699   -8.8512   22.0505 C   0  0  0  0  0  0  0  0  0  0  0  0
  -18.9022   -6.8031   23.9153 C   0  0  0  0  0  0  0  0  0  0  0  0
  -19.6556   -7.9818   21.9455 C   0  0  0  0  0  0  0  0  0  0  0  0
  -22.4830  -13.6678   20.6817 C   0  0  0  0  0  0  0  0  0  0  0  0
  -24.4316  -14.6734   20.5189 C   0  0  0  0  0  0  0  0  0  0  0  0
  -24.5828  -12.1827   20.6672 C   0  0  0  0  0  0  0  0  0  0  0  0
  -26.5921  -30.2578   23.3769 C   0  0  0  0  0  0  0  0  0  0  0  0
  -23.3673  -30.2024   23.0305 C   0  0  0  0  0  0  0  0  0  0  0  0
  -27.6009  -22.9042   19.7011 C   0  0  0  0  0  0  0  0  0  0  0  0
  -20.6440  -28.8670   21.4663 C   0  0  0  0  0  0  0  0  0  0  0  0
  -22.3875  -19.9041   18.4420 C   0  0  0  0  0  0  0  0  0  0  0  0
  -28.4379  -33.6118   26.7534 C   0  0  0  0  0  0  0  0  0  0  0  0
  -26.3498  -30.5047   20.8797 C   0  0  0  0  0  0  0  0  0  0  0  0
  -24.6521  -28.3265   21.9370 C   0  0  0  0  0  0  0  0  0  0  0  0
  -27.1725  -32.7663   26.6345 C   0  0  0  0  0  0  0  0  0  0  0  0
  -23.6579  -19.2443   21.7019 C   0  0  0  0  0  0  0  0  0  0  0  0
  -27.5262  -31.3192   26.3066 C   0  0  0  0  0  0  0  0  0  0  0  0
  -23.6259  -17.7184   21.8051 C   0  0  0  0  0  0  0  0  0  0  0  0
  -22.4648  -19.7819   20.9149 C   0  0  0  0  0  0  0  0  0  0  0  0
  -22.2525  -17.6588   19.6817 C   0  0  0  0  0  0  0  0  0  0  0  0
  -28.2529  -31.2205   24.9599 C   0  0  1  0  0  0  0  0  0  0  0  0
  -25.6707  -30.6051   22.2420 C   0  0  1  0  0  0  0  0  0  0  0  0
  -23.4655  -17.0659   20.4188 C   0  0  2  0  0  0  0  0  0  0  0  0
  -18.1382  -28.9953   21.4216 C   0  0  0  0  0  0  0  0  0  0  0  0
  -23.2415  -28.6021   25.6254 C   0  0  0  0  0  0  0  0  0  0  0  0
  -20.8951  -27.9596   25.0338 C   0  0  0  0  0  0  0  0  0  0  0  0
  -21.4758  -30.3584   25.3962 C   0  0  0  0  0  0  0  0  0  0  0  0
  -20.6225  -29.7224   18.6331 C   0  0  0  0  0  0  0  0  0  0  0  0
  -29.5476  -16.6557   20.7962 C   0  0  0  0  0  0  0  0  0  0  0  0
  -26.7631  -24.1364   19.9878 C   0  0  0  0  0  0  0  0  0  1  0  0
  -23.7202  -20.0267   15.3999 C   0  0  0  0  0  0  0  0  0  0  0  0
  -24.4381  -18.6888   15.2200 C   0  0  0  0  0  0  0  0  0  0  0  0
  -22.3114  -19.8630   15.9617 C   0  0  0  0  0  0  0  0  0  0  0  0
  -25.8263  -18.8749   14.6204 C   0  0  0  0  0  0  0  0  0  0  0  0
  -29.5688  -14.5582   19.7365 C   0  0  0  0  0  0  0  0  0  0  0  0
  -28.9657  -13.7684   18.5909 C   0  0  0  0  0  0  0  0  0  0  0  0
  -27.7530  -17.7432   13.8926 C   0  0  0  0  0  0  0  0  0  0  0  0
  -28.3769  -16.3674   13.7589 C   0  0  0  0  0  0  0  0  0  0  0  0
  -28.7264  -13.7248   16.2534 C   0  0  0  0  0  0  0  0  0  0  0  0
  -29.0611  -14.4812   14.9823 C   0  0  0  0  0  0  0  0  0  0  0  0
  -22.2800  -29.1910   23.3027 C   0  0  1  0  0  0  0  0  0  0  0  0
  -19.4339  -29.5172   20.8203 C   0  0  2  0  0  0  0  0  0  0  0  0
  -21.9946  -29.0221   24.8218 C   0  0  0  0  0  0  0  0  0  0  0  0
  -22.1840  -14.9679   20.6157 N   0  0  0  0  0  0  0  0  0  0  0  0
  -23.3897  -15.5535   20.5174 N   0  0  0  0  0  0  0  0  0  0  0  0
  -24.5026  -29.7296   22.3571 N   0  0  0  0  0  0  0  0  0  0  0  0
  -22.3702  -19.1236   19.6097 N   0  0  0  0  0  0  0  0  0  0  0  0
  -25.7114  -15.0931   20.4268 N   0  0  0  0  0  0  0  0  0  0  0  0
  -23.8492  -10.9938   20.7792 N   0  0  0  0  0  0  0  0  0  0  0  0
  -27.2840  -21.8785   20.5852 N   0  0  0  0  0  0  0  0  0  0  0  0
  -27.3101  -31.3316   23.8675 N   0  0  0  0  0  0  0  0  0  0  0  0
  -21.1235  -29.6147   22.5209 N   0  0  0  0  0  0  0  0  0  0  0  0
  -22.2999  -19.2005   17.2469 N   0  0  0  0  0  0  0  0  0  0  0  0
  -19.4173  -29.2409   19.3560 N   0  3  0  0  0  0  0  0  0  0  0  0
  -25.8353  -12.1295   20.6230 O   0  0  0  0  0  0  0  0  0  0  0  0
  -26.6464  -29.1014   23.7788 O   0  0  0  0  0  0  0  0  0  0  0  0
  -23.2119  -31.3704   23.3955 O   0  0  0  0  0  0  0  0  0  0  0  0
  -28.4279  -22.8860   18.7954 O   0  0  0  0  0  0  0  0  0  0  0  0
  -21.1143  -27.8004   21.0768 O   0  0  0  0  0  0  0  0  0  0  0  0
  -22.4799  -21.1361   18.4627 O   0  0  0  0  0  0  0  0  0  0  0  0
  -18.4041   -9.8689   21.1262 O   0  0  0  0  0  0  0  0  0  0  0  0
  -27.0714  -25.1851   19.0705 O   0  0  0  0  0  0  0  0  0  1  0  0
  -29.0318  -15.8736   19.7260 O   0  0  0  0  0  0  0  0  0  0  0  0
  -26.4518  -17.6105   14.4515 O   0  0  0  0  0  0  0  0  0  0  0  0
  -29.2689  -14.4235   17.3652 O   0  0  0  0  0  0  0  0  0  0  0  0
  -28.4804  -15.7781   15.0475 O   0  0  0  0  0  0  0  0  0  0  0  0
  -19.0624   -5.8206   24.8115 F   0  0  0  0  0  0  0  0  0  0  0  0
  -20.5430   -8.1261   20.9517 F   0  0  0  0  0  0  0  0  0  0  0  0
  1  2  1  0  0  0  0
  1  5  2  0  0  0  0
  2  6  2  0  0  0  0
  3 12  2  0  0  0  0
  3 19  1  0  0  0  0
  4 13  1  0  0  0  0
  4 19  2  0  0  0  0
  5 21  1  0  0  0  0
  6 23  1  0  0  0  0
  7 14  2  0  0  0  0
  7 22  1  0  0  0  0
  8 10  2  0  0  0  0
  8 25  1  0  0  0  0
  9 11  1  0  0  0  0
  9 25  2  0  0  0  0
 10 26  1  0  0  0  0
 11 26  2  0  0  0  0
 12 27  1  0  0  0  0
 13 27  2  0  0  0  0
 14 28  1  0  0  0  0
 15 16  2  0  0  0  0
 15 29  1  0  0  0  0
 16 30  1  0  0  0  0
 17 24  1  0  0  0  0
 17 28  2  0  0  0  0
 18 30  2  0  0  0  0
 18 31  1  0  0  0  0
 19 32  1  0  0  0  0
 20 32  1  0  0  0  0
 20 33  2  0  0  0  0
 20 34  1  0  0  0  0
 21 23  2  0  0  0  0
 21 40  1  0  0  0  0
 22 24  2  0  0  0  0
 22 41  1  0  0  0  0
 23 49  1  0  0  0  0
 24 42  1  0  0  0  0
 25 57  1  0  0  0  0
 26 78  1  0  0  0  0
 27 89  1  0  0  0  0
 28 90  1  0  0  0  0
 29 31  2  0  0  0  0
 29 89  1  0  0  0  0
 30 95  1  0  0  0  0
 31 96  1  0  0  0  0
 32 72  2  0  0  0  0
 33 73  1  0  0  0  0
 33 76  1  0  0  0  0
 34 77  1  0  0  0  0
 34 83  2  0  0  0  0
 35 50  1  0  0  0  0
 35 79  1  0  0  0  0
 35 84  2  0  0  0  0
 36 69  1  0  0  0  0
 36 74  1  0  0  0  0
 36 85  2  0  0  0  0
 37 58  1  0  0  0  0
 37 78  1  0  0  0  0
 37 86  2  0  0  0  0
 38 70  1  0  0  0  0
 38 80  1  0  0  0  0
 38 87  2  0  0  0  0
 39 75  1  0  0  0  0
 39 81  1  0  0  0  0
 39 88  2  0  0  0  0
 40 43  1  0  0  0  0
 41 50  1  0  0  0  0
 42 74  1  0  0  0  0
 43 45  1  0  0  0  0
 44 46  1  0  0  0  0
 44 47  1  0  0  0  0
 45 49  1  0  0  0  0
 46 51  1  0  0  0  0
 47 75  1  0  0  0  0
 48 51  1  0  0  0  0
 48 75  1  0  0  0  0
 49 79  1  0  0  0  0
 50 74  1  0  0  0  0
 51 73  1  0  0  0  0
 52 70  1  0  0  0  0
 53 71  1  0  0  0  0
 54 71  1  0  0  0  0
 55 71  1  0  0  0  0
 56 82  1  0  0  0  0
 57 91  1  0  0  0  0
 58 90  1  0  0  0  0
 59 60  1  0  0  0  0
 59 61  1  0  0  0  0
 60 62  1  0  0  0  0
 61 81  1  0  0  0  0
 62 92  1  0  0  0  0
 63 64  1  0  0  0  0
 63 91  1  0  0  0  0
 64 93  1  0  0  0  0
 65 66  1  0  0  0  0
 65 92  1  0  0  0  0
 66 94  1  0  0  0  0
 67 68  1  0  0  0  0
 67 93  1  0  0  0  0
 68 94  1  0  0  0  0
 69 71  1  0  0  0  0
 69 80  1  0  0  0  0
 70 82  1  0  0  0  0
 72 73  1  0  0  0  0
M  CHG  1  82   1
M  ISO  4  39 100  58 101  81 100  90 101
M  END
> <Batch ID>
0000

> <Smiles>
CNC(C)C(=O)NC(C(=O)N1Cc2cc([101O:1][101CH2:1]C(=O)Nc3ccc(COCCOCCOCCOCCCC[100NH:0][100C:0](=O)N4CCCC(n5nc(-c6ccc(Oc7ccc(F)cc7F)cc6)c(C(N)=O)c5N)C4)cc3)ccc2CC1C(=O)NC1CCCc2ccccc21)C(C)(C)C

> <Shape>
0.231

> <Color>
0.115

> <Negative vol penalty>
0.000

$$$$

  -OEChem-04052315133D

105114  0     1  0  0  0  0  0999 V2000
  -23.8697  -32.5412   20.6501 C   0  0  0  0  0  0  0  0  0  0  0  0
  -23.6859  -31.3008   20.0476 C   0  0  0  0  0  0  0  0  0  0  0  0
  -25.6150  -20.5950   20.7434 C   0  0  0  0  0  0  0  0  0  0  0  0
  -23.0254   -9.9017   19.9690 C   0  0  0  0  0  0  0  0  0  0  0  0
  -23.7549   -9.9399   22.2720 C   0  0  0  0  0  0  0  0  0  0  0  0
  -21.9799  -22.4557   18.3523 C   0  0  0  0  0  0  0  0  0  0  0  0
  -20.9887  -24.2591   19.6181 C   0  0  0  0  0  0  0  0  0  0  0  0
  -24.8368  -32.6965   21.6424 C   0  0  0  0  0  0  0  0  0  0  0  0
  -24.4699  -30.2151   20.4363 C   0  0  0  0  0  0  0  0  0  0  0  0
  -21.4589  -24.2042   23.0236 C   0  0  0  0  0  0  0  0  0  0  0  0
  -25.7061  -21.9351   20.3672 C   0  0  0  0  0  0  0  0  0  0  0  0
  -26.7091  -19.7468   20.5729 C   0  0  0  0  0  0  0  0  0  0  0  0
  -22.2628   -8.7632   20.2294 C   0  0  0  0  0  0  0  0  0  0  0  0
  -22.9922   -8.8014   22.5324 C   0  0  0  0  0  0  0  0  0  0  0  0
  -20.7420  -21.8157   18.2947 C   0  0  0  0  0  0  0  0  0  0  0  0
  -19.7507  -23.6191   19.5605 C   0  0  0  0  0  0  0  0  0  0  0  0
  -20.9479  -22.9427   23.3298 C   0  0  0  0  0  0  0  0  0  0  0  0
  -21.5224   -5.6961   23.7184 C   0  0  0  0  0  0  0  0  0  0  0  0
  -22.1129   -4.6772   24.4659 C   0  0  0  0  0  0  0  0  0  0  0  0
  -23.1906  -22.1054   23.6719 C   0  0  0  0  0  0  0  0  0  0  0  0
  -27.9855  -21.5787   19.6498 C   0  0  0  0  0  0  0  0  0  0  0  0
  -23.8367   -4.4461   22.7889 C   0  0  0  0  0  0  0  0  0  0  0  0
  -23.7715  -10.4900   20.9903 C   0  0  0  0  0  0  0  0  0  0  0  0
  -22.1033  -23.6775   19.0141 C   0  0  0  0  0  0  0  0  0  0  0  0
  -24.1489  -13.0079   20.8299 C   0  0  0  0  0  0  0  0  0  0  0  0
  -25.6264  -31.6099   22.0502 C   0  0  0  0  0  0  0  0  0  0  0  0
  -22.8386  -24.4252   23.0554 C   0  0  0  0  0  0  0  0  0  0  0  0
  -25.4494  -30.3563   21.4340 C   0  0  0  0  0  0  0  0  0  0  0  0
  -23.7076  -23.3701   23.3782 C   0  0  0  0  0  0  0  0  0  0  0  0
  -26.8913  -22.4269   19.8204 C   0  0  0  0  0  0  0  0  0  0  0  0
  -22.2462   -8.2131   21.5111 C   0  0  0  0  0  0  0  0  0  0  0  0
  -19.6273  -22.3973   18.8987 C   0  0  0  0  0  0  0  0  0  0  0  0
  -21.8117  -21.8959   23.6529 C   0  0  0  0  0  0  0  0  0  0  0  0
  -27.8943  -20.2386   20.0261 C   0  0  0  0  0  0  0  0  0  0  0  0
  -22.0890   -6.0900   22.5062 C   0  0  0  0  0  0  0  0  0  0  0  0
  -23.2701   -4.0522   24.0012 C   0  0  0  0  0  0  0  0  0  0  0  0
  -23.2462   -5.4650   22.0415 C   0  0  0  0  0  0  0  0  0  0  0  0
  -24.5599  -11.6658   20.7218 C   0  0  0  0  0  0  0  0  0  0  0  0
  -25.2558  -13.7362   20.4681 C   0  0  0  0  0  0  0  0  0  0  0  0
  -23.3942  -24.3448   19.0742 C   0  0  0  0  0  0  0  0  0  0  0  0
  -24.5921  -23.7475   18.8843 C   0  0  0  0  0  0  0  0  0  0  0  0
  -22.8801  -13.5479   21.2224 C   0  0  0  0  0  0  0  0  0  0  0  0
  -25.8551  -24.5398   18.9899 C   0  0  0  0  0  0  0  0  0  0  0  0
  -25.6576  -26.8616   22.6158 C   0  0  0  0  0  0  0  0  0  0  0  0
  -26.3376  -25.1446   25.0652 C   0  0  0  0  0  0  0  0  0  0  0  0
  -26.5116  -23.3230   27.9442 C   0  0  0  0  0  0  0  0  0  0  0  0
  -30.7498  -14.6857   20.7122 C   0  0  0  0  0  0  0  0  0  0  0  0
  -26.6915  -31.8376   23.0935 C   0  0  0  0  0  0  0  0  0  0  0  0
  -23.4369  -25.7517   22.6727 C   0  0  0  0  0  0  0  0  0  0  0  0
  -25.1865  -23.6452   23.3661 C   0  0  0  0  0  0  0  0  0  0  0  0
  -27.2243  -30.5476   23.7118 C   0  0  0  0  0  0  0  0  0  0  0  0
  -29.6119  -12.2739   18.3532 C   0  0  0  0  0  0  0  0  0  0  0  0
  -27.5302  -29.5216   22.6252 C   0  0  0  0  0  0  0  0  0  0  0  0
  -28.1650  -12.0071   18.7718 C   0  0  0  0  0  0  0  0  0  0  0  0
  -30.5159  -12.5041   19.5622 C   0  0  0  0  0  0  0  0  0  0  0  0
  -28.6060  -13.2852   20.9098 C   0  0  0  0  0  0  0  0  0  0  0  0
  -26.2633  -29.1488   21.8459 C   0  0  1  0  0  0  0  0  0  0  0  0
  -24.6980  -26.1012   23.4831 C   0  0  1  0  0  0  0  0  0  0  0  0
  -27.6452  -13.1023   19.7224 C   0  0  2  0  0  0  0  0  0  0  0  0
  -27.9784  -22.9327   29.9427 C   0  0  0  0  0  0  0  0  0  0  0  0
  -28.2301  -23.4806   23.3467 C   0  0  0  0  0  0  0  0  0  0  0  0
  -29.0551  -22.3850   25.4413 C   0  0  0  0  0  0  0  0  0  0  0  0
  -29.3537  -24.8406   25.1193 C   0  0  0  0  0  0  0  0  0  0  0  0
  -28.2944  -24.4771   19.5946 C   0  0  0  0  0  0  0  0  0  0  0  0
  -24.4063  -24.2365   29.8130 C   0  0  0  0  0  0  0  0  0  0  0  0
  -30.5751  -17.9922   20.9285 C   0  0  0  0  0  0  0  0  0  0  0  0
  -30.8283  -16.8571   21.9114 C   0  0  0  0  0  0  0  0  0  0  0  0
  -17.5690  -17.2761   20.7770 C   0  0  0  0  0  0  0  0  0  0  0  0
  -19.2657  -16.4005   22.3874 C   0  0  0  0  0  0  0  0  0  0  0  0
  -29.0966  -18.3310   20.7822 C   0  0  0  0  0  0  0  0  0  0  0  0
  -16.6602  -18.4631   20.5258 C   0  0  0  0  0  0  0  0  0  0  0  0
  -20.0276  -16.7735   23.6438 C   0  0  0  0  0  0  0  0  0  0  0  0
  -17.5246  -21.9896   19.9321 C   0  0  0  0  0  0  0  0  0  0  0  0
  -22.2435  -19.6416   24.2767 C   0  0  0  0  0  0  0  0  0  1  0  0
  -16.6334  -20.7740   20.0993 C   0  0  0  0  0  0  0  0  0  0  0  0
  -21.4911  -18.3592   24.5748 C   0  0  0  0  0  0  0  0  0  0  0  0
  -27.0462  -23.9248   25.5977 C   0  0  1  0  0  0  0  0  0  0  0  0
  -26.8124  -23.7278   29.3760 C   0  0  2  0  0  0  0  0  0  0  0  0
  -28.3936  -23.6572   24.8695 C   0  0  0  0  0  0  0  0  0  0  0  0
  -25.8288  -11.5457   20.3224 N   0  0  0  0  0  0  0  0  0  0  0  0
  -26.2246  -12.8217   20.1763 N   0  0  0  0  0  0  0  0  0  0  0  0
  -25.4602  -24.9483   23.9919 N   0  0  0  0  0  0  0  0  0  0  0  0
  -29.9676  -13.5556   20.4222 N   0  0  0  0  0  0  0  0  0  0  0  0
  -25.4851  -15.0632   20.3742 N   0  0  0  0  0  0  0  0  0  0  0  0
  -21.8516  -12.6585   21.5621 N   0  0  0  0  0  0  0  0  0  0  0  0
  -25.4512  -28.2279   22.6120 N   0  0  0  0  0  0  0  0  0  0  0  0
  -27.1741  -24.1230   27.0374 N   0  0  0  0  0  0  0  0  0  0  0  0
  -30.1521  -15.6374   21.5294 N   0  0  0  0  0  0  0  0  0  0  0  0
  -26.9859  -23.8225   19.4291 N   0  0  0  0  0  0  0  0  0  0  0  0
  -25.6211  -23.4962   30.2410 N   0  3  0  0  0  0  0  0  0  0  0  0
  -18.3547  -17.5131   22.0182 N   0  3  0  0  0  0  0  0  0  0  0  0
  -22.6597  -14.7824   21.2546 O   0  0  0  0  0  0  0  0  0  0  0  0
  -25.8305  -25.7378   18.7074 O   0  0  0  0  0  0  0  0  0  0  0  0
  -26.5232  -26.2547   21.9961 O   0  0  0  0  0  0  0  0  0  0  0  0
  -26.5585  -26.2438   25.5814 O   0  0  0  0  0  0  0  0  0  0  0  0
  -25.7667  -22.3880   27.6589 O   0  0  0  0  0  0  0  0  0  0  0  0
  -31.8939  -14.8379   20.2709 O   0  0  0  0  0  0  0  0  0  0  0  0
  -21.5019   -7.1022   21.7656 O   0  0  0  0  0  0  0  0  0  0  0  0
  -18.4113  -21.7686   18.8421 O   0  0  0  0  0  0  0  0  0  0  0  0
  -21.3058  -20.6681   23.9552 O   0  0  0  0  0  0  0  0  0  1  0  0
  -28.9620  -19.4109   19.8594 O   0  0  0  0  0  0  0  0  0  0  0  0
  -17.4458  -19.6329   20.3386 O   0  0  0  0  0  0  0  0  0  0  0  0
  -20.7589  -17.9707   23.4188 O   0  0  0  0  0  0  0  0  0  0  0  0
  -23.8379   -3.0749   24.7198 F   0  0  0  0  0  0  0  0  0  0  0  0
  -23.7957   -5.8399   20.8782 F   0  0  0  0  0  0  0  0  0  0  0  0
  1  2  1  0  0  0  0
  1  8  2  0  0  0  0
  2  9  2  0  0  0  0
  3 11  2  0  0  0  0
  3 12  1  0  0  0  0
  4 13  2  0  0  0  0
  4 23  1  0  0  0  0
  5 14  1  0  0  0  0
  5 23  2  0  0  0  0
  6 15  2  0  0  0  0
  6 24  1  0  0  0  0
  7 16  1  0  0  0  0
  7 24  2  0  0  0  0
  8 26  1  0  0  0  0
  9 28  1  0  0  0  0
 10 17  2  0  0  0  0
 10 27  1  0  0  0  0
 11 30  1  0  0  0  0
 12 34  2  0  0  0  0
 13 31  1  0  0  0  0
 14 31  2  0  0  0  0
 15 32  1  0  0  0  0
 16 32  2  0  0  0  0
 17 33  1  0  0  0  0
 18 19  2  0  0  0  0
 18 35  1  0  0  0  0
 19 36  1  0  0  0  0
 20 29  1  0  0  0  0
 20 33  2  0  0  0  0
 21 30  2  0  0  0  0
 21 34  1  0  0  0  0
 22 36  2  0  0  0  0
 22 37  1  0  0  0  0
 23 38  1  0  0  0  0
 24 40  1  0  0  0  0
 25 38  1  0  0  0  0
 25 39  2  0  0  0  0
 25 42  1  0  0  0  0
 26 28  2  0  0  0  0
 26 48  1  0  0  0  0
 27 29  2  0  0  0  0
 27 49  1  0  0  0  0
 28 57  1  0  0  0  0
 29 50  1  0  0  0  0
 30 89  1  0  0  0  0
 31 98  1  0  0  0  0
 32 99  1  0  0  0  0
 33100  1  0  0  0  0
 34101  1  0  0  0  0
 35 37  2  0  0  0  0
 35 98  1  0  0  0  0
 36104  1  0  0  0  0
 37105  1  0  0  0  0
 38 80  2  0  0  0  0
 39 81  1  0  0  0  0
 39 84  1  0  0  0  0
 40 41  2  0  0  0  0
 41 43  1  0  0  0  0
 42 85  1  0  0  0  0
 42 92  2  0  0  0  0
 43 89  1  0  0  0  0
 43 93  2  0  0  0  0
 44 58  1  0  0  0  0
 44 86  1  0  0  0  0
 44 94  2  0  0  0  0
 45 77  1  0  0  0  0
 45 82  1  0  0  0  0
 45 95  2  0  0  0  0
 46 78  1  0  0  0  0
 46 87  1  0  0  0  0
 46 96  2  0  0  0  0
 47 83  1  0  0  0  0
 47 88  1  0  0  0  0
 47 97  2  0  0  0  0
 48 51  1  0  0  0  0
 49 58  1  0  0  0  0
 50 82  1  0  0  0  0
 51 53  1  0  0  0  0
 52 54  1  0  0  0  0
 52 55  1  0  0  0  0
 53 57  1  0  0  0  0
 54 59  1  0  0  0  0
 55 83  1  0  0  0  0
 56 59  1  0  0  0  0
 56 83  1  0  0  0  0
 57 86  1  0  0  0  0
 58 82  1  0  0  0  0
 59 81  1  0  0  0  0
 60 78  1  0  0  0  0
 61 79  1  0  0  0  0
 62 79  1  0  0  0  0
 63 79  1  0  0  0  0
 64 89  1  0  0  0  0
 65 90  1  0  0  0  0
 66 67  1  0  0  0  0
 66 70  1  0  0  0  0
 67 88  1  0  0  0  0
 68 71  1  0  0  0  0
 68 91  1  0  0  0  0
 69 72  1  0  0  0  0
 69 91  1  0  0  0  0
 70101  1  0  0  0  0
 71102  1  0  0  0  0
 72103  1  0  0  0  0
 73 75  1  0  0  0  0
 73 99  1  0  0  0  0
 74 76  1  0  0  0  0
 74100  1  0  0  0  0
 75102  1  0  0  0  0
 76103  1  0  0  0  0
 77 79  1  0  0  0  0
 77 87  1  0  0  0  0
 78 90  1  0  0  0  0
 80 81  1  0  0  0  0
M  CHG  2  90   1  91   1
M  ISO  4  47 100  74 101  88 100 100 101
M  END
> <Batch ID>
0000

> <Smiles>
CNC(C)C(=O)NC(C(=O)N1Cc2cc([101O:1][101CH2:1]COCCNCCOCCOc3ccc(C=CC(=O)N(C)c4cccc(OCCC[100NH:0][100C:0](=O)N5CCCC(n6nc(-c7ccc(Oc8ccc(F)cc8F)cc7)c(C(N)=O)c6N)C5)c4)cc3)ccc2CC1C(=O)NC1CCCc2ccccc21)C(C)(C)C

> <Shape>
0.248

> <Color>
0.186

> <Negative vol penalty>
0.000

$$$$

  -OEChem-04052315133D

 94103  0     1  0  0  0  0  0999 V2000
  -23.5056  -26.5041   12.6904 C   0  0  0  0  0  0  0  0  0  0  0  0
  -22.9874  -27.0724   13.8497 C   0  0  0  0  0  0  0  0  0  0  0  0
  -26.2092  -12.8277   21.3085 C   0  0  0  0  0  0  0  0  0  0  0  0
  -24.5273  -13.2570   19.6280 C   0  0  0  0  0  0  0  0  0  0  0  0
  -24.5039  -25.5346   12.7768 C   0  0  0  0  0  0  0  0  0  0  0  0
  -23.4666  -26.6709   15.0961 C   0  0  0  0  0  0  0  0  0  0  0  0
  -24.1357  -30.1628   20.0826 C   0  0  0  0  0  0  0  0  0  0  0  0
  -22.3792  -20.8321   17.5861 C   0  0  0  0  0  0  0  0  0  0  0  0
  -21.1876  -21.4249   17.1713 C   0  0  0  0  0  0  0  0  0  0  0  0
  -25.4833  -11.7225   21.7527 C   0  0  0  0  0  0  0  0  0  0  0  0
  -23.8014  -12.1517   20.0721 C   0  0  0  0  0  0  0  0  0  0  0  0
  -23.3421  -30.3435   21.2145 C   0  0  0  0  0  0  0  0  0  0  0  0
  -24.9840   -8.5198   20.7902 C   0  0  0  0  0  0  0  0  0  0  0  0
  -25.6862   -7.3407   21.0396 C   0  0  0  0  0  0  0  0  0  0  0  0
  -22.6341  -22.5363   19.2769 C   0  0  0  0  0  0  0  0  0  0  0  0
  -24.6709  -28.7154   22.3988 C   0  0  0  0  0  0  0  0  0  0  0  0
  -24.9570   -7.3935   23.3423 C   0  0  0  0  0  0  0  0  0  0  0  0
  -25.7311  -13.5950   20.2462 C   0  0  0  0  0  0  0  0  0  0  0  0
  -27.4775  -14.7563   18.7938 C   0  0  0  0  0  0  0  0  0  0  0  0
  -25.0023  -25.1279   14.0245 C   0  0  0  0  0  0  0  0  0  0  0  0
  -25.1980  -29.2474   20.0968 C   0  0  0  0  0  0  0  0  0  0  0  0
  -24.4716  -25.6941   15.1993 C   0  0  0  0  0  0  0  0  0  0  0  0
  -21.4316  -23.1334   18.8748 C   0  0  0  0  0  0  0  0  0  0  0  0
  -25.4781  -28.5267   21.2666 C   0  0  0  0  0  0  0  0  0  0  0  0
  -23.1045  -21.3898   18.6361 C   0  0  0  0  0  0  0  0  0  0  0  0
  -20.7194  -22.5798   17.8046 C   0  0  0  0  0  0  0  0  0  0  0  0
  -24.2795  -11.3845   21.1345 C   0  0  0  0  0  0  0  0  0  0  0  0
  -23.6078  -29.6177   22.3719 C   0  0  0  0  0  0  0  0  0  0  0  0
  -24.2683   -9.1358   21.8169 C   0  0  0  0  0  0  0  0  0  0  0  0
  -25.6727   -6.7775   22.3156 C   0  0  0  0  0  0  0  0  0  0  0  0
  -24.2548   -8.5727   23.0929 C   0  0  0  0  0  0  0  0  0  0  0  0
  -26.4802  -14.7371   19.7873 C   0  0  0  0  0  0  0  0  0  0  0  0
  -27.8742  -16.0697   18.7310 C   0  0  0  0  0  0  0  0  0  0  0  0
  -27.9985  -13.6829   17.9988 C   0  0  0  0  0  0  0  0  0  0  0  0
  -25.8980  -26.5982   18.4858 C   0  0  0  0  0  0  0  0  0  0  0  0
  -28.6975  -26.8161   20.1098 C   0  0  0  0  0  0  0  0  0  0  0  0
  -18.9047  -27.3017   21.6717 C   0  0  0  0  0  0  0  0  0  0  0  0
  -30.3792  -27.9812   22.8414 C   0  0  0  0  0  0  0  0  0  0  0  0
  -25.1636  -21.2218   20.0776 C   0  0  0  0  0  0  0  0  0  0  0  0
  -26.0485  -24.0425   14.0695 C   0  0  0  0  0  0  0  0  0  0  0  0
  -26.0612  -29.0836   18.8760 C   0  0  0  0  0  0  0  0  0  0  0  0
  -20.9426  -24.3658   19.5733 C   0  0  0  0  0  0  0  0  0  0  0  0
  -26.6194  -27.5466   21.3400 C   0  0  0  0  0  0  0  0  0  0  0  0
  -26.7657  -23.9432   15.4134 C   0  0  0  0  0  0  0  0  0  0  0  0
  -28.2250  -20.0089   21.4318 C   0  0  0  0  0  0  0  0  0  0  0  0
  -25.7598  -23.9805   16.5594 C   0  0  0  0  0  0  0  0  0  0  0  0
  -28.2186  -18.5224   21.0680 C   0  0  0  0  0  0  0  0  0  0  0  0
  -26.8263  -20.5129   21.7829 C   0  0  0  0  0  0  0  0  0  0  0  0
  -25.7889  -18.7493   20.4109 C   0  0  0  0  0  0  0  0  0  0  0  0
  -24.9829  -25.3026   16.5687 C   0  0  1  0  0  0  0  0  0  0  0  0
  -26.7979  -27.7481   18.8400 C   0  0  1  0  0  0  0  0  0  0  0  0
  -27.1652  -18.2113   19.9867 C   0  0  2  0  0  0  0  0  0  0  0  0
  -19.4659  -24.5971   19.2705 C   0  0  2  0  0  0  0  0  0  0  0  0
  -19.1650  -24.4081   17.7685 C   0  0  0  0  0  0  0  0  0  0  0  0
  -19.8497  -25.4435   16.8594 C   0  0  0  0  0  0  0  0  0  0  0  0
  -17.6478  -24.5059   17.5354 C   0  0  0  0  0  0  0  0  0  0  0  0
  -32.6489  -27.9659   23.9117 C   0  0  0  0  0  0  0  0  0  0  0  0
  -16.5534  -28.8210   24.0605 C   0  0  0  0  0  0  0  0  0  0  0  0
  -28.2374  -23.9464   21.0388 C   0  0  0  0  0  0  0  0  0  0  0  0
  -29.9723  -24.3142   22.8061 C   0  0  0  0  0  0  0  0  0  0  0  0
  -30.5971  -24.4692   20.3961 C   0  0  0  0  0  0  0  0  0  0  0  0
  -30.6077  -30.9269   22.6698 C   0  0  0  0  0  0  0  0  0  0  0  0
  -18.8317  -25.8925   21.1236 C   0  0  0  0  0  0  0  0  0  0  0  0
  -22.6805  -28.6696   24.3460 C   0  0  0  0  0  0  0  0  0  1  0  0
  -21.3237  -28.7465   25.0189 C   0  0  0  0  0  0  0  0  0  0  0  0
  -19.0115  -28.7721   24.5996 C   0  0  0  0  0  0  0  0  0  0  0  0
  -29.2062  -26.3063   21.4366 C   0  0  1  0  0  0  0  0  0  0  0  0
  -31.7071  -28.7048   22.9737 C   0  0  2  0  0  0  0  0  0  0  0  0
  -17.9624  -28.7141   23.4919 C   0  0  1  0  0  0  0  0  0  0  0  0
  -29.4805  -24.7760   21.4177 C   0  0  0  0  0  0  0  0  0  0  0  0
  -26.2573  -15.9425   20.3175 N   0  0  0  0  0  0  0  0  0  0  0  0
  -27.1202  -16.7315   19.6549 N   0  0  0  0  0  0  0  0  0  0  0  0
  -27.4307  -27.4170   20.1183 N   0  0  0  0  0  0  0  0  0  0  0  0
  -25.8830  -20.1865   20.7112 N   0  0  0  0  0  0  0  0  0  0  0  0
  -28.7912  -16.7115   17.9763 N   0  0  0  0  0  0  0  0  0  0  0  0
  -27.4787  -12.3956   18.1913 N   0  0  0  0  0  0  0  0  0  0  0  0
  -24.3212  -20.7945   19.0518 N   0  0  0  0  0  0  0  0  0  0  0  0
  -25.7948  -26.3620   17.1282 N   0  0  0  0  0  0  0  0  0  0  0  0
  -30.3726  -27.1184   21.7658 N   0  0  0  0  0  0  0  0  0  0  0  0
  -18.0820  -27.4614   22.7727 N   0  0  0  0  0  0  0  0  0  0  0  0
  -31.4964  -30.0804   23.5068 N   0  3  0  0  0  0  0  0  0  0  0  0
  -28.9099  -13.8571   17.1547 O   0  0  0  0  0  0  0  0  0  0  0  0
  -25.3397  -25.9708   19.3781 O   0  0  0  0  0  0  0  0  0  0  0  0
  -29.4012  -26.6923   19.1043 O   0  0  0  0  0  0  0  0  0  0  0  0
  -19.6171  -28.1708   21.1764 O   0  0  0  0  0  0  0  0  0  0  0  0
  -29.4427  -28.1604   23.6169 O   0  0  0  0  0  0  0  0  0  0  0  0
  -25.3062  -22.4036   20.4017 O   0  0  0  0  0  0  0  0  0  0  0  0
  -19.5414  -23.0883   17.3246 O   0  0  0  0  0  0  0  0  0  0  0  0
  -23.5710  -10.3060   21.5675 O   0  0  0  0  0  0  0  0  0  0  0  0
  -22.8343  -29.7917   23.4779 O   0  0  0  0  0  0  0  0  0  1  0  0
  -19.0776  -25.8849   19.7334 O   0  0  0  0  0  0  0  0  0  0  0  0
  -20.3084  -28.7032   24.0236 O   0  0  0  0  0  0  0  0  0  0  0  0
  -26.3458   -5.6444   22.5546 F   0  0  0  0  0  0  0  0  0  0  0  0
  -23.5681   -9.1592   24.0829 F   0  0  0  0  0  0  0  0  0  0  0  0
  1  2  1  0  0  0  0
  1  5  2  0  0  0  0
  2  6  2  0  0  0  0
  3 10  2  0  0  0  0
  3 18  1  0  0  0  0
  4 11  1  0  0  0  0
  4 18  2  0  0  0  0
  5 20  1  0  0  0  0
  6 22  1  0  0  0  0
  7 12  2  0  0  0  0
  7 21  1  0  0  0  0
  8  9  2  0  0  0  0
  8 25  1  0  0  0  0
  9 26  1  0  0  0  0
 10 27  1  0  0  0  0
 11 27  2  0  0  0  0
 12 28  1  0  0  0  0
 13 14  2  0  0  0  0
 13 29  1  0  0  0  0
 14 30  1  0  0  0  0
 15 23  1  0  0  0  0
 15 25  2  0  0  0  0
 16 24  1  0  0  0  0
 16 28  2  0  0  0  0
 17 30  2  0  0  0  0
 17 31  1  0  0  0  0
 18 32  1  0  0  0  0
 19 32  1  0  0  0  0
 19 33  2  0  0  0  0
 19 34  1  0  0  0  0
 20 22  2  0  0  0  0
 20 40  1  0  0  0  0
 21 24  2  0  0  0  0
 21 41  1  0  0  0  0
 22 50  1  0  0  0  0
 23 26  2  0  0  0  0
 23 42  1  0  0  0  0
 24 43  1  0  0  0  0
 25 77  1  0  0  0  0
 26 88  1  0  0  0  0
 27 89  1  0  0  0  0
 28 90  1  0  0  0  0
 29 31  2  0  0  0  0
 29 89  1  0  0  0  0
 30 93  1  0  0  0  0
 31 94  1  0  0  0  0
 32 71  2  0  0  0  0
 33 72  1  0  0  0  0
 33 75  1  0  0  0  0
 34 76  1  0  0  0  0
 34 82  2  0  0  0  0
 35 51  1  0  0  0  0
 35 78  1  0  0  0  0
 35 83  2  0  0  0  0
 36 67  1  0  0  0  0
 36 73  1  0  0  0  0
 36 84  2  0  0  0  0
 37 63  1  0  0  0  0
 37 80  1  0  0  0  0
 37 85  2  0  0  0  0
 38 68  1  0  0  0  0
 38 79  1  0  0  0  0
 38 86  2  0  0  0  0
 39 74  1  0  0  0  0
 39 77  1  0  0  0  0
 39 87  2  0  0  0  0
 40 44  1  0  0  0  0
 41 51  1  0  0  0  0
 42 53  1  0  0  0  0
 43 73  1  0  0  0  0
 44 46  1  0  0  0  0
 45 47  1  0  0  0  0
 45 48  1  0  0  0  0
 46 50  1  0  0  0  0
 47 52  1  0  0  0  0
 48 74  1  0  0  0  0
 49 52  1  0  0  0  0
 49 74  1  0  0  0  0
 50 78  1  0  0  0  0
 51 73  1  0  0  0  0
 52 72  1  0  0  0  0
 53 54  1  0  0  0  0
 53 91  1  0  0  0  0
 54 55  1  0  0  0  0
 54 56  1  0  0  0  0
 54 88  1  0  0  0  0
 57 68  1  0  0  0  0
 58 69  1  0  0  0  0
 59 70  1  0  0  0  0
 60 70  1  0  0  0  0
 61 70  1  0  0  0  0
 62 81  1  0  0  0  0
 63 91  1  0  0  0  0
 64 65  1  0  0  0  0
 64 90  1  0  0  0  0
 65 92  1  0  0  0  0
 66 69  1  0  0  0  0
 66 92  1  0  0  0  0
 67 70  1  0  0  0  0
 67 79  1  0  0  0  0
 68 81  1  0  0  0  0
 69 80  1  0  0  0  0
 71 72  1  0  0  0  0
M  CHG  1  81   1
M  ISO  4  39 100  64 101  77 100  90 101
M  END
> <Batch ID>
0000

> <Smiles>
CNC(C)C(=O)NC(C(=O)N1Cc2cc([101O:1][101CH2:1]COCC(C)NC(=O)COC3Cc4cc([100NH:0][100C:0](=O)N5CCCC(n6nc(-c7ccc(Oc8ccc(F)cc8F)cc7)c(C(N)=O)c6N)C5)ccc4OC3(C)C)ccc2CC1C(=O)NC1CCCc2ccccc21)C(C)(C)C

> <Shape>
0.216

> <Color>
0.054

> <Negative vol penalty>
0.000

$$$$

  -OEChem-04052315133D

 77 84  0     1  0  0  0  0  0999 V2000
  -17.5510  -32.5564   21.6734 C   0  0  0  0  0  0  0  0  0  0  0  0
  -18.6520  -32.3217   20.8561 C   0  0  0  0  0  0  0  0  0  0  0  0
  -28.6640  -17.5389   18.7941 C   0  0  0  0  0  0  0  0  0  0  0  0
  -27.6271  -18.0278   20.9208 C   0  0  0  0  0  0  0  0  0  0  0  0
  -17.5886  -32.1826   23.0161 C   0  0  0  0  0  0  0  0  0  0  0  0
  -19.7919  -31.7140   21.3814 C   0  0  0  0  0  0  0  0  0  0  0  0
  -23.5633  -27.8466   18.4960 C   0  0  0  0  0  0  0  0  0  0  0  0
  -28.2288  -16.2169   18.8858 C   0  0  0  0  0  0  0  0  0  0  0  0
  -27.1919  -16.7058   21.0125 C   0  0  0  0  0  0  0  0  0  0  0  0
  -24.7928  -28.0310   17.8651 C   0  0  0  0  0  0  0  0  0  0  0  0
  -29.1599  -13.3946   20.4959 C   0  0  0  0  0  0  0  0  0  0  0  0
  -30.0737  -12.3890   20.1810 C   0  0  0  0  0  0  0  0  0  0  0  0
  -25.9240  -27.3429   19.8815 C   0  0  0  0  0  0  0  0  0  0  0  0
  -28.6151  -11.6161   18.4167 C   0  0  0  0  0  0  0  0  0  0  0  0
  -28.3632  -18.4444   19.8117 C   0  0  0  0  0  0  0  0  0  0  0  0
  -28.1274  -20.8927   19.1349 C   0  0  0  0  0  0  0  0  0  0  0  0
  -18.7259  -31.5613   23.5557 C   0  0  0  0  0  0  0  0  0  0  0  0
  -23.5051  -27.4187   19.8302 C   0  0  0  0  0  0  0  0  0  0  0  0
  -19.8453  -31.3328   22.7329 C   0  0  0  0  0  0  0  0  0  0  0  0
  -24.6925  -27.1514   20.5263 C   0  0  0  0  0  0  0  0  0  0  0  0
  -27.4928  -15.8003   19.9950 C   0  0  0  0  0  0  0  0  0  0  0  0
  -25.9735  -27.7819   18.5587 C   0  0  0  0  0  0  0  0  0  0  0  0
  -27.9736  -13.5110   19.7713 C   0  0  0  0  0  0  0  0  0  0  0  0
  -29.8013  -11.4998   19.1414 C   0  0  0  0  0  0  0  0  0  0  0  0
  -27.7013  -12.6218   18.7317 C   0  0  0  0  0  0  0  0  0  0  0  0
  -28.8130  -19.8101   19.7178 C   0  0  0  0  0  0  0  0  0  0  0  0
  -28.9715  -21.9633   19.3013 C   0  0  0  0  0  0  0  0  0  0  0  0
  -26.8424  -20.9275   18.4998 C   0  0  0  0  0  0  0  0  0  0  0  0
  -22.3834  -28.6547   22.5353 C   0  0  0  0  0  0  0  0  0  0  0  0
  -23.1543  -25.7395   23.7308 C   0  0  0  0  0  0  0  0  0  0  0  0
  -25.0478  -22.9117   23.4754 C   0  0  0  0  0  0  0  0  0  0  0  0
  -32.4409  -24.9796   22.4653 C   0  0  0  0  0  0  0  0  0  0  0  0
  -18.7376  -31.2181   25.0243 C   0  0  0  0  0  0  0  0  0  0  0  0
  -22.1704  -27.1989   20.4881 C   0  0  0  0  0  0  0  0  0  0  0  0
  -24.6839  -26.6709   21.9538 C   0  0  0  0  0  0  0  0  0  0  0  0
  -19.8431  -30.2395   25.4123 C   0  0  0  0  0  0  0  0  0  0  0  0
  -33.8018  -22.1468   20.7919 C   0  0  0  0  0  0  0  0  0  0  0  0
  -21.1711  -30.6607   24.7911 C   0  0  0  0  0  0  0  0  0  0  0  0
  -32.5691  -21.3731   20.3210 C   0  0  0  0  0  0  0  0  0  0  0  0
  -33.5729  -22.7982   22.1540 C   0  0  0  0  0  0  0  0  0  0  0  0
  -31.1401  -22.8777   21.7677 C   0  0  0  0  0  0  0  0  0  0  0  0
  -21.0907  -30.6535   23.2598 C   0  0  1  0  0  0  0  0  0  0  0  0
  -22.2387  -27.2540   22.0111 C   0  0  1  0  0  0  0  0  0  0  0  0
  -31.3032  -22.2495   20.3731 C   0  0  2  0  0  0  0  0  0  0  0  0
  -25.8574  -20.5960   24.0038 C   0  0  0  0  0  0  0  0  0  0  0  0
  -24.7695  -27.1857   25.8778 C   0  0  0  0  0  0  0  0  0  0  0  0
  -25.9137  -25.0162   26.3798 C   0  0  0  0  0  0  0  0  0  0  0  0
  -23.4498  -25.2294   26.7059 C   0  0  0  0  0  0  0  0  0  0  0  0
  -23.0645  -21.6784   21.6576 C   0  0  0  0  0  0  0  0  0  0  0  0
  -31.1693  -27.0951   22.7234 C   0  0  0  0  0  0  0  0  0  0  0  0
  -31.3755  -27.9527   21.4877 C   0  0  0  0  0  0  0  0  0  0  0  0
  -30.5278  -28.4244   19.3472 C   0  0  0  0  0  0  0  0  0  0  0  0
  -29.4330  -28.0557   18.3648 C   0  0  0  0  0  0  0  0  0  0  0  0
  -24.3858  -25.1332   24.3592 C   0  0  1  0  0  0  0  0  0  0  0  0
  -24.6776  -21.4414   23.5499 C   0  0  2  0  0  0  0  0  0  0  0  0
  -24.6302  -25.6520   25.8044 C   0  0  0  0  0  0  0  0  0  0  0  0
  -30.0011  -20.1608   20.2170 N   0  0  0  0  0  0  0  0  0  0  0  0
  -30.0688  -21.4758   19.9482 N   0  0  0  0  0  0  0  0  0  0  0  0
  -23.3543  -26.4771   22.5554 N   0  0  0  0  0  0  0  0  0  0  0  0
  -32.3581  -23.6167   22.1356 N   0  0  0  0  0  0  0  0  0  0  0  0
  -28.8749  -23.2647   18.9558 N   0  0  0  0  0  0  0  0  0  0  0  0
  -26.1071  -19.7374   18.4141 N   0  0  0  0  0  0  0  0  0  0  0  0
  -21.1815  -29.3001   22.7553 N   0  0  0  0  0  0  0  0  0  0  0  0
  -24.2230  -23.6866   24.2632 N   0  0  0  0  0  0  0  0  0  0  0  0
  -31.2442  -25.6840   22.4169 N   0  0  0  0  0  0  0  0  0  0  0  0
  -24.2339  -20.9507   22.2145 N   0  3  0  0  0  0  0  0  0  0  0  0
  -26.3677  -21.9793   18.0080 O   0  0  0  0  0  0  0  0  0  0  0  0
  -23.5026  -29.1154   22.7275 O   0  0  0  0  0  0  0  0  0  0  0  0
  -22.0544  -25.5590   24.2594 O   0  0  0  0  0  0  0  0  0  0  0  0
  -25.9782  -23.3305   22.7901 O   0  0  0  0  0  0  0  0  0  0  0  0
  -33.5036  -25.5292   22.7744 O   0  0  0  0  0  0  0  0  0  0  0  0
  -27.0677  -14.5104   20.0847 O   0  0  0  0  0  0  0  0  0  0  0  0
  -27.1749  -27.9617   17.9454 O   0  0  0  0  0  0  0  0  0  1  0  0
  -30.3759  -27.6437   20.5266 O   0  0  0  0  0  0  0  0  0  0  0  0
  -28.1698  -28.3425   18.9485 O   0  0  0  0  0  0  0  0  0  1  0  0
  -30.6797  -10.5351   18.8380 F   0  0  0  0  0  0  0  0  0  0  0  0
  -26.5639  -12.7293   18.0313 F   0  0  0  0  0  0  0  0  0  0  0  0
  1  2  1  0  0  0  0
  1  5  2  0  0  0  0
  2  6  2  0  0  0  0
  3  8  2  0  0  0  0
  3 15  1  0  0  0  0
  4  9  1  0  0  0  0
  4 15  2  0  0  0  0
  5 17  1  0  0  0  0
  6 19  1  0  0  0  0
  7 10  2  0  0  0  0
  7 18  1  0  0  0  0
  8 21  1  0  0  0  0
  9 21  2  0  0  0  0
 10 22  1  0  0  0  0
 11 12  2  0  0  0  0
 11 23  1  0  0  0  0
 12 24  1  0  0  0  0
 13 20  1  0  0  0  0
 13 22  2  0  0  0  0
 14 24  2  0  0  0  0
 14 25  1  0  0  0  0
 15 26  1  0  0  0  0
 16 26  1  0  0  0  0
 16 27  2  0  0  0  0
 16 28  1  0  0  0  0
 17 19  2  0  0  0  0
 17 33  1  0  0  0  0
 18 20  2  0  0  0  0
 18 34  1  0  0  0  0
 19 42  1  0  0  0  0
 20 35  1  0  0  0  0
 21 72  1  0  0  0  0
 22 73  1  0  0  0  0
 23 25  2  0  0  0  0
 23 72  1  0  0  0  0
 24 76  1  0  0  0  0
 25 77  1  0  0  0  0
 26 57  2  0  0  0  0
 27 58  1  0  0  0  0
 27 61  1  0  0  0  0
 28 62  1  0  0  0  0
 28 67  2  0  0  0  0
 29 43  1  0  0  0  0
 29 63  1  0  0  0  0
 29 68  2  0  0  0  0
 30 54  1  0  0  0  0
 30 59  1  0  0  0  0
 30 69  2  0  0  0  0
 31 55  1  0  0  0  0
 31 64  1  0  0  0  0
 31 70  2  0  0  0  0
 32 60  1  0  0  0  0
 32 65  1  0  0  0  0
 32 71  2  0  0  0  0
 33 36  1  0  0  0  0
 34 43  1  0  0  0  0
 35 59  1  0  0  0  0
 36 38  1  0  0  0  0
 37 39  1  0  0  0  0
 37 40  1  0  0  0  0
 38 42  1  0  0  0  0
 39 44  1  0  0  0  0
 40 60  1  0  0  0  0
 41 44  1  0  0  0  0
 41 60  1  0  0  0  0
 42 63  1  0  0  0  0
 43 59  1  0  0  0  0
 44 58  1  0  0  0  0
 45 55  1  0  0  0  0
 46 56  1  0  0  0  0
 47 56  1  0  0  0  0
 48 56  1  0  0  0  0
 49 66  1  0  0  0  0
 50 51  1  0  0  0  0
 50 65  1  0  0  0  0
 51 74  1  0  0  0  0
 52 53  1  0  0  0  0
 52 74  1  0  0  0  0
 53 75  1  0  0  0  0
 54 56  1  0  0  0  0
 54 64  1  0  0  0  0
 55 66  1  0  0  0  0
 57 58  1  0  0  0  0
 73 75  1  0  0  0  0
M  CHG  1  66   1
M  ISO  4  32 100  65 100  73 101  75 101
M  END
> <Batch ID>
0000

> <Smiles>
CNC(C)C(=O)NC(C(=O)N1Cc2cc([101O:1][101O:1]CCOCC[100NH:0][100C:0](=O)N3CCCC(n4nc(-c5ccc(Oc6ccc(F)cc6F)cc5)c(C(N)=O)c4N)C3)ccc2CC1C(=O)NC1CCCc2ccccc21)C(C)(C)C

> <Shape>
0.182

> <Color>
0.081

> <Negative vol penalty>
0.000

$$$$

  -OEChem-04052315133D

 90 98  0     1  0  0  0  0  0999 V2000
  -23.9573  -29.0126   22.5730 C   0  0  0  0  0  0  0  0  0  0  0  0
  -23.8589  -27.6261   22.6314 C   0  0  0  0  0  0  0  0  0  0  0  0
  -19.5548  -22.6557   19.7010 C   0  0  0  0  0  0  0  0  0  0  0  0
  -20.1702  -22.6492   22.0373 C   0  0  0  0  0  0  0  0  0  0  0  0
  -25.8135  -11.8557   20.9606 C   0  0  0  0  0  0  0  0  0  0  0  0
  -23.7528  -12.5303   19.8949 C   0  0  0  0  0  0  0  0  0  0  0  0
  -24.7348  -29.6141   21.5843 C   0  0  0  0  0  0  0  0  0  0  0  0
  -24.5372  -26.8404   21.7002 C   0  0  0  0  0  0  0  0  0  0  0  0
  -27.0732  -21.3505   22.6671 C   0  0  0  0  0  0  0  0  0  0  0  0
  -18.7125  -23.7445   19.9258 C   0  0  0  0  0  0  0  0  0  0  0  0
  -19.3278  -23.7380   22.2622 C   0  0  0  0  0  0  0  0  0  0  0  0
  -26.2072  -13.1911   21.0447 C   0  0  0  0  0  0  0  0  0  0  0  0
  -24.1466  -13.8658   19.9790 C   0  0  0  0  0  0  0  0  0  0  0  0
  -26.6300  -20.0540   22.4095 C   0  0  0  0  0  0  0  0  0  0  0  0
  -17.6147  -26.7437   23.3800 C   0  0  0  0  0  0  0  0  0  0  0  0
  -18.1038  -27.7932   24.1576 C   0  0  0  0  0  0  0  0  0  0  0  0
  -27.8576  -20.0533   20.3329 C   0  0  0  0  0  0  0  0  0  0  0  0
  -19.8928  -28.1356   22.5703 C   0  0  0  0  0  0  0  0  0  0  0  0
  -20.2836  -22.1080   20.7567 C   0  0  0  0  0  0  0  0  0  0  0  0
  -24.5863  -11.5252   20.3856 C   0  0  0  0  0  0  0  0  0  0  0  0
  -22.5144  -21.0201   20.1671 C   0  0  0  0  0  0  0  0  0  0  0  0
  -25.4307  -28.8351   20.6465 C   0  0  0  0  0  0  0  0  0  0  0  0
  -27.9046  -22.0133   21.7528 C   0  0  0  0  0  0  0  0  0  0  0  0
  -25.3236  -27.4321   20.6972 C   0  0  0  0  0  0  0  0  0  0  0  0
  -28.3121  -21.3572   20.5825 C   0  0  0  0  0  0  0  0  0  0  0  0
  -18.5990  -24.2857   21.2064 C   0  0  0  0  0  0  0  0  0  0  0  0
  -25.3738  -14.1962   20.5539 C   0  0  0  0  0  0  0  0  0  0  0  0
  -27.0198  -19.4062   21.2409 C   0  0  0  0  0  0  0  0  0  0  0  0
  -18.2646  -26.3900   22.1975 C   0  0  0  0  0  0  0  0  0  0  0  0
  -19.2428  -28.4892   23.7528 C   0  0  0  0  0  0  0  0  0  0  0  0
  -19.4036  -27.0860   21.7927 C   0  0  0  0  0  0  0  0  0  0  0  0
  -21.1535  -20.9829   20.5252 C   0  0  0  0  0  0  0  0  0  0  0  0
  -22.8797  -19.6998   20.0681 C   0  0  0  0  0  0  0  0  0  0  0  0
  -24.1755  -10.1329   20.2980 C   0  0  0  0  0  0  0  0  0  0  0  0
  -23.3718  -22.1474   19.9439 C   0  0  0  0  0  0  0  0  0  0  0  0
  -27.6547  -24.6518   19.9980 C   0  0  0  0  0  0  0  0  0  0  0  0
  -30.7508  -24.0009   19.2817 C   0  0  0  0  0  0  0  0  0  0  0  0
  -33.2412  -21.6808   19.0343 C   0  0  0  0  0  0  0  0  0  0  0  0
  -20.4067  -14.8269   22.5965 C   0  0  0  0  0  0  0  0  0  0  0  0
  -26.2206  -29.5319   19.5671 C   0  0  0  0  0  0  0  0  0  0  0  0
  -28.3958  -23.4018   22.0581 C   0  0  0  0  0  0  0  0  0  0  0  0
  -29.2201  -22.0174   19.5784 C   0  0  0  0  0  0  0  0  0  0  0  0
  -27.2083  -28.6167   18.8481 C   0  0  0  0  0  0  0  0  0  0  0  0
  -19.9438  -16.1278   19.0087 C   0  0  0  0  0  0  0  0  0  0  0  0
  -26.5385  -27.2989   18.4719 C   0  0  0  0  0  0  0  0  0  0  0  0
  -21.2716  -16.8795   19.0094 C   0  0  0  0  0  0  0  0  0  0  0  0
  -19.9059  -15.0856   20.1221 C   0  0  0  0  0  0  0  0  0  0  0  0
  -20.6319  -17.0389   21.4931 C   0  0  0  0  0  0  0  0  0  0  0  0
  -26.0643  -26.5450   19.7202 C   0  0  1  0  0  0  0  0  0  0  0  0
  -28.8227  -24.1719   20.8123 C   0  0  1  0  0  0  0  0  0  0  0  0
  -21.6204  -17.4674   20.3942 C   0  0  2  0  0  0  0  0  0  0  0  0
  -35.6536  -21.4419   18.3858 C   0  0  0  0  0  0  0  0  0  0  0  0
  -24.1853   -7.2595   21.2487 C   0  0  0  0  0  0  0  0  0  0  0  0
  -22.0379   -7.9978   20.1581 C   0  0  0  0  0  0  0  0  0  0  0  0
  -29.9721  -24.1600   16.3358 C   0  0  0  0  0  0  0  0  0  0  0  0
  -32.1214  -23.0038   15.7771 C   0  0  0  0  0  0  0  0  0  0  0  0
  -32.1605  -25.2332   16.8958 C   0  0  0  0  0  0  0  0  0  0  0  0
  -33.9989  -20.7623   21.7438 C   0  0  0  0  0  0  0  0  0  0  0  0
  -21.3752  -11.8329   23.6759 C   0  0  0  0  0  0  0  0  0  0  0  0
  -21.7538  -11.0484   22.4139 C   0  0  0  0  0  0  0  0  0  0  0  0
  -20.0388  -12.5559   23.5338 C   0  0  0  0  0  0  0  0  0  0  0  0
  -23.0947  -10.3334   22.5503 C   0  0  0  0  0  0  0  0  0  0  0  0
  -26.6006  -15.8608   21.7286 C   0  0  0  0  0  0  0  0  0  0  0  0
  -26.3331  -17.3031   22.1133 C   0  0  0  0  0  0  0  0  0  1  0  0
  -31.4552  -23.1959   18.2165 C   0  0  1  0  0  0  0  0  0  0  0  0
  -34.6776  -21.6885   19.5256 C   0  0  2  0  0  0  0  0  0  0  0  0
  -22.9805   -8.1849   21.3379 C   0  0  0  0  0  0  0  0  0  0  0  0
  -31.4086  -23.8862   16.8241 C   0  0  0  0  0  0  0  0  0  0  0  0
  -20.6858  -19.7376   20.6454 N   0  0  0  0  0  0  0  0  0  0  0  0
  -21.7589  -18.9800   20.3612 N   0  0  0  0  0  0  0  0  0  0  0  0
  -29.6685  -23.3777   19.9190 N   0  0  0  0  0  0  0  0  0  0  0  0
  -20.3364  -15.6066   21.4257 N   0  0  0  0  0  0  0  0  0  0  0  0
  -24.0470  -19.0959   19.7597 N   0  0  0  0  0  0  0  0  0  0  0  0
  -22.8351  -23.4340   20.0881 N   0  0  0  0  0  0  0  0  0  0  0  0
  -27.1806  -25.8946   20.3723 N   0  0  0  0  0  0  0  0  0  0  0  0
  -32.8034  -22.9490   18.7162 N   0  0  0  0  0  0  0  0  0  0  0  0
  -20.0294  -13.4960   22.4362 N   0  0  0  0  0  0  0  0  0  0  0  0
  -23.4424   -9.5711   21.3594 N   0  0  0  0  0  0  0  0  0  0  0  0
  -34.8789  -20.6291   20.5542 N   0  3  0  0  0  0  0  0  0  0  0  0
  -24.4902   -9.5181   19.2703 O   0  0  0  0  0  0  0  0  0  0  0  0
  -24.5740  -22.0176   19.6101 O   0  0  0  0  0  0  0  0  0  0  0  0
  -27.2170  -23.9473   19.0958 O   0  0  0  0  0  0  0  0  0  0  0  0
  -31.1506  -25.1380   19.5438 O   0  0  0  0  0  0  0  0  0  0  0  0
  -32.5755  -20.6521   18.9385 O   0  0  0  0  0  0  0  0  0  0  0  0
  -20.7706  -15.2777   23.6869 O   0  0  0  0  0  0  0  0  0  0  0  0
  -17.7773  -25.3483   21.4261 O   0  0  0  0  0  0  0  0  0  0  0  0
  -25.7603  -15.5080   20.6362 O   0  0  0  0  0  0  0  0  0  0  0  0
  -26.5880  -18.1410   20.9867 O   0  0  0  0  0  0  0  0  0  1  0  0
  -19.7116  -29.4981   24.4989 F   0  0  0  0  0  0  0  0  0  0  0  0
  -20.0316  -26.7516   20.6570 F   0  0  0  0  0  0  0  0  0  0  0  0
  1  2  1  0  0  0  0
  1  7  2  0  0  0  0
  2  8  2  0  0  0  0
  3 10  2  0  0  0  0
  3 19  1  0  0  0  0
  4 11  1  0  0  0  0
  4 19  2  0  0  0  0
  5 12  2  0  0  0  0
  5 20  1  0  0  0  0
  6 13  1  0  0  0  0
  6 20  2  0  0  0  0
  7 22  1  0  0  0  0
  8 24  1  0  0  0  0
  9 14  2  0  0  0  0
  9 23  1  0  0  0  0
 10 26  1  0  0  0  0
 11 26  2  0  0  0  0
 12 27  1  0  0  0  0
 13 27  2  0  0  0  0
 14 28  1  0  0  0  0
 15 16  2  0  0  0  0
 15 29  1  0  0  0  0
 16 30  1  0  0  0  0
 17 25  1  0  0  0  0
 17 28  2  0  0  0  0
 18 30  2  0  0  0  0
 18 31  1  0  0  0  0
 19 32  1  0  0  0  0
 20 34  1  0  0  0  0
 21 32  1  0  0  0  0
 21 33  2  0  0  0  0
 21 35  1  0  0  0  0
 22 24  2  0  0  0  0
 22 40  1  0  0  0  0
 23 25  2  0  0  0  0
 23 41  1  0  0  0  0
 24 49  1  0  0  0  0
 25 42  1  0  0  0  0
 26 86  1  0  0  0  0
 27 87  1  0  0  0  0
 28 88  1  0  0  0  0
 29 31  2  0  0  0  0
 29 86  1  0  0  0  0
 30 89  1  0  0  0  0
 31 90  1  0  0  0  0
 32 69  2  0  0  0  0
 33 70  1  0  0  0  0
 33 73  1  0  0  0  0
 34 78  1  0  0  0  0
 34 80  2  0  0  0  0
 35 74  1  0  0  0  0
 35 81  2  0  0  0  0
 36 50  1  0  0  0  0
 36 75  1  0  0  0  0
 36 82  2  0  0  0  0
 37 65  1  0  0  0  0
 37 71  1  0  0  0  0
 37 83  2  0  0  0  0
 38 66  1  0  0  0  0
 38 76  1  0  0  0  0
 38 84  2  0  0  0  0
 39 72  1  0  0  0  0
 39 77  1  0  0  0  0
 39 85  2  0  0  0  0
 40 43  1  0  0  0  0
 41 50  1  0  0  0  0
 42 71  1  0  0  0  0
 43 45  1  0  0  0  0
 44 46  1  0  0  0  0
 44 47  1  0  0  0  0
 45 49  1  0  0  0  0
 46 51  1  0  0  0  0
 47 72  1  0  0  0  0
 48 51  1  0  0  0  0
 48 72  1  0  0  0  0
 49 75  1  0  0  0  0
 50 71  1  0  0  0  0
 51 70  1  0  0  0  0
 52 66  1  0  0  0  0
 53 67  1  0  0  0  0
 54 67  1  0  0  0  0
 55 68  1  0  0  0  0
 56 68  1  0  0  0  0
 57 68  1  0  0  0  0
 58 79  1  0  0  0  0
 59 60  1  0  0  0  0
 59 61  1  0  0  0  0
 60 62  1  0  0  0  0
 61 77  1  0  0  0  0
 62 78  1  0  0  0  0
 63 64  1  0  0  0  0
 63 87  1  0  0  0  0
 64 88  1  0  0  0  0
 65 68  1  0  0  0  0
 65 76  1  0  0  0  0
 66 79  1  0  0  0  0
 67 78  1  0  0  0  0
 69 70  1  0  0  0  0
M  CHG  1  79   1
M  ISO  4  39 100  64 101  77 100  88 101
M  END
> <Batch ID>
0000

> <Smiles>
CNC(C)C(=O)NC(C(=O)N1Cc2cc([101O:1][101CH2:1]COc3ccc(C(=O)N(CCCC[100NH:0][100C:0](=O)N4CCCC(n5nc(-c6ccc(Oc7ccc(F)cc7F)cc6)c(C(N)=O)c5N)C4)C(C)C)cc3)ccc2CC1C(=O)NC1CCCc2ccccc21)C(C)(C)C

> <Shape>
0.209

> <Color>
0.072

> <Negative vol penalty>
0.000

$$$$

  -OEChem-04052315133D

 94103  0     1  0  0  0  0  0999 V2000
  -23.2914  -24.7017   24.5295 C   0  0  0  0  0  0  0  0  0  0  0  0
  -21.3463  -23.4599   20.4103 C   0  0  0  0  0  0  0  0  0  0  0  0
  -22.6768  -23.0927   20.5851 C   0  0  0  0  0  0  0  0  0  0  0  0
  -23.7799  -25.3041   23.3702 C   0  0  0  0  0  0  0  0  0  0  0  0
  -24.1596  -24.4049   25.5802 C   0  0  0  0  0  0  0  0  0  0  0  0
  -22.8039  -30.2416   20.0647 C   0  0  0  0  0  0  0  0  0  0  0  0
  -23.1403  -29.1675   22.2024 C   0  0  0  0  0  0  0  0  0  0  0  0
  -20.3278  -22.6176   20.8542 C   0  0  0  0  0  0  0  0  0  0  0  0
  -22.9894  -21.8833   21.2049 C   0  0  0  0  0  0  0  0  0  0  0  0
  -27.7184  -18.2071   19.9290 C   0  0  0  0  0  0  0  0  0  0  0  0
  -25.1365  -25.6095   23.2613 C   0  0  0  0  0  0  0  0  0  0  0  0
  -25.5163  -24.7103   25.4714 C   0  0  0  0  0  0  0  0  0  0  0  0
  -30.4329  -21.8522   20.9754 C   0  0  0  0  0  0  0  0  0  0  0  0
  -21.5376  -30.6596   20.4739 C   0  0  0  0  0  0  0  0  0  0  0  0
  -21.8741  -29.5855   22.6118 C   0  0  0  0  0  0  0  0  0  0  0  0
  -28.9675  -18.0441   20.5264 C   0  0  0  0  0  0  0  0  0  0  0  0
  -31.4268  -21.1742   21.6811 C   0  0  0  0  0  0  0  0  0  0  0  0
  -18.6634  -28.6387   22.1361 C   0  0  0  0  0  0  0  0  0  0  0  0
  -17.8506  -27.7069   22.7814 C   0  0  0  0  0  0  0  0  0  0  0  0
  -31.2083  -22.7483   23.5010 C   0  0  0  0  0  0  0  0  0  0  0  0
  -28.1063  -16.1900   21.8071 C   0  0  0  0  0  0  0  0  0  0  0  0
  -17.7724  -29.1276   24.7341 C   0  0  0  0  0  0  0  0  0  0  0  0
  -23.6052  -29.4955   20.9289 C   0  0  0  0  0  0  0  0  0  0  0  0
  -30.2144  -23.4263   22.7952 C   0  0  0  0  0  0  0  0  0  0  0  0
  -26.1291  -29.7549   20.6630 C   0  0  0  0  0  0  0  0  0  0  0  0
  -20.6280  -21.3929   21.4711 C   0  0  0  0  0  0  0  0  0  0  0  0
  -26.6491  -17.3684   20.2748 C   0  0  0  0  0  0  0  0  0  0  0  0
  -21.9739  -21.0245   21.6587 C   0  0  0  0  0  0  0  0  0  0  0  0
  -26.8453  -16.3429   21.2108 C   0  0  0  0  0  0  0  0  0  0  0  0
  -26.0048  -25.3126   24.3119 C   0  0  0  0  0  0  0  0  0  0  0  0
  -29.8267  -22.9783   21.5324 C   0  0  0  0  0  0  0  0  0  0  0  0
  -21.0728  -30.3315   21.7475 C   0  0  0  0  0  0  0  0  0  0  0  0
  -31.8145  -21.6222   22.9439 C   0  0  0  0  0  0  0  0  0  0  0  0
  -29.1609  -17.0373   21.4677 C   0  0  0  0  0  0  0  0  0  0  0  0
  -19.0309  -29.8150   22.7897 C   0  0  0  0  0  0  0  0  0  0  0  0
  -17.4050  -27.9513   24.0804 C   0  0  0  0  0  0  0  0  0  0  0  0
  -18.5853  -30.0594   24.0887 C   0  0  0  0  0  0  0  0  0  0  0  0
  -24.9131  -29.0629   20.5065 C   0  0  0  0  0  0  0  0  0  0  0  0
  -27.0699  -28.9275   20.1002 C   0  0  0  0  0  0  0  0  0  0  0  0
  -29.6011  -24.5993   23.4054 C   0  0  0  0  0  0  0  0  0  0  0  0
  -26.3852  -31.0314   21.2636 C   0  0  0  0  0  0  0  0  0  0  0  0
  -23.7890  -17.8068   21.5907 C   0  0  0  0  0  0  0  0  0  0  0  0
  -23.4260  -14.6553   20.9138 C   0  0  0  0  0  0  0  0  0  0  0  0
  -24.8933  -11.6329   20.3147 C   0  0  0  0  0  0  0  0  0  0  0  0
  -28.3329  -23.3201   19.5329 C   0  0  0  0  0  0  0  0  0  0  0  0
  -19.4935  -20.5375   21.9769 C   0  0  0  0  0  0  0  0  0  0  0  0
  -25.3150  -17.5402   19.6017 C   0  0  0  0  0  0  0  0  0  0  0  0
  -25.7353  -15.4030   21.6017 C   0  0  0  0  0  0  0  0  0  0  0  0
  -19.9054  -19.1007   22.2870 C   0  0  0  0  0  0  0  0  0  0  0  0
  -26.9340  -25.1982   16.8510 C   0  0  0  0  0  0  0  0  0  0  0  0
  -21.1996  -19.0786   23.0939 C   0  0  0  0  0  0  0  0  0  0  0  0
  -26.3887  -26.4545   17.5339 C   0  0  0  0  0  0  0  0  0  0  0  0
  -26.7546  -23.9560   17.7219 C   0  0  0  0  0  0  0  0  0  0  0  0
  -26.7425  -25.3278   19.7682 C   0  0  0  0  0  0  0  0  0  0  0  0
  -22.3530  -19.7093   22.3042 C   0  0  1  0  0  0  0  0  0  0  0  0
  -24.1591  -16.9567   20.4084 C   0  0  1  0  0  0  0  0  0  0  0  0
  -26.9593  -26.6154   18.9566 C   0  0  2  0  0  0  0  0  0  0  0  0
  -24.3367   -9.2340   19.8318 C   0  0  0  0  0  0  0  0  0  0  0  0
  -33.2886  -21.0495   25.9801 C   0  0  0  0  0  0  0  0  0  0  0  0
  -22.6886  -14.2388   23.8451 C   0  0  0  0  0  0  0  0  0  0  0  0
  -23.0755  -11.7865   23.5218 C   0  0  0  0  0  0  0  0  0  0  0  0
  -21.2894  -12.9473   22.2238 C   0  0  0  0  0  0  0  0  0  0  0  0
  -26.2796  -11.7163   17.7013 C   0  0  0  0  0  0  0  0  0  0  0  0
  -27.4652  -25.6409   24.1954 C   0  0  0  0  0  0  0  0  0  0  0  0
  -30.3977  -16.3557   23.3813 C   0  0  0  0  0  0  0  0  0  1  0  0
  -31.6027  -16.9126   24.1144 C   0  0  0  0  0  0  0  0  0  0  0  0
  -32.6021  -18.9068   24.8540 C   0  0  0  0  0  0  0  0  0  0  0  0
  -23.7142  -13.3651   21.6427 C   0  0  1  0  0  0  0  0  0  0  0  0
  -24.6562  -10.5948   19.2327 C   0  0  2  0  0  0  0  0  0  0  0  0
  -32.4184  -20.4182   24.9039 C   0  0  2  0  0  0  0  0  0  0  0  0
  -22.7125  -13.1032   22.8026 C   0  0  0  0  0  0  0  0  0  0  0  0
  -25.0646  -27.8866   19.8922 N   0  0  0  0  0  0  0  0  0  0  0  0
  -26.3868  -27.8331   19.6577 N   0  0  0  0  0  0  0  0  0  0  0  0
  -24.4476  -15.6155   20.9204 N   0  0  0  0  0  0  0  0  0  0  0  0
  -27.3228  -24.1804   19.0529 N   0  0  0  0  0  0  0  0  0  0  0  0
  -28.4065  -29.0367   19.9455 N   0  0  0  0  0  0  0  0  0  0  0  0
  -25.3045  -31.7493   21.7936 N   0  0  0  0  0  0  0  0  0  0  0  0
  -28.8195  -23.6510   20.7971 N   0  0  0  0  0  0  0  0  0  0  0  0
  -28.2206  -24.5504   23.6220 N   0  0  0  0  0  0  0  0  0  0  0  0
  -22.8515  -18.7825   21.3107 N   0  0  0  0  0  0  0  0  0  0  0  0
  -23.7384  -12.3187   20.6264 N   0  0  0  0  0  0  0  0  0  0  0  0
  -25.8655  -10.4575   18.3727 N   0  3  0  0  0  0  0  0  0  0  0  0
  -30.2911  -25.5918   23.6912 O   0  0  0  0  0  0  0  0  0  0  0  0
  -27.5360  -31.5281   21.3136 O   0  0  0  0  0  0  0  0  0  0  0  0
  -24.3141  -17.5924   22.6770 O   0  0  0  0  0  0  0  0  0  0  0  0
  -22.3372  -14.8027   20.3529 O   0  0  0  0  0  0  0  0  0  0  0  0
  -25.9922  -11.8144   20.8342 O   0  0  0  0  0  0  0  0  0  0  0  0
  -28.7556  -22.3766   18.8598 O   0  0  0  0  0  0  0  0  0  0  0  0
  -19.8373  -30.7394   22.1473 O   0  0  0  0  0  0  0  0  0  0  0  0
  -30.3790  -16.8764   22.0527 O   0  0  0  0  0  0  0  0  0  1  0  0
  -32.7893  -20.9569   23.6359 O   0  0  0  0  0  0  0  0  0  0  0  0
  -31.4956  -18.3297   24.1751 O   0  0  0  0  0  0  0  0  0  0  0  0
  -16.6232  -27.0571   24.6995 F   0  0  0  0  0  0  0  0  0  0  0  0
  -18.9340  -31.1881   24.7213 F   0  0  0  0  0  0  0  0  0  0  0  0
  1  4  1  0  0  0  0
  1  5  2  0  0  0  0
  2  3  1  0  0  0  0
  2  8  2  0  0  0  0
  3  9  2  0  0  0  0
  4 11  2  0  0  0  0
  5 12  1  0  0  0  0
  6 14  2  0  0  0  0
  6 23  1  0  0  0  0
  7 15  1  0  0  0  0
  7 23  2  0  0  0  0
  8 26  1  0  0  0  0
  9 28  1  0  0  0  0
 10 16  2  0  0  0  0
 10 27  1  0  0  0  0
 11 30  1  0  0  0  0
 12 30  2  0  0  0  0
 13 17  2  0  0  0  0
 13 31  1  0  0  0  0
 14 32  1  0  0  0  0
 15 32  2  0  0  0  0
 16 34  1  0  0  0  0
 17 33  1  0  0  0  0
 18 19  2  0  0  0  0
 18 35  1  0  0  0  0
 19 36  1  0  0  0  0
 20 24  1  0  0  0  0
 20 33  2  0  0  0  0
 21 29  1  0  0  0  0
 21 34  2  0  0  0  0
 22 36  2  0  0  0  0
 22 37  1  0  0  0  0
 23 38  1  0  0  0  0
 24 31  2  0  0  0  0
 24 40  1  0  0  0  0
 25 38  1  0  0  0  0
 25 39  2  0  0  0  0
 25 41  1  0  0  0  0
 26 28  2  0  0  0  0
 26 46  1  0  0  0  0
 27 29  2  0  0  0  0
 27 47  1  0  0  0  0
 28 55  1  0  0  0  0
 29 48  1  0  0  0  0
 30 64  1  0  0  0  0
 31 78  1  0  0  0  0
 32 89  1  0  0  0  0
 33 91  1  0  0  0  0
 34 90  1  0  0  0  0
 35 37  2  0  0  0  0
 35 89  1  0  0  0  0
 36 93  1  0  0  0  0
 37 94  1  0  0  0  0
 38 72  2  0  0  0  0
 39 73  1  0  0  0  0
 39 76  1  0  0  0  0
 40 79  1  0  0  0  0
 40 83  2  0  0  0  0
 41 77  1  0  0  0  0
 41 84  2  0  0  0  0
 42 56  1  0  0  0  0
 42 80  1  0  0  0  0
 42 85  2  0  0  0  0
 43 68  1  0  0  0  0
 43 74  1  0  0  0  0
 43 86  2  0  0  0  0
 44 69  1  0  0  0  0
 44 81  1  0  0  0  0
 44 87  2  0  0  0  0
 45 75  1  0  0  0  0
 45 78  1  0  0  0  0
 45 88  2  0  0  0  0
 46 49  1  0  0  0  0
 47 56  1  0  0  0  0
 48 74  1  0  0  0  0
 49 51  1  0  0  0  0
 50 52  1  0  0  0  0
 50 53  1  0  0  0  0
 51 55  1  0  0  0  0
 52 57  1  0  0  0  0
 53 75  1  0  0  0  0
 54 57  1  0  0  0  0
 54 75  1  0  0  0  0
 55 80  1  0  0  0  0
 56 74  1  0  0  0  0
 57 73  1  0  0  0  0
 58 69  1  0  0  0  0
 59 70  1  0  0  0  0
 60 71  1  0  0  0  0
 61 71  1  0  0  0  0
 62 71  1  0  0  0  0
 63 82  1  0  0  0  0
 64 79  1  0  0  0  0
 65 66  1  0  0  0  0
 65 90  1  0  0  0  0
 66 92  1  0  0  0  0
 67 70  1  0  0  0  0
 67 92  1  0  0  0  0
 68 71  1  0  0  0  0
 68 81  1  0  0  0  0
 69 82  1  0  0  0  0
 70 91  1  0  0  0  0
 72 73  1  0  0  0  0
M  CHG  1  82   1
M  ISO  4  45 100  65 101  78 100  90 101
M  END
> <Batch ID>
0000

> <Smiles>
CNC(C)C(=O)NC(C(=O)N1Cc2cc([101O:1][101CH2:1]COCC(C)Oc3ccc([100NH:0][100C:0](=O)N4CCCC(n5nc(-c6ccc(Oc7ccc(F)cc7F)cc6)c(C(N)=O)c5N)C4)c(C(=O)NCc4ccccc4)c3)ccc2CC1C(=O)NC1CCCc2ccccc21)C(C)(C)C

> <Shape>
0.220

> <Color>
0.072

> <Negative vol penalty>
0.000

$$$$

  -OEChem-04052315133D

 89 97  0     1  0  0  0  0  0999 V2000
  -29.5367  -32.3927   25.6488 C   0  0  0  0  0  0  0  0  0  0  0  0
  -29.3593  -31.2641   24.8549 C   0  0  0  0  0  0  0  0  0  0  0  0
  -20.8730  -16.7796   22.1462 C   0  0  0  0  0  0  0  0  0  0  0  0
  -22.1184  -17.5937   20.2427 C   0  0  0  0  0  0  0  0  0  0  0  0
  -28.4467  -32.9558   26.3112 C   0  0  0  0  0  0  0  0  0  0  0  0
  -28.0920  -30.6973   24.7239 C   0  0  0  0  0  0  0  0  0  0  0  0
  -26.9863  -29.4981   19.9297 C   0  0  0  0  0  0  0  0  0  0  0  0
  -27.5118  -20.1559   20.4336 C   0  0  0  0  0  0  0  0  0  0  0  0
  -29.4825  -21.1944   19.4982 C   0  0  0  0  0  0  0  0  0  0  0  0
  -20.9334  -18.0461   22.7274 C   0  0  0  0  0  0  0  0  0  0  0  0
  -22.1787  -18.8603   20.8239 C   0  0  0  0  0  0  0  0  0  0  0  0
  -27.5530  -28.3315   19.4182 C   0  0  0  0  0  0  0  0  0  0  0  0
  -28.1987  -18.9464   20.5378 C   0  0  0  0  0  0  0  0  0  0  0  0
  -30.1694  -19.9849   19.6025 C   0  0  0  0  0  0  0  0  0  0  0  0
  -23.9744  -20.4139   23.2307 C   0  0  0  0  0  0  0  0  0  0  0  0
  -25.2005  -21.0786   23.2102 C   0  0  0  0  0  0  0  0  0  0  0  0
  -25.4774  -27.1630   19.8001 C   0  0  0  0  0  0  0  0  0  0  0  0
  -24.2017  -22.8822   21.9506 C   0  0  0  0  0  0  0  0  0  0  0  0
  -21.4656  -16.5533   20.9038 C   0  0  0  0  0  0  0  0  0  0  0  0
  -20.4073  -14.7520   19.4399 C   0  0  0  0  0  0  0  0  0  0  0  0
  -27.1637  -32.4013   26.1806 C   0  0  0  0  0  0  0  0  0  0  0  0
  -25.6621  -29.5032   20.3910 C   0  0  0  0  0  0  0  0  0  0  0  0
  -26.9842  -31.2527   25.3863 C   0  0  0  0  0  0  0  0  0  0  0  0
  -24.8954  -28.3316   20.3145 C   0  0  0  0  0  0  0  0  0  0  0  0
  -28.1537  -21.2799   19.9137 C   0  0  0  0  0  0  0  0  0  0  0  0
  -21.5862  -19.0865   22.0662 C   0  0  0  0  0  0  0  0  0  0  0  0
  -29.5275  -18.8609   20.1223 C   0  0  0  0  0  0  0  0  0  0  0  0
  -26.7995  -27.1629   19.3560 C   0  0  0  0  0  0  0  0  0  0  0  0
  -22.8619  -20.9833   22.6111 C   0  0  0  0  0  0  0  0  0  0  0  0
  -25.3142  -22.3127   22.5702 C   0  0  0  0  0  0  0  0  0  0  0  0
  -22.9756  -22.2175   21.9711 C   0  0  0  0  0  0  0  0  0  0  0  0
  -21.4040  -15.2451   20.3032 C   0  0  0  0  0  0  0  0  0  0  0  0
  -20.8064  -13.4698   19.1516 C   0  0  0  0  0  0  0  0  0  0  0  0
  -19.2263  -15.3955   18.9431 C   0  0  0  0  0  0  0  0  0  0  0  0
  -24.2655  -30.0456   23.1944 C   0  0  0  0  0  0  0  0  0  0  0  0
  -21.5438  -29.7836   21.4490 C   0  0  0  0  0  0  0  0  0  0  0  0
  -27.9394  -23.7154   19.3168 C   0  0  0  0  0  0  0  0  0  0  0  0
  -19.9952  -28.5663   18.6621 C   0  0  0  0  0  0  0  0  0  0  0  0
  -26.1492  -10.7669   19.1428 C   0  0  0  0  0  0  0  0  0  0  0  0
  -26.0246  -33.0172   26.9538 C   0  0  0  0  0  0  0  0  0  0  0  0
  -25.0570  -30.7766   20.9152 C   0  0  0  0  0  0  0  0  0  0  0  0
  -23.4630  -28.2896   20.7780 C   0  0  0  0  0  0  0  0  0  0  0  0
  -24.6475  -32.5776   26.4632 C   0  0  0  0  0  0  0  0  0  0  0  0
  -23.2683   -9.8087   21.0027 C   0  0  0  0  0  0  0  0  0  0  0  0
  -24.6093  -31.0657   26.2641 C   0  0  0  0  0  0  0  0  0  0  0  0
  -22.3739  -11.0488   20.9564 C   0  0  0  0  0  0  0  0  0  0  0  0
  -24.7459  -10.1819   21.0986 C   0  0  0  0  0  0  0  0  0  0  0  0
  -24.3243  -12.3525   20.0102 C   0  0  0  0  0  0  0  0  0  0  0  0
  -25.6205  -30.6237   25.1995 C   0  0  1  0  0  0  0  0  0  0  0  0
  -23.8622  -30.5369   21.8329 C   0  0  1  0  0  0  0  0  0  0  0  0
  -22.8286  -12.0274   19.8569 C   0  0  2  0  0  0  0  0  0  0  0  0
  -17.7575  -28.4839   17.5294 C   0  0  0  0  0  0  0  0  0  0  0  0
  -20.6093  -27.6814   23.4533 C   0  0  0  0  0  0  0  0  0  0  0  0
  -18.8725  -26.9731   21.7950 C   0  0  0  0  0  0  0  0  0  0  0  0
  -18.8370  -29.2880   22.7240 C   0  0  0  0  0  0  0  0  0  0  0  0
  -21.0230  -29.9784   16.2729 C   0  0  0  0  0  0  0  0  0  0  0  0
  -26.8655  -24.7857   19.3787 C   0  0  0  0  0  0  0  0  0  1  0  0
  -28.8204  -12.0199   17.6131 C   0  0  0  0  0  0  0  0  0  0  0  0
  -28.8033  -13.5279   17.8652 C   0  0  0  0  0  0  0  0  0  0  0  0
  -27.4633  -11.4870   17.1645 C   0  0  0  0  0  0  0  0  0  0  0  0
  -30.1575  -14.0294   18.3506 C   0  0  0  0  0  0  0  0  0  0  0  0
  -31.2222  -17.4308   19.2629 C   0  0  0  0  0  0  0  0  0  0  0  0
  -31.3440  -15.9347   19.0471 C   0  0  0  0  0  0  0  0  0  0  0  0
  -20.6289  -28.6478   21.0593 C   0  0  1  0  0  0  0  0  0  0  0  0
  -19.0784  -29.2279   17.6491 C   0  0  2  0  0  0  0  0  0  0  0  0
  -19.7645  -28.1475   22.2509 C   0  0  0  0  0  0  0  0  0  0  0  0
  -22.3640  -14.3491   20.5474 N   0  0  0  0  0  0  0  0  0  0  0  0
  -21.9723  -13.2800   19.8333 N   0  0  0  0  0  0  0  0  0  0  0  0
  -22.9184  -29.5587   21.2883 N   0  0  0  0  0  0  0  0  0  0  0  0
  -25.1131  -11.1105   20.0268 N   0  0  0  0  0  0  0  0  0  0  0  0
  -20.2701  -12.4974   18.3839 N   0  0  0  0  0  0  0  0  0  0  0  0
  -18.9675  -16.7149   19.3390 N   0  0  0  0  0  0  0  0  0  0  0  0
  -27.4569  -22.5070   19.8078 N   0  0  0  0  0  0  0  0  0  0  0  0
  -25.1120  -30.9011   23.8733 N   0  0  0  0  0  0  0  0  0  0  0  0
  -19.8548  -29.1209   19.9167 N   0  0  0  0  0  0  0  0  0  0  0  0
  -26.4291  -11.7003   18.1523 N   0  0  0  0  0  0  0  0  0  0  0  0
  -19.7249  -29.2568   16.3067 N   0  3  0  0  0  0  0  0  0  0  0  0
  -18.4158  -14.8122   18.1840 O   0  0  0  0  0  0  0  0  0  0  0  0
  -23.8389  -28.9706   23.5996 O   0  0  0  0  0  0  0  0  0  0  0  0
  -21.0565  -30.8343   21.8735 O   0  0  0  0  0  0  0  0  0  0  0  0
  -29.0605  -23.9546   18.8804 O   0  0  0  0  0  0  0  0  0  0  0  0
  -20.7568  -27.6468   18.3706 O   0  0  0  0  0  0  0  0  0  0  0  0
  -26.7746   -9.7045   19.2267 O   0  0  0  0  0  0  0  0  0  0  0  0
  -21.6451  -20.3225   22.6330 O   0  0  0  0  0  0  0  0  0  0  0  0
  -27.3504  -26.0227   18.8579 O   0  0  0  0  0  0  0  0  0  1  0  0
  -30.1978  -17.6807   20.2240 O   0  0  0  0  0  0  0  0  0  0  0  0
  -30.0953  -15.4283   18.5913 O   0  0  0  0  0  0  0  0  0  0  0  0
  -26.4913  -22.9516   22.5519 F   0  0  0  0  0  0  0  0  0  0  0  0
  -21.9101  -22.7701   21.3752 F   0  0  0  0  0  0  0  0  0  0  0  0
  1  2  1  0  0  0  0
  1  5  2  0  0  0  0
  2  6  2  0  0  0  0
  3 10  2  0  0  0  0
  3 19  1  0  0  0  0
  4 11  1  0  0  0  0
  4 19  2  0  0  0  0
  5 21  1  0  0  0  0
  6 23  1  0  0  0  0
  7 12  2  0  0  0  0
  7 22  1  0  0  0  0
  8 13  2  0  0  0  0
  8 25  1  0  0  0  0
  9 14  1  0  0  0  0
  9 25  2  0  0  0  0
 10 26  1  0  0  0  0
 11 26  2  0  0  0  0
 12 28  1  0  0  0  0
 13 27  1  0  0  0  0
 14 27  2  0  0  0  0
 15 16  2  0  0  0  0
 15 29  1  0  0  0  0
 16 30  1  0  0  0  0
 17 24  1  0  0  0  0
 17 28  2  0  0  0  0
 18 30  2  0  0  0  0
 18 31  1  0  0  0  0
 19 32  1  0  0  0  0
 20 32  1  0  0  0  0
 20 33  2  0  0  0  0
 20 34  1  0  0  0  0
 21 23  2  0  0  0  0
 21 40  1  0  0  0  0
 22 24  2  0  0  0  0
 22 41  1  0  0  0  0
 23 49  1  0  0  0  0
 24 42  1  0  0  0  0
 25 73  1  0  0  0  0
 26 84  1  0  0  0  0
 27 86  1  0  0  0  0
 28 85  1  0  0  0  0
 29 31  2  0  0  0  0
 29 84  1  0  0  0  0
 30 88  1  0  0  0  0
 31 89  1  0  0  0  0
 32 67  2  0  0  0  0
 33 68  1  0  0  0  0
 33 71  1  0  0  0  0
 34 72  1  0  0  0  0
 34 78  2  0  0  0  0
 35 50  1  0  0  0  0
 35 74  1  0  0  0  0
 35 79  2  0  0  0  0
 36 64  1  0  0  0  0
 36 69  1  0  0  0  0
 36 80  2  0  0  0  0
 37 57  1  0  0  0  0
 37 73  1  0  0  0  0
 37 81  2  0  0  0  0
 38 65  1  0  0  0  0
 38 75  1  0  0  0  0
 38 82  2  0  0  0  0
 39 70  1  0  0  0  0
 39 76  1  0  0  0  0
 39 83  2  0  0  0  0
 40 43  1  0  0  0  0
 41 50  1  0  0  0  0
 42 69  1  0  0  0  0
 43 45  1  0  0  0  0
 44 46  1  0  0  0  0
 44 47  1  0  0  0  0
 45 49  1  0  0  0  0
 46 51  1  0  0  0  0
 47 70  1  0  0  0  0
 48 51  1  0  0  0  0
 48 70  1  0  0  0  0
 49 74  1  0  0  0  0
 50 69  1  0  0  0  0
 51 68  1  0  0  0  0
 52 65  1  0  0  0  0
 53 66  1  0  0  0  0
 54 66  1  0  0  0  0
 55 66  1  0  0  0  0
 56 77  1  0  0  0  0
 57 85  1  0  0  0  0
 58 59  1  0  0  0  0
 58 60  1  0  0  0  0
 59 61  1  0  0  0  0
 60 76  1  0  0  0  0
 61 87  1  0  0  0  0
 62 63  1  0  0  0  0
 62 86  1  0  0  0  0
 63 87  1  0  0  0  0
 64 66  1  0  0  0  0
 64 75  1  0  0  0  0
 65 77  1  0  0  0  0
 67 68  1  0  0  0  0
M  CHG  1  77   1
M  ISO  4  39 100  57 101  76 100  85 101
M  END
> <Batch ID>
0000

> <Smiles>
CNC(C)C(=O)NC(C(=O)N1Cc2cc([101O:1][101CH2:1]C(=O)Nc3ccc(OCCOCCCC[100NH:0][100C:0](=O)N4CCCC(n5nc(-c6ccc(Oc7ccc(F)cc7F)cc6)c(C(N)=O)c5N)C4)cc3)ccc2CC1C(=O)NC1CCCc2ccccc21)C(C)(C)C

> <Shape>
0.265

> <Color>
0.085

> <Negative vol penalty>
0.000

$$$$

  -OEChem-04052315133D

 97107  0     1  0  0  0  0  0999 V2000
  -33.4485  -28.1884   21.0571 C   0  0  0  0  0  0  0  0  0  0  0  0
  -23.9956  -36.4154   19.0786 C   0  0  0  0  0  0  0  0  0  0  0  0
  -24.9465  -35.4003   19.1077 C   0  0  0  0  0  0  0  0  0  0  0  0
  -34.6926  -27.9032   21.6144 C   0  0  0  0  0  0  0  0  0  0  0  0
  -32.7806  -27.2391   20.2752 C   0  0  0  0  0  0  0  0  0  0  0  0
  -26.9029  -14.0047   21.7928 C   0  0  0  0  0  0  0  0  0  0  0  0
  -26.5357  -14.0848   19.4062 C   0  0  0  0  0  0  0  0  0  0  0  0
  -22.8375  -36.3064   19.8473 C   0  0  0  0  0  0  0  0  0  0  0  0
  -24.7403  -34.2761   19.9064 C   0  0  0  0  0  0  0  0  0  0  0  0
  -26.4378  -28.5225   18.6731 C   0  0  0  0  0  0  0  0  0  0  0  0
  -32.8417  -22.2781   18.1333 C   0  0  0  0  0  0  0  0  0  0  0  0
  -35.3062  -26.6647   21.4087 C   0  0  0  0  0  0  0  0  0  0  0  0
  -33.9689  -22.6006   18.8936 C   0  0  0  0  0  0  0  0  0  0  0  0
  -26.0805  -12.8816   21.8816 C   0  0  0  0  0  0  0  0  0  0  0  0
  -25.7134  -12.9616   19.4950 C   0  0  0  0  0  0  0  0  0  0  0  0
  -27.5311  -27.7593   19.0805 C   0  0  0  0  0  0  0  0  0  0  0  0
  -26.3226   -9.5632   21.2795 C   0  0  0  0  0  0  0  0  0  0  0  0
  -26.7670   -8.4944   22.0578 C   0  0  0  0  0  0  0  0  0  0  0  0
  -31.8662  -24.4599   18.5553 C   0  0  0  0  0  0  0  0  0  0  0  0
  -26.1939  -26.7946   20.8413 C   0  0  0  0  0  0  0  0  0  0  0  0
  -24.8134   -8.7059   23.4636 C   0  0  0  0  0  0  0  0  0  0  0  0
  -33.3796  -25.9813   20.0527 C   0  0  0  0  0  0  0  0  0  0  0  0
  -32.9940  -24.8094   19.3274 C   0  0  0  0  0  0  0  0  0  0  0  0
  -27.1304  -14.6064   20.5550 C   0  0  0  0  0  0  0  0  0  0  0  0
  -29.3706  -15.7877   20.2491 C   0  0  0  0  0  0  0  0  0  0  0  0
  -22.6125  -35.1758   20.6483 C   0  0  0  0  0  0  0  0  0  0  0  0
  -25.2154  -28.4354   19.3547 C   0  0  0  0  0  0  0  0  0  0  0  0
  -23.5787  -34.1524   20.6875 C   0  0  0  0  0  0  0  0  0  0  0  0
  -25.0858  -27.5558   20.4389 C   0  0  0  0  0  0  0  0  0  0  0  0
  -31.8046  -23.1925   17.9653 C   0  0  0  0  0  0  0  0  0  0  0  0
  -34.6262  -25.7258   20.6245 C   0  0  0  0  0  0  0  0  0  0  0  0
  -34.0161  -23.8719   19.4772 C   0  0  0  0  0  0  0  0  0  0  0  0
  -25.4858  -12.3600   20.7328 C   0  0  0  0  0  0  0  0  0  0  0  0
  -27.4101  -26.8974   20.1666 C   0  0  0  0  0  0  0  0  0  0  0  0
  -25.1237  -10.2034   21.5932 C   0  0  0  0  0  0  0  0  0  0  0  0
  -26.0124   -8.0657   23.1498 C   0  0  0  0  0  0  0  0  0  0  0  0
  -24.3691   -9.7748   22.6852 C   0  0  0  0  0  0  0  0  0  0  0  0
  -27.9793  -15.7669   20.4627 C   0  0  0  0  0  0  0  0  0  0  0  0
  -29.6972  -17.1217   20.2428 C   0  0  0  0  0  0  0  0  0  0  0  0
  -30.2860  -14.6984   20.0722 C   0  0  0  0  0  0  0  0  0  0  0  0
  -23.4125  -30.4742   20.9968 C   0  0  0  0  0  0  0  0  0  0  0  0
  -21.3359  -27.9829   21.0583 C   0  0  0  0  0  0  0  0  0  0  0  0
  -20.8511  -24.6100   20.8711 C   0  0  0  0  0  0  0  0  0  0  0  0
  -28.6856  -22.3722   18.6446 C   0  0  0  0  0  0  0  0  0  0  0  0
  -21.3676  -35.1244   21.4983 C   0  0  0  0  0  0  0  0  0  0  0  0
  -24.0378  -29.2455   18.8861 C   0  0  0  0  0  0  0  0  0  0  0  0
  -23.7894  -27.4104   21.1917 C   0  0  0  0  0  0  0  0  0  0  0  0
  -21.0499  -33.7290   22.0294 C   0  0  0  0  0  0  0  0  0  0  0  0
  -26.9727  -21.1843   21.5310 C   0  0  0  0  0  0  0  0  0  0  0  0
  -22.3045  -33.0774   22.6023 C   0  0  0  0  0  0  0  0  0  0  0  0
  -27.1914  -19.6709   21.4891 C   0  0  0  0  0  0  0  0  0  0  0  0
  -26.7981  -21.7682   20.1308 C   0  0  0  0  0  0  0  0  0  0  0  0
  -28.0959  -19.9221   19.1401 C   0  0  0  0  0  0  0  0  0  0  0  0
  -23.3794  -32.9060   21.5222 C   0  0  1  0  0  0  0  0  0  0  0  0
  -22.9890  -29.4591   19.9731 C   0  0  1  0  0  0  0  0  0  0  0  0
  -28.3329  -19.2958   20.5250 C   0  0  2  0  0  0  0  0  0  0  0  0
  -19.0478  -22.8692   20.9947 C   0  0  0  0  0  0  0  0  0  0  0  0
  -21.2450  -28.2959   24.0921 C   0  0  0  0  0  0  0  0  0  0  0  0
  -20.2307  -26.0109   24.2276 C   0  0  0  0  0  0  0  0  0  0  0  0
  -19.0308  -27.8368   23.0239 C   0  0  0  0  0  0  0  0  0  0  0  0
  -21.3850  -23.6941   18.1080 C   0  0  0  0  0  0  0  0  0  0  0  0
  -30.6137  -22.8184   17.1470 C   0  0  0  0  0  0  0  0  0  0  0  0
  -30.0113  -25.6639   22.3629 C   0  0  0  0  0  0  0  0  0  0  0  0
  -36.2310  -23.7942   20.6582 C   0  0  0  0  0  0  0  0  0  0  0  0
  -28.5557  -25.8246   21.9534 C   0  0  0  0  0  0  0  0  0  1  0  0
  -30.1535  -25.3334   23.8404 C   0  0  0  0  0  0  0  0  0  0  0  0
  -36.0303  -22.7951   21.7898 C   0  0  0  0  0  0  0  0  0  0  0  0
  -31.7030  -24.8882   25.5502 C   0  0  0  0  0  0  0  0  0  0  0  0
  -35.6846  -22.7137   24.1128 C   0  0  0  0  0  0  0  0  0  0  0  0
  -33.1838  -24.7333   25.8384 C   0  0  0  0  0  0  0  0  0  0  0  0
  -35.0899  -23.4769   25.2806 C   0  0  0  0  0  0  0  0  0  0  0  0
  -21.0954  -26.8141   21.9831 C   0  0  1  0  0  0  0  0  0  0  0  0
  -19.8568  -23.7775   20.0819 C   0  0  2  0  0  0  0  0  0  0  0  0
  -20.4256  -27.2434   23.3189 C   0  0  0  0  0  0  0  0  0  0  0  0
  -27.4579  -16.9907   20.5834 N   0  0  0  0  0  0  0  0  0  0  0  0
  -34.9860  -24.4491   20.2624 N   0  0  0  0  0  0  0  0  0  0  0  0
  -28.5273  -17.7929   20.4454 N   0  0  0  0  0  0  0  0  0  0  0  0
  -22.6687  -28.2284   20.6992 N   0  0  0  0  0  0  0  0  0  0  0  0
  -27.9144  -21.3767   19.2668 N   0  0  0  0  0  0  0  0  0  0  0  0
  -30.8681  -17.7745   20.0838 N   0  0  0  0  0  0  0  0  0  0  0  0
  -29.7829  -13.3907   20.1065 N   0  0  0  0  0  0  0  0  0  0  0  0
  -23.0695  -31.7737   20.6759 N   0  0  0  0  0  0  0  0  0  0  0  0
  -20.3283  -25.8382   21.2165 N   0  0  0  0  0  0  0  0  0  0  0  0
  -29.7282  -21.9153   17.8477 N   0  0  0  0  0  0  0  0  0  0  0  0
  -20.5682  -22.9287   19.0847 N   0  3  0  0  0  0  0  0  0  0  0  0
  -31.5161  -14.8788   19.9055 O   0  0  0  0  0  0  0  0  0  0  0  0
  -24.0051  -30.1055   22.0040 O   0  0  0  0  0  0  0  0  0  0  0  0
  -20.3757  -28.6490   20.6633 O   0  0  0  0  0  0  0  0  0  0  0  0
  -21.9774  -24.2092   21.1561 O   0  0  0  0  0  0  0  0  0  0  0  0
  -28.4649  -23.5790   18.7927 O   0  0  0  0  0  0  0  0  0  0  0  0
  -24.6835  -11.2639   20.8191 O   0  0  0  0  0  0  0  0  0  0  0  0
  -28.4759  -26.1518   20.5667 O   0  0  0  0  0  0  0  0  0  1  0  0
  -31.5282  -25.1979   24.1742 O   0  0  0  0  0  0  0  0  0  0  0  0
  -35.4723  -23.4549   22.9175 O   0  0  0  0  0  0  0  0  0  0  0  0
  -33.7010  -23.6679   25.0505 O   0  0  0  0  0  0  0  0  0  0  0  0
  -26.4384   -7.0383   23.8963 F   0  0  0  0  0  0  0  0  0  0  0  0
  -23.2159  -10.3851   22.9908 F   0  0  0  0  0  0  0  0  0  0  0  0
  1  4  1  0  0  0  0
  1  5  2  0  0  0  0
  2  3  1  0  0  0  0
  2  8  2  0  0  0  0
  3  9  2  0  0  0  0
  4 12  2  0  0  0  0
  5 22  1  0  0  0  0
  6 14  2  0  0  0  0
  6 24  1  0  0  0  0
  7 15  1  0  0  0  0
  7 24  2  0  0  0  0
  8 26  1  0  0  0  0
  9 28  1  0  0  0  0
 10 16  2  0  0  0  0
 10 27  1  0  0  0  0
 11 13  2  0  0  0  0
 11 30  1  0  0  0  0
 12 31  1  0  0  0  0
 13 32  1  0  0  0  0
 14 33  1  0  0  0  0
 15 33  2  0  0  0  0
 16 34  1  0  0  0  0
 17 18  2  0  0  0  0
 17 35  1  0  0  0  0
 18 36  1  0  0  0  0
 19 23  1  0  0  0  0
 19 30  2  0  0  0  0
 20 29  1  0  0  0  0
 20 34  2  0  0  0  0
 21 36  2  0  0  0  0
 21 37  1  0  0  0  0
 22 23  1  0  0  0  0
 22 31  2  0  0  0  0
 23 32  2  0  0  0  0
 24 38  1  0  0  0  0
 25 38  1  0  0  0  0
 25 39  2  0  0  0  0
 25 40  1  0  0  0  0
 26 28  2  0  0  0  0
 26 45  1  0  0  0  0
 27 29  2  0  0  0  0
 27 46  1  0  0  0  0
 28 54  1  0  0  0  0
 29 47  1  0  0  0  0
 30 62  1  0  0  0  0
 31 76  1  0  0  0  0
 32 76  1  0  0  0  0
 33 91  1  0  0  0  0
 34 92  1  0  0  0  0
 35 37  2  0  0  0  0
 35 91  1  0  0  0  0
 36 96  1  0  0  0  0
 37 97  1  0  0  0  0
 38 75  2  0  0  0  0
 39 77  1  0  0  0  0
 39 80  1  0  0  0  0
 40 81  1  0  0  0  0
 40 86  2  0  0  0  0
 41 55  1  0  0  0  0
 41 82  1  0  0  0  0
 41 87  2  0  0  0  0
 42 72  1  0  0  0  0
 42 78  1  0  0  0  0
 42 88  2  0  0  0  0
 43 73  1  0  0  0  0
 43 83  1  0  0  0  0
 43 89  2  0  0  0  0
 44 79  1  0  0  0  0
 44 84  1  0  0  0  0
 44 90  2  0  0  0  0
 45 48  1  0  0  0  0
 46 55  1  0  0  0  0
 47 78  1  0  0  0  0
 48 50  1  0  0  0  0
 49 51  1  0  0  0  0
 49 52  1  0  0  0  0
 50 54  1  0  0  0  0
 51 56  1  0  0  0  0
 52 79  1  0  0  0  0
 53 56  1  0  0  0  0
 53 79  1  0  0  0  0
 54 82  1  0  0  0  0
 55 78  1  0  0  0  0
 56 77  1  0  0  0  0
 57 73  1  0  0  0  0
 58 74  1  0  0  0  0
 59 74  1  0  0  0  0
 60 74  1  0  0  0  0
 61 85  1  0  0  0  0
 62 84  1  0  0  0  0
 63 65  1  0  0  0  0
 63 66  1  0  0  0  0
 64 67  1  0  0  0  0
 64 76  1  0  0  0  0
 65 92  1  0  0  0  0
 66 93  1  0  0  0  0
 67 94  1  0  0  0  0
 68 70  1  0  0  0  0
 68 93  1  0  0  0  0
 69 71  1  0  0  0  0
 69 94  1  0  0  0  0
 70 95  1  0  0  0  0
 71 95  1  0  0  0  0
 72 74  1  0  0  0  0
 72 83  1  0  0  0  0
 73 85  1  0  0  0  0
 75 77  1  0  0  0  0
M  CHG  1  85   1
M  ISO  4  44 100  65 101  84 100  92 101
M  END
> <Batch ID>
0000

> <Smiles>
CNC(C)C(=O)NC(C(=O)N1Cc2cc([101O:1][101CH2:1]CCOCCOCCOCCn3c4ccccc4c4cc(C[100NH:0][100C:0](=O)N5CCCC(n6nc(-c7ccc(Oc8ccc(F)cc8F)cc7)c(C(N)=O)c6N)C5)ccc43)ccc2CC1C(=O)NC1CCCc2ccccc21)C(C)(C)C

> <Shape>
0.222

> <Color>
0.066

> <Negative vol penalty>
0.000

$$$$

  -OEChem-04052315133D

 86 93  0     1  0  0  0  0  0999 V2000
  -27.6433  -21.0791   16.1387 C   0  0  0  0  0  0  0  0  0  0  0  0
  -26.7965  -21.6322   17.0939 C   0  0  0  0  0  0  0  0  0  0  0  0
  -25.9968  -14.4647   19.2375 C   0  0  0  0  0  0  0  0  0  0  0  0
  -25.2327  -14.4452   21.5294 C   0  0  0  0  0  0  0  0  0  0  0  0
  -28.9350  -21.5796   15.9804 C   0  0  0  0  0  0  0  0  0  0  0  0
  -27.2413  -22.6853   17.8923 C   0  0  0  0  0  0  0  0  0  0  0  0
  -23.9101  -27.3770   19.9891 C   0  0  0  0  0  0  0  0  0  0  0  0
  -25.9867  -13.0700   19.2223 C   0  0  0  0  0  0  0  0  0  0  0  0
  -25.2226  -13.0505   21.5142 C   0  0  0  0  0  0  0  0  0  0  0  0
  -23.2947  -27.6156   21.2172 C   0  0  0  0  0  0  0  0  0  0  0  0
  -24.6499   -9.4885   21.9639 C   0  0  0  0  0  0  0  0  0  0  0  0
  -23.5416   -8.8412   22.5100 C   0  0  0  0  0  0  0  0  0  0  0  0
  -25.2121  -28.8985   21.9220 C   0  0  0  0  0  0  0  0  0  0  0  0
  -22.1093   -9.9382   20.9030 C   0  0  0  0  0  0  0  0  0  0  0  0
  -25.6198  -15.1523   20.3911 C   0  0  0  0  0  0  0  0  0  0  0  0
  -24.5725  -17.4551   20.0625 C   0  0  0  0  0  0  0  0  0  0  0  0
  -29.3925  -22.6458   16.7706 C   0  0  0  0  0  0  0  0  0  0  0  0
  -25.1879  -27.8891   19.7219 C   0  0  0  0  0  0  0  0  0  0  0  0
  -28.5408  -23.1997   17.7454 C   0  0  0  0  0  0  0  0  0  0  0  0
  -25.8405  -28.6672   20.6888 C   0  0  0  0  0  0  0  0  0  0  0  0
  -25.5996  -12.3629   20.3606 C   0  0  0  0  0  0  0  0  0  0  0  0
  -23.9469  -28.3740   22.1849 C   0  0  0  0  0  0  0  0  0  0  0  0
  -24.4880  -10.3607   20.8875 C   0  0  0  0  0  0  0  0  0  0  0  0
  -22.2712   -9.0660   21.9796 C   0  0  0  0  0  0  0  0  0  0  0  0
  -23.2176  -10.5855   20.3570 C   0  0  0  0  0  0  0  0  0  0  0  0
  -25.6306  -16.5931   20.4077 C   0  0  0  0  0  0  0  0  0  0  0  0
  -25.0841  -18.7167   20.2446 C   0  0  0  0  0  0  0  0  0  0  0  0
  -23.2458  -17.1433   19.6170 C   0  0  0  0  0  0  0  0  0  0  0  0
  -28.0235  -26.6125   19.0636 C   0  0  0  0  0  0  0  0  0  0  0  0
  -28.8768  -29.7090   18.6095 C   0  0  0  0  0  0  0  0  0  0  0  0
  -28.2900  -33.0038   19.2777 C   0  0  0  0  0  0  0  0  0  0  0  0
  -28.0032  -22.3962   23.2589 C   0  0  0  0  0  0  0  0  0  0  0  0
  -30.8129  -23.1218   16.5956 C   0  0  0  0  0  0  0  0  0  0  0  0
  -25.8268  -27.6452   18.3822 C   0  0  0  0  0  0  0  0  0  0  0  0
  -27.2046  -29.2566   20.4438 C   0  0  0  0  0  0  0  0  0  0  0  0
  -31.0798  -24.4868   17.2247 C   0  0  0  0  0  0  0  0  0  0  0  0
  -29.8299  -20.2564   21.0770 C   0  0  0  0  0  0  0  0  0  0  0  0
  -30.5001  -24.5475   18.6343 C   0  0  0  0  0  0  0  0  0  0  0  0
  -28.8151  -19.1809   20.6852 C   0  0  0  0  0  0  0  0  0  0  0  0
  -29.6522  -20.6983   22.5279 C   0  0  0  0  0  0  0  0  0  0  0  0
  -27.2727  -20.0576   22.4883 C   0  0  0  0  0  0  0  0  0  0  0  0
  -28.9783  -24.3594   18.6135 C   0  0  1  0  0  0  0  0  0  0  0  0
  -27.3458  -27.7839   18.4106 C   0  0  1  0  0  0  0  0  0  0  0  0
  -27.3763  -19.6200   21.0172 C   0  0  2  0  0  0  0  0  0  0  0  0
  -29.1782  -35.3005   18.7940 C   0  0  0  0  0  0  0  0  0  0  0  0
  -31.1610  -29.2374   20.5768 C   0  0  0  0  0  0  0  0  0  0  0  0
  -31.4065  -31.7207   20.7793 C   0  0  0  0  0  0  0  0  0  0  0  0
  -31.7731  -30.6084   18.5768 C   0  0  0  0  0  0  0  0  0  0  0  0
  -25.7637  -33.8334   17.9784 C   0  0  0  0  0  0  0  0  0  0  0  0
  -26.1541  -24.0424   25.4682 C   0  0  0  0  0  0  0  0  0  0  0  0
  -22.4754  -27.5887   25.3897 C   0  0  0  0  0  0  0  0  0  0  0  0
  -24.3140  -22.4084   29.5688 C   0  0  0  0  0  0  0  0  0  0  0  0
  -20.7986  -25.6937   29.4648 C   0  0  0  0  0  0  0  0  0  0  0  0
  -26.2328  -23.9929   23.9483 C   0  0  0  0  0  0  0  0  0  0  0  0
  -25.1573  -23.0433   26.0431 C   0  0  0  0  0  0  0  0  0  0  0  0
  -22.4527  -27.6086   23.8694 C   0  0  0  0  0  0  0  0  0  1  0  0
  -21.5201  -26.5517   25.9594 C   0  0  0  0  0  0  0  0  0  0  0  0
  -24.2544  -22.2418   28.0593 C   0  0  0  0  0  0  0  0  0  0  0  0
  -23.9293  -23.8142   30.0025 C   0  0  0  0  0  0  0  0  0  0  0  0
  -20.6928  -25.6172   27.9506 C   0  0  0  0  0  0  0  0  0  0  0  0
  -22.2127  -25.4185   29.9517 C   0  0  0  0  0  0  0  0  0  0  0  0
  -29.4236  -30.8073   19.4892 C   0  0  1  0  0  0  0  0  0  0  0  0
  -28.2010  -34.2158   18.3680 C   0  0  2  0  0  0  0  0  0  0  0  0
  -30.9161  -30.5809   19.8612 C   0  0  0  0  0  0  0  0  0  0  0  0
  -26.7313  -17.2514   20.7808 N   0  0  0  0  0  0  0  0  0  0  0  0
  -26.3676  -18.5405   20.6710 N   0  0  0  0  0  0  0  0  0  0  0  0
  -27.7906  -28.9848   19.1208 N   0  0  0  0  0  0  0  0  0  0  0  0
  -28.2666  -21.1035   22.7765 N   0  0  0  0  0  0  0  0  0  0  0  0
  -24.5567  -19.9484   20.0801 N   0  0  0  0  0  0  0  0  0  0  0  0
  -22.8850  -15.7955   19.4845 N   0  0  0  0  0  0  0  0  0  0  0  0
  -28.3238  -25.5805   18.1951 N   0  0  0  0  0  0  0  0  0  0  0  0
  -29.1663  -32.0595   18.7862 N   0  0  0  0  0  0  0  0  0  0  0  0
  -26.6627  -22.7011   23.4614 N   0  0  0  0  0  0  0  0  0  0  0  0
  -26.8243  -34.7856   18.3974 N   0  3  0  0  0  0  0  0  0  0  0  0
  -22.4105  -18.0337   19.3289 O   0  0  0  0  0  0  0  0  0  0  0  0
  -28.2579  -26.6434   20.2660 O   0  0  0  0  0  0  0  0  0  0  0  0
  -29.3899  -29.5059   17.5063 O   0  0  0  0  0  0  0  0  0  0  0  0
  -27.6493  -32.9063   20.3220 O   0  0  0  0  0  0  0  0  0  0  0  0
  -28.8960  -23.2195   23.4868 O   0  0  0  0  0  0  0  0  0  0  0  0
  -25.5894  -11.0019   20.3460 O   0  0  0  0  0  0  0  0  0  0  0  0
  -23.3487  -28.6078   23.3847 O   0  0  0  0  0  0  0  0  0  1  0  0
  -25.1669  -23.1514   27.4603 O   0  0  0  0  0  0  0  0  0  0  0  0
  -21.5739  -26.5748   27.3794 O   0  0  0  0  0  0  0  0  0  0  0  0
  -22.6099  -24.1099   29.5647 O   0  0  0  0  0  0  0  0  0  0  0  0
  -21.2072   -8.4432   22.5030 F   0  0  0  0  0  0  0  0  0  0  0  0
  -23.0560  -11.4213   19.3221 F   0  0  0  0  0  0  0  0  0  0  0  0
  1  2  1  0  0  0  0
  1  5  2  0  0  0  0
  2  6  2  0  0  0  0
  3  8  2  0  0  0  0
  3 15  1  0  0  0  0
  4  9  1  0  0  0  0
  4 15  2  0  0  0  0
  5 17  1  0  0  0  0
  6 19  1  0  0  0  0
  7 10  2  0  0  0  0
  7 18  1  0  0  0  0
  8 21  1  0  0  0  0
  9 21  2  0  0  0  0
 10 22  1  0  0  0  0
 11 12  2  0  0  0  0
 11 23  1  0  0  0  0
 12 24  1  0  0  0  0
 13 20  1  0  0  0  0
 13 22  2  0  0  0  0
 14 24  2  0  0  0  0
 14 25  1  0  0  0  0
 15 26  1  0  0  0  0
 16 26  1  0  0  0  0
 16 27  2  0  0  0  0
 16 28  1  0  0  0  0
 17 19  2  0  0  0  0
 17 33  1  0  0  0  0
 18 20  2  0  0  0  0
 18 34  1  0  0  0  0
 19 42  1  0  0  0  0
 20 35  1  0  0  0  0
 21 80  1  0  0  0  0
 22 81  1  0  0  0  0
 23 25  2  0  0  0  0
 23 80  1  0  0  0  0
 24 85  1  0  0  0  0
 25 86  1  0  0  0  0
 26 65  2  0  0  0  0
 27 66  1  0  0  0  0
 27 69  1  0  0  0  0
 28 70  1  0  0  0  0
 28 75  2  0  0  0  0
 29 43  1  0  0  0  0
 29 71  1  0  0  0  0
 29 76  2  0  0  0  0
 30 62  1  0  0  0  0
 30 67  1  0  0  0  0
 30 77  2  0  0  0  0
 31 63  1  0  0  0  0
 31 72  1  0  0  0  0
 31 78  2  0  0  0  0
 32 68  1  0  0  0  0
 32 73  1  0  0  0  0
 32 79  2  0  0  0  0
 33 36  1  0  0  0  0
 34 43  1  0  0  0  0
 35 67  1  0  0  0  0
 36 38  1  0  0  0  0
 37 39  1  0  0  0  0
 37 40  1  0  0  0  0
 38 42  1  0  0  0  0
 39 44  1  0  0  0  0
 40 68  1  0  0  0  0
 41 44  1  0  0  0  0
 41 68  1  0  0  0  0
 42 71  1  0  0  0  0
 43 67  1  0  0  0  0
 44 66  1  0  0  0  0
 45 63  1  0  0  0  0
 46 64  1  0  0  0  0
 47 64  1  0  0  0  0
 48 64  1  0  0  0  0
 49 74  1  0  0  0  0
 50 54  1  0  0  0  0
 50 55  1  0  0  0  0
 51 56  1  0  0  0  0
 51 57  1  0  0  0  0
 52 58  1  0  0  0  0
 52 59  1  0  0  0  0
 53 60  1  0  0  0  0
 53 61  1  0  0  0  0
 54 73  1  0  0  0  0
 55 82  1  0  0  0  0
 56 81  1  0  0  0  0
 57 83  1  0  0  0  0
 58 82  1  0  0  0  0
 59 84  1  0  0  0  0
 60 83  1  0  0  0  0
 61 84  1  0  0  0  0
 62 64  1  0  0  0  0
 62 72  1  0  0  0  0
 63 74  1  0  0  0  0
 65 66  1  0  0  0  0
M  CHG  1  74   1
M  ISO  4  32 100  56 101  73 100  81 101
M  END
> <Batch ID>
0000

> <Smiles>
CNC(C)C(=O)NC(C(=O)N1Cc2cc([101O:1][101CH2:1]CCOCCCOCCCOCCC[100NH:0][100C:0](=O)N3CCCC(n4nc(-c5ccc(Oc6ccc(F)cc6F)cc5)c(C(N)=O)c4N)C3)ccc2CC1C(=O)NC1CCCc2ccccc21)C(C)(C)C

> <Shape>
0.166

> <Color>
0.075

> <Negative vol penalty>
0.000

$$$$

  -OEChem-04052315133D

 79 86  0     1  0  0  0  0  0999 V2000
  -24.1488  -21.5364   17.0982 C   0  0  0  0  0  0  0  0  0  0  0  0
  -25.2246  -20.6811   16.8822 C   0  0  0  0  0  0  0  0  0  0  0  0
  -27.9659  -23.3978   17.2597 C   0  0  0  0  0  0  0  0  0  0  0  0
  -29.4539  -24.6259   18.7138 C   0  0  0  0  0  0  0  0  0  0  0  0
  -23.4472  -21.4819   18.3019 C   0  0  0  0  0  0  0  0  0  0  0  0
  -25.6000  -19.7715   17.8701 C   0  0  0  0  0  0  0  0  0  0  0  0
  -28.3657  -13.2105   18.6580 C   0  0  0  0  0  0  0  0  0  0  0  0
  -27.1215  -24.5056   17.1879 C   0  0  0  0  0  0  0  0  0  0  0  0
  -28.6095  -25.7339   18.6420 C   0  0  0  0  0  0  0  0  0  0  0  0
  -29.3989  -12.5497   19.3211 C   0  0  0  0  0  0  0  0  0  0  0  0
  -25.6958  -26.7397   20.0310 C   0  0  0  0  0  0  0  0  0  0  0  0
  -25.3996  -27.4069   21.2196 C   0  0  0  0  0  0  0  0  0  0  0  0
  -28.0640  -12.4905   21.3295 C   0  0  0  0  0  0  0  0  0  0  0  0
  -26.3659  -29.4320   20.3237 C   0  0  0  0  0  0  0  0  0  0  0  0
  -29.1321  -23.4578   18.0227 C   0  0  0  0  0  0  0  0  0  0  0  0
  -31.0851  -22.0112   17.2476 C   0  0  0  0  0  0  0  0  0  0  0  0
  -23.8082  -20.5645   19.3012 C   0  0  0  0  0  0  0  0  0  0  0  0
  -27.1762  -13.5265   19.3300 C   0  0  0  0  0  0  0  0  0  0  0  0
  -24.9034  -19.7056   19.0888 C   0  0  0  0  0  0  0  0  0  0  0  0
  -27.0163  -13.1531   20.6720 C   0  0  0  0  0  0  0  0  0  0  0  0
  -27.4433  -25.6737   17.8791 C   0  0  0  0  0  0  0  0  0  0  0  0
  -29.2493  -12.1921   20.6578 C   0  0  0  0  0  0  0  0  0  0  0  0
  -26.3271  -27.4186   18.9888 C   0  0  0  0  0  0  0  0  0  0  0  0
  -25.7346  -28.7530   21.3659 C   0  0  0  0  0  0  0  0  0  0  0  0
  -26.6621  -28.7648   19.1351 C   0  0  0  0  0  0  0  0  0  0  0  0
  -30.0044  -22.3135   18.0977 C   0  0  0  0  0  0  0  0  0  0  0  0
  -31.5855  -20.8289   17.7355 C   0  0  0  0  0  0  0  0  0  0  0  0
  -31.5913  -22.7346   16.1179 C   0  0  0  0  0  0  0  0  0  0  0  0
  -25.6635  -16.2239   20.0648 C   0  0  0  0  0  0  0  0  0  0  0  0
  -23.3609  -14.1909   21.1077 C   0  0  0  0  0  0  0  0  0  0  0  0
  -22.5428  -11.0812   22.2511 C   0  0  0  0  0  0  0  0  0  0  0  0
  -31.4488  -18.4269   23.1270 C   0  0  0  0  0  0  0  0  0  0  0  0
  -23.0495  -20.5751   20.6047 C   0  0  0  0  0  0  0  0  0  0  0  0
  -26.0608  -14.2159   18.5930 C   0  0  0  0  0  0  0  0  0  0  0  0
  -25.7510  -13.4512   21.4328 C   0  0  0  0  0  0  0  0  0  0  0  0
  -23.2764  -19.3255   21.4516 C   0  0  0  0  0  0  0  0  0  0  0  0
  -30.2441  -16.8806   20.0848 C   0  0  0  0  0  0  0  0  0  0  0  0
  -24.7628  -18.9900   21.5206 C   0  0  0  0  0  0  0  0  0  0  0  0
  -30.1510  -18.0857   19.1472 C   0  0  0  0  0  0  0  0  0  0  0  0
  -29.8381  -17.2542   21.5074 C   0  0  0  0  0  0  0  0  0  0  0  0
  -30.5135  -19.5977   21.1529 C   0  0  0  0  0  0  0  0  0  0  0  0
  -25.3256  -18.6882   20.1264 C   0  0  1  0  0  0  0  0  0  0  0  0
  -25.0931  -14.9450   19.5201 C   0  0  1  0  0  0  0  0  0  0  0  0
  -30.9328  -19.2904   19.7038 C   0  0  2  0  0  0  0  0  0  0  0  0
  -20.5878   -9.7300   23.0570 C   0  0  0  0  0  0  0  0  0  0  0  0
  -23.4523  -15.6580   23.7815 C   0  0  0  0  0  0  0  0  0  0  0  0
  -22.2294  -13.7271   24.8035 C   0  0  0  0  0  0  0  0  0  0  0  0
  -21.1535  -15.0660   22.9944 C   0  0  0  0  0  0  0  0  0  0  0  0
  -22.8469   -9.1181   20.0574 C   0  0  0  0  0  0  0  0  0  0  0  0
  -32.3027  -17.1272   25.0605 C   0  0  0  0  0  0  0  0  0  0  0  0
  -32.1882  -15.7446   25.6773 C   0  0  0  0  0  0  0  0  0  0  0  0
  -31.5886  -11.8245   20.8775 C   0  0  0  0  0  0  0  0  0  1  0  0
  -32.5314  -11.6696   22.0552 C   0  0  0  0  0  0  0  0  0  0  0  0
  -32.5348  -13.4559   25.2720 C   0  0  0  0  0  0  0  0  0  0  0  0
  -32.9891  -12.4631   24.2193 C   0  0  0  0  0  0  0  0  0  0  0  0
  -23.0548  -13.5030   22.4161 C   0  0  1  0  0  0  0  0  0  0  0  0
  -21.4344  -10.1222   21.8561 C   0  0  2  0  0  0  0  0  0  0  0  0
  -22.4972  -14.4845   23.4854 C   0  0  0  0  0  0  0  0  0  0  0  0
  -29.8279  -21.3970   19.0531 N   0  0  0  0  0  0  0  0  0  0  0  0
  -30.8043  -20.5072   18.8063 N   0  0  0  0  0  0  0  0  0  0  0  0
  -24.6917  -14.1324   20.6703 N   0  0  0  0  0  0  0  0  0  0  0  0
  -30.6323  -18.3952   21.9843 N   0  0  0  0  0  0  0  0  0  0  0  0
  -32.6130  -20.0433   17.3488 N   0  0  0  0  0  0  0  0  0  0  0  0
  -30.9593  -23.9311   15.7528 N   0  0  0  0  0  0  0  0  0  0  0  0
  -24.9522  -17.3538   19.7087 N   0  0  0  0  0  0  0  0  0  0  0  0
  -22.1594  -12.3966   22.0959 N   0  0  0  0  0  0  0  0  0  0  0  0
  -31.5012  -17.2497   23.8632 N   0  0  0  0  0  0  0  0  0  0  0  0
  -22.0095   -8.8825   21.2616 N   0  3  0  0  0  0  0  0  0  0  0  0
  -32.5648  -22.3234   15.4420 O   0  0  0  0  0  0  0  0  0  0  0  0
  -26.6733  -16.1880   20.7581 O   0  0  0  0  0  0  0  0  0  0  0  0
  -22.4513  -14.7531   20.4927 O   0  0  0  0  0  0  0  0  0  0  0  0
  -23.6378  -10.7016   22.6602 O   0  0  0  0  0  0  0  0  0  0  0  0
  -32.0886  -19.4291   23.4636 O   0  0  0  0  0  0  0  0  0  0  0  0
  -26.6198  -26.7551   17.8091 O   0  0  0  0  0  0  0  0  0  0  0  0
  -30.2564  -11.5476   21.3076 O   0  0  0  0  0  0  0  0  0  1  0  0
  -32.6238  -14.7714   24.7383 O   0  0  0  0  0  0  0  0  0  0  0  0
  -32.1372  -12.5659   23.0870 O   0  0  0  0  0  0  0  0  0  0  0  0
  -25.4487  -29.3940   22.5068 F   0  0  0  0  0  0  0  0  0  0  0  0
  -27.2676  -29.4226   18.1369 F   0  0  0  0  0  0  0  0  0  0  0  0
  1  2  1  0  0  0  0
  1  5  2  0  0  0  0
  2  6  2  0  0  0  0
  3  8  2  0  0  0  0
  3 15  1  0  0  0  0
  4  9  1  0  0  0  0
  4 15  2  0  0  0  0
  5 17  1  0  0  0  0
  6 19  1  0  0  0  0
  7 10  2  0  0  0  0
  7 18  1  0  0  0  0
  8 21  1  0  0  0  0
  9 21  2  0  0  0  0
 10 22  1  0  0  0  0
 11 12  2  0  0  0  0
 11 23  1  0  0  0  0
 12 24  1  0  0  0  0
 13 20  1  0  0  0  0
 13 22  2  0  0  0  0
 14 24  2  0  0  0  0
 14 25  1  0  0  0  0
 15 26  1  0  0  0  0
 16 26  1  0  0  0  0
 16 27  2  0  0  0  0
 16 28  1  0  0  0  0
 17 19  2  0  0  0  0
 17 33  1  0  0  0  0
 18 20  2  0  0  0  0
 18 34  1  0  0  0  0
 19 42  1  0  0  0  0
 20 35  1  0  0  0  0
 21 74  1  0  0  0  0
 22 75  1  0  0  0  0
 23 25  2  0  0  0  0
 23 74  1  0  0  0  0
 24 78  1  0  0  0  0
 25 79  1  0  0  0  0
 26 59  2  0  0  0  0
 27 60  1  0  0  0  0
 27 63  1  0  0  0  0
 28 64  1  0  0  0  0
 28 69  2  0  0  0  0
 29 43  1  0  0  0  0
 29 65  1  0  0  0  0
 29 70  2  0  0  0  0
 30 56  1  0  0  0  0
 30 61  1  0  0  0  0
 30 71  2  0  0  0  0
 31 57  1  0  0  0  0
 31 66  1  0  0  0  0
 31 72  2  0  0  0  0
 32 62  1  0  0  0  0
 32 67  1  0  0  0  0
 32 73  2  0  0  0  0
 33 36  1  0  0  0  0
 34 43  1  0  0  0  0
 35 61  1  0  0  0  0
 36 38  1  0  0  0  0
 37 39  1  0  0  0  0
 37 40  1  0  0  0  0
 38 42  1  0  0  0  0
 39 44  1  0  0  0  0
 40 62  1  0  0  0  0
 41 44  1  0  0  0  0
 41 62  1  0  0  0  0
 42 65  1  0  0  0  0
 43 61  1  0  0  0  0
 44 60  1  0  0  0  0
 45 57  1  0  0  0  0
 46 58  1  0  0  0  0
 47 58  1  0  0  0  0
 48 58  1  0  0  0  0
 49 68  1  0  0  0  0
 50 51  1  0  0  0  0
 50 67  1  0  0  0  0
 51 76  1  0  0  0  0
 52 53  1  0  0  0  0
 52 75  1  0  0  0  0
 53 77  1  0  0  0  0
 54 55  1  0  0  0  0
 54 76  1  0  0  0  0
 55 77  1  0  0  0  0
 56 58  1  0  0  0  0
 56 66  1  0  0  0  0
 57 68  1  0  0  0  0
 59 60  1  0  0  0  0
M  CHG  1  68   1
M  ISO  4  32 100  52 101  67 100  75 101
M  END
> <Batch ID>
0000

> <Smiles>
CNC(C)C(=O)NC(C(=O)N1Cc2cc([101O:1][101CH2:1]COCCOCC[100NH:0][100C:0](=O)N3CCCC(n4nc(-c5ccc(Oc6ccc(F)cc6F)cc5)c(C(N)=O)c4N)C3)ccc2CC1C(=O)NC1CCCc2ccccc21)C(C)(C)C

> <Shape>
0.193

> <Color>
0.068

> <Negative vol penalty>
0.000

$$$$

  -OEChem-04052315133D

 88 95  0     1  0  0  0  0  0999 V2000
  -19.0696  -24.1859   24.2019 C   0  0  0  0  0  0  0  0  0  0  0  0
  -20.4542  -24.2804   24.2995 C   0  0  0  0  0  0  0  0  0  0  0  0
  -29.8523  -17.1767   19.0382 C   0  0  0  0  0  0  0  0  0  0  0  0
  -29.6863  -17.7805   21.3717 C   0  0  0  0  0  0  0  0  0  0  0  0
  -18.3452  -25.1999   23.5766 C   0  0  0  0  0  0  0  0  0  0  0  0
  -21.1152  -25.3885   23.7708 C   0  0  0  0  0  0  0  0  0  0  0  0
  -24.6364  -27.2304   26.9099 C   0  0  0  0  0  0  0  0  0  0  0  0
  -30.1020  -15.8525   19.3986 C   0  0  0  0  0  0  0  0  0  0  0  0
  -29.9360  -16.4563   21.7321 C   0  0  0  0  0  0  0  0  0  0  0  0
  -25.8500  -26.5473   26.9765 C   0  0  0  0  0  0  0  0  0  0  0  0
  -28.3164  -13.1724   20.4290 C   0  0  0  0  0  0  0  0  0  0  0  0
  -27.6337  -12.1724   19.7365 C   0  0  0  0  0  0  0  0  0  0  0  0
  -26.8420  -28.1779   25.5014 C   0  0  0  0  0  0  0  0  0  0  0  0
  -29.7396  -11.2420   19.0040 C   0  0  0  0  0  0  0  0  0  0  0  0
  -29.6445  -18.1407   20.0248 C   0  0  0  0  0  0  0  0  0  0  0  0
  -28.1339  -20.1025   19.4106 C   0  0  0  0  0  0  0  0  0  0  0  0
  -18.9968  -26.3256   23.0485 C   0  0  0  0  0  0  0  0  0  0  0  0
  -24.5134  -28.3882   26.1284 C   0  0  0  0  0  0  0  0  0  0  0  0
  -20.3990  -26.4179   23.1366 C   0  0  0  0  0  0  0  0  0  0  0  0
  -25.6265  -28.8753   25.4285 C   0  0  0  0  0  0  0  0  0  0  0  0
  -30.1438  -15.4923   20.7455 C   0  0  0  0  0  0  0  0  0  0  0  0
  -26.9522  -27.0194   26.2700 C   0  0  0  0  0  0  0  0  0  0  0  0
  -29.7108  -13.2073   20.4089 C   0  0  0  0  0  0  0  0  0  0  0  0
  -28.3453  -11.2072   19.0241 C   0  0  0  0  0  0  0  0  0  0  0  0
  -30.4223  -12.2420   19.6964 C   0  0  0  0  0  0  0  0  0  0  0  0
  -29.3872  -19.5088   19.6532 C   0  0  0  0  0  0  0  0  0  0  0  0
  -28.4271  -21.4066   19.0949 C   0  0  0  0  0  0  0  0  0  0  0  0
  -26.8221  -19.5266   19.4659 C   0  0  0  0  0  0  0  0  0  0  0  0
  -22.7637  -29.2177   23.6076 C   0  0  0  0  0  0  0  0  0  0  0  0
  -24.0908  -32.1304   24.1346 C   0  0  0  0  0  0  0  0  0  0  0  0
  -26.6626  -33.9472   25.4505 C   0  0  0  0  0  0  0  0  0  0  0  0
  -31.2439  -26.1294   20.0472 C   0  0  0  0  0  0  0  0  0  0  0  0
  -18.1758  -27.3736   22.3397 C   0  0  0  0  0  0  0  0  0  0  0  0
  -23.2047  -29.1285   26.0883 C   0  0  0  0  0  0  0  0  0  0  0  0
  -25.5522  -30.1251   24.5913 C   0  0  0  0  0  0  0  0  0  0  0  0
  -18.9160  -28.6932   22.1374 C   0  0  0  0  0  0  0  0  0  0  0  0
  -32.8549  -23.6338   18.0841 C   0  0  0  0  0  0  0  0  0  0  0  0
  -20.3223  -28.4401   21.6035 C   0  0  0  0  0  0  0  0  0  0  0  0
  -31.9968  -22.3863   18.3024 C   0  0  0  0  0  0  0  0  0  0  0  0
  -32.9553  -24.4786   19.3522 C   0  0  0  0  0  0  0  0  0  0  0  0
  -30.8025  -23.6023   20.1715 C   0  0  0  0  0  0  0  0  0  0  0  0
  -21.1497  -27.6161   22.5974 C   0  0  1  0  0  0  0  0  0  0  0  0
  -23.0539  -30.0090   24.8516 C   0  0  1  0  0  0  0  0  0  0  0  0
  -30.6257  -22.7473   18.9050 C   0  0  2  0  0  0  0  0  0  0  0  0
  -27.4881  -36.3047   25.6910 C   0  0  0  0  0  0  0  0  0  0  0  0
  -24.9815  -32.1137   21.2163 C   0  0  0  0  0  0  0  0  0  0  0  0
  -26.5668  -33.9730   21.7621 C   0  0  0  0  0  0  0  0  0  0  0  0
  -24.1099  -34.3126   22.0284 C   0  0  0  0  0  0  0  0  0  0  0  0
  -26.5512  -33.8078   28.4046 C   0  0  0  0  0  0  0  0  0  0  0  0
  -29.8316  -25.1680   25.0895 C   0  0  0  0  0  0  0  0  0  0  0  0
  -26.5050  -22.9654   22.4266 C   0  0  0  0  0  0  0  0  0  0  0  0
  -23.2468  -25.4735   19.9565 C   0  0  0  0  0  0  0  0  0  0  0  0
  -29.4261  -27.6585   20.7657 C   0  0  0  0  0  0  0  0  0  0  0  0
  -28.9852  -26.4276   25.1870 C   0  0  0  0  0  0  0  0  0  1  0  0
  -28.9766  -23.9150   24.9828 C   0  0  0  0  0  0  0  0  0  0  0  0
  -27.3468  -22.8282   23.6845 C   0  0  0  0  0  0  0  0  0  0  0  0
  -25.6152  -24.1979   22.4681 C   0  0  0  0  0  0  0  0  0  0  0  0
  -24.0183  -25.4332   21.2653 C   0  0  0  0  0  0  0  0  0  0  0  0
  -24.1719  -25.5424   18.7516 C   0  0  0  0  0  0  0  0  0  0  0  0
  -28.7177  -28.2002   19.5370 C   0  0  0  0  0  0  0  0  0  0  0  0
  -25.8398  -26.8244   17.7040 C   0  0  0  0  0  0  0  0  0  0  0  0
  -26.9512  -27.8001   18.0396 C   0  0  0  0  0  0  0  0  0  0  0  0
  -25.3419  -32.8352   23.6690 C   0  0  1  0  0  0  0  0  0  0  0  0
  -26.6753  -35.1872   26.3260 C   0  0  2  0  0  0  0  0  0  0  0  0
  -25.2512  -33.2839   22.1831 C   0  0  0  0  0  0  0  0  0  0  0  0
  -30.4010  -20.3655   19.5041 N   0  0  0  0  0  0  0  0  0  0  0  0
  -29.7853  -21.5107   19.1645 N   0  0  0  0  0  0  0  0  0  0  0  0
  -24.2490  -30.8100   24.5790 N   0  0  0  0  0  0  0  0  0  0  0  0
  -31.6210  -24.7877   19.8719 N   0  0  0  0  0  0  0  0  0  0  0  0
  -27.6532  -22.4630   18.7673 N   0  0  0  0  0  0  0  0  0  0  0  0
  -26.7006  -18.1726   19.8068 N   0  0  0  0  0  0  0  0  0  0  0  0
  -21.6156  -28.4524   23.6827 N   0  0  0  0  0  0  0  0  0  0  0  0
  -25.5698  -33.9266   24.6099 N   0  0  0  0  0  0  0  0  0  0  0  0
  -29.9603  -26.3343   20.5381 N   0  0  0  0  0  0  0  0  0  0  0  0
  -27.2661  -34.8748   27.6580 N   0  3  0  0  0  0  0  0  0  0  0  0
  -25.7894  -20.1888   19.2042 O   0  0  0  0  0  0  0  0  0  0  0  0
  -23.5243  -29.2968   22.6501 O   0  0  0  0  0  0  0  0  0  0  0  0
  -23.0139  -32.7316   24.1117 O   0  0  0  0  0  0  0  0  0  0  0  0
  -27.5369  -33.0850   25.5040 O   0  0  0  0  0  0  0  0  0  0  0  0
  -31.9937  -27.0747   19.7805 O   0  0  0  0  0  0  0  0  0  0  0  0
  -30.3871  -14.2002   21.0975 O   0  0  0  0  0  0  0  0  0  0  0  0
  -28.1377  -26.3542   26.3328 O   0  0  0  0  0  0  0  0  0  1  0  0
  -28.1626  -23.9841   23.8198 O   0  0  0  0  0  0  0  0  0  0  0  0
  -24.8643  -24.2912   21.2650 O   0  0  0  0  0  0  0  0  0  0  0  0
  -24.9599  -26.7234   18.8155 O   0  0  0  0  0  0  0  0  0  0  0  0
  -27.6475  -27.3331   19.1888 O   0  0  0  0  0  0  0  0  0  0  0  0
  -27.6896  -10.2460   18.3604 F   0  0  0  0  0  0  0  0  0  0  0  0
  -31.7620  -12.2696   19.6744 F   0  0  0  0  0  0  0  0  0  0  0  0
  1  2  1  0  0  0  0
  1  5  2  0  0  0  0
  2  6  2  0  0  0  0
  3  8  2  0  0  0  0
  3 15  1  0  0  0  0
  4  9  1  0  0  0  0
  4 15  2  0  0  0  0
  5 17  1  0  0  0  0
  6 19  1  0  0  0  0
  7 10  2  0  0  0  0
  7 18  1  0  0  0  0
  8 21  1  0  0  0  0
  9 21  2  0  0  0  0
 10 22  1  0  0  0  0
 11 12  2  0  0  0  0
 11 23  1  0  0  0  0
 12 24  1  0  0  0  0
 13 20  1  0  0  0  0
 13 22  2  0  0  0  0
 14 24  2  0  0  0  0
 14 25  1  0  0  0  0
 15 26  1  0  0  0  0
 16 26  1  0  0  0  0
 16 27  2  0  0  0  0
 16 28  1  0  0  0  0
 17 19  2  0  0  0  0
 17 33  1  0  0  0  0
 18 20  2  0  0  0  0
 18 34  1  0  0  0  0
 19 42  1  0  0  0  0
 20 35  1  0  0  0  0
 21 81  1  0  0  0  0
 22 82  1  0  0  0  0
 23 25  2  0  0  0  0
 23 81  1  0  0  0  0
 24 87  1  0  0  0  0
 25 88  1  0  0  0  0
 26 66  2  0  0  0  0
 27 67  1  0  0  0  0
 27 70  1  0  0  0  0
 28 71  1  0  0  0  0
 28 76  2  0  0  0  0
 29 43  1  0  0  0  0
 29 72  1  0  0  0  0
 29 77  2  0  0  0  0
 30 63  1  0  0  0  0
 30 68  1  0  0  0  0
 30 78  2  0  0  0  0
 31 64  1  0  0  0  0
 31 73  1  0  0  0  0
 31 79  2  0  0  0  0
 32 69  1  0  0  0  0
 32 74  1  0  0  0  0
 32 80  2  0  0  0  0
 33 36  1  0  0  0  0
 34 43  1  0  0  0  0
 35 68  1  0  0  0  0
 36 38  1  0  0  0  0
 37 39  1  0  0  0  0
 37 40  1  0  0  0  0
 38 42  1  0  0  0  0
 39 44  1  0  0  0  0
 40 69  1  0  0  0  0
 41 44  1  0  0  0  0
 41 69  1  0  0  0  0
 42 72  1  0  0  0  0
 43 68  1  0  0  0  0
 44 67  1  0  0  0  0
 45 64  1  0  0  0  0
 46 65  1  0  0  0  0
 47 65  1  0  0  0  0
 48 65  1  0  0  0  0
 49 75  1  0  0  0  0
 50 54  1  0  0  0  0
 50 55  1  0  0  0  0
 51 56  1  0  0  0  0
 51 57  1  0  0  0  0
 52 58  1  0  0  0  0
 52 59  1  0  0  0  0
 53 60  1  0  0  0  0
 53 74  1  0  0  0  0
 54 82  1  0  0  0  0
 55 83  1  0  0  0  0
 56 83  1  0  0  0  0
 57 84  1  0  0  0  0
 58 84  1  0  0  0  0
 59 85  1  0  0  0  0
 60 86  1  0  0  0  0
 61 62  1  0  0  0  0
 61 85  1  0  0  0  0
 62 86  1  0  0  0  0
 63 65  1  0  0  0  0
 63 73  1  0  0  0  0
 64 75  1  0  0  0  0
 66 67  1  0  0  0  0
M  CHG  1  75   1
M  ISO  4  32 100  54 101  74 100  82 101
M  END
> <Batch ID>
0000

> <Smiles>
CNC(C)C(=O)NC(C(=O)N1Cc2cc([101O:1][101CH2:1]CCOCCCOCCCOCCOCC[100NH:0][100C:0](=O)N3CCCC(n4nc(-c5ccc(Oc6ccc(F)cc6F)cc5)c(C(N)=O)c4N)C3)ccc2CC1C(=O)NC1CCCc2ccccc21)C(C)(C)C

> <Shape>
0.284

> <Color>
0.079

> <Negative vol penalty>
0.000

$$$$

  -OEChem-04052315133D

 89 96  0     1  0  0  0  0  0999 V2000
  -31.3525  -23.4339   18.0015 C   0  0  0  0  0  0  0  0  0  0  0  0
  -30.0497  -23.3949   18.4879 C   0  0  0  0  0  0  0  0  0  0  0  0
  -26.7195  -13.9212   21.8005 C   0  0  0  0  0  0  0  0  0  0  0  0
  -26.3952  -13.9120   19.4064 C   0  0  0  0  0  0  0  0  0  0  0  0
  -32.2687  -24.3378   18.5375 C   0  0  0  0  0  0  0  0  0  0  0  0
  -29.6627  -24.2591   19.5115 C   0  0  0  0  0  0  0  0  0  0  0  0
  -25.1620  -26.4107   18.6399 C   0  0  0  0  0  0  0  0  0  0  0  0
  -25.9324  -12.7750   21.9115 C   0  0  0  0  0  0  0  0  0  0  0  0
  -25.6081  -12.7658   19.5174 C   0  0  0  0  0  0  0  0  0  0  0  0
  -24.0285  -25.6342   18.8768 C   0  0  0  0  0  0  0  0  0  0  0  0
  -22.4364  -11.9977   20.4011 C   0  0  0  0  0  0  0  0  0  0  0  0
  -21.2412  -11.9602   19.6830 C   0  0  0  0  0  0  0  0  0  0  0  0
  -23.7275  -26.7331   21.0031 C   0  0  0  0  0  0  0  0  0  0  0  0
  -22.0191  -10.0087   18.4900 C   0  0  0  0  0  0  0  0  0  0  0  0
  -26.9509  -14.4897   20.5479 C   0  0  0  0  0  0  0  0  0  0  0  0
  -29.1571  -15.7336   20.2435 C   0  0  0  0  0  0  0  0  0  0  0  0
  -31.8901  -25.2202   19.5616 C   0  0  0  0  0  0  0  0  0  0  0  0
  -25.5937  -27.3481   19.5893 C   0  0  0  0  0  0  0  0  0  0  0  0
  -30.5751  -25.1748   20.0627 C   0  0  0  0  0  0  0  0  0  0  0  0
  -24.8653  -27.5220   20.7747 C   0  0  0  0  0  0  0  0  0  0  0  0
  -25.3767  -12.1973   20.7700 C   0  0  0  0  0  0  0  0  0  0  0  0
  -23.3127  -25.7933   20.0597 C   0  0  0  0  0  0  0  0  0  0  0  0
  -23.4230  -11.0407   20.1636 C   0  0  0  0  0  0  0  0  0  0  0  0
  -21.0325  -10.9657   18.7275 C   0  0  0  0  0  0  0  0  0  0  0  0
  -23.2144  -10.0462   19.2081 C   0  0  0  0  0  0  0  0  0  0  0  0
  -27.7634  -15.6740   20.4326 C   0  0  0  0  0  0  0  0  0  0  0  0
  -29.4405  -17.0769   20.1991 C   0  0  0  0  0  0  0  0  0  0  0  0
  -30.1104  -14.6700   20.1189 C   0  0  0  0  0  0  0  0  0  0  0  0
  -28.2227  -27.7239   21.3359 C   0  0  0  0  0  0  0  0  0  0  0  0
  -26.7937  -30.5108   22.1806 C   0  0  0  0  0  0  0  0  0  0  0  0
  -23.9068  -32.2971   22.5290 C   0  0  0  0  0  0  0  0  0  0  0  0
  -26.0174  -21.8133   18.7750 C   0  0  0  0  0  0  0  0  0  0  0  0
  -32.9287  -26.1471   20.1419 C   0  0  0  0  0  0  0  0  0  0  0  0
  -26.8031  -28.1967   19.3069 C   0  0  0  0  0  0  0  0  0  0  0  0
  -25.2754  -28.5289   21.8170 C   0  0  0  0  0  0  0  0  0  0  0  0
  -32.3354  -27.2863   20.9670 C   0  0  0  0  0  0  0  0  0  0  0  0
  -27.8916  -21.2973   21.8115 C   0  0  0  0  0  0  0  0  0  0  0  0
  -31.2722  -26.7553   21.9232 C   0  0  0  0  0  0  0  0  0  0  0  0
  -28.1618  -19.7932   21.8015 C   0  0  0  0  0  0  0  0  0  0  0  0
  -26.5360  -21.6258   21.1943 C   0  0  0  0  0  0  0  0  0  0  0  0
  -26.6294  -19.5796   19.7939 C   0  0  0  0  0  0  0  0  0  0  0  0
  -30.1106  -26.1132   21.1552 C   0  0  1  0  0  0  0  0  0  0  0  0
  -27.4471  -28.7585   20.5706 C   0  0  1  0  0  0  0  0  0  0  0  0
  -28.0015  -19.2128   20.3851 C   0  0  2  0  0  0  0  0  0  0  0  0
  -23.0531  -34.5349   23.2779 C   0  0  0  0  0  0  0  0  0  0  0  0
  -27.1785  -29.6807   25.0915 C   0  0  0  0  0  0  0  0  0  0  0  0
  -25.5072  -31.4290   25.7382 C   0  0  0  0  0  0  0  0  0  0  0  0
  -27.6383  -32.0944   24.6255 C   0  0  0  0  0  0  0  0  0  0  0  0
  -22.7966  -32.8990   19.8524 C   0  0  0  0  0  0  0  0  0  0  0  0
  -20.0461  -20.5573   20.2449 C   0  0  0  0  0  0  0  0  0  0  0  0
  -19.7326  -21.8322   21.0104 C   0  0  0  0  0  0  0  0  0  0  0  0
  -21.1953  -19.7840   20.8723 C   0  0  0  0  0  0  0  0  0  0  0  0
  -21.9035  -24.7320   21.6546 C   0  0  0  0  0  0  0  0  0  1  0  0
  -25.5522  -21.8313   16.4422 C   0  0  0  0  0  0  0  0  0  0  0  0
  -20.6487  -23.8821   21.7046 C   0  0  0  0  0  0  0  0  0  0  0  0
  -25.5178  -20.8894   15.2542 C   0  0  0  0  0  0  0  0  0  0  0  0
  -22.5064  -17.8422   20.6895 C   0  0  0  0  0  0  0  0  0  0  0  0
  -22.6990  -16.5781   19.8741 C   0  0  0  0  0  0  0  0  0  0  0  0
  -24.4837  -18.9546   14.4117 C   0  0  0  0  0  0  0  0  0  0  0  0
  -23.4642  -17.8806   14.7391 C   0  0  0  0  0  0  0  0  0  0  0  0
  -23.1752  -15.7842   17.7140 C   0  0  0  0  0  0  0  0  0  0  0  0
  -22.9585  -16.1635   16.2618 C   0  0  0  0  0  0  0  0  0  0  0  0
  -25.8430  -30.9365   23.2733 C   0  0  1  0  0  0  0  0  0  0  0  0
  -23.5349  -33.7045   22.0985 C   0  0  2  0  0  0  0  0  0  0  0  0
  -26.5349  -31.0147   24.6635 C   0  0  0  0  0  0  0  0  0  0  0  0
  -27.2005  -16.8832   20.5037 N   0  0  0  0  0  0  0  0  0  0  0  0
  -28.2458  -17.7153   20.3585 N   0  0  0  0  0  0  0  0  0  0  0  0
  -26.4683  -29.3304   21.4975 N   0  0  0  0  0  0  0  0  0  0  0  0
  -26.4006  -21.0280   19.8666 N   0  0  0  0  0  0  0  0  0  0  0  0
  -30.5925  -17.7624   20.0397 N   0  0  0  0  0  0  0  0  0  0  0  0
  -29.6494  -13.3482   20.1872 N   0  0  0  0  0  0  0  0  0  0  0  0
  -29.2397  -27.1328   20.6108 N   0  0  0  0  0  0  0  0  0  0  0  0
  -25.2483  -32.1928   22.8303 N   0  0  0  0  0  0  0  0  0  0  0  0
  -22.4499  -33.6642   21.0776 N   0  3  0  0  0  0  0  0  0  0  0  0
  -31.3370  -14.8853   19.9684 O   0  0  0  0  0  0  0  0  0  0  0  0
  -27.9218  -27.4809   22.4987 O   0  0  0  0  0  0  0  0  0  0  0  0
  -27.7846  -31.2039   21.9372 O   0  0  0  0  0  0  0  0  0  0  0  0
  -23.0883  -31.3826   22.5953 O   0  0  0  0  0  0  0  0  0  0  0  0
  -25.7738  -23.0170   18.8390 O   0  0  0  0  0  0  0  0  0  0  0  0
  -24.6088  -11.0787   20.8779 O   0  0  0  0  0  0  0  0  0  0  0  0
  -22.2064  -25.0362   20.2937 O   0  0  0  0  0  0  0  0  0  1  0  0
  -25.9394  -21.0975   17.6098 O   0  0  0  0  0  0  0  0  0  0  0  0
  -20.8814  -22.6681   21.0006 O   0  0  0  0  0  0  0  0  0  0  0  0
  -21.4366  -18.5944   20.1330 O   0  0  0  0  0  0  0  0  0  0  0  0
  -24.5585  -19.8701   15.4978 O   0  0  0  0  0  0  0  0  0  0  0  0
  -22.9846  -16.9338   18.5268 O   0  0  0  0  0  0  0  0  0  0  0  0
  -23.8809  -17.1864   15.9066 O   0  0  0  0  0  0  0  0  0  0  0  0
  -19.8841  -10.9290   18.0391 F   0  0  0  0  0  0  0  0  0  0  0  0
  -24.1581   -9.1234   18.9764 F   0  0  0  0  0  0  0  0  0  0  0  0
  1  2  1  0  0  0  0
  1  5  2  0  0  0  0
  2  6  2  0  0  0  0
  3  8  2  0  0  0  0
  3 15  1  0  0  0  0
  4  9  1  0  0  0  0
  4 15  2  0  0  0  0
  5 17  1  0  0  0  0
  6 19  1  0  0  0  0
  7 10  2  0  0  0  0
  7 18  1  0  0  0  0
  8 21  1  0  0  0  0
  9 21  2  0  0  0  0
 10 22  1  0  0  0  0
 11 12  2  0  0  0  0
 11 23  1  0  0  0  0
 12 24  1  0  0  0  0
 13 20  1  0  0  0  0
 13 22  2  0  0  0  0
 14 24  2  0  0  0  0
 14 25  1  0  0  0  0
 15 26  1  0  0  0  0
 16 26  1  0  0  0  0
 16 27  2  0  0  0  0
 16 28  1  0  0  0  0
 17 19  2  0  0  0  0
 17 33  1  0  0  0  0
 18 20  2  0  0  0  0
 18 34  1  0  0  0  0
 19 42  1  0  0  0  0
 20 35  1  0  0  0  0
 21 80  1  0  0  0  0
 22 81  1  0  0  0  0
 23 25  2  0  0  0  0
 23 80  1  0  0  0  0
 24 88  1  0  0  0  0
 25 89  1  0  0  0  0
 26 66  2  0  0  0  0
 27 67  1  0  0  0  0
 27 70  1  0  0  0  0
 28 71  1  0  0  0  0
 28 75  2  0  0  0  0
 29 43  1  0  0  0  0
 29 72  1  0  0  0  0
 29 76  2  0  0  0  0
 30 63  1  0  0  0  0
 30 68  1  0  0  0  0
 30 77  2  0  0  0  0
 31 64  1  0  0  0  0
 31 73  1  0  0  0  0
 31 78  2  0  0  0  0
 32 69  1  0  0  0  0
 32 79  2  0  0  0  0
 32 82  1  0  0  0  0
 33 36  1  0  0  0  0
 34 43  1  0  0  0  0
 35 68  1  0  0  0  0
 36 38  1  0  0  0  0
 37 39  1  0  0  0  0
 37 40  1  0  0  0  0
 38 42  1  0  0  0  0
 39 44  1  0  0  0  0
 40 69  1  0  0  0  0
 41 44  1  0  0  0  0
 41 69  1  0  0  0  0
 42 72  1  0  0  0  0
 43 68  1  0  0  0  0
 44 67  1  0  0  0  0
 45 64  1  0  0  0  0
 46 65  1  0  0  0  0
 47 65  1  0  0  0  0
 48 65  1  0  0  0  0
 49 74  1  0  0  0  0
 50 51  1  0  0  0  0
 50 52  1  0  0  0  0
 51 83  1  0  0  0  0
 52 84  1  0  0  0  0
 53 55  1  0  0  0  0
 53 81  1  0  0  0  0
 54 56  1  0  0  0  0
 54 82  1  0  0  0  0
 55 83  1  0  0  0  0
 56 85  1  0  0  0  0
 57 58  1  0  0  0  0
 57 84  1  0  0  0  0
 58 86  1  0  0  0  0
 59 60  1  0  0  0  0
 59 85  1  0  0  0  0
 60 87  1  0  0  0  0
 61 62  1  0  0  0  0
 61 86  1  0  0  0  0
 62 87  1  0  0  0  0
 63 65  1  0  0  0  0
 63 73  1  0  0  0  0
 64 74  1  0  0  0  0
 66 67  1  0  0  0  0
M  CHG  1  74   1
M  ISO  4  32 100  53 101  81 101  82 100
M  END
> <Batch ID>
0000

> <Smiles>
CNC(C)C(=O)NC(C(=O)N1Cc2cc([101O:1][101CH2:1]COCCCOCCOCCOCCOCC[100O:0][100C:0](=O)N3CCCC(n4nc(-c5ccc(Oc6ccc(F)cc6F)cc5)c(C(N)=O)c4N)C3)ccc2CC1C(=O)NC1CCCc2ccccc21)C(C)(C)C

> <Shape>
0.246

> <Color>
0.071

> <Negative vol penalty>
0.000

$$$$

  -OEChem-04052315133D

 87 94  0     1  0  0  0  0  0999 V2000
  -32.7206  -13.6099   21.0375 C   0  0  0  0  0  0  0  0  0  0  0  0
  -32.1875  -14.8817   20.8533 C   0  0  0  0  0  0  0  0  0  0  0  0
  -27.1794  -28.8952   20.8311 C   0  0  0  0  0  0  0  0  0  0  0  0
  -25.3698  -27.5444   19.9720 C   0  0  0  0  0  0  0  0  0  0  0  0
  -31.9679  -12.4848   20.7037 C   0  0  0  0  0  0  0  0  0  0  0  0
  -30.9017  -15.0290   20.3341 C   0  0  0  0  0  0  0  0  0  0  0  0
  -26.7587  -19.3848   21.8369 C   0  0  0  0  0  0  0  0  0  0  0  0
  -26.4388  -30.0494   20.5764 C   0  0  0  0  0  0  0  0  0  0  0  0
  -24.6291  -28.6987   19.7174 C   0  0  0  0  0  0  0  0  0  0  0  0
  -26.3763  -20.5871   21.2436 C   0  0  0  0  0  0  0  0  0  0  0  0
  -23.8920  -31.7434   22.0176 C   0  0  0  0  0  0  0  0  0  0  0  0
  -23.8541  -32.7217   23.0111 C   0  0  0  0  0  0  0  0  0  0  0  0
  -24.5772  -19.4485   20.1101 C   0  0  0  0  0  0  0  0  0  0  0  0
  -24.8407  -34.3118   21.4830 C   0  0  0  0  0  0  0  0  0  0  0  0
  -26.6449  -27.6427   20.5288 C   0  0  0  0  0  0  0  0  0  0  0  0
  -27.4166  -25.6877   21.9746 C   0  0  0  0  0  0  0  0  0  0  0  0
  -30.6686  -12.6182   20.1892 C   0  0  0  0  0  0  0  0  0  0  0  0
  -26.0587  -18.2009   21.5629 C   0  0  0  0  0  0  0  0  0  0  0  0
  -30.1315  -13.9046   19.9919 C   0  0  0  0  0  0  0  0  0  0  0  0
  -24.9499  -18.2335   20.7049 C   0  0  0  0  0  0  0  0  0  0  0  0
  -25.1636  -29.9511   20.0196 C   0  0  0  0  0  0  0  0  0  0  0  0
  -25.2868  -20.6186   20.3783 C   0  0  0  0  0  0  0  0  0  0  0  0
  -24.4043  -32.0493   20.7567 C   0  0  0  0  0  0  0  0  0  0  0  0
  -24.3284  -34.0059   22.7438 C   0  0  0  0  0  0  0  0  0  0  0  0
  -24.8787  -33.3335   20.4894 C   0  0  0  0  0  0  0  0  0  0  0  0
  -27.4097  -26.4500   20.7911 C   0  0  0  0  0  0  0  0  0  0  0  0
  -28.2988  -24.6663   21.7200 C   0  0  0  0  0  0  0  0  0  0  0  0
  -26.6905  -25.8853   23.1950 C   0  0  0  0  0  0  0  0  0  0  0  0
  -26.7419  -15.3454   20.2881 C   0  0  0  0  0  0  0  0  0  0  0  0
  -23.6092  -14.7553   21.2323 C   0  0  0  0  0  0  0  0  0  0  0  0
  -28.4270  -19.4984   16.0704 C   0  0  0  0  0  0  0  0  0  0  0  0
  -24.1311  -11.4251   20.7058 C   0  0  0  0  0  0  0  0  0  0  0  0
  -30.1731  -22.1432   16.5628 C   0  0  0  0  0  0  0  0  0  0  0  0
  -29.9112  -11.3738   19.7987 C   0  0  0  0  0  0  0  0  0  0  0  0
  -26.4691  -16.9197   22.2371 C   0  0  0  0  0  0  0  0  0  0  0  0
  -24.1638  -16.9916   20.3817 C   0  0  0  0  0  0  0  0  0  0  0  0
  -28.4150  -11.6070   19.6050 C   0  0  0  0  0  0  0  0  0  0  0  0
  -32.1803  -23.6159   19.1492 C   0  0  0  0  0  0  0  0  0  0  0  0
  -28.1741  -12.8551   18.7619 C   0  0  0  0  0  0  0  0  0  0  0  0
  -31.1947  -24.4642   19.9497 C   0  0  0  0  0  0  0  0  0  0  0  0
  -31.8321  -23.6141   17.6648 C   0  0  0  0  0  0  0  0  0  0  0  0
  -29.4432  -24.0082   18.1702 C   0  0  0  0  0  0  0  0  0  0  0  0
  -28.7310  -14.1048   19.4545 C   0  0  1  0  0  0  0  0  0  0  0  0
  -25.9581  -15.6667   21.5290 C   0  0  1  0  0  0  0  0  0  0  0  0
  -29.7464  -24.0230   19.6804 C   0  0  2  0  0  0  0  0  0  0  0  0
  -23.0624   -9.1830   21.0640 C   0  0  0  0  0  0  0  0  0  0  0  0
  -24.3476  -14.8795   24.1895 C   0  0  0  0  0  0  0  0  0  0  0  0
  -24.1602  -12.3842   24.2686 C   0  0  0  0  0  0  0  0  0  0  0  0
  -22.1611  -13.7661   23.7058 C   0  0  0  0  0  0  0  0  0  0  0  0
  -24.0566  -10.8671   17.8003 C   0  0  0  0  0  0  0  0  0  0  0  0
  -28.0977  -18.4855   14.9868 C   0  0  0  0  0  0  0  0  0  0  0  0
  -27.3122  -17.2690   15.4811 C   0  0  0  0  0  0  0  0  0  0  0  0
  -23.0451  -19.3380   14.6582 C   0  0  0  0  0  0  0  0  0  0  0  0
  -25.9676  -17.6352   16.1040 C   0  0  0  0  0  0  0  0  0  0  0  0
  -23.8803  -18.6413   15.7198 C   0  0  0  0  0  0  0  0  0  0  0  0
  -23.7215  -20.5958   14.1358 C   0  0  0  0  0  0  0  0  0  0  0  0
  -25.9366  -22.7513   19.5502 C   0  0  0  0  0  0  0  0  0  1  0  0
  -25.5656  -23.5801   18.3357 C   0  0  0  0  0  0  0  0  0  0  0  0
  -24.9125  -22.4772   14.8872 C   0  0  0  0  0  0  0  0  0  0  0  0
  -25.0507  -23.4448   16.0468 C   0  0  0  0  0  0  0  0  0  0  0  0
  -24.0228  -13.5318   22.0113 C   0  0  1  0  0  0  0  0  0  0  0  0
  -23.2447  -10.3491   20.1050 C   0  0  2  0  0  0  0  0  0  0  0  0
  -23.6906  -13.6530   23.5254 C   0  0  0  0  0  0  0  0  0  0  0  0
  -28.2231  -25.9552   19.8543 N   0  0  0  0  0  0  0  0  0  0  0  0
  -28.7494  -24.8711   20.4491 N   0  0  0  0  0  0  0  0  0  0  0  0
  -24.5505  -15.7874   21.1283 N   0  0  0  0  0  0  0  0  0  0  0  0
  -30.4416  -23.2064   17.4432 N   0  0  0  0  0  0  0  0  0  0  0  0
  -28.7254  -23.6220   22.4615 N   0  0  0  0  0  0  0  0  0  0  0  0
  -25.8265  -26.9849   23.2880 N   0  0  0  0  0  0  0  0  0  0  0  0
  -27.8403  -14.5369   20.5101 N   0  0  0  0  0  0  0  0  0  0  0  0
  -23.3920  -12.3945   21.3503 N   0  0  0  0  0  0  0  0  0  0  0  0
  -28.5039  -20.7820   15.5608 N   0  0  0  0  0  0  0  0  0  0  0  0
  -28.8355  -21.8148   16.4068 N   0  0  0  0  0  0  0  0  0  0  0  0
  -23.8433   -9.8302   18.8426 N   0  3  0  0  0  0  0  0  0  0  0  0
  -26.8168  -25.1188   24.1800 O   0  0  0  0  0  0  0  0  0  0  0  0
  -26.3763  -15.7963   19.2089 O   0  0  0  0  0  0  0  0  0  0  0  0
  -22.4805  -14.8004   20.7351 O   0  0  0  0  0  0  0  0  0  0  0  0
  -28.6336  -19.1893   17.2411 O   0  0  0  0  0  0  0  0  0  0  0  0
  -25.3567  -11.4055   20.6159 O   0  0  0  0  0  0  0  0  0  0  0  0
  -31.0652  -21.5326   15.9630 O   0  0  0  0  0  0  0  0  0  0  0  0
  -24.4405  -31.0772   19.7712 O   0  0  0  0  0  0  0  0  0  0  0  0
  -24.9084  -21.7990   19.7944 O   0  0  0  0  0  0  0  0  0  1  0  0
  -25.1387  -18.2917   15.1584 O   0  0  0  0  0  0  0  0  0  0  0  0
  -23.9105  -21.5191   15.1997 O   0  0  0  0  0  0  0  0  0  0  0  0
  -25.4007  -22.7181   17.2184 O   0  0  0  0  0  0  0  0  0  0  0  0
  -24.2905  -34.9457   23.6975 F   0  0  0  0  0  0  0  0  0  0  0  0
  -25.3709  -33.6337   19.2797 F   0  0  0  0  0  0  0  0  0  0  0  0
  1  2  1  0  0  0  0
  1  5  2  0  0  0  0
  2  6  2  0  0  0  0
  3  8  2  0  0  0  0
  3 15  1  0  0  0  0
  4  9  1  0  0  0  0
  4 15  2  0  0  0  0
  5 17  1  0  0  0  0
  6 19  1  0  0  0  0
  7 10  2  0  0  0  0
  7 18  1  0  0  0  0
  8 21  1  0  0  0  0
  9 21  2  0  0  0  0
 10 22  1  0  0  0  0
 11 12  2  0  0  0  0
 11 23  1  0  0  0  0
 12 24  1  0  0  0  0
 13 20  1  0  0  0  0
 13 22  2  0  0  0  0
 14 24  2  0  0  0  0
 14 25  1  0  0  0  0
 15 26  1  0  0  0  0
 16 26  1  0  0  0  0
 16 27  2  0  0  0  0
 16 28  1  0  0  0  0
 17 19  2  0  0  0  0
 17 34  1  0  0  0  0
 18 20  2  0  0  0  0
 18 35  1  0  0  0  0
 19 43  1  0  0  0  0
 20 36  1  0  0  0  0
 21 81  1  0  0  0  0
 22 82  1  0  0  0  0
 23 25  2  0  0  0  0
 23 81  1  0  0  0  0
 24 86  1  0  0  0  0
 25 87  1  0  0  0  0
 26 64  2  0  0  0  0
 27 65  1  0  0  0  0
 27 68  1  0  0  0  0
 28 69  1  0  0  0  0
 28 75  2  0  0  0  0
 29 44  1  0  0  0  0
 29 70  1  0  0  0  0
 29 76  2  0  0  0  0
 30 61  1  0  0  0  0
 30 66  1  0  0  0  0
 30 77  2  0  0  0  0
 31 51  1  0  0  0  0
 31 72  1  0  0  0  0
 31 78  2  0  0  0  0
 32 62  1  0  0  0  0
 32 71  1  0  0  0  0
 32 79  2  0  0  0  0
 33 67  1  0  0  0  0
 33 73  1  0  0  0  0
 33 80  2  0  0  0  0
 34 37  1  0  0  0  0
 35 44  1  0  0  0  0
 36 66  1  0  0  0  0
 37 39  1  0  0  0  0
 38 40  1  0  0  0  0
 38 41  1  0  0  0  0
 39 43  1  0  0  0  0
 40 45  1  0  0  0  0
 41 67  1  0  0  0  0
 42 45  1  0  0  0  0
 42 67  1  0  0  0  0
 43 70  1  0  0  0  0
 44 66  1  0  0  0  0
 45 65  1  0  0  0  0
 46 62  1  0  0  0  0
 47 63  1  0  0  0  0
 48 63  1  0  0  0  0
 49 63  1  0  0  0  0
 50 74  1  0  0  0  0
 51 52  1  0  0  0  0
 52 54  1  0  0  0  0
 53 55  1  0  0  0  0
 53 56  1  0  0  0  0
 54 83  1  0  0  0  0
 55 83  1  0  0  0  0
 56 84  1  0  0  0  0
 57 58  1  0  0  0  0
 57 82  1  0  0  0  0
 58 85  1  0  0  0  0
 59 60  1  0  0  0  0
 59 84  1  0  0  0  0
 60 85  1  0  0  0  0
 61 63  1  0  0  0  0
 61 71  1  0  0  0  0
 62 74  1  0  0  0  0
 64 65  1  0  0  0  0
 72 73  1  0  0  0  0
M  CHG  1  74   1
M  ISO  4  33 100  57 101  73 100  82 101
M  END
> <Batch ID>
0000

> <Smiles>
CNC(C)C(=O)NC(C(=O)N1Cc2cc([101O:1][101CH2:1]COCCOCCCOCCCC(=O)N[100NH:0][100C:0](=O)N3CCCC(n4nc(-c5ccc(Oc6ccc(F)cc6F)cc5)c(C(N)=O)c4N)C3)ccc2CC1C(=O)NC1CCCc2ccccc21)C(C)(C)C

> <Shape>
0.205

> <Color>
0.072

> <Negative vol penalty>
0.000

$$$$

  -OEChem-04052315133D

 76 83  0     1  0  0  0  0  0999 V2000
  -16.1600  -22.7176   22.5581 C   0  0  0  0  0  0  0  0  0  0  0  0
  -17.4333  -22.6316   22.0043 C   0  0  0  0  0  0  0  0  0  0  0  0
  -23.0622   -9.9075   19.9658 C   0  0  0  0  0  0  0  0  0  0  0  0
  -23.8771   -9.8683   22.2399 C   0  0  0  0  0  0  0  0  0  0  0  0
  -15.9799  -22.5083   23.9248 C   0  0  0  0  0  0  0  0  0  0  0  0
  -18.5275  -22.3372   22.8170 C   0  0  0  0  0  0  0  0  0  0  0  0
  -23.4690  -19.0565   21.2924 C   0  0  0  0  0  0  0  0  0  0  0  0
  -22.3096   -8.7601   20.2158 C   0  0  0  0  0  0  0  0  0  0  0  0
  -23.1244   -8.7209   22.4899 C   0  0  0  0  0  0  0  0  0  0  0  0
  -24.7491  -19.4249   20.8811 C   0  0  0  0  0  0  0  0  0  0  0  0
  -21.1365   -5.9883   23.8314 C   0  0  0  0  0  0  0  0  0  0  0  0
  -20.4082   -5.9357   25.0198 C   0  0  0  0  0  0  0  0  0  0  0  0
  -25.5335  -19.2128   23.1524 C   0  0  0  0  0  0  0  0  0  0  0  0
  -19.1718   -7.9001   24.3490 C   0  0  0  0  0  0  0  0  0  0  0  0
  -23.8461  -10.4616   20.9779 C   0  0  0  0  0  0  0  0  0  0  0  0
  -24.2180  -12.9838   20.8890 C   0  0  0  0  0  0  0  0  0  0  0  0
  -17.0711  -22.2017   24.7530 C   0  0  0  0  0  0  0  0  0  0  0  0
  -23.2086  -18.7736   22.6410 C   0  0  0  0  0  0  0  0  0  0  0  0
  -18.3620  -22.1249   24.1962 C   0  0  0  0  0  0  0  0  0  0  0  0
  -24.2498  -18.8385   23.5779 C   0  0  0  0  0  0  0  0  0  0  0  0
  -22.3406   -8.1668   21.4778 C   0  0  0  0  0  0  0  0  0  0  0  0
  -25.7810  -19.5059   21.8115 C   0  0  0  0  0  0  0  0  0  0  0  0
  -20.8826   -6.9968   22.9018 C   0  0  0  0  0  0  0  0  0  0  0  0
  -19.4258   -6.8916   25.2786 C   0  0  0  0  0  0  0  0  0  0  0  0
  -19.9003   -7.9527   23.1606 C   0  0  0  0  0  0  0  0  0  0  0  0
  -24.6243  -11.6466   20.7202 C   0  0  0  0  0  0  0  0  0  0  0  0
  -25.3108  -13.7250   20.5111 C   0  0  0  0  0  0  0  0  0  0  0  0
  -22.9648  -13.5090   21.3467 C   0  0  0  0  0  0  0  0  0  0  0  0
  -21.3315  -20.0335   24.8754 C   0  0  0  0  0  0  0  0  0  0  0  0
  -22.3526  -17.4923   26.6138 C   0  0  0  0  0  0  0  0  0  0  0  0
  -24.7431  -15.1140   27.1391 C   0  0  0  0  0  0  0  0  0  0  0  0
  -30.8103  -14.6711   20.5822 C   0  0  0  0  0  0  0  0  0  0  0  0
  -16.8338  -22.0303   26.2325 C   0  0  0  0  0  0  0  0  0  0  0  0
  -21.8283  -18.3516   23.0642 C   0  0  0  0  0  0  0  0  0  0  0  0
  -24.0270  -18.5250   25.0341 C   0  0  0  0  0  0  0  0  0  0  0  0
  -17.9922  -21.3534   26.9608 C   0  0  0  0  0  0  0  0  0  0  0  0
  -29.5845  -12.3396   18.1868 C   0  0  0  0  0  0  0  0  0  0  0  0
  -19.3214  -21.9737   26.5420 C   0  0  0  0  0  0  0  0  0  0  0  0
  -28.1542  -12.0573   18.6499 C   0  0  0  0  0  0  0  0  0  0  0  0
  -30.5331  -12.5296   19.3684 C   0  0  0  0  0  0  0  0  0  0  0  0
  -28.6750  -13.2626   20.8120 C   0  0  0  0  0  0  0  0  0  0  0  0
  -19.5703  -21.7833   25.0409 C   0  0  1  0  0  0  0  0  0  0  0  0
  -21.5607  -18.5851   24.5479 C   0  0  1  0  0  0  0  0  0  0  0  0
  -27.6706  -13.1192   19.6558 C   0  0  2  0  0  0  0  0  0  0  0  0
  -25.3188  -13.2016   28.6585 C   0  0  0  0  0  0  0  0  0  0  0  0
  -23.1824  -19.4698   28.7844 C   0  0  0  0  0  0  0  0  0  0  0  0
  -24.5722  -17.6562   29.8078 C   0  0  0  0  0  0  0  0  0  0  0  0
  -22.0989  -17.3821   29.6341 C   0  0  0  0  0  0  0  0  0  0  0  0
  -24.7054  -13.1748   24.9037 C   0  0  0  0  0  0  0  0  0  0  0  0
  -30.9341  -16.8007   21.8505 C   0  0  0  0  0  0  0  0  0  0  0  0
  -30.6370  -17.9563   20.9116 C   0  0  0  0  0  0  0  0  0  0  0  0
  -27.4127  -19.5218   20.0814 C   0  0  0  0  0  0  0  0  0  1  0  0
  -28.9109  -19.2914   20.0394 C   0  0  0  0  0  0  0  0  0  0  0  0
  -23.5127  -17.2298   27.5436 C   0  0  1  0  0  0  0  0  0  0  0  0
  -24.6416  -13.6157   27.3614 C   0  0  2  0  0  0  0  0  0  0  0  0
  -23.3456  -17.9423   28.9154 C   0  0  0  0  0  0  0  0  0  0  0  0
  -25.8773  -11.5413   20.2699 N   0  0  0  0  0  0  0  0  0  0  0  0
  -26.2678  -12.8219   20.1525 N   0  0  0  0  0  0  0  0  0  0  0  0
  -22.6586  -18.1233   25.3997 N   0  0  0  0  0  0  0  0  0  0  0  0
  -30.0175  -13.5508   20.2834 N   0  0  0  0  0  0  0  0  0  0  0  0
  -25.5368  -15.0547   20.4538 N   0  0  0  0  0  0  0  0  0  0  0  0
  -21.9495  -12.6075   21.6942 N   0  0  0  0  0  0  0  0  0  0  0  0
  -20.0127  -20.4324   24.7692 N   0  0  0  0  0  0  0  0  0  0  0  0
  -23.6422  -15.7796   27.6353 N   0  0  0  0  0  0  0  0  0  0  0  0
  -30.2438  -15.5940   21.4529 N   0  0  0  0  0  0  0  0  0  0  0  0
  -25.2884  -12.8805   26.2380 N   0  3  0  0  0  0  0  0  0  0  0  0
  -22.7461  -14.7414   21.4289 O   0  0  0  0  0  0  0  0  0  0  0  0
  -22.2805  -20.7367   25.2018 O   0  0  0  0  0  0  0  0  0  0  0  0
  -21.2179  -17.1438   26.9493 O   0  0  0  0  0  0  0  0  0  0  0  0
  -25.7046  -15.6415   26.5844 O   0  0  0  0  0  0  0  0  0  0  0  0
  -31.9372  -14.8393   20.1039 O   0  0  0  0  0  0  0  0  0  0  0  0
  -21.6061   -7.0472   21.7221 O   0  0  0  0  0  0  0  0  0  0  0  0
  -27.0313  -19.8659   21.4128 O   0  0  0  0  0  0  0  0  0  1  0  0
  -29.2397  -18.2135   20.9073 O   0  0  0  0  0  0  0  0  0  0  0  0
  -18.7254   -6.8400   26.4191 F   0  0  0  0  0  0  0  0  0  0  0  0
  -19.6510   -8.9232   22.2708 F   0  0  0  0  0  0  0  0  0  0  0  0
  1  2  1  0  0  0  0
  1  5  2  0  0  0  0
  2  6  2  0  0  0  0
  3  8  2  0  0  0  0
  3 15  1  0  0  0  0
  4  9  1  0  0  0  0
  4 15  2  0  0  0  0
  5 17  1  0  0  0  0
  6 19  1  0  0  0  0
  7 10  2  0  0  0  0
  7 18  1  0  0  0  0
  8 21  1  0  0  0  0
  9 21  2  0  0  0  0
 10 22  1  0  0  0  0
 11 12  2  0  0  0  0
 11 23  1  0  0  0  0
 12 24  1  0  0  0  0
 13 20  1  0  0  0  0
 13 22  2  0  0  0  0
 14 24  2  0  0  0  0
 14 25  1  0  0  0  0
 15 26  1  0  0  0  0
 16 26  1  0  0  0  0
 16 27  2  0  0  0  0
 16 28  1  0  0  0  0
 17 19  2  0  0  0  0
 17 33  1  0  0  0  0
 18 20  2  0  0  0  0
 18 34  1  0  0  0  0
 19 42  1  0  0  0  0
 20 35  1  0  0  0  0
 21 72  1  0  0  0  0
 22 73  1  0  0  0  0
 23 25  2  0  0  0  0
 23 72  1  0  0  0  0
 24 75  1  0  0  0  0
 25 76  1  0  0  0  0
 26 57  2  0  0  0  0
 27 58  1  0  0  0  0
 27 61  1  0  0  0  0
 28 62  1  0  0  0  0
 28 67  2  0  0  0  0
 29 43  1  0  0  0  0
 29 63  1  0  0  0  0
 29 68  2  0  0  0  0
 30 54  1  0  0  0  0
 30 59  1  0  0  0  0
 30 69  2  0  0  0  0
 31 55  1  0  0  0  0
 31 64  1  0  0  0  0
 31 70  2  0  0  0  0
 32 60  1  0  0  0  0
 32 65  1  0  0  0  0
 32 71  2  0  0  0  0
 33 36  1  0  0  0  0
 34 43  1  0  0  0  0
 35 59  1  0  0  0  0
 36 38  1  0  0  0  0
 37 39  1  0  0  0  0
 37 40  1  0  0  0  0
 38 42  1  0  0  0  0
 39 44  1  0  0  0  0
 40 60  1  0  0  0  0
 41 44  1  0  0  0  0
 41 60  1  0  0  0  0
 42 63  1  0  0  0  0
 43 59  1  0  0  0  0
 44 58  1  0  0  0  0
 45 55  1  0  0  0  0
 46 56  1  0  0  0  0
 47 56  1  0  0  0  0
 48 56  1  0  0  0  0
 49 66  1  0  0  0  0
 50 51  1  0  0  0  0
 50 65  1  0  0  0  0
 51 74  1  0  0  0  0
 52 53  1  0  0  0  0
 52 73  1  0  0  0  0
 53 74  1  0  0  0  0
 54 56  1  0  0  0  0
 54 64  1  0  0  0  0
 55 66  1  0  0  0  0
 57 58  1  0  0  0  0
M  CHG  1  66   1
M  ISO  4  32 100  52 101  65 100  73 101
M  END
> <Batch ID>
0000

> <Smiles>
CNC(C)C(=O)NC(C(=O)N1Cc2cc([101O:1][101CH2:1]COCC[100NH:0][100C:0](=O)N3CCCC(n4nc(-c5ccc(Oc6ccc(F)cc6F)cc5)c(C(N)=O)c4N)C3)ccc2CC1C(=O)NC1CCCc2ccccc21)C(C)(C)C

> <Shape>
0.186

> <Color>
0.201

> <Negative vol penalty>
0.000

$$$$

  -OEChem-04052315133D

 80 87  0     1  0  0  0  0  0999 V2000
  -21.0966  -23.0303   17.5340 C   0  0  0  0  0  0  0  0  0  0  0  0
  -22.4465  -22.6968   17.5788 C   0  0  0  0  0  0  0  0  0  0  0  0
  -23.4012  -28.8448   21.5796 C   0  0  0  0  0  0  0  0  0  0  0  0
  -25.7021  -29.5789   21.6435 C   0  0  0  0  0  0  0  0  0  0  0  0
  -20.2038  -22.4397   18.4273 C   0  0  0  0  0  0  0  0  0  0  0  0
  -22.9046  -21.7733   18.5179 C   0  0  0  0  0  0  0  0  0  0  0  0
  -27.4189  -17.7014   17.7783 C   0  0  0  0  0  0  0  0  0  0  0  0
  -23.0321  -29.9329   22.3704 C   0  0  0  0  0  0  0  0  0  0  0  0
  -25.3330  -30.6670   22.4343 C   0  0  0  0  0  0  0  0  0  0  0  0
  -28.7617  -17.7113   18.1531 C   0  0  0  0  0  0  0  0  0  0  0  0
  -24.5878  -31.2486   25.6804 C   0  0  0  0  0  0  0  0  0  0  0  0
  -25.3795  -31.5408   26.7910 C   0  0  0  0  0  0  0  0  0  0  0  0
  -28.2091  -16.4648   20.1431 C   0  0  0  0  0  0  0  0  0  0  0  0
  -25.8457  -33.7305   25.8825 C   0  0  0  0  0  0  0  0  0  0  0  0
  -24.7363  -28.6678   21.2162 C   0  0  0  0  0  0  0  0  0  0  0  0
  -25.1735  -27.4938   18.9939 C   0  0  0  0  0  0  0  0  0  0  0  0
  -20.6496  -21.5013   19.3714 C   0  0  0  0  0  0  0  0  0  0  0  0
  -26.4579  -17.0815   18.5898 C   0  0  0  0  0  0  0  0  0  0  0  0
  -22.0171  -21.1707   19.4256 C   0  0  0  0  0  0  0  0  0  0  0  0
  -26.8551  -16.4462   19.7750 C   0  0  0  0  0  0  0  0  0  0  0  0
  -23.9979  -30.8440   22.7978 C   0  0  0  0  0  0  0  0  0  0  0  0
  -29.1566  -17.0955   19.3371 C   0  0  0  0  0  0  0  0  0  0  0  0
  -24.4250  -32.1973   24.6708 C   0  0  0  0  0  0  0  0  0  0  0  0
  -26.0084  -32.7818   26.8921 C   0  0  0  0  0  0  0  0  0  0  0  0
  -25.0539  -33.4382   24.7719 C   0  0  0  0  0  0  0  0  0  0  0  0
  -25.1183  -27.5437   20.3997 C   0  0  0  0  0  0  0  0  0  0  0  0
  -25.5900  -26.2157   18.7118 C   0  0  0  0  0  0  0  0  0  0  0  0
  -24.8750  -28.5117   18.0294 C   0  0  0  0  0  0  0  0  0  0  0  0
  -23.8815  -18.0683   20.1686 C   0  0  0  0  0  0  0  0  0  0  0  0
  -23.4914  -14.8976   20.7318 C   0  0  0  0  0  0  0  0  0  0  0  0
  -24.9095  -11.8036   20.9829 C   0  0  0  0  0  0  0  0  0  0  0  0
  -28.9523  -21.8678   19.6789 C   0  0  0  0  0  0  0  0  0  0  0  0
  -19.6548  -20.9250   20.3476 C   0  0  0  0  0  0  0  0  0  0  0  0
  -25.0173  -17.0565   18.1581 C   0  0  0  0  0  0  0  0  0  0  0  0
  -25.8655  -15.7493   20.6714 C   0  0  0  0  0  0  0  0  0  0  0  0
  -20.1593  -19.6755   21.0650 C   0  0  0  0  0  0  0  0  0  0  0  0
  -26.0398  -22.1633   21.7055 C   0  0  0  0  0  0  0  0  0  0  0  0
  -21.5813  -19.8895   21.5737 C   0  0  0  0  0  0  0  0  0  0  0  0
  -25.5490  -23.5867   21.4352 C   0  0  0  0  0  0  0  0  0  0  0  0
  -27.5648  -22.0853   21.7196 C   0  0  0  0  0  0  0  0  0  0  0  0
  -27.7333  -24.0555   20.2486 C   0  0  0  0  0  0  0  0  0  0  0  0
  -22.5483  -20.1547   20.4134 C   0  0  1  0  0  0  0  0  0  0  0  0
  -24.0496  -16.8413   19.3177 C   0  0  1  0  0  0  0  0  0  0  0  0
  -26.2016  -24.1740   20.1693 C   0  0  2  0  0  0  0  0  0  0  0  0
  -24.3433   -9.4127   21.4931 C   0  0  0  0  0  0  0  0  0  0  0  0
  -23.3257  -15.5733   23.7027 C   0  0  0  0  0  0  0  0  0  0  0  0
  -23.7175  -13.1518   24.2040 C   0  0  0  0  0  0  0  0  0  0  0  0
  -21.6874  -13.8479   22.9323 C   0  0  0  0  0  0  0  0  0  0  0  0
  -25.7815  -10.9037   18.3017 C   0  0  0  0  0  0  0  0  0  0  0  0
  -31.6403  -22.4910   17.4310 C   0  0  0  0  0  0  0  0  0  0  0  0
  -30.2931  -21.7997   17.5917 C   0  0  0  0  0  0  0  0  0  0  0  0
  -32.4099  -22.6016   18.7416 C   0  0  0  0  0  0  0  0  0  0  0  0
  -30.7478  -17.0864   21.1046 C   0  0  0  0  0  0  0  0  0  1  0  0
  -32.0514  -17.8189   21.3570 C   0  0  0  0  0  0  0  0  0  0  0  0
  -32.9145  -21.3249   20.6490 C   0  0  0  0  0  0  0  0  0  0  0  0
  -33.1121  -19.9050   21.1438 C   0  0  0  0  0  0  0  0  0  0  0  0
  -23.9482  -13.9381   21.8041 C   0  0  1  0  0  0  0  0  0  0  0  0
  -24.5055  -10.4603   20.4027 C   0  0  2  0  0  0  0  0  0  0  0  0
  -23.1883  -14.1425   23.1451 C   0  0  0  0  0  0  0  0  0  0  0  0
  -25.4714  -26.3891   20.9709 N   0  0  0  0  0  0  0  0  0  0  0  0
  -25.7523  -25.6016   19.9187 N   0  0  0  0  0  0  0  0  0  0  0  0
  -24.4677  -15.7575   20.2091 N   0  0  0  0  0  0  0  0  0  0  0  0
  -28.1209  -22.6570   20.4908 N   0  0  0  0  0  0  0  0  0  0  0  0
  -25.8294  -25.5686   17.5515 N   0  0  0  0  0  0  0  0  0  0  0  0
  -24.4604  -29.7685   18.4909 N   0  0  0  0  0  0  0  0  0  0  0  0
  -22.8799  -18.9179   19.7392 N   0  0  0  0  0  0  0  0  0  0  0  0
  -23.8133  -12.6000   21.2388 N   0  0  0  0  0  0  0  0  0  0  0  0
  -29.4317  -22.4844   18.5297 N   0  0  0  0  0  0  0  0  0  0  0  0
  -25.5369   -9.9807   19.4398 N   0  3  0  0  0  0  0  0  0  0  0  0
  -24.9572  -28.3077   16.7944 O   0  0  0  0  0  0  0  0  0  0  0  0
  -24.6059  -18.2313   21.1435 O   0  0  0  0  0  0  0  0  0  0  0  0
  -22.3133  -14.8798   20.3663 O   0  0  0  0  0  0  0  0  0  0  0  0
  -26.0802  -12.1140   21.1920 O   0  0  0  0  0  0  0  0  0  0  0  0
  -29.2413  -20.6985   19.9549 O   0  0  0  0  0  0  0  0  0  0  0  0
  -23.6381  -31.9060   23.5693 O   0  0  0  0  0  0  0  0  0  0  0  0
  -30.4665  -17.1042   19.7057 O   0  0  0  0  0  0  0  0  0  1  0  0
  -32.6268  -21.2952   19.2563 O   0  0  0  0  0  0  0  0  0  0  0  0
  -31.9159  -19.1690   20.9302 O   0  0  0  0  0  0  0  0  0  0  0  0
  -26.7674  -33.0628   27.9593 F   0  0  0  0  0  0  0  0  0  0  0  0
  -24.9004  -34.3541   23.8058 F   0  0  0  0  0  0  0  0  0  0  0  0
  1  2  1  0  0  0  0
  1  5  2  0  0  0  0
  2  6  2  0  0  0  0
  3  8  2  0  0  0  0
  3 15  1  0  0  0  0
  4  9  1  0  0  0  0
  4 15  2  0  0  0  0
  5 17  1  0  0  0  0
  6 19  1  0  0  0  0
  7 10  2  0  0  0  0
  7 18  1  0  0  0  0
  8 21  1  0  0  0  0
  9 21  2  0  0  0  0
 10 22  1  0  0  0  0
 11 12  2  0  0  0  0
 11 23  1  0  0  0  0
 12 24  1  0  0  0  0
 13 20  1  0  0  0  0
 13 22  2  0  0  0  0
 14 24  2  0  0  0  0
 14 25  1  0  0  0  0
 15 26  1  0  0  0  0
 16 26  1  0  0  0  0
 16 27  2  0  0  0  0
 16 28  1  0  0  0  0
 17 19  2  0  0  0  0
 17 33  1  0  0  0  0
 18 20  2  0  0  0  0
 18 34  1  0  0  0  0
 19 42  1  0  0  0  0
 20 35  1  0  0  0  0
 21 75  1  0  0  0  0
 22 76  1  0  0  0  0
 23 25  2  0  0  0  0
 23 75  1  0  0  0  0
 24 79  1  0  0  0  0
 25 80  1  0  0  0  0
 26 60  2  0  0  0  0
 27 61  1  0  0  0  0
 27 64  1  0  0  0  0
 28 65  1  0  0  0  0
 28 70  2  0  0  0  0
 29 43  1  0  0  0  0
 29 66  1  0  0  0  0
 29 71  2  0  0  0  0
 30 57  1  0  0  0  0
 30 62  1  0  0  0  0
 30 72  2  0  0  0  0
 31 58  1  0  0  0  0
 31 67  1  0  0  0  0
 31 73  2  0  0  0  0
 32 63  1  0  0  0  0
 32 68  1  0  0  0  0
 32 74  2  0  0  0  0
 33 36  1  0  0  0  0
 34 43  1  0  0  0  0
 35 62  1  0  0  0  0
 36 38  1  0  0  0  0
 37 39  1  0  0  0  0
 37 40  1  0  0  0  0
 38 42  1  0  0  0  0
 39 44  1  0  0  0  0
 40 63  1  0  0  0  0
 41 44  1  0  0  0  0
 41 63  1  0  0  0  0
 42 66  1  0  0  0  0
 43 62  1  0  0  0  0
 44 61  1  0  0  0  0
 45 58  1  0  0  0  0
 46 59  1  0  0  0  0
 47 59  1  0  0  0  0
 48 59  1  0  0  0  0
 49 69  1  0  0  0  0
 50 51  1  0  0  0  0
 50 52  1  0  0  0  0
 51 68  1  0  0  0  0
 52 77  1  0  0  0  0
 53 54  1  0  0  0  0
 53 76  1  0  0  0  0
 54 78  1  0  0  0  0
 55 56  1  0  0  0  0
 55 77  1  0  0  0  0
 56 78  1  0  0  0  0
 57 59  1  0  0  0  0
 57 67  1  0  0  0  0
 58 69  1  0  0  0  0
 60 61  1  0  0  0  0
M  CHG  1  69   1
M  ISO  4  32 100  53 101  68 100  76 101
M  END
> <Batch ID>
0000

> <Smiles>
CNC(C)C(=O)NC(C(=O)N1Cc2cc([101O:1][101CH2:1]COCCOCCC[100NH:0][100C:0](=O)N3CCCC(n4nc(-c5ccc(Oc6ccc(F)cc6F)cc5)c(C(N)=O)c4N)C3)ccc2CC1C(=O)NC1CCCc2ccccc21)C(C)(C)C

> <Shape>
0.210

> <Color>
0.083

> <Negative vol penalty>
0.000

$$$$

  -OEChem-04052315133D

 82 90  0     1  0  0  0  0  0999 V2000
  -18.7544  -32.4730   25.4616 C   0  0  0  0  0  0  0  0  0  0  0  0
  -20.0319  -31.9225   25.4385 C   0  0  0  0  0  0  0  0  0  0  0  0
  -24.0105  -13.7331   19.9692 C   0  0  0  0  0  0  0  0  0  0  0  0
  -26.3034  -13.8638   20.7193 C   0  0  0  0  0  0  0  0  0  0  0  0
  -17.7085  -31.8323   24.7987 C   0  0  0  0  0  0  0  0  0  0  0  0
  -20.2639  -30.7303   24.7534 C   0  0  0  0  0  0  0  0  0  0  0  0
  -25.3404  -29.1621   21.7079 C   0  0  0  0  0  0  0  0  0  0  0  0
  -30.6531  -21.6450   19.4772 C   0  0  0  0  0  0  0  0  0  0  0  0
  -30.4221  -23.1429   17.5957 C   0  0  0  0  0  0  0  0  0  0  0  0
  -30.7662  -22.7394   20.3346 C   0  0  0  0  0  0  0  0  0  0  0  0
  -30.5352  -24.2373   18.4531 C   0  0  0  0  0  0  0  0  0  0  0  0
  -24.0876  -12.3405   19.9760 C   0  0  0  0  0  0  0  0  0  0  0  0
  -26.3804  -12.4710   20.7262 C   0  0  0  0  0  0  0  0  0  0  0  0
  -26.4360  -28.3726   22.0545 C   0  0  0  0  0  0  0  0  0  0  0  0
  -23.9547   -9.8496   22.2587 C   0  0  0  0  0  0  0  0  0  0  0  0
  -22.8917   -9.1443   22.8228 C   0  0  0  0  0  0  0  0  0  0  0  0
  -25.4132  -26.4827   20.9584 C   0  0  0  0  0  0  0  0  0  0  0  0
  -22.5031   -8.0398   20.7095 C   0  0  0  0  0  0  0  0  0  0  0  0
  -25.1184  -14.4948   20.3408 C   0  0  0  0  0  0  0  0  0  0  0  0
  -24.6447  -16.7688   21.3955 C   0  0  0  0  0  0  0  0  0  0  0  0
  -17.9297  -30.6367   24.0971 C   0  0  0  0  0  0  0  0  0  0  0  0
  -24.2662  -28.6142   20.9922 C   0  0  0  0  0  0  0  0  0  0  0  0
  -19.2196  -30.0723   24.0817 C   0  0  0  0  0  0  0  0  0  0  0  0
  -24.3063  -27.2680   20.6018 C   0  0  0  0  0  0  0  0  0  0  0  0
  -30.4811  -21.8468   18.1078 C   0  0  0  0  0  0  0  0  0  0  0  0
  -30.7072  -24.0355   19.8226 C   0  0  0  0  0  0  0  0  0  0  0  0
  -25.2725  -11.7094   20.3546 C   0  0  0  0  0  0  0  0  0  0  0  0
  -26.4712  -27.0320   21.6823 C   0  0  0  0  0  0  0  0  0  0  0  0
  -24.2919   -9.6500   20.9200 C   0  0  0  0  0  0  0  0  0  0  0  0
  -22.1659   -8.2394   22.0482 C   0  0  0  0  0  0  0  0  0  0  0  0
  -23.5661   -8.7451   20.1454 C   0  0  0  0  0  0  0  0  0  0  0  0
  -25.0396  -15.9335   20.3333 C   0  0  0  0  0  0  0  0  0  0  0  0
  -24.7399  -18.0406   20.8858 C   0  0  0  0  0  0  0  0  0  0  0  0
  -24.2291  -16.4256   22.7241 C   0  0  0  0  0  0  0  0  0  0  0  0
  -21.1693  -28.1904   21.5698 C   0  0  0  0  0  0  0  0  0  0  0  0
  -21.1256  -27.2085   18.4785 C   0  0  0  0  0  0  0  0  0  0  0  0
  -22.8422  -25.9309   15.8199 C   0  0  0  0  0  0  0  0  0  0  0  0
  -27.9990  -20.4293   16.4672 C   0  0  0  0  0  0  0  0  0  0  0  0
  -28.5822  -26.2401   21.0735 C   0  0  0  0  0  0  0  0  0  1  0  0
  -16.7579  -29.9557   23.4354 C   0  0  0  0  0  0  0  0  0  0  0  0
  -23.1039  -29.4859   20.6029 C   0  0  0  0  0  0  0  0  0  0  0  0
  -23.1877  -26.6369   19.8151 C   0  0  0  0  0  0  0  0  0  0  0  0
  -17.1659  -28.8926   22.4188 C   0  0  0  0  0  0  0  0  0  0  0  0
  -24.4511  -20.4546   16.7651 C   0  0  0  0  0  0  0  0  0  0  0  0
  -18.2525  -27.9910   22.9961 C   0  0  0  0  0  0  0  0  0  0  0  0
  -24.1640  -19.3741   17.8092 C   0  0  0  0  0  0  0  0  0  0  0  0
  -25.6231  -20.0715   15.8642 C   0  0  0  0  0  0  0  0  0  0  0  0
  -26.5749  -18.6314   17.6231 C   0  0  0  0  0  0  0  0  0  0  0  0
  -19.5161  -28.7935   23.3287 C   0  0  1  0  0  0  0  0  0  0  0  0
  -21.8316  -28.6936   20.3185 C   0  0  1  0  0  0  0  0  0  0  0  0
  -25.4369  -18.9976   18.5911 C   0  0  2  0  0  0  0  0  0  0  0  0
  -22.5287  -25.2015   13.4393 C   0  0  0  0  0  0  0  0  0  0  0  0
  -19.7894  -24.6408   19.4438 C   0  0  0  0  0  0  0  0  0  0  0  0
  -20.3635  -23.5968   17.2418 C   0  0  0  0  0  0  0  0  0  0  0  0
  -18.8459  -25.5748   17.3244 C   0  0  0  0  0  0  0  0  0  0  0  0
  -24.7587  -27.9550   14.8255 C   0  0  0  0  0  0  0  0  0  0  0  0
  -30.3601  -20.6773   17.1904 C   0  0  0  0  0  0  0  0  0  0  0  0
  -30.8273  -25.2130   20.7464 C   0  0  0  0  0  0  0  0  0  0  0  0
  -21.3142  -25.8868   17.7738 C   0  0  1  0  0  0  0  0  0  0  0  0
  -22.9005  -26.3515   14.3624 C   0  0  2  0  0  0  0  0  0  0  0  0
  -20.0986  -24.9359   17.9624 C   0  0  0  0  0  0  0  0  0  0  0  0
  -25.3615  -16.6172   19.2320 N   0  0  0  0  0  0  0  0  0  0  0  0
  -25.1690  -17.8955   19.5994 N   0  0  0  0  0  0  0  0  0  0  0  0
  -22.0704  -27.5288   19.4638 N   0  0  0  0  0  0  0  0  0  0  0  0
  -26.7989  -19.7274   16.6674 N   0  0  0  0  0  0  0  0  0  0  0  0
  -24.4975  -19.2578   21.4171 N   0  0  0  0  0  0  0  0  0  0  0  0
  -24.1882  -15.0713   23.0826 N   0  0  0  0  0  0  0  0  0  0  0  0
  -20.2663  -29.0773   22.1241 N   0  0  0  0  0  0  0  0  0  0  0  0
  -21.6133  -26.2054   16.3819 N   0  0  0  0  0  0  0  0  0  0  0  0
  -29.0626  -20.0445   17.2743 N   0  0  0  0  0  0  0  0  0  0  0  0
  -29.6158  -25.4331   21.5020 N   0  0  0  0  0  0  0  0  0  0  0  0
  -24.2736  -26.8115   14.0106 N   0  3  0  0  0  0  0  0  0  0  0  0
  -23.8880  -17.2933   23.5633 O   0  0  0  0  0  0  0  0  0  0  0  0
  -21.4553  -27.0790   21.9998 O   0  0  0  0  0  0  0  0  0  0  0  0
  -20.1792  -27.9333   18.1613 O   0  0  0  0  0  0  0  0  0  0  0  0
  -23.7906  -25.4076   16.4006 O   0  0  0  0  0  0  0  0  0  0  0  0
  -28.1126  -21.3355   15.6350 O   0  0  0  0  0  0  0  0  0  0  0  0
  -28.5533  -26.8655   20.0177 O   0  0  0  0  0  0  0  0  0  0  0  0
  -25.3480  -10.3504   20.3616 O   0  0  0  0  0  0  0  0  0  0  0  0
  -27.5391  -26.2589   22.0198 O   0  0  0  0  0  0  0  0  0  1  0  0
  -21.1461   -7.5610   22.5905 F   0  0  0  0  0  0  0  0  0  0  0  0
  -23.8861   -8.5483   18.8590 F   0  0  0  0  0  0  0  0  0  0  0  0
  1  2  1  0  0  0  0
  1  5  2  0  0  0  0
  2  6  2  0  0  0  0
  3 12  2  0  0  0  0
  3 19  1  0  0  0  0
  4 13  1  0  0  0  0
  4 19  2  0  0  0  0
  5 21  1  0  0  0  0
  6 23  1  0  0  0  0
  7 14  2  0  0  0  0
  7 22  1  0  0  0  0
  8 10  2  0  0  0  0
  8 25  1  0  0  0  0
  9 11  1  0  0  0  0
  9 25  2  0  0  0  0
 10 26  1  0  0  0  0
 11 26  2  0  0  0  0
 12 27  1  0  0  0  0
 13 27  2  0  0  0  0
 14 28  1  0  0  0  0
 15 16  2  0  0  0  0
 15 29  1  0  0  0  0
 16 30  1  0  0  0  0
 17 24  1  0  0  0  0
 17 28  2  0  0  0  0
 18 30  2  0  0  0  0
 18 31  1  0  0  0  0
 19 32  1  0  0  0  0
 20 32  1  0  0  0  0
 20 33  2  0  0  0  0
 20 34  1  0  0  0  0
 21 23  2  0  0  0  0
 21 40  1  0  0  0  0
 22 24  2  0  0  0  0
 22 41  1  0  0  0  0
 23 49  1  0  0  0  0
 24 42  1  0  0  0  0
 25 57  1  0  0  0  0
 26 58  1  0  0  0  0
 27 79  1  0  0  0  0
 28 80  1  0  0  0  0
 29 31  2  0  0  0  0
 29 79  1  0  0  0  0
 30 81  1  0  0  0  0
 31 82  1  0  0  0  0
 32 62  2  0  0  0  0
 33 63  1  0  0  0  0
 33 66  1  0  0  0  0
 34 67  1  0  0  0  0
 34 73  2  0  0  0  0
 35 50  1  0  0  0  0
 35 68  1  0  0  0  0
 35 74  2  0  0  0  0
 36 59  1  0  0  0  0
 36 64  1  0  0  0  0
 36 75  2  0  0  0  0
 37 60  1  0  0  0  0
 37 69  1  0  0  0  0
 37 76  2  0  0  0  0
 38 65  1  0  0  0  0
 38 70  1  0  0  0  0
 38 77  2  0  0  0  0
 39 71  1  0  0  0  0
 39 78  2  0  0  0  0
 39 80  1  0  0  0  0
 40 43  1  0  0  0  0
 41 50  1  0  0  0  0
 42 64  1  0  0  0  0
 43 45  1  0  0  0  0
 44 46  1  0  0  0  0
 44 47  1  0  0  0  0
 45 49  1  0  0  0  0
 46 51  1  0  0  0  0
 47 65  1  0  0  0  0
 48 51  1  0  0  0  0
 48 65  1  0  0  0  0
 49 68  1  0  0  0  0
 50 64  1  0  0  0  0
 51 63  1  0  0  0  0
 52 60  1  0  0  0  0
 53 61  1  0  0  0  0
 54 61  1  0  0  0  0
 55 61  1  0  0  0  0
 56 72  1  0  0  0  0
 57 70  1  0  0  0  0
 58 71  1  0  0  0  0
 59 61  1  0  0  0  0
 59 69  1  0  0  0  0
 60 72  1  0  0  0  0
 62 63  1  0  0  0  0
M  CHG  1  72   1
M  ISO  4  38 100  39 101  70 100  80 101
M  END
> <Batch ID>
0000

> <Smiles>
CNC(C)C(=O)NC(C(=O)N1Cc2cc([101O:1][101C:1](=O)NCc3ccc(C[100NH:0][100C:0](=O)N4CCCC(n5nc(-c6ccc(Oc7ccc(F)cc7F)cc6)c(C(N)=O)c5N)C4)cc3)ccc2CC1C(=O)NC1CCCc2ccccc21)C(C)(C)C

> <Shape>
0.202

> <Color>
0.078

> <Negative vol penalty>
0.000

$$$$

  -OEChem-04052315133D

 88 96  0     1  0  0  0  0  0999 V2000
  -28.4215  -36.0588   21.9819 C   0  0  0  0  0  0  0  0  0  0  0  0
  -28.4858  -34.7122   22.3253 C   0  0  0  0  0  0  0  0  0  0  0  0
  -22.6557  -10.0811   19.9424 C   0  0  0  0  0  0  0  0  0  0  0  0
  -24.1853   -9.5785   21.7437 C   0  0  0  0  0  0  0  0  0  0  0  0
  -27.1825  -36.6809   21.8342 C   0  0  0  0  0  0  0  0  0  0  0  0
  -27.3111  -33.9871   22.5222 C   0  0  0  0  0  0  0  0  0  0  0  0
  -27.4335  -29.4455   20.2853 C   0  0  0  0  0  0  0  0  0  0  0  0
  -32.0383  -17.7865   22.1690 C   0  0  0  0  0  0  0  0  0  0  0  0
  -30.9139  -18.3598   20.1088 C   0  0  0  0  0  0  0  0  0  0  0  0
  -22.0075   -8.8642   20.1532 C   0  0  0  0  0  0  0  0  0  0  0  0
  -23.5371   -8.3615   21.9545 C   0  0  0  0  0  0  0  0  0  0  0  0
  -28.1538  -28.4389   20.9270 C   0  0  0  0  0  0  0  0  0  0  0  0
  -32.3796  -16.5432   21.6368 C   0  0  0  0  0  0  0  0  0  0  0  0
  -31.2552  -17.1165   19.5766 C   0  0  0  0  0  0  0  0  0  0  0  0
  -20.7104   -7.2737   23.4535 C   0  0  0  0  0  0  0  0  0  0  0  0
  -20.4214   -6.9146   24.7699 C   0  0  0  0  0  0  0  0  0  0  0  0
  -26.0973  -27.5381   21.8094 C   0  0  0  0  0  0  0  0  0  0  0  0
  -21.7701   -4.9253   24.5234 C   0  0  0  0  0  0  0  0  0  0  0  0
  -23.7446  -10.4383   20.7377 C   0  0  0  0  0  0  0  0  0  0  0  0
  -24.1158  -12.9331   21.1198 C   0  0  0  0  0  0  0  0  0  0  0  0
  -25.9919  -35.9607   22.0199 C   0  0  0  0  0  0  0  0  0  0  0  0
  -26.0383  -29.5125   20.4100 C   0  0  0  0  0  0  0  0  0  0  0  0
  -26.0551  -34.6005   22.3781 C   0  0  0  0  0  0  0  0  0  0  0  0
  -25.3614  -28.5450   21.1662 C   0  0  0  0  0  0  0  0  0  0  0  0
  -31.3053  -18.6948   21.4051 C   0  0  0  0  0  0  0  0  0  0  0  0
  -22.4482   -8.0043   21.1592 C   0  0  0  0  0  0  0  0  0  0  0  0
  -31.9881  -16.2082   20.3406 C   0  0  0  0  0  0  0  0  0  0  0  0
  -27.4860  -27.4867   21.6915 C   0  0  0  0  0  0  0  0  0  0  0  0
  -21.5292   -6.4585   22.6719 C   0  0  0  0  0  0  0  0  0  0  0  0
  -20.9512   -5.7404   25.3049 C   0  0  0  0  0  0  0  0  0  0  0  0
  -22.0591   -5.2844   23.2069 C   0  0  0  0  0  0  0  0  0  0  0  0
  -24.4149  -11.6951   20.5201 C   0  0  0  0  0  0  0  0  0  0  0  0
  -25.0332  -13.8042   20.5850 C   0  0  0  0  0  0  0  0  0  0  0  0
  -23.0996  -13.2658   22.0749 C   0  0  0  0  0  0  0  0  0  0  0  0
  -23.9912  -31.6388   21.5896 C   0  0  0  0  0  0  0  0  0  0  0  0
  -21.7786  -29.6118   20.3574 C   0  0  0  0  0  0  0  0  0  0  0  0
  -30.2391  -20.9713   21.3279 C   0  0  0  0  0  0  0  0  0  0  0  0
  -20.9924  -26.4489   19.3451 C   0  0  0  0  0  0  0  0  0  0  0  0
  -28.3635  -25.3392   21.5495 C   0  0  0  0  0  0  0  0  0  1  0  0
  -30.4839  -13.0447   18.2262 C   0  0  0  0  0  0  0  0  0  0  0  0
  -24.6765  -36.6880   21.8954 C   0  0  0  0  0  0  0  0  0  0  0  0
  -25.2734  -30.5888   19.6898 C   0  0  0  0  0  0  0  0  0  0  0  0
  -23.8627  -28.5607   21.3151 C   0  0  0  0  0  0  0  0  0  0  0  0
  -23.4760  -35.7557   21.7547 C   0  0  0  0  0  0  0  0  0  0  0  0
  -27.6572  -14.5293   16.6506 C   0  0  0  0  0  0  0  0  0  0  0  0
  -23.5490  -34.6322   22.7839 C   0  0  0  0  0  0  0  0  0  0  0  0
  -26.4787  -14.0830   17.5177 C   0  0  0  0  0  0  0  0  0  0  0  0
  -28.7177  -13.4368   16.5340 C   0  0  0  0  0  0  0  0  0  0  0  0
  -28.0261  -12.4600   18.6884 C   0  0  0  0  0  0  0  0  0  0  0  0
  -24.8028  -33.7741   22.5758 C   0  0  1  0  0  0  0  0  0  0  0  0
  -23.9049  -30.8632   20.3056 C   0  0  1  0  0  0  0  0  0  0  0  0
  -26.9566  -13.5487   18.8813 C   0  0  2  0  0  0  0  0  0  0  0  0
  -19.0955  -25.0909   18.4205 C   0  0  0  0  0  0  0  0  0  0  0  0
  -20.4803  -29.5504   23.1179 C   0  0  0  0  0  0  0  0  0  0  0  0
  -19.2207  -27.5080   22.4033 C   0  0  0  0  0  0  0  0  0  0  0  0
  -18.8685  -29.6698   21.2094 C   0  0  0  0  0  0  0  0  0  0  0  0
  -22.5019  -25.8035   16.8826 C   0  0  0  0  0  0  0  0  0  0  0  0
  -30.0762  -22.1698   22.2372 C   0  0  0  0  0  0  0  0  0  0  0  0
  -29.1486  -24.3265   22.3429 C   0  0  0  0  0  0  0  0  0  0  0  0
  -32.1359  -12.6068   20.0257 C   0  0  0  0  0  0  0  0  0  0  0  0
  -32.4517  -13.9097   20.7381 C   0  0  0  0  0  0  0  0  0  0  0  0
  -21.0312  -28.4048   20.8707 C   0  0  1  0  0  0  0  0  0  0  0  0
  -20.3176  -25.9324   18.0872 C   0  0  2  0  0  0  0  0  0  0  0  0
  -19.9286  -28.7838   21.8993 C   0  0  0  0  0  0  0  0  0  0  0  0
  -25.4419  -11.7690   19.6693 N   0  0  0  0  0  0  0  0  0  0  0  0
  -25.7961  -13.0639   19.7305 N   0  0  0  0  0  0  0  0  0  0  0  0
  -23.1599  -29.6367   20.5969 N   0  0  0  0  0  0  0  0  0  0  0  0
  -29.1291  -12.9748   17.8619 N   0  0  0  0  0  0  0  0  0  0  0  0
  -25.2536  -15.1236   20.7670 N   0  0  0  0  0  0  0  0  0  0  0  0
  -22.2418  -12.2503   22.5190 N   0  0  0  0  0  0  0  0  0  0  0  0
  -30.9589  -19.9561   21.9449 N   0  0  0  0  0  0  0  0  0  0  0  0
  -24.6148  -32.8656   21.4651 N   0  0  0  0  0  0  0  0  0  0  0  0
  -20.5336  -27.7017   19.6932 N   0  0  0  0  0  0  0  0  0  0  0  0
  -30.7872  -12.5924   19.5045 N   0  0  0  0  0  0  0  0  0  0  0  0
  -21.2644  -25.0944   17.2982 N   0  3  0  0  0  0  0  0  0  0  0  0
  -22.9461  -14.4327   22.5090 O   0  0  0  0  0  0  0  0  0  0  0  0
  -23.5251  -31.1603   22.6170 O   0  0  0  0  0  0  0  0  0  0  0  0
  -21.1609  -30.4965   19.7596 O   0  0  0  0  0  0  0  0  0  0  0  0
  -29.7668  -20.9802   20.1951 O   0  0  0  0  0  0  0  0  0  0  0  0
  -21.8390  -25.8039   19.9596 O   0  0  0  0  0  0  0  0  0  0  0  0
  -27.9454  -25.1717   20.4117 O   0  0  0  0  0  0  0  0  0  0  0  0
  -31.3576  -13.4831   17.4703 O   0  0  0  0  0  0  0  0  0  0  0  0
  -21.8158   -6.8168   21.3653 O   0  0  0  0  0  0  0  0  0  0  0  0
  -28.1868  -26.5035   22.3193 O   0  0  0  0  0  0  0  0  0  1  0  0
  -32.3212  -14.9950   19.8211 O   0  0  0  0  0  0  0  0  0  0  0  0
  -29.3382  -23.1732   21.5473 O   0  0  0  0  0  0  0  0  0  0  0  0
  -20.6749   -5.3964   26.5696 F   0  0  0  0  0  0  0  0  0  0  0  0
  -22.8473   -4.4979   22.4613 F   0  0  0  0  0  0  0  0  0  0  0  0
  1  2  1  0  0  0  0
  1  5  2  0  0  0  0
  2  6  2  0  0  0  0
  3 10  2  0  0  0  0
  3 19  1  0  0  0  0
  4 11  1  0  0  0  0
  4 19  2  0  0  0  0
  5 21  1  0  0  0  0
  6 23  1  0  0  0  0
  7 12  2  0  0  0  0
  7 22  1  0  0  0  0
  8 13  2  0  0  0  0
  8 25  1  0  0  0  0
  9 14  1  0  0  0  0
  9 25  2  0  0  0  0
 10 26  1  0  0  0  0
 11 26  2  0  0  0  0
 12 28  1  0  0  0  0
 13 27  1  0  0  0  0
 14 27  2  0  0  0  0
 15 16  2  0  0  0  0
 15 29  1  0  0  0  0
 16 30  1  0  0  0  0
 17 24  1  0  0  0  0
 17 28  2  0  0  0  0
 18 30  2  0  0  0  0
 18 31  1  0  0  0  0
 19 32  1  0  0  0  0
 20 32  1  0  0  0  0
 20 33  2  0  0  0  0
 20 34  1  0  0  0  0
 21 23  2  0  0  0  0
 21 41  1  0  0  0  0
 22 24  2  0  0  0  0
 22 42  1  0  0  0  0
 23 50  1  0  0  0  0
 24 43  1  0  0  0  0
 25 71  1  0  0  0  0
 26 83  1  0  0  0  0
 27 85  1  0  0  0  0
 28 84  1  0  0  0  0
 29 31  2  0  0  0  0
 29 83  1  0  0  0  0
 30 87  1  0  0  0  0
 31 88  1  0  0  0  0
 32 65  2  0  0  0  0
 33 66  1  0  0  0  0
 33 69  1  0  0  0  0
 34 70  1  0  0  0  0
 34 76  2  0  0  0  0
 35 51  1  0  0  0  0
 35 72  1  0  0  0  0
 35 77  2  0  0  0  0
 36 62  1  0  0  0  0
 36 67  1  0  0  0  0
 36 78  2  0  0  0  0
 37 58  1  0  0  0  0
 37 71  1  0  0  0  0
 37 79  2  0  0  0  0
 38 63  1  0  0  0  0
 38 73  1  0  0  0  0
 38 80  2  0  0  0  0
 39 59  1  0  0  0  0
 39 81  2  0  0  0  0
 39 84  1  0  0  0  0
 40 68  1  0  0  0  0
 40 74  1  0  0  0  0
 40 82  2  0  0  0  0
 41 44  1  0  0  0  0
 42 51  1  0  0  0  0
 43 67  1  0  0  0  0
 44 46  1  0  0  0  0
 45 47  1  0  0  0  0
 45 48  1  0  0  0  0
 46 50  1  0  0  0  0
 47 52  1  0  0  0  0
 48 68  1  0  0  0  0
 49 52  1  0  0  0  0
 49 68  1  0  0  0  0
 50 72  1  0  0  0  0
 51 67  1  0  0  0  0
 52 66  1  0  0  0  0
 53 63  1  0  0  0  0
 54 64  1  0  0  0  0
 55 64  1  0  0  0  0
 56 64  1  0  0  0  0
 57 75  1  0  0  0  0
 58 86  1  0  0  0  0
 59 86  1  0  0  0  0
 60 61  1  0  0  0  0
 60 74  1  0  0  0  0
 61 85  1  0  0  0  0
 62 64  1  0  0  0  0
 62 73  1  0  0  0  0
 63 75  1  0  0  0  0
 65 66  1  0  0  0  0
M  CHG  1  75   1
M  ISO  4  39 101  40 100  74 100  84 101
M  END
> <Batch ID>
0000

> <Smiles>
CNC(C)C(=O)NC(C(=O)N1Cc2cc([101O:1][101C:1](=O)COCC(=O)Nc3ccc(OCC[100NH:0][100C:0](=O)N4CCCC(n5nc(-c6ccc(Oc7ccc(F)cc7F)cc6)c(C(N)=O)c5N)C4)cc3)ccc2CC1C(=O)NC1CCCc2ccccc21)C(C)(C)C

> <Shape>
0.323

> <Color>
0.159

> <Negative vol penalty>
0.000

$$$$

  -OEChem-04052315133D

 87 95  0     1  0  0  0  0  0999 V2000
  -20.3338  -10.4915   16.4371 C   0  0  0  0  0  0  0  0  0  0  0  0
  -20.4887  -11.0836   17.6865 C   0  0  0  0  0  0  0  0  0  0  0  0
  -26.1929  -28.3310   18.9308 C   0  0  0  0  0  0  0  0  0  0  0  0
  -26.4542  -28.1536   21.3260 C   0  0  0  0  0  0  0  0  0  0  0  0
  -21.3850   -9.7688   15.8744 C   0  0  0  0  0  0  0  0  0  0  0  0
  -21.6945  -10.9523   18.3743 C   0  0  0  0  0  0  0  0  0  0  0  0
  -23.2638  -15.3222   20.3956 C   0  0  0  0  0  0  0  0  0  0  0  0
  -26.8479  -18.4845   25.0385 C   0  0  0  0  0  0  0  0  0  0  0  0
  -27.6416  -20.4713   26.1609 C   0  0  0  0  0  0  0  0  0  0  0  0
  -27.1992  -19.0393   23.8079 C   0  0  0  0  0  0  0  0  0  0  0  0
  -27.9930  -21.0261   24.9303 C   0  0  0  0  0  0  0  0  0  0  0  0
  -25.1957  -29.2896   19.1105 C   0  0  0  0  0  0  0  0  0  0  0  0
  -25.4570  -29.1122   21.5058 C   0  0  0  0  0  0  0  0  0  0  0  0
  -22.6450  -15.7372   21.5741 C   0  0  0  0  0  0  0  0  0  0  0  0
  -25.1779  -32.4758   21.3358 C   0  0  0  0  0  0  0  0  0  0  0  0
  -25.4143  -33.4881   22.2658 C   0  0  0  0  0  0  0  0  0  0  0  0
  -24.5188  -14.9037   22.8443 C   0  0  0  0  0  0  0  0  0  0  0  0
  -23.4705  -32.7902   23.5195 C   0  0  0  0  0  0  0  0  0  0  0  0
  -26.8221  -27.7630   20.0385 C   0  0  0  0  0  0  0  0  0  0  0  0
  -29.2349  -26.9986   19.7196 C   0  0  0  0  0  0  0  0  0  0  0  0
  -22.6076   -9.6367   16.5514 C   0  0  0  0  0  0  0  0  0  0  0  0
  -24.5119  -14.6840   20.4336 C   0  0  0  0  0  0  0  0  0  0  0  0
  -22.7625  -10.2260   17.8207 C   0  0  0  0  0  0  0  0  0  0  0  0
  -25.1524  -14.4839   21.6648 C   0  0  0  0  0  0  0  0  0  0  0  0
  -27.0690  -19.2005   26.2150 C   0  0  0  0  0  0  0  0  0  0  0  0
  -27.7718  -20.3100   23.7538 C   0  0  0  0  0  0  0  0  0  0  0  0
  -24.8277  -29.6802   20.3980 C   0  0  0  0  0  0  0  0  0  0  0  0
  -23.2712  -15.5254   22.7989 C   0  0  0  0  0  0  0  0  0  0  0  0
  -24.0877  -31.6207   21.4976 C   0  0  0  0  0  0  0  0  0  0  0  0
  -24.5606  -33.6453   23.3577 C   0  0  0  0  0  0  0  0  0  0  0  0
  -23.2341  -31.7779   22.5894 C   0  0  0  0  0  0  0  0  0  0  0  0
  -27.8519  -26.7723   19.8535 C   0  0  0  0  0  0  0  0  0  0  0  0
  -29.7749  -25.7447   19.5687 C   0  0  0  0  0  0  0  0  0  0  0  0
  -29.9661  -28.2318   19.7307 C   0  0  0  0  0  0  0  0  0  0  0  0
  -25.5922  -11.8176   19.5850 C   0  0  0  0  0  0  0  0  0  0  0  0
  -28.4692  -13.1060   20.3500 C   0  0  0  0  0  0  0  0  0  0  0  0
  -29.9310  -15.5960   21.6042 C   0  0  0  0  0  0  0  0  0  0  0  0
  -27.9778  -20.2975   21.2431 C   0  0  0  0  0  0  0  0  0  0  0  0
  -23.6989   -8.8061   15.9239 C   0  0  0  0  0  0  0  0  0  0  0  0
  -25.1783  -14.2664   19.1515 C   0  0  0  0  0  0  0  0  0  0  0  0
  -26.5019  -13.8216   21.7582 C   0  0  0  0  0  0  0  0  0  0  0  0
  -25.0721   -9.0297   16.5521 C   0  0  0  0  0  0  0  0  0  0  0  0
  -28.6982  -21.3765   17.9274 C   0  0  0  0  0  0  0  0  0  0  0  0
  -24.9735   -9.0040   18.0740 C   0  0  0  0  0  0  0  0  0  0  0  0
  -28.6949  -22.9032   18.0341 C   0  0  0  0  0  0  0  0  0  0  0  0
  -27.6347  -20.7430   18.8226 C   0  0  0  0  0  0  0  0  0  0  0  0
  -27.6765  -22.6858   20.3369 C   0  0  0  0  0  0  0  0  0  0  0  0
  -24.0637  -10.1268   18.5870 C   0  0  1  0  0  0  0  0  0  0  0  0
  -26.2148  -13.1644   19.3482 C   0  0  1  0  0  0  0  0  0  0  0  0
  -28.7742  -23.3656   19.5023 C   0  0  2  0  0  0  0  0  0  0  0  0
  -31.4522  -17.3700   22.5187 C   0  0  0  0  0  0  0  0  0  0  0  0
  -28.9124  -10.7111   22.1879 C   0  0  0  0  0  0  0  0  0  0  0  0
  -30.7596  -11.9896   23.2932 C   0  0  0  0  0  0  0  0  0  0  0  0
  -30.9243  -11.4041   20.8739 C   0  0  0  0  0  0  0  0  0  0  0  0
  -30.4185  -16.7285   18.9137 C   0  0  0  0  0  0  0  0  0  0  0  0
  -26.6909  -18.6037   27.5388 C   0  0  0  0  0  0  0  0  0  0  0  0
  -21.2423  -15.9384   23.9689 C   0  0  0  0  0  0  0  0  0  1  0  0
  -24.8945  -18.5510   29.0530 C   0  0  0  0  0  0  0  0  0  0  0  0
  -20.7634  -15.6802   25.3843 C   0  0  0  0  0  0  0  0  0  0  0  0
  -23.3840  -18.6452   29.1506 C   0  0  0  0  0  0  0  0  0  0  0  0
  -20.8229  -16.5241   27.5769 C   0  0  0  0  0  0  0  0  0  0  0  0
  -21.3829  -17.6421   28.4349 C   0  0  0  0  0  0  0  0  0  0  0  0
  -29.2995  -13.1969   21.6075 C   0  0  1  0  0  0  0  0  0  0  0  0
  -31.0983  -16.5203   21.3082 C   0  0  2  0  0  0  0  0  0  0  0  0
  -29.9477  -11.8362   21.9894 C   0  0  0  0  0  0  0  0  0  0  0  0
  -27.5331  -25.4767   19.7928 N   0  0  0  0  0  0  0  0  0  0  0  0
  -28.7234  -24.8775   19.6190 N   0  0  0  0  0  0  0  0  0  0  0  0
  -27.1100  -13.4255   20.4772 N   0  0  0  0  0  0  0  0  0  0  0  0
  -27.7743  -21.2242   20.1987 N   0  0  0  0  0  0  0  0  0  0  0  0
  -31.0418  -25.3104   19.3990 N   0  0  0  0  0  0  0  0  0  0  0  0
  -29.2555  -29.4284   19.8962 N   0  0  0  0  0  0  0  0  0  0  0  0
  -28.1291  -20.8738   22.5039 N   0  0  0  0  0  0  0  0  0  0  0  0
  -24.7628  -11.3938   18.5642 N   0  0  0  0  0  0  0  0  0  0  0  0
  -30.2581  -14.2743   21.3866 N   0  0  0  0  0  0  0  0  0  0  0  0
  -30.7641  -17.4306   20.1765 N   0  3  0  0  0  0  0  0  0  0  0  0
  -31.2110  -28.2727   19.5815 O   0  0  0  0  0  0  0  0  0  0  0  0
  -25.8467  -11.2073   20.6167 O   0  0  0  0  0  0  0  0  0  0  0  0
  -29.0083  -12.7709   19.2922 O   0  0  0  0  0  0  0  0  0  0  0  0
  -28.8394  -16.0053   21.9935 O   0  0  0  0  0  0  0  0  0  0  0  0
  -28.0422  -19.0840   21.0305 O   0  0  0  0  0  0  0  0  0  0  0  0
  -23.8549  -30.6157   20.5738 O   0  0  0  0  0  0  0  0  0  0  0  0
  -22.6691  -15.9289   23.9507 O   0  0  0  0  0  0  0  0  0  1  0  0
  -25.2793  -18.6634   27.6882 O   0  0  0  0  0  0  0  0  0  0  0  0
  -21.2431  -16.7158   26.2333 O   0  0  0  0  0  0  0  0  0  0  0  0
  -22.8038  -17.6024   28.3796 O   0  0  0  0  0  0  0  0  0  0  0  0
  -24.7886  -34.6165   24.2516 F   0  0  0  0  0  0  0  0  0  0  0  0
  -22.1858  -30.9588   22.7508 F   0  0  0  0  0  0  0  0  0  0  0  0
  1  2  1  0  0  0  0
  1  5  2  0  0  0  0
  2  6  2  0  0  0  0
  3 12  2  0  0  0  0
  3 19  1  0  0  0  0
  4 13  1  0  0  0  0
  4 19  2  0  0  0  0
  5 21  1  0  0  0  0
  6 23  1  0  0  0  0
  7 14  2  0  0  0  0
  7 22  1  0  0  0  0
  8 10  2  0  0  0  0
  8 25  1  0  0  0  0
  9 11  1  0  0  0  0
  9 25  2  0  0  0  0
 10 26  1  0  0  0  0
 11 26  2  0  0  0  0
 12 27  1  0  0  0  0
 13 27  2  0  0  0  0
 14 28  1  0  0  0  0
 15 16  2  0  0  0  0
 15 29  1  0  0  0  0
 16 30  1  0  0  0  0
 17 24  1  0  0  0  0
 17 28  2  0  0  0  0
 18 30  2  0  0  0  0
 18 31  1  0  0  0  0
 19 32  1  0  0  0  0
 20 32  1  0  0  0  0
 20 33  2  0  0  0  0
 20 34  1  0  0  0  0
 21 23  2  0  0  0  0
 21 39  1  0  0  0  0
 22 24  2  0  0  0  0
 22 40  1  0  0  0  0
 23 48  1  0  0  0  0
 24 41  1  0  0  0  0
 25 56  1  0  0  0  0
 26 72  1  0  0  0  0
 27 81  1  0  0  0  0
 28 82  1  0  0  0  0
 29 31  2  0  0  0  0
 29 81  1  0  0  0  0
 30 86  1  0  0  0  0
 31 87  1  0  0  0  0
 32 66  2  0  0  0  0
 33 67  1  0  0  0  0
 33 70  1  0  0  0  0
 34 71  1  0  0  0  0
 34 76  2  0  0  0  0
 35 49  1  0  0  0  0
 35 73  1  0  0  0  0
 35 77  2  0  0  0  0
 36 63  1  0  0  0  0
 36 68  1  0  0  0  0
 36 78  2  0  0  0  0
 37 64  1  0  0  0  0
 37 74  1  0  0  0  0
 37 79  2  0  0  0  0
 38 69  1  0  0  0  0
 38 72  1  0  0  0  0
 38 80  2  0  0  0  0
 39 42  1  0  0  0  0
 40 49  1  0  0  0  0
 41 68  1  0  0  0  0
 42 44  1  0  0  0  0
 43 45  1  0  0  0  0
 43 46  1  0  0  0  0
 44 48  1  0  0  0  0
 45 50  1  0  0  0  0
 46 69  1  0  0  0  0
 47 50  1  0  0  0  0
 47 69  1  0  0  0  0
 48 73  1  0  0  0  0
 49 68  1  0  0  0  0
 50 67  1  0  0  0  0
 51 64  1  0  0  0  0
 52 65  1  0  0  0  0
 53 65  1  0  0  0  0
 54 65  1  0  0  0  0
 55 75  1  0  0  0  0
 56 83  1  0  0  0  0
 57 59  1  0  0  0  0
 57 82  1  0  0  0  0
 58 60  1  0  0  0  0
 58 83  1  0  0  0  0
 59 84  1  0  0  0  0
 60 85  1  0  0  0  0
 61 62  1  0  0  0  0
 61 84  1  0  0  0  0
 62 85  1  0  0  0  0
 63 65  1  0  0  0  0
 63 74  1  0  0  0  0
 64 75  1  0  0  0  0
 66 67  1  0  0  0  0
M  CHG  1  75   1
M  ISO  4  38 100  57 101  72 100  82 101
M  END
> <Batch ID>
0000

> <Smiles>
CNC(C)C(=O)NC(C(=O)N1Cc2cc([101O:1][101CH2:1]COCCOCCOCc3ccc([100NH:0][100C:0](=O)N4CCCC(n5nc(-c6ccc(Oc7ccc(F)cc7F)cc6)c(C(N)=O)c5N)C4)cc3)ccc2CC1C(=O)NC1CCCc2ccccc21)C(C)(C)C

> <Shape>
0.234

> <Color>
0.050

> <Negative vol penalty>
0.000

$$$$

  -OEChem-04052315133D

 98107  0     1  0  0  0  0  0999 V2000
  -28.4253  -32.1934   25.9504 C   0  0  0  0  0  0  0  0  0  0  0  0
  -28.2886  -30.8559   25.5928 C   0  0  0  0  0  0  0  0  0  0  0  0
  -28.1863  -13.8230   10.1916 C   0  0  0  0  0  0  0  0  0  0  0  0
  -29.4941  -13.3035   12.1972 C   0  0  0  0  0  0  0  0  0  0  0  0
  -25.2388  -16.7023   22.4433 C   0  0  0  0  0  0  0  0  0  0  0  0
  -24.0635  -16.7266   20.3326 C   0  0  0  0  0  0  0  0  0  0  0  0
  -27.4969  -33.1320   25.5021 C   0  0  0  0  0  0  0  0  0  0  0  0
  -27.2228  -30.4561   24.7875 C   0  0  0  0  0  0  0  0  0  0  0  0
  -28.6530  -27.2912   21.1020 C   0  0  0  0  0  0  0  0  0  0  0  0
  -26.9533  -14.0470    9.5783 C   0  0  0  0  0  0  0  0  0  0  0  0
  -29.5505  -13.0156   13.5612 C   0  0  0  0  0  0  0  0  0  0  0  0
  -24.7933  -17.9977   22.7063 C   0  0  0  0  0  0  0  0  0  0  0  0
  -23.6179  -18.0219   20.5956 C   0  0  0  0  0  0  0  0  0  0  0  0
  -28.8753  -25.9611   21.4556 C   0  0  0  0  0  0  0  0  0  0  0  0
  -24.8625  -21.1621   20.4505 C   0  0  0  0  0  0  0  0  0  0  0  0
  -24.9424  -22.0970   19.4184 C   0  0  0  0  0  0  0  0  0  0  0  0
  -25.8377  -13.6953   11.6900 C   0  0  0  0  0  0  0  0  0  0  0  0
  -27.1455  -13.1759   13.6957 C   0  0  0  0  0  0  0  0  0  0  0  0
  -26.6949  -25.3768   20.6050 C   0  0  0  0  0  0  0  0  0  0  0  0
  -22.5481  -22.4061   19.5129 C   0  0  0  0  0  0  0  0  0  0  0  0
  -28.2618  -13.5318   11.5634 C   0  0  0  0  0  0  0  0  0  0  0  0
  -27.0700  -13.4670   12.3238 C   0  0  0  0  0  0  0  0  0  0  0  0
  -24.8740  -16.0668   21.2564 C   0  0  0  0  0  0  0  0  0  0  0  0
  -24.6937  -13.5231   21.3266 C   0  0  0  0  0  0  0  0  0  0  0  0
  -26.4246  -32.7451   24.6829 C   0  0  0  0  0  0  0  0  0  0  0  0
  -27.4436  -27.6767   20.5061 C   0  0  0  0  0  0  0  0  0  0  0  0
  -26.2784  -31.3902   24.3289 C   0  0  0  0  0  0  0  0  0  0  0  0
  -26.4607  -26.7120   20.2424 C   0  0  0  0  0  0  0  0  0  0  0  0
  -25.7813  -13.9833   10.3261 C   0  0  0  0  0  0  0  0  0  0  0  0
  -28.3785  -12.9519   14.3089 C   0  0  0  0  0  0  0  0  0  0  0  0
  -23.9829  -18.6575   21.7825 C   0  0  0  0  0  0  0  0  0  0  0  0
  -27.8951  -25.0041   21.2098 C   0  0  0  0  0  0  0  0  0  0  0  0
  -23.6253  -20.8492   21.0138 C   0  0  0  0  0  0  0  0  0  0  0  0
  -23.7853  -22.7190   18.9496 C   0  0  0  0  0  0  0  0  0  0  0  0
  -22.4682  -21.4712   20.5450 C   0  0  0  0  0  0  0  0  0  0  0  0
  -25.3343  -14.7289   20.9839 C   0  0  0  0  0  0  0  0  0  0  0  0
  -25.5289  -12.5428   20.8493 C   0  0  0  0  0  0  0  0  0  0  0  0
  -23.4543  -13.3084   22.0148 C   0  0  0  0  0  0  0  0  0  0  0  0
  -25.0760  -29.6418   21.3040 C   0  0  0  0  0  0  0  0  0  0  0  0
  -24.0028  -28.9295   18.3269 C   0  0  0  0  0  0  0  0  0  0  0  0
  -23.9726  -26.7475   15.7031 C   0  0  0  0  0  0  0  0  0  0  0  0
  -28.7082  -22.9311   20.5439 C   0  0  0  0  0  0  0  0  0  1  0  0
  -29.5784  -12.4122   16.4572 C   0  0  0  0  0  0  0  0  0  0  0  0
  -25.4197  -33.7879   24.2618 C   0  0  0  0  0  0  0  0  0  0  0  0
  -27.2299  -29.1108   20.1062 C   0  0  0  0  0  0  0  0  0  0  0  0
  -25.1533  -27.0707   19.5865 C   0  0  0  0  0  0  0  0  0  0  0  0
  -24.5300  -33.3438   23.1036 C   0  0  0  0  0  0  0  0  0  0  0  0
  -30.1447  -11.6921   19.8979 C   0  0  0  0  0  0  0  0  0  0  0  0
  -24.0012  -31.9339   23.3469 C   0  0  0  0  0  0  0  0  0  0  0  0
  -28.9142  -12.2740   20.5974 C   0  0  0  0  0  0  0  0  0  0  0  0
  -30.5912  -12.5587   18.7217 C   0  0  0  0  0  0  0  0  0  0  0  0
  -28.3104  -13.4467   18.4416 C   0  0  0  0  0  0  0  0  0  0  0  0
  -25.1497  -30.9217   23.4364 C   0  0  1  0  0  0  0  0  0  0  0  0
  -25.7558  -29.4810   19.9738 C   0  0  1  0  0  0  0  0  0  0  0  0
  -27.7843  -12.5742   19.5930 C   0  0  2  0  0  0  0  0  0  0  0  0
  -22.9732  -26.4202   13.4246 C   0  0  0  0  0  0  0  0  0  0  0  0
  -21.3449  -28.1507   19.6071 C   0  0  0  0  0  0  0  0  0  0  0  0
  -20.7481  -26.9674   17.4830 C   0  0  0  0  0  0  0  0  0  0  0  0
  -21.1373  -29.4314   17.4691 C   0  0  0  0  0  0  0  0  0  0  0  0
  -26.6349  -26.7308   14.4105 C   0  0  0  0  0  0  0  0  0  0  0  0
  -24.4546  -14.2256    9.6646 C   0  0  0  0  0  0  0  0  0  0  0  0
  -28.8953  -21.5191   21.0365 C   0  0  0  0  0  0  0  0  0  0  0  0
  -26.2464  -18.3458   16.5677 C   0  0  0  0  0  0  0  0  0  0  0  0
  -26.1738  -17.9200   15.1056 C   0  0  0  0  0  0  0  0  0  0  0  0
  -24.0405  -15.6940    9.6895 C   0  0  0  0  0  0  0  0  0  0  0  0
  -27.6435  -18.1540   17.1405 C   0  0  0  0  0  0  0  0  0  0  0  0
  -24.7879  -18.1519   14.5209 C   0  0  0  0  0  0  0  0  0  0  0  0
  -29.0136  -19.2829   20.3238 C   0  0  0  0  0  0  0  0  0  0  0  0
  -28.9235  -18.3967   19.0964 C   0  0  0  0  0  0  0  0  0  0  0  0
  -23.5927  -17.5200   11.0994 C   0  0  0  0  0  0  0  0  0  0  0  0
  -23.5190  -17.9431   12.5539 C   0  0  0  0  0  0  0  0  0  0  0  0
  -23.1051  -27.8672   17.7398 C   0  0  1  0  0  0  0  0  0  0  0  0
  -24.1559  -26.9629   14.2116 C   0  0  2  0  0  0  0  0  0  0  0  0
  -21.6076  -28.0974   18.0889 C   0  0  0  0  0  0  0  0  0  0  0  0
  -26.4877  -14.5348   20.3389 N   0  0  0  0  0  0  0  0  0  0  0  0
  -26.5784  -13.1956   20.2725 N   0  0  0  0  0  0  0  0  0  0  0  0
  -24.9891  -28.4871   19.2198 N   0  0  0  0  0  0  0  0  0  0  0  0
  -29.4701  -12.7977   17.8102 N   0  0  0  0  0  0  0  0  0  0  0  0
  -25.4607  -11.1947   20.8709 N   0  0  0  0  0  0  0  0  0  0  0  0
  -22.7218  -14.4264   22.4364 N   0  0  0  0  0  0  0  0  0  0  0  0
  -28.4377  -12.6597   15.6941 N   0  0  0  0  0  0  0  0  0  0  0  0
  -25.6472  -30.6036   22.1152 N   0  0  0  0  0  0  0  0  0  0  0  0
  -23.3876  -27.8394   16.3087 N   0  0  0  0  0  0  0  0  0  0  0  0
  -25.3909  -26.2769   13.7371 N   0  3  0  0  0  0  0  0  0  0  0  0
  -23.0178  -12.1590   22.2634 O   0  0  0  0  0  0  0  0  0  0  0  0
  -24.1041  -28.9458   21.5739 O   0  0  0  0  0  0  0  0  0  0  0  0
  -23.8396  -30.1076   17.9997 O   0  0  0  0  0  0  0  0  0  0  0  0
  -24.3108  -25.7125   16.2731 O   0  0  0  0  0  0  0  0  0  0  0  0
  -29.0285  -23.3384   19.4353 O   0  0  0  0  0  0  0  0  0  0  0  0
  -30.5973  -11.8753   16.0150 O   0  0  0  0  0  0  0  0  0  0  0  0
  -23.5477  -19.9214   22.0389 O   0  0  0  0  0  0  0  0  0  0  0  0
  -28.1092  -23.7052   21.5546 O   0  0  0  0  0  0  0  0  0  1  0  0
  -28.8432  -20.6406   19.9300 O   0  0  0  0  0  0  0  0  0  0  0  0
  -23.9765  -16.1520   11.0329 O   0  0  0  0  0  0  0  0  0  0  0  0
  -27.6398  -18.5536   18.5039 O   0  0  0  0  0  0  0  0  0  0  0  0
  -24.7910  -17.7502   13.1581 O   0  0  0  0  0  0  0  0  0  0  0  0
  -23.8624  -23.6179   17.9596 F   0  0  0  0  0  0  0  0  0  0  0  0
  -21.2770  -21.1755   21.0830 F   0  0  0  0  0  0  0  0  0  0  0  0
  1  2  1  0  0  0  0
  1  7  2  0  0  0  0
  2  8  2  0  0  0  0
  3 10  2  0  0  0  0
  3 21  1  0  0  0  0
  4 11  2  0  0  0  0
  4 21  1  0  0  0  0
  5 12  2  0  0  0  0
  5 23  1  0  0  0  0
  6 13  1  0  0  0  0
  6 23  2  0  0  0  0
  7 25  1  0  0  0  0
  8 27  1  0  0  0  0
  9 14  2  0  0  0  0
  9 26  1  0  0  0  0
 10 29  1  0  0  0  0
 11 30  1  0  0  0  0
 12 31  1  0  0  0  0
 13 31  2  0  0  0  0
 14 32  1  0  0  0  0
 15 16  2  0  0  0  0
 15 33  1  0  0  0  0
 16 34  1  0  0  0  0
 17 22  1  0  0  0  0
 17 29  2  0  0  0  0
 18 22  1  0  0  0  0
 18 30  2  0  0  0  0
 19 28  1  0  0  0  0
 19 32  2  0  0  0  0
 20 34  2  0  0  0  0
 20 35  1  0  0  0  0
 21 22  2  0  0  0  0
 23 36  1  0  0  0  0
 24 36  1  0  0  0  0
 24 37  2  0  0  0  0
 24 38  1  0  0  0  0
 25 27  2  0  0  0  0
 25 44  1  0  0  0  0
 26 28  2  0  0  0  0
 26 45  1  0  0  0  0
 27 53  1  0  0  0  0
 28 46  1  0  0  0  0
 29 61  1  0  0  0  0
 30 81  1  0  0  0  0
 31 91  1  0  0  0  0
 32 92  1  0  0  0  0
 33 35  2  0  0  0  0
 33 91  1  0  0  0  0
 34 97  1  0  0  0  0
 35 98  1  0  0  0  0
 36 75  2  0  0  0  0
 37 76  1  0  0  0  0
 37 79  1  0  0  0  0
 38 80  1  0  0  0  0
 38 85  2  0  0  0  0
 39 54  1  0  0  0  0
 39 82  1  0  0  0  0
 39 86  2  0  0  0  0
 40 72  1  0  0  0  0
 40 77  1  0  0  0  0
 40 87  2  0  0  0  0
 41 73  1  0  0  0  0
 41 83  1  0  0  0  0
 41 88  2  0  0  0  0
 42 62  1  0  0  0  0
 42 89  2  0  0  0  0
 42 92  1  0  0  0  0
 43 78  1  0  0  0  0
 43 81  1  0  0  0  0
 43 90  2  0  0  0  0
 44 47  1  0  0  0  0
 45 54  1  0  0  0  0
 46 77  1  0  0  0  0
 47 49  1  0  0  0  0
 48 50  1  0  0  0  0
 48 51  1  0  0  0  0
 49 53  1  0  0  0  0
 50 55  1  0  0  0  0
 51 78  1  0  0  0  0
 52 55  1  0  0  0  0
 52 78  1  0  0  0  0
 53 82  1  0  0  0  0
 54 77  1  0  0  0  0
 55 76  1  0  0  0  0
 56 73  1  0  0  0  0
 57 74  1  0  0  0  0
 58 74  1  0  0  0  0
 59 74  1  0  0  0  0
 60 84  1  0  0  0  0
 61 65  1  0  0  0  0
 62 93  1  0  0  0  0
 63 64  1  0  0  0  0
 63 66  1  0  0  0  0
 64 67  1  0  0  0  0
 65 94  1  0  0  0  0
 66 95  1  0  0  0  0
 67 96  1  0  0  0  0
 68 69  1  0  0  0  0
 68 93  1  0  0  0  0
 69 95  1  0  0  0  0
 70 71  1  0  0  0  0
 70 94  1  0  0  0  0
 71 96  1  0  0  0  0
 72 74  1  0  0  0  0
 72 83  1  0  0  0  0
 73 84  1  0  0  0  0
 75 76  1  0  0  0  0
M  CHG  1  84   1
M  ISO  4  42 101  43 100  81 100  92 101
M  END
> <Batch ID>
0000

> <Smiles>
CNC(C)C(=O)NC(C(=O)N1Cc2cc([101O:1][101C:1](=O)COCCOCCCCOCCOCCc3ccc4ccc([100NH:0][100C:0](=O)N5CCCC(n6nc(-c7ccc(Oc8ccc(F)cc8F)cc7)c(C(N)=O)c6N)C5)cc4c3)ccc2CC1C(=O)NC1CCCc2ccccc21)C(C)(C)C

> <Shape>
0.249

> <Color>
0.077

> <Negative vol penalty>
0.000

$$$$

  -OEChem-04052315133D

105113  0     1  0  0  0  0  0999 V2000
  -28.9618  -26.2667   16.1925 C   0  0  0  0  0  0  0  0  0  0  0  0
  -27.5958  -26.4777   16.3512 C   0  0  0  0  0  0  0  0  0  0  0  0
  -27.0423  -13.9870   23.0927 C   0  0  0  0  0  0  0  0  0  0  0  0
  -26.5241  -12.7496   21.0834 C   0  0  0  0  0  0  0  0  0  0  0  0
  -29.8215  -26.4272   17.2783 C   0  0  0  0  0  0  0  0  0  0  0  0
  -27.0888  -26.8482   17.5962 C   0  0  0  0  0  0  0  0  0  0  0  0
  -22.3611  -30.5869   18.6812 C   0  0  0  0  0  0  0  0  0  0  0  0
  -20.9090  -25.4127   21.7342 C   0  0  0  0  0  0  0  0  0  0  0  0
  -19.8213  -25.0802   19.6027 C   0  0  0  0  0  0  0  0  0  0  0  0
  -19.9651  -26.3851   22.0642 C   0  0  0  0  0  0  0  0  0  0  0  0
  -18.8773  -26.0526   19.9327 C   0  0  0  0  0  0  0  0  0  0  0  0
  -25.9076  -13.4604   23.7097 C   0  0  0  0  0  0  0  0  0  0  0  0
  -25.3894  -12.2229   21.7005 C   0  0  0  0  0  0  0  0  0  0  0  0
  -21.0208  -30.3425   18.9776 C   0  0  0  0  0  0  0  0  0  0  0  0
  -22.1604  -10.8325   22.6228 C   0  0  0  0  0  0  0  0  0  0  0  0
  -20.9741  -10.8123   21.8895 C   0  0  0  0  0  0  0  0  0  0  0  0
  -21.5057  -30.5697   21.3297 C   0  0  0  0  0  0  0  0  0  0  0  0
  -21.0585  -13.2183   21.6865 C   0  0  0  0  0  0  0  0  0  0  0  0
  -27.3505  -13.6317   21.7795 C   0  0  0  0  0  0  0  0  0  0  0  0
  -29.8205  -13.6315   21.1415 C   0  0  0  0  0  0  0  0  0  0  0  0
  -29.3259  -26.8093   18.5349 C   0  0  0  0  0  0  0  0  0  0  0  0
  -23.2874  -30.8140   19.7093 C   0  0  0  0  0  0  0  0  0  0  0  0
  -27.9426  -27.0127   18.7001 C   0  0  0  0  0  0  0  0  0  0  0  0
  -22.8566  -30.8192   21.0436 C   0  0  0  0  0  0  0  0  0  0  0  0
  -20.8372  -24.7603   20.5033 C   0  0  0  0  0  0  0  0  0  0  0  0
  -18.9492  -26.7051   21.1636 C   0  0  0  0  0  0  0  0  0  0  0  0
  -25.0812  -12.5783   23.0136 C   0  0  0  0  0  0  0  0  0  0  0  0
  -20.5935  -30.3311   20.3021 C   0  0  0  0  0  0  0  0  0  0  0  0
  -22.7958  -12.0457   22.8880 C   0  0  0  0  0  0  0  0  0  0  0  0
  -20.4231  -12.0052   21.4214 C   0  0  0  0  0  0  0  0  0  0  0  0
  -22.2449  -13.2385   22.4199 C   0  0  0  0  0  0  0  0  0  0  0  0
  -28.5222  -14.1758   21.1414 C   0  0  0  0  0  0  0  0  0  0  0  0
  -30.5646  -14.5183   20.4024 C   0  0  0  0  0  0  0  0  0  0  0  0
  -30.3100  -12.4315   21.7549 C   0  0  0  0  0  0  0  0  0  0  0  0
  -25.9136  -29.3414   20.7282 C   0  0  0  0  0  0  0  0  0  0  0  0
  -26.1320  -31.9212   22.6824 C   0  0  0  0  0  0  0  0  0  0  0  0
  -17.6105  -27.9198   22.8793 C   0  0  0  0  0  0  0  0  0  0  0  0
  -24.0943  -23.2666   19.0492 C   0  0  0  0  0  0  0  0  0  0  0  0
  -24.5490  -34.4882   24.2797 C   0  0  0  0  0  0  0  0  0  0  0  0
  -28.3650  -18.7267   16.3559 C   0  0  0  0  0  0  0  0  0  0  0  0
  -30.2883  -26.9244   19.6904 C   0  0  0  0  0  0  0  0  0  0  0  0
  -24.7244  -31.1025   19.3716 C   0  0  0  0  0  0  0  0  0  0  0  0
  -23.8074  -31.0776   22.1828 C   0  0  0  0  0  0  0  0  0  0  0  0
  -29.7173  -27.6835   20.8854 C   0  0  0  0  0  0  0  0  0  0  0  0
  -30.4636  -19.2441   19.3337 C   0  0  0  0  0  0  0  0  0  0  0  0
  -28.3090  -27.1929   21.2059 C   0  0  0  0  0  0  0  0  0  0  0  0
  -30.5224  -17.8932   20.0490 C   0  0  0  0  0  0  0  0  0  0  0  0
  -30.3237  -19.1105   17.8234 C   0  0  0  0  0  0  0  0  0  0  0  0
  -28.8366  -17.1515   18.2947 C   0  0  0  0  0  0  0  0  0  0  0  0
  -27.3575  -27.4396   20.0289 C   0  0  1  0  0  0  0  0  0  0  0  0
  -25.6793  -30.8116   20.5253 C   0  0  1  0  0  0  0  0  0  0  0  0
  -30.0172  -16.7277   19.1821 C   0  0  2  0  0  0  0  0  0  0  0  0
  -17.3435  -29.3527   23.2799 C   0  0  0  0  0  0  0  0  0  0  0  0
  -24.9853  -36.4078   25.8361 C   0  0  0  0  0  0  0  0  0  0  0  0
  -26.3345  -29.9743   25.0231 C   0  0  0  0  0  0  0  0  0  0  0  0
  -25.8127  -31.8790   26.5620 C   0  0  0  0  0  0  0  0  0  0  0  0
  -27.8771  -31.9379   25.1629 C   0  0  0  0  0  0  0  0  0  0  0  0
  -23.6292  -36.4683   22.2817 C   0  0  0  0  0  0  0  0  0  0  0  0
  -21.8466  -23.7207   20.1505 C   0  0  0  0  0  0  0  0  0  0  0  0
  -23.0660  -24.3147   19.4356 C   0  0  0  0  0  0  0  0  0  0  0  0
  -26.3009  -23.0475   17.9345 C   0  0  0  0  0  0  0  0  0  0  0  0
  -26.3530  -18.1939   15.0024 C   0  0  0  0  0  0  0  0  0  0  0  0
  -17.4476  -28.5498   20.4468 C   0  0  0  0  0  0  0  0  0  0  0  0
  -27.3482  -22.9449   19.0283 C   0  0  0  0  0  0  0  0  0  0  0  0
  -25.2157  -19.1079   15.4223 C   0  0  0  0  0  0  0  0  0  0  0  0
  -18.5621  -29.2543   19.6940 C   0  0  0  0  0  0  0  0  0  1  0  0
  -27.7124  -22.2344   21.2386 C   0  0  0  0  0  0  0  0  0  0  0  0
  -23.3935  -19.3101   16.8924 C   0  0  0  0  0  0  0  0  0  0  0  0
  -27.0309  -21.6200   22.4461 C   0  0  0  0  0  0  0  0  0  0  0  0
  -22.6271  -18.5891   17.9845 C   0  0  0  0  0  0  0  0  0  0  0  0
  -25.8652  -19.7184   23.1863 C   0  0  0  0  0  0  0  0  0  0  0  0
  -22.8397  -17.6380   20.1230 C   0  0  0  0  0  0  0  0  0  0  0  0
  -25.3196  -18.3759   22.7393 C   0  0  0  0  0  0  0  0  0  0  0  0
  -23.8326  -17.3539   21.2336 C   0  0  0  0  0  0  0  0  0  0  0  0
  -25.6243  -32.2632   24.0624 C   0  0  1  0  0  0  0  0  0  0  0  0
  -24.8798  -35.9661   24.3847 C   0  0  2  0  0  0  0  0  0  0  0  0
  -26.3944  -31.5068   25.1815 C   0  0  0  0  0  0  0  0  0  0  0  0
  -28.4428  -15.3199   20.4567 N   0  0  0  0  0  0  0  0  0  0  0  0
  -29.7006  -15.5017   20.0197 N   0  0  0  0  0  0  0  0  0  0  0  0
  -25.2035  -31.3484   21.8019 N   0  0  0  0  0  0  0  0  0  0  0  0
  -29.1388  -18.3277   17.4629 N   0  0  0  0  0  0  0  0  0  0  0  0
  -31.8673  -14.5450   20.0491 N   0  0  0  0  0  0  0  0  0  0  0  0
  -29.4107  -11.6359   22.4777 N   0  0  0  0  0  0  0  0  0  0  0  0
  -26.9595  -28.8303   19.9837 N   0  0  0  0  0  0  0  0  0  0  0  0
  -25.1845  -23.8333   18.4051 N   0  0  0  0  0  0  0  0  0  0  0  0
  -25.6866  -33.7166   24.1717 N   0  0  0  0  0  0  0  0  0  0  0  0
  -27.2573  -17.9242   16.0967 N   0  0  0  0  0  0  0  0  0  0  0  0
  -17.9582  -27.7253   21.5098 N   0  0  0  0  0  0  0  0  0  0  0  0
  -23.8238  -36.7816   23.7208 N   0  3  0  0  0  0  0  0  0  0  0  0
  -31.5128  -12.0840   21.6783 O   0  0  0  0  0  0  0  0  0  0  0  0
  -25.1992  -28.7172   21.5040 O   0  0  0  0  0  0  0  0  0  0  0  0
  -27.3073  -32.1604   22.3940 O   0  0  0  0  0  0  0  0  0  0  0  0
  -17.5441  -27.0543   23.7557 O   0  0  0  0  0  0  0  0  0  0  0  0
  -23.9582  -22.0692   19.2856 O   0  0  0  0  0  0  0  0  0  0  0  0
  -23.3968  -34.0607   24.2960 O   0  0  0  0  0  0  0  0  0  0  0  0
  -28.6363  -19.7136   15.6652 O   0  0  0  0  0  0  0  0  0  0  0  0
  -23.9740  -12.0640   23.6155 O   0  0  0  0  0  0  0  0  0  0  0  0
  -19.2860  -30.0922   20.5941 O   0  0  0  0  0  0  0  0  0  1  0  0
  -26.7681  -22.3524   20.1834 O   0  0  0  0  0  0  0  0  0  0  0  0
  -24.4734  -18.4894   16.4639 O   0  0  0  0  0  0  0  0  0  0  0  0
  -26.5168  -20.3427   22.0889 O   0  0  0  0  0  0  0  0  0  0  0  0
  -23.5074  -18.3160   19.0657 O   0  0  0  0  0  0  0  0  0  0  0  0
  -24.3782  -18.5826   21.6931 O   0  0  0  0  0  0  0  0  0  0  0  0
  -19.2847  -11.9854   20.7159 F   0  0  0  0  0  0  0  0  0  0  0  0
  -22.8514  -14.4069   22.6705 F   0  0  0  0  0  0  0  0  0  0  0  0
  1  2  1  0  0  0  0
  1  5  2  0  0  0  0
  2  6  2  0  0  0  0
  3 12  2  0  0  0  0
  3 19  1  0  0  0  0
  4 13  1  0  0  0  0
  4 19  2  0  0  0  0
  5 21  1  0  0  0  0
  6 23  1  0  0  0  0
  7 14  2  0  0  0  0
  7 22  1  0  0  0  0
  8 10  2  0  0  0  0
  8 25  1  0  0  0  0
  9 11  1  0  0  0  0
  9 25  2  0  0  0  0
 10 26  1  0  0  0  0
 11 26  2  0  0  0  0
 12 27  1  0  0  0  0
 13 27  2  0  0  0  0
 14 28  1  0  0  0  0
 15 16  2  0  0  0  0
 15 29  1  0  0  0  0
 16 30  1  0  0  0  0
 17 24  1  0  0  0  0
 17 28  2  0  0  0  0
 18 30  2  0  0  0  0
 18 31  1  0  0  0  0
 19 32  1  0  0  0  0
 20 32  1  0  0  0  0
 20 33  2  0  0  0  0
 20 34  1  0  0  0  0
 21 23  2  0  0  0  0
 21 41  1  0  0  0  0
 22 24  2  0  0  0  0
 22 42  1  0  0  0  0
 23 50  1  0  0  0  0
 24 43  1  0  0  0  0
 25 59  1  0  0  0  0
 26 88  1  0  0  0  0
 27 97  1  0  0  0  0
 28 98  1  0  0  0  0
 29 31  2  0  0  0  0
 29 97  1  0  0  0  0
 30104  1  0  0  0  0
 31105  1  0  0  0  0
 32 78  2  0  0  0  0
 33 79  1  0  0  0  0
 33 82  1  0  0  0  0
 34 83  1  0  0  0  0
 34 90  2  0  0  0  0
 35 51  1  0  0  0  0
 35 84  1  0  0  0  0
 35 91  2  0  0  0  0
 36 75  1  0  0  0  0
 36 80  1  0  0  0  0
 36 92  2  0  0  0  0
 37 53  1  0  0  0  0
 37 88  1  0  0  0  0
 37 93  2  0  0  0  0
 38 60  1  0  0  0  0
 38 85  1  0  0  0  0
 38 94  2  0  0  0  0
 39 76  1  0  0  0  0
 39 86  1  0  0  0  0
 39 95  2  0  0  0  0
 40 81  1  0  0  0  0
 40 87  1  0  0  0  0
 40 96  2  0  0  0  0
 41 44  1  0  0  0  0
 42 51  1  0  0  0  0
 43 80  1  0  0  0  0
 44 46  1  0  0  0  0
 45 47  1  0  0  0  0
 45 48  1  0  0  0  0
 46 50  1  0  0  0  0
 47 52  1  0  0  0  0
 48 81  1  0  0  0  0
 49 52  1  0  0  0  0
 49 81  1  0  0  0  0
 50 84  1  0  0  0  0
 51 80  1  0  0  0  0
 52 79  1  0  0  0  0
 54 76  1  0  0  0  0
 55 77  1  0  0  0  0
 56 77  1  0  0  0  0
 57 77  1  0  0  0  0
 58 89  1  0  0  0  0
 59 60  1  0  0  0  0
 61 64  1  0  0  0  0
 61 85  1  0  0  0  0
 62 65  1  0  0  0  0
 62 87  1  0  0  0  0
 63 66  1  0  0  0  0
 63 88  1  0  0  0  0
 64 99  1  0  0  0  0
 65100  1  0  0  0  0
 66 98  1  0  0  0  0
 67 69  1  0  0  0  0
 67 99  1  0  0  0  0
 68 70  1  0  0  0  0
 68100  1  0  0  0  0
 69101  1  0  0  0  0
 70102  1  0  0  0  0
 71 73  1  0  0  0  0
 71101  1  0  0  0  0
 72 74  1  0  0  0  0
 72102  1  0  0  0  0
 73103  1  0  0  0  0
 74103  1  0  0  0  0
 75 77  1  0  0  0  0
 75 86  1  0  0  0  0
 76 89  1  0  0  0  0
 78 79  1  0  0  0  0
M  CHG  1  89   1
M  ISO  4  40 100  66 101  87 100  98 101
M  END
> <Batch ID>
0000

> <Smiles>
CNC(C)C(=O)NC(C(=O)N1Cc2cc([101O:1][101CH2:1]CN(C(C)=O)c3ccc(CCC(=O)NCCOCCOCCOCCOCCOCC[100NH:0][100C:0](=O)N4CCCC(n5nc(-c6ccc(Oc7ccc(F)cc7F)cc6)c(C(N)=O)c5N)C4)cc3)ccc2CC1C(=O)NC1CCCc2ccccc21)C(C)(C)C

> <Shape>
0.300

> <Color>
0.056

> <Negative vol penalty>
0.000

$$$$

  -OEChem-04052315133D

 87 94  0     1  0  0  0  0  0999 V2000
  -30.3387  -21.2134   21.9273 C   0  0  0  0  0  0  0  0  0  0  0  0
  -29.1537  -21.1873   21.1988 C   0  0  0  0  0  0  0  0  0  0  0  0
  -22.7241  -29.3666   20.2293 C   0  0  0  0  0  0  0  0  0  0  0  0
  -23.1497  -27.8014   22.0199 C   0  0  0  0  0  0  0  0  0  0  0  0
  -30.9436  -20.0185   22.3151 C   0  0  0  0  0  0  0  0  0  0  0  0
  -28.5736  -19.9663   20.8567 C   0  0  0  0  0  0  0  0  0  0  0  0
  -23.5714  -19.9038   21.6437 C   0  0  0  0  0  0  0  0  0  0  0  0
  -21.3955  -29.4752   20.6399 C   0  0  0  0  0  0  0  0  0  0  0  0
  -21.8211  -27.9100   22.4306 C   0  0  0  0  0  0  0  0  0  0  0  0
  -22.7700  -20.5414   20.6977 C   0  0  0  0  0  0  0  0  0  0  0  0
  -18.8125  -26.6950   21.4802 C   0  0  0  0  0  0  0  0  0  0  0  0
  -18.1316  -25.5177   21.7897 C   0  0  0  0  0  0  0  0  0  0  0  0
  -22.2659  -18.4063   19.6946 C   0  0  0  0  0  0  0  0  0  0  0  0
  -17.7696  -26.3186   24.0402 C   0  0  0  0  0  0  0  0  0  0  0  0
  -23.6012  -28.5297   20.9192 C   0  0  0  0  0  0  0  0  0  0  0  0
  -26.0624  -29.2004   20.9217 C   0  0  0  0  0  0  0  0  0  0  0  0
  -30.3655  -18.7824   21.9859 C   0  0  0  0  0  0  0  0  0  0  0  0
  -23.7351  -18.5114   21.6156 C   0  0  0  0  0  0  0  0  0  0  0  0
  -29.1721  -18.7538   21.2393 C   0  0  0  0  0  0  0  0  0  0  0  0
  -23.0679  -17.7532   20.6430 C   0  0  0  0  0  0  0  0  0  0  0  0
  -20.9440  -28.7469   21.7406 C   0  0  0  0  0  0  0  0  0  0  0  0
  -22.1194  -19.7930   19.7212 C   0  0  0  0  0  0  0  0  0  0  0  0
  -18.9721  -27.6841   22.4508 C   0  0  0  0  0  0  0  0  0  0  0  0
  -17.6101  -25.3294   23.0697 C   0  0  0  0  0  0  0  0  0  0  0  0
  -18.4506  -27.4959   23.7307 C   0  0  0  0  0  0  0  0  0  0  0  0
  -24.9736  -28.4167   20.4952 C   0  0  0  0  0  0  0  0  0  0  0  0
  -27.1379  -28.6997   20.2296 C   0  0  0  0  0  0  0  0  0  0  0  0
  -26.0985  -30.2841   21.8598 C   0  0  0  0  0  0  0  0  0  0  0  0
  -26.2058  -16.5507   21.2222 C   0  0  0  0  0  0  0  0  0  0  0  0
  -24.0056  -14.2692   21.9120 C   0  0  0  0  0  0  0  0  0  0  0  0
  -20.7234  -13.3370   21.9841 C   0  0  0  0  0  0  0  0  0  0  0  0
  -30.1064  -24.4492   18.4779 C   0  0  0  0  0  0  0  0  0  0  0  0
  -31.0812  -17.5167   22.3863 C   0  0  0  0  0  0  0  0  0  0  0  0
  -24.5816  -17.8361   22.6595 C   0  0  0  0  0  0  0  0  0  0  0  0
  -23.1945  -16.2536   20.5819 C   0  0  0  0  0  0  0  0  0  0  0  0
  -30.2042  -16.2697   22.3065 C   0  0  0  0  0  0  0  0  0  0  0  0
  -27.3414  -25.4422   16.3646 C   0  0  0  0  0  0  0  0  0  0  0  0
  -29.4357  -16.2411   20.9891 C   0  0  0  0  0  0  0  0  0  0  0  0
  -26.5663  -26.3756   17.2963 C   0  0  0  0  0  0  0  0  0  0  0  0
  -27.9292  -24.2603   17.1299 C   0  0  0  0  0  0  0  0  0  0  0  0
  -28.0239  -25.5741   19.2129 C   0  0  0  0  0  0  0  0  0  0  0  0
  -28.4991  -17.4495   20.8705 C   0  0  1  0  0  0  0  0  0  0  0  0
  -25.0880  -16.4649   22.2227 C   0  0  1  0  0  0  0  0  0  0  0  0
  -27.4236  -26.8012   18.5030 C   0  0  2  0  0  0  0  0  0  0  0  0
  -19.2384  -11.3983   22.5619 C   0  0  0  0  0  0  0  0  0  0  0  0
  -24.8267  -12.8727   19.3263 C   0  0  0  0  0  0  0  0  0  0  0  0
  -22.7229  -11.5229   19.4692 C   0  0  0  0  0  0  0  0  0  0  0  0
  -24.4451  -11.3390   21.2645 C   0  0  0  0  0  0  0  0  0  0  0  0
  -19.3074  -14.8924   24.0660 C   0  0  0  0  0  0  0  0  0  0  0  0
  -20.9872  -20.8574   16.4506 C   0  0  0  0  0  0  0  0  0  0  0  0
  -25.6917  -21.4678   15.7413 C   0  0  0  0  0  0  0  0  0  0  0  0
  -32.1113  -23.2666   17.6182 C   0  0  0  0  0  0  0  0  0  0  0  0
  -21.2382  -19.7980   17.5122 C   0  0  0  0  0  0  0  0  0  1  0  0
  -22.0978  -21.8953   16.4088 C   0  0  0  0  0  0  0  0  0  0  0  0
  -24.4016  -22.2041   16.0628 C   0  0  0  0  0  0  0  0  0  0  0  0
  -26.0148  -20.4046   16.7793 C   0  0  0  0  0  0  0  0  0  0  0  0
  -32.2989  -21.9766   18.3965 C   0  0  0  0  0  0  0  0  0  0  0  0
  -27.3208  -18.4728   17.0718 C   0  0  0  0  0  0  0  0  0  0  0  0
  -31.7347  -19.6958   18.4456 C   0  0  0  0  0  0  0  0  0  0  0  0
  -28.7691  -18.0236   17.0499 C   0  0  0  0  0  0  0  0  0  0  0  0
  -30.9382  -18.6250   17.7253 C   0  0  0  0  0  0  0  0  0  0  0  0
  -23.0408  -13.4353   21.1041 C   0  0  1  0  0  0  0  0  0  0  0  0
  -19.8869  -12.6782   23.0661 C   0  0  2  0  0  0  0  0  0  0  0  0
  -23.7578  -12.3209   20.2907 C   0  0  0  0  0  0  0  0  0  0  0  0
  -25.3251  -27.4887   19.6011 N   0  0  0  0  0  0  0  0  0  0  0  0
  -26.6470  -27.6862   19.4602 N   0  0  0  0  0  0  0  0  0  0  0  0
  -24.0385  -15.6402   21.6206 N   0  0  0  0  0  0  0  0  0  0  0  0
  -28.7492  -24.7341   18.2539 N   0  0  0  0  0  0  0  0  0  0  0  0
  -28.4462  -29.0320   20.2100 N   0  0  0  0  0  0  0  0  0  0  0  0
  -24.9028  -30.6704   22.4807 N   0  0  0  0  0  0  0  0  0  0  0  0
  -27.3107  -17.2485   21.6715 N   0  0  0  0  0  0  0  0  0  0  0  0
  -22.0423  -12.9396   22.0452 N   0  0  0  0  0  0  0  0  0  0  0  0
  -30.7176  -23.6414   17.5269 N   0  0  0  0  0  0  0  0  0  0  0  0
  -18.8105  -13.6020   23.5231 N   0  3  0  0  0  0  0  0  0  0  0  0
  -27.1566  -30.9026   22.1269 O   0  0  0  0  0  0  0  0  0  0  0  0
  -26.0761  -16.0217   20.1245 O   0  0  0  0  0  0  0  0  0  0  0  0
  -24.6992  -13.7253   22.7751 O   0  0  0  0  0  0  0  0  0  0  0  0
  -20.2531  -14.1225   21.1642 O   0  0  0  0  0  0  0  0  0  0  0  0
  -30.7295  -24.8871   19.4511 O   0  0  0  0  0  0  0  0  0  0  0  0
  -19.6477  -28.8528   22.1417 O   0  0  0  0  0  0  0  0  0  0  0  0
  -21.3371  -20.4129   18.7962 O   0  0  0  0  0  0  0  0  0  1  0  0
  -23.3362  -21.2648   16.1109 O   0  0  0  0  0  0  0  0  0  0  0  0
  -27.2166  -19.7339   16.4247 O   0  0  0  0  0  0  0  0  0  0  0  0
  -31.5888  -20.9287   17.7514 O   0  0  0  0  0  0  0  0  0  0  0  0
  -29.5666  -18.9954   17.7154 O   0  0  0  0  0  0  0  0  0  0  0  0
  -16.9549  -24.1994   23.3663 F   0  0  0  0  0  0  0  0  0  0  0  0
  -18.5997  -28.4431   24.6669 F   0  0  0  0  0  0  0  0  0  0  0  0
  1  2  1  0  0  0  0
  1  5  2  0  0  0  0
  2  6  2  0  0  0  0
  3  8  2  0  0  0  0
  3 15  1  0  0  0  0
  4  9  1  0  0  0  0
  4 15  2  0  0  0  0
  5 17  1  0  0  0  0
  6 19  1  0  0  0  0
  7 10  2  0  0  0  0
  7 18  1  0  0  0  0
  8 21  1  0  0  0  0
  9 21  2  0  0  0  0
 10 22  1  0  0  0  0
 11 12  2  0  0  0  0
 11 23  1  0  0  0  0
 12 24  1  0  0  0  0
 13 20  1  0  0  0  0
 13 22  2  0  0  0  0
 14 24  2  0  0  0  0
 14 25  1  0  0  0  0
 15 26  1  0  0  0  0
 16 26  1  0  0  0  0
 16 27  2  0  0  0  0
 16 28  1  0  0  0  0
 17 19  2  0  0  0  0
 17 33  1  0  0  0  0
 18 20  2  0  0  0  0
 18 34  1  0  0  0  0
 19 42  1  0  0  0  0
 20 35  1  0  0  0  0
 21 80  1  0  0  0  0
 22 81  1  0  0  0  0
 23 25  2  0  0  0  0
 23 80  1  0  0  0  0
 24 86  1  0  0  0  0
 25 87  1  0  0  0  0
 26 65  2  0  0  0  0
 27 66  1  0  0  0  0
 27 69  1  0  0  0  0
 28 70  1  0  0  0  0
 28 75  2  0  0  0  0
 29 43  1  0  0  0  0
 29 71  1  0  0  0  0
 29 76  2  0  0  0  0
 30 62  1  0  0  0  0
 30 67  1  0  0  0  0
 30 77  2  0  0  0  0
 31 63  1  0  0  0  0
 31 72  1  0  0  0  0
 31 78  2  0  0  0  0
 32 68  1  0  0  0  0
 32 73  1  0  0  0  0
 32 79  2  0  0  0  0
 33 36  1  0  0  0  0
 34 43  1  0  0  0  0
 35 67  1  0  0  0  0
 36 38  1  0  0  0  0
 37 39  1  0  0  0  0
 37 40  1  0  0  0  0
 38 42  1  0  0  0  0
 39 44  1  0  0  0  0
 40 68  1  0  0  0  0
 41 44  1  0  0  0  0
 41 68  1  0  0  0  0
 42 71  1  0  0  0  0
 43 67  1  0  0  0  0
 44 66  1  0  0  0  0
 45 63  1  0  0  0  0
 46 64  1  0  0  0  0
 47 64  1  0  0  0  0
 48 64  1  0  0  0  0
 49 74  1  0  0  0  0
 50 53  1  0  0  0  0
 50 54  1  0  0  0  0
 51 55  1  0  0  0  0
 51 56  1  0  0  0  0
 52 57  1  0  0  0  0
 52 73  1  0  0  0  0
 53 81  1  0  0  0  0
 54 82  1  0  0  0  0
 55 82  1  0  0  0  0
 56 83  1  0  0  0  0
 57 84  1  0  0  0  0
 58 60  1  0  0  0  0
 58 83  1  0  0  0  0
 59 61  1  0  0  0  0
 59 84  1  0  0  0  0
 60 85  1  0  0  0  0
 61 85  1  0  0  0  0
 62 64  1  0  0  0  0
 62 72  1  0  0  0  0
 63 74  1  0  0  0  0
 65 66  1  0  0  0  0
M  CHG  1  74   1
M  ISO  4  32 100  53 101  73 100  81 101
M  END
> <Batch ID>
0000

> <Smiles>
CNC(C)C(=O)NC(C(=O)N1Cc2cc([101O:1][101CH2:1]CCOCCCOCCOCCOCC[100NH:0][100C:0](=O)N3CCCC(n4nc(-c5ccc(Oc6ccc(F)cc6F)cc5)c(C(N)=O)c4N)C3)ccc2CC1C(=O)NC1CCCc2ccccc21)C(C)(C)C

> <Shape>
0.240

> <Color>
0.059

> <Negative vol penalty>
0.000

$$$$

  -OEChem-04052315133D

 88 96  0     1  0  0  0  0  0999 V2000
  -18.9733  -19.0455   35.9376 C   0  0  0  0  0  0  0  0  0  0  0  0
  -19.2025  -19.7858   34.7822 C   0  0  0  0  0  0  0  0  0  0  0  0
  -23.0005   -9.8941   19.9821 C   0  0  0  0  0  0  0  0  0  0  0  0
  -23.7304   -9.9448   22.2846 C   0  0  0  0  0  0  0  0  0  0  0  0
  -19.9950  -18.2668   36.4793 C   0  0  0  0  0  0  0  0  0  0  0  0
  -20.4541  -19.7486   34.1686 C   0  0  0  0  0  0  0  0  0  0  0  0
  -20.1379  -19.2341   29.1406 C   0  0  0  0  0  0  0  0  0  0  0  0
  -29.8183  -18.6120   23.3393 C   0  0  0  0  0  0  0  0  0  0  0  0
  -29.0387  -18.3981   21.0626 C   0  0  0  0  0  0  0  0  0  0  0  0
  -22.2356   -8.7588   20.2495 C   0  0  0  0  0  0  0  0  0  0  0  0
  -22.9655   -8.8095   22.5521 C   0  0  0  0  0  0  0  0  0  0  0  0
  -19.8181  -20.3730   28.4029 C   0  0  0  0  0  0  0  0  0  0  0  0
  -28.9323  -19.6698   23.5434 C   0  0  0  0  0  0  0  0  0  0  0  0
  -28.1526  -19.4559   21.2667 C   0  0  0  0  0  0  0  0  0  0  0  0
  -23.2118   -5.4709   22.0783 C   0  0  0  0  0  0  0  0  0  0  0  0
  -23.8019   -4.4540   22.8287 C   0  0  0  0  0  0  0  0  0  0  0  0
  -22.1491  -20.6656   27.8553 C   0  0  0  0  0  0  0  0  0  0  0  0
  -22.0813   -4.6946   24.5076 C   0  0  0  0  0  0  0  0  0  0  0  0
  -23.7480  -10.4871   20.9996 C   0  0  0  0  0  0  0  0  0  0  0  0
  -24.1307  -13.0031   20.8238 C   0  0  0  0  0  0  0  0  0  0  0  0
  -21.2568  -18.2124   35.8666 C   0  0  0  0  0  0  0  0  0  0  0  0
  -21.4694  -18.8078   29.2504 C   0  0  0  0  0  0  0  0  0  0  0  0
  -21.4941  -18.9695   34.7034 C   0  0  0  0  0  0  0  0  0  0  0  0
  -22.4829  -19.5195   28.5929 C   0  0  0  0  0  0  0  0  0  0  0  0
  -29.8715  -17.9761   22.0989 C   0  0  0  0  0  0  0  0  0  0  0  0
  -22.2180   -8.2165   21.5345 C   0  0  0  0  0  0  0  0  0  0  0  0
  -28.0995  -20.0917   22.5071 C   0  0  0  0  0  0  0  0  0  0  0  0
  -20.8240  -21.0906   27.7624 C   0  0  0  0  0  0  0  0  0  0  0  0
  -22.0565   -6.0999   22.5425 C   0  0  0  0  0  0  0  0  0  0  0  0
  -23.2366   -4.0658   24.0434 C   0  0  0  0  0  0  0  0  0  0  0  0
  -21.4912   -5.7117   23.7572 C   0  0  0  0  0  0  0  0  0  0  0  0
  -24.5388  -11.6595   20.7238 C   0  0  0  0  0  0  0  0  0  0  0  0
  -25.2390  -13.7268   20.4574 C   0  0  0  0  0  0  0  0  0  0  0  0
  -22.8630  -13.5482   21.2132 C   0  0  0  0  0  0  0  0  0  0  0  0
  -23.5127  -18.4304   31.6558 C   0  0  0  0  0  0  0  0  0  0  0  0
  -25.3975  -17.1590   29.3421 C   0  0  0  0  0  0  0  0  0  0  0  0
  -26.1764  -16.9572   26.0256 C   0  0  0  0  0  0  0  0  0  0  0  0
  -30.7350  -14.6663   20.6949 C   0  0  0  0  0  0  0  0  0  0  0  0
  -22.3444  -17.3934   36.5156 C   0  0  0  0  0  0  0  0  0  0  0  0
  -21.7947  -17.5620   30.0279 C   0  0  0  0  0  0  0  0  0  0  0  0
  -23.9255  -19.0921   28.6628 C   0  0  0  0  0  0  0  0  0  0  0  0
  -23.5290  -17.1147   35.5941 C   0  0  0  0  0  0  0  0  0  0  0  0
  -29.5916  -12.2426   18.3507 C   0  0  0  0  0  0  0  0  0  0  0  0
  -23.9599  -18.3906   34.8777 C   0  0  0  0  0  0  0  0  0  0  0  0
  -28.1443  -11.9813   18.7713 C   0  0  0  0  0  0  0  0  0  0  0  0
  -30.4964  -12.4783   19.5582 C   0  0  0  0  0  0  0  0  0  0  0  0
  -28.5883  -13.2715   20.9013 C   0  0  0  0  0  0  0  0  0  0  0  0
  -22.8308  -18.9356   33.9948 C   0  0  1  0  0  0  0  0  0  0  0  0
  -23.2455  -17.5121   30.4969 C   0  0  1  0  0  0  0  0  0  0  0  0
  -27.6270  -13.0835   19.7152 C   0  0  2  0  0  0  0  0  0  0  0  0
  -27.7901  -15.8656   24.4439 C   0  0  0  0  0  0  0  0  0  0  0  0
  -27.5694  -19.1189   30.2092 C   0  0  0  0  0  0  0  0  0  0  0  0
  -28.7500  -18.6578   28.0501 C   0  0  0  0  0  0  0  0  0  0  0  0
  -28.3904  -16.8140   29.6914 C   0  0  0  0  0  0  0  0  0  0  0  0
  -24.0010  -15.5547   24.5906 C   0  0  0  0  0  0  0  0  0  0  0  0
  -30.8183  -16.8448   21.8808 C   0  0  0  0  0  0  0  0  0  0  0  0
  -24.9361  -21.8166   22.7528 C   0  0  0  0  0  0  0  0  0  0  0  0
  -26.0216  -21.1098   21.9578 C   0  0  0  0  0  0  0  0  0  0  0  0
  -23.6044  -21.8223   22.0187 C   0  0  0  0  0  0  0  0  0  0  0  0
  -19.2277  -22.2413   26.4270 C   0  0  0  0  0  0  0  0  0  1  0  0
  -19.3100  -23.0668   25.1576 C   0  0  0  0  0  0  0  0  0  0  0  0
  -21.3587  -22.5014   22.1539 C   0  0  0  0  0  0  0  0  0  0  0  0
  -20.3486  -23.1880   23.0530 C   0  0  0  0  0  0  0  0  0  0  0  0
  -26.4226  -17.7055   28.3780 C   0  0  1  0  0  0  0  0  0  0  0  0
  -26.4325  -15.7648   25.1218 C   0  0  2  0  0  0  0  0  0  0  0  0
  -27.7563  -18.0835   29.0823 C   0  0  0  0  0  0  0  0  0  0  0  0
  -25.8074  -11.5343   20.3249 N   0  0  0  0  0  0  0  0  0  0  0  0
  -26.2059  -12.8085   20.1710 N   0  0  0  0  0  0  0  0  0  0  0  0
  -24.1937  -17.8710   29.4404 N   0  0  0  0  0  0  0  0  0  0  0  0
  -29.9504  -13.5361   20.4119 N   0  0  0  0  0  0  0  0  0  0  0  0
  -25.4711  -15.0528   20.3554 N   0  0  0  0  0  0  0  0  0  0  0  0
  -21.8328  -12.6629   21.5586 N   0  0  0  0  0  0  0  0  0  0  0  0
  -22.7350  -18.1728   32.7686 N   0  0  0  0  0  0  0  0  0  0  0  0
  -26.5655  -16.7065   27.3244 N   0  0  0  0  0  0  0  0  0  0  0  0
  -30.1395  -15.6242   21.5063 N   0  0  0  0  0  0  0  0  0  0  0  0
  -25.3848  -15.6811   24.0653 N   0  3  0  0  0  0  0  0  0  0  0  0
  -22.6452  -14.7833   21.2380 O   0  0  0  0  0  0  0  0  0  0  0  0
  -24.3626  -19.3067   31.5489 O   0  0  0  0  0  0  0  0  0  0  0  0
  -25.6526  -16.1339   29.9792 O   0  0  0  0  0  0  0  0  0  0  0  0
  -25.6842  -18.0075   25.6192 O   0  0  0  0  0  0  0  0  0  0  0  0
  -31.8794  -14.8134   20.2524 O   0  0  0  0  0  0  0  0  0  0  0  0
  -21.4715   -7.1088   21.7959 O   0  0  0  0  0  0  0  0  0  0  0  0
  -27.2279  -21.1305   22.7082 O   0  0  0  0  0  0  0  0  0  0  0  0
  -20.5147  -22.2031   27.0423 O   0  0  0  0  0  0  0  0  0  1  0  0
  -22.6211  -22.4760   22.8088 O   0  0  0  0  0  0  0  0  0  0  0  0
  -20.2314  -22.4541   24.2638 O   0  0  0  0  0  0  0  0  0  0  0  0
  -23.8024   -3.0881   24.7632 F   0  0  0  0  0  0  0  0  0  0  0  0
  -20.3808   -6.3113   24.2078 F   0  0  0  0  0  0  0  0  0  0  0  0
  1  2  1  0  0  0  0
  1  5  2  0  0  0  0
  2  6  2  0  0  0  0
  3 10  2  0  0  0  0
  3 19  1  0  0  0  0
  4 11  1  0  0  0  0
  4 19  2  0  0  0  0
  5 21  1  0  0  0  0
  6 23  1  0  0  0  0
  7 12  2  0  0  0  0
  7 22  1  0  0  0  0
  8 13  2  0  0  0  0
  8 25  1  0  0  0  0
  9 14  1  0  0  0  0
  9 25  2  0  0  0  0
 10 26  1  0  0  0  0
 11 26  2  0  0  0  0
 12 28  1  0  0  0  0
 13 27  1  0  0  0  0
 14 27  2  0  0  0  0
 15 16  2  0  0  0  0
 15 29  1  0  0  0  0
 16 30  1  0  0  0  0
 17 24  1  0  0  0  0
 17 28  2  0  0  0  0
 18 30  2  0  0  0  0
 18 31  1  0  0  0  0
 19 32  1  0  0  0  0
 20 32  1  0  0  0  0
 20 33  2  0  0  0  0
 20 34  1  0  0  0  0
 21 23  2  0  0  0  0
 21 39  1  0  0  0  0
 22 24  2  0  0  0  0
 22 40  1  0  0  0  0
 23 48  1  0  0  0  0
 24 41  1  0  0  0  0
 25 56  1  0  0  0  0
 26 82  1  0  0  0  0
 27 83  1  0  0  0  0
 28 84  1  0  0  0  0
 29 31  2  0  0  0  0
 29 82  1  0  0  0  0
 30 87  1  0  0  0  0
 31 88  1  0  0  0  0
 32 67  2  0  0  0  0
 33 68  1  0  0  0  0
 33 71  1  0  0  0  0
 34 72  1  0  0  0  0
 34 77  2  0  0  0  0
 35 49  1  0  0  0  0
 35 73  1  0  0  0  0
 35 78  2  0  0  0  0
 36 64  1  0  0  0  0
 36 69  1  0  0  0  0
 36 79  2  0  0  0  0
 37 65  1  0  0  0  0
 37 74  1  0  0  0  0
 37 80  2  0  0  0  0
 38 70  1  0  0  0  0
 38 75  1  0  0  0  0
 38 81  2  0  0  0  0
 39 42  1  0  0  0  0
 40 49  1  0  0  0  0
 41 69  1  0  0  0  0
 42 44  1  0  0  0  0
 43 45  1  0  0  0  0
 43 46  1  0  0  0  0
 44 48  1  0  0  0  0
 45 50  1  0  0  0  0
 46 70  1  0  0  0  0
 47 50  1  0  0  0  0
 47 70  1  0  0  0  0
 48 73  1  0  0  0  0
 49 69  1  0  0  0  0
 50 68  1  0  0  0  0
 51 65  1  0  0  0  0
 52 66  1  0  0  0  0
 53 66  1  0  0  0  0
 54 66  1  0  0  0  0
 55 76  1  0  0  0  0
 56 75  1  0  0  0  0
 57 58  1  0  0  0  0
 57 59  1  0  0  0  0
 58 83  1  0  0  0  0
 59 85  1  0  0  0  0
 60 61  1  0  0  0  0
 60 84  1  0  0  0  0
 61 86  1  0  0  0  0
 62 63  1  0  0  0  0
 62 85  1  0  0  0  0
 63 86  1  0  0  0  0
 64 66  1  0  0  0  0
 64 74  1  0  0  0  0
 65 76  1  0  0  0  0
 67 68  1  0  0  0  0
M  CHG  1  76   1
M  ISO  4  38 100  60 101  75 100  84 101
M  END
> <Batch ID>
0000

> <Smiles>
CNC(C)C(=O)NC(C(=O)N1Cc2cc([101O:1][101CH2:1]COCCOCCCOc3ccc(C[100NH:0][100C:0](=O)N4CCCC(n5nc(-c6ccc(Oc7ccc(F)cc7F)cc6)c(C(N)=O)c5N)C4)cc3)ccc2CC1C(=O)NC1CCCc2ccccc21)C(C)(C)C

> <Shape>
0.182

> <Color>
0.193

> <Negative vol penalty>
0.000

$$$$

  -OEChem-04052315133D

 93101  0     1  0  0  0  0  0999 V2000
  -17.5490   -9.6508   20.8491 C   0  0  0  0  0  0  0  0  0  0  0  0
  -17.7107  -10.8464   20.1564 C   0  0  0  0  0  0  0  0  0  0  0  0
  -17.5936  -27.0951   23.2356 C   0  0  0  0  0  0  0  0  0  0  0  0
  -28.9617  -25.3342   19.5715 C   0  0  0  0  0  0  0  0  0  0  0  0
  -27.2800  -25.3149   21.3061 C   0  0  0  0  0  0  0  0  0  0  0  0
  -18.4283   -9.3188   21.8789 C   0  0  0  0  0  0  0  0  0  0  0  0
  -18.7512  -11.7112   20.4937 C   0  0  0  0  0  0  0  0  0  0  0  0
  -21.9587  -15.2745   16.6832 C   0  0  0  0  0  0  0  0  0  0  0  0
  -18.3501  -28.1141   23.8144 C   0  0  0  0  0  0  0  0  0  0  0  0
  -18.0592  -26.4436   22.0934 C   0  0  0  0  0  0  0  0  0  0  0  0
  -29.4416  -24.1048   20.0232 C   0  0  0  0  0  0  0  0  0  0  0  0
  -27.7599  -24.0855   21.7577 C   0  0  0  0  0  0  0  0  0  0  0  0
  -21.8610  -16.6267   16.3579 C   0  0  0  0  0  0  0  0  0  0  0  0
  -30.8798  -20.7996   20.4947 C   0  0  0  0  0  0  0  0  0  0  0  0
  -31.1620  -19.8231   19.5396 C   0  0  0  0  0  0  0  0  0  0  0  0
  -23.5714  -17.1346   17.9814 C   0  0  0  0  0  0  0  0  0  0  0  0
  -20.0376  -27.8301   22.1089 C   0  0  0  0  0  0  0  0  0  0  0  0
  -28.8584  -19.8687   18.8125 C   0  0  0  0  0  0  0  0  0  0  0  0
  -27.8809  -25.9393   20.2130 C   0  0  0  0  0  0  0  0  0  0  0  0
  -26.3854  -27.4291   18.7808 C   0  0  0  0  0  0  0  0  0  0  0  0
  -19.4860  -10.1754   22.2226 C   0  0  0  0  0  0  0  0  0  0  0  0
  -22.8572  -14.8428   17.6694 C   0  0  0  0  0  0  0  0  0  0  0  0
  -19.6447  -11.3909   21.5300 C   0  0  0  0  0  0  0  0  0  0  0  0
  -23.6804  -15.7761   18.3155 C   0  0  0  0  0  0  0  0  0  0  0  0
  -19.5720  -28.4816   23.2511 C   0  0  0  0  0  0  0  0  0  0  0  0
  -28.8407  -23.4805   21.1162 C   0  0  0  0  0  0  0  0  0  0  0  0
  -22.6653  -17.5573   17.0091 C   0  0  0  0  0  0  0  0  0  0  0  0
  -19.2812  -26.8111   21.5301 C   0  0  0  0  0  0  0  0  0  0  0  0
  -29.5870  -21.3107   20.6088 C   0  0  0  0  0  0  0  0  0  0  0  0
  -30.1513  -19.3576   18.6985 C   0  0  0  0  0  0  0  0  0  0  0  0
  -28.5763  -20.8453   19.7677 C   0  0  0  0  0  0  0  0  0  0  0  0
  -27.3851  -27.2094   19.7473 C   0  0  0  0  0  0  0  0  0  0  0  0
  -26.2828  -28.7963   18.6976 C   0  0  0  0  0  0  0  0  0  0  0  0
  -25.6181  -26.4821   18.0257 C   0  0  0  0  0  0  0  0  0  0  0  0
  -22.5730  -13.3846   20.4795 C   0  0  0  0  0  0  0  0  0  0  0  0
  -25.8134  -13.3307   20.3401 C   0  0  0  0  0  0  0  0  0  0  0  0
  -28.6826  -14.6930   19.0918 C   0  0  0  0  0  0  0  0  0  0  0  0
  -22.2039  -19.7046   17.7723 C   0  0  0  0  0  0  0  0  0  1  0  0
  -26.5979  -33.4261   22.1983 C   0  0  0  0  0  0  0  0  0  0  0  0
  -21.5745  -30.0126   23.4155 C   0  0  0  0  0  0  0  0  0  0  0  0
  -20.3826   -9.7958   23.3744 C   0  0  0  0  0  0  0  0  0  0  0  0
  -22.9696  -13.3775   17.9898 C   0  0  0  0  0  0  0  0  0  0  0  0
  -24.6756  -15.3616   19.3673 C   0  0  0  0  0  0  0  0  0  0  0  0
  -21.6844  -10.5918   23.4210 C   0  0  0  0  0  0  0  0  0  0  0  0
  -29.2073  -32.5997   19.8515 C   0  0  0  0  0  0  0  0  0  0  0  0
  -21.4083  -12.0787   23.2218 C   0  0  0  0  0  0  0  0  0  0  0  0
  -28.9294  -31.1328   19.5254 C   0  0  0  0  0  0  0  0  0  0  0  0
  -28.8562  -32.9268   21.2994 C   0  0  0  0  0  0  0  0  0  0  0  0
  -27.1639  -31.1126   21.3439 C   0  0  0  0  0  0  0  0  0  0  0  0
  -20.7762  -12.3435   21.8501 C   0  0  1  0  0  0  0  0  0  0  0  0
  -23.5533  -13.1115   19.3740 C   0  0  1  0  0  0  0  0  0  0  0  0
  -27.4813  -30.7527   19.8823 C   0  0  2  0  0  0  0  0  0  0  0  0
  -31.1792  -14.4584   19.1887 C   0  0  0  0  0  0  0  0  0  0  0  0
  -25.8288  -14.6568   23.0881 C   0  0  0  0  0  0  0  0  0  0  0  0
  -28.2318  -15.2501   22.7112 C   0  0  0  0  0  0  0  0  0  0  0  0
  -27.5376  -12.8554   22.7894 C   0  0  0  0  0  0  0  0  0  0  0  0
  -28.8580  -14.1244   16.1927 C   0  0  0  0  0  0  0  0  0  0  0  0
  -22.1321  -21.1423   17.3039 C   0  0  0  0  0  0  0  0  0  0  0  0
  -21.8257  -22.1235   18.4316 C   0  0  0  0  0  0  0  0  0  0  0  0
  -23.0890  -32.9771   23.2040 C   0  0  0  0  0  0  0  0  0  0  0  0
  -23.2477  -31.7451   24.0847 C   0  0  0  0  0  0  0  0  0  0  0  0
  -21.7368  -23.5667   17.9491 C   0  0  0  0  0  0  0  0  0  0  0  0
  -24.3905  -33.7489   23.0240 C   0  0  0  0  0  0  0  0  0  0  0  0
  -20.9923  -26.6011   19.8919 C   0  0  0  0  0  0  0  0  0  0  0  0
  -21.3382  -25.7664   18.6739 C   0  0  0  0  0  0  0  0  0  0  0  0
  -26.9180  -14.2604   20.7810 C   0  0  1  0  0  0  0  0  0  0  0  0
  -29.9070  -14.0573   18.4584 C   0  0  2  0  0  0  0  0  0  0  0  0
  -27.1090  -14.2640   22.3240 C   0  0  0  0  0  0  0  0  0  0  0  0
  -27.8822  -28.3459   20.2425 N   0  0  0  0  0  0  0  0  0  0  0  0
  -27.1920  -29.2930   19.5845 N   0  0  0  0  0  0  0  0  0  0  0  0
  -24.7437  -13.9183   19.6499 N   0  0  0  0  0  0  0  0  0  0  0  0
  -27.4885  -32.5182   21.6170 N   0  0  0  0  0  0  0  0  0  0  0  0
  -25.5044  -29.6099   17.9529 N   0  0  0  0  0  0  0  0  0  0  0  0
  -25.8504  -25.1158   18.2347 N   0  0  0  0  0  0  0  0  0  0  0  0
  -20.3285  -29.5008   23.8306 N   0  0  0  0  0  0  0  0  0  0  0  0
  -21.7839  -12.3001   20.8123 N   0  0  0  0  0  0  0  0  0  0  0  0
  -28.1066  -13.8659   20.0327 N   0  0  0  0  0  0  0  0  0  0  0  0
  -22.0024  -31.0358   24.2676 N   0  0  0  0  0  0  0  0  0  0  0  0
  -30.0305  -14.4773   17.0339 N   0  3  0  0  0  0  0  0  0  0  0  0
  -24.7638  -26.8371   17.1786 O   0  0  0  0  0  0  0  0  0  0  0  0
  -22.5363  -14.4963   20.9935 O   0  0  0  0  0  0  0  0  0  0  0  0
  -25.8999  -12.1263   20.5923 O   0  0  0  0  0  0  0  0  0  0  0  0
  -28.2798  -15.8130   18.7853 O   0  0  0  0  0  0  0  0  0  0  0  0
  -22.0016  -19.3222   18.9169 O   0  0  0  0  0  0  0  0  0  0  0  0
  -26.8791  -34.5902   22.4775 O   0  0  0  0  0  0  0  0  0  0  0  0
  -22.2224  -29.6342   22.4425 O   0  0  0  0  0  0  0  0  0  0  0  0
  -29.3086  -22.2808   21.5571 O   0  0  0  0  0  0  0  0  0  0  0  0
  -22.5715  -18.8778   16.6940 O   0  0  0  0  0  0  0  0  0  1  0  0
  -19.7384  -26.1714   20.4082 O   0  0  0  0  0  0  0  0  0  0  0  0
  -25.3625  -32.8813   22.4290 O   0  0  0  0  0  0  0  0  0  0  0  0
  -21.4350  -24.4020   19.0591 O   0  0  0  0  0  0  0  0  0  0  0  0
  -30.4227  -18.4209   17.7803 F   0  0  0  0  0  0  0  0  0  0  0  0
  -27.3326  -21.3333   19.8717 F   0  0  0  0  0  0  0  0  0  0  0  0
  1  2  1  0  0  0  0
  1  6  2  0  0  0  0
  2  7  2  0  0  0  0
  3  9  1  0  0  0  0
  3 10  2  0  0  0  0
  4 11  2  0  0  0  0
  4 19  1  0  0  0  0
  5 12  1  0  0  0  0
  5 19  2  0  0  0  0
  6 21  1  0  0  0  0
  7 23  1  0  0  0  0
  8 13  2  0  0  0  0
  8 22  1  0  0  0  0
  9 25  2  0  0  0  0
 10 28  1  0  0  0  0
 11 26  1  0  0  0  0
 12 26  2  0  0  0  0
 13 27  1  0  0  0  0
 14 15  2  0  0  0  0
 14 29  1  0  0  0  0
 15 30  1  0  0  0  0
 16 24  1  0  0  0  0
 16 27  2  0  0  0  0
 17 25  1  0  0  0  0
 17 28  2  0  0  0  0
 18 30  2  0  0  0  0
 18 31  1  0  0  0  0
 19 32  1  0  0  0  0
 20 32  1  0  0  0  0
 20 33  2  0  0  0  0
 20 34  1  0  0  0  0
 21 23  2  0  0  0  0
 21 41  1  0  0  0  0
 22 24  2  0  0  0  0
 22 42  1  0  0  0  0
 23 50  1  0  0  0  0
 24 43  1  0  0  0  0
 25 75  1  0  0  0  0
 26 87  1  0  0  0  0
 27 88  1  0  0  0  0
 28 89  1  0  0  0  0
 29 31  2  0  0  0  0
 29 87  1  0  0  0  0
 30 92  1  0  0  0  0
 31 93  1  0  0  0  0
 32 69  2  0  0  0  0
 33 70  1  0  0  0  0
 33 73  1  0  0  0  0
 34 74  1  0  0  0  0
 34 80  2  0  0  0  0
 35 51  1  0  0  0  0
 35 76  1  0  0  0  0
 35 81  2  0  0  0  0
 36 66  1  0  0  0  0
 36 71  1  0  0  0  0
 36 82  2  0  0  0  0
 37 67  1  0  0  0  0
 37 77  1  0  0  0  0
 37 83  2  0  0  0  0
 38 58  1  0  0  0  0
 38 84  2  0  0  0  0
 38 88  1  0  0  0  0
 39 72  1  0  0  0  0
 39 85  2  0  0  0  0
 39 90  1  0  0  0  0
 40 75  1  0  0  0  0
 40 78  1  0  0  0  0
 40 86  2  0  0  0  0
 41 44  1  0  0  0  0
 42 51  1  0  0  0  0
 43 71  1  0  0  0  0
 44 46  1  0  0  0  0
 45 47  1  0  0  0  0
 45 48  1  0  0  0  0
 46 50  1  0  0  0  0
 47 52  1  0  0  0  0
 48 72  1  0  0  0  0
 49 52  1  0  0  0  0
 49 72  1  0  0  0  0
 50 76  1  0  0  0  0
 51 71  1  0  0  0  0
 52 70  1  0  0  0  0
 53 67  1  0  0  0  0
 54 68  1  0  0  0  0
 55 68  1  0  0  0  0
 56 68  1  0  0  0  0
 57 79  1  0  0  0  0
 58 59  1  0  0  0  0
 59 62  1  0  0  0  0
 60 61  1  0  0  0  0
 60 63  1  0  0  0  0
 61 78  1  0  0  0  0
 62 91  1  0  0  0  0
 63 90  1  0  0  0  0
 64 65  1  0  0  0  0
 64 89  1  0  0  0  0
 65 91  1  0  0  0  0
 66 68  1  0  0  0  0
 66 77  1  0  0  0  0
 67 79  1  0  0  0  0
 69 70  1  0  0  0  0
M  CHG  1  79   1
M  ISO  4  38 101  39 100  88 101  90 100
M  END
> <Batch ID>
0000

> <Smiles>
CNC(C)C(=O)NC(C(=O)N1Cc2cc([101O:1][101C:1](=O)CCCOCCOc3cccc(NC(=O)NCCC[100O:0][100C:0](=O)N4CCCC(n5nc(-c6ccc(Oc7ccc(F)cc7F)cc6)c(C(N)=O)c5N)C4)c3)ccc2CC1C(=O)NC1CCCc2ccccc21)C(C)(C)C

> <Shape>
0.229

> <Color>
0.070

> <Negative vol penalty>
0.000

$$$$

  -OEChem-04052315133D

 84 92  0     1  0  0  0  0  0999 V2000
  -21.6777  -12.7043   19.3614 C   0  0  0  0  0  0  0  0  0  0  0  0
  -21.6865  -14.0517   19.7075 C   0  0  0  0  0  0  0  0  0  0  0  0
  -22.6830  -24.3154   25.3005 C   0  0  0  0  0  0  0  0  0  0  0  0
  -29.9461  -26.6349   19.4446 C   0  0  0  0  0  0  0  0  0  0  0  0
  -29.4641  -25.9722   21.7174 C   0  0  0  0  0  0  0  0  0  0  0  0
  -22.7988  -11.9141   19.6119 C   0  0  0  0  0  0  0  0  0  0  0  0
  -22.8161  -14.6095   20.3053 C   0  0  0  0  0  0  0  0  0  0  0  0
  -24.0619  -19.0905   18.3019 C   0  0  0  0  0  0  0  0  0  0  0  0
  -21.8025  -25.3972   25.2954 C   0  0  0  0  0  0  0  0  0  0  0  0
  -22.5897  -23.3356   24.3121 C   0  0  0  0  0  0  0  0  0  0  0  0
  -31.2959  -26.3470   19.6469 C   0  0  0  0  0  0  0  0  0  0  0  0
  -30.8139  -25.6843   21.9197 C   0  0  0  0  0  0  0  0  0  0  0  0
  -23.3132  -20.1967   18.7012 C   0  0  0  0  0  0  0  0  0  0  0  0
  -34.9255  -26.1270   19.6774 C   0  0  0  0  0  0  0  0  0  0  0  0
  -35.8634  -27.0513   19.2173 C   0  0  0  0  0  0  0  0  0  0  0  0
  -25.0620  -20.8162   20.2430 C   0  0  0  0  0  0  0  0  0  0  0  0
  -20.7353  -24.5193   23.3137 C   0  0  0  0  0  0  0  0  0  0  0  0
  -34.9037  -28.7402   20.6540 C   0  0  0  0  0  0  0  0  0  0  0  0
  -29.0303  -26.4475   20.4799 C   0  0  0  0  0  0  0  0  0  0  0  0
  -26.6397  -25.8672   19.8046 C   0  0  0  0  0  0  0  0  0  0  0  0
  -23.9462  -12.4647   20.2043 C   0  0  0  0  0  0  0  0  0  0  0  0
  -25.3136  -18.8323   18.8790 C   0  0  0  0  0  0  0  0  0  0  0  0
  -23.9531  -13.8256   20.5652 C   0  0  0  0  0  0  0  0  0  0  0  0
  -25.8257  -19.7075   19.8475 C   0  0  0  0  0  0  0  0  0  0  0  0
  -31.7297  -25.8716   20.8844 C   0  0  0  0  0  0  0  0  0  0  0  0
  -23.8119  -21.0582   19.6740 C   0  0  0  0  0  0  0  0  0  0  0  0
  -20.8286  -25.4992   24.3021 C   0  0  0  0  0  0  0  0  0  0  0  0
  -21.6158  -23.4375   23.3187 C   0  0  0  0  0  0  0  0  0  0  0  0
  -33.9767  -26.5093   20.6257 C   0  0  0  0  0  0  0  0  0  0  0  0
  -35.8525  -28.3579   19.7056 C   0  0  0  0  0  0  0  0  0  0  0  0
  -33.9658  -27.8159   21.1140 C   0  0  0  0  0  0  0  0  0  0  0  0
  -27.6359  -26.7453   20.2717 C   0  0  0  0  0  0  0  0  0  0  0  0
  -25.4951  -26.6262   19.7840 C   0  0  0  0  0  0  0  0  0  0  0  0
  -26.7398  -24.4887   19.4234 C   0  0  0  0  0  0  0  0  0  0  0  0
  -26.5437  -16.4600   20.6003 C   0  0  0  0  0  0  0  0  0  0  0  0
  -29.2935  -18.1416   20.2357 C   0  0  0  0  0  0  0  0  0  0  0  0
  -30.7933  -21.1494   19.6433 C   0  0  0  0  0  0  0  0  0  0  0  0
  -22.0712  -30.3343   22.1656 C   0  0  0  0  0  0  0  0  0  0  0  0
  -25.1165  -11.5600   20.4987 C   0  0  0  0  0  0  0  0  0  0  0  0
  -26.1206  -17.6496   18.4181 C   0  0  0  0  0  0  0  0  0  0  0  0
  -27.1730  -19.4860   20.4833 C   0  0  0  0  0  0  0  0  0  0  0  0
  -26.4105  -12.3143   20.7934 C   0  0  0  0  0  0  0  0  0  0  0  0
  -24.8411  -31.6123   20.3297 C   0  0  0  0  0  0  0  0  0  0  0  0
  -26.1531  -13.4522   21.7761 C   0  0  0  0  0  0  0  0  0  0  0  0
  -25.7353  -30.3894   20.1181 C   0  0  0  0  0  0  0  0  0  0  0  0
  -24.1584  -31.5828   21.6953 C   0  0  0  0  0  0  0  0  0  0  0  0
  -24.3023  -29.1238   21.7745 C   0  0  0  0  0  0  0  0  0  0  0  0
  -25.1685  -14.4729   21.1927 C   0  0  1  0  0  0  0  0  0  0  0  0
  -27.1561  -17.1970   19.4429 C   0  0  1  0  0  0  0  0  0  0  0  0
  -24.9688  -29.0807   20.3887 C   0  0  2  0  0  0  0  0  0  0  0  0
  -33.0555  -22.2170   19.4429 C   0  0  0  0  0  0  0  0  0  0  0  0
  -29.5969  -18.0630   23.2708 C   0  0  0  0  0  0  0  0  0  0  0  0
  -31.2873  -19.8999   23.0797 C   0  0  0  0  0  0  0  0  0  0  0  0
  -31.7190  -17.6928   22.0004 C   0  0  0  0  0  0  0  0  0  0  0  0
  -30.2900  -21.9617   16.8423 C   0  0  0  0  0  0  0  0  0  0  0  0
  -19.7702  -28.9374   24.1058 C   0  0  0  0  0  0  0  0  0  0  0  0
  -20.0635  -28.9453   22.6116 C   0  0  0  0  0  0  0  0  0  0  0  0
  -20.4481  -27.7850   24.8369 C   0  0  0  0  0  0  0  0  0  0  0  0
  -21.6622  -22.0217   20.0001 C   0  0  0  0  0  0  0  0  0  1  0  0
  -21.0433  -22.8935   21.0755 C   0  0  0  0  0  0  0  0  0  0  0  0
  -29.9847  -19.2406   21.0061 C   0  0  1  0  0  0  0  0  0  0  0  0
  -31.9112  -21.5485   18.6970 C   0  0  2  0  0  0  0  0  0  0  0  0
  -30.6207  -18.7275   22.3289 C   0  0  0  0  0  0  0  0  0  0  0  0
  -27.1656  -27.9686   20.5291 N   0  0  0  0  0  0  0  0  0  0  0  0
  -25.8613  -27.8647   20.2227 N   0  0  0  0  0  0  0  0  0  0  0  0
  -27.9214  -18.3124   20.0037 N   0  0  0  0  0  0  0  0  0  0  0  0
  -23.4481  -30.3163   21.8885 N   0  0  0  0  0  0  0  0  0  0  0  0
  -24.2214  -26.3485   19.4337 N   0  0  0  0  0  0  0  0  0  0  0  0
  -27.9908  -23.8620   19.5053 N   0  0  0  0  0  0  0  0  0  0  0  0
  -25.8363  -15.3300   20.2368 N   0  0  0  0  0  0  0  0  0  0  0  0
  -30.9358  -19.8503   20.0830 N   0  0  0  0  0  0  0  0  0  0  0  0
  -21.4740  -29.0903   22.3285 N   0  0  0  0  0  0  0  0  0  0  0  0
  -31.4034  -22.4981   17.6667 N   0  3  0  0  0  0  0  0  0  0  0  0
  -25.7526  -23.8366   19.0066 O   0  0  0  0  0  0  0  0  0  0  0  0
  -26.7025  -16.8843   21.7389 O   0  0  0  0  0  0  0  0  0  0  0  0
  -29.9485  -17.1710   19.8477 O   0  0  0  0  0  0  0  0  0  0  0  0
  -29.8866  -21.9148   19.9636 O   0  0  0  0  0  0  0  0  0  0  0  0
  -21.4211  -31.3813   22.2556 O   0  0  0  0  0  0  0  0  0  0  0  0
  -33.0467  -25.5904   21.0821 O   0  0  0  0  0  0  0  0  0  0  0  0
  -23.0829  -22.1383   20.0660 O   0  0  0  0  0  0  0  0  0  1  0  0
  -19.9684  -26.5538   24.2985 O   0  0  0  0  0  0  0  0  0  0  0  0
  -21.5259  -22.4761   22.3468 O   0  0  0  0  0  0  0  0  0  0  0  0
  -36.7542  -29.2449   19.2649 F   0  0  0  0  0  0  0  0  0  0  0  0
  -33.0575  -28.1887   22.0260 F   0  0  0  0  0  0  0  0  0  0  0  0
  1  2  1  0  0  0  0
  1  6  2  0  0  0  0
  2  7  2  0  0  0  0
  3  9  1  0  0  0  0
  3 10  2  0  0  0  0
  4 11  2  0  0  0  0
  4 19  1  0  0  0  0
  5 12  1  0  0  0  0
  5 19  2  0  0  0  0
  6 21  1  0  0  0  0
  7 23  1  0  0  0  0
  8 13  2  0  0  0  0
  8 22  1  0  0  0  0
  9 27  2  0  0  0  0
 10 28  1  0  0  0  0
 11 25  1  0  0  0  0
 12 25  2  0  0  0  0
 13 26  1  0  0  0  0
 14 15  2  0  0  0  0
 14 29  1  0  0  0  0
 15 30  1  0  0  0  0
 16 24  1  0  0  0  0
 16 26  2  0  0  0  0
 17 27  1  0  0  0  0
 17 28  2  0  0  0  0
 18 30  2  0  0  0  0
 18 31  1  0  0  0  0
 19 32  1  0  0  0  0
 20 32  1  0  0  0  0
 20 33  2  0  0  0  0
 20 34  1  0  0  0  0
 21 23  2  0  0  0  0
 21 39  1  0  0  0  0
 22 24  2  0  0  0  0
 22 40  1  0  0  0  0
 23 48  1  0  0  0  0
 24 41  1  0  0  0  0
 25 79  1  0  0  0  0
 26 80  1  0  0  0  0
 27 81  1  0  0  0  0
 28 82  1  0  0  0  0
 29 31  2  0  0  0  0
 29 79  1  0  0  0  0
 30 83  1  0  0  0  0
 31 84  1  0  0  0  0
 32 64  2  0  0  0  0
 33 65  1  0  0  0  0
 33 68  1  0  0  0  0
 34 69  1  0  0  0  0
 34 74  2  0  0  0  0
 35 49  1  0  0  0  0
 35 70  1  0  0  0  0
 35 75  2  0  0  0  0
 36 61  1  0  0  0  0
 36 66  1  0  0  0  0
 36 76  2  0  0  0  0
 37 62  1  0  0  0  0
 37 71  1  0  0  0  0
 37 77  2  0  0  0  0
 38 67  1  0  0  0  0
 38 72  1  0  0  0  0
 38 78  2  0  0  0  0
 39 42  1  0  0  0  0
 40 49  1  0  0  0  0
 41 66  1  0  0  0  0
 42 44  1  0  0  0  0
 43 45  1  0  0  0  0
 43 46  1  0  0  0  0
 44 48  1  0  0  0  0
 45 50  1  0  0  0  0
 46 67  1  0  0  0  0
 47 50  1  0  0  0  0
 47 67  1  0  0  0  0
 48 70  1  0  0  0  0
 49 66  1  0  0  0  0
 50 65  1  0  0  0  0
 51 62  1  0  0  0  0
 52 63  1  0  0  0  0
 53 63  1  0  0  0  0
 54 63  1  0  0  0  0
 55 73  1  0  0  0  0
 56 57  1  0  0  0  0
 56 58  1  0  0  0  0
 57 72  1  0  0  0  0
 58 81  1  0  0  0  0
 59 60  1  0  0  0  0
 59 80  1  0  0  0  0
 60 82  1  0  0  0  0
 61 63  1  0  0  0  0
 61 71  1  0  0  0  0
 62 73  1  0  0  0  0
 64 65  1  0  0  0  0
M  CHG  1  73   1
M  ISO  4  38 100  59 101  72 100  80 101
M  END
> <Batch ID>
0000

> <Smiles>
CNC(C)C(=O)NC(C(=O)N1Cc2cc([101O:1][101CH2:1]COc3cccc(OCCC[100NH:0][100C:0](=O)N4CCCC(n5nc(-c6ccc(Oc7ccc(F)cc7F)cc6)c(C(N)=O)c5N)C4)c3)ccc2CC1C(=O)NC1CCCc2ccccc21)C(C)(C)C

> <Shape>
0.219

> <Color>
0.086

> <Negative vol penalty>
0.000

$$$$

  -OEChem-04052315133D

 93101  0     1  0  0  0  0  0999 V2000
  -32.1760  -29.5871   21.7322 C   0  0  0  0  0  0  0  0  0  0  0  0
  -31.6258  -28.4075   21.2411 C   0  0  0  0  0  0  0  0  0  0  0  0
  -24.1411   -9.5327   21.4623 C   0  0  0  0  0  0  0  0  0  0  0  0
  -24.7153  -10.6707   23.5147 C   0  0  0  0  0  0  0  0  0  0  0  0
  -31.6227  -30.1978   22.8569 C   0  0  0  0  0  0  0  0  0  0  0  0
  -30.5225  -27.8372   21.8751 C   0  0  0  0  0  0  0  0  0  0  0  0
  -25.9118  -24.8040   19.2204 C   0  0  0  0  0  0  0  0  0  0  0  0
  -23.7241   -8.4215   22.1950 C   0  0  0  0  0  0  0  0  0  0  0  0
  -24.2982   -9.5594   24.2475 C   0  0  0  0  0  0  0  0  0  0  0  0
  -25.6540  -23.4434   19.0590 C   0  0  0  0  0  0  0  0  0  0  0  0
  -21.0136   -7.4975   23.9929 C   0  0  0  0  0  0  0  0  0  0  0  0
  -19.8041   -6.9019   23.6352 C   0  0  0  0  0  0  0  0  0  0  0  0
  -24.2567  -23.4810   21.0250 C   0  0  0  0  0  0  0  0  0  0  0  0
  -20.9585   -4.8278   23.1854 C   0  0  0  0  0  0  0  0  0  0  0  0
  -31.2803  -18.8695   18.2244 C   0  0  0  0  0  0  0  0  0  0  0  0
  -24.6368  -10.6573   22.1221 C   0  0  0  0  0  0  0  0  0  0  0  0
  -24.2859  -12.9079   20.9735 C   0  0  0  0  0  0  0  0  0  0  0  0
  -30.5061  -29.6399   23.4992 C   0  0  0  0  0  0  0  0  0  0  0  0
  -25.3518  -25.5121   20.2935 C   0  0  0  0  0  0  0  0  0  0  0  0
  -29.9545  -28.4403   23.0102 C   0  0  0  0  0  0  0  0  0  0  0  0
  -24.5069  -24.8511   21.1964 C   0  0  0  0  0  0  0  0  0  0  0  0
  -23.8026   -8.4349   23.5876 C   0  0  0  0  0  0  0  0  0  0  0  0
  -24.8287  -22.7811   19.9629 C   0  0  0  0  0  0  0  0  0  0  0  0
  -22.1956   -6.7583   23.9467 C   0  0  0  0  0  0  0  0  0  0  0  0
  -19.7765   -5.5671   23.2315 C   0  0  0  0  0  0  0  0  0  0  0  0
  -22.1681   -5.4234   23.5430 C   0  0  0  0  0  0  0  0  0  0  0  0
  -25.0683  -11.8053   21.3658 C   0  0  0  0  0  0  0  0  0  0  0  0
  -31.5901  -18.0211   19.2576 C   0  0  0  0  0  0  0  0  0  0  0  0
  -25.1547  -13.7170   20.2829 C   0  0  0  0  0  0  0  0  0  0  0  0
  -22.8979  -13.1768   21.2122 C   0  0  0  0  0  0  0  0  0  0  0  0
  -26.5202  -27.0950   22.7901 C   0  0  0  0  0  0  0  0  0  0  0  0
  -30.0444  -16.2196   19.9567 C   0  0  0  0  0  0  0  0  0  0  0  0
  -23.4077  -27.8828   23.2529 C   0  0  0  0  0  0  0  0  0  0  0  0
  -20.1200  -27.1194   22.7481 C   0  0  0  0  0  0  0  0  0  0  0  0
  -29.9719  -30.3109   24.7398 C   0  0  0  0  0  0  0  0  0  0  0  0
  -25.6183  -26.9854   20.4384 C   0  0  0  0  0  0  0  0  0  0  0  0
  -23.8648  -25.5703   22.3535 C   0  0  0  0  0  0  0  0  0  0  0  0
  -28.5722  -29.8433   25.1306 C   0  0  0  0  0  0  0  0  0  0  0  0
  -29.8349  -12.8548   18.5924 C   0  0  0  0  0  0  0  0  0  0  0  0
  -28.4831  -28.3215   25.0758 C   0  0  0  0  0  0  0  0  0  0  0  0
  -28.5173  -12.3638   19.1908 C   0  0  0  0  0  0  0  0  0  0  0  0
  -30.5847  -13.7677   19.5591 C   0  0  0  0  0  0  0  0  0  0  0  0
  -28.4608  -14.4436   20.6346 C   0  0  0  0  0  0  0  0  0  0  0  0
  -28.7424  -27.8044   23.6557 C   0  0  1  0  0  0  0  0  0  0  0  0
  -25.4081  -27.4934   21.8615 C   0  0  1  0  0  0  0  0  0  0  0  0
  -27.6592  -13.5441   19.6789 C   0  0  2  0  0  0  0  0  0  0  0  0
  -17.8053  -27.9306   23.2789 C   0  0  0  0  0  0  0  0  0  0  0  0
  -23.6949  -26.8302   26.1024 C   0  0  0  0  0  0  0  0  0  0  0  0
  -21.1968  -26.7777   26.2605 C   0  0  0  0  0  0  0  0  0  0  0  0
  -22.3766  -28.9458   25.8996 C   0  0  0  0  0  0  0  0  0  0  0  0
  -19.4603  -27.4689   19.8842 C   0  0  0  0  0  0  0  0  0  0  0  0
  -31.3826  -16.5706   19.3570 C   0  0  0  0  0  0  0  0  0  0  0  0
  -31.6130  -21.3693   17.9819 C   0  0  0  0  0  0  0  0  0  0  0  0
  -30.4670  -22.2348   18.4882 C   0  0  0  0  0  0  0  0  0  0  0  0
  -25.5959  -20.6647   19.1958 C   0  0  0  0  0  0  0  0  0  1  0  0
  -25.5199  -19.2500   19.7364 C   0  0  0  0  0  0  0  0  0  0  0  0
  -29.6114  -23.3402   20.3774 C   0  0  0  0  0  0  0  0  0  0  0  0
  -29.8628  -23.6024   21.8498 C   0  0  0  0  0  0  0  0  0  0  0  0
  -25.6235  -17.9792   21.7106 C   0  0  0  0  0  0  0  0  0  0  0  0
  -25.8305  -18.0762   23.2098 C   0  0  0  0  0  0  0  0  0  0  0  0
  -30.1131  -22.5493   23.9357 C   0  0  0  0  0  0  0  0  0  0  0  0
  -30.0970  -21.1985   24.6251 C   0  0  0  0  0  0  0  0  0  0  0  0
  -27.3623  -18.7487   24.8602 C   0  0  0  0  0  0  0  0  0  0  0  0
  -28.7493  -19.3254   25.0696 C   0  0  0  0  0  0  0  0  0  0  0  0
  -22.2514  -27.2730   24.0080 C   0  0  1  0  0  0  0  0  0  0  0  0
  -18.9501  -27.9651   22.2784 C   0  0  2  0  0  0  0  0  0  0  0  0
  -22.3934  -27.4424   25.5471 C   0  0  0  0  0  0  0  0  0  0  0  0
  -26.3365  -11.9018   20.9580 N   0  0  0  0  0  0  0  0  0  0  0  0
  -32.1671  -18.7284   20.2756 N   0  0  0  0  0  0  0  0  0  0  0  0
  -32.2258  -20.0029   19.9051 N   0  0  0  0  0  0  0  0  0  0  0  0
  -31.6935  -20.0854   18.6750 N   0  0  0  0  0  0  0  0  0  0  0  0
  -26.3577  -13.0747   20.3024 N   0  0  0  0  0  0  0  0  0  0  0  0
  -24.1609  -27.0088   22.4563 N   0  0  0  0  0  0  0  0  0  0  0  0
  -29.7245  -14.8632   20.0221 N   0  0  0  0  0  0  0  0  0  0  0  0
  -24.9993  -14.9082   19.6668 N   0  0  0  0  0  0  0  0  0  0  0  0
  -22.1514  -12.2398   21.9397 N   0  0  0  0  0  0  0  0  0  0  0  0
  -27.5705  -27.9922   22.8276 N   0  0  0  0  0  0  0  0  0  0  0  0
  -21.0412  -27.8670   23.4507 N   0  0  0  0  0  0  0  0  0  0  0  0
  -18.4442  -27.4674   20.9679 N   0  3  0  0  0  0  0  0  0  0  0  0
  -22.3325  -14.2092   20.7788 O   0  0  0  0  0  0  0  0  0  0  0  0
  -26.4312  -26.0516   23.4267 O   0  0  0  0  0  0  0  0  0  0  0  0
  -29.3057  -17.1252   20.3521 O   0  0  0  0  0  0  0  0  0  0  0  0
  -23.6299  -29.0914   23.3602 O   0  0  0  0  0  0  0  0  0  0  0  0
  -20.2060  -25.9151   22.5181 O   0  0  0  0  0  0  0  0  0  0  0  0
  -23.3955   -7.3508   24.3029 O   0  0  0  0  0  0  0  0  0  0  0  0
  -24.5759  -21.4529   19.8080 O   0  0  0  0  0  0  0  0  0  1  0  0
  -30.6627  -22.5313   19.8639 O   0  0  0  0  0  0  0  0  0  0  0  0
  -25.6862  -19.2827   21.1487 O   0  0  0  0  0  0  0  0  0  0  0  0
  -29.8802  -22.3634   22.5449 O   0  0  0  0  0  0  0  0  0  0  0  0
  -27.1136  -18.6342   23.4661 O   0  0  0  0  0  0  0  0  0  0  0  0
  -28.8219  -20.5996   24.4415 O   0  0  0  0  0  0  0  0  0  0  0  0
  -18.6148   -4.9948   22.8896 F   0  0  0  0  0  0  0  0  0  0  0  0
  -23.3002   -4.7078   23.4978 F   0  0  0  0  0  0  0  0  0  0  0  0
  1  2  1  0  0  0  0
  1  5  2  0  0  0  0
  2  6  2  0  0  0  0
  3  8  2  0  0  0  0
  3 16  1  0  0  0  0
  4  9  1  0  0  0  0
  4 16  2  0  0  0  0
  5 18  1  0  0  0  0
  6 20  1  0  0  0  0
  7 10  2  0  0  0  0
  7 19  1  0  0  0  0
  8 22  1  0  0  0  0
  9 22  2  0  0  0  0
 10 23  1  0  0  0  0
 11 12  2  0  0  0  0
 11 24  1  0  0  0  0
 12 25  1  0  0  0  0
 13 21  1  0  0  0  0
 13 23  2  0  0  0  0
 14 25  2  0  0  0  0
 14 26  1  0  0  0  0
 15 28  2  0  0  0  0
 15 71  1  0  0  0  0
 16 27  1  0  0  0  0
 17 27  1  0  0  0  0
 17 29  2  0  0  0  0
 17 30  1  0  0  0  0
 18 20  2  0  0  0  0
 18 35  1  0  0  0  0
 19 21  2  0  0  0  0
 19 36  1  0  0  0  0
 20 44  1  0  0  0  0
 21 37  1  0  0  0  0
 22 85  1  0  0  0  0
 23 86  1  0  0  0  0
 24 26  2  0  0  0  0
 24 85  1  0  0  0  0
 25 92  1  0  0  0  0
 26 93  1  0  0  0  0
 27 68  2  0  0  0  0
 28 52  1  0  0  0  0
 28 69  1  0  0  0  0
 29 72  1  0  0  0  0
 29 75  1  0  0  0  0
 30 76  1  0  0  0  0
 30 80  2  0  0  0  0
 31 45  1  0  0  0  0
 31 77  1  0  0  0  0
 31 81  2  0  0  0  0
 32 52  1  0  0  0  0
 32 74  1  0  0  0  0
 32 82  2  0  0  0  0
 33 65  1  0  0  0  0
 33 73  1  0  0  0  0
 33 83  2  0  0  0  0
 34 66  1  0  0  0  0
 34 78  1  0  0  0  0
 34 84  2  0  0  0  0
 35 38  1  0  0  0  0
 36 45  1  0  0  0  0
 37 73  1  0  0  0  0
 38 40  1  0  0  0  0
 39 41  1  0  0  0  0
 39 42  1  0  0  0  0
 40 44  1  0  0  0  0
 41 46  1  0  0  0  0
 42 74  1  0  0  0  0
 43 46  1  0  0  0  0
 43 74  1  0  0  0  0
 44 77  1  0  0  0  0
 45 73  1  0  0  0  0
 46 72  1  0  0  0  0
 47 66  1  0  0  0  0
 48 67  1  0  0  0  0
 49 67  1  0  0  0  0
 50 67  1  0  0  0  0
 51 79  1  0  0  0  0
 53 54  1  0  0  0  0
 53 71  1  0  0  0  0
 54 87  1  0  0  0  0
 55 56  1  0  0  0  0
 55 86  1  0  0  0  0
 56 88  1  0  0  0  0
 57 58  1  0  0  0  0
 57 87  1  0  0  0  0
 58 89  1  0  0  0  0
 59 60  1  0  0  0  0
 59 88  1  0  0  0  0
 60 90  1  0  0  0  0
 61 62  1  0  0  0  0
 61 89  1  0  0  0  0
 62 91  1  0  0  0  0
 63 64  1  0  0  0  0
 63 90  1  0  0  0  0
 64 91  1  0  0  0  0
 65 67  1  0  0  0  0
 65 78  1  0  0  0  0
 66 79  1  0  0  0  0
 68 72  1  0  0  0  0
 69 70  2  0  0  0  0
 70 71  1  0  0  0  0
M  CHG  1  79   1
M  ISO  4  32 100  52 100  55 101  86 101
M  END
> <Batch ID>
0000

> <Smiles>
CNC(C)C(=O)NC(C(=O)N1Cc2cc([101O:1][101CH2:1]COCCOCCOCCOCCOCCn3cc([100CH2:0][100C:0](=O)N4CCCC(n5nc(-c6ccc(Oc7ccc(F)cc7F)cc6)c(C(N)=O)c5N)C4)nn3)ccc2CC1C(=O)NC1CCCc2ccccc21)C(C)(C)C

> <Shape>
0.224

> <Color>
0.111

> <Negative vol penalty>
0.000

$$$$

  -OEChem-04052315133D

103112  0     1  0  0  0  0  0999 V2000
  -15.0047  -26.4600   23.7801 C   0  0  0  0  0  0  0  0  0  0  0  0
  -15.9094  -25.4035   23.7534 C   0  0  0  0  0  0  0  0  0  0  0  0
  -26.5634  -12.6103   21.5232 C   0  0  0  0  0  0  0  0  0  0  0  0
  -26.1851  -13.4585   19.2929 C   0  0  0  0  0  0  0  0  0  0  0  0
  -15.3289  -27.6696   23.1671 C   0  0  0  0  0  0  0  0  0  0  0  0
  -17.1385  -25.5557   23.1127 C   0  0  0  0  0  0  0  0  0  0  0  0
  -22.4856  -23.0709   24.7680 C   0  0  0  0  0  0  0  0  0  0  0  0
  -26.3905  -25.4696   14.6194 C   0  0  0  0  0  0  0  0  0  0  0  0
  -27.3570  -25.4300   16.8333 C   0  0  0  0  0  0  0  0  0  0  0  0
  -29.5166  -20.6511   16.7994 C   0  0  0  0  0  0  0  0  0  0  0  0
  -30.5427  -22.2413   18.3012 C   0  0  0  0  0  0  0  0  0  0  0  0
  -25.2856  -12.0511   21.5273 C   0  0  0  0  0  0  0  0  0  0  0  0
  -24.9073  -12.8992   19.2969 C   0  0  0  0  0  0  0  0  0  0  0  0
  -23.1731  -21.9423   24.3236 C   0  0  0  0  0  0  0  0  0  0  0  0
  -26.9626  -26.7212   14.3920 C   0  0  0  0  0  0  0  0  0  0  0  0
  -27.9292  -26.6816   16.6059 C   0  0  0  0  0  0  0  0  0  0  0  0
  -29.5977  -21.5791   15.7612 C   0  0  0  0  0  0  0  0  0  0  0  0
  -30.6238  -23.1694   17.2630 C   0  0  0  0  0  0  0  0  0  0  0  0
  -23.7612   -9.3124   20.2591 C   0  0  0  0  0  0  0  0  0  0  0  0
  -23.6268   -8.0062   20.7295 C   0  0  0  0  0  0  0  0  0  0  0  0
  -24.4822  -23.3289   22.8463 C   0  0  0  0  0  0  0  0  0  0  0  0
  -22.1236   -8.7821   22.4545 C   0  0  0  0  0  0  0  0  0  0  0  0
  -27.0132  -13.3141   20.4060 C   0  0  0  0  0  0  0  0  0  0  0  0
  -29.5260  -13.2845   19.9675 C   0  0  0  0  0  0  0  0  0  0  0  0
  -16.5665  -27.8398   22.5269 C   0  0  0  0  0  0  0  0  0  0  0  0
  -22.7844  -24.3377   24.2461 C   0  0  0  0  0  0  0  0  0  0  0  0
  -17.4790  -26.7682   22.4894 C   0  0  0  0  0  0  0  0  0  0  0  0
  -23.7989  -24.4723   23.2876 C   0  0  0  0  0  0  0  0  0  0  0  0
  -26.5876  -24.8240   15.8401 C   0  0  0  0  0  0  0  0  0  0  0  0
  -29.9891  -20.9822   18.0694 C   0  0  0  0  0  0  0  0  0  0  0  0
  -24.4576  -12.1955   20.4142 C   0  0  0  0  0  0  0  0  0  0  0  0
  -27.7320  -27.3272   15.3852 C   0  0  0  0  0  0  0  0  0  0  0  0
  -30.1513  -22.8382   15.9930 C   0  0  0  0  0  0  0  0  0  0  0  0
  -24.1695  -22.0708   23.3605 C   0  0  0  0  0  0  0  0  0  0  0  0
  -23.0769  -10.3535   20.8864 C   0  0  0  0  0  0  0  0  0  0  0  0
  -22.8080   -7.7410   21.8272 C   0  0  0  0  0  0  0  0  0  0  0  0
  -22.2581  -10.0883   21.9841 C   0  0  0  0  0  0  0  0  0  0  0  0
  -28.3328  -13.8926   20.4014 C   0  0  0  0  0  0  0  0  0  0  0  0
  -30.4912  -14.2412   20.1668 C   0  0  0  0  0  0  0  0  0  0  0  0
  -29.7426  -11.9721   19.4322 C   0  0  0  0  0  0  0  0  0  0  0  0
  -21.1643  -26.5281   22.6086 C   0  0  0  0  0  0  0  0  0  0  0  0
  -23.8498  -28.2901   23.0623 C   0  0  0  0  0  0  0  0  0  0  0  0
  -26.1012  -22.7775   17.2187 C   0  0  0  0  0  0  0  0  0  0  0  0
  -27.2066  -28.3499   23.6748 C   0  0  0  0  0  0  0  0  0  0  0  0
  -30.3288  -20.2080   20.4425 C   0  0  0  0  0  0  0  0  0  0  0  0
  -16.8530  -29.1502   21.8374 C   0  0  0  0  0  0  0  0  0  0  0  0
  -22.0520  -25.5488   24.7554 C   0  0  0  0  0  0  0  0  0  0  0  0
  -24.1716  -25.8126   22.7103 C   0  0  0  0  0  0  0  0  0  0  0  0
  -18.3287  -29.3530   21.5035 C   0  0  0  0  0  0  0  0  0  0  0  0
  -31.5261  -17.9918   22.9589 C   0  0  0  0  0  0  0  0  0  0  0  0
  -18.9092  -28.0953   20.8648 C   0  0  0  0  0  0  0  0  0  0  0  0
  -30.9567  -16.6327   22.5458 C   0  0  0  0  0  0  0  0  0  0  0  0
  -30.5470  -19.1284   22.6700 C   0  0  0  0  0  0  0  0  0  0  0  0
  -29.4758  -17.8208   20.8778 C   0  0  0  0  0  0  0  0  0  0  0  0
  -18.8324  -26.9027   21.8257 C   0  0  1  0  0  0  0  0  0  0  0  0
  -22.0853  -26.7213   23.7799 C   0  0  1  0  0  0  0  0  0  0  0  0
  -30.4520  -16.6522   21.0896 C   0  0  2  0  0  0  0  0  0  0  0  0
  -29.1303  -29.9372   23.9529 C   0  0  0  0  0  0  0  0  0  0  0  0
  -23.9223  -28.7274   20.0434 C   0  0  0  0  0  0  0  0  0  0  0  0
  -26.3010  -29.4722   20.2786 C   0  0  0  0  0  0  0  0  0  0  0  0
  -24.4785  -30.7506   21.4043 C   0  0  0  0  0  0  0  0  0  0  0  0
  -27.7154  -27.4312   26.4417 C   0  0  0  0  0  0  0  0  0  0  0  0
  -25.3381  -21.4786   17.0755 C   0  0  0  0  0  0  0  0  0  0  0  0
  -31.6810  -25.0748   13.6026 C   0  0  0  0  0  0  0  0  0  0  0  0
  -32.8450  -26.0592   13.5814 C   0  0  0  0  0  0  0  0  0  0  0  0
  -29.8427  -29.7944   13.8270 C   0  0  0  0  0  0  0  0  0  0  0  0
  -31.3076  -24.6763   15.0234 C   0  0  0  0  0  0  0  0  0  0  0  0
  -32.5280  -27.3214   14.3707 C   0  0  0  0  0  0  0  0  0  0  0  0
  -28.6371  -28.8690   13.8170 C   0  0  0  0  0  0  0  0  0  0  0  0
  -31.0524  -29.1471   14.4826 C   0  0  0  0  0  0  0  0  0  0  0  0
  -24.1343  -19.7314   22.9340 C   0  0  0  0  0  0  0  0  0  1  0  0
  -24.7795  -19.4930   18.2016 C   0  0  0  0  0  0  0  0  0  0  0  0
  -24.6677  -18.8484   21.8226 C   0  0  0  0  0  0  0  0  0  0  0  0
  -24.9847  -18.7314   19.4969 C   0  0  0  0  0  0  0  0  0  0  0  0
  -25.1419  -28.4837   22.3060 C   0  0  1  0  0  0  0  0  0  0  0  0
  -28.0365  -29.1525   24.6605 C   0  0  2  0  0  0  0  0  0  0  0  0
  -24.9528  -29.3328   21.0173 C   0  0  0  0  0  0  0  0  0  0  0  0
  -28.5204  -15.1391   20.8431 N   0  0  0  0  0  0  0  0  0  0  0  0
  -29.8427  -15.3220   20.6879 N   0  0  0  0  0  0  0  0  0  0  0  0
  -23.4226  -26.9660   23.2358 N   0  0  0  0  0  0  0  0  0  0  0  0
  -30.1154  -19.0861   21.2712 N   0  0  0  0  0  0  0  0  0  0  0  0
  -31.8228  -14.2550   19.9453 N   0  0  0  0  0  0  0  0  0  0  0  0
  -28.6411  -11.1165   19.2945 N   0  0  0  0  0  0  0  0  0  0  0  0
  -26.0072  -23.5543   16.0710 N   0  0  0  0  0  0  0  0  0  0  0  0
  -29.9067  -20.0396   19.1241 N   0  0  0  0  0  0  0  0  0  0  0  0
  -19.8788  -26.9880   22.8218 N   0  0  0  0  0  0  0  0  0  0  0  0
  -26.0921  -29.0472   23.2589 N   0  0  0  0  0  0  0  0  0  0  0  0
  -28.6767  -28.2472   25.6563 N   0  3  0  0  0  0  0  0  0  0  0  0
  -30.8819  -11.5643   19.1016 O   0  0  0  0  0  0  0  0  0  0  0  0
  -21.5889  -26.0021   21.5864 O   0  0  0  0  0  0  0  0  0  0  0  0
  -23.2456  -29.2769   23.4897 O   0  0  0  0  0  0  0  0  0  0  0  0
  -26.7078  -23.0324   18.2547 O   0  0  0  0  0  0  0  0  0  0  0  0
  -27.5179  -27.2191   23.3075 O   0  0  0  0  0  0  0  0  0  0  0  0
  -30.8724  -21.2321   20.8640 O   0  0  0  0  0  0  0  0  0  0  0  0
  -23.2107  -11.6497   20.4177 O   0  0  0  0  0  0  0  0  0  0  0  0
  -30.2311  -23.7502   14.9728 O   0  0  0  0  0  0  0  0  0  0  0  0
  -28.2904  -28.5485   15.1633 O   0  0  0  0  0  0  0  0  0  0  0  0
  -24.8416  -20.9708   22.9245 O   0  0  0  0  0  0  0  0  0  1  0  0
  -25.4777  -20.7301   18.2750 O   0  0  0  0  0  0  0  0  0  0  0  0
  -31.3990  -27.9572   13.7868 O   0  0  0  0  0  0  0  0  0  0  0  0
  -24.5002  -19.5160   20.5778 O   0  0  0  0  0  0  0  0  0  0  0  0
  -22.6778   -6.4864   22.2779 F   0  0  0  0  0  0  0  0  0  0  0  0
  -21.5973  -11.0842   22.5902 F   0  0  0  0  0  0  0  0  0  0  0  0
  1  2  1  0  0  0  0
  1  5  2  0  0  0  0
  2  6  2  0  0  0  0
  3 12  2  0  0  0  0
  3 23  1  0  0  0  0
  4 13  1  0  0  0  0
  4 23  2  0  0  0  0
  5 25  1  0  0  0  0
  6 27  1  0  0  0  0
  7 14  2  0  0  0  0
  7 26  1  0  0  0  0
  8 15  2  0  0  0  0
  8 29  1  0  0  0  0
  9 16  1  0  0  0  0
  9 29  2  0  0  0  0
 10 17  2  0  0  0  0
 10 30  1  0  0  0  0
 11 18  1  0  0  0  0
 11 30  2  0  0  0  0
 12 31  1  0  0  0  0
 13 31  2  0  0  0  0
 14 34  1  0  0  0  0
 15 32  1  0  0  0  0
 16 32  2  0  0  0  0
 17 33  1  0  0  0  0
 18 33  2  0  0  0  0
 19 20  2  0  0  0  0
 19 35  1  0  0  0  0
 20 36  1  0  0  0  0
 21 28  1  0  0  0  0
 21 34  2  0  0  0  0
 22 36  2  0  0  0  0
 22 37  1  0  0  0  0
 23 38  1  0  0  0  0
 24 38  1  0  0  0  0
 24 39  2  0  0  0  0
 24 40  1  0  0  0  0
 25 27  2  0  0  0  0
 25 46  1  0  0  0  0
 26 28  2  0  0  0  0
 26 47  1  0  0  0  0
 27 55  1  0  0  0  0
 28 48  1  0  0  0  0
 29 84  1  0  0  0  0
 30 85  1  0  0  0  0
 31 95  1  0  0  0  0
 32 97  1  0  0  0  0
 33 96  1  0  0  0  0
 34 98  1  0  0  0  0
 35 37  2  0  0  0  0
 35 95  1  0  0  0  0
 36102  1  0  0  0  0
 37103  1  0  0  0  0
 38 78  2  0  0  0  0
 39 79  1  0  0  0  0
 39 82  1  0  0  0  0
 40 83  1  0  0  0  0
 40 89  2  0  0  0  0
 41 56  1  0  0  0  0
 41 86  1  0  0  0  0
 41 90  2  0  0  0  0
 42 75  1  0  0  0  0
 42 80  1  0  0  0  0
 42 91  2  0  0  0  0
 43 63  1  0  0  0  0
 43 84  1  0  0  0  0
 43 92  2  0  0  0  0
 44 76  1  0  0  0  0
 44 87  1  0  0  0  0
 44 93  2  0  0  0  0
 45 81  1  0  0  0  0
 45 85  1  0  0  0  0
 45 94  2  0  0  0  0
 46 49  1  0  0  0  0
 47 56  1  0  0  0  0
 48 80  1  0  0  0  0
 49 51  1  0  0  0  0
 50 52  1  0  0  0  0
 50 53  1  0  0  0  0
 51 55  1  0  0  0  0
 52 57  1  0  0  0  0
 53 81  1  0  0  0  0
 54 57  1  0  0  0  0
 54 81  1  0  0  0  0
 55 86  1  0  0  0  0
 56 80  1  0  0  0  0
 57 79  1  0  0  0  0
 58 76  1  0  0  0  0
 59 77  1  0  0  0  0
 60 77  1  0  0  0  0
 61 77  1  0  0  0  0
 62 88  1  0  0  0  0
 63 99  1  0  0  0  0
 64 65  1  0  0  0  0
 64 67  1  0  0  0  0
 65 68  1  0  0  0  0
 66 69  1  0  0  0  0
 66 70  1  0  0  0  0
 67 96  1  0  0  0  0
 68100  1  0  0  0  0
 69 97  1  0  0  0  0
 70100  1  0  0  0  0
 71 73  1  0  0  0  0
 71 98  1  0  0  0  0
 72 74  1  0  0  0  0
 72 99  1  0  0  0  0
 73101  1  0  0  0  0
 74101  1  0  0  0  0
 75 77  1  0  0  0  0
 75 87  1  0  0  0  0
 76 88  1  0  0  0  0
 78 79  1  0  0  0  0
M  CHG  1  88   1
M  ISO  4  45 100  71 101  85 100  98 101
M  END
> <Batch ID>
0000

> <Smiles>
CNC(C)C(=O)NC(C(=O)N1Cc2cc([101O:1][101CH2:1]COCCOCC(=O)Nc3ccc(OCCCOCCCCOc4ccc([100NH:0][100C:0](=O)N5CCCC(n6nc(-c7ccc(Oc8ccc(F)cc8F)cc7)c(C(N)=O)c6N)C5)cc4)cc3)ccc2CC1C(=O)NC1CCCc2ccccc21)C(C)(C)C

> <Shape>
0.240

> <Color>
0.057

> <Negative vol penalty>
0.000

$$$$

  -OEChem-04052315133D

 86 94  0     1  0  0  0  0  0999 V2000
  -22.0330  -25.0689   14.5675 C   0  0  0  0  0  0  0  0  0  0  0  0
  -21.8698  -23.6902   14.4780 C   0  0  0  0  0  0  0  0  0  0  0  0
  -26.3012  -28.1243   18.7959 C   0  0  0  0  0  0  0  0  0  0  0  0
  -26.4259  -27.9232   21.2002 C   0  0  0  0  0  0  0  0  0  0  0  0
  -22.5096  -25.6381   15.7477 C   0  0  0  0  0  0  0  0  0  0  0  0
  -22.1844  -22.8797   15.5682 C   0  0  0  0  0  0  0  0  0  0  0  0
  -20.1547  -16.8066   18.7797 C   0  0  0  0  0  0  0  0  0  0  0  0
  -30.3283  -15.6086   21.7700 C   0  0  0  0  0  0  0  0  0  0  0  0
  -28.2424  -16.5407   22.5557 C   0  0  0  0  0  0  0  0  0  0  0  0
  -25.2513  -29.0333   18.9263 C   0  0  0  0  0  0  0  0  0  0  0  0
  -25.3759  -28.8322   21.3307 C   0  0  0  0  0  0  0  0  0  0  0  0
  -20.6851  -15.6018   19.2391 C   0  0  0  0  0  0  0  0  0  0  0  0
  -29.7678  -14.3316   21.7970 C   0  0  0  0  0  0  0  0  0  0  0  0
  -27.6819  -15.2637   22.5826 C   0  0  0  0  0  0  0  0  0  0  0  0
  -22.0065  -28.8029   21.0536 C   0  0  0  0  0  0  0  0  0  0  0  0
  -20.9896  -28.4932   21.9568 C   0  0  0  0  0  0  0  0  0  0  0  0
  -21.4257  -16.7029   21.2536 C   0  0  0  0  0  0  0  0  0  0  0  0
  -21.4709  -30.5134   23.1913 C   0  0  0  0  0  0  0  0  0  0  0  0
  -26.8885  -27.5692   19.9328 C   0  0  0  0  0  0  0  0  0  0  0  0
  -29.3492  -26.9213   19.7519 C   0  0  0  0  0  0  0  0  0  0  0  0
  -22.8211  -24.8351   16.8562 C   0  0  0  0  0  0  0  0  0  0  0  0
  -20.2657  -17.9729   19.5503 C   0  0  0  0  0  0  0  0  0  0  0  0
  -22.6670  -23.4386   16.7638 C   0  0  0  0  0  0  0  0  0  0  0  0
  -20.8936  -17.9207   20.8029 C   0  0  0  0  0  0  0  0  0  0  0  0
  -29.5656  -16.7132   22.1494 C   0  0  0  0  0  0  0  0  0  0  0  0
  -24.7886  -29.3872   20.1937 C   0  0  0  0  0  0  0  0  0  0  0  0
  -28.4447  -14.1592   22.2033 C   0  0  0  0  0  0  0  0  0  0  0  0
  -21.3232  -15.5505   20.4749 C   0  0  0  0  0  0  0  0  0  0  0  0
  -22.7556  -29.9678   21.2193 C   0  0  0  0  0  0  0  0  0  0  0  0
  -20.7218  -29.3484   23.0256 C   0  0  0  0  0  0  0  0  0  0  0  0
  -22.4878  -30.8231   22.2882 C   0  0  0  0  0  0  0  0  0  0  0  0
  -27.9728  -26.6298   19.7987 C   0  0  0  0  0  0  0  0  0  0  0  0
  -29.9554  -25.6960   19.6189 C   0  0  0  0  0  0  0  0  0  0  0  0
  -30.0200  -28.1865   19.8226 C   0  0  0  0  0  0  0  0  0  0  0  0
  -21.6549  -20.8034   19.1481 C   0  0  0  0  0  0  0  0  0  0  0  0
  -20.1618  -21.4974   21.9429 C   0  0  0  0  0  0  0  0  0  0  0  0
  -18.7756  -20.3612   24.8471 C   0  0  0  0  0  0  0  0  0  0  0  0
  -29.3845  -20.3437   21.4735 C   0  0  0  0  0  0  0  0  0  0  0  0
  -23.3781  -25.4916   18.0945 C   0  0  0  0  0  0  0  0  0  0  0  0
  -19.6647  -19.2588   19.0525 C   0  0  0  0  0  0  0  0  0  0  0  0
  -21.0211  -19.1402   21.6775 C   0  0  0  0  0  0  0  0  0  0  0  0
  -23.3332  -24.5971   19.3307 C   0  0  0  0  0  0  0  0  0  0  0  0
  -28.4891  -21.2307   18.0810 C   0  0  0  0  0  0  0  0  0  0  0  0
  -23.8489  -23.2006   18.9982 C   0  0  0  0  0  0  0  0  0  0  0  0
  -28.3995  -22.7547   18.1786 C   0  0  0  0  0  0  0  0  0  0  0  0
  -27.9613  -20.5637   19.3477 C   0  0  0  0  0  0  0  0  0  0  0  0
  -28.5333  -22.5404   20.7037 C   0  0  0  0  0  0  0  0  0  0  0  0
  -22.9738  -22.5284   17.9333 C   0  0  1  0  0  0  0  0  0  0  0  0
  -20.2880  -20.4962   19.6910 C   0  0  1  0  0  0  0  0  0  0  0  0
  -29.0728  -23.2745   19.4627 C   0  0  2  0  0  0  0  0  0  0  0  0
  -17.6707  -21.1688   26.9505 C   0  0  0  0  0  0  0  0  0  0  0  0
  -22.8767  -22.3633   23.0337 C   0  0  0  0  0  0  0  0  0  0  0  0
  -21.9099  -22.2443   25.3401 C   0  0  0  0  0  0  0  0  0  0  0  0
  -20.9714  -23.8499   23.6775 C   0  0  0  0  0  0  0  0  0  0  0  0
  -16.2773  -18.8975   24.2346 C   0  0  0  0  0  0  0  0  0  0  0  0
  -30.1644  -18.0786   22.1200 C   0  0  0  0  0  0  0  0  0  0  0  0
  -23.4324  -12.6052   20.5175 C   0  0  0  0  0  0  0  0  0  0  0  0
  -23.9710  -11.6133   19.4923 C   0  0  0  0  0  0  0  0  0  0  0  0
  -22.3036  -13.4502   19.9422 C   0  0  0  0  0  0  0  0  0  1  0  0
  -25.1277  -10.7979   20.0527 C   0  0  0  0  0  0  0  0  0  0  0  0
  -28.3921  -11.9674   21.2817 C   0  0  0  0  0  0  0  0  0  0  0  0
  -27.2955  -10.9763   20.9426 C   0  0  0  0  0  0  0  0  0  0  0  0
  -20.5195  -21.3774   23.4046 C   0  0  1  0  0  0  0  0  0  0  0  0
  -17.4561  -20.6811   25.5261 C   0  0  2  0  0  0  0  0  0  0  0  0
  -21.5689  -22.4360   23.8469 C   0  0  0  0  0  0  0  0  0  0  0  0
  -27.7191  -25.3219   19.7029 N   0  0  0  0  0  0  0  0  0  0  0  0
  -28.9445  -24.7807   19.5946 N   0  0  0  0  0  0  0  0  0  0  0  0
  -20.4230  -20.3752   21.1441 N   0  0  0  0  0  0  0  0  0  0  0  0
  -28.6561  -21.0891   20.5315 N   0  0  0  0  0  0  0  0  0  0  0  0
  -31.2491  -25.3230   19.5213 N   0  0  0  0  0  0  0  0  0  0  0  0
  -29.2455  -29.3466   19.9590 N   0  0  0  0  0  0  0  0  0  0  0  0
  -21.7493  -22.0329   18.5244 N   0  0  0  0  0  0  0  0  0  0  0  0
  -19.2607  -21.4406   24.1394 N   0  0  0  0  0  0  0  0  0  0  0  0
  -29.4466  -18.9752   21.2414 N   0  0  0  0  0  0  0  0  0  0  0  0
  -16.5889  -19.4699   25.5696 N   0  3  0  0  0  0  0  0  0  0  0  0
  -31.2682  -28.2868   19.7499 O   0  0  0  0  0  0  0  0  0  0  0  0
  -22.5576  -19.9862   19.2861 O   0  0  0  0  0  0  0  0  0  0  0  0
  -19.6622  -22.5457   21.5267 O   0  0  0  0  0  0  0  0  0  0  0  0
  -19.3231  -19.2647   24.9385 O   0  0  0  0  0  0  0  0  0  0  0  0
  -29.9432  -20.8606   22.4471 O   0  0  0  0  0  0  0  0  0  0  0  0
  -23.7643  -30.2743   20.3214 O   0  0  0  0  0  0  0  0  0  0  0  0
  -27.8940  -12.9049   22.2284 O   0  0  0  0  0  0  0  0  0  0  0  0
  -21.8424  -14.3760   20.9254 O   0  0  0  0  0  0  0  0  0  1  0  0
  -26.1818  -11.6811   20.4106 O   0  0  0  0  0  0  0  0  0  0  0  0
  -19.7443  -29.0517   23.8919 F   0  0  0  0  0  0  0  0  0  0  0  0
  -23.2033  -31.9443   22.4519 F   0  0  0  0  0  0  0  0  0  0  0  0
  1  2  1  0  0  0  0
  1  5  2  0  0  0  0
  2  6  2  0  0  0  0
  3 10  2  0  0  0  0
  3 19  1  0  0  0  0
  4 11  1  0  0  0  0
  4 19  2  0  0  0  0
  5 21  1  0  0  0  0
  6 23  1  0  0  0  0
  7 12  2  0  0  0  0
  7 22  1  0  0  0  0
  8 13  2  0  0  0  0
  8 25  1  0  0  0  0
  9 14  1  0  0  0  0
  9 25  2  0  0  0  0
 10 26  1  0  0  0  0
 11 26  2  0  0  0  0
 12 28  1  0  0  0  0
 13 27  1  0  0  0  0
 14 27  2  0  0  0  0
 15 16  2  0  0  0  0
 15 29  1  0  0  0  0
 16 30  1  0  0  0  0
 17 24  1  0  0  0  0
 17 28  2  0  0  0  0
 18 30  2  0  0  0  0
 18 31  1  0  0  0  0
 19 32  1  0  0  0  0
 20 32  1  0  0  0  0
 20 33  2  0  0  0  0
 20 34  1  0  0  0  0
 21 23  2  0  0  0  0
 21 39  1  0  0  0  0
 22 24  2  0  0  0  0
 22 40  1  0  0  0  0
 23 48  1  0  0  0  0
 24 41  1  0  0  0  0
 25 56  1  0  0  0  0
 26 81  1  0  0  0  0
 27 82  1  0  0  0  0
 28 83  1  0  0  0  0
 29 31  2  0  0  0  0
 29 81  1  0  0  0  0
 30 85  1  0  0  0  0
 31 86  1  0  0  0  0
 32 66  2  0  0  0  0
 33 67  1  0  0  0  0
 33 70  1  0  0  0  0
 34 71  1  0  0  0  0
 34 76  2  0  0  0  0
 35 49  1  0  0  0  0
 35 72  1  0  0  0  0
 35 77  2  0  0  0  0
 36 63  1  0  0  0  0
 36 68  1  0  0  0  0
 36 78  2  0  0  0  0
 37 64  1  0  0  0  0
 37 73  1  0  0  0  0
 37 79  2  0  0  0  0
 38 69  1  0  0  0  0
 38 74  1  0  0  0  0
 38 80  2  0  0  0  0
 39 42  1  0  0  0  0
 40 49  1  0  0  0  0
 41 68  1  0  0  0  0
 42 44  1  0  0  0  0
 43 45  1  0  0  0  0
 43 46  1  0  0  0  0
 44 48  1  0  0  0  0
 45 50  1  0  0  0  0
 46 69  1  0  0  0  0
 47 50  1  0  0  0  0
 47 69  1  0  0  0  0
 48 72  1  0  0  0  0
 49 68  1  0  0  0  0
 50 67  1  0  0  0  0
 51 64  1  0  0  0  0
 52 65  1  0  0  0  0
 53 65  1  0  0  0  0
 54 65  1  0  0  0  0
 55 75  1  0  0  0  0
 56 74  1  0  0  0  0
 57 58  1  0  0  0  0
 57 59  1  0  0  0  0
 58 60  1  0  0  0  0
 59 83  1  0  0  0  0
 60 84  1  0  0  0  0
 61 62  1  0  0  0  0
 61 82  1  0  0  0  0
 62 84  1  0  0  0  0
 63 65  1  0  0  0  0
 63 73  1  0  0  0  0
 64 75  1  0  0  0  0
 66 67  1  0  0  0  0
M  CHG  1  75   1
M  ISO  4  38 100  59 101  74 100  83 101
M  END
> <Batch ID>
0000

> <Smiles>
CNC(C)C(=O)NC(C(=O)N1Cc2cc([101O:1][101CH2:1]CCCOCCOc3ccc(C[100NH:0][100C:0](=O)N4CCCC(n5nc(-c6ccc(Oc7ccc(F)cc7F)cc6)c(C(N)=O)c5N)C4)cc3)ccc2CC1C(=O)NC1CCCc2ccccc21)C(C)(C)C

> <Shape>
0.206

> <Color>
0.064

> <Negative vol penalty>
0.000

$$$$

  -OEChem-04052315133D

 99106  0     1  0  0  0  0  0999 V2000
  -25.7698  -38.3093   24.3792 C   0  0  0  0  0  0  0  0  0  0  0  0
  -26.6928  -37.6591   23.5664 C   0  0  0  0  0  0  0  0  0  0  0  0
  -22.7623  -13.4780   20.3833 C   0  0  0  0  0  0  0  0  0  0  0  0
  -24.8701  -13.9270   21.4753 C   0  0  0  0  0  0  0  0  0  0  0  0
  -25.0638  -37.5910   25.3433 C   0  0  0  0  0  0  0  0  0  0  0  0
  -26.9111  -36.2903   23.7179 C   0  0  0  0  0  0  0  0  0  0  0  0
  -26.3742  -30.5288   18.4697 C   0  0  0  0  0  0  0  0  0  0  0  0
  -22.2512  -14.6787   20.8760 C   0  0  0  0  0  0  0  0  0  0  0  0
  -24.3591  -15.1277   21.9681 C   0  0  0  0  0  0  0  0  0  0  0  0
  -26.1594  -29.4056   17.6706 C   0  0  0  0  0  0  0  0  0  0  0  0
  -20.6879  -18.1914   22.2909 C   0  0  0  0  0  0  0  0  0  0  0  0
  -19.3728  -18.5214   21.9632 C   0  0  0  0  0  0  0  0  0  0  0  0
  -25.7107  -28.0767   19.6405 C   0  0  0  0  0  0  0  0  0  0  0  0
  -19.1737  -16.4724   20.6986 C   0  0  0  0  0  0  0  0  0  0  0  0
  -24.0717  -13.1021   20.6830 C   0  0  0  0  0  0  0  0  0  0  0  0
  -23.9329  -10.9208   19.3676 C   0  0  0  0  0  0  0  0  0  0  0  0
  -25.2665  -36.2108   25.5002 C   0  0  0  0  0  0  0  0  0  0  0  0
  -26.2427  -30.4337   19.8578 C   0  0  0  0  0  0  0  0  0  0  0  0
  -26.2081  -35.5530   24.6859 C   0  0  0  0  0  0  0  0  0  0  0  0
  -25.9124  -29.2013   20.4451 C   0  0  0  0  0  0  0  0  0  0  0  0
  -23.0496  -15.5035   21.6684 C   0  0  0  0  0  0  0  0  0  0  0  0
  -25.8287  -28.1826   18.2546 C   0  0  0  0  0  0  0  0  0  0  0  0
  -21.2459  -17.0019   21.8224 C   0  0  0  0  0  0  0  0  0  0  0  0
  -18.6158  -17.6619   21.1671 C   0  0  0  0  0  0  0  0  0  0  0  0
  -20.4888  -16.1424   21.0263 C   0  0  0  0  0  0  0  0  0  0  0  0
  -24.6000  -11.8617   20.1747 C   0  0  0  0  0  0  0  0  0  0  0  0
  -24.8594   -9.9284   19.1597 C   0  0  0  0  0  0  0  0  0  0  0  0
  -22.5952  -10.9420   18.8518 C   0  0  0  0  0  0  0  0  0  0  0  0
  -26.3872  -32.1874   23.1714 C   0  0  0  0  0  0  0  0  0  0  0  0
  -23.9792  -30.2895   23.2719 C   0  0  0  0  0  0  0  0  0  0  0  0
  -27.6058  -20.2348   21.2983 C   0  0  0  0  0  0  0  0  0  0  0  0
  -21.1807  -28.3905   22.8257 C   0  0  0  0  0  0  0  0  0  0  0  0
  -29.5163  -12.5124   19.8818 C   0  0  0  0  0  0  0  0  0  0  0  0
  -24.5143  -35.4856   26.5878 C   0  0  0  0  0  0  0  0  0  0  0  0
  -26.5251  -31.6028   20.7618 C   0  0  0  0  0  0  0  0  0  0  0  0
  -25.8158  -29.1378   21.9450 C   0  0  0  0  0  0  0  0  0  0  0  0
  -24.5312  -33.9672   26.4317 C   0  0  0  0  0  0  0  0  0  0  0  0
  -29.1039   -9.1207   21.6434 C   0  0  0  0  0  0  0  0  0  0  0  0
  -25.9429  -33.4778   26.1243 C   0  0  0  0  0  0  0  0  0  0  0  0
  -27.6054   -9.1410   21.3691 C   0  0  0  0  0  0  0  0  0  0  0  0
  -29.6987  -10.5102   21.4322 C   0  0  0  0  0  0  0  0  0  0  0  0
  -28.4647  -10.3519   19.2665 C   0  0  0  0  0  0  0  0  0  0  0  0
  -26.4547  -34.0645   24.8032 C   0  0  1  0  0  0  0  0  0  0  0  0
  -25.6195  -31.6362   22.0060 C   0  0  1  0  0  0  0  0  0  0  0  0
  -27.3030   -9.5763   19.9213 C   0  0  2  0  0  0  0  0  0  0  0  0
  -19.1110  -27.6219   24.0185 C   0  0  0  0  0  0  0  0  0  0  0  0
  -25.6450  -28.2952   24.8694 C   0  0  0  0  0  0  0  0  0  0  0  0
  -23.5531  -26.9807   25.2747 C   0  0  0  0  0  0  0  0  0  0  0  0
  -23.7431  -29.3152   26.1332 C   0  0  0  0  0  0  0  0  0  0  0  0
  -19.4131  -29.6971   20.8439 C   0  0  0  0  0  0  0  0  0  0  0  0
  -27.1238  -19.0295   22.0772 C   0  0  0  0  0  0  0  0  0  0  0  0
  -30.0458  -15.1335   19.1199 C   0  0  0  0  0  0  0  0  0  0  0  0
  -29.3346  -16.3927   19.6163 C   0  0  0  0  0  0  0  0  0  0  0  0
  -29.2993  -16.4230   21.1844 C   0  0  0  0  0  0  0  0  0  0  0  0
  -29.1837  -16.3360   19.6214 C   0  0  0  0  0  0  0  0  0  0  0  0
  -29.1726  -14.2973   18.1898 C   0  0  0  0  0  0  0  0  0  0  0  0
  -27.5245  -22.7221   21.3488 C   0  0  0  0  0  0  0  0  0  0  0  0
  -30.1021  -17.6539   19.2401 C   0  0  0  0  0  0  0  0  0  0  0  0
  -30.0413  -17.6861   21.5892 C   0  0  0  0  0  0  0  0  0  0  0  0
  -27.8559  -16.4320   21.6628 C   0  0  0  0  0  0  0  0  0  0  0  0
  -27.6941  -16.3019   19.3220 C   0  0  0  0  0  0  0  0  0  0  0  0
  -29.8644  -17.5402   18.9897 C   0  0  0  0  0  0  0  0  0  0  0  0
  -28.3493  -22.5577   20.0853 C   0  0  0  0  0  0  0  0  0  0  0  0
  -26.3336  -27.0295   16.2364 C   0  0  0  0  0  0  0  0  0  1  0  0
  -29.4640  -18.8223   22.1348 C   0  0  0  0  0  0  0  0  0  0  0  0
  -26.5777  -25.5765   15.8777 C   0  0  0  0  0  0  0  0  0  0  0  0
  -30.2203  -17.8093   21.2970 C   0  0  0  0  0  0  0  0  0  0  0  0
  -28.3823  -22.9922   17.7760 C   0  0  0  0  0  0  0  0  0  0  0  0
  -27.5744  -23.5895   16.6399 C   0  0  0  0  0  0  0  0  0  0  0  0
  -23.4578  -28.9266   23.6513 C   0  0  1  0  0  0  0  0  0  0  0  0
  -19.7154  -28.6748   23.1027 C   0  0  2  0  0  0  0  0  0  0  0  0
  -24.1083  -28.3852   24.9556 C   0  0  0  0  0  0  0  0  0  0  0  0
  -25.8535  -11.4994   20.4603 N   0  0  0  0  0  0  0  0  0  0  0  0
  -25.9814  -10.3198   19.8292 N   0  0  0  0  0  0  0  0  0  0  0  0
  -25.1151  -30.3271   22.4541 N   0  0  0  0  0  0  0  0  0  0  0  0
  -29.2159  -11.1767   20.2149 N   0  0  0  0  0  0  0  0  0  0  0  0
  -24.8156   -8.7679   18.4715 N   0  0  0  0  0  0  0  0  0  0  0  0
  -21.7770  -12.0369   19.1616 N   0  0  0  0  0  0  0  0  0  0  0  0
  -25.8708  -33.3642   23.6793 N   0  0  0  0  0  0  0  0  0  0  0  0
  -27.1912  -21.3892   21.9013 N   0  0  0  0  0  0  0  0  0  0  0  0
  -22.0053  -29.0481   23.7138 N   0  0  0  0  0  0  0  0  0  0  0  0
  -28.9634  -12.9552   18.6831 N   0  0  0  0  0  0  0  0  0  0  0  0
  -18.9412  -28.6907   21.8294 N   0  3  0  0  0  0  0  0  0  0  0  0
  -22.1338  -10.0095   18.1510 O   0  0  0  0  0  0  0  0  0  0  0  0
  -27.3748  -31.5891   23.5816 O   0  0  0  0  0  0  0  0  0  0  0  0
  -23.4004  -31.2953   23.6925 O   0  0  0  0  0  0  0  0  0  0  0  0
  -28.2745  -20.1386   20.2728 O   0  0  0  0  0  0  0  0  0  0  0  0
  -21.5560  -27.6554   21.9150 O   0  0  0  0  0  0  0  0  0  0  0  0
  -30.2162  -13.2432   20.5893 O   0  0  0  0  0  0  0  0  0  0  0  0
  -22.5513  -16.6753   22.1492 O   0  0  0  0  0  0  0  0  0  0  0  0
  -25.6159  -27.0912   17.4683 O   0  0  0  0  0  0  0  0  0  1  0  0
  -28.2166  -18.2594   22.5308 O   0  0  0  0  0  0  0  0  0  0  0  0
  -30.4820  -18.3559   20.4161 O   0  0  0  0  0  0  0  0  0  0  0  0
  -26.9777  -16.3605   20.5476 O   0  0  0  0  0  0  0  0  0  0  0  0
  -30.4432  -18.3525   20.0014 O   0  0  0  0  0  0  0  0  0  0  0  0
  -27.6471  -23.1222   18.9867 O   0  0  0  0  0  0  0  0  0  0  0  0
  -27.3162  -24.9574   16.9239 O   0  0  0  0  0  0  0  0  0  0  0  0
  -17.3524  -17.9782   20.8538 F   0  0  0  0  0  0  0  0  0  0  0  0
  -21.0191  -14.9978   20.5742 F   0  0  0  0  0  0  0  0  0  0  0  0
  1  2  1  0  0  0  0
  1  5  2  0  0  0  0
  2  6  2  0  0  0  0
  3  8  2  0  0  0  0
  3 15  1  0  0  0  0
  4  9  1  0  0  0  0
  4 15  2  0  0  0  0
  5 17  1  0  0  0  0
  6 19  1  0  0  0  0
  7 10  2  0  0  0  0
  7 18  1  0  0  0  0
  8 21  1  0  0  0  0
  9 21  2  0  0  0  0
 10 22  1  0  0  0  0
 11 12  2  0  0  0  0
 11 23  1  0  0  0  0
 12 24  1  0  0  0  0
 13 20  1  0  0  0  0
 13 22  2  0  0  0  0
 14 24  2  0  0  0  0
 14 25  1  0  0  0  0
 15 26  1  0  0  0  0
 16 26  1  0  0  0  0
 16 27  2  0  0  0  0
 16 28  1  0  0  0  0
 17 19  2  0  0  0  0
 17 34  1  0  0  0  0
 18 20  2  0  0  0  0
 18 35  1  0  0  0  0
 19 43  1  0  0  0  0
 20 36  1  0  0  0  0
 21 90  1  0  0  0  0
 22 91  1  0  0  0  0
 23 25  2  0  0  0  0
 23 90  1  0  0  0  0
 24 98  1  0  0  0  0
 25 99  1  0  0  0  0
 26 73  2  0  0  0  0
 27 74  1  0  0  0  0
 27 77  1  0  0  0  0
 28 78  1  0  0  0  0
 28 84  2  0  0  0  0
 29 44  1  0  0  0  0
 29 79  1  0  0  0  0
 29 85  2  0  0  0  0
 30 70  1  0  0  0  0
 30 75  1  0  0  0  0
 30 86  2  0  0  0  0
 31 51  1  0  0  0  0
 31 80  1  0  0  0  0
 31 87  2  0  0  0  0
 32 71  1  0  0  0  0
 32 81  1  0  0  0  0
 32 88  2  0  0  0  0
 33 76  1  0  0  0  0
 33 82  1  0  0  0  0
 33 89  2  0  0  0  0
 34 37  1  0  0  0  0
 35 44  1  0  0  0  0
 36 75  1  0  0  0  0
 37 39  1  0  0  0  0
 38 40  1  0  0  0  0
 38 41  1  0  0  0  0
 39 43  1  0  0  0  0
 40 45  1  0  0  0  0
 41 76  1  0  0  0  0
 42 45  1  0  0  0  0
 42 76  1  0  0  0  0
 43 79  1  0  0  0  0
 44 75  1  0  0  0  0
 45 74  1  0  0  0  0
 46 71  1  0  0  0  0
 47 72  1  0  0  0  0
 48 72  1  0  0  0  0
 49 72  1  0  0  0  0
 50 83  1  0  0  0  0
 51 92  1  0  0  0  0
 52 53  1  0  0  0  0
 52 56  1  0  0  0  0
 53 58  1  0  0  0  0
 54 59  1  0  0  0  0
 54 60  1  0  0  0  0
 55 61  1  0  0  0  0
 55 62  1  0  0  0  0
 56 82  1  0  0  0  0
 57 63  1  0  0  0  0
 57 80  1  0  0  0  0
 58 93  1  0  0  0  0
 59 93  1  0  0  0  0
 60 94  1  0  0  0  0
 61 94  1  0  0  0  0
 62 95  1  0  0  0  0
 63 96  1  0  0  0  0
 64 66  1  0  0  0  0
 64 91  1  0  0  0  0
 65 67  1  0  0  0  0
 65 92  1  0  0  0  0
 66 97  1  0  0  0  0
 67 95  1  0  0  0  0
 68 69  1  0  0  0  0
 68 96  1  0  0  0  0
 69 97  1  0  0  0  0
 70 72  1  0  0  0  0
 70 81  1  0  0  0  0
 71 83  1  0  0  0  0
 73 74  1  0  0  0  0
M  CHG  1  83   1
M  ISO  4  33 100  64 101  82 100  91 101
M  END
> <Batch ID>
0000

> <Smiles>
CNC(C)C(=O)NC(C(=O)N1Cc2cc([101O:1][101CH2:1]COCCOCCNC(=O)COCCOCCCOCCCOCCCC[100NH:0][100C:0](=O)N3CCCC(n4nc(-c5ccc(Oc6ccc(F)cc6F)cc5)c(C(N)=O)c4N)C3)ccc2CC1C(=O)NC1CCCc2ccccc21)C(C)(C)C

> <Shape>
0.283

> <Color>
0.069

> <Negative vol penalty>
0.000

$$$$

  -OEChem-04052315133D

 95102  0     1  0  0  0  0  0999 V2000
  -17.5918  -31.2699   19.8844 C   0  0  0  0  0  0  0  0  0  0  0  0
  -18.9285  -31.5739   20.1165 C   0  0  0  0  0  0  0  0  0  0  0  0
  -24.5985   -9.0655   22.0095 C   0  0  0  0  0  0  0  0  0  0  0  0
  -23.4913   -9.4033   19.8889 C   0  0  0  0  0  0  0  0  0  0  0  0
  -16.9055  -30.4415   20.7697 C   0  0  0  0  0  0  0  0  0  0  0  0
  -19.5825  -31.0401   21.2274 C   0  0  0  0  0  0  0  0  0  0  0  0
  -24.8497  -25.6255   22.9000 C   0  0  0  0  0  0  0  0  0  0  0  0
  -23.4483   -8.4583   22.5134 C   0  0  0  0  0  0  0  0  0  0  0  0
  -22.3411   -8.7961   20.3927 C   0  0  0  0  0  0  0  0  0  0  0  0
  -25.4363  -24.8116   21.9308 C   0  0  0  0  0  0  0  0  0  0  0  0
  -21.9322   -5.4426   22.3141 C   0  0  0  0  0  0  0  0  0  0  0  0
  -22.0872   -4.2605   23.0381 C   0  0  0  0  0  0  0  0  0  0  0  0
  -24.5337  -26.2213   20.1854 C   0  0  0  0  0  0  0  0  0  0  0  0
  -21.0797   -5.3097   24.9671 C   0  0  0  0  0  0  0  0  0  0  0  0
  -24.6200   -9.5380   20.6973 C   0  0  0  0  0  0  0  0  0  0  0  0
  -26.8810   -9.5384   19.5158 C   0  0  0  0  0  0  0  0  0  0  0  0
  -17.5488  -29.9077   21.8986 C   0  0  0  0  0  0  0  0  0  0  0  0
  -24.1148  -26.7505   22.5156 C   0  0  0  0  0  0  0  0  0  0  0  0
  -18.9137  -30.1826   22.1196 C   0  0  0  0  0  0  0  0  0  0  0  0
  -23.9542  -27.0473   21.1522 C   0  0  0  0  0  0  0  0  0  0  0  0
  -22.3196   -8.3236   21.7050 C   0  0  0  0  0  0  0  0  0  0  0  0
  -25.2785  -25.1086   20.5768 C   0  0  0  0  0  0  0  0  0  0  0  0
  -21.3510   -6.5583   22.9166 C   0  0  0  0  0  0  0  0  0  0  0  0
  -21.6610   -4.1940   24.3646 C   0  0  0  0  0  0  0  0  0  0  0  0
  -20.9247   -6.4919   24.2431 C   0  0  0  0  0  0  0  0  0  0  0  0
  -25.8077  -10.1658   20.1764 C   0  0  0  0  0  0  0  0  0  0  0  0
  -27.7499  -10.5614   19.2242 C   0  0  0  0  0  0  0  0  0  0  0  0
  -27.0751   -8.1546   19.1945 C   0  0  0  0  0  0  0  0  0  0  0  0
  -22.1096  -29.7327   23.5937 C   0  0  0  0  0  0  0  0  0  0  0  0
  -23.8596  -30.6382   21.2425 C   0  0  0  0  0  0  0  0  0  0  0  0
  -28.0075  -22.9157   17.7957 C   0  0  0  0  0  0  0  0  0  0  0  0
  -29.6324  -25.5787   19.6622 C   0  0  0  0  0  0  0  0  0  0  0  0
  -26.5197  -31.7997   23.0346 C   0  0  0  0  0  0  0  0  0  0  0  0
  -26.5546  -16.4289   18.5040 C   0  0  0  0  0  0  0  0  0  0  0  0
  -16.7604  -29.0105   22.8198 C   0  0  0  0  0  0  0  0  0  0  0  0
  -23.4139  -27.6206   23.5233 C   0  0  0  0  0  0  0  0  0  0  0  0
  -23.1263  -28.2481   20.7842 C   0  0  0  0  0  0  0  0  0  0  0  0
  -17.4047  -28.8555   24.1936 C   0  0  0  0  0  0  0  0  0  0  0  0
  -28.6103  -14.8694   21.2809 C   0  0  0  0  0  0  0  0  0  0  0  0
  -18.8774  -28.5060   24.0405 C   0  0  0  0  0  0  0  0  0  0  0  0
  -28.6530  -13.4082   20.8337 C   0  0  0  0  0  0  0  0  0  0  0  0
  -28.3785  -15.8267   20.1201 C   0  0  0  0  0  0  0  0  0  0  0  0
  -26.6064  -14.1613   19.5106 C   0  0  0  0  0  0  0  0  0  0  0  0
  -19.6373  -29.6382   23.3379 C   0  0  1  0  0  0  0  0  0  0  0  0
  -23.3902  -29.1071   23.1245 C   0  0  1  0  0  0  0  0  0  0  0  0
  -27.7162  -13.1085   19.6468 C   0  0  2  0  0  0  0  0  0  0  0  0
  -27.7191  -29.6365   23.4581 C   0  0  0  0  0  0  0  0  0  0  0  0
  -22.4518  -33.4444   23.0868 C   0  0  0  0  0  0  0  0  0  0  0  0
  -23.2162  -31.6588   24.6666 C   0  0  0  0  0  0  0  0  0  0  0  0
  -21.7324  -31.0732   22.7488 C   0  0  0  0  0  0  0  0  0  0  0  0
  -30.8473  -24.7944   21.7107 C   0  0  0  0  0  0  0  0  0  0  0  0
  -28.0720  -31.7944   26.2296 C   0  0  0  0  0  0  0  0  0  0  0  0
  -27.8753  -23.8931   18.9499 C   0  0  0  0  0  0  0  0  0  0  0  0
  -28.5391  -25.2359   18.6562 C   0  0  0  0  0  0  0  0  0  0  0  0
  -28.4047  -21.3361   15.5333 C   0  0  0  0  0  0  0  0  0  0  0  0
  -28.0415  -23.3183   19.5995 C   0  0  0  0  0  0  0  0  0  0  0  0
  -28.9717  -22.7495   15.5113 C   0  0  0  0  0  0  0  0  0  0  0  0
  -29.0628  -23.4070   20.7255 C   0  0  0  0  0  0  0  0  0  0  0  0
  -26.6097  -23.1945   20.1062 C   0  0  0  0  0  0  0  0  0  1  0  0
  -29.4795  -20.2661   15.3844 C   0  0  0  0  0  0  0  0  0  0  0  0
  -26.6654  -18.6288   17.6077 C   0  0  0  0  0  0  0  0  0  0  0  0
  -27.5207  -19.8785   17.6879 C   0  0  0  0  0  0  0  0  0  0  0  0
  -28.0460  -19.9743   13.5452 C   0  0  0  0  0  0  0  0  0  0  0  0
  -27.0444  -18.8392   13.4531 C   0  0  0  0  0  0  0  0  0  0  0  0
  -25.7764  -20.4190   16.2087 C   0  0  0  0  0  0  0  0  0  0  0  0
  -25.9679  -20.5100   14.7071 C   0  0  0  0  0  0  0  0  0  0  0  0
  -24.1513  -31.6630   22.3094 C   0  0  1  0  0  0  0  0  0  0  0  0
  -27.5458  -31.0832   23.8938 C   0  0  2  0  0  0  0  0  0  0  0  0
  -22.9068  -31.9748   23.1877 C   0  0  0  0  0  0  0  0  0  0  0  0
  -25.9772  -11.4851   20.2975 N   0  0  0  0  0  0  0  0  0  0  0  0
  -27.1671  -11.6951   19.7091 N   0  0  0  0  0  0  0  0  0  0  0  0
  -23.4476  -29.3726   21.6770 N   0  0  0  0  0  0  0  0  0  0  0  0
  -27.1659  -15.5069   19.3600 N   0  0  0  0  0  0  0  0  0  0  0  0
  -28.9479  -10.5927   18.6028 N   0  0  0  0  0  0  0  0  0  0  0  0
  -26.0835   -7.2368   19.5669 N   0  0  0  0  0  0  0  0  0  0  0  0
  -20.9750  -29.1859   23.0252 N   0  0  0  0  0  0  0  0  0  0  0  0
  -28.7054  -23.4714   16.7335 N   0  0  0  0  0  0  0  0  0  0  0  0
  -25.2988  -31.1594   23.0563 N   0  0  0  0  0  0  0  0  0  0  0  0
  -29.8363  -24.6164   20.6680 N   0  0  0  0  0  0  0  0  0  0  0  0
  -27.1244  -31.0963   25.3232 N   0  3  0  0  0  0  0  0  0  0  0  0
  -28.1052   -7.7420   18.6096 O   0  0  0  0  0  0  0  0  0  0  0  0
  -22.1467  -30.6436   24.4125 O   0  0  0  0  0  0  0  0  0  0  0  0
  -23.9979  -30.9471   20.0556 O   0  0  0  0  0  0  0  0  0  0  0  0
  -27.5472  -21.7775   17.8216 O   0  0  0  0  0  0  0  0  0  0  0  0
  -30.2706  -26.6296   19.5725 O   0  0  0  0  0  0  0  0  0  0  0  0
  -26.7747  -32.8270   22.4099 O   0  0  0  0  0  0  0  0  0  0  0  0
  -25.5389  -16.2015   17.8496 O   0  0  0  0  0  0  0  0  0  0  0  0
  -21.1971   -7.7310   22.1963 O   0  0  0  0  0  0  0  0  0  0  0  0
  -25.8577  -24.3124   19.6359 O   0  0  0  0  0  0  0  0  0  1  0  0
  -27.2205  -17.6262   18.4667 O   0  0  0  0  0  0  0  0  0  0  0  0
  -29.2128  -19.5102   14.2105 O   0  0  0  0  0  0  0  0  0  0  0  0
  -26.9555  -20.8819   16.8559 O   0  0  0  0  0  0  0  0  0  0  0  0
  -25.8586  -19.2093   14.1462 O   0  0  0  0  0  0  0  0  0  0  0  0
  -21.8085   -3.0583   25.0592 F   0  0  0  0  0  0  0  0  0  0  0  0
  -20.3646   -7.5601   24.8269 F   0  0  0  0  0  0  0  0  0  0  0  0
  1  2  1  0  0  0  0
  1  5  2  0  0  0  0
  2  6  2  0  0  0  0
  3  8  2  0  0  0  0
  3 15  1  0  0  0  0
  4  9  1  0  0  0  0
  4 15  2  0  0  0  0
  5 17  1  0  0  0  0
  6 19  1  0  0  0  0
  7 10  2  0  0  0  0
  7 18  1  0  0  0  0
  8 21  1  0  0  0  0
  9 21  2  0  0  0  0
 10 22  1  0  0  0  0
 11 12  2  0  0  0  0
 11 23  1  0  0  0  0
 12 24  1  0  0  0  0
 13 20  1  0  0  0  0
 13 22  2  0  0  0  0
 14 24  2  0  0  0  0
 14 25  1  0  0  0  0
 15 26  1  0  0  0  0
 16 26  1  0  0  0  0
 16 27  2  0  0  0  0
 16 28  1  0  0  0  0
 17 19  2  0  0  0  0
 17 35  1  0  0  0  0
 18 20  2  0  0  0  0
 18 36  1  0  0  0  0
 19 44  1  0  0  0  0
 20 37  1  0  0  0  0
 21 88  1  0  0  0  0
 22 89  1  0  0  0  0
 23 25  2  0  0  0  0
 23 88  1  0  0  0  0
 24 94  1  0  0  0  0
 25 95  1  0  0  0  0
 26 70  2  0  0  0  0
 27 71  1  0  0  0  0
 27 74  1  0  0  0  0
 28 75  1  0  0  0  0
 28 81  2  0  0  0  0
 29 45  1  0  0  0  0
 29 76  1  0  0  0  0
 29 82  2  0  0  0  0
 30 67  1  0  0  0  0
 30 72  1  0  0  0  0
 30 83  2  0  0  0  0
 31 53  1  0  0  0  0
 31 77  1  0  0  0  0
 31 84  2  0  0  0  0
 32 54  1  0  0  0  0
 32 79  1  0  0  0  0
 32 85  2  0  0  0  0
 33 68  1  0  0  0  0
 33 78  1  0  0  0  0
 33 86  2  0  0  0  0
 34 73  1  0  0  0  0
 34 87  2  0  0  0  0
 34 90  1  0  0  0  0
 35 38  1  0  0  0  0
 36 45  1  0  0  0  0
 37 72  1  0  0  0  0
 38 40  1  0  0  0  0
 39 41  1  0  0  0  0
 39 42  1  0  0  0  0
 40 44  1  0  0  0  0
 41 46  1  0  0  0  0
 42 73  1  0  0  0  0
 43 46  1  0  0  0  0
 43 73  1  0  0  0  0
 44 76  1  0  0  0  0
 45 72  1  0  0  0  0
 46 71  1  0  0  0  0
 47 68  1  0  0  0  0
 48 69  1  0  0  0  0
 49 69  1  0  0  0  0
 50 69  1  0  0  0  0
 51 79  1  0  0  0  0
 52 80  1  0  0  0  0
 53 54  1  0  0  0  0
 55 57  1  0  0  0  0
 55 60  1  0  0  0  0
 56 58  1  0  0  0  0
 56 59  1  0  0  0  0
 57 77  1  0  0  0  0
 58 79  1  0  0  0  0
 59 89  1  0  0  0  0
 60 91  1  0  0  0  0
 61 62  1  0  0  0  0
 61 90  1  0  0  0  0
 62 92  1  0  0  0  0
 63 64  1  0  0  0  0
 63 91  1  0  0  0  0
 64 93  1  0  0  0  0
 65 66  1  0  0  0  0
 65 92  1  0  0  0  0
 66 93  1  0  0  0  0
 67 69  1  0  0  0  0
 67 78  1  0  0  0  0
 68 80  1  0  0  0  0
 70 71  1  0  0  0  0
M  CHG  1  80   1
M  ISO  4  34 100  59 101  89 101  90 100
M  END
> <Batch ID>
0000

> <Smiles>
CNC(C)C(=O)NC(C(=O)N1Cc2cc([101O:1][101CH2:1]CCN(C)C(=O)CCC(=O)NCCCOCCOCCOCC[100O:0][100C:0](=O)N3CCCC(n4nc(-c5ccc(Oc6ccc(F)cc6F)cc5)c(C(N)=O)c4N)C3)ccc2CC1C(=O)NC1CCCc2ccccc21)C(C)(C)C

> <Shape>
0.265

> <Color>
0.081

> <Negative vol penalty>
0.000

$$$$

  -OEChem-04052315133D

 81 89  0     1  0  0  0  0  0999 V2000
  -20.2839  -34.7522   21.8265 C   0  0  0  0  0  0  0  0  0  0  0  0
  -21.5197  -34.2352   21.4512 C   0  0  0  0  0  0  0  0  0  0  0  0
  -26.0219  -22.7170   17.5877 C   0  0  0  0  0  0  0  0  0  0  0  0
  -26.4309  -12.2361   20.7809 C   0  0  0  0  0  0  0  0  0  0  0  0
  -24.7691  -13.6634   19.7618 C   0  0  0  0  0  0  0  0  0  0  0  0
  -19.4932  -34.0662   22.7474 C   0  0  0  0  0  0  0  0  0  0  0  0
  -21.9660  -33.0322   21.9973 C   0  0  0  0  0  0  0  0  0  0  0  0
  -25.3247  -28.7415   19.2020 C   0  0  0  0  0  0  0  0  0  0  0  0
  -26.2981  -21.6776   18.4758 C   0  0  0  0  0  0  0  0  0  0  0  0
  -26.9659  -23.7216   17.3744 C   0  0  0  0  0  0  0  0  0  0  0  0
  -25.4186  -11.4380   21.3138 C   0  0  0  0  0  0  0  0  0  0  0  0
  -23.7569  -12.8653   20.2947 C   0  0  0  0  0  0  0  0  0  0  0  0
  -26.6900  -28.4597   19.2199 C   0  0  0  0  0  0  0  0  0  0  0  0
  -23.2780   -8.8176   22.6428 C   0  0  0  0  0  0  0  0  0  0  0  0
  -23.4223   -7.4339   22.5422 C   0  0  0  0  0  0  0  0  0  0  0  0
  -26.3184  -26.7974   20.9281 C   0  0  0  0  0  0  0  0  0  0  0  0
  -28.4623  -22.6471   18.9375 C   0  0  0  0  0  0  0  0  0  0  0  0
  -23.4834   -7.6153   20.1338 C   0  0  0  0  0  0  0  0  0  0  0  0
  -26.1061  -13.3488   20.0049 C   0  0  0  0  0  0  0  0  0  0  0  0
  -27.7860  -14.0226   18.2072 C   0  0  0  0  0  0  0  0  0  0  0  0
  -19.9257  -32.8494   23.2978 C   0  0  0  0  0  0  0  0  0  0  0  0
  -24.4460  -28.0598   20.0562 C   0  0  0  0  0  0  0  0  0  0  0  0
  -21.1808  -32.3300   22.9274 C   0  0  0  0  0  0  0  0  0  0  0  0
  -24.9420  -27.0706   20.9172 C   0  0  0  0  0  0  0  0  0  0  0  0
  -27.5183  -21.6426   19.1507 C   0  0  0  0  0  0  0  0  0  0  0  0
  -24.0816  -11.7526   21.0707 C   0  0  0  0  0  0  0  0  0  0  0  0
  -27.1874  -27.4896   20.0851 C   0  0  0  0  0  0  0  0  0  0  0  0
  -28.1861  -23.6866   18.0493 C   0  0  0  0  0  0  0  0  0  0  0  0
  -23.2362   -9.6002   21.4888 C   0  0  0  0  0  0  0  0  0  0  0  0
  -23.5251   -6.8328   21.2877 C   0  0  0  0  0  0  0  0  0  0  0  0
  -23.3389   -8.9990   20.2344 C   0  0  0  0  0  0  0  0  0  0  0  0
  -27.1513  -14.1740   19.4546 C   0  0  0  0  0  0  0  0  0  0  0  0
  -28.6968  -15.0495   18.1585 C   0  0  0  0  0  0  0  0  0  0  0  0
  -27.5714  -13.0414   17.1840 C   0  0  0  0  0  0  0  0  0  0  0  0
  -22.4982  -28.9156   22.4178 C   0  0  0  0  0  0  0  0  0  0  0  0
  -21.6049  -25.7999   22.2876 C   0  0  0  0  0  0  0  0  0  0  0  0
  -22.3957  -22.5927   21.4301 C   0  0  0  0  0  0  0  0  0  0  0  0
  -28.9596  -20.4016   20.8026 C   0  0  0  0  0  0  0  0  0  0  0  0
  -19.0570  -32.1679   24.3253 C   0  0  0  0  0  0  0  0  0  0  0  0
  -22.9723  -28.3566   20.0056 C   0  0  0  0  0  0  0  0  0  0  0  0
  -24.0377  -26.2961   21.8397 C   0  0  0  0  0  0  0  0  0  0  0  0
  -19.4370  -30.7106   24.5741 C   0  0  0  0  0  0  0  0  0  0  0  0
  -31.3884  -17.8059   21.0031 C   0  0  0  0  0  0  0  0  0  0  0  0
  -20.9465  -30.5745   24.7465 C   0  0  0  0  0  0  0  0  0  0  0  0
  -30.6370  -16.5674   20.5095 C   0  0  0  0  0  0  0  0  0  0  0  0
  -30.4866  -18.7272   21.8225 C   0  0  0  0  0  0  0  0  0  0  0  0
  -28.4820  -17.8777   20.6696 C   0  0  0  0  0  0  0  0  0  0  0  0
  -21.6886  -31.0154   23.4790 C   0  0  1  0  0  0  0  0  0  0  0  0
  -22.2394  -27.9635   21.2846 C   0  0  1  0  0  0  0  0  0  0  0  0
  -29.3322  -16.9515   19.7847 C   0  0  2  0  0  0  0  0  0  0  0  0
  -21.4790  -20.2572   21.4801 C   0  0  0  0  0  0  0  0  0  0  0  0
  -22.1896  -25.6371   25.2778 C   0  0  0  0  0  0  0  0  0  0  0  0
  -22.1828  -23.1419   25.0724 C   0  0  0  0  0  0  0  0  0  0  0  0
  -20.1168  -24.4399   24.5534 C   0  0  0  0  0  0  0  0  0  0  0  0
  -22.5022  -22.3636   18.4813 C   0  0  0  0  0  0  0  0  0  0  0  0
  -30.4184  -26.4363   18.8350 C   0  0  0  0  0  0  0  0  0  0  0  0
  -29.2392  -27.3951   18.8863 C   0  0  0  0  0  0  0  0  0  1  0  0
  -29.9755  -24.9845   18.9264 C   0  0  0  0  0  0  0  0  0  0  0  0
  -22.0700  -24.5258   22.9504 C   0  0  1  0  0  0  0  0  0  0  0  0
  -21.6209  -21.5341   20.6663 C   0  0  2  0  0  0  0  0  0  0  0  0
  -21.6573  -24.4520   24.4476 C   0  0  0  0  0  0  0  0  0  0  0  0
  -27.6194  -15.2150   20.1483 N   0  0  0  0  0  0  0  0  0  0  0  0
  -28.5579  -15.7270   19.3340 N   0  0  0  0  0  0  0  0  0  0  0  0
  -22.6055  -26.6270   21.7578 N   0  0  0  0  0  0  0  0  0  0  0  0
  -29.2723  -19.0521   21.0709 N   0  0  0  0  0  0  0  0  0  0  0  0
  -29.5949  -15.4300   17.2252 N   0  0  0  0  0  0  0  0  0  0  0  0
  -26.5968  -12.0569   17.3962 N   0  0  0  0  0  0  0  0  0  0  0  0
  -27.7986  -20.5863   20.0526 N   0  0  0  0  0  0  0  0  0  0  0  0
  -21.6207  -29.9819   22.4683 N   0  0  0  0  0  0  0  0  0  0  0  0
  -21.5571  -23.4305   22.1345 N   0  0  0  0  0  0  0  0  0  0  0  0
  -22.3159  -21.2033   19.3902 N   0  3  0  0  0  0  0  0  0  0  0  0
  -28.2361  -13.0281   16.1202 O   0  0  0  0  0  0  0  0  0  0  0  0
  -23.4244  -28.6981   23.1901 O   0  0  0  0  0  0  0  0  0  0  0  0
  -20.3978  -26.0486   22.2352 O   0  0  0  0  0  0  0  0  0  0  0  0
  -23.6223  -22.6666   21.4073 O   0  0  0  0  0  0  0  0  0  0  0  0
  -29.6841  -21.3240   21.1851 O   0  0  0  0  0  0  0  0  0  0  0  0
  -23.0936  -10.9739   21.5903 O   0  0  0  0  0  0  0  0  0  0  0  0
  -28.5197  -27.2131   20.1052 O   0  0  0  0  0  0  0  0  0  1  0  0
  -29.1137  -24.6737   17.8399 O   0  0  0  0  0  0  0  0  0  0  0  0
  -23.6653   -5.5042   21.1914 F   0  0  0  0  0  0  0  0  0  0  0  0
  -23.3007   -9.7458   19.1223 F   0  0  0  0  0  0  0  0  0  0  0  0
  1  2  1  0  0  0  0
  1  6  2  0  0  0  0
  2  7  2  0  0  0  0
  3  9  1  0  0  0  0
  3 10  2  0  0  0  0
  4 11  2  0  0  0  0
  4 19  1  0  0  0  0
  5 12  1  0  0  0  0
  5 19  2  0  0  0  0
  6 21  1  0  0  0  0
  7 23  1  0  0  0  0
  8 13  2  0  0  0  0
  8 22  1  0  0  0  0
  9 25  2  0  0  0  0
 10 28  1  0  0  0  0
 11 26  1  0  0  0  0
 12 26  2  0  0  0  0
 13 27  1  0  0  0  0
 14 15  2  0  0  0  0
 14 29  1  0  0  0  0
 15 30  1  0  0  0  0
 16 24  1  0  0  0  0
 16 27  2  0  0  0  0
 17 25  1  0  0  0  0
 17 28  2  0  0  0  0
 18 30  2  0  0  0  0
 18 31  1  0  0  0  0
 19 32  1  0  0  0  0
 20 32  1  0  0  0  0
 20 33  2  0  0  0  0
 20 34  1  0  0  0  0
 21 23  2  0  0  0  0
 21 39  1  0  0  0  0
 22 24  2  0  0  0  0
 22 40  1  0  0  0  0
 23 48  1  0  0  0  0
 24 41  1  0  0  0  0
 25 68  1  0  0  0  0
 26 77  1  0  0  0  0
 27 78  1  0  0  0  0
 28 79  1  0  0  0  0
 29 31  2  0  0  0  0
 29 77  1  0  0  0  0
 30 80  1  0  0  0  0
 31 81  1  0  0  0  0
 32 62  2  0  0  0  0
 33 63  1  0  0  0  0
 33 66  1  0  0  0  0
 34 67  1  0  0  0  0
 34 72  2  0  0  0  0
 35 49  1  0  0  0  0
 35 69  1  0  0  0  0
 35 73  2  0  0  0  0
 36 59  1  0  0  0  0
 36 64  1  0  0  0  0
 36 74  2  0  0  0  0
 37 60  1  0  0  0  0
 37 70  1  0  0  0  0
 37 75  2  0  0  0  0
 38 65  1  0  0  0  0
 38 68  1  0  0  0  0
 38 76  2  0  0  0  0
 39 42  1  0  0  0  0
 40 49  1  0  0  0  0
 41 64  1  0  0  0  0
 42 44  1  0  0  0  0
 43 45  1  0  0  0  0
 43 46  1  0  0  0  0
 44 48  1  0  0  0  0
 45 50  1  0  0  0  0
 46 65  1  0  0  0  0
 47 50  1  0  0  0  0
 47 65  1  0  0  0  0
 48 69  1  0  0  0  0
 49 64  1  0  0  0  0
 50 63  1  0  0  0  0
 51 60  1  0  0  0  0
 52 61  1  0  0  0  0
 53 61  1  0  0  0  0
 54 61  1  0  0  0  0
 55 71  1  0  0  0  0
 56 57  1  0  0  0  0
 56 58  1  0  0  0  0
 57 78  1  0  0  0  0
 58 79  1  0  0  0  0
 59 61  1  0  0  0  0
 59 70  1  0  0  0  0
 60 71  1  0  0  0  0
 62 63  1  0  0  0  0
M  CHG  1  71   1
M  ISO  4  38 100  57 101  68 100  78 101
M  END
> <Batch ID>
0000

> <Smiles>
CNC(C)C(=O)NC(C(=O)N1Cc2cc([101O:1][101CH2:1]CCOc3cccc([100NH:0][100C:0](=O)N4CCCC(n5nc(-c6ccc(Oc7ccc(F)cc7F)cc6)c(C(N)=O)c5N)C4)c3)ccc2CC1C(=O)NC1CCCc2ccccc21)C(C)(C)C

> <Shape>
0.241

> <Color>
0.090

> <Negative vol penalty>
0.000

$$$$
