
  -OEChem-04052315163D

 74 81  0     1  0  0  0  0  0999 V2000
  -28.2370  -24.4861   17.1417 C   0  0  0  0  0  0  0  0  0  0  0  0
  -27.0905  -25.1970   17.4776 C   0  0  0  0  0  0  0  0  0  0  0  0
  -23.9976  -17.2212   19.7044 C   0  0  0  0  0  0  0  0  0  0  0  0
  -21.6114  -17.5982   19.7372 C   0  0  0  0  0  0  0  0  0  0  0  0
  -29.3729  -24.5840   17.9426 C   0  0  0  0  0  0  0  0  0  0  0  0
  -27.0832  -26.0153   18.6078 C   0  0  0  0  0  0  0  0  0  0  0  0
  -23.1087  -28.8301   19.3032 C   0  0  0  0  0  0  0  0  0  0  0  0
  -23.7896  -15.8777   20.0166 C   0  0  0  0  0  0  0  0  0  0  0  0
  -21.4034  -16.2547   20.0494 C   0  0  0  0  0  0  0  0  0  0  0  0
  -21.8764  -28.3102   19.6969 C   0  0  0  0  0  0  0  0  0  0  0  0
  -23.8696  -12.2693   20.4498 C   0  0  0  0  0  0  0  0  0  0  0  0
  -24.5945  -11.3172   19.7332 C   0  0  0  0  0  0  0  0  0  0  0  0
  -22.2606  -29.1131   21.9389 C   0  0  0  0  0  0  0  0  0  0  0  0
  -23.5960  -12.1033   17.6784 C   0  0  0  0  0  0  0  0  0  0  0  0
  -22.9085  -18.0814   19.5647 C   0  0  0  0  0  0  0  0  0  0  0  0
  -23.1955  -20.0430   17.9592 C   0  0  0  0  0  0  0  0  0  0  0  0
  -29.3747  -25.3944   19.0898 C   0  0  0  0  0  0  0  0  0  0  0  0
  -23.9324  -29.4870   20.2287 C   0  0  0  0  0  0  0  0  0  0  0  0
  -28.2273  -26.1461   19.4155 C   0  0  0  0  0  0  0  0  0  0  0  0
  -23.5017  -29.6426   21.5540 C   0  0  0  0  0  0  0  0  0  0  0  0
  -22.4925  -15.3945   20.1891 C   0  0  0  0  0  0  0  0  0  0  0  0
  -21.4534  -28.4491   21.0155 C   0  0  0  0  0  0  0  0  0  0  0  0
  -23.0077  -13.1384   19.7807 C   0  0  0  0  0  0  0  0  0  0  0  0
  -24.4578  -11.2342   18.3475 C   0  0  0  0  0  0  0  0  0  0  0  0
  -22.8709  -13.0554   18.3951 C   0  0  0  0  0  0  0  0  0  0  0  0
  -23.1227  -19.4695   19.2428 C   0  0  0  0  0  0  0  0  0  0  0  0
  -23.4090  -21.3796   18.1920 C   0  0  0  0  0  0  0  0  0  0  0  0
  -23.0803  -19.4229   16.6716 C   0  0  0  0  0  0  0  0  0  0  0  0
  -26.8422  -28.9749   21.4010 C   0  0  0  0  0  0  0  0  0  0  0  0
  -26.3567  -31.8553   22.8116 C   0  0  0  0  0  0  0  0  0  0  0  0
  -24.1398  -34.1868   23.9501 C   0  0  0  0  0  0  0  0  0  0  0  0
  -22.1653  -24.9610   22.8264 C   0  0  0  0  0  0  0  0  0  0  0  0
  -30.6340  -25.4698   19.9166 C   0  0  0  0  0  0  0  0  0  0  0  0
  -25.2470  -30.0656   19.7819 C   0  0  0  0  0  0  0  0  0  0  0  0
  -24.3398  -30.3572   22.5814 C   0  0  0  0  0  0  0  0  0  0  0  0
  -30.3902  -26.0052   21.3238 C   0  0  0  0  0  0  0  0  0  0  0  0
  -25.3644  -24.3589   21.3844 C   0  0  0  0  0  0  0  0  0  0  0  0
  -29.5719  -27.2861   21.2580 C   0  0  0  0  0  0  0  0  0  0  0  0
  -25.1592  -23.0892   20.5562 C   0  0  0  0  0  0  0  0  0  0  0  0
  -24.5549  -24.3253   22.6788 C   0  0  0  0  0  0  0  0  0  0  0  0
  -22.9098  -22.7899   21.6739 C   0  0  0  0  0  0  0  0  0  0  0  0
  -28.1862  -27.0186   20.6570 C   0  0  1  0  0  0  0  0  0  0  0  0
  -26.2328  -30.2646   20.9290 C   0  0  1  0  0  0  0  0  0  0  0  0
  -23.6624  -22.8016   20.3323 C   0  0  2  0  0  0  0  0  0  0  0  0
  -24.0417  -36.4211   25.0884 C   0  0  0  0  0  0  0  0  0  0  0  0
  -27.0386  -30.5268   25.4724 C   0  0  0  0  0  0  0  0  0  0  0  0
  -26.0199  -32.4953   26.6367 C   0  0  0  0  0  0  0  0  0  0  0  0
  -28.0109  -32.8106   25.1672 C   0  0  0  0  0  0  0  0  0  0  0  0
  -22.7535  -35.4283   21.6488 C   0  0  0  0  0  0  0  0  0  0  0  0
  -18.9463  -25.9462   21.6711 C   0  0  0  0  0  0  0  0  0  0  0  0
  -19.7364  -25.4678   22.8817 C   0  0  0  0  0  0  0  0  0  0  0  0
  -19.7817  -26.7851   20.7116 C   0  0  0  0  0  0  0  0  0  1  0  0
  -25.7630  -32.3184   24.1200 C   0  0  1  0  0  0  0  0  0  0  0  0
  -24.0705  -35.6906   23.7549 C   0  0  2  0  0  0  0  0  0  0  0  0
  -26.6930  -32.0226   25.3304 C   0  0  0  0  0  0  0  0  0  0  0  0
  -23.2776  -20.3682   20.2186 N   0  0  0  0  0  0  0  0  0  0  0  0
  -23.4499  -21.5200   19.5480 N   0  0  0  0  0  0  0  0  0  0  0  0
  -25.6199  -30.9000   22.0973 N   0  0  0  0  0  0  0  0  0  0  0  0
  -23.1441  -24.0498   22.3967 N   0  0  0  0  0  0  0  0  0  0  0  0
  -23.5640  -22.4369   17.3670 N   0  0  0  0  0  0  0  0  0  0  0  0
  -22.8617  -18.0397   16.6133 N   0  0  0  0  0  0  0  0  0  0  0  0
  -27.5233  -28.2817   20.4185 N   0  0  0  0  0  0  0  0  0  0  0  0
  -25.4410  -33.7306   23.9450 N   0  0  0  0  0  0  0  0  0  0  0  0
  -20.8535  -24.6272   22.5125 N   0  0  0  0  0  0  0  0  0  0  0  0
  -22.8445  -36.0579   22.9913 N   0  3  0  0  0  0  0  0  0  0  0  0
  -23.1849  -20.0734   15.6042 O   0  0  0  0  0  0  0  0  0  0  0  0
  -26.7060  -28.6345   22.5703 O   0  0  0  0  0  0  0  0  0  0  0  0
  -27.4311  -32.3292   22.4336 O   0  0  0  0  0  0  0  0  0  0  0  0
  -23.1399  -33.4873   24.0965 O   0  0  0  0  0  0  0  0  0  0  0  0
  -22.4405  -25.9981   23.4394 O   0  0  0  0  0  0  0  0  0  0  0  0
  -22.2892  -14.0836   20.4935 O   0  0  0  0  0  0  0  0  0  0  0  0
  -20.2514  -27.9420   21.4025 O   0  0  0  0  0  0  0  0  0  1  0  0
  -25.1552  -10.3209   17.6593 F   0  0  0  0  0  0  0  0  0  0  0  0
  -22.0454  -13.8884   17.7467 F   0  0  0  0  0  0  0  0  0  0  0  0
  1  2  1  0  0  0  0
  1  5  2  0  0  0  0
  2  6  2  0  0  0  0
  3  8  2  0  0  0  0
  3 15  1  0  0  0  0
  4  9  1  0  0  0  0
  4 15  2  0  0  0  0
  5 17  1  0  0  0  0
  6 19  1  0  0  0  0
  7 10  2  0  0  0  0
  7 18  1  0  0  0  0
  8 21  1  0  0  0  0
  9 21  2  0  0  0  0
 10 22  1  0  0  0  0
 11 12  2  0  0  0  0
 11 23  1  0  0  0  0
 12 24  1  0  0  0  0
 13 20  1  0  0  0  0
 13 22  2  0  0  0  0
 14 24  2  0  0  0  0
 14 25  1  0  0  0  0
 15 26  1  0  0  0  0
 16 26  1  0  0  0  0
 16 27  2  0  0  0  0
 16 28  1  0  0  0  0
 17 19  2  0  0  0  0
 17 33  1  0  0  0  0
 18 20  2  0  0  0  0
 18 34  1  0  0  0  0
 19 42  1  0  0  0  0
 20 35  1  0  0  0  0
 21 71  1  0  0  0  0
 22 72  1  0  0  0  0
 23 25  2  0  0  0  0
 23 71  1  0  0  0  0
 24 73  1  0  0  0  0
 25 74  1  0  0  0  0
 26 56  2  0  0  0  0
 27 57  1  0  0  0  0
 27 60  1  0  0  0  0
 28 61  1  0  0  0  0
 28 66  2  0  0  0  0
 29 43  1  0  0  0  0
 29 62  1  0  0  0  0
 29 67  2  0  0  0  0
 30 53  1  0  0  0  0
 30 58  1  0  0  0  0
 30 68  2  0  0  0  0
 31 54  1  0  0  0  0
 31 63  1  0  0  0  0
 31 69  2  0  0  0  0
 32 59  1  0  0  0  0
 32 64  1  0  0  0  0
 32 70  2  0  0  0  0
 33 36  1  0  0  0  0
 34 43  1  0  0  0  0
 35 58  1  0  0  0  0
 36 38  1  0  0  0  0
 37 39  1  0  0  0  0
 37 40  1  0  0  0  0
 38 42  1  0  0  0  0
 39 44  1  0  0  0  0
 40 59  1  0  0  0  0
 41 44  1  0  0  0  0
 41 59  1  0  0  0  0
 42 62  1  0  0  0  0
 43 58  1  0  0  0  0
 44 57  1  0  0  0  0
 45 54  1  0  0  0  0
 46 55  1  0  0  0  0
 47 55  1  0  0  0  0
 48 55  1  0  0  0  0
 49 65  1  0  0  0  0
 50 51  1  0  0  0  0
 50 52  1  0  0  0  0
 51 64  1  0  0  0  0
 52 72  1  0  0  0  0
 53 55  1  0  0  0  0
 53 63  1  0  0  0  0
 54 65  1  0  0  0  0
 56 57  1  0  0  0  0
M  CHG  1  65   1
M  ISO  4  32 100  52 101  64 100  72 101
M  END
> <Batch ID>
0001

> <Smiles>
CNC(C)C(=O)NC(C(=O)N1Cc2cc([101O:1][101CH2:1]CC[100NH:0][100C:0](=O)N3CCCC(n4nc(-c5ccc(Oc6ccc(F)cc6F)cc5)c(C(N)=O)c4N)C3)ccc2CC1C(=O)NC1CCCc2ccccc21)C(C)(C)C

> <Shape>
0.222

> <Color>
0.068

> <Negative vol penalty>
0.000

$$$$

  -OEChem-04052315163D

 84 93  0     1  0  0  0  0  0999 V2000
  -19.3010  -27.8877   22.2904 C   0  0  0  0  0  0  0  0  0  0  0  0
  -32.3697  -14.7666   21.0404 C   0  0  0  0  0  0  0  0  0  0  0  0
  -31.6123  -15.9312   20.9660 C   0  0  0  0  0  0  0  0  0  0  0  0
  -18.8929  -26.9248   21.3745 C   0  0  0  0  0  0  0  0  0  0  0  0
  -20.4997  -27.7351   22.9888 C   0  0  0  0  0  0  0  0  0  0  0  0
  -30.5910  -25.5139   17.9964 C   0  0  0  0  0  0  0  0  0  0  0  0
  -28.3230  -24.7656   17.6312 C   0  0  0  0  0  0  0  0  0  0  0  0
  -31.8183  -13.5509   20.6380 C   0  0  0  0  0  0  0  0  0  0  0  0
  -30.3033  -15.8809   20.4881 C   0  0  0  0  0  0  0  0  0  0  0  0
  -25.5061  -19.2991   22.4111 C   0  0  0  0  0  0  0  0  0  0  0  0
  -19.6668  -25.7839   21.1290 C   0  0  0  0  0  0  0  0  0  0  0  0
  -31.0714  -24.3579   17.3811 C   0  0  0  0  0  0  0  0  0  0  0  0
  -28.8034  -23.6097   17.0158 C   0  0  0  0  0  0  0  0  0  0  0  0
  -24.8947  -20.4520   21.9204 C   0  0  0  0  0  0  0  0  0  0  0  0
  -30.1067  -20.6387   17.9673 C   0  0  0  0  0  0  0  0  0  0  0  0
  -29.5211  -19.4238   18.3232 C   0  0  0  0  0  0  0  0  0  0  0  0
  -23.2884  -19.0915   20.7426 C   0  0  0  0  0  0  0  0  0  0  0  0
  -28.8495  -19.0752   16.0287 C   0  0  0  0  0  0  0  0  0  0  0  0
  -21.2882  -26.5940   22.7530 C   0  0  0  0  0  0  0  0  0  0  0  0
  -29.2167  -25.7177   18.1215 C   0  0  0  0  0  0  0  0  0  0  0  0
  -28.4140  -28.1390   18.1403 C   0  0  0  0  0  0  0  0  0  0  0  0
  -30.4986  -13.4842   20.1639 C   0  0  0  0  0  0  0  0  0  0  0  0
  -25.0190  -18.0310   22.0626 C   0  0  0  0  0  0  0  0  0  0  0  0
  -29.7342  -14.6634   20.0777 C   0  0  0  0  0  0  0  0  0  0  0  0
  -23.8925  -17.9243   21.2341 C   0  0  0  0  0  0  0  0  0  0  0  0
  -20.8744  -25.6277   21.8308 C   0  0  0  0  0  0  0  0  0  0  0  0
  -30.1777  -23.4059   16.8908 C   0  0  0  0  0  0  0  0  0  0  0  0
  -23.7871  -20.3482   21.0842 C   0  0  0  0  0  0  0  0  0  0  0  0
  -30.0637  -21.0719   16.6421 C   0  0  0  0  0  0  0  0  0  0  0  0
  -28.8926  -18.6420   17.3540 C   0  0  0  0  0  0  0  0  0  0  0  0
  -29.4351  -20.2902   15.6728 C   0  0  0  0  0  0  0  0  0  0  0  0
  -28.7198  -26.9113   18.7575 C   0  0  0  0  0  0  0  0  0  0  0  0
  -22.5103  -26.1176   23.2505 C   0  0  0  0  0  0  0  0  0  0  0  0
  -27.9827  -28.9419   19.1679 C   0  0  0  0  0  0  0  0  0  0  0  0
  -28.5109  -28.5197   16.7614 C   0  0  0  0  0  0  0  0  0  0  0  0
  -26.1547  -15.4442   20.5579 C   0  0  0  0  0  0  0  0  0  0  0  0
  -22.0256  -23.4464   21.1418 C   0  0  0  0  0  0  0  0  0  0  0  0
  -23.2128  -14.2327   21.5227 C   0  0  0  0  0  0  0  0  0  0  0  0
  -24.3009  -11.0976   20.7310 C   0  0  0  0  0  0  0  0  0  0  0  0
  -25.5897  -27.6002   24.5208 C   0  0  0  0  0  0  0  0  0  0  0  0
  -29.9618  -12.1547   19.6959 C   0  0  0  0  0  0  0  0  0  0  0  0
  -25.6748  -16.8001   22.6274 C   0  0  0  0  0  0  0  0  0  0  0  0
  -23.3294  -16.5873   20.8341 C   0  0  0  0  0  0  0  0  0  0  0  0
  -28.4422  -12.1275   19.5536 C   0  0  0  0  0  0  0  0  0  0  0  0
  -28.4969  -29.6300   23.8661 C   0  0  0  0  0  0  0  0  0  0  0  0
  -27.9529  -13.3687   18.8141 C   0  0  0  0  0  0  0  0  0  0  0  0
  -28.8769  -29.2418   22.4377 C   0  0  0  0  0  0  0  0  0  0  0  0
  -27.9205  -28.4441   24.6331 C   0  0  0  0  0  0  0  0  0  0  0  0
  -27.1291  -27.4081   22.5218 C   0  0  0  0  0  0  0  0  0  0  0  0
  -28.3024  -14.6455   19.5881 C   0  0  1  0  0  0  0  0  0  0  0  0
  -25.3706  -15.5293   21.8367 C   0  0  1  0  0  0  0  0  0  0  0  0
  -27.6896  -28.5877   21.7088 C   0  0  2  0  0  0  0  0  0  0  0  0
  -23.6624   -8.6797   20.9396 C   0  0  0  0  0  0  0  0  0  0  0  0
  -24.0213  -14.2764   24.4637 C   0  0  0  0  0  0  0  0  0  0  0  0
  -24.2846  -11.7890   24.3553 C   0  0  0  0  0  0  0  0  0  0  0  0
  -22.0526  -12.8242   23.9442 C   0  0  0  0  0  0  0  0  0  0  0  0
  -24.2243  -10.7444   17.7936 C   0  0  0  0  0  0  0  0  0  0  0  0
  -23.3841  -26.7497   24.2556 C   0  0  0  0  0  0  0  0  0  0  0  0
  -23.2502  -22.6405   21.4209 C   0  0  0  0  0  0  0  0  0  1  0  0
  -23.8652  -13.0514   22.1963 C   0  0  1  0  0  0  0  0  0  0  0  0
  -23.5999   -9.9251   20.0690 C   0  0  2  0  0  0  0  0  0  0  0  0
  -23.5704  -13.0021   23.7221 C   0  0  0  0  0  0  0  0  0  0  0  0
  -28.5015  -26.9280   20.0751 N   0  0  0  0  0  0  0  0  0  0  0  0
  -22.8680  -24.9568   22.7136 N   0  0  0  0  0  0  0  0  0  0  0  0
  -21.8689  -24.6511   21.8421 N   0  0  0  0  0  0  0  0  0  0  0  0
  -28.0540  -28.1761   20.2943 N   0  0  0  0  0  0  0  0  0  0  0  0
  -23.9508  -15.4224   21.4775 N   0  0  0  0  0  0  0  0  0  0  0  0
  -26.8212  -27.8218   23.8964 N   0  0  0  0  0  0  0  0  0  0  0  0
  -27.5533  -30.2211   19.2088 N   0  0  0  0  0  0  0  0  0  0  0  0
  -28.9730  -27.5724   15.8377 N   0  0  0  0  0  0  0  0  0  0  0  0
  -27.3868  -14.8333   20.6930 N   0  0  0  0  0  0  0  0  0  0  0  0
  -23.4242  -11.8691   21.4641 N   0  0  0  0  0  0  0  0  0  0  0  0
  -24.2363   -9.6143   18.7578 N   0  3  0  0  0  0  0  0  0  0  0  0
  -28.2127  -29.6711   16.3629 O   0  0  0  0  0  0  0  0  0  0  0  0
  -25.6767  -15.8978   19.5247 O   0  0  0  0  0  0  0  0  0  0  0  0
  -21.1608  -23.1116   20.3407 O   0  0  0  0  0  0  0  0  0  0  0  0
  -22.0772  -14.1089   21.0553 O   0  0  0  0  0  0  0  0  0  0  0  0
  -25.5064  -11.3059   20.6130 O   0  0  0  0  0  0  0  0  0  0  0  0
  -25.3414  -27.8972   25.6880 O   0  0  0  0  0  0  0  0  0  0  0  0
  -30.6462  -22.2779   16.2901 O   0  0  0  0  0  0  0  0  0  0  0  0
  -23.1880  -21.4720   20.6042 O   0  0  0  0  0  0  0  0  0  1  0  0
  -24.6740  -27.0108   23.6901 O   0  0  0  0  0  0  0  0  0  0  0  0
  -28.3316  -17.4747   17.6956 F   0  0  0  0  0  0  0  0  0  0  0  0
  -29.3916  -20.7006   14.3979 F   0  0  0  0  0  0  0  0  0  0  0  0
  1  4  1  0  0  0  0
  1  5  2  0  0  0  0
  2  3  1  0  0  0  0
  2  8  2  0  0  0  0
  3  9  2  0  0  0  0
  4 11  2  0  0  0  0
  5 19  1  0  0  0  0
  6 12  2  0  0  0  0
  6 20  1  0  0  0  0
  7 13  1  0  0  0  0
  7 20  2  0  0  0  0
  8 22  1  0  0  0  0
  9 24  1  0  0  0  0
 10 14  2  0  0  0  0
 10 23  1  0  0  0  0
 11 26  1  0  0  0  0
 12 27  1  0  0  0  0
 13 27  2  0  0  0  0
 14 28  1  0  0  0  0
 15 16  2  0  0  0  0
 15 29  1  0  0  0  0
 16 30  1  0  0  0  0
 17 25  1  0  0  0  0
 17 28  2  0  0  0  0
 18 30  2  0  0  0  0
 18 31  1  0  0  0  0
 19 26  2  0  0  0  0
 19 33  1  0  0  0  0
 20 32  1  0  0  0  0
 21 32  1  0  0  0  0
 21 34  2  0  0  0  0
 21 35  1  0  0  0  0
 22 24  2  0  0  0  0
 22 41  1  0  0  0  0
 23 25  2  0  0  0  0
 23 42  1  0  0  0  0
 24 50  1  0  0  0  0
 25 43  1  0  0  0  0
 26 65  1  0  0  0  0
 27 80  1  0  0  0  0
 28 81  1  0  0  0  0
 29 31  2  0  0  0  0
 29 80  1  0  0  0  0
 30 83  1  0  0  0  0
 31 84  1  0  0  0  0
 32 63  2  0  0  0  0
 33 58  1  0  0  0  0
 33 64  2  0  0  0  0
 34 66  1  0  0  0  0
 34 69  1  0  0  0  0
 35 70  1  0  0  0  0
 35 74  2  0  0  0  0
 36 51  1  0  0  0  0
 36 71  1  0  0  0  0
 36 75  2  0  0  0  0
 37 59  1  0  0  0  0
 37 65  1  0  0  0  0
 37 76  2  0  0  0  0
 38 60  1  0  0  0  0
 38 67  1  0  0  0  0
 38 77  2  0  0  0  0
 39 61  1  0  0  0  0
 39 72  1  0  0  0  0
 39 78  2  0  0  0  0
 40 68  1  0  0  0  0
 40 79  2  0  0  0  0
 40 82  1  0  0  0  0
 41 44  1  0  0  0  0
 42 51  1  0  0  0  0
 43 67  1  0  0  0  0
 44 46  1  0  0  0  0
 45 47  1  0  0  0  0
 45 48  1  0  0  0  0
 46 50  1  0  0  0  0
 47 52  1  0  0  0  0
 48 68  1  0  0  0  0
 49 52  1  0  0  0  0
 49 68  1  0  0  0  0
 50 71  1  0  0  0  0
 51 67  1  0  0  0  0
 52 66  1  0  0  0  0
 53 61  1  0  0  0  0
 54 62  1  0  0  0  0
 55 62  1  0  0  0  0
 56 62  1  0  0  0  0
 57 73  1  0  0  0  0
 58 82  1  0  0  0  0
 59 81  1  0  0  0  0
 60 62  1  0  0  0  0
 60 72  1  0  0  0  0
 61 73  1  0  0  0  0
 63 66  1  0  0  0  0
 64 65  1  0  0  0  0
M  CHG  1  73   1
M  ISO  4  40 100  59 101  81 101  82 100
M  END
> <Batch ID>
0001

> <Smiles>
CNC(C)C(=O)NC(C(=O)N1Cc2cc([101O:1][101CH2:1]C(=O)n3nc(C[100O:0][100C:0](=O)N4CCCC(n5nc(-c6ccc(Oc7ccc(F)cc7F)cc6)c(C(N)=O)c5N)C4)c4ccccc43)ccc2CC1C(=O)NC1CCCc2ccccc21)C(C)(C)C

> <Shape>
0.210

> <Color>
0.067

> <Negative vol penalty>
0.000

$$$$

  -OEChem-04052315163D

 75 82  0     1  0  0  0  0  0999 V2000
  -21.6576  -26.0082   22.2550 C   0  0  0  0  0  0  0  0  0  0  0  0
  -22.5356  -24.9529   22.0299 C   0  0  0  0  0  0  0  0  0  0  0  0
  -23.8221  -10.0103   22.1423 C   0  0  0  0  0  0  0  0  0  0  0  0
  -24.3934  -11.4271   24.0141 C   0  0  0  0  0  0  0  0  0  0  0  0
  -22.0394  -27.3110   21.9374 C   0  0  0  0  0  0  0  0  0  0  0  0
  -23.7956  -25.1996   21.4859 C   0  0  0  0  0  0  0  0  0  0  0  0
  -27.4742  -22.6745   23.8810 C   0  0  0  0  0  0  0  0  0  0  0  0
  -23.3018   -9.0598   23.0206 C   0  0  0  0  0  0  0  0  0  0  0  0
  -23.8731  -10.4766   24.8924 C   0  0  0  0  0  0  0  0  0  0  0  0
  -27.6174  -21.3207   23.5801 C   0  0  0  0  0  0  0  0  0  0  0  0
  -24.8491   -7.5351   26.2437 C   0  0  0  0  0  0  0  0  0  0  0  0
  -25.5983   -7.2219   27.3778 C   0  0  0  0  0  0  0  0  0  0  0  0
  -29.4494  -21.8491   22.1024 C   0  0  0  0  0  0  0  0  0  0  0  0
  -23.7739   -7.9504   28.7842 C   0  0  0  0  0  0  0  0  0  0  0  0
  -24.3679  -11.1940   22.6391 C   0  0  0  0  0  0  0  0  0  0  0  0
  -24.2169  -13.2470   21.1323 C   0  0  0  0  0  0  0  0  0  0  0  0
  -23.3083  -27.5750   21.3982 C   0  0  0  0  0  0  0  0  0  0  0  0
  -28.3119  -23.6285   23.2855 C   0  0  0  0  0  0  0  0  0  0  0  0
  -24.1942  -26.5070   21.1594 C   0  0  0  0  0  0  0  0  0  0  0  0
  -29.3165  -23.2141   22.3994 C   0  0  0  0  0  0  0  0  0  0  0  0
  -23.3273   -9.2929   24.3956 C   0  0  0  0  0  0  0  0  0  0  0  0
  -28.6032  -20.9081   22.6885 C   0  0  0  0  0  0  0  0  0  0  0  0
  -23.5623   -8.0560   26.3798 C   0  0  0  0  0  0  0  0  0  0  0  0
  -25.0607   -7.4295   28.6481 C   0  0  0  0  0  0  0  0  0  0  0  0
  -23.0247   -8.2636   27.6500 C   0  0  0  0  0  0  0  0  0  0  0  0
  -24.9060  -12.1760   21.7323 C   0  0  0  0  0  0  0  0  0  0  0  0
  -25.1651  -13.8790   20.3656 C   0  0  0  0  0  0  0  0  0  0  0  0
  -22.8425  -13.6357   21.2570 C   0  0  0  0  0  0  0  0  0  0  0  0
  -27.8632  -26.1195   21.3628 C   0  0  0  0  0  0  0  0  0  0  0  0
  -31.0302  -26.5937   21.8798 C   0  0  0  0  0  0  0  0  0  0  0  0
  -34.0557  -25.2690   22.7393 C   0  0  0  0  0  0  0  0  0  0  0  0
  -31.1355  -14.1863   20.6987 C   0  0  0  0  0  0  0  0  0  0  0  0
  -23.6583  -28.9942   21.0268 C   0  0  0  0  0  0  0  0  0  0  0  0
  -28.1620  -25.0822   23.6411 C   0  0  0  0  0  0  0  0  0  0  0  0
  -30.2547  -24.1964   21.7488 C   0  0  0  0  0  0  0  0  0  0  0  0
  -25.1521  -29.2144   20.8024 C   0  0  0  0  0  0  0  0  0  0  0  0
  -29.2021  -13.0226   17.9448 C   0  0  0  0  0  0  0  0  0  0  0  0
  -25.7287  -28.1085   19.9240 C   0  0  0  0  0  0  0  0  0  0  0  0
  -27.8196  -12.7703   18.5491 C   0  0  0  0  0  0  0  0  0  0  0  0
  -30.3192  -12.6648   18.9225 C   0  0  0  0  0  0  0  0  0  0  0  0
  -28.8331  -13.0581   20.8488 C   0  0  0  0  0  0  0  0  0  0  0  0
  -25.5789  -26.7373   20.5939 C   0  0  1  0  0  0  0  0  0  0  0  0
  -28.7355  -26.0186   22.5820 C   0  0  1  0  0  0  0  0  0  0  0  0
  -27.6733  -13.4569   19.9203 C   0  0  2  0  0  0  0  0  0  0  0  0
  -36.4673  -25.8955   23.0376 C   0  0  0  0  0  0  0  0  0  0  0  0
  -31.3900  -26.6419   18.8502 C   0  0  0  0  0  0  0  0  0  0  0  0
  -33.8462  -26.3127   19.2065 C   0  0  0  0  0  0  0  0  0  0  0  0
  -32.7232  -28.3590   20.0866 C   0  0  0  0  0  0  0  0  0  0  0  0
  -34.0184  -24.5131   25.6005 C   0  0  0  0  0  0  0  0  0  0  0  0
  -31.6127  -17.1488   22.1275 C   0  0  0  0  0  0  0  0  0  0  0  0
  -30.2124  -17.6705   22.4514 C   0  0  0  0  0  0  0  0  0  0  0  0
  -31.8074  -15.6961   22.5503 C   0  0  0  0  0  0  0  0  0  0  0  0
  -30.0554  -19.1337   22.0572 C   0  0  0  0  0  0  0  0  0  1  0  0
  -32.3032  -26.1339   21.2112 C   0  0  1  0  0  0  0  0  0  0  0  0
  -35.1174  -25.7346   23.7193 C   0  0  2  0  0  0  0  0  0  0  0  0
  -32.5469  -26.8433   19.8492 C   0  0  0  0  0  0  0  0  0  0  0  0
  -26.1927  -12.1272   21.3772 N   0  0  0  0  0  0  0  0  0  0  0  0
  -26.3196  -13.1754   20.5457 N   0  0  0  0  0  0  0  0  0  0  0  0
  -30.0641  -25.6073   22.1236 N   0  0  0  0  0  0  0  0  0  0  0  0
  -30.1222  -13.3497   20.2023 N   0  0  0  0  0  0  0  0  0  0  0  0
  -25.1157  -14.9623   19.5616 N   0  0  0  0  0  0  0  0  0  0  0  0
  -22.0059  -12.8763   22.0863 N   0  0  0  0  0  0  0  0  0  0  0  0
  -26.5815  -26.5654   21.6233 N   0  0  0  0  0  0  0  0  0  0  0  0
  -33.3704  -26.3301   22.1864 N   0  0  0  0  0  0  0  0  0  0  0  0
  -30.8653  -14.8020   21.9147 N   0  0  0  0  0  0  0  0  0  0  0  0
  -35.2654  -24.7508   24.8288 N   0  3  0  0  0  0  0  0  0  0  0  0
  -22.3663  -14.6175   20.6382 O   0  0  0  0  0  0  0  0  0  0  0  0
  -28.3196  -25.8167   20.2665 O   0  0  0  0  0  0  0  0  0  0  0  0
  -30.9009  -27.7828   22.1813 O   0  0  0  0  0  0  0  0  0  0  0  0
  -33.8568  -24.0828   22.4866 O   0  0  0  0  0  0  0  0  0  0  0  0
  -32.1998  -14.3751   20.0998 O   0  0  0  0  0  0  0  0  0  0  0  0
  -22.8195   -8.3657   25.2529 O   0  0  0  0  0  0  0  0  0  0  0  0
  -28.7447  -19.5874   22.3925 O   0  0  0  0  0  0  0  0  0  1  0  0
  -25.7797   -7.1273   29.7370 F   0  0  0  0  0  0  0  0  0  0  0  0
  -21.7886   -8.7626   27.7871 F   0  0  0  0  0  0  0  0  0  0  0  0
  1  2  1  0  0  0  0
  1  5  2  0  0  0  0
  2  6  2  0  0  0  0
  3  8  2  0  0  0  0
  3 15  1  0  0  0  0
  4  9  1  0  0  0  0
  4 15  2  0  0  0  0
  5 17  1  0  0  0  0
  6 19  1  0  0  0  0
  7 10  2  0  0  0  0
  7 18  1  0  0  0  0
  8 21  1  0  0  0  0
  9 21  2  0  0  0  0
 10 22  1  0  0  0  0
 11 12  2  0  0  0  0
 11 23  1  0  0  0  0
 12 24  1  0  0  0  0
 13 20  1  0  0  0  0
 13 22  2  0  0  0  0
 14 24  2  0  0  0  0
 14 25  1  0  0  0  0
 15 26  1  0  0  0  0
 16 26  1  0  0  0  0
 16 27  2  0  0  0  0
 16 28  1  0  0  0  0
 17 19  2  0  0  0  0
 17 33  1  0  0  0  0
 18 20  2  0  0  0  0
 18 34  1  0  0  0  0
 19 42  1  0  0  0  0
 20 35  1  0  0  0  0
 21 72  1  0  0  0  0
 22 73  1  0  0  0  0
 23 25  2  0  0  0  0
 23 72  1  0  0  0  0
 24 74  1  0  0  0  0
 25 75  1  0  0  0  0
 26 57  2  0  0  0  0
 27 58  1  0  0  0  0
 27 61  1  0  0  0  0
 28 62  1  0  0  0  0
 28 67  2  0  0  0  0
 29 43  1  0  0  0  0
 29 63  1  0  0  0  0
 29 68  2  0  0  0  0
 30 54  1  0  0  0  0
 30 59  1  0  0  0  0
 30 69  2  0  0  0  0
 31 55  1  0  0  0  0
 31 64  1  0  0  0  0
 31 70  2  0  0  0  0
 32 60  1  0  0  0  0
 32 65  1  0  0  0  0
 32 71  2  0  0  0  0
 33 36  1  0  0  0  0
 34 43  1  0  0  0  0
 35 59  1  0  0  0  0
 36 38  1  0  0  0  0
 37 39  1  0  0  0  0
 37 40  1  0  0  0  0
 38 42  1  0  0  0  0
 39 44  1  0  0  0  0
 40 60  1  0  0  0  0
 41 44  1  0  0  0  0
 41 60  1  0  0  0  0
 42 63  1  0  0  0  0
 43 59  1  0  0  0  0
 44 58  1  0  0  0  0
 45 55  1  0  0  0  0
 46 56  1  0  0  0  0
 47 56  1  0  0  0  0
 48 56  1  0  0  0  0
 49 66  1  0  0  0  0
 50 51  1  0  0  0  0
 50 52  1  0  0  0  0
 51 53  1  0  0  0  0
 52 65  1  0  0  0  0
 53 73  1  0  0  0  0
 54 56  1  0  0  0  0
 54 64  1  0  0  0  0
 55 66  1  0  0  0  0
 57 58  1  0  0  0  0
M  CHG  1  66   1
M  ISO  4  32 100  53 101  65 100  73 101
M  END
> <Batch ID>
0001

> <Smiles>
CNC(C)C(=O)NC(C(=O)N1Cc2cc([101O:1][101CH2:1]CCC[100NH:0][100C:0](=O)N3CCCC(n4nc(-c5ccc(Oc6ccc(F)cc6F)cc5)c(C(N)=O)c4N)C3)ccc2CC1C(=O)NC1CCCc2ccccc21)C(C)(C)C

> <Shape>
0.193

> <Color>
0.131

> <Negative vol penalty>
0.000

$$$$

  -OEChem-04052315163D

 79 86  0     1  0  0  0  0  0999 V2000
  -18.4830  -24.1813   24.6018 C   0  0  0  0  0  0  0  0  0  0  0  0
  -19.8676  -24.1408   24.7311 C   0  0  0  0  0  0  0  0  0  0  0  0
  -24.5894  -12.4309   20.3465 C   0  0  0  0  0  0  0  0  0  0  0  0
  -24.9949  -13.1992   22.6009 C   0  0  0  0  0  0  0  0  0  0  0  0
  -17.8819  -25.2057   23.8715 C   0  0  0  0  0  0  0  0  0  0  0  0
  -20.6520  -25.1240   24.1291 C   0  0  0  0  0  0  0  0  0  0  0  0
  -24.2843  -26.8616   27.2003 C   0  0  0  0  0  0  0  0  0  0  0  0
  -24.8186  -11.1165   20.7531 C   0  0  0  0  0  0  0  0  0  0  0  0
  -25.2242  -11.8848   23.0076 C   0  0  0  0  0  0  0  0  0  0  0  0
  -25.4176  -26.0656   27.3602 C   0  0  0  0  0  0  0  0  0  0  0  0
  -23.1239   -8.6776   22.3693 C   0  0  0  0  0  0  0  0  0  0  0  0
  -22.2337   -7.6982   21.9289 C   0  0  0  0  0  0  0  0  0  0  0  0
  -26.6050  -27.4492   25.7806 C   0  0  0  0  0  0  0  0  0  0  0  0
  -24.0497   -6.5398   20.8345 C   0  0  0  0  0  0  0  0  0  0  0  0
  -24.6776  -13.4723   21.2703 C   0  0  0  0  0  0  0  0  0  0  0  0
  -23.2113  -15.5147   20.8390 C   0  0  0  0  0  0  0  0  0  0  0  0
  -18.6588  -26.2074   23.2684 C   0  0  0  0  0  0  0  0  0  0  0  0
  -24.2994  -27.9528   26.3196 C   0  0  0  0  0  0  0  0  0  0  0  0
  -20.0608  -26.1620   23.3889 C   0  0  0  0  0  0  0  0  0  0  0  0
  -25.4713  -28.2591   25.6133 C   0  0  0  0  0  0  0  0  0  0  0  0
  -25.1360  -10.8434   22.0837 C   0  0  0  0  0  0  0  0  0  0  0  0
  -26.5773  -26.3575   26.6481 C   0  0  0  0  0  0  0  0  0  0  0  0
  -24.4769   -8.5882   22.0423 C   0  0  0  0  0  0  0  0  0  0  0  0
  -22.6966   -6.6293   21.1616 C   0  0  0  0  0  0  0  0  0  0  0  0
  -24.9398   -7.5193   21.2749 C   0  0  0  0  0  0  0  0  0  0  0  0
  -24.4414  -14.8303   20.8508 C   0  0  0  0  0  0  0  0  0  0  0  0
  -23.5182  -16.7644   20.3588 C   0  0  0  0  0  0  0  0  0  0  0  0
  -21.9077  -15.0614   21.2275 C   0  0  0  0  0  0  0  0  0  0  0  0
  -22.6973  -28.7335   23.6876 C   0  0  0  0  0  0  0  0  0  0  0  0
  -24.3128  -31.5288   24.0023 C   0  0  0  0  0  0  0  0  0  0  0  0
  -28.9353  -20.2598   24.0190 C   0  0  0  0  0  0  0  0  0  0  0  0
  -27.0348  -33.1793   25.2323 C   0  0  0  0  0  0  0  0  0  0  0  0
  -28.6726  -19.8646   20.3604 C   0  0  0  0  0  0  0  0  0  0  0  0
  -17.9669  -27.2681   22.4493 C   0  0  0  0  0  0  0  0  0  0  0  0
  -23.0769  -28.8177   26.1786 C   0  0  0  0  0  0  0  0  0  0  0  0
  -25.5456  -29.4315   24.6707 C   0  0  0  0  0  0  0  0  0  0  0  0
  -18.8458  -28.4814   22.1566 C   0  0  0  0  0  0  0  0  0  0  0  0
  -26.6105  -19.0418   17.5196 C   0  0  0  0  0  0  0  0  0  0  0  0
  -20.2280  -28.0387   21.6872 C   0  0  0  0  0  0  0  0  0  0  0  0
  -25.7369  -17.9025   18.0430 C   0  0  0  0  0  0  0  0  0  0  0  0
  -28.0073  -19.0015   18.1311 C   0  0  0  0  0  0  0  0  0  0  0  0
  -27.1342  -17.8660   20.1573 C   0  0  0  0  0  0  0  0  0  0  0  0
  -20.9441  -27.2243   22.7714 C   0  0  1  0  0  0  0  0  0  0  0  0
  -23.0443  -29.5969   24.8674 C   0  0  1  0  0  0  0  0  0  0  0  0
  -25.7078  -17.8910   19.5817 C   0  0  2  0  0  0  0  0  0  0  0  0
  -28.0989  -35.4511   25.2946 C   0  0  0  0  0  0  0  0  0  0  0  0
  -25.2548  -31.1638   21.1232 C   0  0  0  0  0  0  0  0  0  0  0  0
  -27.0158  -32.8905   21.5540 C   0  0  0  0  0  0  0  0  0  0  0  0
  -24.6034  -33.5037   21.7190 C   0  0  0  0  0  0  0  0  0  0  0  0
  -26.8506  -33.3124   28.1831 C   0  0  0  0  0  0  0  0  0  0  0  0
  -29.2144  -20.5753   22.5650 C   0  0  0  0  0  0  0  0  0  0  0  0
  -28.4276  -21.8825   26.8819 C   0  0  0  0  0  0  0  0  0  0  0  0
  -28.6230  -23.3679   26.5764 C   0  0  0  0  0  0  0  0  0  0  0  0
  -29.5446  -21.0162   26.3086 C   0  0  0  0  0  0  0  0  0  0  0  0
  -27.4754  -24.2073   27.1235 C   0  0  0  0  0  0  0  0  0  1  0  0
  -25.6402  -32.0572   23.5147 C   0  0  1  0  0  0  0  0  0  0  0  0
  -27.1605  -34.4835   25.9989 C   0  0  2  0  0  0  0  0  0  0  0  0
  -25.6269  -32.3805   21.9939 C   0  0  0  0  0  0  0  0  0  0  0  0
  -25.4543  -15.5828   20.4127 N   0  0  0  0  0  0  0  0  0  0  0  0
  -24.8611  -16.7529   20.1211 N   0  0  0  0  0  0  0  0  0  0  0  0
  -24.3223  -30.2434   24.5621 N   0  0  0  0  0  0  0  0  0  0  0  0
  -27.9440  -18.9520   19.5913 N   0  0  0  0  0  0  0  0  0  0  0  0
  -22.7676  -17.8610   20.1209 N   0  0  0  0  0  0  0  0  0  0  0  0
  -21.7698  -13.7487   21.6989 N   0  0  0  0  0  0  0  0  0  0  0  0
  -21.4737  -28.1003   23.7944 N   0  0  0  0  0  0  0  0  0  0  0  0
  -29.6312  -21.1039   24.8766 N   0  0  0  0  0  0  0  0  0  0  0  0
  -25.9629  -33.1977   24.3653 N   0  0  0  0  0  0  0  0  0  0  0  0
  -27.6886  -34.2301   27.3692 N   0  3  0  0  0  0  0  0  0  0  0  0
  -20.8924  -15.7933   21.1433 O   0  0  0  0  0  0  0  0  0  0  0  0
  -23.4809  -28.6493   22.7492 O   0  0  0  0  0  0  0  0  0  0  0  0
  -23.3058  -32.2335   23.8970 O   0  0  0  0  0  0  0  0  0  0  0  0
  -28.1796  -19.3577   24.3699 O   0  0  0  0  0  0  0  0  0  0  0  0
  -27.8123  -32.2396   25.3846 O   0  0  0  0  0  0  0  0  0  0  0  0
  -29.3940  -20.7441   19.8931 O   0  0  0  0  0  0  0  0  0  0  0  0
  -25.3596   -9.5609   22.4809 O   0  0  0  0  0  0  0  0  0  0  0  0
  -27.6847  -25.5818   26.8018 O   0  0  0  0  0  0  0  0  0  1  0  0
  -28.5001  -19.6784   21.7064 O   0  0  0  0  0  0  0  0  0  0  0  0
  -21.8419   -5.6880   20.7400 F   0  0  0  0  0  0  0  0  0  0  0  0
  -26.2388   -7.4274   20.9585 F   0  0  0  0  0  0  0  0  0  0  0  0
  1  2  1  0  0  0  0
  1  5  2  0  0  0  0
  2  6  2  0  0  0  0
  3  8  2  0  0  0  0
  3 15  1  0  0  0  0
  4  9  1  0  0  0  0
  4 15  2  0  0  0  0
  5 17  1  0  0  0  0
  6 19  1  0  0  0  0
  7 10  2  0  0  0  0
  7 18  1  0  0  0  0
  8 21  1  0  0  0  0
  9 21  2  0  0  0  0
 10 22  1  0  0  0  0
 11 12  2  0  0  0  0
 11 23  1  0  0  0  0
 12 24  1  0  0  0  0
 13 20  1  0  0  0  0
 13 22  2  0  0  0  0
 14 24  2  0  0  0  0
 14 25  1  0  0  0  0
 15 26  1  0  0  0  0
 16 26  1  0  0  0  0
 16 27  2  0  0  0  0
 16 28  1  0  0  0  0
 17 19  2  0  0  0  0
 17 34  1  0  0  0  0
 18 20  2  0  0  0  0
 18 35  1  0  0  0  0
 19 43  1  0  0  0  0
 20 36  1  0  0  0  0
 21 75  1  0  0  0  0
 22 76  1  0  0  0  0
 23 25  2  0  0  0  0
 23 75  1  0  0  0  0
 24 78  1  0  0  0  0
 25 79  1  0  0  0  0
 26 59  2  0  0  0  0
 27 60  1  0  0  0  0
 27 63  1  0  0  0  0
 28 64  1  0  0  0  0
 28 69  2  0  0  0  0
 29 44  1  0  0  0  0
 29 65  1  0  0  0  0
 29 70  2  0  0  0  0
 30 56  1  0  0  0  0
 30 61  1  0  0  0  0
 30 71  2  0  0  0  0
 31 51  1  0  0  0  0
 31 66  1  0  0  0  0
 31 72  2  0  0  0  0
 32 57  1  0  0  0  0
 32 67  1  0  0  0  0
 32 73  2  0  0  0  0
 33 62  1  0  0  0  0
 33 74  2  0  0  0  0
 33 77  1  0  0  0  0
 34 37  1  0  0  0  0
 35 44  1  0  0  0  0
 36 61  1  0  0  0  0
 37 39  1  0  0  0  0
 38 40  1  0  0  0  0
 38 41  1  0  0  0  0
 39 43  1  0  0  0  0
 40 45  1  0  0  0  0
 41 62  1  0  0  0  0
 42 45  1  0  0  0  0
 42 62  1  0  0  0  0
 43 65  1  0  0  0  0
 44 61  1  0  0  0  0
 45 60  1  0  0  0  0
 46 57  1  0  0  0  0
 47 58  1  0  0  0  0
 48 58  1  0  0  0  0
 49 58  1  0  0  0  0
 50 68  1  0  0  0  0
 51 77  1  0  0  0  0
 52 53  1  0  0  0  0
 52 54  1  0  0  0  0
 53 55  1  0  0  0  0
 54 66  1  0  0  0  0
 55 76  1  0  0  0  0
 56 58  1  0  0  0  0
 56 67  1  0  0  0  0
 57 68  1  0  0  0  0
 59 60  1  0  0  0  0
M  CHG  1  68   1
M  ISO  4  33 100  55 101  76 101  77 100
M  END
> <Batch ID>
0001

> <Smiles>
CNC(C)C(=O)NC(C(=O)N1Cc2cc([101O:1][101CH2:1]CCCNC(=O)C[100O:0][100C:0](=O)N3CCCC(n4nc(-c5ccc(Oc6ccc(F)cc6F)cc5)c(C(N)=O)c4N)C3)ccc2CC1C(=O)NC1CCCc2ccccc21)C(C)(C)C

> <Shape>
0.220

> <Color>
0.112

> <Negative vol penalty>
0.000

$$$$

  -OEChem-04052315163D

 74 81  0     1  0  0  0  0  0999 V2000
  -28.2370  -24.4861   17.1417 C   0  0  0  0  0  0  0  0  0  0  0  0
  -27.0905  -25.1970   17.4776 C   0  0  0  0  0  0  0  0  0  0  0  0
  -23.9976  -17.2212   19.7044 C   0  0  0  0  0  0  0  0  0  0  0  0
  -21.6114  -17.5982   19.7372 C   0  0  0  0  0  0  0  0  0  0  0  0
  -29.3729  -24.5840   17.9426 C   0  0  0  0  0  0  0  0  0  0  0  0
  -27.0832  -26.0153   18.6078 C   0  0  0  0  0  0  0  0  0  0  0  0
  -23.1087  -28.8301   19.3032 C   0  0  0  0  0  0  0  0  0  0  0  0
  -23.7896  -15.8777   20.0166 C   0  0  0  0  0  0  0  0  0  0  0  0
  -21.4034  -16.2547   20.0494 C   0  0  0  0  0  0  0  0  0  0  0  0
  -21.8764  -28.3102   19.6969 C   0  0  0  0  0  0  0  0  0  0  0  0
  -23.8696  -12.2693   20.4498 C   0  0  0  0  0  0  0  0  0  0  0  0
  -24.5945  -11.3172   19.7332 C   0  0  0  0  0  0  0  0  0  0  0  0
  -22.2606  -29.1131   21.9389 C   0  0  0  0  0  0  0  0  0  0  0  0
  -23.5960  -12.1033   17.6784 C   0  0  0  0  0  0  0  0  0  0  0  0
  -22.9085  -18.0814   19.5647 C   0  0  0  0  0  0  0  0  0  0  0  0
  -23.1955  -20.0430   17.9592 C   0  0  0  0  0  0  0  0  0  0  0  0
  -29.3747  -25.3944   19.0898 C   0  0  0  0  0  0  0  0  0  0  0  0
  -23.9324  -29.4870   20.2287 C   0  0  0  0  0  0  0  0  0  0  0  0
  -28.2273  -26.1461   19.4155 C   0  0  0  0  0  0  0  0  0  0  0  0
  -23.5017  -29.6426   21.5540 C   0  0  0  0  0  0  0  0  0  0  0  0
  -22.4925  -15.3945   20.1891 C   0  0  0  0  0  0  0  0  0  0  0  0
  -21.4534  -28.4491   21.0155 C   0  0  0  0  0  0  0  0  0  0  0  0
  -23.0077  -13.1384   19.7807 C   0  0  0  0  0  0  0  0  0  0  0  0
  -24.4578  -11.2342   18.3475 C   0  0  0  0  0  0  0  0  0  0  0  0
  -22.8709  -13.0554   18.3951 C   0  0  0  0  0  0  0  0  0  0  0  0
  -23.1227  -19.4695   19.2428 C   0  0  0  0  0  0  0  0  0  0  0  0
  -23.4090  -21.3796   18.1920 C   0  0  0  0  0  0  0  0  0  0  0  0
  -23.0803  -19.4229   16.6716 C   0  0  0  0  0  0  0  0  0  0  0  0
  -26.8422  -28.9749   21.4010 C   0  0  0  0  0  0  0  0  0  0  0  0
  -26.3567  -31.8553   22.8116 C   0  0  0  0  0  0  0  0  0  0  0  0
  -24.1398  -34.1868   23.9501 C   0  0  0  0  0  0  0  0  0  0  0  0
  -22.1653  -24.9610   22.8264 C   0  0  0  0  0  0  0  0  0  0  0  0
  -30.6340  -25.4698   19.9166 C   0  0  0  0  0  0  0  0  0  0  0  0
  -25.2470  -30.0656   19.7819 C   0  0  0  0  0  0  0  0  0  0  0  0
  -24.3398  -30.3572   22.5814 C   0  0  0  0  0  0  0  0  0  0  0  0
  -30.3902  -26.0052   21.3238 C   0  0  0  0  0  0  0  0  0  0  0  0
  -25.3644  -24.3589   21.3844 C   0  0  0  0  0  0  0  0  0  0  0  0
  -29.5719  -27.2861   21.2580 C   0  0  0  0  0  0  0  0  0  0  0  0
  -25.1592  -23.0892   20.5562 C   0  0  0  0  0  0  0  0  0  0  0  0
  -24.5549  -24.3253   22.6788 C   0  0  0  0  0  0  0  0  0  0  0  0
  -22.9098  -22.7899   21.6739 C   0  0  0  0  0  0  0  0  0  0  0  0
  -28.1862  -27.0186   20.6570 C   0  0  1  0  0  0  0  0  0  0  0  0
  -26.2328  -30.2646   20.9290 C   0  0  1  0  0  0  0  0  0  0  0  0
  -23.6624  -22.8016   20.3323 C   0  0  2  0  0  0  0  0  0  0  0  0
  -24.0417  -36.4211   25.0884 C   0  0  0  0  0  0  0  0  0  0  0  0
  -27.0386  -30.5268   25.4724 C   0  0  0  0  0  0  0  0  0  0  0  0
  -26.0199  -32.4953   26.6367 C   0  0  0  0  0  0  0  0  0  0  0  0
  -28.0109  -32.8106   25.1672 C   0  0  0  0  0  0  0  0  0  0  0  0
  -22.7535  -35.4283   21.6488 C   0  0  0  0  0  0  0  0  0  0  0  0
  -18.9463  -25.9462   21.6711 C   0  0  0  0  0  0  0  0  0  0  0  0
  -19.7364  -25.4678   22.8817 C   0  0  0  0  0  0  0  0  0  0  0  0
  -19.7817  -26.7851   20.7116 C   0  0  0  0  0  0  0  0  0  1  0  0
  -25.7630  -32.3184   24.1200 C   0  0  1  0  0  0  0  0  0  0  0  0
  -24.0705  -35.6906   23.7549 C   0  0  2  0  0  0  0  0  0  0  0  0
  -26.6930  -32.0226   25.3304 C   0  0  0  0  0  0  0  0  0  0  0  0
  -23.2776  -20.3682   20.2186 N   0  0  0  0  0  0  0  0  0  0  0  0
  -23.4499  -21.5200   19.5480 N   0  0  0  0  0  0  0  0  0  0  0  0
  -25.6199  -30.9000   22.0973 N   0  0  0  0  0  0  0  0  0  0  0  0
  -23.1441  -24.0498   22.3967 N   0  0  0  0  0  0  0  0  0  0  0  0
  -23.5640  -22.4369   17.3670 N   0  0  0  0  0  0  0  0  0  0  0  0
  -22.8617  -18.0397   16.6133 N   0  0  0  0  0  0  0  0  0  0  0  0
  -27.5233  -28.2817   20.4185 N   0  0  0  0  0  0  0  0  0  0  0  0
  -25.4410  -33.7306   23.9450 N   0  0  0  0  0  0  0  0  0  0  0  0
  -20.8535  -24.6272   22.5125 N   0  0  0  0  0  0  0  0  0  0  0  0
  -22.8445  -36.0579   22.9913 N   0  3  0  0  0  0  0  0  0  0  0  0
  -23.1849  -20.0734   15.6042 O   0  0  0  0  0  0  0  0  0  0  0  0
  -26.7060  -28.6345   22.5703 O   0  0  0  0  0  0  0  0  0  0  0  0
  -27.4311  -32.3292   22.4336 O   0  0  0  0  0  0  0  0  0  0  0  0
  -23.1399  -33.4873   24.0965 O   0  0  0  0  0  0  0  0  0  0  0  0
  -22.4405  -25.9981   23.4394 O   0  0  0  0  0  0  0  0  0  0  0  0
  -22.2892  -14.0836   20.4935 O   0  0  0  0  0  0  0  0  0  0  0  0
  -20.2514  -27.9420   21.4025 O   0  0  0  0  0  0  0  0  0  1  0  0
  -25.1552  -10.3209   17.6593 F   0  0  0  0  0  0  0  0  0  0  0  0
  -22.0454  -13.8884   17.7467 F   0  0  0  0  0  0  0  0  0  0  0  0
  1  2  1  0  0  0  0
  1  5  2  0  0  0  0
  2  6  2  0  0  0  0
  3  8  2  0  0  0  0
  3 15  1  0  0  0  0
  4  9  1  0  0  0  0
  4 15  2  0  0  0  0
  5 17  1  0  0  0  0
  6 19  1  0  0  0  0
  7 10  2  0  0  0  0
  7 18  1  0  0  0  0
  8 21  1  0  0  0  0
  9 21  2  0  0  0  0
 10 22  1  0  0  0  0
 11 12  2  0  0  0  0
 11 23  1  0  0  0  0
 12 24  1  0  0  0  0
 13 20  1  0  0  0  0
 13 22  2  0  0  0  0
 14 24  2  0  0  0  0
 14 25  1  0  0  0  0
 15 26  1  0  0  0  0
 16 26  1  0  0  0  0
 16 27  2  0  0  0  0
 16 28  1  0  0  0  0
 17 19  2  0  0  0  0
 17 33  1  0  0  0  0
 18 20  2  0  0  0  0
 18 34  1  0  0  0  0
 19 42  1  0  0  0  0
 20 35  1  0  0  0  0
 21 71  1  0  0  0  0
 22 72  1  0  0  0  0
 23 25  2  0  0  0  0
 23 71  1  0  0  0  0
 24 73  1  0  0  0  0
 25 74  1  0  0  0  0
 26 56  2  0  0  0  0
 27 57  1  0  0  0  0
 27 60  1  0  0  0  0
 28 61  1  0  0  0  0
 28 66  2  0  0  0  0
 29 43  1  0  0  0  0
 29 62  1  0  0  0  0
 29 67  2  0  0  0  0
 30 53  1  0  0  0  0
 30 58  1  0  0  0  0
 30 68  2  0  0  0  0
 31 54  1  0  0  0  0
 31 63  1  0  0  0  0
 31 69  2  0  0  0  0
 32 59  1  0  0  0  0
 32 64  1  0  0  0  0
 32 70  2  0  0  0  0
 33 36  1  0  0  0  0
 34 43  1  0  0  0  0
 35 58  1  0  0  0  0
 36 38  1  0  0  0  0
 37 39  1  0  0  0  0
 37 40  1  0  0  0  0
 38 42  1  0  0  0  0
 39 44  1  0  0  0  0
 40 59  1  0  0  0  0
 41 44  1  0  0  0  0
 41 59  1  0  0  0  0
 42 62  1  0  0  0  0
 43 58  1  0  0  0  0
 44 57  1  0  0  0  0
 45 54  1  0  0  0  0
 46 55  1  0  0  0  0
 47 55  1  0  0  0  0
 48 55  1  0  0  0  0
 49 65  1  0  0  0  0
 50 51  1  0  0  0  0
 50 52  1  0  0  0  0
 51 64  1  0  0  0  0
 52 72  1  0  0  0  0
 53 55  1  0  0  0  0
 53 63  1  0  0  0  0
 54 65  1  0  0  0  0
 56 57  1  0  0  0  0
M  CHG  1  65   1
M  ISO  4  32 100  52 101  64 100  72 101
M  END
> <Batch ID>
0001

> <Smiles>
CNC(C)C(=O)NC(C(=O)N1Cc2cc([101O:1][101CH2:1]CC[100NH:0][100C:0](=O)N3CCCC(n4nc(-c5ccc(Oc6ccc(F)cc6F)cc5)c(C(N)=O)c4N)C3)ccc2CC1C(=O)NC1CCCc2ccccc21)C(C)(C)C

> <Shape>
0.222

> <Color>
0.068

> <Negative vol penalty>
0.000

$$$$

  -OEChem-04052315163D

 81 89  0     1  0  0  0  0  0999 V2000
  -28.3984  -13.1529   17.7264 C   0  0  0  0  0  0  0  0  0  0  0  0
  -27.8552  -14.4192   17.5350 C   0  0  0  0  0  0  0  0  0  0  0  0
  -18.5991  -28.9786   23.9828 C   0  0  0  0  0  0  0  0  0  0  0  0
  -17.8450  -27.8792   23.5727 C   0  0  0  0  0  0  0  0  0  0  0  0
  -29.2065  -24.6519   19.5734 C   0  0  0  0  0  0  0  0  0  0  0  0
  -27.4551  -23.3939   20.6630 C   0  0  0  0  0  0  0  0  0  0  0  0
  -27.8081  -12.2719   18.6316 C   0  0  0  0  0  0  0  0  0  0  0  0
  -26.7207  -14.8050   18.2480 C   0  0  0  0  0  0  0  0  0  0  0  0
  -25.4093  -20.4147   20.3259 C   0  0  0  0  0  0  0  0  0  0  0  0
  -19.8204  -29.2549   23.3682 C   0  0  0  0  0  0  0  0  0  0  0  0
  -18.3123  -27.0560   22.5482 C   0  0  0  0  0  0  0  0  0  0  0  0
  -30.1481  -23.7213   20.0124 C   0  0  0  0  0  0  0  0  0  0  0  0
  -28.3967  -22.4632   21.1019 C   0  0  0  0  0  0  0  0  0  0  0  0
  -24.5985  -21.4337   19.8278 C   0  0  0  0  0  0  0  0  0  0  0  0
  -30.2892  -19.5617   22.2054 C   0  0  0  0  0  0  0  0  0  0  0  0
  -29.9746  -18.2090   22.0754 C   0  0  0  0  0  0  0  0  0  0  0  0
  -22.7965  -20.6848   21.2461 C   0  0  0  0  0  0  0  0  0  0  0  0
  -29.7787  -18.4845   19.6831 C   0  0  0  0  0  0  0  0  0  0  0  0
  -27.8599  -24.4883   19.8987 C   0  0  0  0  0  0  0  0  0  0  0  0
  -26.1588  -25.4197   18.2415 C   0  0  0  0  0  0  0  0  0  0  0  0
  -26.6714  -12.6506   19.3632 C   0  0  0  0  0  0  0  0  0  0  0  0
  -24.9155  -19.5150   21.2814 C   0  0  0  0  0  0  0  0  0  0  0  0
  -26.1138  -13.9279   19.1628 C   0  0  0  0  0  0  0  0  0  0  0  0
  -23.6039  -19.6569   21.7565 C   0  0  0  0  0  0  0  0  0  0  0  0
  -20.2877  -28.4317   22.3437 C   0  0  0  0  0  0  0  0  0  0  0  0
  -29.7432  -22.6269   20.7766 C   0  0  0  0  0  0  0  0  0  0  0  0
  -23.2910  -21.5671   20.2857 C   0  0  0  0  0  0  0  0  0  0  0  0
  -19.5336  -27.3322   21.9337 C   0  0  0  0  0  0  0  0  0  0  0  0
  -30.3485  -20.3758   21.0743 C   0  0  0  0  0  0  0  0  0  0  0  0
  -29.7193  -17.6704   20.8143 C   0  0  0  0  0  0  0  0  0  0  0  0
  -30.0933  -19.8372   19.8132 C   0  0  0  0  0  0  0  0  0  0  0  0
  -26.8868  -25.4497   19.4460 C   0  0  0  0  0  0  0  0  0  0  0  0
  -25.3754  -26.5470   18.2857 C   0  0  0  0  0  0  0  0  0  0  0  0
  -26.1880  -24.4587   17.1779 C   0  0  0  0  0  0  0  0  0  0  0  0
  -24.4388  -16.3735   21.3688 C   0  0  0  0  0  0  0  0  0  0  0  0
  -23.7002  -16.9647   24.4716 C   0  0  0  0  0  0  0  0  0  0  0  0
  -22.6385  -19.1999   26.8218 C   0  0  0  0  0  0  0  0  0  0  0  0
  -22.3922  -29.7801   22.0283 C   0  0  0  0  0  0  0  0  0  0  0  0
  -26.0405  -11.6470   20.2955 C   0  0  0  0  0  0  0  0  0  0  0  0
  -25.8114  -18.4376   21.8283 C   0  0  0  0  0  0  0  0  0  0  0  0
  -23.0325  -18.7294   22.7966 C   0  0  0  0  0  0  0  0  0  0  0  0
  -25.0609  -12.2688   21.2874 C   0  0  0  0  0  0  0  0  0  0  0  0
  -25.5565  -30.8215   20.7715 C   0  0  0  0  0  0  0  0  0  0  0  0
  -24.1203  -13.2351   20.5742 C   0  0  0  0  0  0  0  0  0  0  0  0
  -26.1524  -29.5405   20.1832 C   0  0  0  0  0  0  0  0  0  0  0  0
  -24.7570  -30.5432   22.0431 C   0  0  0  0  0  0  0  0  0  0  0  0
  -24.3185  -28.2281   21.3242 C   0  0  0  0  0  0  0  0  0  0  0  0
  -24.8984  -14.3921   19.9358 C   0  0  1  0  0  0  0  0  0  0  0  0
  -25.0398  -17.2624   22.4206 C   0  0  1  0  0  0  0  0  0  0  0  0
  -25.0786  -28.4491   20.0061 C   0  0  2  0  0  0  0  0  0  0  0  0
  -22.0955  -19.3805   29.2651 C   0  0  0  0  0  0  0  0  0  0  0  0
  -21.0613  -15.5107   23.9902 C   0  0  0  0  0  0  0  0  0  0  0  0
  -20.1934  -16.5312   26.1053 C   0  0  0  0  0  0  0  0  0  0  0  0
  -22.1545  -14.9912   26.1787 C   0  0  0  0  0  0  0  0  0  0  0  0
  -24.7395  -21.2384   27.2567 C   0  0  0  0  0  0  0  0  0  0  0  0
  -21.2482  -24.5460   20.3658 C   0  0  0  0  0  0  0  0  0  0  0  0
  -21.4967  -23.0783   20.6766 C   0  0  0  0  0  0  0  0  0  1  0  0
  -20.1731  -25.1428   21.2604 C   0  0  0  0  0  0  0  0  0  0  0  0
  -22.4379  -17.3143   25.2222 C   0  0  1  0  0  0  0  0  0  0  0  0
  -23.1713  -19.5396   28.2021 C   0  0  2  0  0  0  0  0  0  0  0  0
  -21.4716  -16.1033   25.3530 C   0  0  0  0  0  0  0  0  0  0  0  0
  -26.5923  -26.5120   20.2002 N   0  0  0  0  0  0  0  0  0  0  0  0
  -25.6706  -27.1600   19.4677 N   0  0  0  0  0  0  0  0  0  0  0  0
  -23.9457  -17.6881   23.2959 N   0  0  0  0  0  0  0  0  0  0  0  0
  -23.7563  -29.5023   21.7985 N   0  0  0  0  0  0  0  0  0  0  0  0
  -24.4697  -27.0638   17.4283 N   0  0  0  0  0  0  0  0  0  0  0  0
  -27.0503  -23.3599   17.2937 N   0  0  0  0  0  0  0  0  0  0  0  0
  -21.5306  -28.7251   21.7298 N   0  0  0  0  0  0  0  0  0  0  0  0
  -25.2772  -15.3619   20.9409 N   0  0  0  0  0  0  0  0  0  0  0  0
  -22.8647  -17.8788   26.4979 N   0  0  0  0  0  0  0  0  0  0  0  0
  -23.6614  -20.9466   28.2362 N   0  3  0  0  0  0  0  0  0  0  0  0
  -25.4826  -24.5797   16.1477 O   0  0  0  0  0  0  0  0  0  0  0  0
  -23.2982  -16.5885   20.9756 O   0  0  0  0  0  0  0  0  0  0  0  0
  -24.4447  -16.0873   24.9159 O   0  0  0  0  0  0  0  0  0  0  0  0
  -22.0744  -20.0231   26.1043 O   0  0  0  0  0  0  0  0  0  0  0  0
  -22.0135  -30.8825   22.4325 O   0  0  0  0  0  0  0  0  0  0  0  0
  -30.6618  -21.7184   21.2049 O   0  0  0  0  0  0  0  0  0  0  0  0
  -22.4972  -22.5604   19.8008 O   0  0  0  0  0  0  0  0  0  1  0  0
  -19.9745  -26.5105   20.9291 O   0  0  0  0  0  0  0  0  0  0  0  0
  -29.4187  -16.3711   20.6894 F   0  0  0  0  0  0  0  0  0  0  0  0
  -30.1499  -20.6141   18.7227 F   0  0  0  0  0  0  0  0  0  0  0  0
  1  2  1  0  0  0  0
  1  7  2  0  0  0  0
  2  8  2  0  0  0  0
  3  4  1  0  0  0  0
  3 10  2  0  0  0  0
  4 11  2  0  0  0  0
  5 12  2  0  0  0  0
  5 19  1  0  0  0  0
  6 13  1  0  0  0  0
  6 19  2  0  0  0  0
  7 21  1  0  0  0  0
  8 23  1  0  0  0  0
  9 14  2  0  0  0  0
  9 22  1  0  0  0  0
 10 25  1  0  0  0  0
 11 28  1  0  0  0  0
 12 26  1  0  0  0  0
 13 26  2  0  0  0  0
 14 27  1  0  0  0  0
 15 16  2  0  0  0  0
 15 29  1  0  0  0  0
 16 30  1  0  0  0  0
 17 24  1  0  0  0  0
 17 27  2  0  0  0  0
 18 30  2  0  0  0  0
 18 31  1  0  0  0  0
 19 32  1  0  0  0  0
 20 32  1  0  0  0  0
 20 33  2  0  0  0  0
 20 34  1  0  0  0  0
 21 23  2  0  0  0  0
 21 39  1  0  0  0  0
 22 24  2  0  0  0  0
 22 40  1  0  0  0  0
 23 48  1  0  0  0  0
 24 41  1  0  0  0  0
 25 28  2  0  0  0  0
 25 68  1  0  0  0  0
 26 77  1  0  0  0  0
 27 78  1  0  0  0  0
 28 79  1  0  0  0  0
 29 31  2  0  0  0  0
 29 77  1  0  0  0  0
 30 80  1  0  0  0  0
 31 81  1  0  0  0  0
 32 62  2  0  0  0  0
 33 63  1  0  0  0  0
 33 66  1  0  0  0  0
 34 67  1  0  0  0  0
 34 72  2  0  0  0  0
 35 49  1  0  0  0  0
 35 69  1  0  0  0  0
 35 73  2  0  0  0  0
 36 59  1  0  0  0  0
 36 64  1  0  0  0  0
 36 74  2  0  0  0  0
 37 60  1  0  0  0  0
 37 70  1  0  0  0  0
 37 75  2  0  0  0  0
 38 65  1  0  0  0  0
 38 68  1  0  0  0  0
 38 76  2  0  0  0  0
 39 42  1  0  0  0  0
 40 49  1  0  0  0  0
 41 64  1  0  0  0  0
 42 44  1  0  0  0  0
 43 45  1  0  0  0  0
 43 46  1  0  0  0  0
 44 48  1  0  0  0  0
 45 50  1  0  0  0  0
 46 65  1  0  0  0  0
 47 50  1  0  0  0  0
 47 65  1  0  0  0  0
 48 69  1  0  0  0  0
 49 64  1  0  0  0  0
 50 63  1  0  0  0  0
 51 60  1  0  0  0  0
 52 61  1  0  0  0  0
 53 61  1  0  0  0  0
 54 61  1  0  0  0  0
 55 71  1  0  0  0  0
 56 57  1  0  0  0  0
 56 58  1  0  0  0  0
 57 78  1  0  0  0  0
 58 79  1  0  0  0  0
 59 61  1  0  0  0  0
 59 70  1  0  0  0  0
 60 71  1  0  0  0  0
 62 63  1  0  0  0  0
M  CHG  1  71   1
M  ISO  4  38 100  57 101  68 100  78 101
M  END
> <Batch ID>
0001

> <Smiles>
CNC(C)C(=O)NC(C(=O)N1Cc2cc([101O:1][101CH2:1]CCOc3ccccc3[100NH:0][100C:0](=O)N3CCCC(n4nc(-c5ccc(Oc6ccc(F)cc6F)cc5)c(C(N)=O)c4N)C3)ccc2CC1C(=O)NC1CCCc2ccccc21)C(C)(C)C

> <Shape>
0.228

> <Color>
0.061

> <Negative vol penalty>
0.000

$$$$

  -OEChem-04052315163D

 79 86  0     1  0  0  0  0  0999 V2000
  -24.1488  -21.5364   17.0982 C   0  0  0  0  0  0  0  0  0  0  0  0
  -25.2246  -20.6811   16.8822 C   0  0  0  0  0  0  0  0  0  0  0  0
  -27.9659  -23.3978   17.2597 C   0  0  0  0  0  0  0  0  0  0  0  0
  -29.4539  -24.6259   18.7138 C   0  0  0  0  0  0  0  0  0  0  0  0
  -23.4472  -21.4819   18.3019 C   0  0  0  0  0  0  0  0  0  0  0  0
  -25.6000  -19.7715   17.8701 C   0  0  0  0  0  0  0  0  0  0  0  0
  -28.3657  -13.2105   18.6580 C   0  0  0  0  0  0  0  0  0  0  0  0
  -27.1215  -24.5056   17.1879 C   0  0  0  0  0  0  0  0  0  0  0  0
  -28.6095  -25.7339   18.6420 C   0  0  0  0  0  0  0  0  0  0  0  0
  -29.3989  -12.5497   19.3211 C   0  0  0  0  0  0  0  0  0  0  0  0
  -25.6958  -26.7397   20.0310 C   0  0  0  0  0  0  0  0  0  0  0  0
  -25.3996  -27.4069   21.2196 C   0  0  0  0  0  0  0  0  0  0  0  0
  -28.0640  -12.4905   21.3295 C   0  0  0  0  0  0  0  0  0  0  0  0
  -26.3659  -29.4320   20.3237 C   0  0  0  0  0  0  0  0  0  0  0  0
  -29.1321  -23.4578   18.0227 C   0  0  0  0  0  0  0  0  0  0  0  0
  -31.0851  -22.0112   17.2476 C   0  0  0  0  0  0  0  0  0  0  0  0
  -23.8082  -20.5645   19.3012 C   0  0  0  0  0  0  0  0  0  0  0  0
  -27.1762  -13.5265   19.3300 C   0  0  0  0  0  0  0  0  0  0  0  0
  -24.9034  -19.7056   19.0888 C   0  0  0  0  0  0  0  0  0  0  0  0
  -27.0163  -13.1531   20.6720 C   0  0  0  0  0  0  0  0  0  0  0  0
  -27.4433  -25.6737   17.8791 C   0  0  0  0  0  0  0  0  0  0  0  0
  -29.2493  -12.1921   20.6578 C   0  0  0  0  0  0  0  0  0  0  0  0
  -26.3271  -27.4186   18.9888 C   0  0  0  0  0  0  0  0  0  0  0  0
  -25.7346  -28.7530   21.3659 C   0  0  0  0  0  0  0  0  0  0  0  0
  -26.6621  -28.7648   19.1351 C   0  0  0  0  0  0  0  0  0  0  0  0
  -30.0044  -22.3135   18.0977 C   0  0  0  0  0  0  0  0  0  0  0  0
  -31.5855  -20.8289   17.7355 C   0  0  0  0  0  0  0  0  0  0  0  0
  -31.5913  -22.7346   16.1179 C   0  0  0  0  0  0  0  0  0  0  0  0
  -25.6635  -16.2239   20.0648 C   0  0  0  0  0  0  0  0  0  0  0  0
  -23.3609  -14.1909   21.1077 C   0  0  0  0  0  0  0  0  0  0  0  0
  -22.5428  -11.0812   22.2511 C   0  0  0  0  0  0  0  0  0  0  0  0
  -31.4488  -18.4269   23.1270 C   0  0  0  0  0  0  0  0  0  0  0  0
  -23.0495  -20.5751   20.6047 C   0  0  0  0  0  0  0  0  0  0  0  0
  -26.0608  -14.2159   18.5930 C   0  0  0  0  0  0  0  0  0  0  0  0
  -25.7510  -13.4512   21.4328 C   0  0  0  0  0  0  0  0  0  0  0  0
  -23.2764  -19.3255   21.4516 C   0  0  0  0  0  0  0  0  0  0  0  0
  -30.2441  -16.8806   20.0848 C   0  0  0  0  0  0  0  0  0  0  0  0
  -24.7628  -18.9900   21.5206 C   0  0  0  0  0  0  0  0  0  0  0  0
  -30.1510  -18.0857   19.1472 C   0  0  0  0  0  0  0  0  0  0  0  0
  -29.8381  -17.2542   21.5074 C   0  0  0  0  0  0  0  0  0  0  0  0
  -30.5135  -19.5977   21.1529 C   0  0  0  0  0  0  0  0  0  0  0  0
  -25.3256  -18.6882   20.1264 C   0  0  1  0  0  0  0  0  0  0  0  0
  -25.0931  -14.9450   19.5201 C   0  0  1  0  0  0  0  0  0  0  0  0
  -30.9328  -19.2904   19.7038 C   0  0  2  0  0  0  0  0  0  0  0  0
  -20.5878   -9.7300   23.0570 C   0  0  0  0  0  0  0  0  0  0  0  0
  -23.4523  -15.6580   23.7815 C   0  0  0  0  0  0  0  0  0  0  0  0
  -22.2294  -13.7271   24.8035 C   0  0  0  0  0  0  0  0  0  0  0  0
  -21.1535  -15.0660   22.9944 C   0  0  0  0  0  0  0  0  0  0  0  0
  -22.8469   -9.1181   20.0574 C   0  0  0  0  0  0  0  0  0  0  0  0
  -32.3027  -17.1272   25.0605 C   0  0  0  0  0  0  0  0  0  0  0  0
  -32.1882  -15.7446   25.6773 C   0  0  0  0  0  0  0  0  0  0  0  0
  -31.5886  -11.8245   20.8775 C   0  0  0  0  0  0  0  0  0  1  0  0
  -32.5314  -11.6696   22.0552 C   0  0  0  0  0  0  0  0  0  0  0  0
  -32.5348  -13.4559   25.2720 C   0  0  0  0  0  0  0  0  0  0  0  0
  -32.9891  -12.4631   24.2193 C   0  0  0  0  0  0  0  0  0  0  0  0
  -23.0548  -13.5030   22.4161 C   0  0  1  0  0  0  0  0  0  0  0  0
  -21.4344  -10.1222   21.8561 C   0  0  2  0  0  0  0  0  0  0  0  0
  -22.4972  -14.4845   23.4854 C   0  0  0  0  0  0  0  0  0  0  0  0
  -29.8279  -21.3970   19.0531 N   0  0  0  0  0  0  0  0  0  0  0  0
  -30.8043  -20.5072   18.8063 N   0  0  0  0  0  0  0  0  0  0  0  0
  -24.6917  -14.1324   20.6703 N   0  0  0  0  0  0  0  0  0  0  0  0
  -30.6323  -18.3952   21.9843 N   0  0  0  0  0  0  0  0  0  0  0  0
  -32.6130  -20.0433   17.3488 N   0  0  0  0  0  0  0  0  0  0  0  0
  -30.9593  -23.9311   15.7528 N   0  0  0  0  0  0  0  0  0  0  0  0
  -24.9522  -17.3538   19.7087 N   0  0  0  0  0  0  0  0  0  0  0  0
  -22.1594  -12.3966   22.0959 N   0  0  0  0  0  0  0  0  0  0  0  0
  -31.5012  -17.2497   23.8632 N   0  0  0  0  0  0  0  0  0  0  0  0
  -22.0095   -8.8825   21.2616 N   0  3  0  0  0  0  0  0  0  0  0  0
  -32.5648  -22.3234   15.4420 O   0  0  0  0  0  0  0  0  0  0  0  0
  -26.6733  -16.1880   20.7581 O   0  0  0  0  0  0  0  0  0  0  0  0
  -22.4513  -14.7531   20.4927 O   0  0  0  0  0  0  0  0  0  0  0  0
  -23.6378  -10.7016   22.6602 O   0  0  0  0  0  0  0  0  0  0  0  0
  -32.0886  -19.4291   23.4636 O   0  0  0  0  0  0  0  0  0  0  0  0
  -26.6198  -26.7551   17.8091 O   0  0  0  0  0  0  0  0  0  0  0  0
  -30.2564  -11.5476   21.3076 O   0  0  0  0  0  0  0  0  0  1  0  0
  -32.6238  -14.7714   24.7383 O   0  0  0  0  0  0  0  0  0  0  0  0
  -32.1372  -12.5659   23.0870 O   0  0  0  0  0  0  0  0  0  0  0  0
  -25.4487  -29.3940   22.5068 F   0  0  0  0  0  0  0  0  0  0  0  0
  -27.2676  -29.4226   18.1369 F   0  0  0  0  0  0  0  0  0  0  0  0
  1  2  1  0  0  0  0
  1  5  2  0  0  0  0
  2  6  2  0  0  0  0
  3  8  2  0  0  0  0
  3 15  1  0  0  0  0
  4  9  1  0  0  0  0
  4 15  2  0  0  0  0
  5 17  1  0  0  0  0
  6 19  1  0  0  0  0
  7 10  2  0  0  0  0
  7 18  1  0  0  0  0
  8 21  1  0  0  0  0
  9 21  2  0  0  0  0
 10 22  1  0  0  0  0
 11 12  2  0  0  0  0
 11 23  1  0  0  0  0
 12 24  1  0  0  0  0
 13 20  1  0  0  0  0
 13 22  2  0  0  0  0
 14 24  2  0  0  0  0
 14 25  1  0  0  0  0
 15 26  1  0  0  0  0
 16 26  1  0  0  0  0
 16 27  2  0  0  0  0
 16 28  1  0  0  0  0
 17 19  2  0  0  0  0
 17 33  1  0  0  0  0
 18 20  2  0  0  0  0
 18 34  1  0  0  0  0
 19 42  1  0  0  0  0
 20 35  1  0  0  0  0
 21 74  1  0  0  0  0
 22 75  1  0  0  0  0
 23 25  2  0  0  0  0
 23 74  1  0  0  0  0
 24 78  1  0  0  0  0
 25 79  1  0  0  0  0
 26 59  2  0  0  0  0
 27 60  1  0  0  0  0
 27 63  1  0  0  0  0
 28 64  1  0  0  0  0
 28 69  2  0  0  0  0
 29 43  1  0  0  0  0
 29 65  1  0  0  0  0
 29 70  2  0  0  0  0
 30 56  1  0  0  0  0
 30 61  1  0  0  0  0
 30 71  2  0  0  0  0
 31 57  1  0  0  0  0
 31 66  1  0  0  0  0
 31 72  2  0  0  0  0
 32 62  1  0  0  0  0
 32 67  1  0  0  0  0
 32 73  2  0  0  0  0
 33 36  1  0  0  0  0
 34 43  1  0  0  0  0
 35 61  1  0  0  0  0
 36 38  1  0  0  0  0
 37 39  1  0  0  0  0
 37 40  1  0  0  0  0
 38 42  1  0  0  0  0
 39 44  1  0  0  0  0
 40 62  1  0  0  0  0
 41 44  1  0  0  0  0
 41 62  1  0  0  0  0
 42 65  1  0  0  0  0
 43 61  1  0  0  0  0
 44 60  1  0  0  0  0
 45 57  1  0  0  0  0
 46 58  1  0  0  0  0
 47 58  1  0  0  0  0
 48 58  1  0  0  0  0
 49 68  1  0  0  0  0
 50 51  1  0  0  0  0
 50 67  1  0  0  0  0
 51 76  1  0  0  0  0
 52 53  1  0  0  0  0
 52 75  1  0  0  0  0
 53 77  1  0  0  0  0
 54 55  1  0  0  0  0
 54 76  1  0  0  0  0
 55 77  1  0  0  0  0
 56 58  1  0  0  0  0
 56 66  1  0  0  0  0
 57 68  1  0  0  0  0
 59 60  1  0  0  0  0
M  CHG  1  68   1
M  ISO  4  32 100  52 101  67 100  75 101
M  END
> <Batch ID>
0001

> <Smiles>
CNC(C)C(=O)NC(C(=O)N1Cc2cc([101O:1][101CH2:1]COCCOCC[100NH:0][100C:0](=O)N3CCCC(n4nc(-c5ccc(Oc6ccc(F)cc6F)cc5)c(C(N)=O)c4N)C3)ccc2CC1C(=O)NC1CCCc2ccccc21)C(C)(C)C

> <Shape>
0.193

> <Color>
0.068

> <Negative vol penalty>
0.000

$$$$

  -OEChem-04052315163D

 73 80  0     1  0  0  0  0  0999 V2000
  -28.7807  -11.4027   19.8413 C   0  0  0  0  0  0  0  0  0  0  0  0
  -28.8747  -12.6791   19.2960 C   0  0  0  0  0  0  0  0  0  0  0  0
  -25.9114  -28.9143   20.8188 C   0  0  0  0  0  0  0  0  0  0  0  0
  -25.2447  -26.5922   20.8056 C   0  0  0  0  0  0  0  0  0  0  0  0
  -27.5741  -10.9659   20.3863 C   0  0  0  0  0  0  0  0  0  0  0  0
  -27.7616  -13.5191   19.2943 C   0  0  0  0  0  0  0  0  0  0  0  0
  -28.8908  -18.2435   20.7261 C   0  0  0  0  0  0  0  0  0  0  0  0
  -24.5811  -29.2972   20.6476 C   0  0  0  0  0  0  0  0  0  0  0  0
  -23.9144  -26.9751   20.6344 C   0  0  0  0  0  0  0  0  0  0  0  0
  -29.5037  -19.0657   19.7816 C   0  0  0  0  0  0  0  0  0  0  0  0
  -20.2991  -27.3512   20.5553 C   0  0  0  0  0  0  0  0  0  0  0  0
  -19.3346  -26.7145   21.3363 C   0  0  0  0  0  0  0  0  0  0  0  0
  -27.3782  -20.1087   19.3193 C   0  0  0  0  0  0  0  0  0  0  0  0
  -20.4277  -27.5133   23.3374 C   0  0  0  0  0  0  0  0  0  0  0  0
  -26.2432  -27.5618   20.8978 C   0  0  0  0  0  0  0  0  0  0  0  0
  -28.2943  -26.9641   22.2918 C   0  0  0  0  0  0  0  0  0  0  0  0
  -26.4483  -11.8044   20.4000 C   0  0  0  0  0  0  0  0  0  0  0  0
  -27.5128  -18.3403   20.9669 C   0  0  0  0  0  0  0  0  0  0  0  0
  -26.5384  -13.0925   19.8388 C   0  0  0  0  0  0  0  0  0  0  0  0
  -26.7507  -19.2883   20.2692 C   0  0  0  0  0  0  0  0  0  0  0  0
  -23.5826  -28.3276   20.5554 C   0  0  0  0  0  0  0  0  0  0  0  0
  -28.7469  -19.9965   19.0760 C   0  0  0  0  0  0  0  0  0  0  0  0
  -21.3280  -28.0688   21.1653 C   0  0  0  0  0  0  0  0  0  0  0  0
  -19.3988  -26.7956   22.7274 C   0  0  0  0  0  0  0  0  0  0  0  0
  -21.3923  -28.1499   22.5564 C   0  0  0  0  0  0  0  0  0  0  0  0
  -27.6173  -27.1656   21.0741 C   0  0  0  0  0  0  0  0  0  0  0  0
  -29.5659  -26.6003   21.9215 C   0  0  0  0  0  0  0  0  0  0  0  0
  -27.8165  -27.0941   23.6374 C   0  0  0  0  0  0  0  0  0  0  0  0
  -25.0394  -16.3661   20.6693 C   0  0  0  0  0  0  0  0  0  0  0  0
  -23.4301  -18.7916   22.1009 C   0  0  0  0  0  0  0  0  0  0  0  0
  -23.2352  -22.1273   22.7949 C   0  0  0  0  0  0  0  0  0  0  0  0
  -31.8053  -24.0606   16.9833 C   0  0  0  0  0  0  0  0  0  0  0  0
  -25.1525  -11.2708   20.9575 C   0  0  0  0  0  0  0  0  0  0  0  0
  -26.8716  -17.4645   22.0082 C   0  0  0  0  0  0  0  0  0  0  0  0
  -25.2716  -19.4460   20.5052 C   0  0  0  0  0  0  0  0  0  0  0  0
  -24.1234  -12.3586   21.2544 C   0  0  0  0  0  0  0  0  0  0  0  0
  -32.7528  -27.1859   18.4013 C   0  0  0  0  0  0  0  0  0  0  0  0
  -24.0228  -13.3319   20.0842 C   0  0  0  0  0  0  0  0  0  0  0  0
  -31.6052  -27.5169   19.3570 C   0  0  0  0  0  0  0  0  0  0  0  0
  -32.2517  -26.4924   17.1365 C   0  0  0  0  0  0  0  0  0  0  0  0
  -30.2768  -25.6255   18.3290 C   0  0  0  0  0  0  0  0  0  0  0  0
  -25.3600  -14.0420   19.8407 C   0  0  1  0  0  0  0  0  0  0  0  0
  -25.3693  -17.2948   21.8034 C   0  0  1  0  0  0  0  0  0  0  0  0
  -30.7390  -26.2758   19.6442 C   0  0  2  0  0  0  0  0  0  0  0  0
  -21.7856  -23.8170   23.9528 C   0  0  0  0  0  0  0  0  0  0  0  0
  -21.4554  -18.6861   19.7772 C   0  0  0  0  0  0  0  0  0  0  0  0
  -20.6243  -20.9432   20.4723 C   0  0  0  0  0  0  0  0  0  0  0  0
  -20.4056  -19.0030   22.0249 C   0  0  0  0  0  0  0  0  0  0  0  0
  -25.3980  -22.8660   24.6752 C   0  0  0  0  0  0  0  0  0  0  0  0
  -31.2354  -21.6456   16.9357 C   0  0  0  0  0  0  0  0  0  0  0  0
  -30.7465  -20.6355   17.9583 C   0  0  0  0  0  0  0  0  0  1  0  0
  -22.6870  -20.0136   21.6176 C   0  0  1  0  0  0  0  0  0  0  0  0
  -22.9697  -22.8728   24.0904 C   0  0  2  0  0  0  0  0  0  0  0  0
  -21.3206  -19.6574   20.9669 C   0  0  0  0  0  0  0  0  0  0  0  0
  -28.3944  -26.9480   20.0099 N   0  0  0  0  0  0  0  0  0  0  0  0
  -29.5730  -26.6061   20.5576 N   0  0  0  0  0  0  0  0  0  0  0  0
  -24.6895  -18.5623   21.5289 N   0  0  0  0  0  0  0  0  0  0  0  0
  -31.4385  -25.3228   17.4784 N   0  0  0  0  0  0  0  0  0  0  0  0
  -30.6675  -26.2792   22.6327 N   0  0  0  0  0  0  0  0  0  0  0  0
  -26.4833  -27.4765   23.8389 N   0  0  0  0  0  0  0  0  0  0  0  0
  -25.5584  -15.0937   20.8148 N   0  0  0  0  0  0  0  0  0  0  0  0
  -22.5873  -20.9105   22.7639 N   0  0  0  0  0  0  0  0  0  0  0  0
  -30.9843  -23.0048   17.3602 N   0  0  0  0  0  0  0  0  0  0  0  0
  -24.1650  -23.6719   24.4825 N   0  3  0  0  0  0  0  0  0  0  0  0
  -28.5547  -26.8935   24.6315 O   0  0  0  0  0  0  0  0  0  0  0  0
  -24.3627  -16.7733   19.7323 O   0  0  0  0  0  0  0  0  0  0  0  0
  -22.9152  -18.0710   22.9596 O   0  0  0  0  0  0  0  0  0  0  0  0
  -23.9432  -22.5808   21.8985 O   0  0  0  0  0  0  0  0  0  0  0  0
  -32.7944  -23.8864   16.2633 O   0  0  0  0  0  0  0  0  0  0  0  0
  -22.2844  -28.7009   20.3885 O   0  0  0  0  0  0  0  0  0  0  0  0
  -29.3424  -20.7999   18.1530 O   0  0  0  0  0  0  0  0  0  1  0  0
  -18.4716  -26.1855   23.4772 F   0  0  0  0  0  0  0  0  0  0  0  0
  -22.3777  -28.8388   23.1481 F   0  0  0  0  0  0  0  0  0  0  0  0
  1  2  1  0  0  0  0
  1  5  2  0  0  0  0
  2  6  2  0  0  0  0
  3  8  2  0  0  0  0
  3 15  1  0  0  0  0
  4  9  1  0  0  0  0
  4 15  2  0  0  0  0
  5 17  1  0  0  0  0
  6 19  1  0  0  0  0
  7 10  2  0  0  0  0
  7 18  1  0  0  0  0
  8 21  1  0  0  0  0
  9 21  2  0  0  0  0
 10 22  1  0  0  0  0
 11 12  2  0  0  0  0
 11 23  1  0  0  0  0
 12 24  1  0  0  0  0
 13 20  1  0  0  0  0
 13 22  2  0  0  0  0
 14 24  2  0  0  0  0
 14 25  1  0  0  0  0
 15 26  1  0  0  0  0
 16 26  1  0  0  0  0
 16 27  2  0  0  0  0
 16 28  1  0  0  0  0
 17 19  2  0  0  0  0
 17 33  1  0  0  0  0
 18 20  2  0  0  0  0
 18 34  1  0  0  0  0
 19 42  1  0  0  0  0
 20 35  1  0  0  0  0
 21 70  1  0  0  0  0
 22 71  1  0  0  0  0
 23 25  2  0  0  0  0
 23 70  1  0  0  0  0
 24 72  1  0  0  0  0
 25 73  1  0  0  0  0
 26 55  2  0  0  0  0
 27 56  1  0  0  0  0
 27 59  1  0  0  0  0
 28 60  1  0  0  0  0
 28 65  2  0  0  0  0
 29 43  1  0  0  0  0
 29 61  1  0  0  0  0
 29 66  2  0  0  0  0
 30 52  1  0  0  0  0
 30 57  1  0  0  0  0
 30 67  2  0  0  0  0
 31 53  1  0  0  0  0
 31 62  1  0  0  0  0
 31 68  2  0  0  0  0
 32 58  1  0  0  0  0
 32 63  1  0  0  0  0
 32 69  2  0  0  0  0
 33 36  1  0  0  0  0
 34 43  1  0  0  0  0
 35 57  1  0  0  0  0
 36 38  1  0  0  0  0
 37 39  1  0  0  0  0
 37 40  1  0  0  0  0
 38 42  1  0  0  0  0
 39 44  1  0  0  0  0
 40 58  1  0  0  0  0
 41 44  1  0  0  0  0
 41 58  1  0  0  0  0
 42 61  1  0  0  0  0
 43 57  1  0  0  0  0
 44 56  1  0  0  0  0
 45 53  1  0  0  0  0
 46 54  1  0  0  0  0
 47 54  1  0  0  0  0
 48 54  1  0  0  0  0
 49 64  1  0  0  0  0
 50 51  1  0  0  0  0
 50 63  1  0  0  0  0
 51 71  1  0  0  0  0
 52 54  1  0  0  0  0
 52 62  1  0  0  0  0
 53 64  1  0  0  0  0
 55 56  1  0  0  0  0
M  CHG  1  64   1
M  ISO  4  32 100  51 101  63 100  71 101
M  END
> <Batch ID>
0001

> <Smiles>
CNC(C)C(=O)NC(C(=O)N1Cc2cc([101O:1][101CH2:1]C[100NH:0][100C:0](=O)N3CCCC(n4nc(-c5ccc(Oc6ccc(F)cc6F)cc5)c(C(N)=O)c4N)C3)ccc2CC1C(=O)NC1CCCc2ccccc21)C(C)(C)C

> <Shape>
0.226

> <Color>
0.066

> <Negative vol penalty>
0.000

$$$$

  -OEChem-04052315163D

 77 84  0     1  0  0  0  0  0999 V2000
  -25.0783  -29.6397   25.9439 C   0  0  0  0  0  0  0  0  0  0  0  0
  -25.7537  -28.4303   26.0727 C   0  0  0  0  0  0  0  0  0  0  0  0
  -23.1917   -9.8176   19.9322 C   0  0  0  0  0  0  0  0  0  0  0  0
  -23.5667  -10.0013   22.3118 C   0  0  0  0  0  0  0  0  0  0  0  0
  -23.6897  -29.6515   25.8196 C   0  0  0  0  0  0  0  0  0  0  0  0
  -25.0406  -27.2320   26.0785 C   0  0  0  0  0  0  0  0  0  0  0  0
  -26.8489  -21.8606   23.7580 C   0  0  0  0  0  0  0  0  0  0  0  0
  -22.4256   -8.6710   20.1414 C   0  0  0  0  0  0  0  0  0  0  0  0
  -22.8005   -8.8546   22.5211 C   0  0  0  0  0  0  0  0  0  0  0  0
  -27.4132  -20.7282   24.3436 C   0  0  0  0  0  0  0  0  0  0  0  0
  -21.2427   -5.7717   23.6518 C   0  0  0  0  0  0  0  0  0  0  0  0
  -21.7382   -4.8132   24.5357 C   0  0  0  0  0  0  0  0  0  0  0  0
  -25.2259  -19.7217   24.4908 C   0  0  0  0  0  0  0  0  0  0  0  0
  -23.6989   -4.5481   23.1491 C   0  0  0  0  0  0  0  0  0  0  0  0
  -23.7623  -10.4828   21.0174 C   0  0  0  0  0  0  0  0  0  0  0  0
  -24.1004  -12.9992   20.7709 C   0  0  0  0  0  0  0  0  0  0  0  0
  -22.9601  -28.4523   25.8142 C   0  0  0  0  0  0  0  0  0  0  0  0
  -25.4651  -21.9367   23.5440 C   0  0  0  0  0  0  0  0  0  0  0  0
  -23.6407  -27.2279   25.9554 C   0  0  0  0  0  0  0  0  0  0  0  0
  -24.6468  -20.8551   23.9000 C   0  0  0  0  0  0  0  0  0  0  0  0
  -22.2300   -8.1894   21.4358 C   0  0  0  0  0  0  0  0  0  0  0  0
  -26.6014  -19.6597   24.7127 C   0  0  0  0  0  0  0  0  0  0  0  0
  -21.9752   -6.1184   22.5165 C   0  0  0  0  0  0  0  0  0  0  0  0
  -22.9663   -4.2014   24.2844 C   0  0  0  0  0  0  0  0  0  0  0  0
  -23.2033   -5.5066   22.2652 C   0  0  0  0  0  0  0  0  0  0  0  0
  -24.5543  -11.6670   20.8019 C   0  0  0  0  0  0  0  0  0  0  0  0
  -25.2317  -13.7420   20.5361 C   0  0  0  0  0  0  0  0  0  0  0  0
  -22.7748  -13.5189   20.9392 C   0  0  0  0  0  0  0  0  0  0  0  0
  -23.1362  -23.8357   24.5802 C   0  0  0  0  0  0  0  0  0  0  0  0
  -21.3500  -22.1526   22.4590 C   0  0  0  0  0  0  0  0  0  0  0  0
  -20.9198  -19.2768   20.6726 C   0  0  0  0  0  0  0  0  0  0  0  0
  -31.0454  -12.7556   21.5746 C   0  0  0  0  0  0  0  0  0  0  0  0
  -21.4559  -28.5180   25.7249 C   0  0  0  0  0  0  0  0  0  0  0  0
  -24.8752  -23.1543   22.8868 C   0  0  0  0  0  0  0  0  0  0  0  0
  -23.1580  -20.8788   23.6731 C   0  0  0  0  0  0  0  0  0  0  0  0
  -20.8083  -27.1837   25.3636 C   0  0  0  0  0  0  0  0  0  0  0  0
  -29.5220  -13.4683   18.4365 C   0  0  0  0  0  0  0  0  0  0  0  0
  -21.4016  -26.0574   26.2041 C   0  0  0  0  0  0  0  0  0  0  0  0
  -28.0352  -13.2077   18.6841 C   0  0  0  0  0  0  0  0  0  0  0  0
  -30.4027  -12.4802   19.1982 C   0  0  0  0  0  0  0  0  0  0  0  0
  -28.6470  -12.1390   20.8937 C   0  0  0  0  0  0  0  0  0  0  0  0
  -22.9047  -25.9057   25.9411 C   0  0  1  0  0  0  0  0  0  0  0  0
  -23.3903  -23.3348   23.1865 C   0  0  1  0  0  0  0  0  0  0  0  0
  -27.7201  -13.1456   20.1907 C   0  0  2  0  0  0  0  0  0  0  0  0
  -19.3461  -18.1794   19.0549 C   0  0  0  0  0  0  0  0  0  0  0  0
  -19.4104  -21.5738   24.7421 C   0  0  0  0  0  0  0  0  0  0  0  0
  -18.4195  -19.7480   23.3447 C   0  0  0  0  0  0  0  0  0  0  0  0
  -18.3190  -22.1130   22.5575 C   0  0  0  0  0  0  0  0  0  0  0  0
  -23.0080  -19.0983   18.5830 C   0  0  0  0  0  0  0  0  0  0  0  0
  -28.6978  -16.7228   25.0143 C   0  0  0  0  0  0  0  0  0  0  0  0
  -31.5322  -13.0101   23.9949 C   0  0  0  0  0  0  0  0  0  0  0  0
  -28.4878  -18.2255   24.9137 C   0  0  0  0  0  0  0  0  0  1  0  0
  -30.1061  -16.3169   24.6090 C   0  0  0  0  0  0  0  0  0  0  0  0
  -31.5573  -14.4875   24.3440 C   0  0  0  0  0  0  0  0  0  0  0  0
  -20.5297  -20.8868   22.5193 C   0  0  1  0  0  0  0  0  0  0  0  0
  -20.5909  -19.0393   19.2097 C   0  0  2  0  0  0  0  0  0  0  0  0
  -19.1974  -21.0804   23.2971 C   0  0  0  0  0  0  0  0  0  0  0  0
  -25.8712  -11.5662   20.6027 N   0  0  0  0  0  0  0  0  0  0  0  0
  -26.2545  -12.8445   20.4442 N   0  0  0  0  0  0  0  0  0  0  0  0
  -22.6278  -22.0941   23.0331 N   0  0  0  0  0  0  0  0  0  0  0  0
  -30.0542  -12.4709   20.6210 N   0  0  0  0  0  0  0  0  0  0  0  0
  -25.4413  -15.0688   20.4015 N   0  0  0  0  0  0  0  0  0  0  0  0
  -21.7281  -12.6165   21.1730 N   0  0  0  0  0  0  0  0  0  0  0  0
  -23.1316  -25.2131   24.6909 N   0  0  0  0  0  0  0  0  0  0  0  0
  -20.3573  -20.4460   21.1393 N   0  0  0  0  0  0  0  0  0  0  0  0
  -30.6294  -12.7318   22.9002 N   0  0  0  0  0  0  0  0  0  0  0  0
  -21.7245  -18.3521   18.5289 N   0  3  0  0  0  0  0  0  0  0  0  0
  -22.5232  -14.7457   20.8676 O   0  0  0  0  0  0  0  0  0  0  0  0
  -22.9560  -23.0320   25.4876 O   0  0  0  0  0  0  0  0  0  0  0  0
  -20.8773  -23.1543   21.9160 O   0  0  0  0  0  0  0  0  0  0  0  0
  -21.6039  -18.5007   21.3360 O   0  0  0  0  0  0  0  0  0  0  0  0
  -32.2133  -13.0173   21.2672 O   0  0  0  0  0  0  0  0  0  0  0  0
  -21.4822   -7.0707   21.6403 O   0  0  0  0  0  0  0  0  0  0  0  0
  -27.1495  -18.5534   25.2850 O   0  0  0  0  0  0  0  0  0  1  0  0
  -30.2512  -14.9071   24.7152 O   0  0  0  0  0  0  0  0  0  0  0  0
  -23.4428   -3.2821   25.1342 F   0  0  0  0  0  0  0  0  0  0  0  0
  -23.9121   -5.8364   21.1768 F   0  0  0  0  0  0  0  0  0  0  0  0
  1  2  1  0  0  0  0
  1  5  2  0  0  0  0
  2  6  2  0  0  0  0
  3  8  2  0  0  0  0
  3 15  1  0  0  0  0
  4  9  1  0  0  0  0
  4 15  2  0  0  0  0
  5 17  1  0  0  0  0
  6 19  1  0  0  0  0
  7 10  2  0  0  0  0
  7 18  1  0  0  0  0
  8 21  1  0  0  0  0
  9 21  2  0  0  0  0
 10 22  1  0  0  0  0
 11 12  2  0  0  0  0
 11 23  1  0  0  0  0
 12 24  1  0  0  0  0
 13 20  1  0  0  0  0
 13 22  2  0  0  0  0
 14 24  2  0  0  0  0
 14 25  1  0  0  0  0
 15 26  1  0  0  0  0
 16 26  1  0  0  0  0
 16 27  2  0  0  0  0
 16 28  1  0  0  0  0
 17 19  2  0  0  0  0
 17 33  1  0  0  0  0
 18 20  2  0  0  0  0
 18 34  1  0  0  0  0
 19 42  1  0  0  0  0
 20 35  1  0  0  0  0
 21 73  1  0  0  0  0
 22 74  1  0  0  0  0
 23 25  2  0  0  0  0
 23 73  1  0  0  0  0
 24 76  1  0  0  0  0
 25 77  1  0  0  0  0
 26 58  2  0  0  0  0
 27 59  1  0  0  0  0
 27 62  1  0  0  0  0
 28 63  1  0  0  0  0
 28 68  2  0  0  0  0
 29 43  1  0  0  0  0
 29 64  1  0  0  0  0
 29 69  2  0  0  0  0
 30 55  1  0  0  0  0
 30 60  1  0  0  0  0
 30 70  2  0  0  0  0
 31 56  1  0  0  0  0
 31 65  1  0  0  0  0
 31 71  2  0  0  0  0
 32 61  1  0  0  0  0
 32 66  1  0  0  0  0
 32 72  2  0  0  0  0
 33 36  1  0  0  0  0
 34 43  1  0  0  0  0
 35 60  1  0  0  0  0
 36 38  1  0  0  0  0
 37 39  1  0  0  0  0
 37 40  1  0  0  0  0
 38 42  1  0  0  0  0
 39 44  1  0  0  0  0
 40 61  1  0  0  0  0
 41 44  1  0  0  0  0
 41 61  1  0  0  0  0
 42 64  1  0  0  0  0
 43 60  1  0  0  0  0
 44 59  1  0  0  0  0
 45 56  1  0  0  0  0
 46 57  1  0  0  0  0
 47 57  1  0  0  0  0
 48 57  1  0  0  0  0
 49 67  1  0  0  0  0
 50 52  1  0  0  0  0
 50 53  1  0  0  0  0
 51 54  1  0  0  0  0
 51 66  1  0  0  0  0
 52 74  1  0  0  0  0
 53 75  1  0  0  0  0
 54 75  1  0  0  0  0
 55 57  1  0  0  0  0
 55 65  1  0  0  0  0
 56 67  1  0  0  0  0
 58 59  1  0  0  0  0
M  CHG  1  67   1
M  ISO  4  32 100  52 101  66 100  74 101
M  END
> <Batch ID>
0001

> <Smiles>
CNC(C)C(=O)NC(C(=O)N1Cc2cc([101O:1][101CH2:1]CCOCC[100NH:0][100C:0](=O)N3CCCC(n4nc(-c5ccc(Oc6ccc(F)cc6F)cc5)c(C(N)=O)c4N)C3)ccc2CC1C(=O)NC1CCCc2ccccc21)C(C)(C)C

> <Shape>
0.153

> <Color>
0.190

> <Negative vol penalty>
0.000

$$$$

  -OEChem-04052315163D

 74 81  0     1  0  0  0  0  0999 V2000
  -28.2370  -24.4861   17.1417 C   0  0  0  0  0  0  0  0  0  0  0  0
  -27.0905  -25.1970   17.4776 C   0  0  0  0  0  0  0  0  0  0  0  0
  -23.9976  -17.2212   19.7044 C   0  0  0  0  0  0  0  0  0  0  0  0
  -21.6114  -17.5982   19.7372 C   0  0  0  0  0  0  0  0  0  0  0  0
  -29.3729  -24.5840   17.9426 C   0  0  0  0  0  0  0  0  0  0  0  0
  -27.0832  -26.0153   18.6078 C   0  0  0  0  0  0  0  0  0  0  0  0
  -23.1087  -28.8301   19.3032 C   0  0  0  0  0  0  0  0  0  0  0  0
  -23.7896  -15.8777   20.0166 C   0  0  0  0  0  0  0  0  0  0  0  0
  -21.4034  -16.2547   20.0494 C   0  0  0  0  0  0  0  0  0  0  0  0
  -21.8764  -28.3102   19.6969 C   0  0  0  0  0  0  0  0  0  0  0  0
  -23.8696  -12.2693   20.4498 C   0  0  0  0  0  0  0  0  0  0  0  0
  -24.5945  -11.3172   19.7332 C   0  0  0  0  0  0  0  0  0  0  0  0
  -22.2606  -29.1131   21.9389 C   0  0  0  0  0  0  0  0  0  0  0  0
  -23.5960  -12.1033   17.6784 C   0  0  0  0  0  0  0  0  0  0  0  0
  -22.9085  -18.0814   19.5647 C   0  0  0  0  0  0  0  0  0  0  0  0
  -23.1955  -20.0430   17.9592 C   0  0  0  0  0  0  0  0  0  0  0  0
  -29.3747  -25.3944   19.0898 C   0  0  0  0  0  0  0  0  0  0  0  0
  -23.9324  -29.4870   20.2287 C   0  0  0  0  0  0  0  0  0  0  0  0
  -28.2273  -26.1461   19.4155 C   0  0  0  0  0  0  0  0  0  0  0  0
  -23.5017  -29.6426   21.5540 C   0  0  0  0  0  0  0  0  0  0  0  0
  -22.4925  -15.3945   20.1891 C   0  0  0  0  0  0  0  0  0  0  0  0
  -21.4534  -28.4491   21.0155 C   0  0  0  0  0  0  0  0  0  0  0  0
  -23.0077  -13.1384   19.7807 C   0  0  0  0  0  0  0  0  0  0  0  0
  -24.4578  -11.2342   18.3475 C   0  0  0  0  0  0  0  0  0  0  0  0
  -22.8709  -13.0554   18.3951 C   0  0  0  0  0  0  0  0  0  0  0  0
  -23.1227  -19.4695   19.2428 C   0  0  0  0  0  0  0  0  0  0  0  0
  -23.4090  -21.3796   18.1920 C   0  0  0  0  0  0  0  0  0  0  0  0
  -23.0803  -19.4229   16.6716 C   0  0  0  0  0  0  0  0  0  0  0  0
  -26.8422  -28.9749   21.4010 C   0  0  0  0  0  0  0  0  0  0  0  0
  -26.3567  -31.8553   22.8116 C   0  0  0  0  0  0  0  0  0  0  0  0
  -24.1398  -34.1868   23.9501 C   0  0  0  0  0  0  0  0  0  0  0  0
  -22.1653  -24.9610   22.8264 C   0  0  0  0  0  0  0  0  0  0  0  0
  -30.6340  -25.4698   19.9166 C   0  0  0  0  0  0  0  0  0  0  0  0
  -25.2470  -30.0656   19.7819 C   0  0  0  0  0  0  0  0  0  0  0  0
  -24.3398  -30.3572   22.5814 C   0  0  0  0  0  0  0  0  0  0  0  0
  -30.3902  -26.0052   21.3238 C   0  0  0  0  0  0  0  0  0  0  0  0
  -25.3644  -24.3589   21.3844 C   0  0  0  0  0  0  0  0  0  0  0  0
  -29.5719  -27.2861   21.2580 C   0  0  0  0  0  0  0  0  0  0  0  0
  -25.1592  -23.0892   20.5562 C   0  0  0  0  0  0  0  0  0  0  0  0
  -24.5549  -24.3253   22.6788 C   0  0  0  0  0  0  0  0  0  0  0  0
  -22.9098  -22.7899   21.6739 C   0  0  0  0  0  0  0  0  0  0  0  0
  -28.1862  -27.0186   20.6570 C   0  0  1  0  0  0  0  0  0  0  0  0
  -26.2328  -30.2646   20.9290 C   0  0  1  0  0  0  0  0  0  0  0  0
  -23.6624  -22.8016   20.3323 C   0  0  2  0  0  0  0  0  0  0  0  0
  -24.0417  -36.4211   25.0884 C   0  0  0  0  0  0  0  0  0  0  0  0
  -27.0386  -30.5268   25.4724 C   0  0  0  0  0  0  0  0  0  0  0  0
  -26.0199  -32.4953   26.6367 C   0  0  0  0  0  0  0  0  0  0  0  0
  -28.0109  -32.8106   25.1672 C   0  0  0  0  0  0  0  0  0  0  0  0
  -22.7535  -35.4283   21.6488 C   0  0  0  0  0  0  0  0  0  0  0  0
  -18.9463  -25.9462   21.6711 C   0  0  0  0  0  0  0  0  0  0  0  0
  -19.7364  -25.4678   22.8817 C   0  0  0  0  0  0  0  0  0  0  0  0
  -19.7817  -26.7851   20.7116 C   0  0  0  0  0  0  0  0  0  1  0  0
  -25.7630  -32.3184   24.1200 C   0  0  1  0  0  0  0  0  0  0  0  0
  -24.0705  -35.6906   23.7549 C   0  0  2  0  0  0  0  0  0  0  0  0
  -26.6930  -32.0226   25.3304 C   0  0  0  0  0  0  0  0  0  0  0  0
  -23.2776  -20.3682   20.2186 N   0  0  0  0  0  0  0  0  0  0  0  0
  -23.4499  -21.5200   19.5480 N   0  0  0  0  0  0  0  0  0  0  0  0
  -25.6199  -30.9000   22.0973 N   0  0  0  0  0  0  0  0  0  0  0  0
  -23.1441  -24.0498   22.3967 N   0  0  0  0  0  0  0  0  0  0  0  0
  -23.5640  -22.4369   17.3670 N   0  0  0  0  0  0  0  0  0  0  0  0
  -22.8617  -18.0397   16.6133 N   0  0  0  0  0  0  0  0  0  0  0  0
  -27.5233  -28.2817   20.4185 N   0  0  0  0  0  0  0  0  0  0  0  0
  -25.4410  -33.7306   23.9450 N   0  0  0  0  0  0  0  0  0  0  0  0
  -20.8535  -24.6272   22.5125 N   0  0  0  0  0  0  0  0  0  0  0  0
  -22.8445  -36.0579   22.9913 N   0  3  0  0  0  0  0  0  0  0  0  0
  -23.1849  -20.0734   15.6042 O   0  0  0  0  0  0  0  0  0  0  0  0
  -26.7060  -28.6345   22.5703 O   0  0  0  0  0  0  0  0  0  0  0  0
  -27.4311  -32.3292   22.4336 O   0  0  0  0  0  0  0  0  0  0  0  0
  -23.1399  -33.4873   24.0965 O   0  0  0  0  0  0  0  0  0  0  0  0
  -22.4405  -25.9981   23.4394 O   0  0  0  0  0  0  0  0  0  0  0  0
  -22.2892  -14.0836   20.4935 O   0  0  0  0  0  0  0  0  0  0  0  0
  -20.2514  -27.9420   21.4025 O   0  0  0  0  0  0  0  0  0  1  0  0
  -25.1552  -10.3209   17.6593 F   0  0  0  0  0  0  0  0  0  0  0  0
  -22.0454  -13.8884   17.7467 F   0  0  0  0  0  0  0  0  0  0  0  0
  1  2  1  0  0  0  0
  1  5  2  0  0  0  0
  2  6  2  0  0  0  0
  3  8  2  0  0  0  0
  3 15  1  0  0  0  0
  4  9  1  0  0  0  0
  4 15  2  0  0  0  0
  5 17  1  0  0  0  0
  6 19  1  0  0  0  0
  7 10  2  0  0  0  0
  7 18  1  0  0  0  0
  8 21  1  0  0  0  0
  9 21  2  0  0  0  0
 10 22  1  0  0  0  0
 11 12  2  0  0  0  0
 11 23  1  0  0  0  0
 12 24  1  0  0  0  0
 13 20  1  0  0  0  0
 13 22  2  0  0  0  0
 14 24  2  0  0  0  0
 14 25  1  0  0  0  0
 15 26  1  0  0  0  0
 16 26  1  0  0  0  0
 16 27  2  0  0  0  0
 16 28  1  0  0  0  0
 17 19  2  0  0  0  0
 17 33  1  0  0  0  0
 18 20  2  0  0  0  0
 18 34  1  0  0  0  0
 19 42  1  0  0  0  0
 20 35  1  0  0  0  0
 21 71  1  0  0  0  0
 22 72  1  0  0  0  0
 23 25  2  0  0  0  0
 23 71  1  0  0  0  0
 24 73  1  0  0  0  0
 25 74  1  0  0  0  0
 26 56  2  0  0  0  0
 27 57  1  0  0  0  0
 27 60  1  0  0  0  0
 28 61  1  0  0  0  0
 28 66  2  0  0  0  0
 29 43  1  0  0  0  0
 29 62  1  0  0  0  0
 29 67  2  0  0  0  0
 30 53  1  0  0  0  0
 30 58  1  0  0  0  0
 30 68  2  0  0  0  0
 31 54  1  0  0  0  0
 31 63  1  0  0  0  0
 31 69  2  0  0  0  0
 32 59  1  0  0  0  0
 32 64  1  0  0  0  0
 32 70  2  0  0  0  0
 33 36  1  0  0  0  0
 34 43  1  0  0  0  0
 35 58  1  0  0  0  0
 36 38  1  0  0  0  0
 37 39  1  0  0  0  0
 37 40  1  0  0  0  0
 38 42  1  0  0  0  0
 39 44  1  0  0  0  0
 40 59  1  0  0  0  0
 41 44  1  0  0  0  0
 41 59  1  0  0  0  0
 42 62  1  0  0  0  0
 43 58  1  0  0  0  0
 44 57  1  0  0  0  0
 45 54  1  0  0  0  0
 46 55  1  0  0  0  0
 47 55  1  0  0  0  0
 48 55  1  0  0  0  0
 49 65  1  0  0  0  0
 50 51  1  0  0  0  0
 50 52  1  0  0  0  0
 51 64  1  0  0  0  0
 52 72  1  0  0  0  0
 53 55  1  0  0  0  0
 53 63  1  0  0  0  0
 54 65  1  0  0  0  0
 56 57  1  0  0  0  0
M  CHG  1  65   1
M  ISO  4  32 100  52 101  64 100  72 101
M  END
> <Batch ID>
0001

> <Smiles>
CNC(C)C(=O)NC(C(=O)N1Cc2cc([101O:1][101CH2:1]CC[100NH:0][100C:0](=O)N3CCCC(n4nc(-c5ccc(Oc6ccc(F)cc6F)cc5)c(C(N)=O)c4N)C3)ccc2CC1C(=O)NC1CCCc2ccccc21)C(C)(C)C

> <Shape>
0.222

> <Color>
0.068

> <Negative vol penalty>
0.000

$$$$

  -OEChem-04052315163D

 74 81  0     1  0  0  0  0  0999 V2000
  -28.2370  -24.4861   17.1417 C   0  0  0  0  0  0  0  0  0  0  0  0
  -27.0905  -25.1970   17.4776 C   0  0  0  0  0  0  0  0  0  0  0  0
  -23.9976  -17.2212   19.7044 C   0  0  0  0  0  0  0  0  0  0  0  0
  -21.6114  -17.5982   19.7372 C   0  0  0  0  0  0  0  0  0  0  0  0
  -29.3729  -24.5840   17.9426 C   0  0  0  0  0  0  0  0  0  0  0  0
  -27.0832  -26.0153   18.6078 C   0  0  0  0  0  0  0  0  0  0  0  0
  -23.1087  -28.8301   19.3032 C   0  0  0  0  0  0  0  0  0  0  0  0
  -23.7896  -15.8777   20.0166 C   0  0  0  0  0  0  0  0  0  0  0  0
  -21.4034  -16.2547   20.0494 C   0  0  0  0  0  0  0  0  0  0  0  0
  -21.8764  -28.3102   19.6969 C   0  0  0  0  0  0  0  0  0  0  0  0
  -23.8696  -12.2693   20.4498 C   0  0  0  0  0  0  0  0  0  0  0  0
  -24.5945  -11.3172   19.7332 C   0  0  0  0  0  0  0  0  0  0  0  0
  -22.2606  -29.1131   21.9389 C   0  0  0  0  0  0  0  0  0  0  0  0
  -23.5960  -12.1033   17.6784 C   0  0  0  0  0  0  0  0  0  0  0  0
  -22.9085  -18.0814   19.5647 C   0  0  0  0  0  0  0  0  0  0  0  0
  -23.1955  -20.0430   17.9592 C   0  0  0  0  0  0  0  0  0  0  0  0
  -29.3747  -25.3944   19.0898 C   0  0  0  0  0  0  0  0  0  0  0  0
  -23.9324  -29.4870   20.2287 C   0  0  0  0  0  0  0  0  0  0  0  0
  -28.2273  -26.1461   19.4155 C   0  0  0  0  0  0  0  0  0  0  0  0
  -23.5017  -29.6426   21.5540 C   0  0  0  0  0  0  0  0  0  0  0  0
  -22.4925  -15.3945   20.1891 C   0  0  0  0  0  0  0  0  0  0  0  0
  -21.4534  -28.4491   21.0155 C   0  0  0  0  0  0  0  0  0  0  0  0
  -23.0077  -13.1384   19.7807 C   0  0  0  0  0  0  0  0  0  0  0  0
  -24.4578  -11.2342   18.3475 C   0  0  0  0  0  0  0  0  0  0  0  0
  -22.8709  -13.0554   18.3951 C   0  0  0  0  0  0  0  0  0  0  0  0
  -23.1227  -19.4695   19.2428 C   0  0  0  0  0  0  0  0  0  0  0  0
  -23.4090  -21.3796   18.1920 C   0  0  0  0  0  0  0  0  0  0  0  0
  -23.0803  -19.4229   16.6716 C   0  0  0  0  0  0  0  0  0  0  0  0
  -26.8422  -28.9749   21.4010 C   0  0  0  0  0  0  0  0  0  0  0  0
  -26.3567  -31.8553   22.8116 C   0  0  0  0  0  0  0  0  0  0  0  0
  -24.1398  -34.1868   23.9501 C   0  0  0  0  0  0  0  0  0  0  0  0
  -22.1653  -24.9610   22.8264 C   0  0  0  0  0  0  0  0  0  0  0  0
  -30.6340  -25.4698   19.9166 C   0  0  0  0  0  0  0  0  0  0  0  0
  -25.2470  -30.0656   19.7819 C   0  0  0  0  0  0  0  0  0  0  0  0
  -24.3398  -30.3572   22.5814 C   0  0  0  0  0  0  0  0  0  0  0  0
  -30.3902  -26.0052   21.3238 C   0  0  0  0  0  0  0  0  0  0  0  0
  -25.3644  -24.3589   21.3844 C   0  0  0  0  0  0  0  0  0  0  0  0
  -29.5719  -27.2861   21.2580 C   0  0  0  0  0  0  0  0  0  0  0  0
  -25.1592  -23.0892   20.5562 C   0  0  0  0  0  0  0  0  0  0  0  0
  -24.5549  -24.3253   22.6788 C   0  0  0  0  0  0  0  0  0  0  0  0
  -22.9098  -22.7899   21.6739 C   0  0  0  0  0  0  0  0  0  0  0  0
  -28.1862  -27.0186   20.6570 C   0  0  1  0  0  0  0  0  0  0  0  0
  -26.2328  -30.2646   20.9290 C   0  0  1  0  0  0  0  0  0  0  0  0
  -23.6624  -22.8016   20.3323 C   0  0  2  0  0  0  0  0  0  0  0  0
  -24.0417  -36.4211   25.0884 C   0  0  0  0  0  0  0  0  0  0  0  0
  -27.0386  -30.5268   25.4724 C   0  0  0  0  0  0  0  0  0  0  0  0
  -26.0199  -32.4953   26.6367 C   0  0  0  0  0  0  0  0  0  0  0  0
  -28.0109  -32.8106   25.1672 C   0  0  0  0  0  0  0  0  0  0  0  0
  -22.7535  -35.4283   21.6488 C   0  0  0  0  0  0  0  0  0  0  0  0
  -18.9463  -25.9462   21.6711 C   0  0  0  0  0  0  0  0  0  0  0  0
  -19.7364  -25.4678   22.8817 C   0  0  0  0  0  0  0  0  0  0  0  0
  -19.7817  -26.7851   20.7116 C   0  0  0  0  0  0  0  0  0  1  0  0
  -25.7630  -32.3184   24.1200 C   0  0  1  0  0  0  0  0  0  0  0  0
  -24.0705  -35.6906   23.7549 C   0  0  2  0  0  0  0  0  0  0  0  0
  -26.6930  -32.0226   25.3304 C   0  0  0  0  0  0  0  0  0  0  0  0
  -23.2776  -20.3682   20.2186 N   0  0  0  0  0  0  0  0  0  0  0  0
  -23.4499  -21.5200   19.5480 N   0  0  0  0  0  0  0  0  0  0  0  0
  -25.6199  -30.9000   22.0973 N   0  0  0  0  0  0  0  0  0  0  0  0
  -23.1441  -24.0498   22.3967 N   0  0  0  0  0  0  0  0  0  0  0  0
  -23.5640  -22.4369   17.3670 N   0  0  0  0  0  0  0  0  0  0  0  0
  -22.8617  -18.0397   16.6133 N   0  0  0  0  0  0  0  0  0  0  0  0
  -27.5233  -28.2817   20.4185 N   0  0  0  0  0  0  0  0  0  0  0  0
  -25.4410  -33.7306   23.9450 N   0  0  0  0  0  0  0  0  0  0  0  0
  -20.8535  -24.6272   22.5125 N   0  0  0  0  0  0  0  0  0  0  0  0
  -22.8445  -36.0579   22.9913 N   0  3  0  0  0  0  0  0  0  0  0  0
  -23.1849  -20.0734   15.6042 O   0  0  0  0  0  0  0  0  0  0  0  0
  -26.7060  -28.6345   22.5703 O   0  0  0  0  0  0  0  0  0  0  0  0
  -27.4311  -32.3292   22.4336 O   0  0  0  0  0  0  0  0  0  0  0  0
  -23.1399  -33.4873   24.0965 O   0  0  0  0  0  0  0  0  0  0  0  0
  -22.4405  -25.9981   23.4394 O   0  0  0  0  0  0  0  0  0  0  0  0
  -22.2892  -14.0836   20.4935 O   0  0  0  0  0  0  0  0  0  0  0  0
  -20.2514  -27.9420   21.4025 O   0  0  0  0  0  0  0  0  0  1  0  0
  -25.1552  -10.3209   17.6593 F   0  0  0  0  0  0  0  0  0  0  0  0
  -22.0454  -13.8884   17.7467 F   0  0  0  0  0  0  0  0  0  0  0  0
  1  2  1  0  0  0  0
  1  5  2  0  0  0  0
  2  6  2  0  0  0  0
  3  8  2  0  0  0  0
  3 15  1  0  0  0  0
  4  9  1  0  0  0  0
  4 15  2  0  0  0  0
  5 17  1  0  0  0  0
  6 19  1  0  0  0  0
  7 10  2  0  0  0  0
  7 18  1  0  0  0  0
  8 21  1  0  0  0  0
  9 21  2  0  0  0  0
 10 22  1  0  0  0  0
 11 12  2  0  0  0  0
 11 23  1  0  0  0  0
 12 24  1  0  0  0  0
 13 20  1  0  0  0  0
 13 22  2  0  0  0  0
 14 24  2  0  0  0  0
 14 25  1  0  0  0  0
 15 26  1  0  0  0  0
 16 26  1  0  0  0  0
 16 27  2  0  0  0  0
 16 28  1  0  0  0  0
 17 19  2  0  0  0  0
 17 33  1  0  0  0  0
 18 20  2  0  0  0  0
 18 34  1  0  0  0  0
 19 42  1  0  0  0  0
 20 35  1  0  0  0  0
 21 71  1  0  0  0  0
 22 72  1  0  0  0  0
 23 25  2  0  0  0  0
 23 71  1  0  0  0  0
 24 73  1  0  0  0  0
 25 74  1  0  0  0  0
 26 56  2  0  0  0  0
 27 57  1  0  0  0  0
 27 60  1  0  0  0  0
 28 61  1  0  0  0  0
 28 66  2  0  0  0  0
 29 43  1  0  0  0  0
 29 62  1  0  0  0  0
 29 67  2  0  0  0  0
 30 53  1  0  0  0  0
 30 58  1  0  0  0  0
 30 68  2  0  0  0  0
 31 54  1  0  0  0  0
 31 63  1  0  0  0  0
 31 69  2  0  0  0  0
 32 59  1  0  0  0  0
 32 64  1  0  0  0  0
 32 70  2  0  0  0  0
 33 36  1  0  0  0  0
 34 43  1  0  0  0  0
 35 58  1  0  0  0  0
 36 38  1  0  0  0  0
 37 39  1  0  0  0  0
 37 40  1  0  0  0  0
 38 42  1  0  0  0  0
 39 44  1  0  0  0  0
 40 59  1  0  0  0  0
 41 44  1  0  0  0  0
 41 59  1  0  0  0  0
 42 62  1  0  0  0  0
 43 58  1  0  0  0  0
 44 57  1  0  0  0  0
 45 54  1  0  0  0  0
 46 55  1  0  0  0  0
 47 55  1  0  0  0  0
 48 55  1  0  0  0  0
 49 65  1  0  0  0  0
 50 51  1  0  0  0  0
 50 52  1  0  0  0  0
 51 64  1  0  0  0  0
 52 72  1  0  0  0  0
 53 55  1  0  0  0  0
 53 63  1  0  0  0  0
 54 65  1  0  0  0  0
 56 57  1  0  0  0  0
M  CHG  1  65   1
M  ISO  4  32 100  52 101  64 100  72 101
M  END
> <Batch ID>
0001

> <Smiles>
CNC(C)C(=O)NC(C(=O)N1Cc2cc([101O:1][101CH2:1]CC[100NH:0][100C:0](=O)N3CCCC(n4nc(-c5ccc(Oc6ccc(F)cc6F)cc5)c(C(N)=O)c4N)C3)ccc2CC1C(=O)NC1CCCc2ccccc21)C(C)(C)C

> <Shape>
0.222

> <Color>
0.068

> <Negative vol penalty>
0.000

$$$$

  -OEChem-04052315163D

 81 89  0     1  0  0  0  0  0999 V2000
  -16.6897  -29.4611   23.1319 C   0  0  0  0  0  0  0  0  0  0  0  0
  -17.6537  -29.5874   22.1369 C   0  0  0  0  0  0  0  0  0  0  0  0
  -26.5850  -12.6865   21.9931 C   0  0  0  0  0  0  0  0  0  0  0  0
  -25.7693  -14.3575   20.4506 C   0  0  0  0  0  0  0  0  0  0  0  0
  -17.0736  -29.1677   24.4398 C   0  0  0  0  0  0  0  0  0  0  0  0
  -19.0025  -29.4214   22.4495 C   0  0  0  0  0  0  0  0  0  0  0  0
  -25.1332  -27.0212   19.6262 C   0  0  0  0  0  0  0  0  0  0  0  0
  -28.8220  -22.0323   20.5317 C   0  0  0  0  0  0  0  0  0  0  0  0
  -30.6671  -22.6487   21.9643 C   0  0  0  0  0  0  0  0  0  0  0  0
  -25.3403  -12.0575   21.9700 C   0  0  0  0  0  0  0  0  0  0  0  0
  -24.5245  -13.7284   20.4274 C   0  0  0  0  0  0  0  0  0  0  0  0
  -26.4510  -27.4234   19.4131 C   0  0  0  0  0  0  0  0  0  0  0  0
  -29.1192  -23.1028   19.6883 C   0  0  0  0  0  0  0  0  0  0  0  0
  -30.9644  -23.7192   21.1209 C   0  0  0  0  0  0  0  0  0  0  0  0
  -22.4870   -9.8060   22.0365 C   0  0  0  0  0  0  0  0  0  0  0  0
  -22.4646   -8.4169   21.9129 C   0  0  0  0  0  0  0  0  0  0  0  0
  -26.9909  -26.8404   21.6907 C   0  0  0  0  0  0  0  0  0  0  0  0
  -23.6152   -8.5868   19.7952 C   0  0  0  0  0  0  0  0  0  0  0  0
  -26.7995  -13.8366   21.2335 C   0  0  0  0  0  0  0  0  0  0  0  0
  -29.1797  -14.2381   20.4083 C   0  0  0  0  0  0  0  0  0  0  0  0
  -18.4270  -28.9886   24.7666 C   0  0  0  0  0  0  0  0  0  0  0  0
  -24.7311  -26.5350   20.8786 C   0  0  0  0  0  0  0  0  0  0  0  0
  -19.4050  -29.1267   23.7632 C   0  0  0  0  0  0  0  0  0  0  0  0
  -25.6680  -26.4303   21.9165 C   0  0  0  0  0  0  0  0  0  0  0  0
  -29.5959  -21.8053   21.6698 C   0  0  0  0  0  0  0  0  0  0  0  0
  -24.3101  -12.5784   21.1871 C   0  0  0  0  0  0  0  0  0  0  0  0
  -30.1904  -23.9462   19.9829 C   0  0  0  0  0  0  0  0  0  0  0  0
  -27.3794  -27.3357   20.4462 C   0  0  0  0  0  0  0  0  0  0  0  0
  -23.0734  -10.5856   21.0395 C   0  0  0  0  0  0  0  0  0  0  0  0
  -23.0288   -7.8072   20.7923 C   0  0  0  0  0  0  0  0  0  0  0  0
  -23.6375   -9.9760   19.9189 C   0  0  0  0  0  0  0  0  0  0  0  0
  -28.0849  -14.4872   21.2574 C   0  0  0  0  0  0  0  0  0  0  0  0
  -30.1515  -15.1091   20.8365 C   0  0  0  0  0  0  0  0  0  0  0  0
  -29.3069  -13.3031   19.3288 C   0  0  0  0  0  0  0  0  0  0  0  0
  -22.6340  -27.4660   23.0784 C   0  0  0  0  0  0  0  0  0  0  0  0
  -23.4563  -24.6625   24.4878 C   0  0  0  0  0  0  0  0  0  0  0  0
  -25.7688  -22.1825   24.8734 C   0  0  0  0  0  0  0  0  0  0  0  0
  -29.9615  -20.3528   23.6953 C   0  0  0  0  0  0  0  0  0  0  0  0
  -18.7973  -28.7192   26.2036 C   0  0  0  0  0  0  0  0  0  0  0  0
  -23.3122  -26.0803   21.0845 C   0  0  0  0  0  0  0  0  0  0  0  0
  -25.2918  -25.8963   23.2735 C   0  0  0  0  0  0  0  0  0  0  0  0
  -20.2180  -28.1885   26.3773 C   0  0  0  0  0  0  0  0  0  0  0  0
  -31.6554  -17.4075   24.7596 C   0  0  0  0  0  0  0  0  0  0  0  0
  -21.2010  -29.0149   25.5542 C   0  0  0  0  0  0  0  0  0  0  0  0
  -31.0359  -16.3026   23.9007 C   0  0  0  0  0  0  0  0  0  0  0  0
  -30.6229  -18.4591   25.1620 C   0  0  0  0  0  0  0  0  0  0  0  0
  -29.2429  -17.9355   23.1896 C   0  0  0  0  0  0  0  0  0  0  0  0
  -20.8762  -28.9294   24.0580 C   0  0  1  0  0  0  0  0  0  0  0  0
  -22.8907  -26.0828   22.5507 C   0  0  1  0  0  0  0  0  0  0  0  0
  -30.2581  -16.8873   22.7054 C   0  0  2  0  0  0  0  0  0  0  0  0
  -26.7383  -20.0040   25.6554 C   0  0  0  0  0  0  0  0  0  0  0  0
  -24.0606  -26.2563   27.0185 C   0  0  0  0  0  0  0  0  0  0  0  0
  -25.3278  -24.2761   27.8794 C   0  0  0  0  0  0  0  0  0  0  0  0
  -22.8855  -24.0837   27.4097 C   0  0  0  0  0  0  0  0  0  0  0  0
  -24.6824  -20.7270   22.5367 C   0  0  0  0  0  0  0  0  0  0  0  0
  -30.6908  -27.3904   18.9728 C   0  0  0  0  0  0  0  0  0  0  0  0
  -31.0716  -26.1434   19.7552 C   0  0  0  0  0  0  0  0  0  0  0  0
  -29.1843  -27.5901   18.9186 C   0  0  0  0  0  0  0  0  0  1  0  0
  -24.5109  -24.2332   25.4790 C   0  0  1  0  0  0  0  0  0  0  0  0
  -25.6386  -20.6703   24.8434 C   0  0  2  0  0  0  0  0  0  0  0  0
  -24.2031  -24.7242   26.9218 C   0  0  0  0  0  0  0  0  0  0  0  0
  -28.3369  -15.4416   22.1572 N   0  0  0  0  0  0  0  0  0  0  0  0
  -29.6013  -15.7998   21.8759 N   0  0  0  0  0  0  0  0  0  0  0  0
  -23.8910  -25.4702   23.4273 N   0  0  0  0  0  0  0  0  0  0  0  0
  -29.9288  -18.9709   23.9784 N   0  0  0  0  0  0  0  0  0  0  0  0
  -31.4146  -15.3439   20.4217 N   0  0  0  0  0  0  0  0  0  0  0  0
  -28.2117  -12.4841   19.0219 N   0  0  0  0  0  0  0  0  0  0  0  0
  -29.2941  -20.7179   22.5266 N   0  0  0  0  0  0  0  0  0  0  0  0
  -21.3380  -27.6713   23.5117 N   0  0  0  0  0  0  0  0  0  0  0  0
  -24.6244  -22.7842   25.3524 N   0  0  0  0  0  0  0  0  0  0  0  0
  -25.7210  -20.1710   23.4417 N   0  3  0  0  0  0  0  0  0  0  0  0
  -30.3659  -13.1856   18.6670 O   0  0  0  0  0  0  0  0  0  0  0  0
  -23.5446  -28.2859   23.0928 O   0  0  0  0  0  0  0  0  0  0  0  0
  -22.2912  -24.2890   24.6446 O   0  0  0  0  0  0  0  0  0  0  0  0
  -26.7855  -22.7708   24.5118 O   0  0  0  0  0  0  0  0  0  0  0  0
  -30.5621  -21.1498   24.4207 O   0  0  0  0  0  0  0  0  0  0  0  0
  -23.0954  -11.9646   21.1640 O   0  0  0  0  0  0  0  0  0  0  0  0
  -30.4825  -24.9982   19.1542 O   0  0  0  0  0  0  0  0  0  0  0  0
  -28.6662  -27.7281   20.2411 O   0  0  0  0  0  0  0  0  0  1  0  0
  -23.0086   -6.4731   20.6744 F   0  0  0  0  0  0  0  0  0  0  0  0
  -24.2034  -10.7197   18.9583 F   0  0  0  0  0  0  0  0  0  0  0  0
  1  2  1  0  0  0  0
  1  5  2  0  0  0  0
  2  6  2  0  0  0  0
  3 10  2  0  0  0  0
  3 19  1  0  0  0  0
  4 11  1  0  0  0  0
  4 19  2  0  0  0  0
  5 21  1  0  0  0  0
  6 23  1  0  0  0  0
  7 12  2  0  0  0  0
  7 22  1  0  0  0  0
  8 13  2  0  0  0  0
  8 25  1  0  0  0  0
  9 14  1  0  0  0  0
  9 25  2  0  0  0  0
 10 26  1  0  0  0  0
 11 26  2  0  0  0  0
 12 28  1  0  0  0  0
 13 27  1  0  0  0  0
 14 27  2  0  0  0  0
 15 16  2  0  0  0  0
 15 29  1  0  0  0  0
 16 30  1  0  0  0  0
 17 24  1  0  0  0  0
 17 28  2  0  0  0  0
 18 30  2  0  0  0  0
 18 31  1  0  0  0  0
 19 32  1  0  0  0  0
 20 32  1  0  0  0  0
 20 33  2  0  0  0  0
 20 34  1  0  0  0  0
 21 23  2  0  0  0  0
 21 39  1  0  0  0  0
 22 24  2  0  0  0  0
 22 40  1  0  0  0  0
 23 48  1  0  0  0  0
 24 41  1  0  0  0  0
 25 68  1  0  0  0  0
 26 77  1  0  0  0  0
 27 78  1  0  0  0  0
 28 79  1  0  0  0  0
 29 31  2  0  0  0  0
 29 77  1  0  0  0  0
 30 80  1  0  0  0  0
 31 81  1  0  0  0  0
 32 62  2  0  0  0  0
 33 63  1  0  0  0  0
 33 66  1  0  0  0  0
 34 67  1  0  0  0  0
 34 72  2  0  0  0  0
 35 49  1  0  0  0  0
 35 69  1  0  0  0  0
 35 73  2  0  0  0  0
 36 59  1  0  0  0  0
 36 64  1  0  0  0  0
 36 74  2  0  0  0  0
 37 60  1  0  0  0  0
 37 70  1  0  0  0  0
 37 75  2  0  0  0  0
 38 65  1  0  0  0  0
 38 68  1  0  0  0  0
 38 76  2  0  0  0  0
 39 42  1  0  0  0  0
 40 49  1  0  0  0  0
 41 64  1  0  0  0  0
 42 44  1  0  0  0  0
 43 45  1  0  0  0  0
 43 46  1  0  0  0  0
 44 48  1  0  0  0  0
 45 50  1  0  0  0  0
 46 65  1  0  0  0  0
 47 50  1  0  0  0  0
 47 65  1  0  0  0  0
 48 69  1  0  0  0  0
 49 64  1  0  0  0  0
 50 63  1  0  0  0  0
 51 60  1  0  0  0  0
 52 61  1  0  0  0  0
 53 61  1  0  0  0  0
 54 61  1  0  0  0  0
 55 71  1  0  0  0  0
 56 57  1  0  0  0  0
 56 58  1  0  0  0  0
 57 78  1  0  0  0  0
 58 79  1  0  0  0  0
 59 61  1  0  0  0  0
 59 70  1  0  0  0  0
 60 71  1  0  0  0  0
 62 63  1  0  0  0  0
M  CHG  1  71   1
M  ISO  4  38 100  58 101  68 100  79 101
M  END
> <Batch ID>
0001

> <Smiles>
CNC(C)C(=O)NC(C(=O)N1Cc2cc([101O:1][101CH2:1]CCOc3ccc([100NH:0][100C:0](=O)N4CCCC(n5nc(-c6ccc(Oc7ccc(F)cc7F)cc6)c(C(N)=O)c5N)C4)cc3)ccc2CC1C(=O)NC1CCCc2ccccc21)C(C)(C)C

> <Shape>
0.239

> <Color>
0.096

> <Negative vol penalty>
0.000

$$$$

  -OEChem-04052315163D

 78 85  0     1  0  0  0  0  0999 V2000
  -22.9033  -17.2367   19.7602 C   0  0  0  0  0  0  0  0  0  0  0  0
  -24.0412  -17.9649   20.0925 C   0  0  0  0  0  0  0  0  0  0  0  0
  -25.9139  -13.2216   21.4119 C   0  0  0  0  0  0  0  0  0  0  0  0
  -26.0618  -13.4234   19.0089 C   0  0  0  0  0  0  0  0  0  0  0  0
  -21.7991  -17.8846   19.2080 C   0  0  0  0  0  0  0  0  0  0  0  0
  -24.0758  -19.3413   19.8718 C   0  0  0  0  0  0  0  0  0  0  0  0
  -26.8973  -23.5511   23.3102 C   0  0  0  0  0  0  0  0  0  0  0  0
  -24.7971  -12.3974   21.2740 C   0  0  0  0  0  0  0  0  0  0  0  0
  -24.9450  -12.5992   18.8709 C   0  0  0  0  0  0  0  0  0  0  0  0
  -28.1269  -24.1957   23.1827 C   0  0  0  0  0  0  0  0  0  0  0  0
  -24.1663   -9.1638   20.5131 C   0  0  0  0  0  0  0  0  0  0  0  0
  -24.1153   -8.0060   21.2893 C   0  0  0  0  0  0  0  0  0  0  0  0
  -27.0311  -26.0628   22.1185 C   0  0  0  0  0  0  0  0  0  0  0  0
  -22.0743   -8.7868   22.3198 C   0  0  0  0  0  0  0  0  0  0  0  0
  -26.5462  -13.7347   20.2794 C   0  0  0  0  0  0  0  0  0  0  0  0
  -29.0492  -14.1890   20.4707 C   0  0  0  0  0  0  0  0  0  0  0  0
  -21.8167  -19.2711   18.9894 C   0  0  0  0  0  0  0  0  0  0  0  0
  -25.7248  -24.1538   22.8322 C   0  0  0  0  0  0  0  0  0  0  0  0
  -22.9713  -20.0081   19.3150 C   0  0  0  0  0  0  0  0  0  0  0  0
  -25.7875  -25.4249   22.2435 C   0  0  0  0  0  0  0  0  0  0  0  0
  -24.3126  -12.0862   20.0035 C   0  0  0  0  0  0  0  0  0  0  0  0
  -28.1944  -25.4504   22.5842 C   0  0  0  0  0  0  0  0  0  0  0  0
  -23.1714  -10.1332   20.6404 C   0  0  0  0  0  0  0  0  0  0  0  0
  -23.0693   -7.8174   22.1926 C   0  0  0  0  0  0  0  0  0  0  0  0
  -22.1254   -9.9446   21.5437 C   0  0  0  0  0  0  0  0  0  0  0  0
  -27.6996  -14.5865   20.4212 C   0  0  0  0  0  0  0  0  0  0  0  0
  -29.7480  -15.3630   20.6115 C   0  0  0  0  0  0  0  0  0  0  0  0
  -29.6200  -12.8759   20.3960 C   0  0  0  0  0  0  0  0  0  0  0  0
  -23.5604  -23.4123   20.6256 C   0  0  0  0  0  0  0  0  0  0  0  0
  -22.0352  -26.0213   21.8040 C   0  0  0  0  0  0  0  0  0  0  0  0
  -22.2455  -29.0000   23.4563 C   0  0  0  0  0  0  0  0  0  0  0  0
  -28.4723  -20.9114   19.0486 C   0  0  0  0  0  0  0  0  0  0  0  0
  -20.6165  -19.9199   18.3464 C   0  0  0  0  0  0  0  0  0  0  0  0
  -24.4025  -23.4571   23.0014 C   0  0  0  0  0  0  0  0  0  0  0  0
  -24.5551  -26.1237   21.7323 C   0  0  0  0  0  0  0  0  0  0  0  0
  -20.5947  -21.4393   18.4916 C   0  0  0  0  0  0  0  0  0  0  0  0
  -29.3171  -19.7881   22.3835 C   0  0  0  0  0  0  0  0  0  0  0  0
  -21.9611  -22.0276   18.1543 C   0  0  0  0  0  0  0  0  0  0  0  0
  -29.1226  -18.2763   22.2536 C   0  0  0  0  0  0  0  0  0  0  0  0
  -28.2665  -20.5515   21.5825 C   0  0  0  0  0  0  0  0  0  0  0  0
  -28.0102  -18.6733   20.0076 C   0  0  0  0  0  0  0  0  0  0  0  0
  -23.0380  -21.5065   19.1136 C   0  0  1  0  0  0  0  0  0  0  0  0
  -23.3426  -23.9392   22.0157 C   0  0  1  0  0  0  0  0  0  0  0  0
  -29.0553  -17.8449   20.7766 C   0  0  2  0  0  0  0  0  0  0  0  0
  -20.8357  -30.9243   24.2355 C   0  0  0  0  0  0  0  0  0  0  0  0
  -21.9116  -27.0847   18.9468 C   0  0  0  0  0  0  0  0  0  0  0  0
  -21.3851  -29.3454   19.8850 C   0  0  0  0  0  0  0  0  0  0  0  0
  -19.8271  -27.4382   20.2825 C   0  0  0  0  0  0  0  0  0  0  0  0
  -22.9282  -28.5024   26.2927 C   0  0  0  0  0  0  0  0  0  0  0  0
  -30.4132  -23.3398   17.8897 C   0  0  0  0  0  0  0  0  0  0  0  0
  -31.0132  -27.0060   20.9271 C   0  0  0  0  0  0  0  0  0  0  0  0
  -28.9361  -23.2095   18.2356 C   0  0  0  0  0  0  0  0  0  0  0  0
  -31.2554  -23.8309   19.0610 C   0  0  0  0  0  0  0  0  0  0  0  0
  -29.5515  -26.9588   21.3435 C   0  0  0  0  0  0  0  0  0  1  0  0
  -31.5400  -25.6322   20.5432 C   0  0  0  0  0  0  0  0  0  0  0  0
  -22.0466  -27.4983   21.4917 C   0  0  1  0  0  0  0  0  0  0  0  0
  -21.4340  -29.5753   24.6030 C   0  0  2  0  0  0  0  0  0  0  0  0
  -21.3163  -27.8279   20.1593 C   0  0  0  0  0  0  0  0  0  0  0  0
  -27.5478  -15.9097   20.5225 N   0  0  0  0  0  0  0  0  0  0  0  0
  -28.8110  -16.3538   20.6371 N   0  0  0  0  0  0  0  0  0  0  0  0
  -23.2867  -25.3990   21.9151 N   0  0  0  0  0  0  0  0  0  0  0  0
  -28.2669  -20.1069   20.1816 N   0  0  0  0  0  0  0  0  0  0  0  0
  -31.0664  -15.6341   20.7147 N   0  0  0  0  0  0  0  0  0  0  0  0
  -28.7584  -11.7800   20.2517 N   0  0  0  0  0  0  0  0  0  0  0  0
  -22.9569  -22.1926   20.3853 N   0  0  0  0  0  0  0  0  0  0  0  0
  -21.4869  -28.1671   22.6612 N   0  0  0  0  0  0  0  0  0  0  0  0
  -28.7019  -22.2587   19.2996 N   0  0  0  0  0  0  0  0  0  0  0  0
  -22.2937  -29.7548   25.8070 N   0  3  0  0  0  0  0  0  0  0  0  0
  -30.8565  -12.6788   20.4720 O   0  0  0  0  0  0  0  0  0  0  0  0
  -24.2254  -24.0646   19.8294 O   0  0  0  0  0  0  0  0  0  0  0  0
  -20.9558  -25.4427   21.9513 O   0  0  0  0  0  0  0  0  0  0  0  0
  -23.4325  -29.2661   23.2810 O   0  0  0  0  0  0  0  0  0  0  0  0
  -28.4577  -20.4614   17.8977 O   0  0  0  0  0  0  0  0  0  0  0  0
  -23.2230  -11.2818   19.8685 O   0  0  0  0  0  0  0  0  0  0  0  0
  -29.3934  -26.0815   22.4579 O   0  0  0  0  0  0  0  0  0  1  0  0
  -30.7920  -25.1168   19.4502 O   0  0  0  0  0  0  0  0  0  0  0  0
  -23.0196   -6.7048   22.9367 F   0  0  0  0  0  0  0  0  0  0  0  0
  -21.1660  -10.8718   21.6694 F   0  0  0  0  0  0  0  0  0  0  0  0
  1  2  1  0  0  0  0
  1  5  2  0  0  0  0
  2  6  2  0  0  0  0
  3  8  2  0  0  0  0
  3 15  1  0  0  0  0
  4  9  1  0  0  0  0
  4 15  2  0  0  0  0
  5 17  1  0  0  0  0
  6 19  1  0  0  0  0
  7 10  2  0  0  0  0
  7 18  1  0  0  0  0
  8 21  1  0  0  0  0
  9 21  2  0  0  0  0
 10 22  1  0  0  0  0
 11 12  2  0  0  0  0
 11 23  1  0  0  0  0
 12 24  1  0  0  0  0
 13 20  1  0  0  0  0
 13 22  2  0  0  0  0
 14 24  2  0  0  0  0
 14 25  1  0  0  0  0
 15 26  1  0  0  0  0
 16 26  1  0  0  0  0
 16 27  2  0  0  0  0
 16 28  1  0  0  0  0
 17 19  2  0  0  0  0
 17 33  1  0  0  0  0
 18 20  2  0  0  0  0
 18 34  1  0  0  0  0
 19 42  1  0  0  0  0
 20 35  1  0  0  0  0
 21 74  1  0  0  0  0
 22 75  1  0  0  0  0
 23 25  2  0  0  0  0
 23 74  1  0  0  0  0
 24 77  1  0  0  0  0
 25 78  1  0  0  0  0
 26 59  2  0  0  0  0
 27 60  1  0  0  0  0
 27 63  1  0  0  0  0
 28 64  1  0  0  0  0
 28 69  2  0  0  0  0
 29 43  1  0  0  0  0
 29 65  1  0  0  0  0
 29 70  2  0  0  0  0
 30 56  1  0  0  0  0
 30 61  1  0  0  0  0
 30 71  2  0  0  0  0
 31 57  1  0  0  0  0
 31 66  1  0  0  0  0
 31 72  2  0  0  0  0
 32 62  1  0  0  0  0
 32 67  1  0  0  0  0
 32 73  2  0  0  0  0
 33 36  1  0  0  0  0
 34 43  1  0  0  0  0
 35 61  1  0  0  0  0
 36 38  1  0  0  0  0
 37 39  1  0  0  0  0
 37 40  1  0  0  0  0
 38 42  1  0  0  0  0
 39 44  1  0  0  0  0
 40 62  1  0  0  0  0
 41 44  1  0  0  0  0
 41 62  1  0  0  0  0
 42 65  1  0  0  0  0
 43 61  1  0  0  0  0
 44 60  1  0  0  0  0
 45 57  1  0  0  0  0
 46 58  1  0  0  0  0
 47 58  1  0  0  0  0
 48 58  1  0  0  0  0
 49 68  1  0  0  0  0
 50 52  1  0  0  0  0
 50 53  1  0  0  0  0
 51 54  1  0  0  0  0
 51 55  1  0  0  0  0
 52 67  1  0  0  0  0
 53 76  1  0  0  0  0
 54 75  1  0  0  0  0
 55 76  1  0  0  0  0
 56 58  1  0  0  0  0
 56 66  1  0  0  0  0
 57 68  1  0  0  0  0
 59 60  1  0  0  0  0
M  CHG  1  68   1
M  ISO  4  32 100  54 101  67 100  75 101
M  END
> <Batch ID>
0001

> <Smiles>
CNC(C)C(=O)NC(C(=O)N1Cc2cc([101O:1][101CH2:1]CCOCCC[100NH:0][100C:0](=O)N3CCCC(n4nc(-c5ccc(Oc6ccc(F)cc6F)cc5)c(C(N)=O)c4N)C3)ccc2CC1C(=O)NC1CCCc2ccccc21)C(C)(C)C

> <Shape>
0.224

> <Color>
0.075

> <Negative vol penalty>
0.000

$$$$

  -OEChem-04052315163D

 75 82  0     1  0  0  0  0  0999 V2000
  -21.6576  -26.0082   22.2550 C   0  0  0  0  0  0  0  0  0  0  0  0
  -22.5356  -24.9529   22.0299 C   0  0  0  0  0  0  0  0  0  0  0  0
  -23.8221  -10.0103   22.1423 C   0  0  0  0  0  0  0  0  0  0  0  0
  -24.3934  -11.4271   24.0141 C   0  0  0  0  0  0  0  0  0  0  0  0
  -22.0394  -27.3110   21.9374 C   0  0  0  0  0  0  0  0  0  0  0  0
  -23.7956  -25.1996   21.4859 C   0  0  0  0  0  0  0  0  0  0  0  0
  -27.4742  -22.6745   23.8810 C   0  0  0  0  0  0  0  0  0  0  0  0
  -23.3018   -9.0598   23.0206 C   0  0  0  0  0  0  0  0  0  0  0  0
  -23.8731  -10.4766   24.8924 C   0  0  0  0  0  0  0  0  0  0  0  0
  -27.6174  -21.3207   23.5801 C   0  0  0  0  0  0  0  0  0  0  0  0
  -24.8491   -7.5351   26.2437 C   0  0  0  0  0  0  0  0  0  0  0  0
  -25.5983   -7.2219   27.3778 C   0  0  0  0  0  0  0  0  0  0  0  0
  -29.4494  -21.8491   22.1024 C   0  0  0  0  0  0  0  0  0  0  0  0
  -23.7739   -7.9504   28.7842 C   0  0  0  0  0  0  0  0  0  0  0  0
  -24.3679  -11.1940   22.6391 C   0  0  0  0  0  0  0  0  0  0  0  0
  -24.2169  -13.2470   21.1323 C   0  0  0  0  0  0  0  0  0  0  0  0
  -23.3083  -27.5750   21.3982 C   0  0  0  0  0  0  0  0  0  0  0  0
  -28.3119  -23.6285   23.2855 C   0  0  0  0  0  0  0  0  0  0  0  0
  -24.1942  -26.5070   21.1594 C   0  0  0  0  0  0  0  0  0  0  0  0
  -29.3165  -23.2141   22.3994 C   0  0  0  0  0  0  0  0  0  0  0  0
  -23.3273   -9.2929   24.3956 C   0  0  0  0  0  0  0  0  0  0  0  0
  -28.6032  -20.9081   22.6885 C   0  0  0  0  0  0  0  0  0  0  0  0
  -23.5623   -8.0560   26.3798 C   0  0  0  0  0  0  0  0  0  0  0  0
  -25.0607   -7.4295   28.6481 C   0  0  0  0  0  0  0  0  0  0  0  0
  -23.0247   -8.2636   27.6500 C   0  0  0  0  0  0  0  0  0  0  0  0
  -24.9060  -12.1760   21.7323 C   0  0  0  0  0  0  0  0  0  0  0  0
  -25.1651  -13.8790   20.3656 C   0  0  0  0  0  0  0  0  0  0  0  0
  -22.8425  -13.6357   21.2570 C   0  0  0  0  0  0  0  0  0  0  0  0
  -27.8632  -26.1195   21.3628 C   0  0  0  0  0  0  0  0  0  0  0  0
  -31.0302  -26.5937   21.8798 C   0  0  0  0  0  0  0  0  0  0  0  0
  -34.0557  -25.2690   22.7393 C   0  0  0  0  0  0  0  0  0  0  0  0
  -31.1355  -14.1863   20.6987 C   0  0  0  0  0  0  0  0  0  0  0  0
  -23.6583  -28.9942   21.0268 C   0  0  0  0  0  0  0  0  0  0  0  0
  -28.1620  -25.0822   23.6411 C   0  0  0  0  0  0  0  0  0  0  0  0
  -30.2547  -24.1964   21.7488 C   0  0  0  0  0  0  0  0  0  0  0  0
  -25.1521  -29.2144   20.8024 C   0  0  0  0  0  0  0  0  0  0  0  0
  -29.2021  -13.0226   17.9448 C   0  0  0  0  0  0  0  0  0  0  0  0
  -25.7287  -28.1085   19.9240 C   0  0  0  0  0  0  0  0  0  0  0  0
  -27.8196  -12.7703   18.5491 C   0  0  0  0  0  0  0  0  0  0  0  0
  -30.3192  -12.6648   18.9225 C   0  0  0  0  0  0  0  0  0  0  0  0
  -28.8331  -13.0581   20.8488 C   0  0  0  0  0  0  0  0  0  0  0  0
  -25.5789  -26.7373   20.5939 C   0  0  1  0  0  0  0  0  0  0  0  0
  -28.7355  -26.0186   22.5820 C   0  0  1  0  0  0  0  0  0  0  0  0
  -27.6733  -13.4569   19.9203 C   0  0  2  0  0  0  0  0  0  0  0  0
  -36.4673  -25.8955   23.0376 C   0  0  0  0  0  0  0  0  0  0  0  0
  -31.3900  -26.6419   18.8502 C   0  0  0  0  0  0  0  0  0  0  0  0
  -33.8462  -26.3127   19.2065 C   0  0  0  0  0  0  0  0  0  0  0  0
  -32.7232  -28.3590   20.0866 C   0  0  0  0  0  0  0  0  0  0  0  0
  -34.0184  -24.5131   25.6005 C   0  0  0  0  0  0  0  0  0  0  0  0
  -31.6127  -17.1488   22.1275 C   0  0  0  0  0  0  0  0  0  0  0  0
  -30.2124  -17.6705   22.4514 C   0  0  0  0  0  0  0  0  0  0  0  0
  -31.8074  -15.6961   22.5503 C   0  0  0  0  0  0  0  0  0  0  0  0
  -30.0554  -19.1337   22.0572 C   0  0  0  0  0  0  0  0  0  1  0  0
  -32.3032  -26.1339   21.2112 C   0  0  1  0  0  0  0  0  0  0  0  0
  -35.1174  -25.7346   23.7193 C   0  0  2  0  0  0  0  0  0  0  0  0
  -32.5469  -26.8433   19.8492 C   0  0  0  0  0  0  0  0  0  0  0  0
  -26.1927  -12.1272   21.3772 N   0  0  0  0  0  0  0  0  0  0  0  0
  -26.3196  -13.1754   20.5457 N   0  0  0  0  0  0  0  0  0  0  0  0
  -30.0641  -25.6073   22.1236 N   0  0  0  0  0  0  0  0  0  0  0  0
  -30.1222  -13.3497   20.2023 N   0  0  0  0  0  0  0  0  0  0  0  0
  -25.1157  -14.9623   19.5616 N   0  0  0  0  0  0  0  0  0  0  0  0
  -22.0059  -12.8763   22.0863 N   0  0  0  0  0  0  0  0  0  0  0  0
  -26.5815  -26.5654   21.6233 N   0  0  0  0  0  0  0  0  0  0  0  0
  -33.3704  -26.3301   22.1864 N   0  0  0  0  0  0  0  0  0  0  0  0
  -30.8653  -14.8020   21.9147 N   0  0  0  0  0  0  0  0  0  0  0  0
  -35.2654  -24.7508   24.8288 N   0  3  0  0  0  0  0  0  0  0  0  0
  -22.3663  -14.6175   20.6382 O   0  0  0  0  0  0  0  0  0  0  0  0
  -28.3196  -25.8167   20.2665 O   0  0  0  0  0  0  0  0  0  0  0  0
  -30.9009  -27.7828   22.1813 O   0  0  0  0  0  0  0  0  0  0  0  0
  -33.8568  -24.0828   22.4866 O   0  0  0  0  0  0  0  0  0  0  0  0
  -32.1998  -14.3751   20.0998 O   0  0  0  0  0  0  0  0  0  0  0  0
  -22.8195   -8.3657   25.2529 O   0  0  0  0  0  0  0  0  0  0  0  0
  -28.7447  -19.5874   22.3925 O   0  0  0  0  0  0  0  0  0  1  0  0
  -25.7797   -7.1273   29.7370 F   0  0  0  0  0  0  0  0  0  0  0  0
  -21.7886   -8.7626   27.7871 F   0  0  0  0  0  0  0  0  0  0  0  0
  1  2  1  0  0  0  0
  1  5  2  0  0  0  0
  2  6  2  0  0  0  0
  3  8  2  0  0  0  0
  3 15  1  0  0  0  0
  4  9  1  0  0  0  0
  4 15  2  0  0  0  0
  5 17  1  0  0  0  0
  6 19  1  0  0  0  0
  7 10  2  0  0  0  0
  7 18  1  0  0  0  0
  8 21  1  0  0  0  0
  9 21  2  0  0  0  0
 10 22  1  0  0  0  0
 11 12  2  0  0  0  0
 11 23  1  0  0  0  0
 12 24  1  0  0  0  0
 13 20  1  0  0  0  0
 13 22  2  0  0  0  0
 14 24  2  0  0  0  0
 14 25  1  0  0  0  0
 15 26  1  0  0  0  0
 16 26  1  0  0  0  0
 16 27  2  0  0  0  0
 16 28  1  0  0  0  0
 17 19  2  0  0  0  0
 17 33  1  0  0  0  0
 18 20  2  0  0  0  0
 18 34  1  0  0  0  0
 19 42  1  0  0  0  0
 20 35  1  0  0  0  0
 21 72  1  0  0  0  0
 22 73  1  0  0  0  0
 23 25  2  0  0  0  0
 23 72  1  0  0  0  0
 24 74  1  0  0  0  0
 25 75  1  0  0  0  0
 26 57  2  0  0  0  0
 27 58  1  0  0  0  0
 27 61  1  0  0  0  0
 28 62  1  0  0  0  0
 28 67  2  0  0  0  0
 29 43  1  0  0  0  0
 29 63  1  0  0  0  0
 29 68  2  0  0  0  0
 30 54  1  0  0  0  0
 30 59  1  0  0  0  0
 30 69  2  0  0  0  0
 31 55  1  0  0  0  0
 31 64  1  0  0  0  0
 31 70  2  0  0  0  0
 32 60  1  0  0  0  0
 32 65  1  0  0  0  0
 32 71  2  0  0  0  0
 33 36  1  0  0  0  0
 34 43  1  0  0  0  0
 35 59  1  0  0  0  0
 36 38  1  0  0  0  0
 37 39  1  0  0  0  0
 37 40  1  0  0  0  0
 38 42  1  0  0  0  0
 39 44  1  0  0  0  0
 40 60  1  0  0  0  0
 41 44  1  0  0  0  0
 41 60  1  0  0  0  0
 42 63  1  0  0  0  0
 43 59  1  0  0  0  0
 44 58  1  0  0  0  0
 45 55  1  0  0  0  0
 46 56  1  0  0  0  0
 47 56  1  0  0  0  0
 48 56  1  0  0  0  0
 49 66  1  0  0  0  0
 50 51  1  0  0  0  0
 50 52  1  0  0  0  0
 51 53  1  0  0  0  0
 52 65  1  0  0  0  0
 53 73  1  0  0  0  0
 54 56  1  0  0  0  0
 54 64  1  0  0  0  0
 55 66  1  0  0  0  0
 57 58  1  0  0  0  0
M  CHG  1  66   1
M  ISO  4  32 100  53 101  65 100  73 101
M  END
> <Batch ID>
0001

> <Smiles>
CNC(C)C(=O)NC(C(=O)N1Cc2cc([101O:1][101CH2:1]CCC[100NH:0][100C:0](=O)N3CCCC(n4nc(-c5ccc(Oc6ccc(F)cc6F)cc5)c(C(N)=O)c4N)C3)ccc2CC1C(=O)NC1CCCc2ccccc21)C(C)(C)C

> <Shape>
0.193

> <Color>
0.131

> <Negative vol penalty>
0.000

$$$$

  -OEChem-04052315163D

 75 82  0     1  0  0  0  0  0999 V2000
  -21.6576  -26.0082   22.2550 C   0  0  0  0  0  0  0  0  0  0  0  0
  -22.5356  -24.9529   22.0299 C   0  0  0  0  0  0  0  0  0  0  0  0
  -23.8221  -10.0103   22.1423 C   0  0  0  0  0  0  0  0  0  0  0  0
  -24.3934  -11.4271   24.0141 C   0  0  0  0  0  0  0  0  0  0  0  0
  -22.0394  -27.3110   21.9374 C   0  0  0  0  0  0  0  0  0  0  0  0
  -23.7956  -25.1996   21.4859 C   0  0  0  0  0  0  0  0  0  0  0  0
  -27.4742  -22.6745   23.8810 C   0  0  0  0  0  0  0  0  0  0  0  0
  -23.3018   -9.0598   23.0206 C   0  0  0  0  0  0  0  0  0  0  0  0
  -23.8731  -10.4766   24.8924 C   0  0  0  0  0  0  0  0  0  0  0  0
  -27.6174  -21.3207   23.5801 C   0  0  0  0  0  0  0  0  0  0  0  0
  -24.8491   -7.5351   26.2437 C   0  0  0  0  0  0  0  0  0  0  0  0
  -25.5983   -7.2219   27.3778 C   0  0  0  0  0  0  0  0  0  0  0  0
  -29.4494  -21.8491   22.1024 C   0  0  0  0  0  0  0  0  0  0  0  0
  -23.7739   -7.9504   28.7842 C   0  0  0  0  0  0  0  0  0  0  0  0
  -24.3679  -11.1940   22.6391 C   0  0  0  0  0  0  0  0  0  0  0  0
  -24.2169  -13.2470   21.1323 C   0  0  0  0  0  0  0  0  0  0  0  0
  -23.3083  -27.5750   21.3982 C   0  0  0  0  0  0  0  0  0  0  0  0
  -28.3119  -23.6285   23.2855 C   0  0  0  0  0  0  0  0  0  0  0  0
  -24.1942  -26.5070   21.1594 C   0  0  0  0  0  0  0  0  0  0  0  0
  -29.3165  -23.2141   22.3994 C   0  0  0  0  0  0  0  0  0  0  0  0
  -23.3273   -9.2929   24.3956 C   0  0  0  0  0  0  0  0  0  0  0  0
  -28.6032  -20.9081   22.6885 C   0  0  0  0  0  0  0  0  0  0  0  0
  -23.5623   -8.0560   26.3798 C   0  0  0  0  0  0  0  0  0  0  0  0
  -25.0607   -7.4295   28.6481 C   0  0  0  0  0  0  0  0  0  0  0  0
  -23.0247   -8.2636   27.6500 C   0  0  0  0  0  0  0  0  0  0  0  0
  -24.9060  -12.1760   21.7323 C   0  0  0  0  0  0  0  0  0  0  0  0
  -25.1651  -13.8790   20.3656 C   0  0  0  0  0  0  0  0  0  0  0  0
  -22.8425  -13.6357   21.2570 C   0  0  0  0  0  0  0  0  0  0  0  0
  -27.8632  -26.1195   21.3628 C   0  0  0  0  0  0  0  0  0  0  0  0
  -31.0302  -26.5937   21.8798 C   0  0  0  0  0  0  0  0  0  0  0  0
  -34.0557  -25.2690   22.7393 C   0  0  0  0  0  0  0  0  0  0  0  0
  -31.1355  -14.1863   20.6987 C   0  0  0  0  0  0  0  0  0  0  0  0
  -23.6583  -28.9942   21.0268 C   0  0  0  0  0  0  0  0  0  0  0  0
  -28.1620  -25.0822   23.6411 C   0  0  0  0  0  0  0  0  0  0  0  0
  -30.2547  -24.1964   21.7488 C   0  0  0  0  0  0  0  0  0  0  0  0
  -25.1521  -29.2144   20.8024 C   0  0  0  0  0  0  0  0  0  0  0  0
  -29.2021  -13.0226   17.9448 C   0  0  0  0  0  0  0  0  0  0  0  0
  -25.7287  -28.1085   19.9240 C   0  0  0  0  0  0  0  0  0  0  0  0
  -27.8196  -12.7703   18.5491 C   0  0  0  0  0  0  0  0  0  0  0  0
  -30.3192  -12.6648   18.9225 C   0  0  0  0  0  0  0  0  0  0  0  0
  -28.8331  -13.0581   20.8488 C   0  0  0  0  0  0  0  0  0  0  0  0
  -25.5789  -26.7373   20.5939 C   0  0  1  0  0  0  0  0  0  0  0  0
  -28.7355  -26.0186   22.5820 C   0  0  1  0  0  0  0  0  0  0  0  0
  -27.6733  -13.4569   19.9203 C   0  0  2  0  0  0  0  0  0  0  0  0
  -36.4673  -25.8955   23.0376 C   0  0  0  0  0  0  0  0  0  0  0  0
  -31.3900  -26.6419   18.8502 C   0  0  0  0  0  0  0  0  0  0  0  0
  -33.8462  -26.3127   19.2065 C   0  0  0  0  0  0  0  0  0  0  0  0
  -32.7232  -28.3590   20.0866 C   0  0  0  0  0  0  0  0  0  0  0  0
  -34.0184  -24.5131   25.6005 C   0  0  0  0  0  0  0  0  0  0  0  0
  -31.6127  -17.1488   22.1275 C   0  0  0  0  0  0  0  0  0  0  0  0
  -30.2124  -17.6705   22.4514 C   0  0  0  0  0  0  0  0  0  0  0  0
  -31.8074  -15.6961   22.5503 C   0  0  0  0  0  0  0  0  0  0  0  0
  -30.0554  -19.1337   22.0572 C   0  0  0  0  0  0  0  0  0  1  0  0
  -32.3032  -26.1339   21.2112 C   0  0  1  0  0  0  0  0  0  0  0  0
  -35.1174  -25.7346   23.7193 C   0  0  2  0  0  0  0  0  0  0  0  0
  -32.5469  -26.8433   19.8492 C   0  0  0  0  0  0  0  0  0  0  0  0
  -26.1927  -12.1272   21.3772 N   0  0  0  0  0  0  0  0  0  0  0  0
  -26.3196  -13.1754   20.5457 N   0  0  0  0  0  0  0  0  0  0  0  0
  -30.0641  -25.6073   22.1236 N   0  0  0  0  0  0  0  0  0  0  0  0
  -30.1222  -13.3497   20.2023 N   0  0  0  0  0  0  0  0  0  0  0  0
  -25.1157  -14.9623   19.5616 N   0  0  0  0  0  0  0  0  0  0  0  0
  -22.0059  -12.8763   22.0863 N   0  0  0  0  0  0  0  0  0  0  0  0
  -26.5815  -26.5654   21.6233 N   0  0  0  0  0  0  0  0  0  0  0  0
  -33.3704  -26.3301   22.1864 N   0  0  0  0  0  0  0  0  0  0  0  0
  -30.8653  -14.8020   21.9147 N   0  0  0  0  0  0  0  0  0  0  0  0
  -35.2654  -24.7508   24.8288 N   0  3  0  0  0  0  0  0  0  0  0  0
  -22.3663  -14.6175   20.6382 O   0  0  0  0  0  0  0  0  0  0  0  0
  -28.3196  -25.8167   20.2665 O   0  0  0  0  0  0  0  0  0  0  0  0
  -30.9009  -27.7828   22.1813 O   0  0  0  0  0  0  0  0  0  0  0  0
  -33.8568  -24.0828   22.4866 O   0  0  0  0  0  0  0  0  0  0  0  0
  -32.1998  -14.3751   20.0998 O   0  0  0  0  0  0  0  0  0  0  0  0
  -22.8195   -8.3657   25.2529 O   0  0  0  0  0  0  0  0  0  0  0  0
  -28.7447  -19.5874   22.3925 O   0  0  0  0  0  0  0  0  0  1  0  0
  -25.7797   -7.1273   29.7370 F   0  0  0  0  0  0  0  0  0  0  0  0
  -21.7886   -8.7626   27.7871 F   0  0  0  0  0  0  0  0  0  0  0  0
  1  2  1  0  0  0  0
  1  5  2  0  0  0  0
  2  6  2  0  0  0  0
  3  8  2  0  0  0  0
  3 15  1  0  0  0  0
  4  9  1  0  0  0  0
  4 15  2  0  0  0  0
  5 17  1  0  0  0  0
  6 19  1  0  0  0  0
  7 10  2  0  0  0  0
  7 18  1  0  0  0  0
  8 21  1  0  0  0  0
  9 21  2  0  0  0  0
 10 22  1  0  0  0  0
 11 12  2  0  0  0  0
 11 23  1  0  0  0  0
 12 24  1  0  0  0  0
 13 20  1  0  0  0  0
 13 22  2  0  0  0  0
 14 24  2  0  0  0  0
 14 25  1  0  0  0  0
 15 26  1  0  0  0  0
 16 26  1  0  0  0  0
 16 27  2  0  0  0  0
 16 28  1  0  0  0  0
 17 19  2  0  0  0  0
 17 33  1  0  0  0  0
 18 20  2  0  0  0  0
 18 34  1  0  0  0  0
 19 42  1  0  0  0  0
 20 35  1  0  0  0  0
 21 72  1  0  0  0  0
 22 73  1  0  0  0  0
 23 25  2  0  0  0  0
 23 72  1  0  0  0  0
 24 74  1  0  0  0  0
 25 75  1  0  0  0  0
 26 57  2  0  0  0  0
 27 58  1  0  0  0  0
 27 61  1  0  0  0  0
 28 62  1  0  0  0  0
 28 67  2  0  0  0  0
 29 43  1  0  0  0  0
 29 63  1  0  0  0  0
 29 68  2  0  0  0  0
 30 54  1  0  0  0  0
 30 59  1  0  0  0  0
 30 69  2  0  0  0  0
 31 55  1  0  0  0  0
 31 64  1  0  0  0  0
 31 70  2  0  0  0  0
 32 60  1  0  0  0  0
 32 65  1  0  0  0  0
 32 71  2  0  0  0  0
 33 36  1  0  0  0  0
 34 43  1  0  0  0  0
 35 59  1  0  0  0  0
 36 38  1  0  0  0  0
 37 39  1  0  0  0  0
 37 40  1  0  0  0  0
 38 42  1  0  0  0  0
 39 44  1  0  0  0  0
 40 60  1  0  0  0  0
 41 44  1  0  0  0  0
 41 60  1  0  0  0  0
 42 63  1  0  0  0  0
 43 59  1  0  0  0  0
 44 58  1  0  0  0  0
 45 55  1  0  0  0  0
 46 56  1  0  0  0  0
 47 56  1  0  0  0  0
 48 56  1  0  0  0  0
 49 66  1  0  0  0  0
 50 51  1  0  0  0  0
 50 52  1  0  0  0  0
 51 53  1  0  0  0  0
 52 65  1  0  0  0  0
 53 73  1  0  0  0  0
 54 56  1  0  0  0  0
 54 64  1  0  0  0  0
 55 66  1  0  0  0  0
 57 58  1  0  0  0  0
M  CHG  1  66   1
M  ISO  4  32 100  53 101  65 100  73 101
M  END
> <Batch ID>
0001

> <Smiles>
CNC(C)C(=O)NC(C(=O)N1Cc2cc([101O:1][101CH2:1]CCC[100NH:0][100C:0](=O)N3CCCC(n4nc(-c5ccc(Oc6ccc(F)cc6F)cc5)c(C(N)=O)c4N)C3)ccc2CC1C(=O)NC1CCCc2ccccc21)C(C)(C)C

> <Shape>
0.193

> <Color>
0.131

> <Negative vol penalty>
0.000

$$$$

  -OEChem-04052315163D

 81 88  0     1  0  0  0  0  0999 V2000
  -17.3682  -28.0018   19.7528 C   0  0  0  0  0  0  0  0  0  0  0  0
  -18.6120  -28.4216   19.2921 C   0  0  0  0  0  0  0  0  0  0  0  0
  -26.7446  -13.1597   20.9984 C   0  0  0  0  0  0  0  0  0  0  0  0
  -26.9391  -13.2544   18.5921 C   0  0  0  0  0  0  0  0  0  0  0  0
  -17.2193  -27.5888   21.0761 C   0  0  0  0  0  0  0  0  0  0  0  0
  -19.7075  -28.4295   20.1548 C   0  0  0  0  0  0  0  0  0  0  0  0
  -25.5390  -27.2396   18.7115 C   0  0  0  0  0  0  0  0  0  0  0  0
  -26.2223  -11.8697   20.9054 C   0  0  0  0  0  0  0  0  0  0  0  0
  -26.4168  -11.9643   18.4991 C   0  0  0  0  0  0  0  0  0  0  0  0
  -26.6250  -28.0691   18.4353 C   0  0  0  0  0  0  0  0  0  0  0  0
  -24.5016   -8.6880   21.2789 C   0  0  0  0  0  0  0  0  0  0  0  0
  -23.3825   -8.3825   22.0534 C   0  0  0  0  0  0  0  0  0  0  0  0
  -27.3447  -27.8808   20.7301 C   0  0  0  0  0  0  0  0  0  0  0  0
  -22.1345  -10.1241   20.9370 C   0  0  0  0  0  0  0  0  0  0  0  0
  -27.1030  -13.8521   19.8417 C   0  0  0  0  0  0  0  0  0  0  0  0
  -28.9969  -15.5471   20.0605 C   0  0  0  0  0  0  0  0  0  0  0  0
  -18.3156  -27.5825   21.9529 C   0  0  0  0  0  0  0  0  0  0  0  0
  -25.3413  -26.7324   20.0039 C   0  0  0  0  0  0  0  0  0  0  0  0
  -19.5728  -28.0173   21.4915 C   0  0  0  0  0  0  0  0  0  0  0  0
  -26.2569  -27.0430   21.0195 C   0  0  0  0  0  0  0  0  0  0  0  0
  -26.0583  -11.2720   19.6558 C   0  0  0  0  0  0  0  0  0  0  0  0
  -27.5264  -28.3922   19.4453 C   0  0  0  0  0  0  0  0  0  0  0  0
  -24.4372   -9.7116   20.3335 C   0  0  0  0  0  0  0  0  0  0  0  0
  -22.1989   -9.1005   21.8825 C   0  0  0  0  0  0  0  0  0  0  0  0
  -23.2536  -10.4296   20.1625 C   0  0  0  0  0  0  0  0  0  0  0  0
  -27.6421  -15.1849   19.9370 C   0  0  0  0  0  0  0  0  0  0  0  0
  -28.9821  -16.9195   20.1124 C   0  0  0  0  0  0  0  0  0  0  0  0
  -30.1644  -14.7171   20.1226 C   0  0  0  0  0  0  0  0  0  0  0  0
  -23.0567  -27.0081   22.1966 C   0  0  0  0  0  0  0  0  0  0  0  0
  -24.8321  -24.7904   23.7625 C   0  0  0  0  0  0  0  0  0  0  0  0
  -31.4043  -28.4798   18.7069 C   0  0  0  0  0  0  0  0  0  0  0  0
  -27.8801  -23.3326   24.2438 C   0  0  0  0  0  0  0  0  0  0  0  0
  -27.1303  -21.8407   18.2421 C   0  0  0  0  0  0  0  0  0  0  0  0
  -18.0955  -27.1723   23.3874 C   0  0  0  0  0  0  0  0  0  0  0  0
  -24.1798  -25.8172   20.2792 C   0  0  0  0  0  0  0  0  0  0  0  0
  -26.1008  -26.5079   22.4187 C   0  0  0  0  0  0  0  0  0  0  0  0
  -19.3879  -26.8553   24.1354 C   0  0  0  0  0  0  0  0  0  0  0  0
  -25.1295  -20.1521   20.6549 C   0  0  0  0  0  0  0  0  0  0  0  0
  -20.4322  -27.9373   23.8791 C   0  0  0  0  0  0  0  0  0  0  0  0
  -25.7124  -18.7382   20.6886 C   0  0  0  0  0  0  0  0  0  0  0  0
  -25.1516  -20.7382   19.2450 C   0  0  0  0  0  0  0  0  0  0  0  0
  -27.0536  -19.3013   18.6191 C   0  0  0  0  0  0  0  0  0  0  0  0
  -20.7904  -28.0167   22.3902 C   0  0  1  0  0  0  0  0  0  0  0  0
  -23.7898  -25.7737   21.7534 C   0  0  1  0  0  0  0  0  0  0  0  0
  -27.1040  -18.6896   20.0296 C   0  0  2  0  0  0  0  0  0  0  0  0
  -29.0275  -21.5734   25.6171 C   0  0  0  0  0  0  0  0  0  0  0  0
  -24.8337  -26.6707   26.1655 C   0  0  0  0  0  0  0  0  0  0  0  0
  -26.7282  -25.3395   27.1177 C   0  0  0  0  0  0  0  0  0  0  0  0
  -24.5151  -24.2555   26.7309 C   0  0  0  0  0  0  0  0  0  0  0  0
  -28.6092  -21.7671   21.8404 C   0  0  0  0  0  0  0  0  0  0  0  0
  -30.6023  -29.4846   17.8946 C   0  0  0  0  0  0  0  0  0  0  0  0
  -30.8876  -24.6025   17.8136 C   0  0  0  0  0  0  0  0  0  0  0  0
  -31.7820  -25.1733   18.9186 C   0  0  0  0  0  0  0  0  0  0  0  0
  -30.0478  -23.4306   18.3315 C   0  0  0  0  0  0  0  0  0  0  0  0
  -32.6426  -26.3349   18.4317 C   0  0  0  0  0  0  0  0  0  0  0  0
  -29.1881  -22.8003   17.2402 C   0  0  0  0  0  0  0  0  0  0  0  0
  -29.1161  -29.1643   17.8539 C   0  0  0  0  0  0  0  0  0  1  0  0
  -25.9735  -24.8372   24.7494 C   0  0  1  0  0  0  0  0  0  0  0  0
  -28.2995  -21.8755   24.3165 C   0  0  2  0  0  0  0  0  0  0  0  0
  -25.5148  -25.2875   26.1651 C   0  0  0  0  0  0  0  0  0  0  0  0
  -26.8260  -16.2419   19.9121 N   0  0  0  0  0  0  0  0  0  0  0  0
  -27.6704  -17.2818   20.0208 N   0  0  0  0  0  0  0  0  0  0  0  0
  -24.9457  -25.6223   22.6396 N   0  0  0  0  0  0  0  0  0  0  0  0
  -26.5001  -20.6633   18.6775 N   0  0  0  0  0  0  0  0  0  0  0  0
  -29.9632  -17.8396   20.2271 N   0  0  0  0  0  0  0  0  0  0  0  0
  -30.0002  -13.3268   20.0554 N   0  0  0  0  0  0  0  0  0  0  0  0
  -21.6868  -26.9399   22.0279 N   0  0  0  0  0  0  0  0  0  0  0  0
  -31.8548  -27.4318   17.9170 N   0  0  0  0  0  0  0  0  0  0  0  0
  -26.5976  -23.5190   24.7146 N   0  0  0  0  0  0  0  0  0  0  0  0
  -28.4095  -21.6817   17.7232 N   0  0  0  0  0  0  0  0  0  0  0  0
  -29.2057  -21.5401   23.1819 N   0  3  0  0  0  0  0  0  0  0  0  0
  -31.3177  -15.1936   20.2509 O   0  0  0  0  0  0  0  0  0  0  0  0
  -23.6869  -27.9519   22.6588 O   0  0  0  0  0  0  0  0  0  0  0  0
  -23.8783  -24.0379   23.9763 O   0  0  0  0  0  0  0  0  0  0  0  0
  -31.6144  -28.6012   19.9106 O   0  0  0  0  0  0  0  0  0  0  0  0
  -28.6178  -24.2176   23.8159 O   0  0  0  0  0  0  0  0  0  0  0  0
  -26.5950  -22.9520   18.3156 O   0  0  0  0  0  0  0  0  0  0  0  0
  -25.5489  -10.0132   19.5648 O   0  0  0  0  0  0  0  0  0  0  0  0
  -28.5869  -29.2022   19.1786 O   0  0  0  0  0  0  0  0  0  1  0  0
  -21.1239   -8.8060   22.6252 F   0  0  0  0  0  0  0  0  0  0  0  0
  -23.1853  -11.4132   19.2550 F   0  0  0  0  0  0  0  0  0  0  0  0
  1  2  1  0  0  0  0
  1  5  2  0  0  0  0
  2  6  2  0  0  0  0
  3  8  2  0  0  0  0
  3 15  1  0  0  0  0
  4  9  1  0  0  0  0
  4 15  2  0  0  0  0
  5 17  1  0  0  0  0
  6 19  1  0  0  0  0
  7 10  2  0  0  0  0
  7 18  1  0  0  0  0
  8 21  1  0  0  0  0
  9 21  2  0  0  0  0
 10 22  1  0  0  0  0
 11 12  2  0  0  0  0
 11 23  1  0  0  0  0
 12 24  1  0  0  0  0
 13 20  1  0  0  0  0
 13 22  2  0  0  0  0
 14 24  2  0  0  0  0
 14 25  1  0  0  0  0
 15 26  1  0  0  0  0
 16 26  1  0  0  0  0
 16 27  2  0  0  0  0
 16 28  1  0  0  0  0
 17 19  2  0  0  0  0
 17 34  1  0  0  0  0
 18 20  2  0  0  0  0
 18 35  1  0  0  0  0
 19 43  1  0  0  0  0
 20 36  1  0  0  0  0
 21 78  1  0  0  0  0
 22 79  1  0  0  0  0
 23 25  2  0  0  0  0
 23 78  1  0  0  0  0
 24 80  1  0  0  0  0
 25 81  1  0  0  0  0
 26 61  2  0  0  0  0
 27 62  1  0  0  0  0
 27 65  1  0  0  0  0
 28 66  1  0  0  0  0
 28 72  2  0  0  0  0
 29 44  1  0  0  0  0
 29 67  1  0  0  0  0
 29 73  2  0  0  0  0
 30 58  1  0  0  0  0
 30 63  1  0  0  0  0
 30 74  2  0  0  0  0
 31 51  1  0  0  0  0
 31 68  1  0  0  0  0
 31 75  2  0  0  0  0
 32 59  1  0  0  0  0
 32 69  1  0  0  0  0
 32 76  2  0  0  0  0
 33 64  1  0  0  0  0
 33 70  1  0  0  0  0
 33 77  2  0  0  0  0
 34 37  1  0  0  0  0
 35 44  1  0  0  0  0
 36 63  1  0  0  0  0
 37 39  1  0  0  0  0
 38 40  1  0  0  0  0
 38 41  1  0  0  0  0
 39 43  1  0  0  0  0
 40 45  1  0  0  0  0
 41 64  1  0  0  0  0
 42 45  1  0  0  0  0
 42 64  1  0  0  0  0
 43 67  1  0  0  0  0
 44 63  1  0  0  0  0
 45 62  1  0  0  0  0
 46 59  1  0  0  0  0
 47 60  1  0  0  0  0
 48 60  1  0  0  0  0
 49 60  1  0  0  0  0
 50 71  1  0  0  0  0
 51 57  1  0  0  0  0
 52 53  1  0  0  0  0
 52 54  1  0  0  0  0
 53 55  1  0  0  0  0
 54 56  1  0  0  0  0
 55 68  1  0  0  0  0
 56 70  1  0  0  0  0
 57 79  1  0  0  0  0
 58 60  1  0  0  0  0
 58 69  1  0  0  0  0
 59 71  1  0  0  0  0
 61 62  1  0  0  0  0
M  CHG  1  71   1
M  ISO  4  33 100  57 101  70 100  79 101
M  END
> <Batch ID>
0001

> <Smiles>
CNC(C)C(=O)NC(C(=O)N1Cc2cc([101O:1][101CH2:1]CC(=O)NCCCCC[100NH:0][100C:0](=O)N3CCCC(n4nc(-c5ccc(Oc6ccc(F)cc6F)cc5)c(C(N)=O)c4N)C3)ccc2CC1C(=O)NC1CCCc2ccccc21)C(C)(C)C

> <Shape>
0.212

> <Color>
0.081

> <Negative vol penalty>
0.000

$$$$

  -OEChem-04052315163D

 80 88  0     1  0  0  0  0  0999 V2000
  -22.2333  -26.3707   33.7578 C   0  0  0  0  0  0  0  0  0  0  0  0
  -23.2395  -26.1682   32.8186 C   0  0  0  0  0  0  0  0  0  0  0  0
  -32.3993  -18.4906   21.9838 C   0  0  0  0  0  0  0  0  0  0  0  0
  -23.0002   -9.8942   19.9808 C   0  0  0  0  0  0  0  0  0  0  0  0
  -23.7250   -9.9449   22.2849 C   0  0  0  0  0  0  0  0  0  0  0  0
  -21.7190  -25.2888   34.4710 C   0  0  0  0  0  0  0  0  0  0  0  0
  -23.7326  -24.8836   32.5929 C   0  0  0  0  0  0  0  0  0  0  0  0
  -25.6648  -22.5656   27.2637 C   0  0  0  0  0  0  0  0  0  0  0  0
  -31.8886  -17.2653   21.5559 C   0  0  0  0  0  0  0  0  0  0  0  0
  -31.6171  -19.3356   22.7712 C   0  0  0  0  0  0  0  0  0  0  0  0
  -22.2334   -8.7599   20.2469 C   0  0  0  0  0  0  0  0  0  0  0  0
  -22.9581   -8.8105   22.5511 C   0  0  0  0  0  0  0  0  0  0  0  0
  -26.9372  -22.4044   26.7173 C   0  0  0  0  0  0  0  0  0  0  0  0
  -23.2018   -5.4716   22.0789 C   0  0  0  0  0  0  0  0  0  0  0  0
  -23.7890   -4.4542   22.8311 C   0  0  0  0  0  0  0  0  0  0  0  0
  -26.9856  -20.1289   27.5164 C   0  0  0  0  0  0  0  0  0  0  0  0
  -29.8134  -17.7297   22.7025 C   0  0  0  0  0  0  0  0  0  0  0  0
  -22.0649   -4.6973   24.5060 C   0  0  0  0  0  0  0  0  0  0  0  0
  -23.7461  -10.4867   20.9998 C   0  0  0  0  0  0  0  0  0  0  0  0
  -24.1320  -13.0022   20.8240 C   0  0  0  0  0  0  0  0  0  0  0  0
  -22.1993  -23.9889   34.2470 C   0  0  0  0  0  0  0  0  0  0  0  0
  -25.0466  -21.5113   27.9512 C   0  0  0  0  0  0  0  0  0  0  0  0
  -23.2252  -23.7834   33.3047 C   0  0  0  0  0  0  0  0  0  0  0  0
  -25.7042  -20.2784   28.0685 C   0  0  0  0  0  0  0  0  0  0  0  0
  -30.5957  -16.8848   21.9152 C   0  0  0  0  0  0  0  0  0  0  0  0
  -22.2123   -8.2180   21.5320 C   0  0  0  0  0  0  0  0  0  0  0  0
  -27.5990  -21.1869   26.8460 C   0  0  0  0  0  0  0  0  0  0  0  0
  -30.3241  -18.9551   23.1305 C   0  0  0  0  0  0  0  0  0  0  0  0
  -22.0462   -6.1019   22.5404 C   0  0  0  0  0  0  0  0  0  0  0  0
  -23.2205   -4.0670   24.0446 C   0  0  0  0  0  0  0  0  0  0  0  0
  -21.4777   -5.7148   23.7539 C   0  0  0  0  0  0  0  0  0  0  0  0
  -24.5388  -11.6581   20.7254 C   0  0  0  0  0  0  0  0  0  0  0  0
  -25.2419  -13.7246   20.4599 C   0  0  0  0  0  0  0  0  0  0  0  0
  -22.8640  -13.5489   21.2104 C   0  0  0  0  0  0  0  0  0  0  0  0
  -24.0228  -21.0691   30.9278 C   0  0  0  0  0  0  0  0  0  0  0  0
  -22.8760  -18.2916   29.7062 C   0  0  0  0  0  0  0  0  0  0  0  0
  -23.0835  -15.8808   27.2996 C   0  0  0  0  0  0  0  0  0  0  0  0
  -30.7216  -14.6845   20.6949 C   0  0  0  0  0  0  0  0  0  0  0  0
  -21.6454  -22.8573   35.0761 C   0  0  0  0  0  0  0  0  0  0  0  0
  -23.6627  -21.6928   28.5118 C   0  0  0  0  0  0  0  0  0  0  0  0
  -25.0757  -19.1089   28.7795 C   0  0  0  0  0  0  0  0  0  0  0  0
  -21.9608  -21.4756   34.5090 C   0  0  0  0  0  0  0  0  0  0  0  0
  -29.6032  -12.2320   18.3686 C   0  0  0  0  0  0  0  0  0  0  0  0
  -23.4305  -21.3847   34.1109 C   0  0  0  0  0  0  0  0  0  0  0  0
  -28.1524  -11.9746   18.7824 C   0  0  0  0  0  0  0  0  0  0  0  0
  -30.5035  -12.4751   19.5785 C   0  0  0  0  0  0  0  0  0  0  0  0
  -28.5881  -13.2643   20.9118 C   0  0  0  0  0  0  0  0  0  0  0  0
  -23.7688  -22.4014   33.0139 C   0  0  1  0  0  0  0  0  0  0  0  0
  -23.3407  -20.7142   29.6370 C   0  0  1  0  0  0  0  0  0  0  0  0
  -27.6306  -13.0782   19.7234 C   0  0  2  0  0  0  0  0  0  0  0  0
  -22.0369  -13.7146   26.5858 C   0  0  0  0  0  0  0  0  0  0  0  0
  -24.3587  -16.8408   31.9437 C   0  0  0  0  0  0  0  0  0  0  0  0
  -24.0780  -14.7126   30.6552 C   0  0  0  0  0  0  0  0  0  0  0  0
  -22.0704  -15.9539   31.4624 C   0  0  0  0  0  0  0  0  0  0  0  0
  -22.2342  -17.0136   24.7006 C   0  0  0  0  0  0  0  0  0  0  0  0
  -29.1520  -21.7897   25.1487 C   0  0  0  0  0  0  0  0  0  1  0  0
  -30.1444  -21.0173   24.3014 C   0  0  0  0  0  0  0  0  0  0  0  0
  -23.4178  -16.8924   29.5400 C   0  0  1  0  0  0  0  0  0  0  0  0
  -22.0213  -15.2277   26.4338 C   0  0  2  0  0  0  0  0  0  0  0  0
  -23.4941  -16.1224   30.8885 C   0  0  0  0  0  0  0  0  0  0  0  0
  -25.8082  -11.5314   20.3294 N   0  0  0  0  0  0  0  0  0  0  0  0
  -26.2084  -12.8051   20.1760 N   0  0  0  0  0  0  0  0  0  0  0  0
  -23.7239  -19.3378   29.3159 N   0  0  0  0  0  0  0  0  0  0  0  0
  -29.9486  -13.5361   20.4218 N   0  0  0  0  0  0  0  0  0  0  0  0
  -25.4757  -15.0502   20.3579 N   0  0  0  0  0  0  0  0  0  0  0  0
  -21.8320  -12.6649   21.5536 N   0  0  0  0  0  0  0  0  0  0  0  0
  -30.0774  -15.6397   21.4804 N   0  0  0  0  0  0  0  0  0  0  0  0
  -23.2989  -21.9324   31.7279 N   0  0  0  0  0  0  0  0  0  0  0  0
  -22.5836  -16.2489   28.5308 N   0  0  0  0  0  0  0  0  0  0  0  0
  -22.2477  -15.5582   24.9984 N   0  3  0  0  0  0  0  0  0  0  0  0
  -22.6476  -14.7842   21.2342 O   0  0  0  0  0  0  0  0  0  0  0  0
  -25.1238  -20.5937   31.1800 O   0  0  0  0  0  0  0  0  0  0  0  0
  -21.7394  -18.4502   30.1587 O   0  0  0  0  0  0  0  0  0  0  0  0
  -24.2419  -16.0445   26.9228 O   0  0  0  0  0  0  0  0  0  0  0  0
  -31.8603  -14.8232   20.2411 O   0  0  0  0  0  0  0  0  0  0  0  0
  -21.4640   -7.1113   21.7921 O   0  0  0  0  0  0  0  0  0  0  0  0
  -28.8414  -21.0270   26.3142 O   0  0  0  0  0  0  0  0  0  1  0  0
  -29.5556  -19.7850   23.9037 O   0  0  0  0  0  0  0  0  0  0  0  0
  -23.7836   -3.0890   24.7660 F   0  0  0  0  0  0  0  0  0  0  0  0
  -20.3669   -6.3159   24.2017 F   0  0  0  0  0  0  0  0  0  0  0  0
  1  2  1  0  0  0  0
  1  6  2  0  0  0  0
  2  7  2  0  0  0  0
  3  9  1  0  0  0  0
  3 10  2  0  0  0  0
  4 11  2  0  0  0  0
  4 19  1  0  0  0  0
  5 12  1  0  0  0  0
  5 19  2  0  0  0  0
  6 21  1  0  0  0  0
  7 23  1  0  0  0  0
  8 13  2  0  0  0  0
  8 22  1  0  0  0  0
  9 25  2  0  0  0  0
 10 28  1  0  0  0  0
 11 26  1  0  0  0  0
 12 26  2  0  0  0  0
 13 27  1  0  0  0  0
 14 15  2  0  0  0  0
 14 29  1  0  0  0  0
 15 30  1  0  0  0  0
 16 24  1  0  0  0  0
 16 27  2  0  0  0  0
 17 25  1  0  0  0  0
 17 28  2  0  0  0  0
 18 30  2  0  0  0  0
 18 31  1  0  0  0  0
 19 32  1  0  0  0  0
 20 32  1  0  0  0  0
 20 33  2  0  0  0  0
 20 34  1  0  0  0  0
 21 23  2  0  0  0  0
 21 39  1  0  0  0  0
 22 24  2  0  0  0  0
 22 40  1  0  0  0  0
 23 48  1  0  0  0  0
 24 41  1  0  0  0  0
 25 67  1  0  0  0  0
 26 76  1  0  0  0  0
 27 77  1  0  0  0  0
 28 78  1  0  0  0  0
 29 31  2  0  0  0  0
 29 76  1  0  0  0  0
 30 79  1  0  0  0  0
 31 80  1  0  0  0  0
 32 61  2  0  0  0  0
 33 62  1  0  0  0  0
 33 65  1  0  0  0  0
 34 66  1  0  0  0  0
 34 71  2  0  0  0  0
 35 49  1  0  0  0  0
 35 68  1  0  0  0  0
 35 72  2  0  0  0  0
 36 58  1  0  0  0  0
 36 63  1  0  0  0  0
 36 73  2  0  0  0  0
 37 59  1  0  0  0  0
 37 69  1  0  0  0  0
 37 74  2  0  0  0  0
 38 64  1  0  0  0  0
 38 67  1  0  0  0  0
 38 75  2  0  0  0  0
 39 42  1  0  0  0  0
 40 49  1  0  0  0  0
 41 63  1  0  0  0  0
 42 44  1  0  0  0  0
 43 45  1  0  0  0  0
 43 46  1  0  0  0  0
 44 48  1  0  0  0  0
 45 50  1  0  0  0  0
 46 64  1  0  0  0  0
 47 50  1  0  0  0  0
 47 64  1  0  0  0  0
 48 68  1  0  0  0  0
 49 63  1  0  0  0  0
 50 62  1  0  0  0  0
 51 59  1  0  0  0  0
 52 60  1  0  0  0  0
 53 60  1  0  0  0  0
 54 60  1  0  0  0  0
 55 70  1  0  0  0  0
 56 57  1  0  0  0  0
 56 77  1  0  0  0  0
 57 78  1  0  0  0  0
 58 60  1  0  0  0  0
 58 69  1  0  0  0  0
 59 70  1  0  0  0  0
 61 62  1  0  0  0  0
M  CHG  1  70   1
M  ISO  4  38 100  56 101  67 100  77 101
M  END
> <Batch ID>
0001

> <Smiles>
CNC(C)C(=O)NC(C(=O)N1Cc2cc([101O:1][101CH2:1]COc3cccc([100NH:0][100C:0](=O)N4CCCC(n5nc(-c6ccc(Oc7ccc(F)cc7F)cc6)c(C(N)=O)c5N)C4)c3)ccc2CC1C(=O)NC1CCCc2ccccc21)C(C)(C)C

> <Shape>
0.177

> <Color>
0.202

> <Negative vol penalty>
0.000

$$$$

  -OEChem-04052315163D

 76 83  0     1  0  0  0  0  0999 V2000
  -16.1600  -22.7176   22.5581 C   0  0  0  0  0  0  0  0  0  0  0  0
  -17.4333  -22.6316   22.0043 C   0  0  0  0  0  0  0  0  0  0  0  0
  -23.0622   -9.9075   19.9658 C   0  0  0  0  0  0  0  0  0  0  0  0
  -23.8771   -9.8683   22.2399 C   0  0  0  0  0  0  0  0  0  0  0  0
  -15.9799  -22.5083   23.9248 C   0  0  0  0  0  0  0  0  0  0  0  0
  -18.5275  -22.3372   22.8170 C   0  0  0  0  0  0  0  0  0  0  0  0
  -23.4690  -19.0565   21.2924 C   0  0  0  0  0  0  0  0  0  0  0  0
  -22.3096   -8.7601   20.2158 C   0  0  0  0  0  0  0  0  0  0  0  0
  -23.1244   -8.7209   22.4899 C   0  0  0  0  0  0  0  0  0  0  0  0
  -24.7491  -19.4249   20.8811 C   0  0  0  0  0  0  0  0  0  0  0  0
  -21.1365   -5.9883   23.8314 C   0  0  0  0  0  0  0  0  0  0  0  0
  -20.4082   -5.9357   25.0198 C   0  0  0  0  0  0  0  0  0  0  0  0
  -25.5335  -19.2128   23.1524 C   0  0  0  0  0  0  0  0  0  0  0  0
  -19.1718   -7.9001   24.3490 C   0  0  0  0  0  0  0  0  0  0  0  0
  -23.8461  -10.4616   20.9779 C   0  0  0  0  0  0  0  0  0  0  0  0
  -24.2180  -12.9838   20.8890 C   0  0  0  0  0  0  0  0  0  0  0  0
  -17.0711  -22.2017   24.7530 C   0  0  0  0  0  0  0  0  0  0  0  0
  -23.2086  -18.7736   22.6410 C   0  0  0  0  0  0  0  0  0  0  0  0
  -18.3620  -22.1249   24.1962 C   0  0  0  0  0  0  0  0  0  0  0  0
  -24.2498  -18.8385   23.5779 C   0  0  0  0  0  0  0  0  0  0  0  0
  -22.3406   -8.1668   21.4778 C   0  0  0  0  0  0  0  0  0  0  0  0
  -25.7810  -19.5059   21.8115 C   0  0  0  0  0  0  0  0  0  0  0  0
  -20.8826   -6.9968   22.9018 C   0  0  0  0  0  0  0  0  0  0  0  0
  -19.4258   -6.8916   25.2786 C   0  0  0  0  0  0  0  0  0  0  0  0
  -19.9003   -7.9527   23.1606 C   0  0  0  0  0  0  0  0  0  0  0  0
  -24.6243  -11.6466   20.7202 C   0  0  0  0  0  0  0  0  0  0  0  0
  -25.3108  -13.7250   20.5111 C   0  0  0  0  0  0  0  0  0  0  0  0
  -22.9648  -13.5090   21.3467 C   0  0  0  0  0  0  0  0  0  0  0  0
  -21.3315  -20.0335   24.8754 C   0  0  0  0  0  0  0  0  0  0  0  0
  -22.3526  -17.4923   26.6138 C   0  0  0  0  0  0  0  0  0  0  0  0
  -24.7431  -15.1140   27.1391 C   0  0  0  0  0  0  0  0  0  0  0  0
  -30.8103  -14.6711   20.5822 C   0  0  0  0  0  0  0  0  0  0  0  0
  -16.8338  -22.0303   26.2325 C   0  0  0  0  0  0  0  0  0  0  0  0
  -21.8283  -18.3516   23.0642 C   0  0  0  0  0  0  0  0  0  0  0  0
  -24.0270  -18.5250   25.0341 C   0  0  0  0  0  0  0  0  0  0  0  0
  -17.9922  -21.3534   26.9608 C   0  0  0  0  0  0  0  0  0  0  0  0
  -29.5845  -12.3396   18.1868 C   0  0  0  0  0  0  0  0  0  0  0  0
  -19.3214  -21.9737   26.5420 C   0  0  0  0  0  0  0  0  0  0  0  0
  -28.1542  -12.0573   18.6499 C   0  0  0  0  0  0  0  0  0  0  0  0
  -30.5331  -12.5296   19.3684 C   0  0  0  0  0  0  0  0  0  0  0  0
  -28.6750  -13.2626   20.8120 C   0  0  0  0  0  0  0  0  0  0  0  0
  -19.5703  -21.7833   25.0409 C   0  0  1  0  0  0  0  0  0  0  0  0
  -21.5607  -18.5851   24.5479 C   0  0  1  0  0  0  0  0  0  0  0  0
  -27.6706  -13.1192   19.6558 C   0  0  2  0  0  0  0  0  0  0  0  0
  -25.3188  -13.2016   28.6585 C   0  0  0  0  0  0  0  0  0  0  0  0
  -23.1824  -19.4698   28.7844 C   0  0  0  0  0  0  0  0  0  0  0  0
  -24.5722  -17.6562   29.8078 C   0  0  0  0  0  0  0  0  0  0  0  0
  -22.0989  -17.3821   29.6341 C   0  0  0  0  0  0  0  0  0  0  0  0
  -24.7054  -13.1748   24.9037 C   0  0  0  0  0  0  0  0  0  0  0  0
  -30.9341  -16.8007   21.8505 C   0  0  0  0  0  0  0  0  0  0  0  0
  -30.6370  -17.9563   20.9116 C   0  0  0  0  0  0  0  0  0  0  0  0
  -27.4127  -19.5218   20.0814 C   0  0  0  0  0  0  0  0  0  1  0  0
  -28.9109  -19.2914   20.0394 C   0  0  0  0  0  0  0  0  0  0  0  0
  -23.5127  -17.2298   27.5436 C   0  0  1  0  0  0  0  0  0  0  0  0
  -24.6416  -13.6157   27.3614 C   0  0  2  0  0  0  0  0  0  0  0  0
  -23.3456  -17.9423   28.9154 C   0  0  0  0  0  0  0  0  0  0  0  0
  -25.8773  -11.5413   20.2699 N   0  0  0  0  0  0  0  0  0  0  0  0
  -26.2678  -12.8219   20.1525 N   0  0  0  0  0  0  0  0  0  0  0  0
  -22.6586  -18.1233   25.3997 N   0  0  0  0  0  0  0  0  0  0  0  0
  -30.0175  -13.5508   20.2834 N   0  0  0  0  0  0  0  0  0  0  0  0
  -25.5368  -15.0547   20.4538 N   0  0  0  0  0  0  0  0  0  0  0  0
  -21.9495  -12.6075   21.6942 N   0  0  0  0  0  0  0  0  0  0  0  0
  -20.0127  -20.4324   24.7692 N   0  0  0  0  0  0  0  0  0  0  0  0
  -23.6422  -15.7796   27.6353 N   0  0  0  0  0  0  0  0  0  0  0  0
  -30.2438  -15.5940   21.4529 N   0  0  0  0  0  0  0  0  0  0  0  0
  -25.2884  -12.8805   26.2380 N   0  3  0  0  0  0  0  0  0  0  0  0
  -22.7461  -14.7414   21.4289 O   0  0  0  0  0  0  0  0  0  0  0  0
  -22.2805  -20.7367   25.2018 O   0  0  0  0  0  0  0  0  0  0  0  0
  -21.2179  -17.1438   26.9493 O   0  0  0  0  0  0  0  0  0  0  0  0
  -25.7046  -15.6415   26.5844 O   0  0  0  0  0  0  0  0  0  0  0  0
  -31.9372  -14.8393   20.1039 O   0  0  0  0  0  0  0  0  0  0  0  0
  -21.6061   -7.0472   21.7221 O   0  0  0  0  0  0  0  0  0  0  0  0
  -27.0313  -19.8659   21.4128 O   0  0  0  0  0  0  0  0  0  1  0  0
  -29.2397  -18.2135   20.9073 O   0  0  0  0  0  0  0  0  0  0  0  0
  -18.7254   -6.8400   26.4191 F   0  0  0  0  0  0  0  0  0  0  0  0
  -19.6510   -8.9232   22.2708 F   0  0  0  0  0  0  0  0  0  0  0  0
  1  2  1  0  0  0  0
  1  5  2  0  0  0  0
  2  6  2  0  0  0  0
  3  8  2  0  0  0  0
  3 15  1  0  0  0  0
  4  9  1  0  0  0  0
  4 15  2  0  0  0  0
  5 17  1  0  0  0  0
  6 19  1  0  0  0  0
  7 10  2  0  0  0  0
  7 18  1  0  0  0  0
  8 21  1  0  0  0  0
  9 21  2  0  0  0  0
 10 22  1  0  0  0  0
 11 12  2  0  0  0  0
 11 23  1  0  0  0  0
 12 24  1  0  0  0  0
 13 20  1  0  0  0  0
 13 22  2  0  0  0  0
 14 24  2  0  0  0  0
 14 25  1  0  0  0  0
 15 26  1  0  0  0  0
 16 26  1  0  0  0  0
 16 27  2  0  0  0  0
 16 28  1  0  0  0  0
 17 19  2  0  0  0  0
 17 33  1  0  0  0  0
 18 20  2  0  0  0  0
 18 34  1  0  0  0  0
 19 42  1  0  0  0  0
 20 35  1  0  0  0  0
 21 72  1  0  0  0  0
 22 73  1  0  0  0  0
 23 25  2  0  0  0  0
 23 72  1  0  0  0  0
 24 75  1  0  0  0  0
 25 76  1  0  0  0  0
 26 57  2  0  0  0  0
 27 58  1  0  0  0  0
 27 61  1  0  0  0  0
 28 62  1  0  0  0  0
 28 67  2  0  0  0  0
 29 43  1  0  0  0  0
 29 63  1  0  0  0  0
 29 68  2  0  0  0  0
 30 54  1  0  0  0  0
 30 59  1  0  0  0  0
 30 69  2  0  0  0  0
 31 55  1  0  0  0  0
 31 64  1  0  0  0  0
 31 70  2  0  0  0  0
 32 60  1  0  0  0  0
 32 65  1  0  0  0  0
 32 71  2  0  0  0  0
 33 36  1  0  0  0  0
 34 43  1  0  0  0  0
 35 59  1  0  0  0  0
 36 38  1  0  0  0  0
 37 39  1  0  0  0  0
 37 40  1  0  0  0  0
 38 42  1  0  0  0  0
 39 44  1  0  0  0  0
 40 60  1  0  0  0  0
 41 44  1  0  0  0  0
 41 60  1  0  0  0  0
 42 63  1  0  0  0  0
 43 59  1  0  0  0  0
 44 58  1  0  0  0  0
 45 55  1  0  0  0  0
 46 56  1  0  0  0  0
 47 56  1  0  0  0  0
 48 56  1  0  0  0  0
 49 66  1  0  0  0  0
 50 51  1  0  0  0  0
 50 65  1  0  0  0  0
 51 74  1  0  0  0  0
 52 53  1  0  0  0  0
 52 73  1  0  0  0  0
 53 74  1  0  0  0  0
 54 56  1  0  0  0  0
 54 64  1  0  0  0  0
 55 66  1  0  0  0  0
 57 58  1  0  0  0  0
M  CHG  1  66   1
M  ISO  4  32 100  52 101  65 100  73 101
M  END
> <Batch ID>
0001

> <Smiles>
CNC(C)C(=O)NC(C(=O)N1Cc2cc([101O:1][101CH2:1]COCC[100NH:0][100C:0](=O)N3CCCC(n4nc(-c5ccc(Oc6ccc(F)cc6F)cc5)c(C(N)=O)c4N)C3)ccc2CC1C(=O)NC1CCCc2ccccc21)C(C)(C)C

> <Shape>
0.186

> <Color>
0.201

> <Negative vol penalty>
0.000

$$$$

  -OEChem-04052315163D

 77 85  0     1  0  0  0  0  0999 V2000
  -26.4813  -23.9273   31.7546 C   0  0  0  0  0  0  0  0  0  0  0  0
  -26.7751  -23.2573   30.5714 C   0  0  0  0  0  0  0  0  0  0  0  0
  -22.9831   -9.9461   19.9498 C   0  0  0  0  0  0  0  0  0  0  0  0
  -23.7574   -9.8922   22.2378 C   0  0  0  0  0  0  0  0  0  0  0  0
  -25.6814  -25.0690   31.7278 C   0  0  0  0  0  0  0  0  0  0  0  0
  -26.2683  -23.7280   29.3606 C   0  0  0  0  0  0  0  0  0  0  0  0
  -29.7464  -23.7604   25.6800 C   0  0  0  0  0  0  0  0  0  0  0  0
  -22.2122   -8.8074   20.1839 C   0  0  0  0  0  0  0  0  0  0  0  0
  -22.9864   -8.7536   22.4719 C   0  0  0  0  0  0  0  0  0  0  0  0
  -30.0429  -22.5406   25.0734 C   0  0  0  0  0  0  0  0  0  0  0  0
  -23.1906   -5.4361   21.8525 C   0  0  0  0  0  0  0  0  0  0  0  0
  -23.7848   -4.3828   22.5476 C   0  0  0  0  0  0  0  0  0  0  0  0
  -28.6125  -23.1215   23.2198 C   0  0  0  0  0  0  0  0  0  0  0  0
  -22.0990   -4.5675   24.2684 C   0  0  0  0  0  0  0  0  0  0  0  0
  -31.9525  -18.5399   22.3610 C   0  0  0  0  0  0  0  0  0  0  0  0
  -23.7558  -10.4884   20.9768 C   0  0  0  0  0  0  0  0  0  0  0  0
  -24.1600  -13.0061   20.9002 C   0  0  0  0  0  0  0  0  0  0  0  0
  -25.1724  -25.5594   30.5149 C   0  0  0  0  0  0  0  0  0  0  0  0
  -28.8707  -24.6668   25.0652 C   0  0  0  0  0  0  0  0  0  0  0  0
  -25.4598  -24.8765   29.3176 C   0  0  0  0  0  0  0  0  0  0  0  0
  -28.3085  -24.3532   23.8195 C   0  0  0  0  0  0  0  0  0  0  0  0
  -22.2139   -8.2112   21.4449 C   0  0  0  0  0  0  0  0  0  0  0  0
  -29.4737  -22.2197   23.8445 C   0  0  0  0  0  0  0  0  0  0  0  0
  -22.0507   -6.0552   22.3654 C   0  0  0  0  0  0  0  0  0  0  0  0
  -23.2390   -3.9485   23.7555 C   0  0  0  0  0  0  0  0  0  0  0  0
  -21.5049   -5.6209   23.5733 C   0  0  0  0  0  0  0  0  0  0  0  0
  -24.5528  -11.6643   20.7355 C   0  0  0  0  0  0  0  0  0  0  0  0
  -30.8652  -18.9205   23.1193 C   0  0  0  0  0  0  0  0  0  0  0  0
  -25.2682  -13.7346   20.5432 C   0  0  0  0  0  0  0  0  0  0  0  0
  -30.6679  -16.8012   21.9915 C   0  0  0  0  0  0  0  0  0  0  0  0
  -22.9054  -13.5456   21.3370 C   0  0  0  0  0  0  0  0  0  0  0  0
  -26.0638  -25.9458   25.8327 C   0  0  0  0  0  0  0  0  0  0  0  0
  -26.5610  -27.6871   23.1414 C   0  0  0  0  0  0  0  0  0  0  0  0
  -28.1026  -27.9567   20.1087 C   0  0  0  0  0  0  0  0  0  0  0  0
  -30.7599  -14.6402   20.6999 C   0  0  0  0  0  0  0  0  0  0  0  0
  -24.2734  -26.7701   30.5415 C   0  0  0  0  0  0  0  0  0  0  0  0
  -28.5820  -25.9898   25.7198 C   0  0  0  0  0  0  0  0  0  0  0  0
  -27.3781  -25.3003   23.1083 C   0  0  0  0  0  0  0  0  0  0  0  0
  -24.0843  -27.4185   29.1725 C   0  0  0  0  0  0  0  0  0  0  0  0
  -29.5704  -12.2987   18.2958 C   0  0  0  0  0  0  0  0  0  0  0  0
  -23.7847  -26.3590   28.1168 C   0  0  0  0  0  0  0  0  0  0  0  0
  -28.1267  -12.0353   18.7297 C   0  0  0  0  0  0  0  0  0  0  0  0
  -30.4986  -12.4826   19.4952 C   0  0  0  0  0  0  0  0  0  0  0  0
  -28.6191  -13.2289   20.9022 C   0  0  0  0  0  0  0  0  0  0  0  0
  -24.9490  -25.3704   27.9814 C   0  0  1  0  0  0  0  0  0  0  0  0
  -27.2740  -26.6173   25.2477 C   0  0  1  0  0  0  0  0  0  0  0  0
  -27.6348  -13.1016   19.7281 C   0  0  2  0  0  0  0  0  0  0  0  0
  -28.2849  -29.4760   18.1197 C   0  0  0  0  0  0  0  0  0  0  0  0
  -23.8162  -26.7597   22.1845 C   0  0  0  0  0  0  0  0  0  0  0  0
  -24.4493  -27.4955   19.8767 C   0  0  0  0  0  0  0  0  0  0  0  0
  -24.3230  -29.1653   21.7256 C   0  0  0  0  0  0  0  0  0  0  0  0
  -31.0099  -28.3321   20.5160 C   0  0  0  0  0  0  0  0  0  0  0  0
  -30.6534  -20.1571   23.9424 C   0  0  0  0  0  0  0  0  0  1  0  0
  -26.2340  -27.5106   21.6782 C   0  0  1  0  0  0  0  0  0  0  0  0
  -28.8748  -29.0965   19.4690 C   0  0  2  0  0  0  0  0  0  0  0  0
  -24.7216  -27.7139   21.3803 C   0  0  0  0  0  0  0  0  0  0  0  0
  -31.8414  -17.3247   21.7139 N   0  0  0  0  0  0  0  0  0  0  0  0
  -25.8122  -11.5446   20.3070 N   0  0  0  0  0  0  0  0  0  0  0  0
  -26.2203  -12.8205   20.1994 N   0  0  0  0  0  0  0  0  0  0  0  0
  -27.1218  -26.5788   23.7919 N   0  0  0  0  0  0  0  0  0  0  0  0
  -29.9711  -13.5108   20.3949 N   0  0  0  0  0  0  0  0  0  0  0  0
  -25.5114  -15.0615   20.4929 N   0  0  0  0  0  0  0  0  0  0  0  0
  -21.8732  -12.6559   21.6645 N   0  0  0  0  0  0  0  0  0  0  0  0
  -30.1411  -15.5659   21.5394 N   0  0  0  0  0  0  0  0  0  0  0  0
  -26.0254  -25.9592   27.2139 N   0  0  0  0  0  0  0  0  0  0  0  0
  -27.1136  -28.4192   20.9509 N   0  0  0  0  0  0  0  0  0  0  0  0
  -30.2992  -28.7077   19.2667 N   0  3  0  0  0  0  0  0  0  0  0  0
  -22.7004  -14.7805   21.4182 O   0  0  0  0  0  0  0  0  0  0  0  0
  -25.2260  -25.4534   25.0861 O   0  0  0  0  0  0  0  0  0  0  0  0
  -26.3341  -28.7707   23.6854 O   0  0  0  0  0  0  0  0  0  0  0  0
  -28.3494  -26.7745   19.8809 O   0  0  0  0  0  0  0  0  0  0  0  0
  -31.8899  -14.7893   20.2278 O   0  0  0  0  0  0  0  0  0  0  0  0
  -21.4615   -7.1002   21.6737 O   0  0  0  0  0  0  0  0  0  0  0  0
  -29.7609  -21.0295   23.2506 O   0  0  0  0  0  0  0  0  0  1  0  0
  -23.8087   -2.9360   24.4221 F   0  0  0  0  0  0  0  0  0  0  0  0
  -20.4092   -6.2109   24.0705 F   0  0  0  0  0  0  0  0  0  0  0  0
  -29.6476  -17.7164   23.0240 S   0  0  0  0  0  0  0  0  0  0  0  0
  1  2  1  0  0  0  0
  1  5  2  0  0  0  0
  2  6  2  0  0  0  0
  3  8  2  0  0  0  0
  3 16  1  0  0  0  0
  4  9  1  0  0  0  0
  4 16  2  0  0  0  0
  5 18  1  0  0  0  0
  6 20  1  0  0  0  0
  7 10  2  0  0  0  0
  7 19  1  0  0  0  0
  8 22  1  0  0  0  0
  9 22  2  0  0  0  0
 10 23  1  0  0  0  0
 11 12  2  0  0  0  0
 11 24  1  0  0  0  0
 12 25  1  0  0  0  0
 13 21  1  0  0  0  0
 13 23  2  0  0  0  0
 14 25  2  0  0  0  0
 14 26  1  0  0  0  0
 15 28  2  0  0  0  0
 15 57  1  0  0  0  0
 16 27  1  0  0  0  0
 17 27  1  0  0  0  0
 17 29  2  0  0  0  0
 17 31  1  0  0  0  0
 18 20  2  0  0  0  0
 18 36  1  0  0  0  0
 19 21  2  0  0  0  0
 19 37  1  0  0  0  0
 20 45  1  0  0  0  0
 21 38  1  0  0  0  0
 22 73  1  0  0  0  0
 23 74  1  0  0  0  0
 24 26  2  0  0  0  0
 24 73  1  0  0  0  0
 25 75  1  0  0  0  0
 26 76  1  0  0  0  0
 27 58  2  0  0  0  0
 28 53  1  0  0  0  0
 28 77  1  0  0  0  0
 29 59  1  0  0  0  0
 29 62  1  0  0  0  0
 30 57  2  0  0  0  0
 30 64  1  0  0  0  0
 30 77  1  0  0  0  0
 31 63  1  0  0  0  0
 31 68  2  0  0  0  0
 32 46  1  0  0  0  0
 32 65  1  0  0  0  0
 32 69  2  0  0  0  0
 33 54  1  0  0  0  0
 33 60  1  0  0  0  0
 33 70  2  0  0  0  0
 34 55  1  0  0  0  0
 34 66  1  0  0  0  0
 34 71  2  0  0  0  0
 35 61  1  0  0  0  0
 35 64  1  0  0  0  0
 35 72  2  0  0  0  0
 36 39  1  0  0  0  0
 37 46  1  0  0  0  0
 38 60  1  0  0  0  0
 39 41  1  0  0  0  0
 40 42  1  0  0  0  0
 40 43  1  0  0  0  0
 41 45  1  0  0  0  0
 42 47  1  0  0  0  0
 43 61  1  0  0  0  0
 44 47  1  0  0  0  0
 44 61  1  0  0  0  0
 45 65  1  0  0  0  0
 46 60  1  0  0  0  0
 47 59  1  0  0  0  0
 48 55  1  0  0  0  0
 49 56  1  0  0  0  0
 50 56  1  0  0  0  0
 51 56  1  0  0  0  0
 52 67  1  0  0  0  0
 53 74  1  0  0  0  0
 54 56  1  0  0  0  0
 54 66  1  0  0  0  0
 55 67  1  0  0  0  0
 58 59  1  0  0  0  0
M  CHG  1  67   1
M  ISO  4  35 100  53 101  64 100  74 101
M  END
> <Batch ID>
0001

> <Smiles>
CNC(C)C(=O)NC(C(=O)N1Cc2cc([101O:1][101CH2:1]c3cnc([100NH:0][100C:0](=O)N4CCCC(n5nc(-c6ccc(Oc7ccc(F)cc7F)cc6)c(C(N)=O)c5N)C4)s3)ccc2CC1C(=O)NC1CCCc2ccccc21)C(C)(C)C

> <Shape>
0.230

> <Color>
0.226

> <Negative vol penalty>
0.000

$$$$

  -OEChem-04052315163D

 77 84  0     1  0  0  0  0  0999 V2000
  -23.1007  -28.8547   22.2609 C   0  0  0  0  0  0  0  0  0  0  0  0
  -22.8591  -27.5418   21.8693 C   0  0  0  0  0  0  0  0  0  0  0  0
  -23.7529  -15.6125   22.5810 C   0  0  0  0  0  0  0  0  0  0  0  0
  -22.8649  -15.5942   20.3342 C   0  0  0  0  0  0  0  0  0  0  0  0
  -24.2442  -29.5151   21.8138 C   0  0  0  0  0  0  0  0  0  0  0  0
  -23.7605  -26.8889   21.0293 C   0  0  0  0  0  0  0  0  0  0  0  0
  -26.4437  -20.3814   19.6992 C   0  0  0  0  0  0  0  0  0  0  0  0
  -22.9361  -16.6986   22.8951 C   0  0  0  0  0  0  0  0  0  0  0  0
  -22.0480  -16.6804   20.6483 C   0  0  0  0  0  0  0  0  0  0  0  0
  -26.6397  -19.4924   18.6432 C   0  0  0  0  0  0  0  0  0  0  0  0
  -22.3728  -20.0299   20.9735 C   0  0  0  0  0  0  0  0  0  0  0  0
  -22.3045  -21.0767   20.0542 C   0  0  0  0  0  0  0  0  0  0  0  0
  -28.6218  -20.7061   17.9972 C   0  0  0  0  0  0  0  0  0  0  0  0
  -19.9247  -20.7252   19.8307 C   0  0  0  0  0  0  0  0  0  0  0  0
  -23.7174  -15.0603   21.3005 C   0  0  0  0  0  0  0  0  0  0  0  0
  -24.2490  -12.5726   21.1097 C   0  0  0  0  0  0  0  0  0  0  0  0
  -25.1651  -28.8667   20.9757 C   0  0  0  0  0  0  0  0  0  0  0  0
  -27.3307  -21.4477   19.9059 C   0  0  0  0  0  0  0  0  0  0  0  0
  -24.9169  -27.5417   20.5695 C   0  0  0  0  0  0  0  0  0  0  0  0
  -28.4363  -21.6058   19.0581 C   0  0  0  0  0  0  0  0  0  0  0  0
  -22.0836  -17.2326   21.9287 C   0  0  0  0  0  0  0  0  0  0  0  0
  -27.7272  -19.6564   17.7903 C   0  0  0  0  0  0  0  0  0  0  0  0
  -21.2170  -19.3307   21.3214 C   0  0  0  0  0  0  0  0  0  0  0  0
  -21.0805  -21.4244   19.4828 C   0  0  0  0  0  0  0  0  0  0  0  0
  -19.9929  -19.6784   20.7500 C   0  0  0  0  0  0  0  0  0  0  0  0
  -24.5614  -13.9387   20.9753 C   0  0  0  0  0  0  0  0  0  0  0  0
  -25.3736  -11.9183   20.6696 C   0  0  0  0  0  0  0  0  0  0  0  0
  -28.0867  -15.6717   14.0423 C   0  0  0  0  0  0  0  0  0  0  0  0
  -28.1847  -16.8917   14.5909 C   0  0  0  0  0  0  0  0  0  0  0  0
  -23.0494  -11.9507   21.5893 C   0  0  0  0  0  0  0  0  0  0  0  0
  -27.0707  -24.6156   19.8972 C   0  0  0  0  0  0  0  0  0  0  0  0
  -30.1503  -24.4816   20.9074 C   0  0  0  0  0  0  0  0  0  0  0  0
  -33.0753  -22.7303   21.0612 C   0  0  0  0  0  0  0  0  0  0  0  0
  -29.7840  -13.4586   16.9244 C   0  0  0  0  0  0  0  0  0  0  0  0
  -26.3630  -29.6373   20.4798 C   0  0  0  0  0  0  0  0  0  0  0  0
  -27.1203  -22.3822   21.0656 C   0  0  0  0  0  0  0  0  0  0  0  0
  -29.4290  -22.7222   19.2492 C   0  0  0  0  0  0  0  0  0  0  0  0
  -27.4585  -28.7498   19.8945 C   0  0  0  0  0  0  0  0  0  0  0  0
  -30.1162  -12.4441   20.3210 C   0  0  0  0  0  0  0  0  0  0  0  0
  -26.8589  -27.7186   18.9438 C   0  0  0  0  0  0  0  0  0  0  0  0
  -28.7021  -12.5888   20.8860 C   0  0  0  0  0  0  0  0  0  0  0  0
  -30.4365  -13.5452   19.3125 C   0  0  0  0  0  0  0  0  0  0  0  0
  -28.0468  -13.8273   18.7799 C   0  0  0  0  0  0  0  0  0  0  0  0
  -25.8837  -26.7915   19.6792 C   0  0  1  0  0  0  0  0  0  0  0  0
  -27.7984  -23.7351   20.8733 C   0  0  1  0  0  0  0  0  0  0  0  0
  -27.6577  -12.7071   19.7597 C   0  0  2  0  0  0  0  0  0  0  0  0
  -35.4275  -22.8957   21.9197 C   0  0  0  0  0  0  0  0  0  0  0  0
  -30.8551  -26.3588   18.6076 C   0  0  0  0  0  0  0  0  0  0  0  0
  -33.2585  -25.7340   18.9262 C   0  0  0  0  0  0  0  0  0  0  0  0
  -32.0129  -26.8708   20.7644 C   0  0  0  0  0  0  0  0  0  0  0  0
  -32.7202  -20.3804   22.8249 C   0  0  0  0  0  0  0  0  0  0  0  0
  -29.2433  -14.7229   13.9039 C   0  0  0  0  0  0  0  0  0  0  0  0
  -27.0291  -17.8425   14.7270 C   0  0  0  0  0  0  0  0  0  0  0  0
  -28.9743  -13.3818   14.5797 C   0  0  0  0  0  0  0  0  0  0  0  0
  -26.7581  -18.1934   16.1852 C   0  0  0  0  0  0  0  0  0  1  0  0
  -31.4981  -24.4544   20.2280 C   0  0  1  0  0  0  0  0  0  0  0  0
  -34.0107  -22.4313   22.2188 C   0  0  2  0  0  0  0  0  0  0  0  0
  -31.8865  -25.8345   19.6265 C   0  0  0  0  0  0  0  0  0  0  0  0
  -25.7884  -14.1415   20.4882 N   0  0  0  0  0  0  0  0  0  0  0  0
  -26.2569  -12.8942   20.3126 N   0  0  0  0  0  0  0  0  0  0  0  0
  -29.1765  -23.6136   20.3934 N   0  0  0  0  0  0  0  0  0  0  0  0
  -29.4088  -13.6034   18.2703 N   0  0  0  0  0  0  0  0  0  0  0  0
  -25.6831  -10.6091   20.5571 N   0  0  0  0  0  0  0  0  0  0  0  0
  -21.9906  -12.7709   22.0020 N   0  0  0  0  0  0  0  0  0  0  0  0
  -26.6086  -25.7983   20.4424 N   0  0  0  0  0  0  0  0  0  0  0  0
  -32.4432  -23.9459   21.2162 N   0  0  0  0  0  0  0  0  0  0  0  0
  -28.7475  -13.5200   16.0010 N   0  0  0  0  0  0  0  0  0  0  0  0
  -34.0441  -20.9667   22.4927 N   0  3  0  0  0  0  0  0  0  0  0  0
  -22.9265  -10.7047   21.6656 O   0  0  0  0  0  0  0  0  0  0  0  0
  -26.9394  -24.2498   18.7350 O   0  0  0  0  0  0  0  0  0  0  0  0
  -29.9703  -25.2398   21.8636 O   0  0  0  0  0  0  0  0  0  0  0  0
  -32.9237  -21.9640   20.1123 O   0  0  0  0  0  0  0  0  0  0  0  0
  -30.9552  -13.2820   16.5722 O   0  0  0  0  0  0  0  0  0  0  0  0
  -21.2862  -18.2923   22.2349 O   0  0  0  0  0  0  0  0  0  0  0  0
  -27.9205  -18.7905   16.7585 O   0  0  0  0  0  0  0  0  0  1  0  0
  -21.0148  -22.4306   18.6011 F   0  0  0  0  0  0  0  0  0  0  0  0
  -18.8790  -19.0111   21.0812 F   0  0  0  0  0  0  0  0  0  0  0  0
  1  2  1  0  0  0  0
  1  5  2  0  0  0  0
  2  6  2  0  0  0  0
  3  8  2  0  0  0  0
  3 15  1  0  0  0  0
  4  9  1  0  0  0  0
  4 15  2  0  0  0  0
  5 17  1  0  0  0  0
  6 19  1  0  0  0  0
  7 10  2  0  0  0  0
  7 18  1  0  0  0  0
  8 21  1  0  0  0  0
  9 21  2  0  0  0  0
 10 22  1  0  0  0  0
 11 12  2  0  0  0  0
 11 23  1  0  0  0  0
 12 24  1  0  0  0  0
 13 20  1  0  0  0  0
 13 22  2  0  0  0  0
 14 24  2  0  0  0  0
 14 25  1  0  0  0  0
 15 26  1  0  0  0  0
 16 26  1  0  0  0  0
 16 27  2  0  0  0  0
 16 30  1  0  0  0  0
 17 19  2  0  0  0  0
 17 35  1  0  0  0  0
 18 20  2  0  0  0  0
 18 36  1  0  0  0  0
 19 44  1  0  0  0  0
 20 37  1  0  0  0  0
 21 74  1  0  0  0  0
 22 75  1  0  0  0  0
 23 25  2  0  0  0  0
 23 74  1  0  0  0  0
 24 76  1  0  0  0  0
 25 77  1  0  0  0  0
 26 59  2  0  0  0  0
 27 60  1  0  0  0  0
 27 63  1  0  0  0  0
 28 29  2  0  0  0  0
 28 52  1  0  0  0  0
 29 53  1  0  0  0  0
 30 64  1  0  0  0  0
 30 69  2  0  0  0  0
 31 45  1  0  0  0  0
 31 65  1  0  0  0  0
 31 70  2  0  0  0  0
 32 56  1  0  0  0  0
 32 61  1  0  0  0  0
 32 71  2  0  0  0  0
 33 57  1  0  0  0  0
 33 66  1  0  0  0  0
 33 72  2  0  0  0  0
 34 62  1  0  0  0  0
 34 67  1  0  0  0  0
 34 73  2  0  0  0  0
 35 38  1  0  0  0  0
 36 45  1  0  0  0  0
 37 61  1  0  0  0  0
 38 40  1  0  0  0  0
 39 41  1  0  0  0  0
 39 42  1  0  0  0  0
 40 44  1  0  0  0  0
 41 46  1  0  0  0  0
 42 62  1  0  0  0  0
 43 46  1  0  0  0  0
 43 62  1  0  0  0  0
 44 65  1  0  0  0  0
 45 61  1  0  0  0  0
 46 60  1  0  0  0  0
 47 57  1  0  0  0  0
 48 58  1  0  0  0  0
 49 58  1  0  0  0  0
 50 58  1  0  0  0  0
 51 68  1  0  0  0  0
 52 54  1  0  0  0  0
 53 55  1  0  0  0  0
 54 67  1  0  0  0  0
 55 75  1  0  0  0  0
 56 58  1  0  0  0  0
 56 66  1  0  0  0  0
 57 68  1  0  0  0  0
 59 60  1  0  0  0  0
M  CHG  1  68   1
M  ISO  4  34 100  55 101  67 100  75 101
M  END
> <Batch ID>
0001

> <Smiles>
CNC(C)C(=O)NC(C(=O)N1Cc2cc([101O:1][101CH2:1]CC=CCC[100NH:0][100C:0](=O)N3CCCC(n4nc(-c5ccc(Oc6ccc(F)cc6F)cc5)c(C(N)=O)c4N)C3)ccc2CC1C(=O)NC1CCCc2ccccc21)C(C)(C)C

> <Shape>
0.194

> <Color>
0.088

> <Negative vol penalty>
0.000

$$$$

  -OEChem-04052315163D

 73 80  0     1  0  0  0  0  0999 V2000
  -28.7485  -11.4171   19.9091 C   0  0  0  0  0  0  0  0  0  0  0  0
  -28.8789  -12.6951   19.3752 C   0  0  0  0  0  0  0  0  0  0  0  0
  -26.0858  -28.8294   20.5380 C   0  0  0  0  0  0  0  0  0  0  0  0
  -25.4611  -26.4979   20.6438 C   0  0  0  0  0  0  0  0  0  0  0  0
  -27.5209  -10.9983   20.4202 C   0  0  0  0  0  0  0  0  0  0  0  0
  -27.7813  -13.5548   19.3512 C   0  0  0  0  0  0  0  0  0  0  0  0
  -28.9569  -18.2489   20.8439 C   0  0  0  0  0  0  0  0  0  0  0  0
  -24.7576  -29.1739   20.2878 C   0  0  0  0  0  0  0  0  0  0  0  0
  -24.1328  -26.8425   20.3936 C   0  0  0  0  0  0  0  0  0  0  0  0
  -29.6081  -19.0662   19.9210 C   0  0  0  0  0  0  0  0  0  0  0  0
  -20.5182  -27.1399   20.1408 C   0  0  0  0  0  0  0  0  0  0  0  0
  -19.5325  -26.5338   20.9197 C   0  0  0  0  0  0  0  0  0  0  0  0
  -27.5138  -20.1500   19.4123 C   0  0  0  0  0  0  0  0  0  0  0  0
  -20.5249  -27.4777   22.9100 C   0  0  0  0  0  0  0  0  0  0  0  0
  -26.4376  -27.4913   20.7160 C   0  0  0  0  0  0  0  0  0  0  0  0
  -28.4375  -27.0233   22.2289 C   0  0  0  0  0  0  0  0  0  0  0  0
  -26.4101  -11.8567   20.4113 C   0  0  0  0  0  0  0  0  0  0  0  0
  -27.5751  -18.3688   21.0504 C   0  0  0  0  0  0  0  0  0  0  0  0
  -26.5372  -13.1466   19.8615 C   0  0  0  0  0  0  0  0  0  0  0  0
  -26.8480  -19.3347   20.3402 C   0  0  0  0  0  0  0  0  0  0  0  0
  -23.7811  -28.1805   20.2156 C   0  0  0  0  0  0  0  0  0  0  0  0
  -28.8860  -20.0149   19.2029 C   0  0  0  0  0  0  0  0  0  0  0  0
  -21.5073  -27.9147   20.7465 C   0  0  0  0  0  0  0  0  0  0  0  0
  -19.5358  -26.7028   22.3043 C   0  0  0  0  0  0  0  0  0  0  0  0
  -21.5107  -28.0837   22.1311 C   0  0  0  0  0  0  0  0  0  0  0  0
  -27.8096  -27.1347   20.9739 C   0  0  0  0  0  0  0  0  0  0  0  0
  -29.7299  -26.6628   21.9355 C   0  0  0  0  0  0  0  0  0  0  0  0
  -27.9004  -27.2272   23.5426 C   0  0  0  0  0  0  0  0  0  0  0  0
  -25.0756  -16.4409   20.6764 C   0  0  0  0  0  0  0  0  0  0  0  0
  -23.4735  -18.8854   22.0836 C   0  0  0  0  0  0  0  0  0  0  0  0
  -23.3199  -22.2195   22.7957 C   0  0  0  0  0  0  0  0  0  0  0  0
  -32.0912  -23.8931   17.1467 C   0  0  0  0  0  0  0  0  0  0  0  0
  -25.0913  -11.3427   20.9321 C   0  0  0  0  0  0  0  0  0  0  0  0
  -26.8922  -17.4978   22.0689 C   0  0  0  0  0  0  0  0  0  0  0  0
  -25.3663  -19.5172   20.5397 C   0  0  0  0  0  0  0  0  0  0  0  0
  -24.0744  -12.4467   21.2103 C   0  0  0  0  0  0  0  0  0  0  0  0
  -33.0648  -27.0723   18.5411 C   0  0  0  0  0  0  0  0  0  0  0  0
  -24.0208  -13.4292   20.0447 C   0  0  0  0  0  0  0  0  0  0  0  0
  -31.8641  -27.4545   19.4058 C   0  0  0  0  0  0  0  0  0  0  0  0
  -32.6340  -26.3100   17.2921 C   0  0  0  0  0  0  0  0  0  0  0  0
  -30.6054  -25.4729   18.4501 C   0  0  0  0  0  0  0  0  0  0  0  0
  -25.3761  -14.1169   19.8402 C   0  0  1  0  0  0  0  0  0  0  0  0
  -25.3929  -17.3562   21.8250 C   0  0  1  0  0  0  0  0  0  0  0  0
  -31.0048  -26.2206   19.7339 C   0  0  2  0  0  0  0  0  0  0  0  0
  -21.8714  -23.9273   23.9282 C   0  0  0  0  0  0  0  0  0  0  0  0
  -21.5571  -18.8303   19.7100 C   0  0  0  0  0  0  0  0  0  0  0  0
  -20.7485  -21.0973   20.3994 C   0  0  0  0  0  0  0  0  0  0  0  0
  -20.4561  -19.1513   21.9324 C   0  0  0  0  0  0  0  0  0  0  0  0
  -25.4469  -22.9073   24.7352 C   0  0  0  0  0  0  0  0  0  0  0  0
  -30.9245  -20.6254   18.1407 C   0  0  0  0  0  0  0  0  0  1  0  0
  -31.4404  -21.6054   17.1049 C   0  0  0  0  0  0  0  0  0  0  0  0
  -22.7647  -20.1236   21.5902 C   0  0  1  0  0  0  0  0  0  0  0  0
  -23.0348  -22.9612   24.0891 C   0  0  2  0  0  0  0  0  0  0  0  0
  -21.4092  -19.7961   20.9026 C   0  0  0  0  0  0  0  0  0  0  0  0
  -28.6353  -26.8669   19.9587 N   0  0  0  0  0  0  0  0  0  0  0  0
  -29.7952  -26.5837   20.5755 N   0  0  0  0  0  0  0  0  0  0  0  0
  -24.7428  -18.6375   21.5422 N   0  0  0  0  0  0  0  0  0  0  0  0
  -31.7879  -25.1677   17.6353 N   0  0  0  0  0  0  0  0  0  0  0  0
  -30.8056  -26.4090   22.7107 N   0  0  0  0  0  0  0  0  0  0  0  0
  -26.5533  -27.5944   23.6640 N   0  0  0  0  0  0  0  0  0  0  0  0
  -25.5682  -15.1586   20.8262 N   0  0  0  0  0  0  0  0  0  0  0  0
  -22.6517  -21.0147   22.7398 N   0  0  0  0  0  0  0  0  0  0  0  0
  -24.2336  -23.7363   24.5169 N   0  3  0  0  0  0  0  0  0  0  0  0
  -28.5988  -27.1040   24.5772 O   0  0  0  0  0  0  0  0  0  0  0  0
  -24.4303  -16.8662   19.7254 O   0  0  0  0  0  0  0  0  0  0  0  0
  -22.9243  -18.1686   22.9240 O   0  0  0  0  0  0  0  0  0  0  0  0
  -24.0585  -22.6661   21.9207 O   0  0  0  0  0  0  0  0  0  0  0  0
  -33.0510  -23.6395   16.4210 O   0  0  0  0  0  0  0  0  0  0  0  0
  -22.4848  -28.5164   19.9718 O   0  0  0  0  0  0  0  0  0  0  0  0
  -29.5190  -20.8135   18.3010 O   0  0  0  0  0  0  0  0  0  1  0  0
  -31.1991  -22.9408   17.5633 O   0  0  0  0  0  0  0  0  0  0  0  0
  -18.5883  -26.1220   23.0520 F   0  0  0  0  0  0  0  0  0  0  0  0
  -22.4577  -28.8279   22.7186 F   0  0  0  0  0  0  0  0  0  0  0  0
  1  2  1  0  0  0  0
  1  5  2  0  0  0  0
  2  6  2  0  0  0  0
  3  8  2  0  0  0  0
  3 15  1  0  0  0  0
  4  9  1  0  0  0  0
  4 15  2  0  0  0  0
  5 17  1  0  0  0  0
  6 19  1  0  0  0  0
  7 10  2  0  0  0  0
  7 18  1  0  0  0  0
  8 21  1  0  0  0  0
  9 21  2  0  0  0  0
 10 22  1  0  0  0  0
 11 12  2  0  0  0  0
 11 23  1  0  0  0  0
 12 24  1  0  0  0  0
 13 20  1  0  0  0  0
 13 22  2  0  0  0  0
 14 24  2  0  0  0  0
 14 25  1  0  0  0  0
 15 26  1  0  0  0  0
 16 26  1  0  0  0  0
 16 27  2  0  0  0  0
 16 28  1  0  0  0  0
 17 19  2  0  0  0  0
 17 33  1  0  0  0  0
 18 20  2  0  0  0  0
 18 34  1  0  0  0  0
 19 42  1  0  0  0  0
 20 35  1  0  0  0  0
 21 69  1  0  0  0  0
 22 70  1  0  0  0  0
 23 25  2  0  0  0  0
 23 69  1  0  0  0  0
 24 72  1  0  0  0  0
 25 73  1  0  0  0  0
 26 55  2  0  0  0  0
 27 56  1  0  0  0  0
 27 59  1  0  0  0  0
 28 60  1  0  0  0  0
 28 64  2  0  0  0  0
 29 43  1  0  0  0  0
 29 61  1  0  0  0  0
 29 65  2  0  0  0  0
 30 52  1  0  0  0  0
 30 57  1  0  0  0  0
 30 66  2  0  0  0  0
 31 53  1  0  0  0  0
 31 62  1  0  0  0  0
 31 67  2  0  0  0  0
 32 58  1  0  0  0  0
 32 68  2  0  0  0  0
 32 71  1  0  0  0  0
 33 36  1  0  0  0  0
 34 43  1  0  0  0  0
 35 57  1  0  0  0  0
 36 38  1  0  0  0  0
 37 39  1  0  0  0  0
 37 40  1  0  0  0  0
 38 42  1  0  0  0  0
 39 44  1  0  0  0  0
 40 58  1  0  0  0  0
 41 44  1  0  0  0  0
 41 58  1  0  0  0  0
 42 61  1  0  0  0  0
 43 57  1  0  0  0  0
 44 56  1  0  0  0  0
 45 53  1  0  0  0  0
 46 54  1  0  0  0  0
 47 54  1  0  0  0  0
 48 54  1  0  0  0  0
 49 63  1  0  0  0  0
 50 51  1  0  0  0  0
 50 70  1  0  0  0  0
 51 71  1  0  0  0  0
 52 54  1  0  0  0  0
 52 62  1  0  0  0  0
 53 63  1  0  0  0  0
 55 56  1  0  0  0  0
M  CHG  1  63   1
M  ISO  4  32 100  50 101  70 101  71 100
M  END
> <Batch ID>
0001

> <Smiles>
CNC(C)C(=O)NC(C(=O)N1Cc2cc([101O:1][101CH2:1]C[100O:0][100C:0](=O)N3CCCC(n4nc(-c5ccc(Oc6ccc(F)cc6F)cc5)c(C(N)=O)c4N)C3)ccc2CC1C(=O)NC1CCCc2ccccc21)C(C)(C)C

> <Shape>
0.224

> <Color>
0.066

> <Negative vol penalty>
0.000

$$$$

  -OEChem-04052315163D

 76 83  0     1  0  0  0  0  0999 V2000
  -22.1282  -11.9180   19.2507 C   0  0  0  0  0  0  0  0  0  0  0  0
  -21.8993  -13.2630   19.5228 C   0  0  0  0  0  0  0  0  0  0  0  0
  -25.9841  -30.1880   23.1608 C   0  0  0  0  0  0  0  0  0  0  0  0
  -25.9057  -28.4714   24.8591 C   0  0  0  0  0  0  0  0  0  0  0  0
  -23.3517  -11.3388   19.5846 C   0  0  0  0  0  0  0  0  0  0  0  0
  -22.8935  -14.0293   20.1300 C   0  0  0  0  0  0  0  0  0  0  0  0
  -23.4729  -18.5545   17.9319 C   0  0  0  0  0  0  0  0  0  0  0  0
  -26.9392  -30.8806   23.9049 C   0  0  0  0  0  0  0  0  0  0  0  0
  -26.8608  -29.1640   25.6032 C   0  0  0  0  0  0  0  0  0  0  0  0
  -22.5350  -19.5381   18.2427 C   0  0  0  0  0  0  0  0  0  0  0  0
  -29.1344  -33.2816   25.5295 C   0  0  0  0  0  0  0  0  0  0  0  0
  -28.9731  -34.6597   25.6724 C   0  0  0  0  0  0  0  0  0  0  0  0
  -24.0867  -20.5136   19.8111 C   0  0  0  0  0  0  0  0  0  0  0  0
  -26.8385  -34.2986   26.7448 C   0  0  0  0  0  0  0  0  0  0  0  0
  -25.4673  -28.9834   23.6379 C   0  0  0  0  0  0  0  0  0  0  0  0
  -24.7146  -27.2860   21.8887 C   0  0  0  0  0  0  0  0  0  0  0  0
  -24.3649  -12.1008   20.1875 C   0  0  0  0  0  0  0  0  0  0  0  0
  -24.7228  -18.5366   18.5674 C   0  0  0  0  0  0  0  0  0  0  0  0
  -24.1312  -13.4594   20.4736 C   0  0  0  0  0  0  0  0  0  0  0  0
  -25.0396  -19.5302   19.5047 C   0  0  0  0  0  0  0  0  0  0  0  0
  -27.3776  -30.3686   25.1261 C   0  0  0  0  0  0  0  0  0  0  0  0
  -22.8407  -20.5162   19.1845 C   0  0  0  0  0  0  0  0  0  0  0  0
  -28.1477  -32.4120   25.9942 C   0  0  0  0  0  0  0  0  0  0  0  0
  -27.8252  -35.1682   26.2801 C   0  0  0  0  0  0  0  0  0  0  0  0
  -26.9998  -32.9205   26.6019 C   0  0  0  0  0  0  0  0  0  0  0  0
  -24.4802  -28.2678   22.8700 C   0  0  0  0  0  0  0  0  0  0  0  0
  -23.4611  -26.9204   21.4626 C   0  0  0  0  0  0  0  0  0  0  0  0
  -25.9544  -26.7520   21.4057 C   0  0  0  0  0  0  0  0  0  0  0  0
  -26.2482  -16.4878   20.4592 C   0  0  0  0  0  0  0  0  0  0  0  0
  -28.6970  -18.5853   20.1039 C   0  0  0  0  0  0  0  0  0  0  0  0
  -29.7059  -21.7693   19.4033 C   0  0  0  0  0  0  0  0  0  0  0  0
  -21.0643  -21.1380   20.5498 C   0  0  0  0  0  0  0  0  0  1  0  0
  -18.1973  -25.5020   22.7125 C   0  0  0  0  0  0  0  0  0  0  0  0
  -25.6538  -11.4191   20.5732 C   0  0  0  0  0  0  0  0  0  0  0  0
  -25.7335  -17.4846   18.2014 C   0  0  0  0  0  0  0  0  0  0  0  0
  -26.3750  -19.5673   20.2003 C   0  0  0  0  0  0  0  0  0  0  0  0
  -26.7912  -12.3920   20.8732 C   0  0  0  0  0  0  0  0  0  0  0  0
  -18.9421  -29.0072   22.3145 C   0  0  0  0  0  0  0  0  0  0  0  0
  -26.3059  -13.5166   21.7824 C   0  0  0  0  0  0  0  0  0  0  0  0
  -20.4682  -29.0481   22.3840 C   0  0  0  0  0  0  0  0  0  0  0  0
  -18.3700  -27.9241   23.2234 C   0  0  0  0  0  0  0  0  0  0  0  0
  -20.4569  -26.5964   23.0269 C   0  0  0  0  0  0  0  0  0  0  0  0
  -25.1939  -14.3297   21.1087 C   0  0  1  0  0  0  0  0  0  0  0  0
  -26.7823  -17.2605   19.2864 C   0  0  1  0  0  0  0  0  0  0  0  0
  -21.0711  -27.6606   22.1012 C   0  0  2  0  0  0  0  0  0  0  0  0
  -31.7679  -23.1886   19.2274 C   0  0  0  0  0  0  0  0  0  0  0  0
  -28.8723  -18.7034   23.1478 C   0  0  0  0  0  0  0  0  0  0  0  0
  -30.2439  -20.7853   22.9184 C   0  0  0  0  0  0  0  0  0  0  0  0
  -31.0814  -18.6322   21.9776 C   0  0  0  0  0  0  0  0  0  0  0  0
  -29.2021  -22.3515   16.5456 C   0  0  0  0  0  0  0  0  0  0  0  0
  -20.0978  -22.2766   20.7973 C   0  0  0  0  0  0  0  0  0  0  0  0
  -19.1796  -22.0319   21.9912 C   0  0  0  0  0  0  0  0  0  0  0  0
  -18.1971  -23.1742   22.2227 C   0  0  0  0  0  0  0  0  0  0  0  0
  -29.1624  -19.8197   20.8378 C   0  0  1  0  0  0  0  0  0  0  0  0
  -30.7841  -22.3037   18.4779 C   0  0  2  0  0  0  0  0  0  0  0  0
  -29.8140  -19.4836   22.2089 C   0  0  0  0  0  0  0  0  0  0  0  0
  -23.1801  -28.5107   23.0562 N   0  0  0  0  0  0  0  0  0  0  0  0
  -22.5862  -27.6763   22.1860 N   0  0  0  0  0  0  0  0  0  0  0  0
  -27.3273  -18.5134   19.8131 N   0  0  0  0  0  0  0  0  0  0  0  0
  -18.9908  -26.6273   22.9563 N   0  0  0  0  0  0  0  0  0  0  0  0
  -23.0329  -26.0294   20.5432 N   0  0  0  0  0  0  0  0  0  0  0  0
  -27.1496  -27.2391   21.9521 N   0  0  0  0  0  0  0  0  0  0  0  0
  -25.7537  -15.2395   20.1324 N   0  0  0  0  0  0  0  0  0  0  0  0
  -30.0405  -20.5347   19.9181 N   0  0  0  0  0  0  0  0  0  0  0  0
  -30.1737  -23.1049   17.3796 N   0  3  0  0  0  0  0  0  0  0  0  0
  -26.0016  -25.8810   20.5042 O   0  0  0  0  0  0  0  0  0  0  0  0
  -26.2836  -16.9865   21.5780 O   0  0  0  0  0  0  0  0  0  0  0  0
  -29.5197  -17.7201   19.7935 O   0  0  0  0  0  0  0  0  0  0  0  0
  -28.6720  -22.3871   19.6481 O   0  0  0  0  0  0  0  0  0  0  0  0
  -21.1086  -20.0957   21.1891 O   0  0  0  0  0  0  0  0  0  0  0  0
  -16.9676  -25.5102   22.7032 O   0  0  0  0  0  0  0  0  0  0  0  0
  -28.3097  -31.0440   25.8523 O   0  0  0  0  0  0  0  0  0  0  0  0
  -21.9268  -21.4770   19.4902 O   0  0  0  0  0  0  0  0  0  1  0  0
  -18.9374  -24.3728   22.4815 O   0  0  0  0  0  0  0  0  0  0  0  0
  -27.6711  -36.4915   26.4187 F   0  0  0  0  0  0  0  0  0  0  0  0
  -26.0490  -32.0900   27.0513 F   0  0  0  0  0  0  0  0  0  0  0  0
  1  2  1  0  0  0  0
  1  5  2  0  0  0  0
  2  6  2  0  0  0  0
  3  8  2  0  0  0  0
  3 15  1  0  0  0  0
  4  9  1  0  0  0  0
  4 15  2  0  0  0  0
  5 17  1  0  0  0  0
  6 19  1  0  0  0  0
  7 10  2  0  0  0  0
  7 18  1  0  0  0  0
  8 21  1  0  0  0  0
  9 21  2  0  0  0  0
 10 22  1  0  0  0  0
 11 12  2  0  0  0  0
 11 23  1  0  0  0  0
 12 24  1  0  0  0  0
 13 20  1  0  0  0  0
 13 22  2  0  0  0  0
 14 24  2  0  0  0  0
 14 25  1  0  0  0  0
 15 26  1  0  0  0  0
 16 26  1  0  0  0  0
 16 27  2  0  0  0  0
 16 28  1  0  0  0  0
 17 19  2  0  0  0  0
 17 34  1  0  0  0  0
 18 20  2  0  0  0  0
 18 35  1  0  0  0  0
 19 43  1  0  0  0  0
 20 36  1  0  0  0  0
 21 72  1  0  0  0  0
 22 73  1  0  0  0  0
 23 25  2  0  0  0  0
 23 72  1  0  0  0  0
 24 75  1  0  0  0  0
 25 76  1  0  0  0  0
 26 57  2  0  0  0  0
 27 58  1  0  0  0  0
 27 61  1  0  0  0  0
 28 62  1  0  0  0  0
 28 66  2  0  0  0  0
 29 44  1  0  0  0  0
 29 63  1  0  0  0  0
 29 67  2  0  0  0  0
 30 54  1  0  0  0  0
 30 59  1  0  0  0  0
 30 68  2  0  0  0  0
 31 55  1  0  0  0  0
 31 64  1  0  0  0  0
 31 69  2  0  0  0  0
 32 51  1  0  0  0  0
 32 70  2  0  0  0  0
 32 73  1  0  0  0  0
 33 60  1  0  0  0  0
 33 71  2  0  0  0  0
 33 74  1  0  0  0  0
 34 37  1  0  0  0  0
 35 44  1  0  0  0  0
 36 59  1  0  0  0  0
 37 39  1  0  0  0  0
 38 40  1  0  0  0  0
 38 41  1  0  0  0  0
 39 43  1  0  0  0  0
 40 45  1  0  0  0  0
 41 60  1  0  0  0  0
 42 45  1  0  0  0  0
 42 60  1  0  0  0  0
 43 63  1  0  0  0  0
 44 59  1  0  0  0  0
 45 58  1  0  0  0  0
 46 55  1  0  0  0  0
 47 56  1  0  0  0  0
 48 56  1  0  0  0  0
 49 56  1  0  0  0  0
 50 65  1  0  0  0  0
 51 52  1  0  0  0  0
 52 53  1  0  0  0  0
 53 74  1  0  0  0  0
 54 56  1  0  0  0  0
 54 64  1  0  0  0  0
 55 65  1  0  0  0  0
 57 58  1  0  0  0  0
M  CHG  1  65   1
M  ISO  4  32 101  33 100  73 101  74 100
M  END
> <Batch ID>
0001

> <Smiles>
CNC(C)C(=O)NC(C(=O)N1Cc2cc([101O:1][101C:1](=O)CCC[100O:0][100C:0](=O)N3CCCC(n4nc(-c5ccc(Oc6ccc(F)cc6F)cc5)c(C(N)=O)c4N)C3)ccc2CC1C(=O)NC1CCCc2ccccc21)C(C)(C)C

> <Shape>
0.228

> <Color>
0.088

> <Negative vol penalty>
0.000

$$$$

  -OEChem-04052315163D

 73 80  0     1  0  0  0  0  0999 V2000
  -28.7807  -11.4027   19.8413 C   0  0  0  0  0  0  0  0  0  0  0  0
  -28.8747  -12.6791   19.2960 C   0  0  0  0  0  0  0  0  0  0  0  0
  -25.9114  -28.9143   20.8188 C   0  0  0  0  0  0  0  0  0  0  0  0
  -25.2447  -26.5922   20.8056 C   0  0  0  0  0  0  0  0  0  0  0  0
  -27.5741  -10.9659   20.3863 C   0  0  0  0  0  0  0  0  0  0  0  0
  -27.7616  -13.5191   19.2943 C   0  0  0  0  0  0  0  0  0  0  0  0
  -28.8908  -18.2435   20.7261 C   0  0  0  0  0  0  0  0  0  0  0  0
  -24.5811  -29.2972   20.6476 C   0  0  0  0  0  0  0  0  0  0  0  0
  -23.9144  -26.9751   20.6344 C   0  0  0  0  0  0  0  0  0  0  0  0
  -29.5037  -19.0657   19.7816 C   0  0  0  0  0  0  0  0  0  0  0  0
  -20.2991  -27.3512   20.5553 C   0  0  0  0  0  0  0  0  0  0  0  0
  -19.3346  -26.7145   21.3363 C   0  0  0  0  0  0  0  0  0  0  0  0
  -27.3782  -20.1087   19.3193 C   0  0  0  0  0  0  0  0  0  0  0  0
  -20.4277  -27.5133   23.3374 C   0  0  0  0  0  0  0  0  0  0  0  0
  -26.2432  -27.5618   20.8978 C   0  0  0  0  0  0  0  0  0  0  0  0
  -28.2943  -26.9641   22.2918 C   0  0  0  0  0  0  0  0  0  0  0  0
  -26.4483  -11.8044   20.4000 C   0  0  0  0  0  0  0  0  0  0  0  0
  -27.5128  -18.3403   20.9669 C   0  0  0  0  0  0  0  0  0  0  0  0
  -26.5384  -13.0925   19.8388 C   0  0  0  0  0  0  0  0  0  0  0  0
  -26.7507  -19.2883   20.2692 C   0  0  0  0  0  0  0  0  0  0  0  0
  -23.5826  -28.3276   20.5554 C   0  0  0  0  0  0  0  0  0  0  0  0
  -28.7469  -19.9965   19.0760 C   0  0  0  0  0  0  0  0  0  0  0  0
  -21.3280  -28.0688   21.1653 C   0  0  0  0  0  0  0  0  0  0  0  0
  -19.3988  -26.7956   22.7274 C   0  0  0  0  0  0  0  0  0  0  0  0
  -21.3923  -28.1499   22.5564 C   0  0  0  0  0  0  0  0  0  0  0  0
  -27.6173  -27.1656   21.0741 C   0  0  0  0  0  0  0  0  0  0  0  0
  -29.5659  -26.6003   21.9215 C   0  0  0  0  0  0  0  0  0  0  0  0
  -27.8165  -27.0941   23.6374 C   0  0  0  0  0  0  0  0  0  0  0  0
  -25.0394  -16.3661   20.6693 C   0  0  0  0  0  0  0  0  0  0  0  0
  -23.4301  -18.7916   22.1009 C   0  0  0  0  0  0  0  0  0  0  0  0
  -23.2352  -22.1273   22.7949 C   0  0  0  0  0  0  0  0  0  0  0  0
  -31.8053  -24.0606   16.9833 C   0  0  0  0  0  0  0  0  0  0  0  0
  -25.1525  -11.2708   20.9575 C   0  0  0  0  0  0  0  0  0  0  0  0
  -26.8716  -17.4645   22.0082 C   0  0  0  0  0  0  0  0  0  0  0  0
  -25.2716  -19.4460   20.5052 C   0  0  0  0  0  0  0  0  0  0  0  0
  -24.1234  -12.3586   21.2544 C   0  0  0  0  0  0  0  0  0  0  0  0
  -32.7528  -27.1859   18.4013 C   0  0  0  0  0  0  0  0  0  0  0  0
  -24.0228  -13.3319   20.0842 C   0  0  0  0  0  0  0  0  0  0  0  0
  -31.6052  -27.5169   19.3570 C   0  0  0  0  0  0  0  0  0  0  0  0
  -32.2517  -26.4924   17.1365 C   0  0  0  0  0  0  0  0  0  0  0  0
  -30.2768  -25.6255   18.3290 C   0  0  0  0  0  0  0  0  0  0  0  0
  -25.3600  -14.0420   19.8407 C   0  0  1  0  0  0  0  0  0  0  0  0
  -25.3693  -17.2948   21.8034 C   0  0  1  0  0  0  0  0  0  0  0  0
  -30.7390  -26.2758   19.6442 C   0  0  2  0  0  0  0  0  0  0  0  0
  -21.7856  -23.8170   23.9528 C   0  0  0  0  0  0  0  0  0  0  0  0
  -21.4554  -18.6861   19.7772 C   0  0  0  0  0  0  0  0  0  0  0  0
  -20.6243  -20.9432   20.4723 C   0  0  0  0  0  0  0  0  0  0  0  0
  -20.4056  -19.0030   22.0249 C   0  0  0  0  0  0  0  0  0  0  0  0
  -25.3980  -22.8660   24.6752 C   0  0  0  0  0  0  0  0  0  0  0  0
  -31.2354  -21.6456   16.9357 C   0  0  0  0  0  0  0  0  0  0  0  0
  -30.7465  -20.6355   17.9583 C   0  0  0  0  0  0  0  0  0  1  0  0
  -22.6870  -20.0136   21.6176 C   0  0  1  0  0  0  0  0  0  0  0  0
  -22.9697  -22.8728   24.0904 C   0  0  2  0  0  0  0  0  0  0  0  0
  -21.3206  -19.6574   20.9669 C   0  0  0  0  0  0  0  0  0  0  0  0
  -28.3944  -26.9480   20.0099 N   0  0  0  0  0  0  0  0  0  0  0  0
  -29.5730  -26.6061   20.5576 N   0  0  0  0  0  0  0  0  0  0  0  0
  -24.6895  -18.5623   21.5289 N   0  0  0  0  0  0  0  0  0  0  0  0
  -31.4385  -25.3228   17.4784 N   0  0  0  0  0  0  0  0  0  0  0  0
  -30.6675  -26.2792   22.6327 N   0  0  0  0  0  0  0  0  0  0  0  0
  -26.4833  -27.4765   23.8389 N   0  0  0  0  0  0  0  0  0  0  0  0
  -25.5584  -15.0937   20.8148 N   0  0  0  0  0  0  0  0  0  0  0  0
  -22.5873  -20.9105   22.7639 N   0  0  0  0  0  0  0  0  0  0  0  0
  -30.9843  -23.0048   17.3602 N   0  0  0  0  0  0  0  0  0  0  0  0
  -24.1650  -23.6719   24.4825 N   0  3  0  0  0  0  0  0  0  0  0  0
  -28.5547  -26.8935   24.6315 O   0  0  0  0  0  0  0  0  0  0  0  0
  -24.3627  -16.7733   19.7323 O   0  0  0  0  0  0  0  0  0  0  0  0
  -22.9152  -18.0710   22.9596 O   0  0  0  0  0  0  0  0  0  0  0  0
  -23.9432  -22.5808   21.8985 O   0  0  0  0  0  0  0  0  0  0  0  0
  -32.7944  -23.8864   16.2633 O   0  0  0  0  0  0  0  0  0  0  0  0
  -22.2844  -28.7009   20.3885 O   0  0  0  0  0  0  0  0  0  0  0  0
  -29.3424  -20.7999   18.1530 O   0  0  0  0  0  0  0  0  0  1  0  0
  -18.4716  -26.1855   23.4772 F   0  0  0  0  0  0  0  0  0  0  0  0
  -22.3777  -28.8388   23.1481 F   0  0  0  0  0  0  0  0  0  0  0  0
  1  2  1  0  0  0  0
  1  5  2  0  0  0  0
  2  6  2  0  0  0  0
  3  8  2  0  0  0  0
  3 15  1  0  0  0  0
  4  9  1  0  0  0  0
  4 15  2  0  0  0  0
  5 17  1  0  0  0  0
  6 19  1  0  0  0  0
  7 10  2  0  0  0  0
  7 18  1  0  0  0  0
  8 21  1  0  0  0  0
  9 21  2  0  0  0  0
 10 22  1  0  0  0  0
 11 12  2  0  0  0  0
 11 23  1  0  0  0  0
 12 24  1  0  0  0  0
 13 20  1  0  0  0  0
 13 22  2  0  0  0  0
 14 24  2  0  0  0  0
 14 25  1  0  0  0  0
 15 26  1  0  0  0  0
 16 26  1  0  0  0  0
 16 27  2  0  0  0  0
 16 28  1  0  0  0  0
 17 19  2  0  0  0  0
 17 33  1  0  0  0  0
 18 20  2  0  0  0  0
 18 34  1  0  0  0  0
 19 42  1  0  0  0  0
 20 35  1  0  0  0  0
 21 70  1  0  0  0  0
 22 71  1  0  0  0  0
 23 25  2  0  0  0  0
 23 70  1  0  0  0  0
 24 72  1  0  0  0  0
 25 73  1  0  0  0  0
 26 55  2  0  0  0  0
 27 56  1  0  0  0  0
 27 59  1  0  0  0  0
 28 60  1  0  0  0  0
 28 65  2  0  0  0  0
 29 43  1  0  0  0  0
 29 61  1  0  0  0  0
 29 66  2  0  0  0  0
 30 52  1  0  0  0  0
 30 57  1  0  0  0  0
 30 67  2  0  0  0  0
 31 53  1  0  0  0  0
 31 62  1  0  0  0  0
 31 68  2  0  0  0  0
 32 58  1  0  0  0  0
 32 63  1  0  0  0  0
 32 69  2  0  0  0  0
 33 36  1  0  0  0  0
 34 43  1  0  0  0  0
 35 57  1  0  0  0  0
 36 38  1  0  0  0  0
 37 39  1  0  0  0  0
 37 40  1  0  0  0  0
 38 42  1  0  0  0  0
 39 44  1  0  0  0  0
 40 58  1  0  0  0  0
 41 44  1  0  0  0  0
 41 58  1  0  0  0  0
 42 61  1  0  0  0  0
 43 57  1  0  0  0  0
 44 56  1  0  0  0  0
 45 53  1  0  0  0  0
 46 54  1  0  0  0  0
 47 54  1  0  0  0  0
 48 54  1  0  0  0  0
 49 64  1  0  0  0  0
 50 51  1  0  0  0  0
 50 63  1  0  0  0  0
 51 71  1  0  0  0  0
 52 54  1  0  0  0  0
 52 62  1  0  0  0  0
 53 64  1  0  0  0  0
 55 56  1  0  0  0  0
M  CHG  1  64   1
M  ISO  4  32 100  51 101  63 100  71 101
M  END
> <Batch ID>
0001

> <Smiles>
CNC(C)C(=O)NC(C(=O)N1Cc2cc([101O:1][101CH2:1]C[100NH:0][100C:0](=O)N3CCCC(n4nc(-c5ccc(Oc6ccc(F)cc6F)cc5)c(C(N)=O)c4N)C3)ccc2CC1C(=O)NC1CCCc2ccccc21)C(C)(C)C

> <Shape>
0.226

> <Color>
0.066

> <Negative vol penalty>
0.000

$$$$

  -OEChem-04052315163D

 80 88  0     1  0  0  0  0  0999 V2000
  -23.6037  -32.7327   26.6389 C   0  0  0  0  0  0  0  0  0  0  0  0
  -24.8776  -32.2842   26.3049 C   0  0  0  0  0  0  0  0  0  0  0  0
  -24.0384   -9.7255   21.7182 C   0  0  0  0  0  0  0  0  0  0  0  0
  -24.6425  -10.9968   23.6819 C   0  0  0  0  0  0  0  0  0  0  0  0
  -22.4822  -32.0179   26.2204 C   0  0  0  0  0  0  0  0  0  0  0  0
  -25.0306  -31.1199   25.5529 C   0  0  0  0  0  0  0  0  0  0  0  0
  -29.3094  -28.1866   20.6129 C   0  0  0  0  0  0  0  0  0  0  0  0
  -28.4287  -19.3882   20.5060 C   0  0  0  0  0  0  0  0  0  0  0  0
  -30.7877  -18.9562   20.2141 C   0  0  0  0  0  0  0  0  0  0  0  0
  -23.6100   -8.6752   22.5300 C   0  0  0  0  0  0  0  0  0  0  0  0
  -24.2141   -9.9465   24.4937 C   0  0  0  0  0  0  0  0  0  0  0  0
  -30.0416  -27.0241   20.3755 C   0  0  0  0  0  0  0  0  0  0  0  0
  -28.7132  -20.7096   20.8503 C   0  0  0  0  0  0  0  0  0  0  0  0
  -31.0723  -20.2777   20.5583 C   0  0  0  0  0  0  0  0  0  0  0  0
  -20.8982   -7.9212   24.4037 C   0  0  0  0  0  0  0  0  0  0  0  0
  -19.6779   -7.3201   24.0957 C   0  0  0  0  0  0  0  0  0  0  0  0
  -28.0298  -25.9145   19.6402 C   0  0  0  0  0  0  0  0  0  0  0  0
  -20.7990   -5.2023   23.7872 C   0  0  0  0  0  0  0  0  0  0  0  0
  -24.5547  -10.8863   22.2942 C   0  0  0  0  0  0  0  0  0  0  0  0
  -24.2291  -13.0552   20.9913 C   0  0  0  0  0  0  0  0  0  0  0  0
  -22.6213  -30.8496   25.4547 C   0  0  0  0  0  0  0  0  0  0  0  0
  -27.9277  -28.2185   20.3757 C   0  0  0  0  0  0  0  0  0  0  0  0
  -23.9099  -30.3881   25.1249 C   0  0  0  0  0  0  0  0  0  0  0  0
  -27.2828  -27.0794   19.8730 C   0  0  0  0  0  0  0  0  0  0  0  0
  -29.4659  -18.5115   20.1880 C   0  0  0  0  0  0  0  0  0  0  0  0
  -23.6979   -8.7857   23.9177 C   0  0  0  0  0  0  0  0  0  0  0  0
  -30.0350  -21.1544   20.8764 C   0  0  0  0  0  0  0  0  0  0  0  0
  -29.4013  -25.8869   19.8918 C   0  0  0  0  0  0  0  0  0  0  0  0
  -22.0690   -7.1629   24.4033 C   0  0  0  0  0  0  0  0  0  0  0  0
  -19.6282   -5.9606   23.7875 C   0  0  0  0  0  0  0  0  0  0  0  0
  -22.0194   -5.8035   24.0952 C   0  0  0  0  0  0  0  0  0  0  0  0
  -24.9979  -11.9714   21.4562 C   0  0  0  0  0  0  0  0  0  0  0  0
  -25.1050  -13.8005   20.2404 C   0  0  0  0  0  0  0  0  0  0  0  0
  -22.8468  -13.3610   21.2181 C   0  0  0  0  0  0  0  0  0  0  0  0
  -25.3524  -28.6868   22.1791 C   0  0  0  0  0  0  0  0  0  0  0  0
  -23.8160  -28.5983   19.3236 C   0  0  0  0  0  0  0  0  0  0  0  0
  -23.8009  -27.5601   16.0727 C   0  0  0  0  0  0  0  0  0  0  0  0
  -30.0881  -16.1705   19.4959 C   0  0  0  0  0  0  0  0  0  0  0  0
  -21.3810  -30.0848   25.0655 C   0  0  0  0  0  0  0  0  0  0  0  0
  -27.1569  -29.4884   20.6116 C   0  0  0  0  0  0  0  0  0  0  0  0
  -25.8050  -27.0680   19.5827 C   0  0  0  0  0  0  0  0  0  0  0  0
  -21.6176  -29.0659   23.9537 C   0  0  0  0  0  0  0  0  0  0  0  0
  -29.7771  -12.7363   18.6092 C   0  0  0  0  0  0  0  0  0  0  0  0
  -22.8728  -28.2471   24.2383 C   0  0  0  0  0  0  0  0  0  0  0  0
  -28.4427  -12.3203   19.2326 C   0  0  0  0  0  0  0  0  0  0  0  0
  -30.5327  -13.7256   19.4945 C   0  0  0  0  0  0  0  0  0  0  0  0
  -28.4296  -14.4937   20.5222 C   0  0  0  0  0  0  0  0  0  0  0  0
  -24.1161  -29.1431   24.2896 C   0  0  1  0  0  0  0  0  0  0  0  0
  -25.6647  -29.2513   20.8221 C   0  0  1  0  0  0  0  0  0  0  0  0
  -27.6025  -13.5476   19.6365 C   0  0  2  0  0  0  0  0  0  0  0  0
  -22.3923  -27.6068   13.9963 C   0  0  0  0  0  0  0  0  0  0  0  0
  -22.0062  -26.4448   20.5056 C   0  0  0  0  0  0  0  0  0  0  0  0
  -21.2844  -25.8720   18.1778 C   0  0  0  0  0  0  0  0  0  0  0  0
  -20.8257  -28.1437   19.1006 C   0  0  0  0  0  0  0  0  0  0  0  0
  -25.8720  -29.0381   14.5612 C   0  0  0  0  0  0  0  0  0  0  0  0
  -31.4746  -23.0311   20.6290 C   0  0  0  0  0  0  0  0  0  0  0  0
  -31.2605  -24.5247   20.4780 C   0  0  0  0  0  0  0  0  0  1  0  0
  -23.1936  -27.5139   18.4776 C   0  0  1  0  0  0  0  0  0  0  0  0
  -23.4968  -28.2975   14.7811 C   0  0  2  0  0  0  0  0  0  0  0  0
  -21.8550  -26.9929   19.0726 C   0  0  0  0  0  0  0  0  0  0  0  0
  -26.2647  -12.0199   21.0356 N   0  0  0  0  0  0  0  0  0  0  0  0
  -26.2986  -13.1431   20.2986 N   0  0  0  0  0  0  0  0  0  0  0  0
  -25.0938  -28.3320   19.8355 N   0  0  0  0  0  0  0  0  0  0  0  0
  -29.6758  -14.8640   19.8332 N   0  0  0  0  0  0  0  0  0  0  0  0
  -24.9629  -14.9473   19.5425 N   0  0  0  0  0  0  0  0  0  0  0  0
  -22.0914  -12.4891   22.0140 N   0  0  0  0  0  0  0  0  0  0  0  0
  -29.1770  -17.1691   19.8384 N   0  0  0  0  0  0  0  0  0  0  0  0
  -24.5408  -29.4954   22.9517 N   0  0  0  0  0  0  0  0  0  0  0  0
  -23.0753  -28.0638   17.1314 N   0  0  0  0  0  0  0  0  0  0  0  0
  -24.7133  -28.3622   13.9228 N   0  3  0  0  0  0  0  0  0  0  0  0
  -22.2936  -14.3687   20.7159 O   0  0  0  0  0  0  0  0  0  0  0  0
  -25.8125  -27.5975   22.5008 O   0  0  0  0  0  0  0  0  0  0  0  0
  -23.1943  -29.6461   19.5170 O   0  0  0  0  0  0  0  0  0  0  0  0
  -24.5992  -26.6277   16.1352 O   0  0  0  0  0  0  0  0  0  0  0  0
  -31.1575  -16.3850   18.9194 O   0  0  0  0  0  0  0  0  0  0  0  0
  -23.2797   -7.7611   24.7101 O   0  0  0  0  0  0  0  0  0  0  0  0
  -30.3146  -22.4523   21.2145 O   0  0  0  0  0  0  0  0  0  0  0  0
  -30.1134  -24.7508   19.6598 O   0  0  0  0  0  0  0  0  0  1  0  0
  -18.4560   -5.3831   23.4933 F   0  0  0  0  0  0  0  0  0  0  0  0
  -23.1406   -5.0696   24.0944 F   0  0  0  0  0  0  0  0  0  0  0  0
  1  2  1  0  0  0  0
  1  5  2  0  0  0  0
  2  6  2  0  0  0  0
  3 10  2  0  0  0  0
  3 19  1  0  0  0  0
  4 11  1  0  0  0  0
  4 19  2  0  0  0  0
  5 21  1  0  0  0  0
  6 23  1  0  0  0  0
  7 12  2  0  0  0  0
  7 22  1  0  0  0  0
  8 13  2  0  0  0  0
  8 25  1  0  0  0  0
  9 14  1  0  0  0  0
  9 25  2  0  0  0  0
 10 26  1  0  0  0  0
 11 26  2  0  0  0  0
 12 28  1  0  0  0  0
 13 27  1  0  0  0  0
 14 27  2  0  0  0  0
 15 16  2  0  0  0  0
 15 29  1  0  0  0  0
 16 30  1  0  0  0  0
 17 24  1  0  0  0  0
 17 28  2  0  0  0  0
 18 30  2  0  0  0  0
 18 31  1  0  0  0  0
 19 32  1  0  0  0  0
 20 32  1  0  0  0  0
 20 33  2  0  0  0  0
 20 34  1  0  0  0  0
 21 23  2  0  0  0  0
 21 39  1  0  0  0  0
 22 24  2  0  0  0  0
 22 40  1  0  0  0  0
 23 48  1  0  0  0  0
 24 41  1  0  0  0  0
 25 67  1  0  0  0  0
 26 76  1  0  0  0  0
 27 77  1  0  0  0  0
 28 78  1  0  0  0  0
 29 31  2  0  0  0  0
 29 76  1  0  0  0  0
 30 79  1  0  0  0  0
 31 80  1  0  0  0  0
 32 61  2  0  0  0  0
 33 62  1  0  0  0  0
 33 65  1  0  0  0  0
 34 66  1  0  0  0  0
 34 71  2  0  0  0  0
 35 49  1  0  0  0  0
 35 68  1  0  0  0  0
 35 72  2  0  0  0  0
 36 58  1  0  0  0  0
 36 63  1  0  0  0  0
 36 73  2  0  0  0  0
 37 59  1  0  0  0  0
 37 69  1  0  0  0  0
 37 74  2  0  0  0  0
 38 64  1  0  0  0  0
 38 67  1  0  0  0  0
 38 75  2  0  0  0  0
 39 42  1  0  0  0  0
 40 49  1  0  0  0  0
 41 63  1  0  0  0  0
 42 44  1  0  0  0  0
 43 45  1  0  0  0  0
 43 46  1  0  0  0  0
 44 48  1  0  0  0  0
 45 50  1  0  0  0  0
 46 64  1  0  0  0  0
 47 50  1  0  0  0  0
 47 64  1  0  0  0  0
 48 68  1  0  0  0  0
 49 63  1  0  0  0  0
 50 62  1  0  0  0  0
 51 59  1  0  0  0  0
 52 60  1  0  0  0  0
 53 60  1  0  0  0  0
 54 60  1  0  0  0  0
 55 70  1  0  0  0  0
 56 57  1  0  0  0  0
 56 77  1  0  0  0  0
 57 78  1  0  0  0  0
 58 60  1  0  0  0  0
 58 69  1  0  0  0  0
 59 70  1  0  0  0  0
 61 62  1  0  0  0  0
M  CHG  1  70   1
M  ISO  4  38 100  57 101  67 100  78 101
M  END
> <Batch ID>
0001

> <Smiles>
CNC(C)C(=O)NC(C(=O)N1Cc2cc([101O:1][101CH2:1]COc3ccc([100NH:0][100C:0](=O)N4CCCC(n5nc(-c6ccc(Oc7ccc(F)cc7F)cc6)c(C(N)=O)c5N)C4)cc3)ccc2CC1C(=O)NC1CCCc2ccccc21)C(C)(C)C

> <Shape>
0.290

> <Color>
0.124

> <Negative vol penalty>
0.000

$$$$

  -OEChem-04052315163D

 73 80  0     1  0  0  0  0  0999 V2000
  -28.7807  -11.4027   19.8413 C   0  0  0  0  0  0  0  0  0  0  0  0
  -28.8747  -12.6791   19.2960 C   0  0  0  0  0  0  0  0  0  0  0  0
  -25.9114  -28.9143   20.8188 C   0  0  0  0  0  0  0  0  0  0  0  0
  -25.2447  -26.5922   20.8056 C   0  0  0  0  0  0  0  0  0  0  0  0
  -27.5741  -10.9659   20.3863 C   0  0  0  0  0  0  0  0  0  0  0  0
  -27.7616  -13.5191   19.2943 C   0  0  0  0  0  0  0  0  0  0  0  0
  -28.8908  -18.2435   20.7261 C   0  0  0  0  0  0  0  0  0  0  0  0
  -24.5811  -29.2972   20.6476 C   0  0  0  0  0  0  0  0  0  0  0  0
  -23.9144  -26.9751   20.6344 C   0  0  0  0  0  0  0  0  0  0  0  0
  -29.5037  -19.0657   19.7816 C   0  0  0  0  0  0  0  0  0  0  0  0
  -20.2991  -27.3512   20.5553 C   0  0  0  0  0  0  0  0  0  0  0  0
  -19.3346  -26.7145   21.3363 C   0  0  0  0  0  0  0  0  0  0  0  0
  -27.3782  -20.1087   19.3193 C   0  0  0  0  0  0  0  0  0  0  0  0
  -20.4277  -27.5133   23.3374 C   0  0  0  0  0  0  0  0  0  0  0  0
  -26.2432  -27.5618   20.8978 C   0  0  0  0  0  0  0  0  0  0  0  0
  -28.2943  -26.9641   22.2918 C   0  0  0  0  0  0  0  0  0  0  0  0
  -26.4483  -11.8044   20.4000 C   0  0  0  0  0  0  0  0  0  0  0  0
  -27.5128  -18.3403   20.9669 C   0  0  0  0  0  0  0  0  0  0  0  0
  -26.5384  -13.0925   19.8388 C   0  0  0  0  0  0  0  0  0  0  0  0
  -26.7507  -19.2883   20.2692 C   0  0  0  0  0  0  0  0  0  0  0  0
  -23.5826  -28.3276   20.5554 C   0  0  0  0  0  0  0  0  0  0  0  0
  -28.7469  -19.9965   19.0760 C   0  0  0  0  0  0  0  0  0  0  0  0
  -21.3280  -28.0688   21.1653 C   0  0  0  0  0  0  0  0  0  0  0  0
  -19.3988  -26.7956   22.7274 C   0  0  0  0  0  0  0  0  0  0  0  0
  -21.3923  -28.1499   22.5564 C   0  0  0  0  0  0  0  0  0  0  0  0
  -27.6173  -27.1656   21.0741 C   0  0  0  0  0  0  0  0  0  0  0  0
  -29.5659  -26.6003   21.9215 C   0  0  0  0  0  0  0  0  0  0  0  0
  -27.8165  -27.0941   23.6374 C   0  0  0  0  0  0  0  0  0  0  0  0
  -25.0394  -16.3661   20.6693 C   0  0  0  0  0  0  0  0  0  0  0  0
  -23.4301  -18.7916   22.1009 C   0  0  0  0  0  0  0  0  0  0  0  0
  -23.2352  -22.1273   22.7949 C   0  0  0  0  0  0  0  0  0  0  0  0
  -31.8053  -24.0606   16.9833 C   0  0  0  0  0  0  0  0  0  0  0  0
  -25.1525  -11.2708   20.9575 C   0  0  0  0  0  0  0  0  0  0  0  0
  -26.8716  -17.4645   22.0082 C   0  0  0  0  0  0  0  0  0  0  0  0
  -25.2716  -19.4460   20.5052 C   0  0  0  0  0  0  0  0  0  0  0  0
  -24.1234  -12.3586   21.2544 C   0  0  0  0  0  0  0  0  0  0  0  0
  -32.7528  -27.1859   18.4013 C   0  0  0  0  0  0  0  0  0  0  0  0
  -24.0228  -13.3319   20.0842 C   0  0  0  0  0  0  0  0  0  0  0  0
  -31.6052  -27.5169   19.3570 C   0  0  0  0  0  0  0  0  0  0  0  0
  -32.2517  -26.4924   17.1365 C   0  0  0  0  0  0  0  0  0  0  0  0
  -30.2768  -25.6255   18.3290 C   0  0  0  0  0  0  0  0  0  0  0  0
  -25.3600  -14.0420   19.8407 C   0  0  1  0  0  0  0  0  0  0  0  0
  -25.3693  -17.2948   21.8034 C   0  0  1  0  0  0  0  0  0  0  0  0
  -30.7390  -26.2758   19.6442 C   0  0  2  0  0  0  0  0  0  0  0  0
  -21.7856  -23.8170   23.9528 C   0  0  0  0  0  0  0  0  0  0  0  0
  -21.4554  -18.6861   19.7772 C   0  0  0  0  0  0  0  0  0  0  0  0
  -20.6243  -20.9432   20.4723 C   0  0  0  0  0  0  0  0  0  0  0  0
  -20.4056  -19.0030   22.0249 C   0  0  0  0  0  0  0  0  0  0  0  0
  -25.3980  -22.8660   24.6752 C   0  0  0  0  0  0  0  0  0  0  0  0
  -31.2354  -21.6456   16.9357 C   0  0  0  0  0  0  0  0  0  0  0  0
  -30.7465  -20.6355   17.9583 C   0  0  0  0  0  0  0  0  0  1  0  0
  -22.6870  -20.0136   21.6176 C   0  0  1  0  0  0  0  0  0  0  0  0
  -22.9697  -22.8728   24.0904 C   0  0  2  0  0  0  0  0  0  0  0  0
  -21.3206  -19.6574   20.9669 C   0  0  0  0  0  0  0  0  0  0  0  0
  -28.3944  -26.9480   20.0099 N   0  0  0  0  0  0  0  0  0  0  0  0
  -29.5730  -26.6061   20.5576 N   0  0  0  0  0  0  0  0  0  0  0  0
  -24.6895  -18.5623   21.5289 N   0  0  0  0  0  0  0  0  0  0  0  0
  -31.4385  -25.3228   17.4784 N   0  0  0  0  0  0  0  0  0  0  0  0
  -30.6675  -26.2792   22.6327 N   0  0  0  0  0  0  0  0  0  0  0  0
  -26.4833  -27.4765   23.8389 N   0  0  0  0  0  0  0  0  0  0  0  0
  -25.5584  -15.0937   20.8148 N   0  0  0  0  0  0  0  0  0  0  0  0
  -22.5873  -20.9105   22.7639 N   0  0  0  0  0  0  0  0  0  0  0  0
  -30.9843  -23.0048   17.3602 N   0  0  0  0  0  0  0  0  0  0  0  0
  -24.1650  -23.6719   24.4825 N   0  3  0  0  0  0  0  0  0  0  0  0
  -28.5547  -26.8935   24.6315 O   0  0  0  0  0  0  0  0  0  0  0  0
  -24.3627  -16.7733   19.7323 O   0  0  0  0  0  0  0  0  0  0  0  0
  -22.9152  -18.0710   22.9596 O   0  0  0  0  0  0  0  0  0  0  0  0
  -23.9432  -22.5808   21.8985 O   0  0  0  0  0  0  0  0  0  0  0  0
  -32.7944  -23.8864   16.2633 O   0  0  0  0  0  0  0  0  0  0  0  0
  -22.2844  -28.7009   20.3885 O   0  0  0  0  0  0  0  0  0  0  0  0
  -29.3424  -20.7999   18.1530 O   0  0  0  0  0  0  0  0  0  1  0  0
  -18.4716  -26.1855   23.4772 F   0  0  0  0  0  0  0  0  0  0  0  0
  -22.3777  -28.8388   23.1481 F   0  0  0  0  0  0  0  0  0  0  0  0
  1  2  1  0  0  0  0
  1  5  2  0  0  0  0
  2  6  2  0  0  0  0
  3  8  2  0  0  0  0
  3 15  1  0  0  0  0
  4  9  1  0  0  0  0
  4 15  2  0  0  0  0
  5 17  1  0  0  0  0
  6 19  1  0  0  0  0
  7 10  2  0  0  0  0
  7 18  1  0  0  0  0
  8 21  1  0  0  0  0
  9 21  2  0  0  0  0
 10 22  1  0  0  0  0
 11 12  2  0  0  0  0
 11 23  1  0  0  0  0
 12 24  1  0  0  0  0
 13 20  1  0  0  0  0
 13 22  2  0  0  0  0
 14 24  2  0  0  0  0
 14 25  1  0  0  0  0
 15 26  1  0  0  0  0
 16 26  1  0  0  0  0
 16 27  2  0  0  0  0
 16 28  1  0  0  0  0
 17 19  2  0  0  0  0
 17 33  1  0  0  0  0
 18 20  2  0  0  0  0
 18 34  1  0  0  0  0
 19 42  1  0  0  0  0
 20 35  1  0  0  0  0
 21 70  1  0  0  0  0
 22 71  1  0  0  0  0
 23 25  2  0  0  0  0
 23 70  1  0  0  0  0
 24 72  1  0  0  0  0
 25 73  1  0  0  0  0
 26 55  2  0  0  0  0
 27 56  1  0  0  0  0
 27 59  1  0  0  0  0
 28 60  1  0  0  0  0
 28 65  2  0  0  0  0
 29 43  1  0  0  0  0
 29 61  1  0  0  0  0
 29 66  2  0  0  0  0
 30 52  1  0  0  0  0
 30 57  1  0  0  0  0
 30 67  2  0  0  0  0
 31 53  1  0  0  0  0
 31 62  1  0  0  0  0
 31 68  2  0  0  0  0
 32 58  1  0  0  0  0
 32 63  1  0  0  0  0
 32 69  2  0  0  0  0
 33 36  1  0  0  0  0
 34 43  1  0  0  0  0
 35 57  1  0  0  0  0
 36 38  1  0  0  0  0
 37 39  1  0  0  0  0
 37 40  1  0  0  0  0
 38 42  1  0  0  0  0
 39 44  1  0  0  0  0
 40 58  1  0  0  0  0
 41 44  1  0  0  0  0
 41 58  1  0  0  0  0
 42 61  1  0  0  0  0
 43 57  1  0  0  0  0
 44 56  1  0  0  0  0
 45 53  1  0  0  0  0
 46 54  1  0  0  0  0
 47 54  1  0  0  0  0
 48 54  1  0  0  0  0
 49 64  1  0  0  0  0
 50 51  1  0  0  0  0
 50 63  1  0  0  0  0
 51 71  1  0  0  0  0
 52 54  1  0  0  0  0
 52 62  1  0  0  0  0
 53 64  1  0  0  0  0
 55 56  1  0  0  0  0
M  CHG  1  64   1
M  ISO  4  32 100  51 101  63 100  71 101
M  END
> <Batch ID>
0001

> <Smiles>
CNC(C)C(=O)NC(C(=O)N1Cc2cc([101O:1][101CH2:1]C[100NH:0][100C:0](=O)N3CCCC(n4nc(-c5ccc(Oc6ccc(F)cc6F)cc5)c(C(N)=O)c4N)C3)ccc2CC1C(=O)NC1CCCc2ccccc21)C(C)(C)C

> <Shape>
0.226

> <Color>
0.066

> <Negative vol penalty>
0.000

$$$$

  -OEChem-04052315163D

 75 82  0     1  0  0  0  0  0999 V2000
  -21.6576  -26.0082   22.2550 C   0  0  0  0  0  0  0  0  0  0  0  0
  -22.5356  -24.9529   22.0299 C   0  0  0  0  0  0  0  0  0  0  0  0
  -23.8221  -10.0103   22.1423 C   0  0  0  0  0  0  0  0  0  0  0  0
  -24.3934  -11.4271   24.0141 C   0  0  0  0  0  0  0  0  0  0  0  0
  -22.0394  -27.3110   21.9374 C   0  0  0  0  0  0  0  0  0  0  0  0
  -23.7956  -25.1996   21.4859 C   0  0  0  0  0  0  0  0  0  0  0  0
  -27.4742  -22.6745   23.8810 C   0  0  0  0  0  0  0  0  0  0  0  0
  -23.3018   -9.0598   23.0206 C   0  0  0  0  0  0  0  0  0  0  0  0
  -23.8731  -10.4766   24.8924 C   0  0  0  0  0  0  0  0  0  0  0  0
  -27.6174  -21.3207   23.5801 C   0  0  0  0  0  0  0  0  0  0  0  0
  -24.8491   -7.5351   26.2437 C   0  0  0  0  0  0  0  0  0  0  0  0
  -25.5983   -7.2219   27.3778 C   0  0  0  0  0  0  0  0  0  0  0  0
  -29.4494  -21.8491   22.1024 C   0  0  0  0  0  0  0  0  0  0  0  0
  -23.7739   -7.9504   28.7842 C   0  0  0  0  0  0  0  0  0  0  0  0
  -24.3679  -11.1940   22.6391 C   0  0  0  0  0  0  0  0  0  0  0  0
  -24.2169  -13.2470   21.1323 C   0  0  0  0  0  0  0  0  0  0  0  0
  -23.3083  -27.5750   21.3982 C   0  0  0  0  0  0  0  0  0  0  0  0
  -28.3119  -23.6285   23.2855 C   0  0  0  0  0  0  0  0  0  0  0  0
  -24.1942  -26.5070   21.1594 C   0  0  0  0  0  0  0  0  0  0  0  0
  -29.3165  -23.2141   22.3994 C   0  0  0  0  0  0  0  0  0  0  0  0
  -23.3273   -9.2929   24.3956 C   0  0  0  0  0  0  0  0  0  0  0  0
  -28.6032  -20.9081   22.6885 C   0  0  0  0  0  0  0  0  0  0  0  0
  -23.5623   -8.0560   26.3798 C   0  0  0  0  0  0  0  0  0  0  0  0
  -25.0607   -7.4295   28.6481 C   0  0  0  0  0  0  0  0  0  0  0  0
  -23.0247   -8.2636   27.6500 C   0  0  0  0  0  0  0  0  0  0  0  0
  -24.9060  -12.1760   21.7323 C   0  0  0  0  0  0  0  0  0  0  0  0
  -25.1651  -13.8790   20.3656 C   0  0  0  0  0  0  0  0  0  0  0  0
  -22.8425  -13.6357   21.2570 C   0  0  0  0  0  0  0  0  0  0  0  0
  -27.8632  -26.1195   21.3628 C   0  0  0  0  0  0  0  0  0  0  0  0
  -31.0302  -26.5937   21.8798 C   0  0  0  0  0  0  0  0  0  0  0  0
  -34.0557  -25.2690   22.7393 C   0  0  0  0  0  0  0  0  0  0  0  0
  -31.1355  -14.1863   20.6987 C   0  0  0  0  0  0  0  0  0  0  0  0
  -23.6583  -28.9942   21.0268 C   0  0  0  0  0  0  0  0  0  0  0  0
  -28.1620  -25.0822   23.6411 C   0  0  0  0  0  0  0  0  0  0  0  0
  -30.2547  -24.1964   21.7488 C   0  0  0  0  0  0  0  0  0  0  0  0
  -25.1521  -29.2144   20.8024 C   0  0  0  0  0  0  0  0  0  0  0  0
  -29.2021  -13.0226   17.9448 C   0  0  0  0  0  0  0  0  0  0  0  0
  -25.7287  -28.1085   19.9240 C   0  0  0  0  0  0  0  0  0  0  0  0
  -27.8196  -12.7703   18.5491 C   0  0  0  0  0  0  0  0  0  0  0  0
  -30.3192  -12.6648   18.9225 C   0  0  0  0  0  0  0  0  0  0  0  0
  -28.8331  -13.0581   20.8488 C   0  0  0  0  0  0  0  0  0  0  0  0
  -25.5789  -26.7373   20.5939 C   0  0  1  0  0  0  0  0  0  0  0  0
  -28.7355  -26.0186   22.5820 C   0  0  1  0  0  0  0  0  0  0  0  0
  -27.6733  -13.4569   19.9203 C   0  0  2  0  0  0  0  0  0  0  0  0
  -36.4673  -25.8955   23.0376 C   0  0  0  0  0  0  0  0  0  0  0  0
  -31.3900  -26.6419   18.8502 C   0  0  0  0  0  0  0  0  0  0  0  0
  -33.8462  -26.3127   19.2065 C   0  0  0  0  0  0  0  0  0  0  0  0
  -32.7232  -28.3590   20.0866 C   0  0  0  0  0  0  0  0  0  0  0  0
  -34.0184  -24.5131   25.6005 C   0  0  0  0  0  0  0  0  0  0  0  0
  -31.6127  -17.1488   22.1275 C   0  0  0  0  0  0  0  0  0  0  0  0
  -30.2124  -17.6705   22.4514 C   0  0  0  0  0  0  0  0  0  0  0  0
  -31.8074  -15.6961   22.5503 C   0  0  0  0  0  0  0  0  0  0  0  0
  -30.0554  -19.1337   22.0572 C   0  0  0  0  0  0  0  0  0  1  0  0
  -32.3032  -26.1339   21.2112 C   0  0  1  0  0  0  0  0  0  0  0  0
  -35.1174  -25.7346   23.7193 C   0  0  2  0  0  0  0  0  0  0  0  0
  -32.5469  -26.8433   19.8492 C   0  0  0  0  0  0  0  0  0  0  0  0
  -26.1927  -12.1272   21.3772 N   0  0  0  0  0  0  0  0  0  0  0  0
  -26.3196  -13.1754   20.5457 N   0  0  0  0  0  0  0  0  0  0  0  0
  -30.0641  -25.6073   22.1236 N   0  0  0  0  0  0  0  0  0  0  0  0
  -30.1222  -13.3497   20.2023 N   0  0  0  0  0  0  0  0  0  0  0  0
  -25.1157  -14.9623   19.5616 N   0  0  0  0  0  0  0  0  0  0  0  0
  -22.0059  -12.8763   22.0863 N   0  0  0  0  0  0  0  0  0  0  0  0
  -26.5815  -26.5654   21.6233 N   0  0  0  0  0  0  0  0  0  0  0  0
  -33.3704  -26.3301   22.1864 N   0  0  0  0  0  0  0  0  0  0  0  0
  -30.8653  -14.8020   21.9147 N   0  0  0  0  0  0  0  0  0  0  0  0
  -35.2654  -24.7508   24.8288 N   0  3  0  0  0  0  0  0  0  0  0  0
  -22.3663  -14.6175   20.6382 O   0  0  0  0  0  0  0  0  0  0  0  0
  -28.3196  -25.8167   20.2665 O   0  0  0  0  0  0  0  0  0  0  0  0
  -30.9009  -27.7828   22.1813 O   0  0  0  0  0  0  0  0  0  0  0  0
  -33.8568  -24.0828   22.4866 O   0  0  0  0  0  0  0  0  0  0  0  0
  -32.1998  -14.3751   20.0998 O   0  0  0  0  0  0  0  0  0  0  0  0
  -22.8195   -8.3657   25.2529 O   0  0  0  0  0  0  0  0  0  0  0  0
  -28.7447  -19.5874   22.3925 O   0  0  0  0  0  0  0  0  0  1  0  0
  -25.7797   -7.1273   29.7370 F   0  0  0  0  0  0  0  0  0  0  0  0
  -21.7886   -8.7626   27.7871 F   0  0  0  0  0  0  0  0  0  0  0  0
  1  2  1  0  0  0  0
  1  5  2  0  0  0  0
  2  6  2  0  0  0  0
  3  8  2  0  0  0  0
  3 15  1  0  0  0  0
  4  9  1  0  0  0  0
  4 15  2  0  0  0  0
  5 17  1  0  0  0  0
  6 19  1  0  0  0  0
  7 10  2  0  0  0  0
  7 18  1  0  0  0  0
  8 21  1  0  0  0  0
  9 21  2  0  0  0  0
 10 22  1  0  0  0  0
 11 12  2  0  0  0  0
 11 23  1  0  0  0  0
 12 24  1  0  0  0  0
 13 20  1  0  0  0  0
 13 22  2  0  0  0  0
 14 24  2  0  0  0  0
 14 25  1  0  0  0  0
 15 26  1  0  0  0  0
 16 26  1  0  0  0  0
 16 27  2  0  0  0  0
 16 28  1  0  0  0  0
 17 19  2  0  0  0  0
 17 33  1  0  0  0  0
 18 20  2  0  0  0  0
 18 34  1  0  0  0  0
 19 42  1  0  0  0  0
 20 35  1  0  0  0  0
 21 72  1  0  0  0  0
 22 73  1  0  0  0  0
 23 25  2  0  0  0  0
 23 72  1  0  0  0  0
 24 74  1  0  0  0  0
 25 75  1  0  0  0  0
 26 57  2  0  0  0  0
 27 58  1  0  0  0  0
 27 61  1  0  0  0  0
 28 62  1  0  0  0  0
 28 67  2  0  0  0  0
 29 43  1  0  0  0  0
 29 63  1  0  0  0  0
 29 68  2  0  0  0  0
 30 54  1  0  0  0  0
 30 59  1  0  0  0  0
 30 69  2  0  0  0  0
 31 55  1  0  0  0  0
 31 64  1  0  0  0  0
 31 70  2  0  0  0  0
 32 60  1  0  0  0  0
 32 65  1  0  0  0  0
 32 71  2  0  0  0  0
 33 36  1  0  0  0  0
 34 43  1  0  0  0  0
 35 59  1  0  0  0  0
 36 38  1  0  0  0  0
 37 39  1  0  0  0  0
 37 40  1  0  0  0  0
 38 42  1  0  0  0  0
 39 44  1  0  0  0  0
 40 60  1  0  0  0  0
 41 44  1  0  0  0  0
 41 60  1  0  0  0  0
 42 63  1  0  0  0  0
 43 59  1  0  0  0  0
 44 58  1  0  0  0  0
 45 55  1  0  0  0  0
 46 56  1  0  0  0  0
 47 56  1  0  0  0  0
 48 56  1  0  0  0  0
 49 66  1  0  0  0  0
 50 51  1  0  0  0  0
 50 52  1  0  0  0  0
 51 53  1  0  0  0  0
 52 65  1  0  0  0  0
 53 73  1  0  0  0  0
 54 56  1  0  0  0  0
 54 64  1  0  0  0  0
 55 66  1  0  0  0  0
 57 58  1  0  0  0  0
M  CHG  1  66   1
M  ISO  4  32 100  53 101  65 100  73 101
M  END
> <Batch ID>
0001

> <Smiles>
CNC(C)C(=O)NC(C(=O)N1Cc2cc([101O:1][101CH2:1]CCC[100NH:0][100C:0](=O)N3CCCC(n4nc(-c5ccc(Oc6ccc(F)cc6F)cc5)c(C(N)=O)c4N)C3)ccc2CC1C(=O)NC1CCCc2ccccc21)C(C)(C)C

> <Shape>
0.193

> <Color>
0.131

> <Negative vol penalty>
0.000

$$$$

  -OEChem-04052315163D

 79 86  0     1  0  0  0  0  0999 V2000
  -19.7800  -21.3387   23.7449 C   0  0  0  0  0  0  0  0  0  0  0  0
  -21.1207  -20.9894   23.6183 C   0  0  0  0  0  0  0  0  0  0  0  0
  -26.6605  -13.2896   20.9982 C   0  0  0  0  0  0  0  0  0  0  0  0
  -26.9277  -13.2306   18.5978 C   0  0  0  0  0  0  0  0  0  0  0  0
  -19.2786  -22.4381   23.0493 C   0  0  0  0  0  0  0  0  0  0  0  0
  -21.9605  -21.7388   22.7952 C   0  0  0  0  0  0  0  0  0  0  0  0
  -28.7601  -23.9314   22.2714 C   0  0  0  0  0  0  0  0  0  0  0  0
  -26.1872  -11.9777   20.9778 C   0  0  0  0  0  0  0  0  0  0  0  0
  -26.4544  -11.9186   18.5774 C   0  0  0  0  0  0  0  0  0  0  0  0
  -29.8215  -23.9429   21.3675 C   0  0  0  0  0  0  0  0  0  0  0  0
  -23.2980  -10.3837   20.2460 C   0  0  0  0  0  0  0  0  0  0  0  0
  -22.1650  -10.0924   21.0057 C   0  0  0  0  0  0  0  0  0  0  0  0
  -28.8632  -25.8689   20.2760 C   0  0  0  0  0  0  0  0  0  0  0  0
  -23.4330   -8.4759   22.2770 C   0  0  0  0  0  0  0  0  0  0  0  0
  -27.0307  -13.9161   19.8082 C   0  0  0  0  0  0  0  0  0  0  0  0
  -28.8557  -15.6915   19.9667 C   0  0  0  0  0  0  0  0  0  0  0  0
  -20.1149  -23.2071   22.2248 C   0  0  0  0  0  0  0  0  0  0  0  0
  -27.7349  -24.8836   22.1776 C   0  0  0  0  0  0  0  0  0  0  0  0
  -21.4695  -22.8487   22.0869 C   0  0  0  0  0  0  0  0  0  0  0  0
  -27.7913  -25.8690   21.1816 C   0  0  0  0  0  0  0  0  0  0  0  0
  -26.0842  -11.2922   19.7675 C   0  0  0  0  0  0  0  0  0  0  0  0
  -29.8717  -24.9100   20.3678 C   0  0  0  0  0  0  0  0  0  0  0  0
  -24.4985   -9.7210   20.5018 C   0  0  0  0  0  0  0  0  0  0  0  0
  -22.2325   -9.1385   22.0212 C   0  0  0  0  0  0  0  0  0  0  0  0
  -24.5660   -8.7671   21.5173 C   0  0  0  0  0  0  0  0  0  0  0  0
  -27.5192  -15.2715   19.8285 C   0  0  0  0  0  0  0  0  0  0  0  0
  -28.7908  -17.0628   19.9249 C   0  0  0  0  0  0  0  0  0  0  0  0
  -30.0492  -14.9117   20.1192 C   0  0  0  0  0  0  0  0  0  0  0  0
  -24.6014  -24.7621   21.6584 C   0  0  0  0  0  0  0  0  0  0  0  0
  -24.7694  -27.9420   22.2768 C   0  0  0  0  0  0  0  0  0  0  0  0
  -32.1785  -24.4738   16.8643 C   0  0  0  0  0  0  0  0  0  0  0  0
  -26.6599  -30.7821   22.3557 C   0  0  0  0  0  0  0  0  0  0  0  0
  -26.7855  -21.6956   17.5171 C   0  0  0  0  0  0  0  0  0  0  0  0
  -19.5167  -24.3584   21.4558 C   0  0  0  0  0  0  0  0  0  0  0  0
  -26.6108  -24.8739   23.1768 C   0  0  0  0  0  0  0  0  0  0  0  0
  -26.7262  -26.9258   21.0505 C   0  0  0  0  0  0  0  0  0  0  0  0
  -20.5583  -25.3243   20.8970 C   0  0  0  0  0  0  0  0  0  0  0  0
  -24.8335  -20.1919   20.1493 C   0  0  0  0  0  0  0  0  0  0  0  0
  -21.6902  -24.5567   20.2214 C   0  0  0  0  0  0  0  0  0  0  0  0
  -25.4446  -18.7974   20.2815 C   0  0  0  0  0  0  0  0  0  0  0  0
  -24.8583  -20.6782   18.7038 C   0  0  0  0  0  0  0  0  0  0  0  0
  -26.8384  -19.2645   18.2167 C   0  0  0  0  0  0  0  0  0  0  0  0
  -22.4177  -23.6517   21.2230 C   0  0  1  0  0  0  0  0  0  0  0  0
  -25.3553  -25.5774   22.6706 C   0  0  1  0  0  0  0  0  0  0  0  0
  -26.8550  -18.7521   19.6672 C   0  0  2  0  0  0  0  0  0  0  0  0
  -26.5105  -33.2344   22.8670 C   0  0  0  0  0  0  0  0  0  0  0  0
  -23.3461  -28.4070   19.6183 C   0  0  0  0  0  0  0  0  0  0  0  0
  -24.0666  -30.8021   19.7312 C   0  0  0  0  0  0  0  0  0  0  0  0
  -22.5638  -29.8693   21.4902 C   0  0  0  0  0  0  0  0  0  0  0  0
  -28.6595  -30.5695   24.5271 C   0  0  0  0  0  0  0  0  0  0  0  0
  -32.1265  -25.8010   17.6048 C   0  0  0  0  0  0  0  0  0  0  0  0
  -30.0867  -22.0557   15.9365 C   0  0  0  0  0  0  0  0  0  0  0  0
  -30.8730  -23.1405   15.2128 C   0  0  0  0  0  0  0  0  0  0  0  0
  -30.8942  -25.9422   18.4850 C   0  0  0  0  0  0  0  0  0  1  0  0
  -28.7106  -22.5253   16.3928 C   0  0  0  0  0  0  0  0  0  0  0  0
  -24.9964  -29.1820   21.4464 C   0  0  1  0  0  0  0  0  0  0  0  0
  -26.8254  -31.8528   23.4190 C   0  0  2  0  0  0  0  0  0  0  0  0
  -23.7624  -29.5442   20.5725 C   0  0  0  0  0  0  0  0  0  0  0  0
  -26.6674  -16.2933   19.7080 N   0  0  0  0  0  0  0  0  0  0  0  0
  -27.4707  -17.3689   19.7705 N   0  0  0  0  0  0  0  0  0  0  0  0
  -25.6443  -26.8706   22.0475 N   0  0  0  0  0  0  0  0  0  0  0  0
  -26.2035  -20.5859   18.1377 N   0  0  0  0  0  0  0  0  0  0  0  0
  -29.7346  -18.0246   20.0056 N   0  0  0  0  0  0  0  0  0  0  0  0
  -29.9364  -13.5149   20.1418 N   0  0  0  0  0  0  0  0  0  0  0  0
  -23.3174  -24.4303   22.0468 N   0  0  0  0  0  0  0  0  0  0  0  0
  -31.0785  -24.3116   16.0344 N   0  0  0  0  0  0  0  0  0  0  0  0
  -25.3966  -30.2302   22.3789 N   0  0  0  0  0  0  0  0  0  0  0  0
  -28.2240  -31.8599   23.9337 N   0  3  0  0  0  0  0  0  0  0  0  0
  -31.1803  -15.4385   20.2486 O   0  0  0  0  0  0  0  0  0  0  0  0
  -25.1438  -24.4578   20.6025 O   0  0  0  0  0  0  0  0  0  0  0  0
  -23.8542  -27.9271   23.1037 O   0  0  0  0  0  0  0  0  0  0  0  0
  -33.0901  -23.6623   16.9996 O   0  0  0  0  0  0  0  0  0  0  0  0
  -27.5601  -30.4695   21.5795 O   0  0  0  0  0  0  0  0  0  0  0  0
  -26.2384  -22.7909   17.4015 O   0  0  0  0  0  0  0  0  0  0  0  0
  -25.6226  -10.0119   19.7472 O   0  0  0  0  0  0  0  0  0  0  0  0
  -30.9062  -24.9230   19.4838 O   0  0  0  0  0  0  0  0  0  1  0  0
  -28.0445  -21.4370   17.0437 O   0  0  0  0  0  0  0  0  0  0  0  0
  -21.1448   -8.8600   22.7516 F   0  0  0  0  0  0  0  0  0  0  0  0
  -25.7168   -8.1281   21.7684 F   0  0  0  0  0  0  0  0  0  0  0  0
  1  2  1  0  0  0  0
  1  5  2  0  0  0  0
  2  6  2  0  0  0  0
  3  8  2  0  0  0  0
  3 15  1  0  0  0  0
  4  9  1  0  0  0  0
  4 15  2  0  0  0  0
  5 17  1  0  0  0  0
  6 19  1  0  0  0  0
  7 10  2  0  0  0  0
  7 18  1  0  0  0  0
  8 21  1  0  0  0  0
  9 21  2  0  0  0  0
 10 22  1  0  0  0  0
 11 12  2  0  0  0  0
 11 23  1  0  0  0  0
 12 24  1  0  0  0  0
 13 20  1  0  0  0  0
 13 22  2  0  0  0  0
 14 24  2  0  0  0  0
 14 25  1  0  0  0  0
 15 26  1  0  0  0  0
 16 26  1  0  0  0  0
 16 27  2  0  0  0  0
 16 28  1  0  0  0  0
 17 19  2  0  0  0  0
 17 34  1  0  0  0  0
 18 20  2  0  0  0  0
 18 35  1  0  0  0  0
 19 43  1  0  0  0  0
 20 36  1  0  0  0  0
 21 75  1  0  0  0  0
 22 76  1  0  0  0  0
 23 25  2  0  0  0  0
 23 75  1  0  0  0  0
 24 78  1  0  0  0  0
 25 79  1  0  0  0  0
 26 59  2  0  0  0  0
 27 60  1  0  0  0  0
 27 63  1  0  0  0  0
 28 64  1  0  0  0  0
 28 69  2  0  0  0  0
 29 44  1  0  0  0  0
 29 65  1  0  0  0  0
 29 70  2  0  0  0  0
 30 56  1  0  0  0  0
 30 61  1  0  0  0  0
 30 71  2  0  0  0  0
 31 51  1  0  0  0  0
 31 66  1  0  0  0  0
 31 72  2  0  0  0  0
 32 57  1  0  0  0  0
 32 67  1  0  0  0  0
 32 73  2  0  0  0  0
 33 62  1  0  0  0  0
 33 74  2  0  0  0  0
 33 77  1  0  0  0  0
 34 37  1  0  0  0  0
 35 44  1  0  0  0  0
 36 61  1  0  0  0  0
 37 39  1  0  0  0  0
 38 40  1  0  0  0  0
 38 41  1  0  0  0  0
 39 43  1  0  0  0  0
 40 45  1  0  0  0  0
 41 62  1  0  0  0  0
 42 45  1  0  0  0  0
 42 62  1  0  0  0  0
 43 65  1  0  0  0  0
 44 61  1  0  0  0  0
 45 60  1  0  0  0  0
 46 57  1  0  0  0  0
 47 58  1  0  0  0  0
 48 58  1  0  0  0  0
 49 58  1  0  0  0  0
 50 68  1  0  0  0  0
 51 54  1  0  0  0  0
 52 53  1  0  0  0  0
 52 55  1  0  0  0  0
 53 66  1  0  0  0  0
 54 76  1  0  0  0  0
 55 77  1  0  0  0  0
 56 58  1  0  0  0  0
 56 67  1  0  0  0  0
 57 68  1  0  0  0  0
 59 60  1  0  0  0  0
M  CHG  1  68   1
M  ISO  4  33 100  54 101  76 101  77 100
M  END
> <Batch ID>
0001

> <Smiles>
CNC(C)C(=O)NC(C(=O)N1Cc2cc([101O:1][101CH2:1]CC(=O)NCCC[100O:0][100C:0](=O)N3CCCC(n4nc(-c5ccc(Oc6ccc(F)cc6F)cc5)c(C(N)=O)c4N)C3)ccc2CC1C(=O)NC1CCCc2ccccc21)C(C)(C)C

> <Shape>
0.207

> <Color>
0.064

> <Negative vol penalty>
0.000

$$$$

  -OEChem-04052315163D

 76 83  0     1  0  0  0  0  0999 V2000
  -23.6992   -8.5157   21.8889 C   0  0  0  0  0  0  0  0  0  0  0  0
  -24.8792   -9.1930   21.5987 C   0  0  0  0  0  0  0  0  0  0  0  0
  -26.2545  -27.9989   21.3502 C   0  0  0  0  0  0  0  0  0  0  0  0
  -25.9997  -28.1355   18.9515 C   0  0  0  0  0  0  0  0  0  0  0  0
  -22.4695   -9.1374   21.6762 C   0  0  0  0  0  0  0  0  0  0  0  0
  -24.8301  -10.4921   21.0945 C   0  0  0  0  0  0  0  0  0  0  0  0
  -28.7890  -15.0282   22.2155 C   0  0  0  0  0  0  0  0  0  0  0  0
  -25.4349  -29.1174   21.5010 C   0  0  0  0  0  0  0  0  0  0  0  0
  -25.1800  -29.2540   19.1023 C   0  0  0  0  0  0  0  0  0  0  0  0
  -29.8731  -15.5267   21.4943 C   0  0  0  0  0  0  0  0  0  0  0  0
  -25.7223  -32.4727   21.2118 C   0  0  0  0  0  0  0  0  0  0  0  0
  -26.1354  -33.4625   22.1035 C   0  0  0  0  0  0  0  0  0  0  0  0
  -28.4555  -17.2397   20.5588 C   0  0  0  0  0  0  0  0  0  0  0  0
  -24.1159  -33.1453   23.3912 C   0  0  0  0  0  0  0  0  0  0  0  0
  -26.5370  -27.5080   20.0754 C   0  0  0  0  0  0  0  0  0  0  0  0
  -26.9840  -25.0037   19.8844 C   0  0  0  0  0  0  0  0  0  0  0  0
  -22.4056  -10.4483   21.1782 C   0  0  0  0  0  0  0  0  0  0  0  0
  -27.5254  -15.6261   22.1051 C   0  0  0  0  0  0  0  0  0  0  0  0
  -23.5984  -11.1315   20.8736 C   0  0  0  0  0  0  0  0  0  0  0  0
  -27.3576  -16.7485   21.2815 C   0  0  0  0  0  0  0  0  0  0  0  0
  -24.8976  -29.7449   20.3771 C   0  0  0  0  0  0  0  0  0  0  0  0
  -29.7058  -16.6308   20.6636 C   0  0  0  0  0  0  0  0  0  0  0  0
  -24.5059  -31.8192   21.4097 C   0  0  0  0  0  0  0  0  0  0  0  0
  -25.3323  -33.7988   23.1932 C   0  0  0  0  0  0  0  0  0  0  0  0
  -23.7028  -32.1555   22.4994 C   0  0  0  0  0  0  0  0  0  0  0  0
  -27.3841  -26.3530   19.9189 C   0  0  0  0  0  0  0  0  0  0  0  0
  -28.1536  -24.3029   19.7194 C   0  0  0  0  0  0  0  0  0  0  0  0
  -25.6723  -24.4348   19.9918 C   0  0  0  0  0  0  0  0  0  0  0  0
  -24.6670  -14.6611   21.1042 C   0  0  0  0  0  0  0  0  0  0  0  0
  -23.7352  -17.5715   22.1921 C   0  0  0  0  0  0  0  0  0  0  0  0
  -24.5873  -20.7845   22.9650 C   0  0  0  0  0  0  0  0  0  0  0  0
  -33.1018  -23.6086   17.2337 C   0  0  0  0  0  0  0  0  0  0  0  0
  -21.0521  -11.0616   20.9201 C   0  0  0  0  0  0  0  0  0  0  0  0
  -26.3722  -15.0928   22.9102 C   0  0  0  0  0  0  0  0  0  0  0  0
  -26.0262  -17.4391   21.1438 C   0  0  0  0  0  0  0  0  0  0  0  0
  -21.0948  -12.5764   20.7362 C   0  0  0  0  0  0  0  0  0  0  0  0
  -32.9702  -25.8176   20.0229 C   0  0  0  0  0  0  0  0  0  0  0  0
  -22.2224  -12.9672   19.7862 C   0  0  0  0  0  0  0  0  0  0  0  0
  -31.4731  -26.0472   20.2374 C   0  0  0  0  0  0  0  0  0  0  0  0
  -33.3168  -25.7023   18.5401 C   0  0  0  0  0  0  0  0  0  0  0  0
  -31.0384  -24.9247   18.0125 C   0  0  0  0  0  0  0  0  0  0  0  0
  -23.5869  -12.5508   20.3486 C   0  0  1  0  0  0  0  0  0  0  0  0
  -25.0129  -15.4646   22.3258 C   0  0  1  0  0  0  0  0  0  0  0  0
  -30.6319  -24.9917   19.4946 C   0  0  2  0  0  0  0  0  0  0  0  0
  -23.6027  -22.9382   23.7953 C   0  0  0  0  0  0  0  0  0  0  0  0
  -22.5070  -18.0669   19.4432 C   0  0  0  0  0  0  0  0  0  0  0  0
  -22.3988  -20.5036   20.0078 C   0  0  0  0  0  0  0  0  0  0  0  0
  -21.1133  -18.8523   21.3654 C   0  0  0  0  0  0  0  0  0  0  0  0
  -26.3240  -20.7893   25.3615 C   0  0  0  0  0  0  0  0  0  0  0  0
  -31.5932  -19.8735   17.5173 C   0  0  0  0  0  0  0  0  0  0  0  0
  -32.9044  -20.3146   16.8603 C   0  0  0  0  0  0  0  0  0  0  0  0
  -31.8105  -18.6727   18.4361 C   0  0  0  0  0  0  0  0  0  0  0  0
  -32.7247  -21.5213   15.9452 C   0  0  0  0  0  0  0  0  0  0  0  0
  -30.5194  -18.2527   19.1263 C   0  0  0  0  0  0  0  0  0  1  0  0
  -23.6292  -18.9531   21.5930 C   0  0  1  0  0  0  0  0  0  0  0  0
  -24.2918  -21.6395   24.1841 C   0  0  2  0  0  0  0  0  0  0  0  0
  -22.4369  -19.0800   20.6032 C   0  0  0  0  0  0  0  0  0  0  0  0
  -28.7047  -26.5027   19.7867 N   0  0  0  0  0  0  0  0  0  0  0  0
  -29.1446  -25.2385   19.6675 N   0  0  0  0  0  0  0  0  0  0  0  0
  -24.9278  -16.8764   21.9465 N   0  0  0  0  0  0  0  0  0  0  0  0
  -32.4851  -24.6836   17.8948 N   0  0  0  0  0  0  0  0  0  0  0  0
  -28.4207  -22.9837   19.6151 N   0  0  0  0  0  0  0  0  0  0  0  0
  -24.5810  -25.2984   20.1577 N   0  0  0  0  0  0  0  0  0  0  0  0
  -24.0128  -13.4750   21.3776 N   0  0  0  0  0  0  0  0  0  0  0  0
  -23.5747  -19.8821   22.7165 N   0  0  0  0  0  0  0  0  0  0  0  0
  -32.2406  -22.6846   16.6546 N   0  0  0  0  0  0  0  0  0  0  0  0
  -25.5549  -21.9739   24.9007 N   0  3  0  0  0  0  0  0  0  0  0  0
  -25.4757  -23.1963   19.9587 O   0  0  0  0  0  0  0  0  0  0  0  0
  -24.9697  -15.0864   19.9955 O   0  0  0  0  0  0  0  0  0  0  0  0
  -22.7973  -17.1283   22.8596 O   0  0  0  0  0  0  0  0  0  0  0  0
  -25.6120  -20.9075   22.2977 O   0  0  0  0  0  0  0  0  0  0  0  0
  -34.3290  -23.4788   17.1693 O   0  0  0  0  0  0  0  0  0  0  0  0
  -24.0975  -30.8362   20.5239 O   0  0  0  0  0  0  0  0  0  0  0  0
  -30.7622  -17.1189   19.9581 O   0  0  0  0  0  0  0  0  0  1  0  0
  -25.7299  -34.7482   24.0503 F   0  0  0  0  0  0  0  0  0  0  0  0
  -22.5338  -31.5303   22.6954 F   0  0  0  0  0  0  0  0  0  0  0  0
  1  2  1  0  0  0  0
  1  5  2  0  0  0  0
  2  6  2  0  0  0  0
  3  8  2  0  0  0  0
  3 15  1  0  0  0  0
  4  9  1  0  0  0  0
  4 15  2  0  0  0  0
  5 17  1  0  0  0  0
  6 19  1  0  0  0  0
  7 10  2  0  0  0  0
  7 18  1  0  0  0  0
  8 21  1  0  0  0  0
  9 21  2  0  0  0  0
 10 22  1  0  0  0  0
 11 12  2  0  0  0  0
 11 23  1  0  0  0  0
 12 24  1  0  0  0  0
 13 20  1  0  0  0  0
 13 22  2  0  0  0  0
 14 24  2  0  0  0  0
 14 25  1  0  0  0  0
 15 26  1  0  0  0  0
 16 26  1  0  0  0  0
 16 27  2  0  0  0  0
 16 28  1  0  0  0  0
 17 19  2  0  0  0  0
 17 33  1  0  0  0  0
 18 20  2  0  0  0  0
 18 34  1  0  0  0  0
 19 42  1  0  0  0  0
 20 35  1  0  0  0  0
 21 73  1  0  0  0  0
 22 74  1  0  0  0  0
 23 25  2  0  0  0  0
 23 73  1  0  0  0  0
 24 75  1  0  0  0  0
 25 76  1  0  0  0  0
 26 58  2  0  0  0  0
 27 59  1  0  0  0  0
 27 62  1  0  0  0  0
 28 63  1  0  0  0  0
 28 68  2  0  0  0  0
 29 43  1  0  0  0  0
 29 64  1  0  0  0  0
 29 69  2  0  0  0  0
 30 55  1  0  0  0  0
 30 60  1  0  0  0  0
 30 70  2  0  0  0  0
 31 56  1  0  0  0  0
 31 65  1  0  0  0  0
 31 71  2  0  0  0  0
 32 61  1  0  0  0  0
 32 66  1  0  0  0  0
 32 72  2  0  0  0  0
 33 36  1  0  0  0  0
 34 43  1  0  0  0  0
 35 60  1  0  0  0  0
 36 38  1  0  0  0  0
 37 39  1  0  0  0  0
 37 40  1  0  0  0  0
 38 42  1  0  0  0  0
 39 44  1  0  0  0  0
 40 61  1  0  0  0  0
 41 44  1  0  0  0  0
 41 61  1  0  0  0  0
 42 64  1  0  0  0  0
 43 60  1  0  0  0  0
 44 59  1  0  0  0  0
 45 56  1  0  0  0  0
 46 57  1  0  0  0  0
 47 57  1  0  0  0  0
 48 57  1  0  0  0  0
 49 67  1  0  0  0  0
 50 51  1  0  0  0  0
 50 52  1  0  0  0  0
 51 53  1  0  0  0  0
 52 54  1  0  0  0  0
 53 66  1  0  0  0  0
 54 74  1  0  0  0  0
 55 57  1  0  0  0  0
 55 65  1  0  0  0  0
 56 67  1  0  0  0  0
 58 59  1  0  0  0  0
M  CHG  1  67   1
M  ISO  4  32 100  54 101  66 100  74 101
M  END
> <Batch ID>
0001

> <Smiles>
CNC(C)C(=O)NC(C(=O)N1Cc2cc([101O:1][101CH2:1]CCCC[100NH:0][100C:0](=O)N3CCCC(n4nc(-c5ccc(Oc6ccc(F)cc6F)cc5)c(C(N)=O)c4N)C3)ccc2CC1C(=O)NC1CCCc2ccccc21)C(C)(C)C

> <Shape>
0.204

> <Color>
0.079

> <Negative vol penalty>
0.000

$$$$

  -OEChem-04052315163D

 76 83  0     1  0  0  0  0  0999 V2000
  -23.6992   -8.5157   21.8889 C   0  0  0  0  0  0  0  0  0  0  0  0
  -24.8792   -9.1930   21.5987 C   0  0  0  0  0  0  0  0  0  0  0  0
  -26.2545  -27.9989   21.3502 C   0  0  0  0  0  0  0  0  0  0  0  0
  -25.9997  -28.1355   18.9515 C   0  0  0  0  0  0  0  0  0  0  0  0
  -22.4695   -9.1374   21.6762 C   0  0  0  0  0  0  0  0  0  0  0  0
  -24.8301  -10.4921   21.0945 C   0  0  0  0  0  0  0  0  0  0  0  0
  -28.7890  -15.0282   22.2155 C   0  0  0  0  0  0  0  0  0  0  0  0
  -25.4349  -29.1174   21.5010 C   0  0  0  0  0  0  0  0  0  0  0  0
  -25.1800  -29.2540   19.1023 C   0  0  0  0  0  0  0  0  0  0  0  0
  -29.8731  -15.5267   21.4943 C   0  0  0  0  0  0  0  0  0  0  0  0
  -25.7223  -32.4727   21.2118 C   0  0  0  0  0  0  0  0  0  0  0  0
  -26.1354  -33.4625   22.1035 C   0  0  0  0  0  0  0  0  0  0  0  0
  -28.4555  -17.2397   20.5588 C   0  0  0  0  0  0  0  0  0  0  0  0
  -24.1159  -33.1453   23.3912 C   0  0  0  0  0  0  0  0  0  0  0  0
  -26.5370  -27.5080   20.0754 C   0  0  0  0  0  0  0  0  0  0  0  0
  -26.9840  -25.0037   19.8844 C   0  0  0  0  0  0  0  0  0  0  0  0
  -22.4056  -10.4483   21.1782 C   0  0  0  0  0  0  0  0  0  0  0  0
  -27.5254  -15.6261   22.1051 C   0  0  0  0  0  0  0  0  0  0  0  0
  -23.5984  -11.1315   20.8736 C   0  0  0  0  0  0  0  0  0  0  0  0
  -27.3576  -16.7485   21.2815 C   0  0  0  0  0  0  0  0  0  0  0  0
  -24.8976  -29.7449   20.3771 C   0  0  0  0  0  0  0  0  0  0  0  0
  -29.7058  -16.6308   20.6636 C   0  0  0  0  0  0  0  0  0  0  0  0
  -24.5059  -31.8192   21.4097 C   0  0  0  0  0  0  0  0  0  0  0  0
  -25.3323  -33.7988   23.1932 C   0  0  0  0  0  0  0  0  0  0  0  0
  -23.7028  -32.1555   22.4994 C   0  0  0  0  0  0  0  0  0  0  0  0
  -27.3841  -26.3530   19.9189 C   0  0  0  0  0  0  0  0  0  0  0  0
  -28.1536  -24.3029   19.7194 C   0  0  0  0  0  0  0  0  0  0  0  0
  -25.6723  -24.4348   19.9918 C   0  0  0  0  0  0  0  0  0  0  0  0
  -24.6670  -14.6611   21.1042 C   0  0  0  0  0  0  0  0  0  0  0  0
  -23.7352  -17.5715   22.1921 C   0  0  0  0  0  0  0  0  0  0  0  0
  -24.5873  -20.7845   22.9650 C   0  0  0  0  0  0  0  0  0  0  0  0
  -33.1018  -23.6086   17.2337 C   0  0  0  0  0  0  0  0  0  0  0  0
  -21.0521  -11.0616   20.9201 C   0  0  0  0  0  0  0  0  0  0  0  0
  -26.3722  -15.0928   22.9102 C   0  0  0  0  0  0  0  0  0  0  0  0
  -26.0262  -17.4391   21.1438 C   0  0  0  0  0  0  0  0  0  0  0  0
  -21.0948  -12.5764   20.7362 C   0  0  0  0  0  0  0  0  0  0  0  0
  -32.9702  -25.8176   20.0229 C   0  0  0  0  0  0  0  0  0  0  0  0
  -22.2224  -12.9672   19.7862 C   0  0  0  0  0  0  0  0  0  0  0  0
  -31.4731  -26.0472   20.2374 C   0  0  0  0  0  0  0  0  0  0  0  0
  -33.3168  -25.7023   18.5401 C   0  0  0  0  0  0  0  0  0  0  0  0
  -31.0384  -24.9247   18.0125 C   0  0  0  0  0  0  0  0  0  0  0  0
  -23.5869  -12.5508   20.3486 C   0  0  1  0  0  0  0  0  0  0  0  0
  -25.0129  -15.4646   22.3258 C   0  0  1  0  0  0  0  0  0  0  0  0
  -30.6319  -24.9917   19.4946 C   0  0  2  0  0  0  0  0  0  0  0  0
  -23.6027  -22.9382   23.7953 C   0  0  0  0  0  0  0  0  0  0  0  0
  -22.5070  -18.0669   19.4432 C   0  0  0  0  0  0  0  0  0  0  0  0
  -22.3988  -20.5036   20.0078 C   0  0  0  0  0  0  0  0  0  0  0  0
  -21.1133  -18.8523   21.3654 C   0  0  0  0  0  0  0  0  0  0  0  0
  -26.3240  -20.7893   25.3615 C   0  0  0  0  0  0  0  0  0  0  0  0
  -31.5932  -19.8735   17.5173 C   0  0  0  0  0  0  0  0  0  0  0  0
  -32.9044  -20.3146   16.8603 C   0  0  0  0  0  0  0  0  0  0  0  0
  -31.8105  -18.6727   18.4361 C   0  0  0  0  0  0  0  0  0  0  0  0
  -32.7247  -21.5213   15.9452 C   0  0  0  0  0  0  0  0  0  0  0  0
  -30.5194  -18.2527   19.1263 C   0  0  0  0  0  0  0  0  0  1  0  0
  -23.6292  -18.9531   21.5930 C   0  0  1  0  0  0  0  0  0  0  0  0
  -24.2918  -21.6395   24.1841 C   0  0  2  0  0  0  0  0  0  0  0  0
  -22.4369  -19.0800   20.6032 C   0  0  0  0  0  0  0  0  0  0  0  0
  -28.7047  -26.5027   19.7867 N   0  0  0  0  0  0  0  0  0  0  0  0
  -29.1446  -25.2385   19.6675 N   0  0  0  0  0  0  0  0  0  0  0  0
  -24.9278  -16.8764   21.9465 N   0  0  0  0  0  0  0  0  0  0  0  0
  -32.4851  -24.6836   17.8948 N   0  0  0  0  0  0  0  0  0  0  0  0
  -28.4207  -22.9837   19.6151 N   0  0  0  0  0  0  0  0  0  0  0  0
  -24.5810  -25.2984   20.1577 N   0  0  0  0  0  0  0  0  0  0  0  0
  -24.0128  -13.4750   21.3776 N   0  0  0  0  0  0  0  0  0  0  0  0
  -23.5747  -19.8821   22.7165 N   0  0  0  0  0  0  0  0  0  0  0  0
  -32.2406  -22.6846   16.6546 N   0  0  0  0  0  0  0  0  0  0  0  0
  -25.5549  -21.9739   24.9007 N   0  3  0  0  0  0  0  0  0  0  0  0
  -25.4757  -23.1963   19.9587 O   0  0  0  0  0  0  0  0  0  0  0  0
  -24.9697  -15.0864   19.9955 O   0  0  0  0  0  0  0  0  0  0  0  0
  -22.7973  -17.1283   22.8596 O   0  0  0  0  0  0  0  0  0  0  0  0
  -25.6120  -20.9075   22.2977 O   0  0  0  0  0  0  0  0  0  0  0  0
  -34.3290  -23.4788   17.1693 O   0  0  0  0  0  0  0  0  0  0  0  0
  -24.0975  -30.8362   20.5239 O   0  0  0  0  0  0  0  0  0  0  0  0
  -30.7622  -17.1189   19.9581 O   0  0  0  0  0  0  0  0  0  1  0  0
  -25.7299  -34.7482   24.0503 F   0  0  0  0  0  0  0  0  0  0  0  0
  -22.5338  -31.5303   22.6954 F   0  0  0  0  0  0  0  0  0  0  0  0
  1  2  1  0  0  0  0
  1  5  2  0  0  0  0
  2  6  2  0  0  0  0
  3  8  2  0  0  0  0
  3 15  1  0  0  0  0
  4  9  1  0  0  0  0
  4 15  2  0  0  0  0
  5 17  1  0  0  0  0
  6 19  1  0  0  0  0
  7 10  2  0  0  0  0
  7 18  1  0  0  0  0
  8 21  1  0  0  0  0
  9 21  2  0  0  0  0
 10 22  1  0  0  0  0
 11 12  2  0  0  0  0
 11 23  1  0  0  0  0
 12 24  1  0  0  0  0
 13 20  1  0  0  0  0
 13 22  2  0  0  0  0
 14 24  2  0  0  0  0
 14 25  1  0  0  0  0
 15 26  1  0  0  0  0
 16 26  1  0  0  0  0
 16 27  2  0  0  0  0
 16 28  1  0  0  0  0
 17 19  2  0  0  0  0
 17 33  1  0  0  0  0
 18 20  2  0  0  0  0
 18 34  1  0  0  0  0
 19 42  1  0  0  0  0
 20 35  1  0  0  0  0
 21 73  1  0  0  0  0
 22 74  1  0  0  0  0
 23 25  2  0  0  0  0
 23 73  1  0  0  0  0
 24 75  1  0  0  0  0
 25 76  1  0  0  0  0
 26 58  2  0  0  0  0
 27 59  1  0  0  0  0
 27 62  1  0  0  0  0
 28 63  1  0  0  0  0
 28 68  2  0  0  0  0
 29 43  1  0  0  0  0
 29 64  1  0  0  0  0
 29 69  2  0  0  0  0
 30 55  1  0  0  0  0
 30 60  1  0  0  0  0
 30 70  2  0  0  0  0
 31 56  1  0  0  0  0
 31 65  1  0  0  0  0
 31 71  2  0  0  0  0
 32 61  1  0  0  0  0
 32 66  1  0  0  0  0
 32 72  2  0  0  0  0
 33 36  1  0  0  0  0
 34 43  1  0  0  0  0
 35 60  1  0  0  0  0
 36 38  1  0  0  0  0
 37 39  1  0  0  0  0
 37 40  1  0  0  0  0
 38 42  1  0  0  0  0
 39 44  1  0  0  0  0
 40 61  1  0  0  0  0
 41 44  1  0  0  0  0
 41 61  1  0  0  0  0
 42 64  1  0  0  0  0
 43 60  1  0  0  0  0
 44 59  1  0  0  0  0
 45 56  1  0  0  0  0
 46 57  1  0  0  0  0
 47 57  1  0  0  0  0
 48 57  1  0  0  0  0
 49 67  1  0  0  0  0
 50 51  1  0  0  0  0
 50 52  1  0  0  0  0
 51 53  1  0  0  0  0
 52 54  1  0  0  0  0
 53 66  1  0  0  0  0
 54 74  1  0  0  0  0
 55 57  1  0  0  0  0
 55 65  1  0  0  0  0
 56 67  1  0  0  0  0
 58 59  1  0  0  0  0
M  CHG  1  67   1
M  ISO  4  32 100  54 101  66 100  74 101
M  END
> <Batch ID>
0001

> <Smiles>
CNC(C)C(=O)NC(C(=O)N1Cc2cc([101O:1][101CH2:1]CCCC[100NH:0][100C:0](=O)N3CCCC(n4nc(-c5ccc(Oc6ccc(F)cc6F)cc5)c(C(N)=O)c4N)C3)ccc2CC1C(=O)NC1CCCc2ccccc21)C(C)(C)C

> <Shape>
0.204

> <Color>
0.079

> <Negative vol penalty>
0.000

$$$$

  -OEChem-04052315163D

 77 85  0     1  0  0  0  0  0999 V2000
  -17.5192  -25.8185   21.4338 C   0  0  0  0  0  0  0  0  0  0  0  0
  -18.7916  -25.7093   20.8820 C   0  0  0  0  0  0  0  0  0  0  0  0
  -26.6261  -12.5770   21.8119 C   0  0  0  0  0  0  0  0  0  0  0  0
  -25.8412  -14.0497   20.0649 C   0  0  0  0  0  0  0  0  0  0  0  0
  -17.0682  -27.0509   21.9045 C   0  0  0  0  0  0  0  0  0  0  0  0
  -19.6134  -26.8328   20.7996 C   0  0  0  0  0  0  0  0  0  0  0  0
  -24.3691  -25.8720   22.2504 C   0  0  0  0  0  0  0  0  0  0  0  0
  -28.1665  -21.8353   19.6877 C   0  0  0  0  0  0  0  0  0  0  0  0
  -28.7648  -22.8992   21.7725 C   0  0  0  0  0  0  0  0  0  0  0  0
  -25.3753  -11.9612   21.8549 C   0  0  0  0  0  0  0  0  0  0  0  0
  -24.5903  -13.4339   20.1079 C   0  0  0  0  0  0  0  0  0  0  0  0
  -25.1919  -25.2122   21.3387 C   0  0  0  0  0  0  0  0  0  0  0  0
  -27.5414  -23.0095   19.2679 C   0  0  0  0  0  0  0  0  0  0  0  0
  -28.1397  -24.0734   21.3528 C   0  0  0  0  0  0  0  0  0  0  0  0
  -23.6696   -9.6584   20.0604 C   0  0  0  0  0  0  0  0  0  0  0  0
  -23.6343   -8.2648   20.1070 C   0  0  0  0  0  0  0  0  0  0  0  0
  -26.1959  -27.3193   20.7291 C   0  0  0  0  0  0  0  0  0  0  0  0
  -22.4632   -8.3651   22.2179 C   0  0  0  0  0  0  0  0  0  0  0  0
  -26.8591  -13.6213   20.9170 C   0  0  0  0  0  0  0  0  0  0  0  0
  -29.2505  -13.8951   20.0721 C   0  0  0  0  0  0  0  0  0  0  0  0
  -17.8885  -28.1881   21.8366 C   0  0  0  0  0  0  0  0  0  0  0  0
  -24.4460  -27.2641   22.4008 C   0  0  0  0  0  0  0  0  0  0  0  0
  -19.1724  -28.0819   21.2686 C   0  0  0  0  0  0  0  0  0  0  0  0
  -25.3747  -27.9940   21.6453 C   0  0  0  0  0  0  0  0  0  0  0  0
  -28.7782  -21.7802   20.9400 C   0  0  0  0  0  0  0  0  0  0  0  0
  -24.3574  -12.3897   21.0029 C   0  0  0  0  0  0  0  0  0  0  0  0
  -27.5280  -24.1286   20.1005 C   0  0  0  0  0  0  0  0  0  1  0  0
  -26.1035  -25.9362   20.5757 C   0  0  0  0  0  0  0  0  0  0  0  0
  -23.1017  -10.4054   21.0925 C   0  0  0  0  0  0  0  0  0  0  0  0
  -23.0311   -7.6181   21.1857 C   0  0  0  0  0  0  0  0  0  0  0  0
  -22.4985   -9.7587   22.1712 C   0  0  0  0  0  0  0  0  0  0  0  0
  -28.1508  -14.2581   20.8725 C   0  0  0  0  0  0  0  0  0  0  0  0
  -30.2274  -14.8038   20.3982 C   0  0  0  0  0  0  0  0  0  0  0  0
  -29.3776  -12.8315   19.1191 C   0  0  0  0  0  0  0  0  0  0  0  0
  -22.4292  -29.6821   21.9655 C   0  0  0  0  0  0  0  0  0  0  0  0
  -24.8421  -31.4181   23.2642 C   0  0  0  0  0  0  0  0  0  0  0  0
  -28.1808  -31.7092   23.9084 C   0  0  0  0  0  0  0  0  0  0  0  0
  -30.0658  -20.3648   22.5786 C   0  0  0  0  0  0  0  0  0  0  0  0
  -17.3394  -29.5088   22.3151 C   0  0  0  0  0  0  0  0  0  0  0  0
  -23.5701  -27.9576   23.4079 C   0  0  0  0  0  0  0  0  0  0  0  0
  -25.5106  -29.4876   21.7837 C   0  0  0  0  0  0  0  0  0  0  0  0
  -18.4132  -30.5717   22.5332 C   0  0  0  0  0  0  0  0  0  0  0  0
  -31.7199  -17.5601   24.0189 C   0  0  0  0  0  0  0  0  0  0  0  0
  -19.3734  -30.6115   21.3486 C   0  0  0  0  0  0  0  0  0  0  0  0
  -31.0968  -16.3624   23.2983 C   0  0  0  0  0  0  0  0  0  0  0  0
  -30.6948  -18.6630   24.2766 C   0  0  0  0  0  0  0  0  0  0  0  0
  -29.3270  -17.9099   22.3711 C   0  0  0  0  0  0  0  0  0  0  0  0
  -20.1026  -29.2726   21.1843 C   0  0  1  0  0  0  0  0  0  0  0  0
  -23.3741  -29.4406   23.1085 C   0  0  1  0  0  0  0  0  0  0  0  0
  -30.3356  -16.8003   22.0317 C   0  0  2  0  0  0  0  0  0  0  0  0
  -29.8580  -33.2567   24.9521 C   0  0  0  0  0  0  0  0  0  0  0  0
  -24.6822  -33.2365   20.8192 C   0  0  0  0  0  0  0  0  0  0  0  0
  -26.9321  -34.1457   21.4350 C   0  0  0  0  0  0  0  0  0  0  0  0
  -25.0038  -34.4343   22.9909 C   0  0  0  0  0  0  0  0  0  0  0  0
  -28.9726  -29.6842   25.9162 C   0  0  0  0  0  0  0  0  0  0  0  0
  -26.0471  -32.1472   22.7209 C   0  0  1  0  0  0  0  0  0  0  0  0
  -28.9344  -32.0694   25.1759 C   0  0  2  0  0  0  0  0  0  0  0  0
  -25.6626  -33.4630   21.9873 C   0  0  0  0  0  0  0  0  0  0  0  0
  -28.4046  -15.3150   21.6488 N   0  0  0  0  0  0  0  0  0  0  0  0
  -29.6751  -15.6238   21.3377 N   0  0  0  0  0  0  0  0  0  0  0  0
  -24.6277  -30.1209   22.7772 N   0  0  0  0  0  0  0  0  0  0  0  0
  -30.0164  -19.0294   23.0314 N   0  0  0  0  0  0  0  0  0  0  0  0
  -31.4964  -14.9735   19.9700 N   0  0  0  0  0  0  0  0  0  0  0  0
  -28.2769  -11.9905   18.9057 N   0  0  0  0  0  0  0  0  0  0  0  0
  -29.4125  -20.5873   21.3668 N   0  0  0  0  0  0  0  0  0  0  0  0
  -21.1668  -29.1539   22.1578 N   0  0  0  0  0  0  0  0  0  0  0  0
  -26.9534  -32.3348   23.8487 N   0  0  0  0  0  0  0  0  0  0  0  0
  -29.7565  -30.9146   25.6357 N   0  3  0  0  0  0  0  0  0  0  0  0
  -30.4412  -12.6227   18.4877 O   0  0  0  0  0  0  0  0  0  0  0  0
  -22.8162  -30.3030   20.9824 O   0  0  0  0  0  0  0  0  0  0  0  0
  -24.1216  -31.9761   24.0956 O   0  0  0  0  0  0  0  0  0  0  0  0
  -28.6369  -30.9518   23.0547 O   0  0  0  0  0  0  0  0  0  0  0  0
  -30.6680  -21.2406   23.2049 O   0  0  0  0  0  0  0  0  0  0  0  0
  -26.9074  -25.2947   19.6846 O   0  0  0  0  0  0  0  0  0  1  0  0
  -23.1368  -11.7889   21.0443 O   0  0  0  0  0  0  0  0  0  0  0  0
  -22.9960   -6.2798   21.2297 F   0  0  0  0  0  0  0  0  0  0  0  0
  -21.9502  -10.4710   23.1651 F   0  0  0  0  0  0  0  0  0  0  0  0
  1  2  1  0  0  0  0
  1  5  2  0  0  0  0
  2  6  2  0  0  0  0
  3 10  2  0  0  0  0
  3 19  1  0  0  0  0
  4 11  1  0  0  0  0
  4 19  2  0  0  0  0
  5 21  1  0  0  0  0
  6 23  1  0  0  0  0
  7 12  2  0  0  0  0
  7 22  1  0  0  0  0
  8 13  2  0  0  0  0
  8 25  1  0  0  0  0
  9 14  1  0  0  0  0
  9 25  2  0  0  0  0
 10 26  1  0  0  0  0
 11 26  2  0  0  0  0
 12 28  1  0  0  0  0
 13 27  1  0  0  0  0
 14 27  2  0  0  0  0
 15 16  2  0  0  0  0
 15 29  1  0  0  0  0
 16 30  1  0  0  0  0
 17 24  1  0  0  0  0
 17 28  2  0  0  0  0
 18 30  2  0  0  0  0
 18 31  1  0  0  0  0
 19 32  1  0  0  0  0
 20 32  1  0  0  0  0
 20 33  2  0  0  0  0
 20 34  1  0  0  0  0
 21 23  2  0  0  0  0
 21 39  1  0  0  0  0
 22 24  2  0  0  0  0
 22 40  1  0  0  0  0
 23 48  1  0  0  0  0
 24 41  1  0  0  0  0
 25 65  1  0  0  0  0
 26 75  1  0  0  0  0
 27 74  1  0  0  0  0
 28 74  1  0  0  0  0
 29 31  2  0  0  0  0
 29 75  1  0  0  0  0
 30 76  1  0  0  0  0
 31 77  1  0  0  0  0
 32 59  2  0  0  0  0
 33 60  1  0  0  0  0
 33 63  1  0  0  0  0
 34 64  1  0  0  0  0
 34 69  2  0  0  0  0
 35 49  1  0  0  0  0
 35 66  1  0  0  0  0
 35 70  2  0  0  0  0
 36 56  1  0  0  0  0
 36 61  1  0  0  0  0
 36 71  2  0  0  0  0
 37 57  1  0  0  0  0
 37 67  1  0  0  0  0
 37 72  2  0  0  0  0
 38 62  1  0  0  0  0
 38 65  1  0  0  0  0
 38 73  2  0  0  0  0
 39 42  1  0  0  0  0
 40 49  1  0  0  0  0
 41 61  1  0  0  0  0
 42 44  1  0  0  0  0
 43 45  1  0  0  0  0
 43 46  1  0  0  0  0
 44 48  1  0  0  0  0
 45 50  1  0  0  0  0
 46 62  1  0  0  0  0
 47 50  1  0  0  0  0
 47 62  1  0  0  0  0
 48 66  1  0  0  0  0
 49 61  1  0  0  0  0
 50 60  1  0  0  0  0
 51 57  1  0  0  0  0
 52 58  1  0  0  0  0
 53 58  1  0  0  0  0
 54 58  1  0  0  0  0
 55 68  1  0  0  0  0
 56 58  1  0  0  0  0
 56 67  1  0  0  0  0
 57 68  1  0  0  0  0
 59 60  1  0  0  0  0
M  CHG  1  68   1
M  ISO  4  27 101  38 100  65 100  74 101
M  END
> <Batch ID>
0001

> <Smiles>
CNC(C)C(=O)NC(C(=O)N1Cc2cc([101O:1][101c:1]3ccc([100NH:0][100C:0](=O)N4CCCC(n5nc(-c6ccc(Oc7ccc(F)cc7F)cc6)c(C(N)=O)c5N)C4)cc3)ccc2CC1C(=O)NC1CCCc2ccccc21)C(C)(C)C

> <Shape>
0.307

> <Color>
0.082

> <Negative vol penalty>
0.000

$$$$

  -OEChem-04052315163D

 81 89  0     1  0  0  0  0  0999 V2000
  -16.6897  -29.4611   23.1319 C   0  0  0  0  0  0  0  0  0  0  0  0
  -17.6537  -29.5874   22.1369 C   0  0  0  0  0  0  0  0  0  0  0  0
  -26.5850  -12.6865   21.9931 C   0  0  0  0  0  0  0  0  0  0  0  0
  -25.7693  -14.3575   20.4506 C   0  0  0  0  0  0  0  0  0  0  0  0
  -17.0736  -29.1677   24.4398 C   0  0  0  0  0  0  0  0  0  0  0  0
  -19.0025  -29.4214   22.4495 C   0  0  0  0  0  0  0  0  0  0  0  0
  -25.1332  -27.0212   19.6262 C   0  0  0  0  0  0  0  0  0  0  0  0
  -28.8220  -22.0323   20.5317 C   0  0  0  0  0  0  0  0  0  0  0  0
  -30.6671  -22.6487   21.9643 C   0  0  0  0  0  0  0  0  0  0  0  0
  -25.3403  -12.0575   21.9700 C   0  0  0  0  0  0  0  0  0  0  0  0
  -24.5245  -13.7284   20.4274 C   0  0  0  0  0  0  0  0  0  0  0  0
  -26.4510  -27.4234   19.4131 C   0  0  0  0  0  0  0  0  0  0  0  0
  -29.1192  -23.1028   19.6883 C   0  0  0  0  0  0  0  0  0  0  0  0
  -30.9644  -23.7192   21.1209 C   0  0  0  0  0  0  0  0  0  0  0  0
  -22.4870   -9.8060   22.0365 C   0  0  0  0  0  0  0  0  0  0  0  0
  -22.4646   -8.4169   21.9129 C   0  0  0  0  0  0  0  0  0  0  0  0
  -26.9909  -26.8404   21.6907 C   0  0  0  0  0  0  0  0  0  0  0  0
  -23.6152   -8.5868   19.7952 C   0  0  0  0  0  0  0  0  0  0  0  0
  -26.7995  -13.8366   21.2335 C   0  0  0  0  0  0  0  0  0  0  0  0
  -29.1797  -14.2381   20.4083 C   0  0  0  0  0  0  0  0  0  0  0  0
  -18.4270  -28.9886   24.7666 C   0  0  0  0  0  0  0  0  0  0  0  0
  -24.7311  -26.5350   20.8786 C   0  0  0  0  0  0  0  0  0  0  0  0
  -19.4050  -29.1267   23.7632 C   0  0  0  0  0  0  0  0  0  0  0  0
  -25.6680  -26.4303   21.9165 C   0  0  0  0  0  0  0  0  0  0  0  0
  -29.5959  -21.8053   21.6698 C   0  0  0  0  0  0  0  0  0  0  0  0
  -24.3101  -12.5784   21.1871 C   0  0  0  0  0  0  0  0  0  0  0  0
  -30.1904  -23.9462   19.9829 C   0  0  0  0  0  0  0  0  0  0  0  0
  -27.3794  -27.3357   20.4462 C   0  0  0  0  0  0  0  0  0  0  0  0
  -23.0734  -10.5856   21.0395 C   0  0  0  0  0  0  0  0  0  0  0  0
  -23.0288   -7.8072   20.7923 C   0  0  0  0  0  0  0  0  0  0  0  0
  -23.6375   -9.9760   19.9189 C   0  0  0  0  0  0  0  0  0  0  0  0
  -28.0849  -14.4872   21.2574 C   0  0  0  0  0  0  0  0  0  0  0  0
  -30.1515  -15.1091   20.8365 C   0  0  0  0  0  0  0  0  0  0  0  0
  -29.3069  -13.3031   19.3288 C   0  0  0  0  0  0  0  0  0  0  0  0
  -22.6340  -27.4660   23.0784 C   0  0  0  0  0  0  0  0  0  0  0  0
  -23.4563  -24.6625   24.4878 C   0  0  0  0  0  0  0  0  0  0  0  0
  -25.7688  -22.1825   24.8734 C   0  0  0  0  0  0  0  0  0  0  0  0
  -29.9615  -20.3528   23.6953 C   0  0  0  0  0  0  0  0  0  0  0  0
  -18.7973  -28.7192   26.2036 C   0  0  0  0  0  0  0  0  0  0  0  0
  -23.3122  -26.0803   21.0845 C   0  0  0  0  0  0  0  0  0  0  0  0
  -25.2918  -25.8963   23.2735 C   0  0  0  0  0  0  0  0  0  0  0  0
  -20.2180  -28.1885   26.3773 C   0  0  0  0  0  0  0  0  0  0  0  0
  -31.6554  -17.4075   24.7596 C   0  0  0  0  0  0  0  0  0  0  0  0
  -21.2010  -29.0149   25.5542 C   0  0  0  0  0  0  0  0  0  0  0  0
  -31.0359  -16.3026   23.9007 C   0  0  0  0  0  0  0  0  0  0  0  0
  -30.6229  -18.4591   25.1620 C   0  0  0  0  0  0  0  0  0  0  0  0
  -29.2429  -17.9355   23.1896 C   0  0  0  0  0  0  0  0  0  0  0  0
  -20.8762  -28.9294   24.0580 C   0  0  1  0  0  0  0  0  0  0  0  0
  -22.8907  -26.0828   22.5507 C   0  0  1  0  0  0  0  0  0  0  0  0
  -30.2581  -16.8873   22.7054 C   0  0  2  0  0  0  0  0  0  0  0  0
  -26.7383  -20.0040   25.6554 C   0  0  0  0  0  0  0  0  0  0  0  0
  -24.0606  -26.2563   27.0185 C   0  0  0  0  0  0  0  0  0  0  0  0
  -25.3278  -24.2761   27.8794 C   0  0  0  0  0  0  0  0  0  0  0  0
  -22.8855  -24.0837   27.4097 C   0  0  0  0  0  0  0  0  0  0  0  0
  -24.6824  -20.7270   22.5367 C   0  0  0  0  0  0  0  0  0  0  0  0
  -30.6908  -27.3904   18.9728 C   0  0  0  0  0  0  0  0  0  0  0  0
  -31.0716  -26.1434   19.7552 C   0  0  0  0  0  0  0  0  0  0  0  0
  -29.1843  -27.5901   18.9186 C   0  0  0  0  0  0  0  0  0  1  0  0
  -24.5109  -24.2332   25.4790 C   0  0  1  0  0  0  0  0  0  0  0  0
  -25.6386  -20.6703   24.8434 C   0  0  2  0  0  0  0  0  0  0  0  0
  -24.2031  -24.7242   26.9218 C   0  0  0  0  0  0  0  0  0  0  0  0
  -28.3369  -15.4416   22.1572 N   0  0  0  0  0  0  0  0  0  0  0  0
  -29.6013  -15.7998   21.8759 N   0  0  0  0  0  0  0  0  0  0  0  0
  -23.8910  -25.4702   23.4273 N   0  0  0  0  0  0  0  0  0  0  0  0
  -29.9288  -18.9709   23.9784 N   0  0  0  0  0  0  0  0  0  0  0  0
  -31.4146  -15.3439   20.4217 N   0  0  0  0  0  0  0  0  0  0  0  0
  -28.2117  -12.4841   19.0219 N   0  0  0  0  0  0  0  0  0  0  0  0
  -29.2941  -20.7179   22.5266 N   0  0  0  0  0  0  0  0  0  0  0  0
  -21.3380  -27.6713   23.5117 N   0  0  0  0  0  0  0  0  0  0  0  0
  -24.6244  -22.7842   25.3524 N   0  0  0  0  0  0  0  0  0  0  0  0
  -25.7210  -20.1710   23.4417 N   0  3  0  0  0  0  0  0  0  0  0  0
  -30.3659  -13.1856   18.6670 O   0  0  0  0  0  0  0  0  0  0  0  0
  -23.5446  -28.2859   23.0928 O   0  0  0  0  0  0  0  0  0  0  0  0
  -22.2912  -24.2890   24.6446 O   0  0  0  0  0  0  0  0  0  0  0  0
  -26.7855  -22.7708   24.5118 O   0  0  0  0  0  0  0  0  0  0  0  0
  -30.5621  -21.1498   24.4207 O   0  0  0  0  0  0  0  0  0  0  0  0
  -23.0954  -11.9646   21.1640 O   0  0  0  0  0  0  0  0  0  0  0  0
  -30.4825  -24.9982   19.1542 O   0  0  0  0  0  0  0  0  0  0  0  0
  -28.6662  -27.7281   20.2411 O   0  0  0  0  0  0  0  0  0  1  0  0
  -23.0086   -6.4731   20.6744 F   0  0  0  0  0  0  0  0  0  0  0  0
  -24.2034  -10.7197   18.9583 F   0  0  0  0  0  0  0  0  0  0  0  0
  1  2  1  0  0  0  0
  1  5  2  0  0  0  0
  2  6  2  0  0  0  0
  3 10  2  0  0  0  0
  3 19  1  0  0  0  0
  4 11  1  0  0  0  0
  4 19  2  0  0  0  0
  5 21  1  0  0  0  0
  6 23  1  0  0  0  0
  7 12  2  0  0  0  0
  7 22  1  0  0  0  0
  8 13  2  0  0  0  0
  8 25  1  0  0  0  0
  9 14  1  0  0  0  0
  9 25  2  0  0  0  0
 10 26  1  0  0  0  0
 11 26  2  0  0  0  0
 12 28  1  0  0  0  0
 13 27  1  0  0  0  0
 14 27  2  0  0  0  0
 15 16  2  0  0  0  0
 15 29  1  0  0  0  0
 16 30  1  0  0  0  0
 17 24  1  0  0  0  0
 17 28  2  0  0  0  0
 18 30  2  0  0  0  0
 18 31  1  0  0  0  0
 19 32  1  0  0  0  0
 20 32  1  0  0  0  0
 20 33  2  0  0  0  0
 20 34  1  0  0  0  0
 21 23  2  0  0  0  0
 21 39  1  0  0  0  0
 22 24  2  0  0  0  0
 22 40  1  0  0  0  0
 23 48  1  0  0  0  0
 24 41  1  0  0  0  0
 25 68  1  0  0  0  0
 26 77  1  0  0  0  0
 27 78  1  0  0  0  0
 28 79  1  0  0  0  0
 29 31  2  0  0  0  0
 29 77  1  0  0  0  0
 30 80  1  0  0  0  0
 31 81  1  0  0  0  0
 32 62  2  0  0  0  0
 33 63  1  0  0  0  0
 33 66  1  0  0  0  0
 34 67  1  0  0  0  0
 34 72  2  0  0  0  0
 35 49  1  0  0  0  0
 35 69  1  0  0  0  0
 35 73  2  0  0  0  0
 36 59  1  0  0  0  0
 36 64  1  0  0  0  0
 36 74  2  0  0  0  0
 37 60  1  0  0  0  0
 37 70  1  0  0  0  0
 37 75  2  0  0  0  0
 38 65  1  0  0  0  0
 38 68  1  0  0  0  0
 38 76  2  0  0  0  0
 39 42  1  0  0  0  0
 40 49  1  0  0  0  0
 41 64  1  0  0  0  0
 42 44  1  0  0  0  0
 43 45  1  0  0  0  0
 43 46  1  0  0  0  0
 44 48  1  0  0  0  0
 45 50  1  0  0  0  0
 46 65  1  0  0  0  0
 47 50  1  0  0  0  0
 47 65  1  0  0  0  0
 48 69  1  0  0  0  0
 49 64  1  0  0  0  0
 50 63  1  0  0  0  0
 51 60  1  0  0  0  0
 52 61  1  0  0  0  0
 53 61  1  0  0  0  0
 54 61  1  0  0  0  0
 55 71  1  0  0  0  0
 56 57  1  0  0  0  0
 56 58  1  0  0  0  0
 57 78  1  0  0  0  0
 58 79  1  0  0  0  0
 59 61  1  0  0  0  0
 59 70  1  0  0  0  0
 60 71  1  0  0  0  0
 62 63  1  0  0  0  0
M  CHG  1  71   1
M  ISO  4  38 100  58 101  68 100  79 101
M  END
> <Batch ID>
0001

> <Smiles>
CNC(C)C(=O)NC(C(=O)N1Cc2cc([101O:1][101CH2:1]CCOc3ccc([100NH:0][100C:0](=O)N4CCCC(n5nc(-c6ccc(Oc7ccc(F)cc7F)cc6)c(C(N)=O)c5N)C4)cc3)ccc2CC1C(=O)NC1CCCc2ccccc21)C(C)(C)C

> <Shape>
0.239

> <Color>
0.096

> <Negative vol penalty>
0.000

$$$$

  -OEChem-04052315163D

 73 80  0     1  0  0  0  0  0999 V2000
  -28.7485  -11.4171   19.9091 C   0  0  0  0  0  0  0  0  0  0  0  0
  -28.8789  -12.6951   19.3752 C   0  0  0  0  0  0  0  0  0  0  0  0
  -26.0858  -28.8294   20.5380 C   0  0  0  0  0  0  0  0  0  0  0  0
  -25.4611  -26.4979   20.6438 C   0  0  0  0  0  0  0  0  0  0  0  0
  -27.5209  -10.9983   20.4202 C   0  0  0  0  0  0  0  0  0  0  0  0
  -27.7813  -13.5548   19.3512 C   0  0  0  0  0  0  0  0  0  0  0  0
  -28.9569  -18.2489   20.8439 C   0  0  0  0  0  0  0  0  0  0  0  0
  -24.7576  -29.1739   20.2878 C   0  0  0  0  0  0  0  0  0  0  0  0
  -24.1328  -26.8425   20.3936 C   0  0  0  0  0  0  0  0  0  0  0  0
  -29.6081  -19.0662   19.9210 C   0  0  0  0  0  0  0  0  0  0  0  0
  -20.5182  -27.1399   20.1408 C   0  0  0  0  0  0  0  0  0  0  0  0
  -19.5325  -26.5338   20.9197 C   0  0  0  0  0  0  0  0  0  0  0  0
  -27.5138  -20.1500   19.4123 C   0  0  0  0  0  0  0  0  0  0  0  0
  -20.5249  -27.4777   22.9100 C   0  0  0  0  0  0  0  0  0  0  0  0
  -26.4376  -27.4913   20.7160 C   0  0  0  0  0  0  0  0  0  0  0  0
  -28.4375  -27.0233   22.2289 C   0  0  0  0  0  0  0  0  0  0  0  0
  -26.4101  -11.8567   20.4113 C   0  0  0  0  0  0  0  0  0  0  0  0
  -27.5751  -18.3688   21.0504 C   0  0  0  0  0  0  0  0  0  0  0  0
  -26.5372  -13.1466   19.8615 C   0  0  0  0  0  0  0  0  0  0  0  0
  -26.8480  -19.3347   20.3402 C   0  0  0  0  0  0  0  0  0  0  0  0
  -23.7811  -28.1805   20.2156 C   0  0  0  0  0  0  0  0  0  0  0  0
  -28.8860  -20.0149   19.2029 C   0  0  0  0  0  0  0  0  0  0  0  0
  -21.5073  -27.9147   20.7465 C   0  0  0  0  0  0  0  0  0  0  0  0
  -19.5358  -26.7028   22.3043 C   0  0  0  0  0  0  0  0  0  0  0  0
  -21.5107  -28.0837   22.1311 C   0  0  0  0  0  0  0  0  0  0  0  0
  -27.8096  -27.1347   20.9739 C   0  0  0  0  0  0  0  0  0  0  0  0
  -29.7299  -26.6628   21.9355 C   0  0  0  0  0  0  0  0  0  0  0  0
  -27.9004  -27.2272   23.5426 C   0  0  0  0  0  0  0  0  0  0  0  0
  -25.0756  -16.4409   20.6764 C   0  0  0  0  0  0  0  0  0  0  0  0
  -23.4735  -18.8854   22.0836 C   0  0  0  0  0  0  0  0  0  0  0  0
  -23.3199  -22.2195   22.7957 C   0  0  0  0  0  0  0  0  0  0  0  0
  -32.0912  -23.8931   17.1467 C   0  0  0  0  0  0  0  0  0  0  0  0
  -25.0913  -11.3427   20.9321 C   0  0  0  0  0  0  0  0  0  0  0  0
  -26.8922  -17.4978   22.0689 C   0  0  0  0  0  0  0  0  0  0  0  0
  -25.3663  -19.5172   20.5397 C   0  0  0  0  0  0  0  0  0  0  0  0
  -24.0744  -12.4467   21.2103 C   0  0  0  0  0  0  0  0  0  0  0  0
  -33.0648  -27.0723   18.5411 C   0  0  0  0  0  0  0  0  0  0  0  0
  -24.0208  -13.4292   20.0447 C   0  0  0  0  0  0  0  0  0  0  0  0
  -31.8641  -27.4545   19.4058 C   0  0  0  0  0  0  0  0  0  0  0  0
  -32.6340  -26.3100   17.2921 C   0  0  0  0  0  0  0  0  0  0  0  0
  -30.6054  -25.4729   18.4501 C   0  0  0  0  0  0  0  0  0  0  0  0
  -25.3761  -14.1169   19.8402 C   0  0  1  0  0  0  0  0  0  0  0  0
  -25.3929  -17.3562   21.8250 C   0  0  1  0  0  0  0  0  0  0  0  0
  -31.0048  -26.2206   19.7339 C   0  0  2  0  0  0  0  0  0  0  0  0
  -21.8714  -23.9273   23.9282 C   0  0  0  0  0  0  0  0  0  0  0  0
  -21.5571  -18.8303   19.7100 C   0  0  0  0  0  0  0  0  0  0  0  0
  -20.7485  -21.0973   20.3994 C   0  0  0  0  0  0  0  0  0  0  0  0
  -20.4561  -19.1513   21.9324 C   0  0  0  0  0  0  0  0  0  0  0  0
  -25.4469  -22.9073   24.7352 C   0  0  0  0  0  0  0  0  0  0  0  0
  -30.9245  -20.6254   18.1407 C   0  0  0  0  0  0  0  0  0  1  0  0
  -31.4404  -21.6054   17.1049 C   0  0  0  0  0  0  0  0  0  0  0  0
  -22.7647  -20.1236   21.5902 C   0  0  1  0  0  0  0  0  0  0  0  0
  -23.0348  -22.9612   24.0891 C   0  0  2  0  0  0  0  0  0  0  0  0
  -21.4092  -19.7961   20.9026 C   0  0  0  0  0  0  0  0  0  0  0  0
  -28.6353  -26.8669   19.9587 N   0  0  0  0  0  0  0  0  0  0  0  0
  -29.7952  -26.5837   20.5755 N   0  0  0  0  0  0  0  0  0  0  0  0
  -24.7428  -18.6375   21.5422 N   0  0  0  0  0  0  0  0  0  0  0  0
  -31.7879  -25.1677   17.6353 N   0  0  0  0  0  0  0  0  0  0  0  0
  -30.8056  -26.4090   22.7107 N   0  0  0  0  0  0  0  0  0  0  0  0
  -26.5533  -27.5944   23.6640 N   0  0  0  0  0  0  0  0  0  0  0  0
  -25.5682  -15.1586   20.8262 N   0  0  0  0  0  0  0  0  0  0  0  0
  -22.6517  -21.0147   22.7398 N   0  0  0  0  0  0  0  0  0  0  0  0
  -24.2336  -23.7363   24.5169 N   0  3  0  0  0  0  0  0  0  0  0  0
  -28.5988  -27.1040   24.5772 O   0  0  0  0  0  0  0  0  0  0  0  0
  -24.4303  -16.8662   19.7254 O   0  0  0  0  0  0  0  0  0  0  0  0
  -22.9243  -18.1686   22.9240 O   0  0  0  0  0  0  0  0  0  0  0  0
  -24.0585  -22.6661   21.9207 O   0  0  0  0  0  0  0  0  0  0  0  0
  -33.0510  -23.6395   16.4210 O   0  0  0  0  0  0  0  0  0  0  0  0
  -22.4848  -28.5164   19.9718 O   0  0  0  0  0  0  0  0  0  0  0  0
  -29.5190  -20.8135   18.3010 O   0  0  0  0  0  0  0  0  0  1  0  0
  -31.1991  -22.9408   17.5633 O   0  0  0  0  0  0  0  0  0  0  0  0
  -18.5883  -26.1220   23.0520 F   0  0  0  0  0  0  0  0  0  0  0  0
  -22.4577  -28.8279   22.7186 F   0  0  0  0  0  0  0  0  0  0  0  0
  1  2  1  0  0  0  0
  1  5  2  0  0  0  0
  2  6  2  0  0  0  0
  3  8  2  0  0  0  0
  3 15  1  0  0  0  0
  4  9  1  0  0  0  0
  4 15  2  0  0  0  0
  5 17  1  0  0  0  0
  6 19  1  0  0  0  0
  7 10  2  0  0  0  0
  7 18  1  0  0  0  0
  8 21  1  0  0  0  0
  9 21  2  0  0  0  0
 10 22  1  0  0  0  0
 11 12  2  0  0  0  0
 11 23  1  0  0  0  0
 12 24  1  0  0  0  0
 13 20  1  0  0  0  0
 13 22  2  0  0  0  0
 14 24  2  0  0  0  0
 14 25  1  0  0  0  0
 15 26  1  0  0  0  0
 16 26  1  0  0  0  0
 16 27  2  0  0  0  0
 16 28  1  0  0  0  0
 17 19  2  0  0  0  0
 17 33  1  0  0  0  0
 18 20  2  0  0  0  0
 18 34  1  0  0  0  0
 19 42  1  0  0  0  0
 20 35  1  0  0  0  0
 21 69  1  0  0  0  0
 22 70  1  0  0  0  0
 23 25  2  0  0  0  0
 23 69  1  0  0  0  0
 24 72  1  0  0  0  0
 25 73  1  0  0  0  0
 26 55  2  0  0  0  0
 27 56  1  0  0  0  0
 27 59  1  0  0  0  0
 28 60  1  0  0  0  0
 28 64  2  0  0  0  0
 29 43  1  0  0  0  0
 29 61  1  0  0  0  0
 29 65  2  0  0  0  0
 30 52  1  0  0  0  0
 30 57  1  0  0  0  0
 30 66  2  0  0  0  0
 31 53  1  0  0  0  0
 31 62  1  0  0  0  0
 31 67  2  0  0  0  0
 32 58  1  0  0  0  0
 32 68  2  0  0  0  0
 32 71  1  0  0  0  0
 33 36  1  0  0  0  0
 34 43  1  0  0  0  0
 35 57  1  0  0  0  0
 36 38  1  0  0  0  0
 37 39  1  0  0  0  0
 37 40  1  0  0  0  0
 38 42  1  0  0  0  0
 39 44  1  0  0  0  0
 40 58  1  0  0  0  0
 41 44  1  0  0  0  0
 41 58  1  0  0  0  0
 42 61  1  0  0  0  0
 43 57  1  0  0  0  0
 44 56  1  0  0  0  0
 45 53  1  0  0  0  0
 46 54  1  0  0  0  0
 47 54  1  0  0  0  0
 48 54  1  0  0  0  0
 49 63  1  0  0  0  0
 50 51  1  0  0  0  0
 50 70  1  0  0  0  0
 51 71  1  0  0  0  0
 52 54  1  0  0  0  0
 52 62  1  0  0  0  0
 53 63  1  0  0  0  0
 55 56  1  0  0  0  0
M  CHG  1  63   1
M  ISO  4  32 100  50 101  70 101  71 100
M  END
> <Batch ID>
0001

> <Smiles>
CNC(C)C(=O)NC(C(=O)N1Cc2cc([101O:1][101CH2:1]C[100O:0][100C:0](=O)N3CCCC(n4nc(-c5ccc(Oc6ccc(F)cc6F)cc5)c(C(N)=O)c4N)C3)ccc2CC1C(=O)NC1CCCc2ccccc21)C(C)(C)C

> <Shape>
0.224

> <Color>
0.066

> <Negative vol penalty>
0.000

$$$$

  -OEChem-04052315163D

 77 85  0     1  0  0  0  0  0999 V2000
  -17.5192  -25.8185   21.4338 C   0  0  0  0  0  0  0  0  0  0  0  0
  -18.7916  -25.7093   20.8820 C   0  0  0  0  0  0  0  0  0  0  0  0
  -26.6261  -12.5770   21.8119 C   0  0  0  0  0  0  0  0  0  0  0  0
  -25.8412  -14.0497   20.0649 C   0  0  0  0  0  0  0  0  0  0  0  0
  -17.0682  -27.0509   21.9045 C   0  0  0  0  0  0  0  0  0  0  0  0
  -19.6134  -26.8328   20.7996 C   0  0  0  0  0  0  0  0  0  0  0  0
  -24.3691  -25.8720   22.2504 C   0  0  0  0  0  0  0  0  0  0  0  0
  -28.1665  -21.8353   19.6877 C   0  0  0  0  0  0  0  0  0  0  0  0
  -28.7648  -22.8992   21.7725 C   0  0  0  0  0  0  0  0  0  0  0  0
  -25.3753  -11.9612   21.8549 C   0  0  0  0  0  0  0  0  0  0  0  0
  -24.5903  -13.4339   20.1079 C   0  0  0  0  0  0  0  0  0  0  0  0
  -25.1919  -25.2122   21.3387 C   0  0  0  0  0  0  0  0  0  0  0  0
  -27.5414  -23.0095   19.2679 C   0  0  0  0  0  0  0  0  0  0  0  0
  -28.1397  -24.0734   21.3528 C   0  0  0  0  0  0  0  0  0  0  0  0
  -23.6696   -9.6584   20.0604 C   0  0  0  0  0  0  0  0  0  0  0  0
  -23.6343   -8.2648   20.1070 C   0  0  0  0  0  0  0  0  0  0  0  0
  -26.1959  -27.3193   20.7291 C   0  0  0  0  0  0  0  0  0  0  0  0
  -22.4632   -8.3651   22.2179 C   0  0  0  0  0  0  0  0  0  0  0  0
  -26.8591  -13.6213   20.9170 C   0  0  0  0  0  0  0  0  0  0  0  0
  -29.2505  -13.8951   20.0721 C   0  0  0  0  0  0  0  0  0  0  0  0
  -17.8885  -28.1881   21.8366 C   0  0  0  0  0  0  0  0  0  0  0  0
  -24.4460  -27.2641   22.4008 C   0  0  0  0  0  0  0  0  0  0  0  0
  -19.1724  -28.0819   21.2686 C   0  0  0  0  0  0  0  0  0  0  0  0
  -25.3747  -27.9940   21.6453 C   0  0  0  0  0  0  0  0  0  0  0  0
  -28.7782  -21.7802   20.9400 C   0  0  0  0  0  0  0  0  0  0  0  0
  -24.3574  -12.3897   21.0029 C   0  0  0  0  0  0  0  0  0  0  0  0
  -27.5280  -24.1286   20.1005 C   0  0  0  0  0  0  0  0  0  1  0  0
  -26.1035  -25.9362   20.5757 C   0  0  0  0  0  0  0  0  0  0  0  0
  -23.1017  -10.4054   21.0925 C   0  0  0  0  0  0  0  0  0  0  0  0
  -23.0311   -7.6181   21.1857 C   0  0  0  0  0  0  0  0  0  0  0  0
  -22.4985   -9.7587   22.1712 C   0  0  0  0  0  0  0  0  0  0  0  0
  -28.1508  -14.2581   20.8725 C   0  0  0  0  0  0  0  0  0  0  0  0
  -30.2274  -14.8038   20.3982 C   0  0  0  0  0  0  0  0  0  0  0  0
  -29.3776  -12.8315   19.1191 C   0  0  0  0  0  0  0  0  0  0  0  0
  -22.4292  -29.6821   21.9655 C   0  0  0  0  0  0  0  0  0  0  0  0
  -24.8421  -31.4181   23.2642 C   0  0  0  0  0  0  0  0  0  0  0  0
  -28.1808  -31.7092   23.9084 C   0  0  0  0  0  0  0  0  0  0  0  0
  -30.0658  -20.3648   22.5786 C   0  0  0  0  0  0  0  0  0  0  0  0
  -17.3394  -29.5088   22.3151 C   0  0  0  0  0  0  0  0  0  0  0  0
  -23.5701  -27.9576   23.4079 C   0  0  0  0  0  0  0  0  0  0  0  0
  -25.5106  -29.4876   21.7837 C   0  0  0  0  0  0  0  0  0  0  0  0
  -18.4132  -30.5717   22.5332 C   0  0  0  0  0  0  0  0  0  0  0  0
  -31.7199  -17.5601   24.0189 C   0  0  0  0  0  0  0  0  0  0  0  0
  -19.3734  -30.6115   21.3486 C   0  0  0  0  0  0  0  0  0  0  0  0
  -31.0968  -16.3624   23.2983 C   0  0  0  0  0  0  0  0  0  0  0  0
  -30.6948  -18.6630   24.2766 C   0  0  0  0  0  0  0  0  0  0  0  0
  -29.3270  -17.9099   22.3711 C   0  0  0  0  0  0  0  0  0  0  0  0
  -20.1026  -29.2726   21.1843 C   0  0  1  0  0  0  0  0  0  0  0  0
  -23.3741  -29.4406   23.1085 C   0  0  1  0  0  0  0  0  0  0  0  0
  -30.3356  -16.8003   22.0317 C   0  0  2  0  0  0  0  0  0  0  0  0
  -29.8580  -33.2567   24.9521 C   0  0  0  0  0  0  0  0  0  0  0  0
  -24.6822  -33.2365   20.8192 C   0  0  0  0  0  0  0  0  0  0  0  0
  -26.9321  -34.1457   21.4350 C   0  0  0  0  0  0  0  0  0  0  0  0
  -25.0038  -34.4343   22.9909 C   0  0  0  0  0  0  0  0  0  0  0  0
  -28.9726  -29.6842   25.9162 C   0  0  0  0  0  0  0  0  0  0  0  0
  -26.0471  -32.1472   22.7209 C   0  0  1  0  0  0  0  0  0  0  0  0
  -28.9344  -32.0694   25.1759 C   0  0  2  0  0  0  0  0  0  0  0  0
  -25.6626  -33.4630   21.9873 C   0  0  0  0  0  0  0  0  0  0  0  0
  -28.4046  -15.3150   21.6488 N   0  0  0  0  0  0  0  0  0  0  0  0
  -29.6751  -15.6238   21.3377 N   0  0  0  0  0  0  0  0  0  0  0  0
  -24.6277  -30.1209   22.7772 N   0  0  0  0  0  0  0  0  0  0  0  0
  -30.0164  -19.0294   23.0314 N   0  0  0  0  0  0  0  0  0  0  0  0
  -31.4964  -14.9735   19.9700 N   0  0  0  0  0  0  0  0  0  0  0  0
  -28.2769  -11.9905   18.9057 N   0  0  0  0  0  0  0  0  0  0  0  0
  -29.4125  -20.5873   21.3668 N   0  0  0  0  0  0  0  0  0  0  0  0
  -21.1668  -29.1539   22.1578 N   0  0  0  0  0  0  0  0  0  0  0  0
  -26.9534  -32.3348   23.8487 N   0  0  0  0  0  0  0  0  0  0  0  0
  -29.7565  -30.9146   25.6357 N   0  3  0  0  0  0  0  0  0  0  0  0
  -30.4412  -12.6227   18.4877 O   0  0  0  0  0  0  0  0  0  0  0  0
  -22.8162  -30.3030   20.9824 O   0  0  0  0  0  0  0  0  0  0  0  0
  -24.1216  -31.9761   24.0956 O   0  0  0  0  0  0  0  0  0  0  0  0
  -28.6369  -30.9518   23.0547 O   0  0  0  0  0  0  0  0  0  0  0  0
  -30.6680  -21.2406   23.2049 O   0  0  0  0  0  0  0  0  0  0  0  0
  -26.9074  -25.2947   19.6846 O   0  0  0  0  0  0  0  0  0  1  0  0
  -23.1368  -11.7889   21.0443 O   0  0  0  0  0  0  0  0  0  0  0  0
  -22.9960   -6.2798   21.2297 F   0  0  0  0  0  0  0  0  0  0  0  0
  -21.9502  -10.4710   23.1651 F   0  0  0  0  0  0  0  0  0  0  0  0
  1  2  1  0  0  0  0
  1  5  2  0  0  0  0
  2  6  2  0  0  0  0
  3 10  2  0  0  0  0
  3 19  1  0  0  0  0
  4 11  1  0  0  0  0
  4 19  2  0  0  0  0
  5 21  1  0  0  0  0
  6 23  1  0  0  0  0
  7 12  2  0  0  0  0
  7 22  1  0  0  0  0
  8 13  2  0  0  0  0
  8 25  1  0  0  0  0
  9 14  1  0  0  0  0
  9 25  2  0  0  0  0
 10 26  1  0  0  0  0
 11 26  2  0  0  0  0
 12 28  1  0  0  0  0
 13 27  1  0  0  0  0
 14 27  2  0  0  0  0
 15 16  2  0  0  0  0
 15 29  1  0  0  0  0
 16 30  1  0  0  0  0
 17 24  1  0  0  0  0
 17 28  2  0  0  0  0
 18 30  2  0  0  0  0
 18 31  1  0  0  0  0
 19 32  1  0  0  0  0
 20 32  1  0  0  0  0
 20 33  2  0  0  0  0
 20 34  1  0  0  0  0
 21 23  2  0  0  0  0
 21 39  1  0  0  0  0
 22 24  2  0  0  0  0
 22 40  1  0  0  0  0
 23 48  1  0  0  0  0
 24 41  1  0  0  0  0
 25 65  1  0  0  0  0
 26 75  1  0  0  0  0
 27 74  1  0  0  0  0
 28 74  1  0  0  0  0
 29 31  2  0  0  0  0
 29 75  1  0  0  0  0
 30 76  1  0  0  0  0
 31 77  1  0  0  0  0
 32 59  2  0  0  0  0
 33 60  1  0  0  0  0
 33 63  1  0  0  0  0
 34 64  1  0  0  0  0
 34 69  2  0  0  0  0
 35 49  1  0  0  0  0
 35 66  1  0  0  0  0
 35 70  2  0  0  0  0
 36 56  1  0  0  0  0
 36 61  1  0  0  0  0
 36 71  2  0  0  0  0
 37 57  1  0  0  0  0
 37 67  1  0  0  0  0
 37 72  2  0  0  0  0
 38 62  1  0  0  0  0
 38 65  1  0  0  0  0
 38 73  2  0  0  0  0
 39 42  1  0  0  0  0
 40 49  1  0  0  0  0
 41 61  1  0  0  0  0
 42 44  1  0  0  0  0
 43 45  1  0  0  0  0
 43 46  1  0  0  0  0
 44 48  1  0  0  0  0
 45 50  1  0  0  0  0
 46 62  1  0  0  0  0
 47 50  1  0  0  0  0
 47 62  1  0  0  0  0
 48 66  1  0  0  0  0
 49 61  1  0  0  0  0
 50 60  1  0  0  0  0
 51 57  1  0  0  0  0
 52 58  1  0  0  0  0
 53 58  1  0  0  0  0
 54 58  1  0  0  0  0
 55 68  1  0  0  0  0
 56 58  1  0  0  0  0
 56 67  1  0  0  0  0
 57 68  1  0  0  0  0
 59 60  1  0  0  0  0
M  CHG  1  68   1
M  ISO  4  27 101  38 100  65 100  74 101
M  END
> <Batch ID>
0001

> <Smiles>
CNC(C)C(=O)NC(C(=O)N1Cc2cc([101O:1][101c:1]3ccc([100NH:0][100C:0](=O)N4CCCC(n5nc(-c6ccc(Oc7ccc(F)cc7F)cc6)c(C(N)=O)c5N)C4)cc3)ccc2CC1C(=O)NC1CCCc2ccccc21)C(C)(C)C

> <Shape>
0.307

> <Color>
0.082

> <Negative vol penalty>
0.000

$$$$

  -OEChem-04052315163D

 81 88  0     1  0  0  0  0  0999 V2000
  -25.3296  -28.9058   20.6749 C   0  0  0  0  0  0  0  0  0  0  0  0
  -24.8278  -27.8122   19.9766 C   0  0  0  0  0  0  0  0  0  0  0  0
  -24.2966  -16.4247   22.5665 C   0  0  0  0  0  0  0  0  0  0  0  0
  -23.4484  -16.5612   20.3084 C   0  0  0  0  0  0  0  0  0  0  0  0
  -26.6991  -29.0093   20.9152 C   0  0  0  0  0  0  0  0  0  0  0  0
  -25.6953  -26.8219   19.5172 C   0  0  0  0  0  0  0  0  0  0  0  0
  -24.5490  -20.8192   19.1180 C   0  0  0  0  0  0  0  0  0  0  0  0
  -23.6174  -17.5986   22.8926 C   0  0  0  0  0  0  0  0  0  0  0  0
  -22.7692  -17.7350   20.6345 C   0  0  0  0  0  0  0  0  0  0  0  0
  -24.1621  -20.0069   18.0530 C   0  0  0  0  0  0  0  0  0  0  0  0
  -21.8155  -20.3633   24.4172 C   0  0  0  0  0  0  0  0  0  0  0  0
  -21.1092  -20.3912   25.6197 C   0  0  0  0  0  0  0  0  0  0  0  0
  -26.4687  -19.4064   17.6809 C   0  0  0  0  0  0  0  0  0  0  0  0
  -19.7477  -18.5444   24.8628 C   0  0  0  0  0  0  0  0  0  0  0  0
  -24.2121  -15.9060   21.2744 C   0  0  0  0  0  0  0  0  0  0  0  0
  -24.4309  -13.3754   21.0384 C   0  0  0  0  0  0  0  0  0  0  0  0
  -27.5828  -28.0149   20.4669 C   0  0  0  0  0  0  0  0  0  0  0  0
  -25.9021  -20.9399   19.4662 C   0  0  0  0  0  0  0  0  0  0  0  0
  -27.0781  -26.9128   19.7506 C   0  0  0  0  0  0  0  0  0  0  0  0
  -26.8699  -20.2188   18.7524 C   0  0  0  0  0  0  0  0  0  0  0  0
  -22.8537  -18.2537   21.9266 C   0  0  0  0  0  0  0  0  0  0  0  0
  -25.1223  -19.3026   17.3324 C   0  0  0  0  0  0  0  0  0  0  0  0
  -21.4879  -19.4260   23.4375 C   0  0  0  0  0  0  0  0  0  0  0  0
  -20.0753  -19.4817   25.8425 C   0  0  0  0  0  0  0  0  0  0  0  0
  -20.4540  -18.5165   23.6603 C   0  0  0  0  0  0  0  0  0  0  0  0
  -24.9140  -14.6938   20.9368 C   0  0  0  0  0  0  0  0  0  0  0  0
  -25.4715  -12.5937   20.5994 C   0  0  0  0  0  0  0  0  0  0  0  0
  -23.1556  -12.8999   21.4891 C   0  0  0  0  0  0  0  0  0  0  0  0
  -27.9879  -23.3364   19.5642 C   0  0  0  0  0  0  0  0  0  0  0  0
  -29.9119  -21.0922   20.8999 C   0  0  0  0  0  0  0  0  0  0  0  0
  -30.6649  -17.7876   21.2990 C   0  0  0  0  0  0  0  0  0  0  0  0
  -30.0979  -13.6398   16.9453 C   0  0  0  0  0  0  0  0  0  0  0  0
  -29.0605  -28.1939   20.7095 C   0  0  0  0  0  0  0  0  0  0  0  0
  -26.3004  -21.7993   20.6346 C   0  0  0  0  0  0  0  0  0  0  0  0
  -28.3335  -20.2983   19.0989 C   0  0  0  0  0  0  0  0  0  0  0  0
  -29.8692  -26.9139   20.5150 C   0  0  0  0  0  0  0  0  0  0  0  0
  -30.2475  -12.5266   20.3239 C   0  0  0  0  0  0  0  0  0  0  0  0
  -29.4614  -26.2162   19.2213 C   0  0  0  0  0  0  0  0  0  0  0  0
  -28.8540  -12.8369   20.8733 C   0  0  0  0  0  0  0  0  0  0  0  0
  -30.7188  -13.5980   19.3431 C   0  0  0  0  0  0  0  0  0  0  0  0
  -28.3919  -14.1879   18.7853 C   0  0  0  0  0  0  0  0  0  0  0  0
  -27.9844  -25.8056   19.2578 C   0  0  1  0  0  0  0  0  0  0  0  0
  -27.7568  -22.2498   20.5759 C   0  0  1  0  0  0  0  0  0  0  0  0
  -27.8503  -13.1069   19.7362 C   0  0  2  0  0  0  0  0  0  0  0  0
  -32.3166  -16.2646   22.4169 C   0  0  0  0  0  0  0  0  0  0  0  0
  -31.9873  -21.7863   18.7736 C   0  0  0  0  0  0  0  0  0  0  0  0
  -33.1673  -19.6487   19.3273 C   0  0  0  0  0  0  0  0  0  0  0  0
  -32.9223  -21.4221   21.0644 C   0  0  0  0  0  0  0  0  0  0  0  0
  -28.5507  -16.4876   22.9111 C   0  0  0  0  0  0  0  0  0  0  0  0
  -28.0696  -13.9886   13.7635 C   0  0  0  0  0  0  0  0  0  0  0  0
  -26.9283  -13.0239   14.0868 C   0  0  0  0  0  0  0  0  0  0  0  0
  -29.3217  -13.7102   14.5891 C   0  0  0  0  0  0  0  0  0  0  0  0
  -25.6771  -13.3470   13.2799 C   0  0  0  0  0  0  0  0  0  0  0  0
  -23.5787  -18.8953   15.5696 C   0  0  0  0  0  0  0  0  0  1  0  0
  -23.7098  -18.4316   14.1318 C   0  0  0  0  0  0  0  0  0  0  0  0
  -24.0833  -15.0128   12.8239 C   0  0  0  0  0  0  0  0  0  0  0  0
  -23.9460  -16.5225   12.7818 C   0  0  0  0  0  0  0  0  0  0  0  0
  -30.8966  -20.0770   20.3720 C   0  0  1  0  0  0  0  0  0  0  0  0
  -30.9734  -16.9674   22.5385 C   0  0  2  0  0  0  0  0  0  0  0  0
  -32.2161  -20.7333   19.8763 C   0  0  0  0  0  0  0  0  0  0  0  0
  -26.1642  -14.7503   20.4701 N   0  0  0  0  0  0  0  0  0  0  0  0
  -26.4755  -13.4577   20.2746 N   0  0  0  0  0  0  0  0  0  0  0  0
  -28.6736  -21.1568   20.2455 N   0  0  0  0  0  0  0  0  0  0  0  0
  -29.7229  -13.8047   18.2889 N   0  0  0  0  0  0  0  0  0  0  0  0
  -25.6164  -11.2584   20.4635 N   0  0  0  0  0  0  0  0  0  0  0  0
  -22.2015  -13.8385   21.9050 N   0  0  0  0  0  0  0  0  0  0  0  0
  -27.8108  -24.6139   20.0604 N   0  0  0  0  0  0  0  0  0  0  0  0
  -31.0804  -19.0953   21.4354 N   0  0  0  0  0  0  0  0  0  0  0  0
  -29.0918  -13.8485   16.0100 N   0  0  0  0  0  0  0  0  0  0  0  0
  -29.9203  -15.9347   22.7517 N   0  3  0  0  0  0  0  0  0  0  0  0
  -22.8765  -11.6779   21.5376 O   0  0  0  0  0  0  0  0  0  0  0  0
  -28.3049  -23.0380   18.4188 O   0  0  0  0  0  0  0  0  0  0  0  0
  -30.2271  -21.7969   21.8621 O   0  0  0  0  0  0  0  0  0  0  0  0
  -30.1140  -17.3146   20.3073 O   0  0  0  0  0  0  0  0  0  0  0  0
  -31.2432  -13.3244   16.6048 O   0  0  0  0  0  0  0  0  0  0  0  0
  -22.1906  -19.3991   22.2445 O   0  0  0  0  0  0  0  0  0  0  0  0
  -24.7474  -18.5096   16.2920 O   0  0  0  0  0  0  0  0  0  1  0  0
  -25.2519  -14.6734   13.5603 O   0  0  0  0  0  0  0  0  0  0  0  0
  -23.8201  -17.0137   14.1090 O   0  0  0  0  0  0  0  0  0  0  0  0
  -19.3981  -19.5076   26.9979 F   0  0  0  0  0  0  0  0  0  0  0  0
  -20.1355  -17.6130   22.7233 F   0  0  0  0  0  0  0  0  0  0  0  0
  1  2  1  0  0  0  0
  1  5  2  0  0  0  0
  2  6  2  0  0  0  0
  3  8  2  0  0  0  0
  3 15  1  0  0  0  0
  4  9  1  0  0  0  0
  4 15  2  0  0  0  0
  5 17  1  0  0  0  0
  6 19  1  0  0  0  0
  7 10  2  0  0  0  0
  7 18  1  0  0  0  0
  8 21  1  0  0  0  0
  9 21  2  0  0  0  0
 10 22  1  0  0  0  0
 11 12  2  0  0  0  0
 11 23  1  0  0  0  0
 12 24  1  0  0  0  0
 13 20  1  0  0  0  0
 13 22  2  0  0  0  0
 14 24  2  0  0  0  0
 14 25  1  0  0  0  0
 15 26  1  0  0  0  0
 16 26  1  0  0  0  0
 16 27  2  0  0  0  0
 16 28  1  0  0  0  0
 17 19  2  0  0  0  0
 17 33  1  0  0  0  0
 18 20  2  0  0  0  0
 18 34  1  0  0  0  0
 19 42  1  0  0  0  0
 20 35  1  0  0  0  0
 21 76  1  0  0  0  0
 22 77  1  0  0  0  0
 23 25  2  0  0  0  0
 23 76  1  0  0  0  0
 24 80  1  0  0  0  0
 25 81  1  0  0  0  0
 26 61  2  0  0  0  0
 27 62  1  0  0  0  0
 27 65  1  0  0  0  0
 28 66  1  0  0  0  0
 28 71  2  0  0  0  0
 29 43  1  0  0  0  0
 29 67  1  0  0  0  0
 29 72  2  0  0  0  0
 30 58  1  0  0  0  0
 30 63  1  0  0  0  0
 30 73  2  0  0  0  0
 31 59  1  0  0  0  0
 31 68  1  0  0  0  0
 31 74  2  0  0  0  0
 32 64  1  0  0  0  0
 32 69  1  0  0  0  0
 32 75  2  0  0  0  0
 33 36  1  0  0  0  0
 34 43  1  0  0  0  0
 35 63  1  0  0  0  0
 36 38  1  0  0  0  0
 37 39  1  0  0  0  0
 37 40  1  0  0  0  0
 38 42  1  0  0  0  0
 39 44  1  0  0  0  0
 40 64  1  0  0  0  0
 41 44  1  0  0  0  0
 41 64  1  0  0  0  0
 42 67  1  0  0  0  0
 43 63  1  0  0  0  0
 44 62  1  0  0  0  0
 45 59  1  0  0  0  0
 46 60  1  0  0  0  0
 47 60  1  0  0  0  0
 48 60  1  0  0  0  0
 49 70  1  0  0  0  0
 50 51  1  0  0  0  0
 50 52  1  0  0  0  0
 51 53  1  0  0  0  0
 52 69  1  0  0  0  0
 53 78  1  0  0  0  0
 54 55  1  0  0  0  0
 54 77  1  0  0  0  0
 55 79  1  0  0  0  0
 56 57  1  0  0  0  0
 56 78  1  0  0  0  0
 57 79  1  0  0  0  0
 58 60  1  0  0  0  0
 58 68  1  0  0  0  0
 59 70  1  0  0  0  0
 61 62  1  0  0  0  0
M  CHG  1  70   1
M  ISO  4  32 100  54 101  69 100  77 101
M  END
> <Batch ID>
0001

> <Smiles>
CNC(C)C(=O)NC(C(=O)N1Cc2cc([101O:1][101CH2:1]COCCOCCCC[100NH:0][100C:0](=O)N3CCCC(n4nc(-c5ccc(Oc6ccc(F)cc6F)cc5)c(C(N)=O)c4N)C3)ccc2CC1C(=O)NC1CCCc2ccccc21)C(C)(C)C

> <Shape>
0.212

> <Color>
0.091

> <Negative vol penalty>
0.000

$$$$

  -OEChem-04052315163D

 76 83  0     1  0  0  0  0  0999 V2000
  -23.6992   -8.5157   21.8889 C   0  0  0  0  0  0  0  0  0  0  0  0
  -24.8792   -9.1930   21.5987 C   0  0  0  0  0  0  0  0  0  0  0  0
  -26.2545  -27.9989   21.3502 C   0  0  0  0  0  0  0  0  0  0  0  0
  -25.9997  -28.1355   18.9515 C   0  0  0  0  0  0  0  0  0  0  0  0
  -22.4695   -9.1374   21.6762 C   0  0  0  0  0  0  0  0  0  0  0  0
  -24.8301  -10.4921   21.0945 C   0  0  0  0  0  0  0  0  0  0  0  0
  -28.7890  -15.0282   22.2155 C   0  0  0  0  0  0  0  0  0  0  0  0
  -25.4349  -29.1174   21.5010 C   0  0  0  0  0  0  0  0  0  0  0  0
  -25.1800  -29.2540   19.1023 C   0  0  0  0  0  0  0  0  0  0  0  0
  -29.8731  -15.5267   21.4943 C   0  0  0  0  0  0  0  0  0  0  0  0
  -25.7223  -32.4727   21.2118 C   0  0  0  0  0  0  0  0  0  0  0  0
  -26.1354  -33.4625   22.1035 C   0  0  0  0  0  0  0  0  0  0  0  0
  -28.4555  -17.2397   20.5588 C   0  0  0  0  0  0  0  0  0  0  0  0
  -24.1159  -33.1453   23.3912 C   0  0  0  0  0  0  0  0  0  0  0  0
  -26.5370  -27.5080   20.0754 C   0  0  0  0  0  0  0  0  0  0  0  0
  -26.9840  -25.0037   19.8844 C   0  0  0  0  0  0  0  0  0  0  0  0
  -22.4056  -10.4483   21.1782 C   0  0  0  0  0  0  0  0  0  0  0  0
  -27.5254  -15.6261   22.1051 C   0  0  0  0  0  0  0  0  0  0  0  0
  -23.5984  -11.1315   20.8736 C   0  0  0  0  0  0  0  0  0  0  0  0
  -27.3576  -16.7485   21.2815 C   0  0  0  0  0  0  0  0  0  0  0  0
  -24.8976  -29.7449   20.3771 C   0  0  0  0  0  0  0  0  0  0  0  0
  -29.7058  -16.6308   20.6636 C   0  0  0  0  0  0  0  0  0  0  0  0
  -24.5059  -31.8192   21.4097 C   0  0  0  0  0  0  0  0  0  0  0  0
  -25.3323  -33.7988   23.1932 C   0  0  0  0  0  0  0  0  0  0  0  0
  -23.7028  -32.1555   22.4994 C   0  0  0  0  0  0  0  0  0  0  0  0
  -27.3841  -26.3530   19.9189 C   0  0  0  0  0  0  0  0  0  0  0  0
  -28.1536  -24.3029   19.7194 C   0  0  0  0  0  0  0  0  0  0  0  0
  -25.6723  -24.4348   19.9918 C   0  0  0  0  0  0  0  0  0  0  0  0
  -24.6670  -14.6611   21.1042 C   0  0  0  0  0  0  0  0  0  0  0  0
  -23.7352  -17.5715   22.1921 C   0  0  0  0  0  0  0  0  0  0  0  0
  -24.5873  -20.7845   22.9650 C   0  0  0  0  0  0  0  0  0  0  0  0
  -33.1018  -23.6086   17.2337 C   0  0  0  0  0  0  0  0  0  0  0  0
  -21.0521  -11.0616   20.9201 C   0  0  0  0  0  0  0  0  0  0  0  0
  -26.3722  -15.0928   22.9102 C   0  0  0  0  0  0  0  0  0  0  0  0
  -26.0262  -17.4391   21.1438 C   0  0  0  0  0  0  0  0  0  0  0  0
  -21.0948  -12.5764   20.7362 C   0  0  0  0  0  0  0  0  0  0  0  0
  -32.9702  -25.8176   20.0229 C   0  0  0  0  0  0  0  0  0  0  0  0
  -22.2224  -12.9672   19.7862 C   0  0  0  0  0  0  0  0  0  0  0  0
  -31.4731  -26.0472   20.2374 C   0  0  0  0  0  0  0  0  0  0  0  0
  -33.3168  -25.7023   18.5401 C   0  0  0  0  0  0  0  0  0  0  0  0
  -31.0384  -24.9247   18.0125 C   0  0  0  0  0  0  0  0  0  0  0  0
  -23.5869  -12.5508   20.3486 C   0  0  1  0  0  0  0  0  0  0  0  0
  -25.0129  -15.4646   22.3258 C   0  0  1  0  0  0  0  0  0  0  0  0
  -30.6319  -24.9917   19.4946 C   0  0  2  0  0  0  0  0  0  0  0  0
  -23.6027  -22.9382   23.7953 C   0  0  0  0  0  0  0  0  0  0  0  0
  -22.5070  -18.0669   19.4432 C   0  0  0  0  0  0  0  0  0  0  0  0
  -22.3988  -20.5036   20.0078 C   0  0  0  0  0  0  0  0  0  0  0  0
  -21.1133  -18.8523   21.3654 C   0  0  0  0  0  0  0  0  0  0  0  0
  -26.3240  -20.7893   25.3615 C   0  0  0  0  0  0  0  0  0  0  0  0
  -31.5932  -19.8735   17.5173 C   0  0  0  0  0  0  0  0  0  0  0  0
  -32.9044  -20.3146   16.8603 C   0  0  0  0  0  0  0  0  0  0  0  0
  -31.8105  -18.6727   18.4361 C   0  0  0  0  0  0  0  0  0  0  0  0
  -32.7247  -21.5213   15.9452 C   0  0  0  0  0  0  0  0  0  0  0  0
  -30.5194  -18.2527   19.1263 C   0  0  0  0  0  0  0  0  0  1  0  0
  -23.6292  -18.9531   21.5930 C   0  0  1  0  0  0  0  0  0  0  0  0
  -24.2918  -21.6395   24.1841 C   0  0  2  0  0  0  0  0  0  0  0  0
  -22.4369  -19.0800   20.6032 C   0  0  0  0  0  0  0  0  0  0  0  0
  -28.7047  -26.5027   19.7867 N   0  0  0  0  0  0  0  0  0  0  0  0
  -29.1446  -25.2385   19.6675 N   0  0  0  0  0  0  0  0  0  0  0  0
  -24.9278  -16.8764   21.9465 N   0  0  0  0  0  0  0  0  0  0  0  0
  -32.4851  -24.6836   17.8948 N   0  0  0  0  0  0  0  0  0  0  0  0
  -28.4207  -22.9837   19.6151 N   0  0  0  0  0  0  0  0  0  0  0  0
  -24.5810  -25.2984   20.1577 N   0  0  0  0  0  0  0  0  0  0  0  0
  -24.0128  -13.4750   21.3776 N   0  0  0  0  0  0  0  0  0  0  0  0
  -23.5747  -19.8821   22.7165 N   0  0  0  0  0  0  0  0  0  0  0  0
  -32.2406  -22.6846   16.6546 N   0  0  0  0  0  0  0  0  0  0  0  0
  -25.5549  -21.9739   24.9007 N   0  3  0  0  0  0  0  0  0  0  0  0
  -25.4757  -23.1963   19.9587 O   0  0  0  0  0  0  0  0  0  0  0  0
  -24.9697  -15.0864   19.9955 O   0  0  0  0  0  0  0  0  0  0  0  0
  -22.7973  -17.1283   22.8596 O   0  0  0  0  0  0  0  0  0  0  0  0
  -25.6120  -20.9075   22.2977 O   0  0  0  0  0  0  0  0  0  0  0  0
  -34.3290  -23.4788   17.1693 O   0  0  0  0  0  0  0  0  0  0  0  0
  -24.0975  -30.8362   20.5239 O   0  0  0  0  0  0  0  0  0  0  0  0
  -30.7622  -17.1189   19.9581 O   0  0  0  0  0  0  0  0  0  1  0  0
  -25.7299  -34.7482   24.0503 F   0  0  0  0  0  0  0  0  0  0  0  0
  -22.5338  -31.5303   22.6954 F   0  0  0  0  0  0  0  0  0  0  0  0
  1  2  1  0  0  0  0
  1  5  2  0  0  0  0
  2  6  2  0  0  0  0
  3  8  2  0  0  0  0
  3 15  1  0  0  0  0
  4  9  1  0  0  0  0
  4 15  2  0  0  0  0
  5 17  1  0  0  0  0
  6 19  1  0  0  0  0
  7 10  2  0  0  0  0
  7 18  1  0  0  0  0
  8 21  1  0  0  0  0
  9 21  2  0  0  0  0
 10 22  1  0  0  0  0
 11 12  2  0  0  0  0
 11 23  1  0  0  0  0
 12 24  1  0  0  0  0
 13 20  1  0  0  0  0
 13 22  2  0  0  0  0
 14 24  2  0  0  0  0
 14 25  1  0  0  0  0
 15 26  1  0  0  0  0
 16 26  1  0  0  0  0
 16 27  2  0  0  0  0
 16 28  1  0  0  0  0
 17 19  2  0  0  0  0
 17 33  1  0  0  0  0
 18 20  2  0  0  0  0
 18 34  1  0  0  0  0
 19 42  1  0  0  0  0
 20 35  1  0  0  0  0
 21 73  1  0  0  0  0
 22 74  1  0  0  0  0
 23 25  2  0  0  0  0
 23 73  1  0  0  0  0
 24 75  1  0  0  0  0
 25 76  1  0  0  0  0
 26 58  2  0  0  0  0
 27 59  1  0  0  0  0
 27 62  1  0  0  0  0
 28 63  1  0  0  0  0
 28 68  2  0  0  0  0
 29 43  1  0  0  0  0
 29 64  1  0  0  0  0
 29 69  2  0  0  0  0
 30 55  1  0  0  0  0
 30 60  1  0  0  0  0
 30 70  2  0  0  0  0
 31 56  1  0  0  0  0
 31 65  1  0  0  0  0
 31 71  2  0  0  0  0
 32 61  1  0  0  0  0
 32 66  1  0  0  0  0
 32 72  2  0  0  0  0
 33 36  1  0  0  0  0
 34 43  1  0  0  0  0
 35 60  1  0  0  0  0
 36 38  1  0  0  0  0
 37 39  1  0  0  0  0
 37 40  1  0  0  0  0
 38 42  1  0  0  0  0
 39 44  1  0  0  0  0
 40 61  1  0  0  0  0
 41 44  1  0  0  0  0
 41 61  1  0  0  0  0
 42 64  1  0  0  0  0
 43 60  1  0  0  0  0
 44 59  1  0  0  0  0
 45 56  1  0  0  0  0
 46 57  1  0  0  0  0
 47 57  1  0  0  0  0
 48 57  1  0  0  0  0
 49 67  1  0  0  0  0
 50 51  1  0  0  0  0
 50 52  1  0  0  0  0
 51 53  1  0  0  0  0
 52 54  1  0  0  0  0
 53 66  1  0  0  0  0
 54 74  1  0  0  0  0
 55 57  1  0  0  0  0
 55 65  1  0  0  0  0
 56 67  1  0  0  0  0
 58 59  1  0  0  0  0
M  CHG  1  67   1
M  ISO  4  32 100  54 101  66 100  74 101
M  END
> <Batch ID>
0001

> <Smiles>
CNC(C)C(=O)NC(C(=O)N1Cc2cc([101O:1][101CH2:1]CCCC[100NH:0][100C:0](=O)N3CCCC(n4nc(-c5ccc(Oc6ccc(F)cc6F)cc5)c(C(N)=O)c4N)C3)ccc2CC1C(=O)NC1CCCc2ccccc21)C(C)(C)C

> <Shape>
0.204

> <Color>
0.079

> <Negative vol penalty>
0.000

$$$$

  -OEChem-04052315163D

 74 81  0     1  0  0  0  0  0999 V2000
  -30.6713  -22.7308   23.0468 C   0  0  0  0  0  0  0  0  0  0  0  0
  -30.0155  -23.6422   22.2269 C   0  0  0  0  0  0  0  0  0  0  0  0
  -27.5529  -17.6118   20.5783 C   0  0  0  0  0  0  0  0  0  0  0  0
  -26.2038  -17.8257   18.5855 C   0  0  0  0  0  0  0  0  0  0  0  0
  -30.5376  -22.8222   24.4307 C   0  0  0  0  0  0  0  0  0  0  0  0
  -29.2355  -24.6524   22.7908 C   0  0  0  0  0  0  0  0  0  0  0  0
  -27.4442  -28.0637   19.7317 C   0  0  0  0  0  0  0  0  0  0  0  0
  -27.4986  -16.2226   20.4659 C   0  0  0  0  0  0  0  0  0  0  0  0
  -26.1495  -16.4364   18.4731 C   0  0  0  0  0  0  0  0  0  0  0  0
  -26.4146  -27.8006   18.8291 C   0  0  0  0  0  0  0  0  0  0  0  0
  -29.0095  -13.8102   18.6410 C   0  0  0  0  0  0  0  0  0  0  0  0
  -30.1960  -13.0986   18.8183 C   0  0  0  0  0  0  0  0  0  0  0  0
  -24.8628  -28.9523   20.2729 C   0  0  0  0  0  0  0  0  0  0  0  0
  -29.2068  -11.9118   20.6757 C   0  0  0  0  0  0  0  0  0  0  0  0
  -26.9054  -18.4134   19.6381 C   0  0  0  0  0  0  0  0  0  0  0  0
  -27.9232  -20.7101   19.1945 C   0  0  0  0  0  0  0  0  0  0  0  0
  -29.7453  -23.8268   25.0105 C   0  0  0  0  0  0  0  0  0  0  0  0
  -27.1882  -28.7647   20.9189 C   0  0  0  0  0  0  0  0  0  0  0  0
  -29.1074  -24.7759   24.1861 C   0  0  0  0  0  0  0  0  0  0  0  0
  -25.8913  -29.2252   21.1877 C   0  0  0  0  0  0  0  0  0  0  0  0
  -26.7970  -15.6349   19.4134 C   0  0  0  0  0  0  0  0  0  0  0  0
  -25.1232  -28.2425   19.1010 C   0  0  0  0  0  0  0  0  0  0  0  0
  -27.9216  -13.5726   19.4811 C   0  0  0  0  0  0  0  0  0  0  0  0
  -30.2947  -12.1495   19.8356 C   0  0  0  0  0  0  0  0  0  0  0  0
  -28.0202  -12.6234   20.4984 C   0  0  0  0  0  0  0  0  0  0  0  0
  -26.9606  -19.8485   19.7539 C   0  0  0  0  0  0  0  0  0  0  0  0
  -27.5329  -21.9655   19.5924 C   0  0  0  0  0  0  0  0  0  0  0  0
  -29.0677  -20.4032   18.3872 C   0  0  0  0  0  0  0  0  0  0  0  0
  -27.4207  -28.0908   24.0166 C   0  0  0  0  0  0  0  0  0  0  0  0
  -26.6555  -31.2246   24.3574 C   0  0  0  0  0  0  0  0  0  0  0  0
  -25.1909  -34.0096   23.0361 C   0  0  0  0  0  0  0  0  0  0  0  0
  -22.6185  -24.9339   20.5016 C   0  0  0  0  0  0  0  0  0  0  0  0
  -29.6417  -23.8842   26.5142 C   0  0  0  0  0  0  0  0  0  0  0  0
  -28.3149  -29.0636   21.8695 C   0  0  0  0  0  0  0  0  0  0  0  0
  -25.5681  -29.9997   22.4384 C   0  0  0  0  0  0  0  0  0  0  0  0
  -28.4495  -24.7039   26.9971 C   0  0  0  0  0  0  0  0  0  0  0  0
  -24.6955  -23.7643   23.2068 C   0  0  0  0  0  0  0  0  0  0  0  0
  -28.4215  -26.0488   26.2865 C   0  0  0  0  0  0  0  0  0  0  0  0
  -25.5551  -22.6883   22.5445 C   0  0  0  0  0  0  0  0  0  0  0  0
  -23.2937  -23.8075   22.6071 C   0  0  0  0  0  0  0  0  0  0  0  0
  -24.1410  -22.9135   20.4531 C   0  0  0  0  0  0  0  0  0  0  0  0
  -28.2290  -25.8644   24.7759 C   0  0  1  0  0  0  0  0  0  0  0  0
  -27.8390  -29.3392   23.2924 C   0  0  1  0  0  0  0  0  0  0  0  0
  -25.5720  -22.8591   21.0150 C   0  0  2  0  0  0  0  0  0  0  0  0
  -24.6891  -36.4107   23.5654 C   0  0  0  0  0  0  0  0  0  0  0  0
  -24.3913  -30.3421   26.2025 C   0  0  0  0  0  0  0  0  0  0  0  0
  -23.3779  -32.6154   25.9314 C   0  0  0  0  0  0  0  0  0  0  0  0
  -25.6323  -32.3727   26.9714 C   0  0  0  0  0  0  0  0  0  0  0  0
  -26.8002  -34.9716   20.7462 C   0  0  0  0  0  0  0  0  0  0  0  0
  -22.8327  -26.2558   17.1363 C   0  0  0  0  0  0  0  0  0  0  0  0
  -24.2209  -26.7951   17.4436 C   0  0  0  0  0  0  0  0  0  1  0  0
  -22.0658  -25.9051   18.4017 C   0  0  0  0  0  0  0  0  0  0  0  0
  -25.3684  -32.0032   24.4843 C   0  0  1  0  0  0  0  0  0  0  0  0
  -25.6733  -35.4446   22.9245 C   0  0  2  0  0  0  0  0  0  0  0  0
  -24.6978  -31.8171   25.8747 C   0  0  0  0  0  0  0  0  0  0  0  0
  -26.0291  -20.5013   20.4540 N   0  0  0  0  0  0  0  0  0  0  0  0
  -26.4045  -21.7864   20.3372 N   0  0  0  0  0  0  0  0  0  0  0  0
  -26.7024  -30.2613   23.3397 N   0  0  0  0  0  0  0  0  0  0  0  0
  -23.3451  -23.9309   21.1508 N   0  0  0  0  0  0  0  0  0  0  0  0
  -28.0484  -23.1940   19.3744 N   0  0  0  0  0  0  0  0  0  0  0  0
  -29.3224  -19.0616   18.0717 N   0  0  0  0  0  0  0  0  0  0  0  0
  -28.4167  -27.1382   24.1171 N   0  0  0  0  0  0  0  0  0  0  0  0
  -25.6947  -33.3873   24.1587 N   0  0  0  0  0  0  0  0  0  0  0  0
  -25.8408  -35.8250   21.4933 N   0  3  0  0  0  0  0  0  0  0  0  0
  -29.8508  -21.2908   17.9721 O   0  0  0  0  0  0  0  0  0  0  0  0
  -26.2793  -27.9993   24.4531 O   0  0  0  0  0  0  0  0  0  0  0  0
  -27.5876  -31.4674   25.1280 O   0  0  0  0  0  0  0  0  0  0  0  0
  -24.4392  -33.4935   22.2120 O   0  0  0  0  0  0  0  0  0  0  0  0
  -21.9086  -25.7574   21.0762 O   0  0  0  0  0  0  0  0  0  0  0  0
  -26.7440  -14.2793   19.3033 O   0  0  0  0  0  0  0  0  0  0  0  0
  -24.1163  -27.9865   18.2221 O   0  0  0  0  0  0  0  0  0  1  0  0
  -22.7789  -24.9073   19.1416 O   0  0  0  0  0  0  0  0  0  0  0  0
  -31.4336  -11.4651   20.0048 F   0  0  0  0  0  0  0  0  0  0  0  0
  -26.9781  -12.3900   21.3079 F   0  0  0  0  0  0  0  0  0  0  0  0
  1  2  1  0  0  0  0
  1  5  2  0  0  0  0
  2  6  2  0  0  0  0
  3  8  2  0  0  0  0
  3 15  1  0  0  0  0
  4  9  1  0  0  0  0
  4 15  2  0  0  0  0
  5 17  1  0  0  0  0
  6 19  1  0  0  0  0
  7 10  2  0  0  0  0
  7 18  1  0  0  0  0
  8 21  1  0  0  0  0
  9 21  2  0  0  0  0
 10 22  1  0  0  0  0
 11 12  2  0  0  0  0
 11 23  1  0  0  0  0
 12 24  1  0  0  0  0
 13 20  1  0  0  0  0
 13 22  2  0  0  0  0
 14 24  2  0  0  0  0
 14 25  1  0  0  0  0
 15 26  1  0  0  0  0
 16 26  1  0  0  0  0
 16 27  2  0  0  0  0
 16 28  1  0  0  0  0
 17 19  2  0  0  0  0
 17 33  1  0  0  0  0
 18 20  2  0  0  0  0
 18 34  1  0  0  0  0
 19 42  1  0  0  0  0
 20 35  1  0  0  0  0
 21 70  1  0  0  0  0
 22 71  1  0  0  0  0
 23 25  2  0  0  0  0
 23 70  1  0  0  0  0
 24 73  1  0  0  0  0
 25 74  1  0  0  0  0
 26 56  2  0  0  0  0
 27 57  1  0  0  0  0
 27 60  1  0  0  0  0
 28 61  1  0  0  0  0
 28 65  2  0  0  0  0
 29 43  1  0  0  0  0
 29 62  1  0  0  0  0
 29 66  2  0  0  0  0
 30 53  1  0  0  0  0
 30 58  1  0  0  0  0
 30 67  2  0  0  0  0
 31 54  1  0  0  0  0
 31 63  1  0  0  0  0
 31 68  2  0  0  0  0
 32 59  1  0  0  0  0
 32 69  2  0  0  0  0
 32 72  1  0  0  0  0
 33 36  1  0  0  0  0
 34 43  1  0  0  0  0
 35 58  1  0  0  0  0
 36 38  1  0  0  0  0
 37 39  1  0  0  0  0
 37 40  1  0  0  0  0
 38 42  1  0  0  0  0
 39 44  1  0  0  0  0
 40 59  1  0  0  0  0
 41 44  1  0  0  0  0
 41 59  1  0  0  0  0
 42 62  1  0  0  0  0
 43 58  1  0  0  0  0
 44 57  1  0  0  0  0
 45 54  1  0  0  0  0
 46 55  1  0  0  0  0
 47 55  1  0  0  0  0
 48 55  1  0  0  0  0
 49 64  1  0  0  0  0
 50 51  1  0  0  0  0
 50 52  1  0  0  0  0
 51 71  1  0  0  0  0
 52 72  1  0  0  0  0
 53 55  1  0  0  0  0
 53 63  1  0  0  0  0
 54 64  1  0  0  0  0
 56 57  1  0  0  0  0
M  CHG  1  64   1
M  ISO  4  32 100  51 101  71 101  72 100
M  END
> <Batch ID>
0001

> <Smiles>
CNC(C)C(=O)NC(C(=O)N1Cc2cc([101O:1][101CH2:1]CC[100O:0][100C:0](=O)N3CCCC(n4nc(-c5ccc(Oc6ccc(F)cc6F)cc5)c(C(N)=O)c4N)C3)ccc2CC1C(=O)NC1CCCc2ccccc21)C(C)(C)C

> <Shape>
0.211

> <Color>
0.062

> <Negative vol penalty>
0.000

$$$$

  -OEChem-04052315163D

 76 83  0     1  0  0  0  0  0999 V2000
  -27.4315  -18.5349   25.4939 C   0  0  0  0  0  0  0  0  0  0  0  0
  -27.5815  -19.8342   25.0226 C   0  0  0  0  0  0  0  0  0  0  0  0
  -26.7684  -15.1374   21.7172 C   0  0  0  0  0  0  0  0  0  0  0  0
  -28.2118  -14.5726   19.8640 C   0  0  0  0  0  0  0  0  0  0  0  0
  -26.2290  -17.8599   25.2952 C   0  0  0  0  0  0  0  0  0  0  0  0
  -26.5250  -20.4632   24.3630 C   0  0  0  0  0  0  0  0  0  0  0  0
  -27.0991  -25.2217   23.2537 C   0  0  0  0  0  0  0  0  0  0  0  0
  -26.1630  -13.8839   21.6278 C   0  0  0  0  0  0  0  0  0  0  0  0
  -27.6064  -13.3191   19.7745 C   0  0  0  0  0  0  0  0  0  0  0  0
  -27.9612  -25.6632   22.2509 C   0  0  0  0  0  0  0  0  0  0  0  0
  -23.9927  -10.9663   21.6545 C   0  0  0  0  0  0  0  0  0  0  0  0
  -22.6008  -10.9100   21.7263 C   0  0  0  0  0  0  0  0  0  0  0  0
  -26.0716  -26.0342   20.7980 C   0  0  0  0  0  0  0  0  0  0  0  0
  -22.4430  -12.3155   19.7675 C   0  0  0  0  0  0  0  0  0  0  0  0
  -27.7927  -15.4817   20.8353 C   0  0  0  0  0  0  0  0  0  0  0  0
  -29.5438  -17.1244   21.6973 C   0  0  0  0  0  0  0  0  0  0  0  0
  -25.1620  -18.4772   24.6217 C   0  0  0  0  0  0  0  0  0  0  0  0
  -25.7153  -25.1728   23.0321 C   0  0  0  0  0  0  0  0  0  0  0  0
  -25.2952  -19.8072   24.1737 C   0  0  0  0  0  0  0  0  0  0  0  0
  -25.1938  -25.5941   21.8006 C   0  0  0  0  0  0  0  0  0  0  0  0
  -26.5820  -12.9748   20.6564 C   0  0  0  0  0  0  0  0  0  0  0  0
  -27.4478  -26.0668   21.0218 C   0  0  0  0  0  0  0  0  0  0  0  0
  -24.6097  -11.6972   20.6393 C   0  0  0  0  0  0  0  0  0  0  0  0
  -21.8260  -11.5846   20.7828 C   0  0  0  0  0  0  0  0  0  0  0  0
  -23.8349  -12.3718   19.6958 C   0  0  0  0  0  0  0  0  0  0  0  0
  -28.4181  -16.7766   20.9268 C   0  0  0  0  0  0  0  0  0  0  0  0
  -29.7369  -18.4596   21.4397 C   0  0  0  0  0  0  0  0  0  0  0  0
  -30.3434  -16.3131   22.5680 C   0  0  0  0  0  0  0  0  0  0  0  0
  -23.5310  -22.8640   22.9879 C   0  0  0  0  0  0  0  0  0  0  0  0
  -28.2333  -21.7765   16.7479 C   0  0  0  0  0  0  0  0  0  0  0  0
  -21.4744  -25.3507   22.6576 C   0  0  0  0  0  0  0  0  0  0  0  0
  -29.5239  -23.8233   17.4882 C   0  0  0  0  0  0  0  0  0  0  0  0
  -20.9679  -28.5817   21.6823 C   0  0  0  0  0  0  0  0  0  0  0  0
  -23.8800  -17.7033   24.4410 C   0  0  0  0  0  0  0  0  0  0  0  0
  -24.7966  -24.7194   24.1333 C   0  0  0  0  0  0  0  0  0  0  0  0
  -23.7142  -25.5800   21.5194 C   0  0  0  0  0  0  0  0  0  0  0  0
  -22.9839  -18.2835   23.3517 C   0  0  0  0  0  0  0  0  0  0  0  0
  -27.3704  -22.4266   20.2206 C   0  0  0  0  0  0  0  0  0  0  0  0
  -22.8212  -19.7823   23.5560 C   0  0  0  0  0  0  0  0  0  0  0  0
  -27.6213  -21.0610   20.8587 C   0  0  0  0  0  0  0  0  0  0  0  0
  -26.8257  -22.2913   18.8011 C   0  0  0  0  0  0  0  0  0  0  0  0
  -27.9367  -20.0955   18.5390 C   0  0  0  0  0  0  0  0  0  0  0  0
  -24.1704  -20.5007   23.4265 C   0  0  1  0  0  0  0  0  0  0  0  0
  -23.4477  -24.2245   23.6203 C   0  0  1  0  0  0  0  0  0  0  0  0
  -28.5154  -20.1881   19.9608 C   0  0  2  0  0  0  0  0  0  0  0  0
  -19.1725  -30.3251   21.4972 C   0  0  0  0  0  0  0  0  0  0  0  0
  -20.3648  -23.9426   20.1886 C   0  0  0  0  0  0  0  0  0  0  0  0
  -19.2879  -26.1035   19.5259 C   0  0  0  0  0  0  0  0  0  0  0  0
  -18.6335  -24.9885   21.6593 C   0  0  0  0  0  0  0  0  0  0  0  0
  -22.3808  -30.4004   23.5410 C   0  0  0  0  0  0  0  0  0  0  0  0
  -28.5207  -23.2392   16.5207 C   0  0  0  0  0  0  0  0  0  0  0  0
  -30.1308  -25.9530   18.5971 C   0  0  0  0  0  0  0  0  0  0  0  0
  -29.6009  -25.9410   20.0198 C   0  0  0  0  0  0  0  0  0  1  0  0
  -20.8932  -26.1095   21.4891 C   0  0  1  0  0  0  0  0  0  0  0  0
  -20.2747  -29.7444   22.3693 C   0  0  2  0  0  0  0  0  0  0  0  0
  -19.8230  -25.2846   20.7201 C   0  0  0  0  0  0  0  0  0  0  0  0
  -27.9302  -17.8077   20.2320 N   0  0  0  0  0  0  0  0  0  0  0  0
  -28.7533  -18.8166   20.5650 N   0  0  0  0  0  0  0  0  0  0  0  0
  -22.8573  -25.1224   22.6256 N   0  0  0  0  0  0  0  0  0  0  0  0
  -27.6909  -21.4304   17.9857 N   0  0  0  0  0  0  0  0  0  0  0  0
  -30.6504  -19.3515   21.8785 N   0  0  0  0  0  0  0  0  0  0  0  0
  -30.0060  -14.9611   22.7182 N   0  0  0  0  0  0  0  0  0  0  0  0
  -24.0114  -21.8802   23.8309 N   0  0  0  0  0  0  0  0  0  0  0  0
  -29.3039  -25.1764   17.7119 N   0  0  0  0  0  0  0  0  0  0  0  0
  -20.4008  -27.3730   22.0271 N   0  0  0  0  0  0  0  0  0  0  0  0
  -21.2543  -30.8262   22.6712 N   0  3  0  0  0  0  0  0  0  0  0  0
  -31.3180  -16.7773   23.2068 O   0  0  0  0  0  0  0  0  0  0  0  0
  -23.1836  -22.7175   21.8219 O   0  0  0  0  0  0  0  0  0  0  0  0
  -28.4866  -20.9670   15.8520 O   0  0  0  0  0  0  0  0  0  0  0  0
  -20.7298  -24.9807   23.5689 O   0  0  0  0  0  0  0  0  0  0  0  0
  -30.4199  -23.1605   18.0046 O   0  0  0  0  0  0  0  0  0  0  0  0
  -21.9151  -28.7310   20.9135 O   0  0  0  0  0  0  0  0  0  0  0  0
  -25.9917  -11.7515   20.5690 O   0  0  0  0  0  0  0  0  0  0  0  0
  -28.2871  -26.4975   20.0411 O   0  0  0  0  0  0  0  0  0  1  0  0
  -20.4894  -11.5292   20.8509 F   0  0  0  0  0  0  0  0  0  0  0  0
  -24.4220  -13.0747   18.7175 F   0  0  0  0  0  0  0  0  0  0  0  0
  1  2  1  0  0  0  0
  1  5  2  0  0  0  0
  2  6  2  0  0  0  0
  3  8  2  0  0  0  0
  3 15  1  0  0  0  0
  4  9  1  0  0  0  0
  4 15  2  0  0  0  0
  5 17  1  0  0  0  0
  6 19  1  0  0  0  0
  7 10  2  0  0  0  0
  7 18  1  0  0  0  0
  8 21  1  0  0  0  0
  9 21  2  0  0  0  0
 10 22  1  0  0  0  0
 11 12  2  0  0  0  0
 11 23  1  0  0  0  0
 12 24  1  0  0  0  0
 13 20  1  0  0  0  0
 13 22  2  0  0  0  0
 14 24  2  0  0  0  0
 14 25  1  0  0  0  0
 15 26  1  0  0  0  0
 16 26  1  0  0  0  0
 16 27  2  0  0  0  0
 16 28  1  0  0  0  0
 17 19  2  0  0  0  0
 17 34  1  0  0  0  0
 18 20  2  0  0  0  0
 18 35  1  0  0  0  0
 19 43  1  0  0  0  0
 20 36  1  0  0  0  0
 21 73  1  0  0  0  0
 22 74  1  0  0  0  0
 23 25  2  0  0  0  0
 23 73  1  0  0  0  0
 24 75  1  0  0  0  0
 25 76  1  0  0  0  0
 26 57  2  0  0  0  0
 27 58  1  0  0  0  0
 27 61  1  0  0  0  0
 28 62  1  0  0  0  0
 28 67  2  0  0  0  0
 29 44  1  0  0  0  0
 29 63  1  0  0  0  0
 29 68  2  0  0  0  0
 30 51  1  0  0  0  0
 30 60  1  0  0  0  0
 30 69  2  0  0  0  0
 31 54  1  0  0  0  0
 31 59  1  0  0  0  0
 31 70  2  0  0  0  0
 32 51  1  0  0  0  0
 32 64  1  0  0  0  0
 32 71  2  0  0  0  0
 33 55  1  0  0  0  0
 33 65  1  0  0  0  0
 33 72  2  0  0  0  0
 34 37  1  0  0  0  0
 35 44  1  0  0  0  0
 36 59  1  0  0  0  0
 37 39  1  0  0  0  0
 38 40  1  0  0  0  0
 38 41  1  0  0  0  0
 39 43  1  0  0  0  0
 40 45  1  0  0  0  0
 41 60  1  0  0  0  0
 42 45  1  0  0  0  0
 42 60  1  0  0  0  0
 43 63  1  0  0  0  0
 44 59  1  0  0  0  0
 45 58  1  0  0  0  0
 46 55  1  0  0  0  0
 47 56  1  0  0  0  0
 48 56  1  0  0  0  0
 49 56  1  0  0  0  0
 50 66  1  0  0  0  0
 52 53  1  0  0  0  0
 52 64  1  0  0  0  0
 53 74  1  0  0  0  0
 54 56  1  0  0  0  0
 54 65  1  0  0  0  0
 55 66  1  0  0  0  0
 57 58  1  0  0  0  0
M  CHG  1  66   1
M  ISO  4  30 100  51 100  53 101  74 101
M  END
> <Batch ID>
0001

> <Smiles>
CNC(C)C(=O)NC(C(=O)N1Cc2cc([101O:1][101CH2:1]CNC(=O)[100CH2:0][100C:0](=O)N3CCCC(n4nc(-c5ccc(Oc6ccc(F)cc6F)cc5)c(C(N)=O)c4N)C3)ccc2CC1C(=O)NC1CCCc2ccccc21)C(C)(C)C

> <Shape>
0.205

> <Color>
0.040

> <Negative vol penalty>
0.000

$$$$

  -OEChem-04052315163D

 76 83  0     1  0  0  0  0  0999 V2000
  -21.6283  -12.2546   21.2384 C   0  0  0  0  0  0  0  0  0  0  0  0
  -21.6950  -13.5142   21.8251 C   0  0  0  0  0  0  0  0  0  0  0  0
  -25.7863  -26.6236   19.4060 C   0  0  0  0  0  0  0  0  0  0  0  0
  -25.2851  -28.7205   20.4964 C   0  0  0  0  0  0  0  0  0  0  0  0
  -22.7705  -11.6885   20.6736 C   0  0  0  0  0  0  0  0  0  0  0  0
  -22.9043  -14.2082   21.8483 C   0  0  0  0  0  0  0  0  0  0  0  0
  -22.3729  -19.0808   20.5753 C   0  0  0  0  0  0  0  0  0  0  0  0
  -27.1508  -26.8826   19.5351 C   0  0  0  0  0  0  0  0  0  0  0  0
  -26.6496  -28.9795   20.6256 C   0  0  0  0  0  0  0  0  0  0  0  0
  -21.8684  -19.9418   21.5489 C   0  0  0  0  0  0  0  0  0  0  0  0
  -29.5024  -26.7010   21.9578 C   0  0  0  0  0  0  0  0  0  0  0  0
  -30.3204  -25.6617   22.4007 C   0  0  0  0  0  0  0  0  0  0  0  0
  -24.1079  -20.6957   22.0341 C   0  0  0  0  0  0  0  0  0  0  0  0
  -31.5865  -25.7827   20.3466 C   0  0  0  0  0  0  0  0  0  0  0  0
  -24.8534  -27.5426   19.8866 C   0  0  0  0  0  0  0  0  0  0  0  0
  -22.7252  -27.0795   18.5586 C   0  0  0  0  0  0  0  0  0  0  0  0
  -23.9922  -12.3800   20.6814 C   0  0  0  0  0  0  0  0  0  0  0  0
  -23.7521  -19.0127   20.3310 C   0  0  0  0  0  0  0  0  0  0  0  0
  -24.0642  -13.6503   21.2844 C   0  0  0  0  0  0  0  0  0  0  0  0
  -24.6271  -19.8349   21.0551 C   0  0  0  0  0  0  0  0  0  0  0  0
  -27.5824  -28.0605   20.1449 C   0  0  0  0  0  0  0  0  0  0  0  0
  -22.7361  -20.7474   22.2804 C   0  0  0  0  0  0  0  0  0  0  0  0
  -29.7264  -27.2812   20.7092 C   0  0  0  0  0  0  0  0  0  0  0  0
  -31.3625  -25.2026   21.5952 C   0  0  0  0  0  0  0  0  0  0  0  0
  -30.7684  -26.8220   19.9036 C   0  0  0  0  0  0  0  0  0  0  0  0
  -23.4438  -27.2759   19.7531 C   0  0  0  0  0  0  0  0  0  0  0  0
  -21.4319  -26.8632   18.9675 C   0  0  0  0  0  0  0  0  0  0  0  0
  -23.1855  -27.0915   17.2008 C   0  0  0  0  0  0  0  0  0  0  0  0
  -25.9597  -16.7365   20.5526 C   0  0  0  0  0  0  0  0  0  0  0  0
  -27.8582  -18.9875   19.1921 C   0  0  0  0  0  0  0  0  0  0  0  0
  -28.4676  -22.2937   18.6051 C   0  0  0  0  0  0  0  0  0  0  0  0
  -22.1568  -21.0184   24.5156 C   0  0  0  0  0  0  0  0  0  1  0  0
  -19.0567  -24.8176   24.0690 C   0  0  0  0  0  0  0  0  0  0  0  0
  -25.2107  -11.7073   20.1006 C   0  0  0  0  0  0  0  0  0  0  0  0
  -24.2780  -18.0981   19.2589 C   0  0  0  0  0  0  0  0  0  0  0  0
  -26.1142  -19.8142   20.8171 C   0  0  0  0  0  0  0  0  0  0  0  0
  -26.3674  -12.6672   19.8339 C   0  0  0  0  0  0  0  0  0  0  0  0
  -18.3913  -27.9436   22.5000 C   0  0  0  0  0  0  0  0  0  0  0  0
  -26.5898  -13.5816   21.0344 C   0  0  0  0  0  0  0  0  0  0  0  0
  -19.5459  -28.1093   21.5103 C   0  0  0  0  0  0  0  0  0  0  0  0
  -18.8480  -27.2704   23.7924 C   0  0  0  0  0  0  0  0  0  0  0  0
  -20.7032  -26.1515   22.6177 C   0  0  0  0  0  0  0  0  0  0  0  0
  -25.3520  -14.4447   21.3073 C   0  0  1  0  0  0  0  0  0  0  0  0
  -25.7474  -17.7356   19.4506 C   0  0  1  0  0  0  0  0  0  0  0  0
  -20.2800  -26.7752   21.2768 C   0  0  2  0  0  0  0  0  0  0  0  0
  -30.1160  -23.8261   17.4952 C   0  0  0  0  0  0  0  0  0  0  0  0
  -29.8062  -18.5606   21.5014 C   0  0  0  0  0  0  0  0  0  0  0  0
  -30.9121  -20.7178   20.8755 C   0  0  0  0  0  0  0  0  0  0  0  0
  -30.8855  -18.8172   19.2600 C   0  0  0  0  0  0  0  0  0  0  0  0
  -26.4124  -23.3576   16.7603 C   0  0  0  0  0  0  0  0  0  0  0  0
  -21.6024  -22.0400   25.4855 C   0  0  0  0  0  0  0  0  0  0  0  0
  -20.0740  -22.0276   25.5598 C   0  0  0  0  0  0  0  0  0  0  0  0
  -19.3877  -22.3638   24.2373 C   0  0  0  0  0  0  0  0  0  0  0  0
  -28.7485  -20.0908   19.7109 C   0  0  1  0  0  0  0  0  0  0  0  0
  -28.8231  -23.0421   17.3331 C   0  0  2  0  0  0  0  0  0  0  0  0
  -30.0603  -19.5458   20.3430 C   0  0  0  0  0  0  0  0  0  0  0  0
  -22.6711  -27.1919   20.8394 N   0  0  0  0  0  0  0  0  0  0  0  0
  -21.4536  -26.9405   20.3290 N   0  0  0  0  0  0  0  0  0  0  0  0
  -26.5804  -18.8987   19.7625 N   0  0  0  0  0  0  0  0  0  0  0  0
  -19.5352  -26.0099   23.5012 N   0  0  0  0  0  0  0  0  0  0  0  0
  -20.2897  -26.6164   18.2917 N   0  0  0  0  0  0  0  0  0  0  0  0
  -23.1772  -28.3071   16.5032 N   0  0  0  0  0  0  0  0  0  0  0  0
  -25.2856  -15.5443   20.3686 N   0  0  0  0  0  0  0  0  0  0  0  0
  -28.9585  -21.0052   18.5937 N   0  0  0  0  0  0  0  0  0  0  0  0
  -19.7622  -23.6676   23.7366 N   0  0  0  0  0  0  0  0  0  0  0  0
  -27.7367  -23.9965   16.9729 N   0  3  0  0  0  0  0  0  0  0  0  0
  -23.5767  -26.0519   16.6180 O   0  0  0  0  0  0  0  0  0  0  0  0
  -26.6827  -17.0252   21.4989 O   0  0  0  0  0  0  0  0  0  0  0  0
  -28.2782  -18.2367   18.3081 O   0  0  0  0  0  0  0  0  0  0  0  0
  -27.8225  -22.8025   19.5191 O   0  0  0  0  0  0  0  0  0  0  0  0
  -22.4525  -19.8648   24.7972 O   0  0  0  0  0  0  0  0  0  0  0  0
  -18.0704  -24.7799   24.8125 O   0  0  0  0  0  0  0  0  0  0  0  0
  -28.9138  -28.3134   20.2712 O   0  0  0  0  0  0  0  0  0  0  0  0
  -22.2464  -21.5882   23.2317 O   0  0  0  0  0  0  0  0  0  1  0  0
  -32.1489  -24.2055   22.0213 F   0  0  0  0  0  0  0  0  0  0  0  0
  -30.9892  -27.3763   18.7037 F   0  0  0  0  0  0  0  0  0  0  0  0
  1  2  1  0  0  0  0
  1  5  2  0  0  0  0
  2  6  2  0  0  0  0
  3  8  2  0  0  0  0
  3 15  1  0  0  0  0
  4  9  1  0  0  0  0
  4 15  2  0  0  0  0
  5 17  1  0  0  0  0
  6 19  1  0  0  0  0
  7 10  2  0  0  0  0
  7 18  1  0  0  0  0
  8 21  1  0  0  0  0
  9 21  2  0  0  0  0
 10 22  1  0  0  0  0
 11 12  2  0  0  0  0
 11 23  1  0  0  0  0
 12 24  1  0  0  0  0
 13 20  1  0  0  0  0
 13 22  2  0  0  0  0
 14 24  2  0  0  0  0
 14 25  1  0  0  0  0
 15 26  1  0  0  0  0
 16 26  1  0  0  0  0
 16 27  2  0  0  0  0
 16 28  1  0  0  0  0
 17 19  2  0  0  0  0
 17 34  1  0  0  0  0
 18 20  2  0  0  0  0
 18 35  1  0  0  0  0
 19 43  1  0  0  0  0
 20 36  1  0  0  0  0
 21 73  1  0  0  0  0
 22 74  1  0  0  0  0
 23 25  2  0  0  0  0
 23 73  1  0  0  0  0
 24 75  1  0  0  0  0
 25 76  1  0  0  0  0
 26 57  2  0  0  0  0
 27 58  1  0  0  0  0
 27 61  1  0  0  0  0
 28 62  1  0  0  0  0
 28 67  2  0  0  0  0
 29 44  1  0  0  0  0
 29 63  1  0  0  0  0
 29 68  2  0  0  0  0
 30 54  1  0  0  0  0
 30 59  1  0  0  0  0
 30 69  2  0  0  0  0
 31 55  1  0  0  0  0
 31 64  1  0  0  0  0
 31 70  2  0  0  0  0
 32 51  1  0  0  0  0
 32 71  2  0  0  0  0
 32 74  1  0  0  0  0
 33 60  1  0  0  0  0
 33 65  1  0  0  0  0
 33 72  2  0  0  0  0
 34 37  1  0  0  0  0
 35 44  1  0  0  0  0
 36 59  1  0  0  0  0
 37 39  1  0  0  0  0
 38 40  1  0  0  0  0
 38 41  1  0  0  0  0
 39 43  1  0  0  0  0
 40 45  1  0  0  0  0
 41 60  1  0  0  0  0
 42 45  1  0  0  0  0
 42 60  1  0  0  0  0
 43 63  1  0  0  0  0
 44 59  1  0  0  0  0
 45 58  1  0  0  0  0
 46 55  1  0  0  0  0
 47 56  1  0  0  0  0
 48 56  1  0  0  0  0
 49 56  1  0  0  0  0
 50 66  1  0  0  0  0
 51 52  1  0  0  0  0
 52 53  1  0  0  0  0
 53 65  1  0  0  0  0
 54 56  1  0  0  0  0
 54 64  1  0  0  0  0
 55 66  1  0  0  0  0
 57 58  1  0  0  0  0
M  CHG  1  66   1
M  ISO  4  32 101  33 100  65 100  74 101
M  END
> <Batch ID>
0001

> <Smiles>
CNC(C)C(=O)NC(C(=O)N1Cc2cc([101O:1][101C:1](=O)CCC[100NH:0][100C:0](=O)N3CCCC(n4nc(-c5ccc(Oc6ccc(F)cc6F)cc5)c(C(N)=O)c4N)C3)ccc2CC1C(=O)NC1CCCc2ccccc21)C(C)(C)C

> <Shape>
0.222

> <Color>
0.068

> <Negative vol penalty>
0.000

$$$$

  -OEChem-04052315163D

 77 84  0     1  0  0  0  0  0999 V2000
  -20.1550   -8.6591   23.3234 C   0  0  0  0  0  0  0  0  0  0  0  0
  -20.7377   -9.8456   23.7570 C   0  0  0  0  0  0  0  0  0  0  0  0
  -26.8842  -25.8367   17.6685 C   0  0  0  0  0  0  0  0  0  0  0  0
  -27.5167  -25.9618   19.9969 C   0  0  0  0  0  0  0  0  0  0  0  0
  -20.7522   -7.9236   22.3006 C   0  0  0  0  0  0  0  0  0  0  0  0
  -21.9188  -10.2967   23.1687 C   0  0  0  0  0  0  0  0  0  0  0  0
  -23.5450  -16.1158   22.1689 C   0  0  0  0  0  0  0  0  0  0  0  0
  -25.7559  -26.6128   17.9333 C   0  0  0  0  0  0  0  0  0  0  0  0
  -26.3884  -26.7380   20.2617 C   0  0  0  0  0  0  0  0  0  0  0  0
  -24.3708  -16.9928   22.8709 C   0  0  0  0  0  0  0  0  0  0  0  0
  -23.8664  -29.0544   21.4829 C   0  0  0  0  0  0  0  0  0  0  0  0
  -24.0290  -30.1841   22.2846 C   0  0  0  0  0  0  0  0  0  0  0  0
  -26.2067  -16.4201   21.4146 C   0  0  0  0  0  0  0  0  0  0  0  0
  -25.5996  -31.0909   20.6883 C   0  0  0  0  0  0  0  0  0  0  0  0
  -27.7646  -25.5111   18.7003 C   0  0  0  0  0  0  0  0  0  0  0  0
  -30.2086  -25.1660   18.0558 C   0  0  0  0  0  0  0  0  0  0  0  0
  -21.9360   -8.3708   21.6929 C   0  0  0  0  0  0  0  0  0  0  0  0
  -24.0476  -15.3750   21.0896 C   0  0  0  0  0  0  0  0  0  0  0  0
  -22.5332   -9.5657   22.1378 C   0  0  0  0  0  0  0  0  0  0  0  0
  -25.3846  -15.5363   20.6990 C   0  0  0  0  0  0  0  0  0  0  0  0
  -25.5080  -27.0635   19.2299 C   0  0  0  0  0  0  0  0  0  0  0  0
  -25.7026  -17.1429   22.4956 C   0  0  0  0  0  0  0  0  0  0  0  0
  -24.5704  -28.9429   20.2838 C   0  0  0  0  0  0  0  0  0  0  0  0
  -24.8956  -31.2024   21.8874 C   0  0  0  0  0  0  0  0  0  0  0  0
  -25.4369  -29.9611   19.8866 C   0  0  0  0  0  0  0  0  0  0  0  0
  -28.9300  -24.7089   18.4275 C   0  0  0  0  0  0  0  0  0  0  0  0
  -30.9549  -24.0215   17.9155 C   0  0  0  0  0  0  0  0  0  0  0  0
  -30.6796  -26.5053   17.8555 C   0  0  0  0  0  0  0  0  0  0  0  0
  -24.4045  -12.2784   20.4668 C   0  0  0  0  0  0  0  0  0  0  0  0
  -25.3106  -13.3683   17.5490 C   0  0  0  0  0  0  0  0  0  0  0  0
  -26.5684  -15.9280   15.6747 C   0  0  0  0  0  0  0  0  0  0  0  0
  -27.1860  -17.4105   24.2662 C   0  0  0  0  0  0  0  0  0  1  0  0
  -30.4814  -18.5319   20.2588 C   0  0  0  0  0  0  0  0  0  0  0  0
  -22.5702   -7.5173   20.6233 C   0  0  0  0  0  0  0  0  0  0  0  0
  -23.1369  -14.4531   20.3259 C   0  0  0  0  0  0  0  0  0  0  0  0
  -25.9675  -14.7794   19.5346 C   0  0  0  0  0  0  0  0  0  0  0  0
  -23.6190   -8.2566   19.7964 C   0  0  0  0  0  0  0  0  0  0  0  0
  -30.5307  -19.3875   16.8031 C   0  0  0  0  0  0  0  0  0  0  0  0
  -24.5621   -9.0380   20.7056 C   0  0  0  0  0  0  0  0  0  0  0  0
  -30.2414  -20.8896   16.7940 C   0  0  0  0  0  0  0  0  0  0  0  0
  -29.7453  -18.6682   17.8975 C   0  0  0  0  0  0  0  0  0  0  0  0
  -29.6259  -20.7299   19.2423 C   0  0  0  0  0  0  0  0  0  0  0  0
  -23.8008  -10.1006   21.5076 C   0  0  1  0  0  0  0  0  0  0  0  0
  -23.8889  -13.3648   19.5659 C   0  0  1  0  0  0  0  0  0  0  0  0
  -30.4376  -21.5069   18.1918 C   0  0  2  0  0  0  0  0  0  0  0  0
  -27.2322  -16.5078   13.3251 C   0  0  0  0  0  0  0  0  0  0  0  0
  -27.8651  -11.7305   17.8691 C   0  0  0  0  0  0  0  0  0  0  0  0
  -28.8707  -13.0636   16.0037 C   0  0  0  0  0  0  0  0  0  0  0  0
  -26.8564  -11.6538   15.5819 C   0  0  0  0  0  0  0  0  0  0  0  0
  -24.5715  -18.1072   15.5249 C   0  0  0  0  0  0  0  0  0  0  0  0
  -28.0495  -18.4515   24.9461 C   0  0  0  0  0  0  0  0  0  0  0  0
  -29.1207  -19.0371   24.0256 C   0  0  0  0  0  0  0  0  0  0  0  0
  -30.0935  -17.9692   23.5096 C   0  0  0  0  0  0  0  0  0  0  0  0
  -31.1968  -18.5570   22.6351 C   0  0  0  0  0  0  0  0  0  0  0  0
  -26.6195  -13.7843   16.9223 C   0  0  1  0  0  0  0  0  0  0  0  0
  -26.1147  -16.5286   14.3564 C   0  0  2  0  0  0  0  0  0  0  0  0
  -27.5428  -12.5710   16.6175 C   0  0  0  0  0  0  0  0  0  0  0  0
  -28.8642  -23.3779   18.5175 N   0  0  0  0  0  0  0  0  0  0  0  0
  -30.1108  -22.9888   18.2002 N   0  0  0  0  0  0  0  0  0  0  0  0
  -25.0386  -13.8855   18.8235 N   0  0  0  0  0  0  0  0  0  0  0  0
  -29.9763  -19.3016   19.1980 N   0  0  0  0  0  0  0  0  0  0  0  0
  -32.2443  -23.8079   17.5774 N   0  0  0  0  0  0  0  0  0  0  0  0
  -29.7809  -27.5645   18.0419 N   0  0  0  0  0  0  0  0  0  0  0  0
  -23.5079  -11.2480   20.6756 N   0  0  0  0  0  0  0  0  0  0  0  0
  -26.2756  -14.5827   15.7507 N   0  0  0  0  0  0  0  0  0  0  0  0
  -30.6770  -19.2113   21.4551 N   0  0  0  0  0  0  0  0  0  0  0  0
  -25.6822  -17.9412   14.5524 N   0  3  0  0  0  0  0  0  0  0  0  0
  -31.8580  -26.7544   17.5050 O   0  0  0  0  0  0  0  0  0  0  0  0
  -25.5329  -12.3677   20.9363 O   0  0  0  0  0  0  0  0  0  0  0  0
  -24.5541  -12.6180   16.9275 O   0  0  0  0  0  0  0  0  0  0  0  0
  -27.1299  -16.5856   16.5481 O   0  0  0  0  0  0  0  0  0  0  0  0
  -27.0692  -16.2456   24.6223 O   0  0  0  0  0  0  0  0  0  0  0  0
  -30.7441  -17.3297   20.1466 O   0  0  0  0  0  0  0  0  0  0  0  0
  -24.4072  -27.8210   19.4886 O   0  0  0  0  0  0  0  0  0  0  0  0
  -26.5110  -17.9977   23.1794 O   0  0  0  0  0  0  0  0  0  1  0  0
  -25.0505  -32.2879   22.6567 F   0  0  0  0  0  0  0  0  0  0  0  0
  -26.1151  -29.8602   18.7352 F   0  0  0  0  0  0  0  0  0  0  0  0
  1  2  1  0  0  0  0
  1  5  2  0  0  0  0
  2  6  2  0  0  0  0
  3  8  2  0  0  0  0
  3 15  1  0  0  0  0
  4  9  1  0  0  0  0
  4 15  2  0  0  0  0
  5 17  1  0  0  0  0
  6 19  1  0  0  0  0
  7 10  2  0  0  0  0
  7 18  1  0  0  0  0
  8 21  1  0  0  0  0
  9 21  2  0  0  0  0
 10 22  1  0  0  0  0
 11 12  2  0  0  0  0
 11 23  1  0  0  0  0
 12 24  1  0  0  0  0
 13 20  1  0  0  0  0
 13 22  2  0  0  0  0
 14 24  2  0  0  0  0
 14 25  1  0  0  0  0
 15 26  1  0  0  0  0
 16 26  1  0  0  0  0
 16 27  2  0  0  0  0
 16 28  1  0  0  0  0
 17 19  2  0  0  0  0
 17 34  1  0  0  0  0
 18 20  2  0  0  0  0
 18 35  1  0  0  0  0
 19 43  1  0  0  0  0
 20 36  1  0  0  0  0
 21 74  1  0  0  0  0
 22 75  1  0  0  0  0
 23 25  2  0  0  0  0
 23 74  1  0  0  0  0
 24 76  1  0  0  0  0
 25 77  1  0  0  0  0
 26 58  2  0  0  0  0
 27 59  1  0  0  0  0
 27 62  1  0  0  0  0
 28 63  1  0  0  0  0
 28 68  2  0  0  0  0
 29 44  1  0  0  0  0
 29 64  1  0  0  0  0
 29 69  2  0  0  0  0
 30 55  1  0  0  0  0
 30 60  1  0  0  0  0
 30 70  2  0  0  0  0
 31 56  1  0  0  0  0
 31 65  1  0  0  0  0
 31 71  2  0  0  0  0
 32 51  1  0  0  0  0
 32 72  2  0  0  0  0
 32 75  1  0  0  0  0
 33 61  1  0  0  0  0
 33 66  1  0  0  0  0
 33 73  2  0  0  0  0
 34 37  1  0  0  0  0
 35 44  1  0  0  0  0
 36 60  1  0  0  0  0
 37 39  1  0  0  0  0
 38 40  1  0  0  0  0
 38 41  1  0  0  0  0
 39 43  1  0  0  0  0
 40 45  1  0  0  0  0
 41 61  1  0  0  0  0
 42 45  1  0  0  0  0
 42 61  1  0  0  0  0
 43 64  1  0  0  0  0
 44 60  1  0  0  0  0
 45 59  1  0  0  0  0
 46 56  1  0  0  0  0
 47 57  1  0  0  0  0
 48 57  1  0  0  0  0
 49 57  1  0  0  0  0
 50 67  1  0  0  0  0
 51 52  1  0  0  0  0
 52 53  1  0  0  0  0
 53 54  1  0  0  0  0
 54 66  1  0  0  0  0
 55 57  1  0  0  0  0
 55 65  1  0  0  0  0
 56 67  1  0  0  0  0
 58 59  1  0  0  0  0
M  CHG  1  67   1
M  ISO  4  32 101  33 100  66 100  75 101
M  END
> <Batch ID>
0001

> <Smiles>
CNC(C)C(=O)NC(C(=O)N1Cc2cc([101O:1][101C:1](=O)CCCC[100NH:0][100C:0](=O)N3CCCC(n4nc(-c5ccc(Oc6ccc(F)cc6F)cc5)c(C(N)=O)c4N)C3)ccc2CC1C(=O)NC1CCCc2ccccc21)C(C)(C)C

> <Shape>
0.217

> <Color>
0.077

> <Negative vol penalty>
0.000

$$$$

  -OEChem-04052315163D

 75 82  0     1  0  0  0  0  0999 V2000
  -21.6576  -26.0082   22.2550 C   0  0  0  0  0  0  0  0  0  0  0  0
  -22.5356  -24.9529   22.0299 C   0  0  0  0  0  0  0  0  0  0  0  0
  -23.8221  -10.0103   22.1423 C   0  0  0  0  0  0  0  0  0  0  0  0
  -24.3934  -11.4271   24.0141 C   0  0  0  0  0  0  0  0  0  0  0  0
  -22.0394  -27.3110   21.9374 C   0  0  0  0  0  0  0  0  0  0  0  0
  -23.7956  -25.1996   21.4859 C   0  0  0  0  0  0  0  0  0  0  0  0
  -27.4742  -22.6745   23.8810 C   0  0  0  0  0  0  0  0  0  0  0  0
  -23.3018   -9.0598   23.0206 C   0  0  0  0  0  0  0  0  0  0  0  0
  -23.8731  -10.4766   24.8924 C   0  0  0  0  0  0  0  0  0  0  0  0
  -27.6174  -21.3207   23.5801 C   0  0  0  0  0  0  0  0  0  0  0  0
  -24.8491   -7.5351   26.2437 C   0  0  0  0  0  0  0  0  0  0  0  0
  -25.5983   -7.2219   27.3778 C   0  0  0  0  0  0  0  0  0  0  0  0
  -29.4494  -21.8491   22.1024 C   0  0  0  0  0  0  0  0  0  0  0  0
  -23.7739   -7.9504   28.7842 C   0  0  0  0  0  0  0  0  0  0  0  0
  -24.3679  -11.1940   22.6391 C   0  0  0  0  0  0  0  0  0  0  0  0
  -24.2169  -13.2470   21.1323 C   0  0  0  0  0  0  0  0  0  0  0  0
  -23.3083  -27.5750   21.3982 C   0  0  0  0  0  0  0  0  0  0  0  0
  -28.3119  -23.6285   23.2855 C   0  0  0  0  0  0  0  0  0  0  0  0
  -24.1942  -26.5070   21.1594 C   0  0  0  0  0  0  0  0  0  0  0  0
  -29.3165  -23.2141   22.3994 C   0  0  0  0  0  0  0  0  0  0  0  0
  -23.3273   -9.2929   24.3956 C   0  0  0  0  0  0  0  0  0  0  0  0
  -28.6032  -20.9081   22.6885 C   0  0  0  0  0  0  0  0  0  0  0  0
  -23.5623   -8.0560   26.3798 C   0  0  0  0  0  0  0  0  0  0  0  0
  -25.0607   -7.4295   28.6481 C   0  0  0  0  0  0  0  0  0  0  0  0
  -23.0247   -8.2636   27.6500 C   0  0  0  0  0  0  0  0  0  0  0  0
  -24.9060  -12.1760   21.7323 C   0  0  0  0  0  0  0  0  0  0  0  0
  -25.1651  -13.8790   20.3656 C   0  0  0  0  0  0  0  0  0  0  0  0
  -22.8425  -13.6357   21.2570 C   0  0  0  0  0  0  0  0  0  0  0  0
  -27.8632  -26.1195   21.3628 C   0  0  0  0  0  0  0  0  0  0  0  0
  -31.0302  -26.5937   21.8798 C   0  0  0  0  0  0  0  0  0  0  0  0
  -34.0557  -25.2690   22.7393 C   0  0  0  0  0  0  0  0  0  0  0  0
  -31.1355  -14.1863   20.6987 C   0  0  0  0  0  0  0  0  0  0  0  0
  -23.6583  -28.9942   21.0268 C   0  0  0  0  0  0  0  0  0  0  0  0
  -28.1620  -25.0822   23.6411 C   0  0  0  0  0  0  0  0  0  0  0  0
  -30.2547  -24.1964   21.7488 C   0  0  0  0  0  0  0  0  0  0  0  0
  -25.1521  -29.2144   20.8024 C   0  0  0  0  0  0  0  0  0  0  0  0
  -29.2021  -13.0226   17.9448 C   0  0  0  0  0  0  0  0  0  0  0  0
  -25.7287  -28.1085   19.9240 C   0  0  0  0  0  0  0  0  0  0  0  0
  -27.8196  -12.7703   18.5491 C   0  0  0  0  0  0  0  0  0  0  0  0
  -30.3192  -12.6648   18.9225 C   0  0  0  0  0  0  0  0  0  0  0  0
  -28.8331  -13.0581   20.8488 C   0  0  0  0  0  0  0  0  0  0  0  0
  -25.5789  -26.7373   20.5939 C   0  0  1  0  0  0  0  0  0  0  0  0
  -28.7355  -26.0186   22.5820 C   0  0  1  0  0  0  0  0  0  0  0  0
  -27.6733  -13.4569   19.9203 C   0  0  2  0  0  0  0  0  0  0  0  0
  -36.4673  -25.8955   23.0376 C   0  0  0  0  0  0  0  0  0  0  0  0
  -31.3900  -26.6419   18.8502 C   0  0  0  0  0  0  0  0  0  0  0  0
  -33.8462  -26.3127   19.2065 C   0  0  0  0  0  0  0  0  0  0  0  0
  -32.7232  -28.3590   20.0866 C   0  0  0  0  0  0  0  0  0  0  0  0
  -34.0184  -24.5131   25.6005 C   0  0  0  0  0  0  0  0  0  0  0  0
  -31.6127  -17.1488   22.1275 C   0  0  0  0  0  0  0  0  0  0  0  0
  -30.2124  -17.6705   22.4514 C   0  0  0  0  0  0  0  0  0  0  0  0
  -31.8074  -15.6961   22.5503 C   0  0  0  0  0  0  0  0  0  0  0  0
  -30.0554  -19.1337   22.0572 C   0  0  0  0  0  0  0  0  0  1  0  0
  -32.3032  -26.1339   21.2112 C   0  0  1  0  0  0  0  0  0  0  0  0
  -35.1174  -25.7346   23.7193 C   0  0  2  0  0  0  0  0  0  0  0  0
  -32.5469  -26.8433   19.8492 C   0  0  0  0  0  0  0  0  0  0  0  0
  -26.1927  -12.1272   21.3772 N   0  0  0  0  0  0  0  0  0  0  0  0
  -26.3196  -13.1754   20.5457 N   0  0  0  0  0  0  0  0  0  0  0  0
  -30.0641  -25.6073   22.1236 N   0  0  0  0  0  0  0  0  0  0  0  0
  -30.1222  -13.3497   20.2023 N   0  0  0  0  0  0  0  0  0  0  0  0
  -25.1157  -14.9623   19.5616 N   0  0  0  0  0  0  0  0  0  0  0  0
  -22.0059  -12.8763   22.0863 N   0  0  0  0  0  0  0  0  0  0  0  0
  -26.5815  -26.5654   21.6233 N   0  0  0  0  0  0  0  0  0  0  0  0
  -33.3704  -26.3301   22.1864 N   0  0  0  0  0  0  0  0  0  0  0  0
  -30.8653  -14.8020   21.9147 N   0  0  0  0  0  0  0  0  0  0  0  0
  -35.2654  -24.7508   24.8288 N   0  3  0  0  0  0  0  0  0  0  0  0
  -22.3663  -14.6175   20.6382 O   0  0  0  0  0  0  0  0  0  0  0  0
  -28.3196  -25.8167   20.2665 O   0  0  0  0  0  0  0  0  0  0  0  0
  -30.9009  -27.7828   22.1813 O   0  0  0  0  0  0  0  0  0  0  0  0
  -33.8568  -24.0828   22.4866 O   0  0  0  0  0  0  0  0  0  0  0  0
  -32.1998  -14.3751   20.0998 O   0  0  0  0  0  0  0  0  0  0  0  0
  -22.8195   -8.3657   25.2529 O   0  0  0  0  0  0  0  0  0  0  0  0
  -28.7447  -19.5874   22.3925 O   0  0  0  0  0  0  0  0  0  1  0  0
  -25.7797   -7.1273   29.7370 F   0  0  0  0  0  0  0  0  0  0  0  0
  -21.7886   -8.7626   27.7871 F   0  0  0  0  0  0  0  0  0  0  0  0
  1  2  1  0  0  0  0
  1  5  2  0  0  0  0
  2  6  2  0  0  0  0
  3  8  2  0  0  0  0
  3 15  1  0  0  0  0
  4  9  1  0  0  0  0
  4 15  2  0  0  0  0
  5 17  1  0  0  0  0
  6 19  1  0  0  0  0
  7 10  2  0  0  0  0
  7 18  1  0  0  0  0
  8 21  1  0  0  0  0
  9 21  2  0  0  0  0
 10 22  1  0  0  0  0
 11 12  2  0  0  0  0
 11 23  1  0  0  0  0
 12 24  1  0  0  0  0
 13 20  1  0  0  0  0
 13 22  2  0  0  0  0
 14 24  2  0  0  0  0
 14 25  1  0  0  0  0
 15 26  1  0  0  0  0
 16 26  1  0  0  0  0
 16 27  2  0  0  0  0
 16 28  1  0  0  0  0
 17 19  2  0  0  0  0
 17 33  1  0  0  0  0
 18 20  2  0  0  0  0
 18 34  1  0  0  0  0
 19 42  1  0  0  0  0
 20 35  1  0  0  0  0
 21 72  1  0  0  0  0
 22 73  1  0  0  0  0
 23 25  2  0  0  0  0
 23 72  1  0  0  0  0
 24 74  1  0  0  0  0
 25 75  1  0  0  0  0
 26 57  2  0  0  0  0
 27 58  1  0  0  0  0
 27 61  1  0  0  0  0
 28 62  1  0  0  0  0
 28 67  2  0  0  0  0
 29 43  1  0  0  0  0
 29 63  1  0  0  0  0
 29 68  2  0  0  0  0
 30 54  1  0  0  0  0
 30 59  1  0  0  0  0
 30 69  2  0  0  0  0
 31 55  1  0  0  0  0
 31 64  1  0  0  0  0
 31 70  2  0  0  0  0
 32 60  1  0  0  0  0
 32 65  1  0  0  0  0
 32 71  2  0  0  0  0
 33 36  1  0  0  0  0
 34 43  1  0  0  0  0
 35 59  1  0  0  0  0
 36 38  1  0  0  0  0
 37 39  1  0  0  0  0
 37 40  1  0  0  0  0
 38 42  1  0  0  0  0
 39 44  1  0  0  0  0
 40 60  1  0  0  0  0
 41 44  1  0  0  0  0
 41 60  1  0  0  0  0
 42 63  1  0  0  0  0
 43 59  1  0  0  0  0
 44 58  1  0  0  0  0
 45 55  1  0  0  0  0
 46 56  1  0  0  0  0
 47 56  1  0  0  0  0
 48 56  1  0  0  0  0
 49 66  1  0  0  0  0
 50 51  1  0  0  0  0
 50 52  1  0  0  0  0
 51 53  1  0  0  0  0
 52 65  1  0  0  0  0
 53 73  1  0  0  0  0
 54 56  1  0  0  0  0
 54 64  1  0  0  0  0
 55 66  1  0  0  0  0
 57 58  1  0  0  0  0
M  CHG  1  66   1
M  ISO  4  32 100  53 101  65 100  73 101
M  END
> <Batch ID>
0001

> <Smiles>
CNC(C)C(=O)NC(C(=O)N1Cc2cc([101O:1][101CH2:1]CCC[100NH:0][100C:0](=O)N3CCCC(n4nc(-c5ccc(Oc6ccc(F)cc6F)cc5)c(C(N)=O)c4N)C3)ccc2CC1C(=O)NC1CCCc2ccccc21)C(C)(C)C

> <Shape>
0.193

> <Color>
0.131

> <Negative vol penalty>
0.000

$$$$

  -OEChem-04052315163D

 77 84  0     1  0  0  0  0  0999 V2000
  -17.7083  -33.2110   22.2374 C   0  0  0  0  0  0  0  0  0  0  0  0
  -19.0434  -32.8201   22.2479 C   0  0  0  0  0  0  0  0  0  0  0  0
  -28.0144  -17.5145   20.1010 C   0  0  0  0  0  0  0  0  0  0  0  0
  -29.5056  -17.9011   21.9622 C   0  0  0  0  0  0  0  0  0  0  0  0
  -16.7213  -32.3284   22.6743 C   0  0  0  0  0  0  0  0  0  0  0  0
  -19.3924  -31.5467   22.6964 C   0  0  0  0  0  0  0  0  0  0  0  0
  -22.7636  -29.2788   19.6737 C   0  0  0  0  0  0  0  0  0  0  0  0
  -28.0134  -16.1489   20.3855 C   0  0  0  0  0  0  0  0  0  0  0  0
  -29.5046  -16.5355   22.2467 C   0  0  0  0  0  0  0  0  0  0  0  0
  -24.0943  -29.6774   19.7921 C   0  0  0  0  0  0  0  0  0  0  0  0
  -30.0506  -13.4990   19.8834 C   0  0  0  0  0  0  0  0  0  0  0  0
  -30.1992  -12.6151   18.8147 C   0  0  0  0  0  0  0  0  0  0  0  0
  -24.5505  -27.7318   21.1433 C   0  0  0  0  0  0  0  0  0  0  0  0
  -28.0547  -11.6297   19.3314 C   0  0  0  0  0  0  0  0  0  0  0  0
  -28.7605  -18.3906   20.8893 C   0  0  0  0  0  0  0  0  0  0  0  0
  -27.8806  -20.7757   21.1001 C   0  0  0  0  0  0  0  0  0  0  0  0
  -17.0575  -31.0401   23.1193 C   0  0  0  0  0  0  0  0  0  0  0  0
  -22.3130  -28.1075   20.2994 C   0  0  0  0  0  0  0  0  0  0  0  0
  -18.4092  -30.6466   23.1409 C   0  0  0  0  0  0  0  0  0  0  0  0
  -23.2142  -27.3192   21.0292 C   0  0  0  0  0  0  0  0  0  0  0  0
  -28.7584  -15.6595   21.4583 C   0  0  0  0  0  0  0  0  0  0  0  0
  -24.9874  -28.9054   20.5294 C   0  0  0  0  0  0  0  0  0  0  0  0
  -28.9040  -13.4483   20.6762 C   0  0  0  0  0  0  0  0  0  0  0  0
  -29.2013  -11.6804   18.5387 C   0  0  0  0  0  0  0  0  0  0  0  0
  -27.9060  -12.5136   20.4002 C   0  0  0  0  0  0  0  0  0  0  0  0
  -28.7624  -19.8012   20.5957 C   0  0  0  0  0  0  0  0  0  0  0  0
  -28.2989  -21.9494   20.5221 C   0  0  0  0  0  0  0  0  0  0  0  0
  -26.7816  -20.6328   22.0097 C   0  0  0  0  0  0  0  0  0  0  0  0
  -20.1627  -27.4491   22.5457 C   0  0  0  0  0  0  0  0  0  0  0  0
  -20.8906  -24.3789   21.7933 C   0  0  0  0  0  0  0  0  0  0  0  0
  -23.1462  -22.1705   20.4962 C   0  0  0  0  0  0  0  0  0  0  0  0
  -32.3770  -25.4434   19.0036 C   0  0  0  0  0  0  0  0  0  0  0  0
  -15.9604  -30.1380   23.6265 C   0  0  0  0  0  0  0  0  0  0  0  0
  -20.8806  -27.6772   20.1398 C   0  0  0  0  0  0  0  0  0  0  0  0
  -22.7853  -26.0425   21.7033 C   0  0  0  0  0  0  0  0  0  0  0  0
  -16.3770  -28.6734   23.7338 C   0  0  0  0  0  0  0  0  0  0  0  0
  -31.5900  -22.7827   16.7724 C   0  0  0  0  0  0  0  0  0  0  0  0
  -17.7381  -28.5538   24.4120 C   0  0  0  0  0  0  0  0  0  0  0  0
  -30.7171  -21.8478   17.6115 C   0  0  0  0  0  0  0  0  0  0  0  0
  -32.6970  -23.4222   17.6076 C   0  0  0  0  0  0  0  0  0  0  0  0
  -31.3605  -23.1791   19.6639 C   0  0  0  0  0  0  0  0  0  0  0  0
  -18.8250  -29.2648   23.5968 C   0  0  1  0  0  0  0  0  0  0  0  0
  -20.4123  -26.7372   21.2463 C   0  0  1  0  0  0  0  0  0  0  0  0
  -30.1957  -22.5536   18.8776 C   0  0  2  0  0  0  0  0  0  0  0  0
  -23.4736  -19.7229   20.0499 C   0  0  0  0  0  0  0  0  0  0  0  0
  -21.4406  -23.9143   24.7584 C   0  0  0  0  0  0  0  0  0  0  0  0
  -22.6450  -21.8101   24.1338 C   0  0  0  0  0  0  0  0  0  0  0  0
  -20.2161  -22.0541   23.6206 C   0  0  0  0  0  0  0  0  0  0  0  0
  -23.3900  -22.6162   17.5806 C   0  0  0  0  0  0  0  0  0  0  0  0
  -31.9567  -27.3804   20.4971 C   0  0  0  0  0  0  0  0  0  0  0  0
  -30.8528  -28.2363   19.9021 C   0  0  0  0  0  0  0  0  0  0  0  0
  -28.5928  -28.7815   20.2455 C   0  0  0  0  0  0  0  0  0  0  0  0
  -21.9052  -23.3713   22.2774 C   0  0  1  0  0  0  0  0  0  0  0  0
  -22.9908  -21.0495   19.4844 C   0  0  2  0  0  0  0  0  0  0  0  0
  -27.2748  -28.2719   20.7999 C   0  0  2  0  0  0  0  0  0  1  0  0
  -21.5597  -22.8125   23.6866 C   0  0  0  0  0  0  0  0  0  0  0  0
  -29.6722  -20.3114   19.7614 N   0  0  0  0  0  0  0  0  0  0  0  0
  -29.3642  -21.6193   19.7370 N   0  0  0  0  0  0  0  0  0  0  0  0
  -21.3731  -25.6674   21.5233 N   0  0  0  0  0  0  0  0  0  0  0  0
  -32.1357  -24.0758   18.7924 N   0  0  0  0  0  0  0  0  0  0  0  0
  -27.8557  -23.2212   20.6140 N   0  0  0  0  0  0  0  0  0  0  0  0
  -26.4888  -19.3562   22.5086 N   0  0  0  0  0  0  0  0  0  0  0  0
  -19.2184  -28.4546   22.4640 N   0  0  0  0  0  0  0  0  0  0  0  0
  -21.9975  -22.3528   21.2369 N   0  0  0  0  0  0  0  0  0  0  0  0
  -31.8033  -25.9858   20.1470 N   0  0  0  0  0  0  0  0  0  0  0  0
  -23.7763  -21.3497   18.2541 N   0  3  0  0  0  0  0  0  0  0  0  0
  -26.0698  -21.6056   22.3568 O   0  0  0  0  0  0  0  0  0  0  0  0
  -20.7800  -27.1102   23.5486 O   0  0  0  0  0  0  0  0  0  0  0  0
  -19.7148  -24.0335   21.6529 O   0  0  0  0  0  0  0  0  0  0  0  0
  -24.1840  -22.8172   20.6198 O   0  0  0  0  0  0  0  0  0  0  0  0
  -33.0491  -26.1313   18.2276 O   0  0  0  0  0  0  0  0  0  0  0  0
  -28.7575  -14.3271   21.7363 O   0  0  0  0  0  0  0  0  0  0  0  0
  -26.2867  -29.2925   20.6471 O   0  0  0  0  0  0  0  0  0  1  0  0
  -29.5935  -27.7836   20.3822 O   0  0  0  0  0  0  0  0  0  0  0  0
  -29.3435  -10.8326   17.5115 F   0  0  0  0  0  0  0  0  0  0  0  0
  -26.8017  -12.4609   21.1575 F   0  0  0  0  0  0  0  0  0  0  0  0
  -27.4419  -28.0405   22.1314 F   0  0  0  0  0  0  0  0  0  0  0  0
  1  2  1  0  0  0  0
  1  5  2  0  0  0  0
  2  6  2  0  0  0  0
  3  8  2  0  0  0  0
  3 15  1  0  0  0  0
  4  9  1  0  0  0  0
  4 15  2  0  0  0  0
  5 17  1  0  0  0  0
  6 19  1  0  0  0  0
  7 10  2  0  0  0  0
  7 18  1  0  0  0  0
  8 21  1  0  0  0  0
  9 21  2  0  0  0  0
 10 22  1  0  0  0  0
 11 12  2  0  0  0  0
 11 23  1  0  0  0  0
 12 24  1  0  0  0  0
 13 20  1  0  0  0  0
 13 22  2  0  0  0  0
 14 24  2  0  0  0  0
 14 25  1  0  0  0  0
 15 26  1  0  0  0  0
 16 26  1  0  0  0  0
 16 27  2  0  0  0  0
 16 28  1  0  0  0  0
 17 19  2  0  0  0  0
 17 33  1  0  0  0  0
 18 20  2  0  0  0  0
 18 34  1  0  0  0  0
 19 42  1  0  0  0  0
 20 35  1  0  0  0  0
 21 72  1  0  0  0  0
 22 73  1  0  0  0  0
 23 25  2  0  0  0  0
 23 72  1  0  0  0  0
 24 75  1  0  0  0  0
 25 76  1  0  0  0  0
 26 57  2  0  0  0  0
 27 58  1  0  0  0  0
 27 61  1  0  0  0  0
 28 62  1  0  0  0  0
 28 67  2  0  0  0  0
 29 43  1  0  0  0  0
 29 63  1  0  0  0  0
 29 68  2  0  0  0  0
 30 53  1  0  0  0  0
 30 59  1  0  0  0  0
 30 69  2  0  0  0  0
 31 54  1  0  0  0  0
 31 64  1  0  0  0  0
 31 70  2  0  0  0  0
 32 60  1  0  0  0  0
 32 65  1  0  0  0  0
 32 71  2  0  0  0  0
 33 36  1  0  0  0  0
 34 43  1  0  0  0  0
 35 59  1  0  0  0  0
 36 38  1  0  0  0  0
 37 39  1  0  0  0  0
 37 40  1  0  0  0  0
 38 42  1  0  0  0  0
 39 44  1  0  0  0  0
 40 60  1  0  0  0  0
 41 44  1  0  0  0  0
 41 60  1  0  0  0  0
 42 63  1  0  0  0  0
 43 59  1  0  0  0  0
 44 58  1  0  0  0  0
 45 54  1  0  0  0  0
 46 56  1  0  0  0  0
 47 56  1  0  0  0  0
 48 56  1  0  0  0  0
 49 66  1  0  0  0  0
 50 51  1  0  0  0  0
 50 65  1  0  0  0  0
 51 74  1  0  0  0  0
 52 55  1  0  0  0  0
 52 74  1  0  0  0  0
 53 56  1  0  0  0  0
 53 64  1  0  0  0  0
 54 66  1  0  0  0  0
 55 73  1  0  0  0  0
 55 77  1  0  0  0  0
 57 58  1  0  0  0  0
M  CHG  1  66   1
M  ISO  4  32 100  55 101  65 100  73 101
M  END
> <Batch ID>
0001

> <Smiles>
CNC(C)C(=O)NC(C(=O)N1Cc2cc([101O:1][101CH:1](F)COCC[100NH:0][100C:0](=O)N3CCCC(n4nc(-c5ccc(Oc6ccc(F)cc6F)cc5)c(C(N)=O)c4N)C3)ccc2CC1C(=O)NC1CCCc2ccccc21)C(C)(C)C

> <Shape>
0.255

> <Color>
0.052

> <Negative vol penalty>
0.000

$$$$

  -OEChem-04052315163D

 77 84  0     1  0  0  0  0  0999 V2000
  -27.6452  -32.0942   19.3669 C   0  0  0  0  0  0  0  0  0  0  0  0
  -27.8843  -30.7297   19.2397 C   0  0  0  0  0  0  0  0  0  0  0  0
  -23.0441   -9.8675   19.9370 C   0  0  0  0  0  0  0  0  0  0  0  0
  -23.8295   -9.8340   22.2215 C   0  0  0  0  0  0  0  0  0  0  0  0
  -26.4811  -32.5417   19.9902 C   0  0  0  0  0  0  0  0  0  0  0  0
  -26.9598  -29.8117   19.7366 C   0  0  0  0  0  0  0  0  0  0  0  0
  -25.5483  -24.3503   17.3519 C   0  0  0  0  0  0  0  0  0  0  0  0
  -22.2867   -8.7218   20.1806 C   0  0  0  0  0  0  0  0  0  0  0  0
  -23.0720   -8.6884   22.4651 C   0  0  0  0  0  0  0  0  0  0  0  0
  -25.9637  -23.0559   17.6615 C   0  0  0  0  0  0  0  0  0  0  0  0
  -19.8397   -7.9285   23.0938 C   0  0  0  0  0  0  0  0  0  0  0  0
  -19.0953   -7.8841   24.2726 C   0  0  0  0  0  0  0  0  0  0  0  0
  -24.0017  -22.7608   19.0336 C   0  0  0  0  0  0  0  0  0  0  0  0
  -20.3171   -5.9199   24.9701 C   0  0  0  0  0  0  0  0  0  0  0  0
  -23.8156  -10.4236   20.9575 C   0  0  0  0  0  0  0  0  0  0  0  0
  -24.1920  -12.9450   20.8659 C   0  0  0  0  0  0  0  0  0  0  0  0
  -25.5372  -31.6287   20.4864 C   0  0  0  0  0  0  0  0  0  0  0  0
  -24.3599  -24.8643   17.8905 C   0  0  0  0  0  0  0  0  0  0  0  0
  -25.7825  -30.2473   20.3683 C   0  0  0  0  0  0  0  0  0  0  0  0
  -23.5720  -24.0611   18.7272 C   0  0  0  0  0  0  0  0  0  0  0  0
  -22.3006   -8.1322   21.4446 C   0  0  0  0  0  0  0  0  0  0  0  0
  -25.1919  -22.2620   18.5047 C   0  0  0  0  0  0  0  0  0  0  0  0
  -20.8228   -6.9685   22.8531 C   0  0  0  0  0  0  0  0  0  0  0  0
  -19.3340   -6.8798   25.2107 C   0  0  0  0  0  0  0  0  0  0  0  0
  -21.0615   -5.9643   23.7913 C   0  0  0  0  0  0  0  0  0  0  0  0
  -24.5987  -11.6067   20.7063 C   0  0  0  0  0  0  0  0  0  0  0  0
  -25.2907  -13.6836   20.4999 C   0  0  0  0  0  0  0  0  0  0  0  0
  -22.9338  -13.4732   21.3057 C   0  0  0  0  0  0  0  0  0  0  0  0
  -23.6319  -27.2962   19.8034 C   0  0  0  0  0  0  0  0  0  0  0  0
  -20.5859  -26.4195   19.1137 C   0  0  0  0  0  0  0  0  0  0  0  0
  -18.4329  -23.9685   18.1117 C   0  0  0  0  0  0  0  0  0  0  0  0
  -30.7901  -14.6226   20.6394 C   0  0  0  0  0  0  0  0  0  0  0  0
  -24.3161  -32.1598   21.1946 C   0  0  0  0  0  0  0  0  0  0  0  0
  -23.9121  -26.2531   17.5255 C   0  0  0  0  0  0  0  0  0  0  0  0
  -22.2778  -24.5587   19.3151 C   0  0  0  0  0  0  0  0  0  0  0  0
  -23.2086  -31.1224   21.3601 C   0  0  0  0  0  0  0  0  0  0  0  0
  -29.5922  -12.2855   18.2353 C   0  0  0  0  0  0  0  0  0  0  0  0
  -23.7835  -29.8044   21.8694 C   0  0  0  0  0  0  0  0  0  0  0  0
  -28.1556  -12.0065   18.6807 C   0  0  0  0  0  0  0  0  0  0  0  0
  -30.5257  -12.4778   19.4285 C   0  0  0  0  0  0  0  0  0  0  0  0
  -28.6501  -13.2176   20.8457 C   0  0  0  0  0  0  0  0  0  0  0  0
  -24.7918  -29.2205   20.8725 C   0  0  1  0  0  0  0  0  0  0  0  0
  -22.9463  -26.8557   18.5411 C   0  0  1  0  0  0  0  0  0  0  0  0
  -27.6605  -13.0721   19.6770 C   0  0  2  0  0  0  0  0  0  0  0  0
  -15.9984  -23.5413   17.6784 C   0  0  0  0  0  0  0  0  0  0  0  0
  -20.0778  -26.2815   22.1192 C   0  0  0  0  0  0  0  0  0  0  0  0
  -18.0022  -24.9670   21.6374 C   0  0  0  0  0  0  0  0  0  0  0  0
  -18.2204  -27.3041   20.7930 C   0  0  0  0  0  0  0  0  0  0  0  0
  -18.9327  -23.3270   15.2660 C   0  0  0  0  0  0  0  0  0  0  0  0
  -29.1172  -18.2236   20.8926 C   0  0  0  0  0  0  0  0  0  0  0  0
  -28.8232  -19.3562   19.9070 C   0  0  0  0  0  0  0  0  0  0  0  0
  -30.6122  -17.9094   20.9497 C   0  0  0  0  0  0  0  0  0  0  0  0
  -27.3220  -19.6490   19.8293 C   0  0  0  0  0  0  0  0  0  0  0  0
  -30.9004  -16.7558   21.9029 C   0  0  0  0  0  0  0  0  0  0  0  0
  -27.0009  -20.7525   18.8285 C   0  0  0  0  0  0  0  0  0  1  0  0
  -19.5847  -25.4659   19.7197 C   0  0  1  0  0  0  0  0  0  0  0  0
  -17.3276  -23.9623   17.0712 C   0  0  2  0  0  0  0  0  0  0  0  0
  -18.9966  -25.9957   21.0579 C   0  0  0  0  0  0  0  0  0  0  0  0
  -25.8573  -11.4984   20.2726 N   0  0  0  0  0  0  0  0  0  0  0  0
  -26.2510  -12.7781   20.1565 N   0  0  0  0  0  0  0  0  0  0  0  0
  -21.8857  -25.9255   18.9335 N   0  0  0  0  0  0  0  0  0  0  0  0
  -29.9997  -13.5024   20.3337 N   0  0  0  0  0  0  0  0  0  0  0  0
  -25.5192  -15.0128   20.4416 N   0  0  0  0  0  0  0  0  0  0  0  0
  -21.9128  -12.5741   21.6427 N   0  0  0  0  0  0  0  0  0  0  0  0
  -24.1025  -28.5949   19.7643 N   0  0  0  0  0  0  0  0  0  0  0  0
  -18.5859  -25.2122   18.6870 N   0  0  0  0  0  0  0  0  0  0  0  0
  -30.2137  -15.5488   21.5000 N   0  0  0  0  0  0  0  0  0  0  0  0
  -17.6603  -23.0177   15.9676 N   0  3  0  0  0  0  0  0  0  0  0  0
  -22.7157  -14.7062   21.3814 O   0  0  0  0  0  0  0  0  0  0  0  0
  -23.7257  -26.5162   20.7439 O   0  0  0  0  0  0  0  0  0  0  0  0
  -20.2263  -27.5583   18.8048 O   0  0  0  0  0  0  0  0  0  0  0  0
  -19.0921  -22.9690   18.3892 O   0  0  0  0  0  0  0  0  0  0  0  0
  -31.9234  -14.7879   20.1753 O   0  0  0  0  0  0  0  0  0  0  0  0
  -21.5615   -7.0144   21.6827 O   0  0  0  0  0  0  0  0  0  0  0  0
  -25.5954  -20.9985   18.8090 O   0  0  0  0  0  0  0  0  0  1  0  0
  -18.6202   -6.8382   26.3434 F   0  0  0  0  0  0  0  0  0  0  0  0
  -22.0053   -5.0401   23.5662 F   0  0  0  0  0  0  0  0  0  0  0  0
  1  2  1  0  0  0  0
  1  5  2  0  0  0  0
  2  6  2  0  0  0  0
  3  8  2  0  0  0  0
  3 15  1  0  0  0  0
  4  9  1  0  0  0  0
  4 15  2  0  0  0  0
  5 17  1  0  0  0  0
  6 19  1  0  0  0  0
  7 10  2  0  0  0  0
  7 18  1  0  0  0  0
  8 21  1  0  0  0  0
  9 21  2  0  0  0  0
 10 22  1  0  0  0  0
 11 12  2  0  0  0  0
 11 23  1  0  0  0  0
 12 24  1  0  0  0  0
 13 20  1  0  0  0  0
 13 22  2  0  0  0  0
 14 24  2  0  0  0  0
 14 25  1  0  0  0  0
 15 26  1  0  0  0  0
 16 26  1  0  0  0  0
 16 27  2  0  0  0  0
 16 28  1  0  0  0  0
 17 19  2  0  0  0  0
 17 33  1  0  0  0  0
 18 20  2  0  0  0  0
 18 34  1  0  0  0  0
 19 42  1  0  0  0  0
 20 35  1  0  0  0  0
 21 74  1  0  0  0  0
 22 75  1  0  0  0  0
 23 25  2  0  0  0  0
 23 74  1  0  0  0  0
 24 76  1  0  0  0  0
 25 77  1  0  0  0  0
 26 59  2  0  0  0  0
 27 60  1  0  0  0  0
 27 63  1  0  0  0  0
 28 64  1  0  0  0  0
 28 69  2  0  0  0  0
 29 43  1  0  0  0  0
 29 65  1  0  0  0  0
 29 70  2  0  0  0  0
 30 56  1  0  0  0  0
 30 61  1  0  0  0  0
 30 71  2  0  0  0  0
 31 57  1  0  0  0  0
 31 66  1  0  0  0  0
 31 72  2  0  0  0  0
 32 62  1  0  0  0  0
 32 67  1  0  0  0  0
 32 73  2  0  0  0  0
 33 36  1  0  0  0  0
 34 43  1  0  0  0  0
 35 61  1  0  0  0  0
 36 38  1  0  0  0  0
 37 39  1  0  0  0  0
 37 40  1  0  0  0  0
 38 42  1  0  0  0  0
 39 44  1  0  0  0  0
 40 62  1  0  0  0  0
 41 44  1  0  0  0  0
 41 62  1  0  0  0  0
 42 65  1  0  0  0  0
 43 61  1  0  0  0  0
 44 60  1  0  0  0  0
 45 57  1  0  0  0  0
 46 58  1  0  0  0  0
 47 58  1  0  0  0  0
 48 58  1  0  0  0  0
 49 68  1  0  0  0  0
 50 51  1  0  0  0  0
 50 52  1  0  0  0  0
 51 53  1  0  0  0  0
 52 54  1  0  0  0  0
 53 55  1  0  0  0  0
 54 67  1  0  0  0  0
 55 75  1  0  0  0  0
 56 58  1  0  0  0  0
 56 66  1  0  0  0  0
 57 68  1  0  0  0  0
 59 60  1  0  0  0  0
M  CHG  1  68   1
M  ISO  4  32 100  55 101  67 100  75 101
M  END
> <Batch ID>
0001

> <Smiles>
CNC(C)C(=O)NC(C(=O)N1Cc2cc([101O:1][101CH2:1]CCCCC[100NH:0][100C:0](=O)N3CCCC(n4nc(-c5ccc(Oc6ccc(F)cc6F)cc5)c(C(N)=O)c4N)C3)ccc2CC1C(=O)NC1CCCc2ccccc21)C(C)(C)C

> <Shape>
0.282

> <Color>
0.217

> <Negative vol penalty>
0.000

$$$$

  -OEChem-04052315163D

 80 87  0     1  0  0  0  0  0999 V2000
  -17.3318  -30.6747   23.0837 C   0  0  0  0  0  0  0  0  0  0  0  0
  -18.6888  -30.3681   23.0764 C   0  0  0  0  0  0  0  0  0  0  0  0
  -29.0779  -17.5648   19.5230 C   0  0  0  0  0  0  0  0  0  0  0  0
  -30.7457  -17.9495   21.2281 C   0  0  0  0  0  0  0  0  0  0  0  0
  -16.4022  -29.7092   23.4676 C   0  0  0  0  0  0  0  0  0  0  0  0
  -19.1170  -29.0959   23.4540 C   0  0  0  0  0  0  0  0  0  0  0  0
  -22.6218  -27.2156   20.3195 C   0  0  0  0  0  0  0  0  0  0  0  0
  -29.5771  -16.2775   19.3250 C   0  0  0  0  0  0  0  0  0  0  0  0
  -31.2450  -16.6621   21.0301 C   0  0  0  0  0  0  0  0  0  0  0  0
  -23.9251  -27.6893   20.4640 C   0  0  0  0  0  0  0  0  0  0  0  0
  -30.1832  -12.7624   18.6236 C   0  0  0  0  0  0  0  0  0  0  0  0
  -29.2634  -11.7190   18.5198 C   0  0  0  0  0  0  0  0  0  0  0  0
  -24.5027  -25.7035   21.7058 C   0  0  0  0  0  0  0  0  0  0  0  0
  -28.4465  -12.2185   20.7380 C   0  0  0  0  0  0  0  0  0  0  0  0
  -29.6622  -18.4008   20.4745 C   0  0  0  0  0  0  0  0  0  0  0  0
  -28.1376  -20.1226   21.5785 C   0  0  0  0  0  0  0  0  0  0  0  0
  -16.8185  -28.4216   23.8410 C   0  0  0  0  0  0  0  0  0  0  0  0
  -22.2457  -25.9853   20.8774 C   0  0  0  0  0  0  0  0  0  0  0  0
  -18.1921  -28.1126   23.8446 C   0  0  0  0  0  0  0  0  0  0  0  0
  -23.1947  -25.2152   21.5648 C   0  0  0  0  0  0  0  0  0  0  0  0
  -30.6606  -15.8262   20.0785 C   0  0  0  0  0  0  0  0  0  0  0  0
  -24.8650  -26.9345   21.1597 C   0  0  0  0  0  0  0  0  0  0  0  0
  -30.2347  -13.5339   19.7846 C   0  0  0  0  0  0  0  0  0  0  0  0
  -28.3951  -11.4470   19.5769 C   0  0  0  0  0  0  0  0  0  0  0  0
  -29.3664  -13.2619   20.8417 C   0  0  0  0  0  0  0  0  0  0  0  0
  -29.1473  -19.7309   20.6791 C   0  0  0  0  0  0  0  0  0  0  0  0
  -28.0178  -21.4780   21.3912 C   0  0  0  0  0  0  0  0  0  0  0  0
  -27.3763  -19.3320   22.5010 C   0  0  0  0  0  0  0  0  0  0  0  0
  -20.1419  -25.0692   23.0771 C   0  0  0  0  0  0  0  0  0  0  0  0
  -21.0600  -22.0974   22.1565 C   0  0  0  0  0  0  0  0  0  0  0  0
  -27.8166  -28.0784   22.9052 C   0  0  0  0  0  0  0  0  0  0  0  0
  -23.4486  -20.1102   20.7449 C   0  0  0  0  0  0  0  0  0  0  0  0
  -31.7934  -25.6650   19.3751 C   0  0  0  0  0  0  0  0  0  0  0  0
  -15.7802  -27.4257   24.2937 C   0  0  0  0  0  0  0  0  0  0  0  0
  -20.8429  -25.4760   20.6898 C   0  0  0  0  0  0  0  0  0  0  0  0
  -22.8469  -23.8785   22.1652 C   0  0  0  0  0  0  0  0  0  0  0  0
  -16.2876  -25.9863   24.3203 C   0  0  0  0  0  0  0  0  0  0  0  0
  -28.5852  -24.8617   18.0566 C   0  0  0  0  0  0  0  0  0  0  0  0
  -17.6538  -25.9142   24.9948 C   0  0  0  0  0  0  0  0  0  0  0  0
  -28.2743  -23.4910   18.6603 C   0  0  0  0  0  0  0  0  0  0  0  0
  -30.0682  -25.0083   17.7232 C   0  0  0  0  0  0  0  0  0  0  0  0
  -30.6748  -23.3542   19.4464 C   0  0  0  0  0  0  0  0  0  0  0  0
  -18.6938  -26.7362   24.2239 C   0  0  1  0  0  0  0  0  0  0  0  0
  -20.4349  -24.4481   21.7407 C   0  0  1  0  0  0  0  0  0  0  0  0
  -29.2010  -23.1795   19.8510 C   0  0  2  0  0  0  0  0  0  0  0  0
  -23.9282  -17.7166   20.1635 C   0  0  0  0  0  0  0  0  0  0  0  0
  -21.6395  -21.5030   25.0926 C   0  0  0  0  0  0  0  0  0  0  0  0
  -22.9727  -19.5163   24.3552 C   0  0  0  0  0  0  0  0  0  0  0  0
  -20.5330  -19.6365   23.8490 C   0  0  0  0  0  0  0  0  0  0  0  0
  -23.6626  -20.7327   17.8594 C   0  0  0  0  0  0  0  0  0  0  0  0
  -26.8424  -27.0009   22.4793 C   0  0  0  0  0  0  0  0  0  1  0  0
  -31.7584  -27.2428   22.6318 C   0  0  0  0  0  0  0  0  0  0  0  0
  -31.1076  -28.5619   23.0598 C   0  0  0  0  0  0  0  0  0  0  0  0
  -32.8645  -27.4808   21.5990 C   0  0  0  0  0  0  0  0  0  0  0  0
  -29.9911  -28.3587   24.0792 C   0  0  0  0  0  0  0  0  0  0  0  0
  -33.4943  -26.1814   21.1070 C   0  0  0  0  0  0  0  0  0  0  0  0
  -22.1358  -21.1296   22.5866 C   0  0  1  0  0  0  0  0  0  0  0  0
  -23.3631  -19.0400   19.6716 C   0  0  2  0  0  0  0  0  0  0  0  0
  -21.8266  -20.4724   23.9613 C   0  0  0  0  0  0  0  0  0  0  0  0
  -29.6341  -20.7546   19.9727 N   0  0  0  0  0  0  0  0  0  0  0  0
  -28.9273  -21.8030   20.4281 N   0  0  0  0  0  0  0  0  0  0  0  0
  -21.4608  -23.4265   21.9603 N   0  0  0  0  0  0  0  0  0  0  0  0
  -30.8921  -24.7007   18.8947 N   0  0  0  0  0  0  0  0  0  0  0  0
  -27.2242  -22.4115   21.9578 N   0  0  0  0  0  0  0  0  0  0  0  0
  -27.6268  -17.9545   22.5656 N   0  0  0  0  0  0  0  0  0  0  0  0
  -19.1365  -26.0168   23.0487 N   0  0  0  0  0  0  0  0  0  0  0  0
  -28.9125  -27.5462   23.5662 N   0  0  0  0  0  0  0  0  0  0  0  0
  -22.2911  -20.1787   21.4911 N   0  0  0  0  0  0  0  0  0  0  0  0
  -32.5310  -25.2949   20.4930 N   0  0  0  0  0  0  0  0  0  0  0  0
  -24.1277  -19.4570   18.4623 N   0  3  0  0  0  0  0  0  0  0  0  0
  -26.4883  -19.8296   23.2341 O   0  0  0  0  0  0  0  0  0  0  0  0
  -20.7796  -24.7140   24.0613 O   0  0  0  0  0  0  0  0  0  0  0  0
  -19.9080  -21.6876   21.9935 O   0  0  0  0  0  0  0  0  0  0  0  0
  -27.6292  -29.2707   22.6788 O   0  0  0  0  0  0  0  0  0  0  0  0
  -24.4440  -20.8125   20.9075 O   0  0  0  0  0  0  0  0  0  0  0  0
  -31.9269  -26.7756   18.8500 O   0  0  0  0  0  0  0  0  0  0  0  0
  -31.1479  -14.5700   19.8858 O   0  0  0  0  0  0  0  0  0  0  0  0
  -26.1376  -27.3948   21.3027 O   0  0  0  0  0  0  0  0  0  1  0  0
  -27.5108  -10.4459   19.4765 F   0  0  0  0  0  0  0  0  0  0  0  0
  -29.4103  -14.0004   21.9592 F   0  0  0  0  0  0  0  0  0  0  0  0
  1  2  1  0  0  0  0
  1  5  2  0  0  0  0
  2  6  2  0  0  0  0
  3  8  2  0  0  0  0
  3 15  1  0  0  0  0
  4  9  1  0  0  0  0
  4 15  2  0  0  0  0
  5 17  1  0  0  0  0
  6 19  1  0  0  0  0
  7 10  2  0  0  0  0
  7 18  1  0  0  0  0
  8 21  1  0  0  0  0
  9 21  2  0  0  0  0
 10 22  1  0  0  0  0
 11 12  2  0  0  0  0
 11 23  1  0  0  0  0
 12 24  1  0  0  0  0
 13 20  1  0  0  0  0
 13 22  2  0  0  0  0
 14 24  2  0  0  0  0
 14 25  1  0  0  0  0
 15 26  1  0  0  0  0
 16 26  1  0  0  0  0
 16 27  2  0  0  0  0
 16 28  1  0  0  0  0
 17 19  2  0  0  0  0
 17 34  1  0  0  0  0
 18 20  2  0  0  0  0
 18 35  1  0  0  0  0
 19 43  1  0  0  0  0
 20 36  1  0  0  0  0
 21 77  1  0  0  0  0
 22 78  1  0  0  0  0
 23 25  2  0  0  0  0
 23 77  1  0  0  0  0
 24 79  1  0  0  0  0
 25 80  1  0  0  0  0
 26 60  2  0  0  0  0
 27 61  1  0  0  0  0
 27 64  1  0  0  0  0
 28 65  1  0  0  0  0
 28 71  2  0  0  0  0
 29 44  1  0  0  0  0
 29 66  1  0  0  0  0
 29 72  2  0  0  0  0
 30 57  1  0  0  0  0
 30 62  1  0  0  0  0
 30 73  2  0  0  0  0
 31 51  1  0  0  0  0
 31 67  1  0  0  0  0
 31 74  2  0  0  0  0
 32 58  1  0  0  0  0
 32 68  1  0  0  0  0
 32 75  2  0  0  0  0
 33 63  1  0  0  0  0
 33 69  1  0  0  0  0
 33 76  2  0  0  0  0
 34 37  1  0  0  0  0
 35 44  1  0  0  0  0
 36 62  1  0  0  0  0
 37 39  1  0  0  0  0
 38 40  1  0  0  0  0
 38 41  1  0  0  0  0
 39 43  1  0  0  0  0
 40 45  1  0  0  0  0
 41 63  1  0  0  0  0
 42 45  1  0  0  0  0
 42 63  1  0  0  0  0
 43 66  1  0  0  0  0
 44 62  1  0  0  0  0
 45 61  1  0  0  0  0
 46 58  1  0  0  0  0
 47 59  1  0  0  0  0
 48 59  1  0  0  0  0
 49 59  1  0  0  0  0
 50 70  1  0  0  0  0
 51 78  1  0  0  0  0
 52 53  1  0  0  0  0
 52 54  1  0  0  0  0
 53 55  1  0  0  0  0
 54 56  1  0  0  0  0
 55 67  1  0  0  0  0
 56 69  1  0  0  0  0
 57 59  1  0  0  0  0
 57 68  1  0  0  0  0
 58 70  1  0  0  0  0
 60 61  1  0  0  0  0
M  CHG  1  70   1
M  ISO  4  33 100  51 101  69 100  78 101
M  END
> <Batch ID>
0001

> <Smiles>
CNC(C)C(=O)NC(C(=O)N1Cc2cc([101O:1][101CH2:1]C(=O)NCCCCC[100NH:0][100C:0](=O)N3CCCC(n4nc(-c5ccc(Oc6ccc(F)cc6F)cc5)c(C(N)=O)c4N)C3)ccc2CC1C(=O)NC1CCCc2ccccc21)C(C)(C)C

> <Shape>
0.209

> <Color>
0.065

> <Negative vol penalty>
0.000

$$$$

  -OEChem-04052315163D

 77 84  0     1  0  0  0  0  0999 V2000
  -19.5798  -33.8859   21.1586 C   0  0  0  0  0  0  0  0  0  0  0  0
  -20.8814  -33.5004   20.8543 C   0  0  0  0  0  0  0  0  0  0  0  0
  -25.1581  -13.6956   19.1668 C   0  0  0  0  0  0  0  0  0  0  0  0
  -23.9567  -15.2552   20.5674 C   0  0  0  0  0  0  0  0  0  0  0  0
  -18.8611  -33.1993   22.1362 C   0  0  0  0  0  0  0  0  0  0  0  0
  -21.4655  -32.4286   21.5285 C   0  0  0  0  0  0  0  0  0  0  0  0
  -25.4229  -28.3547   19.2375 C   0  0  0  0  0  0  0  0  0  0  0  0
  -24.2221  -12.7057   19.4661 C   0  0  0  0  0  0  0  0  0  0  0  0
  -23.0207  -14.2653   20.8667 C   0  0  0  0  0  0  0  0  0  0  0  0
  -26.8123  -28.2583   19.3015 C   0  0  0  0  0  0  0  0  0  0  0  0
  -23.5613  -10.5939   22.0211 C   0  0  0  0  0  0  0  0  0  0  0  0
  -24.0418   -9.3242   22.3413 C   0  0  0  0  0  0  0  0  0  0  0  0
  -26.6152  -26.7443   21.1691 C   0  0  0  0  0  0  0  0  0  0  0  0
  -22.8304   -8.3938   20.4694 C   0  0  0  0  0  0  0  0  0  0  0  0
  -25.0255  -14.9703   19.7175 C   0  0  0  0  0  0  0  0  0  0  0  0
  -25.9461  -16.9136   18.3450 C   0  0  0  0  0  0  0  0  0  0  0  0
  -19.4332  -32.1124   22.8159 C   0  0  0  0  0  0  0  0  0  0  0  0
  -24.6181  -27.6540   20.1473 C   0  0  0  0  0  0  0  0  0  0  0  0
  -20.7542  -31.7276   22.5171 C   0  0  0  0  0  0  0  0  0  0  0  0
  -25.2158  -26.8315   21.1129 C   0  0  0  0  0  0  0  0  0  0  0  0
  -23.1534  -12.9906   20.3160 C   0  0  0  0  0  0  0  0  0  0  0  0
  -27.4087  -27.4553   20.2692 C   0  0  0  0  0  0  0  0  0  0  0  0
  -22.7152  -10.7636   20.9252 C   0  0  0  0  0  0  0  0  0  0  0  0
  -23.6764   -8.2242   21.5655 C   0  0  0  0  0  0  0  0  0  0  0  0
  -22.3498   -9.6635   20.1493 C   0  0  0  0  0  0  0  0  0  0  0  0
  -25.9924  -15.9931   19.4092 C   0  0  0  0  0  0  0  0  0  0  0  0
  -27.0875  -17.6638   18.4901 C   0  0  0  0  0  0  0  0  0  0  0  0
  -24.9597  -17.0760   17.3173 C   0  0  0  0  0  0  0  0  0  0  0  0
  -22.5156  -28.4822   22.3827 C   0  0  0  0  0  0  0  0  0  0  0  0
  -22.0372  -25.2792   22.5674 C   0  0  0  0  0  0  0  0  0  0  0  0
  -23.2587  -22.1333   22.0590 C   0  0  0  0  0  0  0  0  0  0  0  0
  -30.6707  -20.5036   21.6903 C   0  0  0  0  0  0  0  0  0  0  0  0
  -18.6340  -31.4308   23.8981 C   0  0  0  0  0  0  0  0  0  0  0  0
  -23.1202  -27.7476   20.0480 C   0  0  0  0  0  0  0  0  0  0  0  0
  -24.3960  -26.0428   22.1001 C   0  0  0  0  0  0  0  0  0  0  0  0
  -19.1931  -30.0690   24.3023 C   0  0  0  0  0  0  0  0  0  0  0  0
  -31.1214  -16.9790   21.4641 C   0  0  0  0  0  0  0  0  0  0  0  0
  -20.7025  -30.1510   24.5064 C   0  0  0  0  0  0  0  0  0  0  0  0
  -29.8214  -16.4841   20.8277 C   0  0  0  0  0  0  0  0  0  0  0  0
  -30.8742  -18.1448   22.4191 C   0  0  0  0  0  0  0  0  0  0  0  0
  -28.8298  -18.7814   21.1989 C   0  0  0  0  0  0  0  0  0  0  0  0
  -21.4136  -30.5543   23.2090 C   0  0  1  0  0  0  0  0  0  0  0  0
  -22.4117  -27.3939   21.3520 C   0  0  1  0  0  0  0  0  0  0  0  0
  -29.0351  -17.6427   20.1853 C   0  0  2  0  0  0  0  0  0  0  0  0
  -22.6514  -19.7149   22.3413 C   0  0  0  0  0  0  0  0  0  0  0  0
  -22.5607  -25.5001   25.5653 C   0  0  0  0  0  0  0  0  0  0  0  0
  -22.8826  -23.0178   25.6213 C   0  0  0  0  0  0  0  0  0  0  0  0
  -20.6799  -23.9731   24.9444 C   0  0  0  0  0  0  0  0  0  0  0  0
  -23.4701  -21.6210   19.1518 C   0  0  0  0  0  0  0  0  0  0  0  0
  -31.1350  -23.0473   19.6108 C   0  0  0  0  0  0  0  0  0  0  0  0
  -30.3287  -22.8254   20.8833 C   0  0  0  0  0  0  0  0  0  0  0  0
  -31.5718  -24.4960   19.4306 C   0  0  0  0  0  0  0  0  0  0  0  0
  -29.4857  -27.5098   19.1120 C   0  0  0  0  0  0  0  0  0  1  0  0
  -30.7571  -26.6864   19.1829 C   0  0  0  0  0  0  0  0  0  0  0  0
  -22.6462  -24.1515   23.3652 C   0  0  1  0  0  0  0  0  0  0  0  0
  -22.6476  -20.9097   21.4005 C   0  0  2  0  0  0  0  0  0  0  0  0
  -22.2081  -24.1769   24.8568 C   0  0  0  0  0  0  0  0  0  0  0  0
  -27.0772  -16.1430   20.1738 N   0  0  0  0  0  0  0  0  0  0  0  0
  -27.7233  -17.1662   19.5893 N   0  0  0  0  0  0  0  0  0  0  0  0
  -22.9355  -26.1723   21.9665 N   0  0  0  0  0  0  0  0  0  0  0  0
  -30.1257  -19.2103   21.7478 N   0  0  0  0  0  0  0  0  0  0  0  0
  -27.5992  -18.6938   17.7833 N   0  0  0  0  0  0  0  0  0  0  0  0
  -23.8493  -16.2207   17.3158 N   0  0  0  0  0  0  0  0  0  0  0  0
  -21.5063  -29.4233   22.3109 N   0  0  0  0  0  0  0  0  0  0  0  0
  -22.3008  -22.9209   22.6619 N   0  0  0  0  0  0  0  0  0  0  0  0
  -29.8995  -21.4525   21.0304 N   0  0  0  0  0  0  0  0  0  0  0  0
  -23.4124  -20.5450   20.1745 N   0  3  0  0  0  0  0  0  0  0  0  0
  -25.0682  -17.9427   16.4170 O   0  0  0  0  0  0  0  0  0  0  0  0
  -23.4419  -28.4682   23.1848 O   0  0  0  0  0  0  0  0  0  0  0  0
  -20.8098  -25.3603   22.4746 O   0  0  0  0  0  0  0  0  0  0  0  0
  -24.4656  -22.3652   22.0437 O   0  0  0  0  0  0  0  0  0  0  0  0
  -31.7661  -20.7901   22.1853 O   0  0  0  0  0  0  0  0  0  0  0  0
  -22.2397  -12.0249   20.6081 O   0  0  0  0  0  0  0  0  0  0  0  0
  -28.7646  -27.3600   20.3343 O   0  0  0  0  0  0  0  0  0  1  0  0
  -30.4144  -25.3163   19.3520 O   0  0  0  0  0  0  0  0  0  0  0  0
  -24.1391   -7.0051   21.8721 F   0  0  0  0  0  0  0  0  0  0  0  0
  -21.5383   -9.8205   19.0945 F   0  0  0  0  0  0  0  0  0  0  0  0
  1  2  1  0  0  0  0
  1  5  2  0  0  0  0
  2  6  2  0  0  0  0
  3  8  2  0  0  0  0
  3 15  1  0  0  0  0
  4  9  1  0  0  0  0
  4 15  2  0  0  0  0
  5 17  1  0  0  0  0
  6 19  1  0  0  0  0
  7 10  2  0  0  0  0
  7 18  1  0  0  0  0
  8 21  1  0  0  0  0
  9 21  2  0  0  0  0
 10 22  1  0  0  0  0
 11 12  2  0  0  0  0
 11 23  1  0  0  0  0
 12 24  1  0  0  0  0
 13 20  1  0  0  0  0
 13 22  2  0  0  0  0
 14 24  2  0  0  0  0
 14 25  1  0  0  0  0
 15 26  1  0  0  0  0
 16 26  1  0  0  0  0
 16 27  2  0  0  0  0
 16 28  1  0  0  0  0
 17 19  2  0  0  0  0
 17 33  1  0  0  0  0
 18 20  2  0  0  0  0
 18 34  1  0  0  0  0
 19 42  1  0  0  0  0
 20 35  1  0  0  0  0
 21 73  1  0  0  0  0
 22 74  1  0  0  0  0
 23 25  2  0  0  0  0
 23 73  1  0  0  0  0
 24 76  1  0  0  0  0
 25 77  1  0  0  0  0
 26 58  2  0  0  0  0
 27 59  1  0  0  0  0
 27 62  1  0  0  0  0
 28 63  1  0  0  0  0
 28 68  2  0  0  0  0
 29 43  1  0  0  0  0
 29 64  1  0  0  0  0
 29 69  2  0  0  0  0
 30 55  1  0  0  0  0
 30 60  1  0  0  0  0
 30 70  2  0  0  0  0
 31 56  1  0  0  0  0
 31 65  1  0  0  0  0
 31 71  2  0  0  0  0
 32 61  1  0  0  0  0
 32 66  1  0  0  0  0
 32 72  2  0  0  0  0
 33 36  1  0  0  0  0
 34 43  1  0  0  0  0
 35 60  1  0  0  0  0
 36 38  1  0  0  0  0
 37 39  1  0  0  0  0
 37 40  1  0  0  0  0
 38 42  1  0  0  0  0
 39 44  1  0  0  0  0
 40 61  1  0  0  0  0
 41 44  1  0  0  0  0
 41 61  1  0  0  0  0
 42 64  1  0  0  0  0
 43 60  1  0  0  0  0
 44 59  1  0  0  0  0
 45 56  1  0  0  0  0
 46 57  1  0  0  0  0
 47 57  1  0  0  0  0
 48 57  1  0  0  0  0
 49 67  1  0  0  0  0
 50 51  1  0  0  0  0
 50 52  1  0  0  0  0
 51 66  1  0  0  0  0
 52 75  1  0  0  0  0
 53 54  1  0  0  0  0
 53 74  1  0  0  0  0
 54 75  1  0  0  0  0
 55 57  1  0  0  0  0
 55 65  1  0  0  0  0
 56 67  1  0  0  0  0
 58 59  1  0  0  0  0
M  CHG  1  67   1
M  ISO  4  32 100  53 101  66 100  74 101
M  END
> <Batch ID>
0001

> <Smiles>
CNC(C)C(=O)NC(C(=O)N1Cc2cc([101O:1][101CH2:1]COCCC[100NH:0][100C:0](=O)N3CCCC(n4nc(-c5ccc(Oc6ccc(F)cc6F)cc5)c(C(N)=O)c4N)C3)ccc2CC1C(=O)NC1CCCc2ccccc21)C(C)(C)C

> <Shape>
0.216

> <Color>
0.099

> <Negative vol penalty>
0.000

$$$$

  -OEChem-04052315163D

 74 81  0     1  0  0  0  0  0999 V2000
  -20.6148  -30.7818   21.0154 C   0  0  0  0  0  0  0  0  0  0  0  0
  -21.7696  -30.0137   20.9068 C   0  0  0  0  0  0  0  0  0  0  0  0
  -24.5664  -10.0173   21.9986 C   0  0  0  0  0  0  0  0  0  0  0  0
  -24.6902  -11.3541   24.0073 C   0  0  0  0  0  0  0  0  0  0  0  0
  -19.4725  -30.2417   21.6048 C   0  0  0  0  0  0  0  0  0  0  0  0
  -21.7832  -28.7052   21.3886 C   0  0  0  0  0  0  0  0  0  0  0  0
  -24.8154  -23.9409   19.0196 C   0  0  0  0  0  0  0  0  0  0  0  0
  -24.2235   -8.9016   22.7622 C   0  0  0  0  0  0  0  0  0  0  0  0
  -24.3472  -10.2383   24.7710 C   0  0  0  0  0  0  0  0  0  0  0  0
  -26.0307  -23.3436   19.3515 C   0  0  0  0  0  0  0  0  0  0  0  0
  -23.8566   -7.6593   27.2845 C   0  0  0  0  0  0  0  0  0  0  0  0
  -24.5859   -7.4219   28.4495 C   0  0  0  0  0  0  0  0  0  0  0  0
  -24.8565  -21.7048   20.6762 C   0  0  0  0  0  0  0  0  0  0  0  0
  -26.6111   -7.2403   27.1446 C   0  0  0  0  0  0  0  0  0  0  0  0
  -24.7998  -11.2436   22.6212 C   0  0  0  0  0  0  0  0  0  0  0  0
  -24.2779  -13.3376   21.2609 C   0  0  0  0  0  0  0  0  0  0  0  0
  -19.4691  -28.9227   22.0854 C   0  0  0  0  0  0  0  0  0  0  0  0
  -23.6104  -23.4303   19.5231 C   0  0  0  0  0  0  0  0  0  0  0  0
  -20.6402  -28.1474   21.9863 C   0  0  0  0  0  0  0  0  0  0  0  0
  -23.6271  -22.2959   20.3471 C   0  0  0  0  0  0  0  0  0  0  0  0
  -24.1139   -9.0120   24.1484 C   0  0  0  0  0  0  0  0  0  0  0  0
  -26.0516  -22.2271   20.1822 C   0  0  0  0  0  0  0  0  0  0  0  0
  -24.5045   -7.6870   26.0495 C   0  0  0  0  0  0  0  0  0  0  0  0
  -25.9632   -7.2125   28.3796 C   0  0  0  0  0  0  0  0  0  0  0  0
  -25.8817   -7.4776   25.9796 C   0  0  0  0  0  0  0  0  0  0  0  0
  -25.1546  -12.3964   21.8330 C   0  0  0  0  0  0  0  0  0  0  0  0
  -25.1023  -14.2285   20.6182 C   0  0  0  0  0  0  0  0  0  0  0  0
  -22.8462  -13.4009   21.3064 C   0  0  0  0  0  0  0  0  0  0  0  0
  -21.3031  -24.5608   21.3946 C   0  0  0  0  0  0  0  0  0  0  0  0
  -19.8510  -21.7611   20.6362 C   0  0  0  0  0  0  0  0  0  0  0  0
  -28.5578  -19.6322   20.4164 C   0  0  0  0  0  0  0  0  0  0  0  0
  -20.1612  -18.5234   19.6027 C   0  0  0  0  0  0  0  0  0  0  0  0
  -29.6629  -17.4153   20.4806 C   0  0  0  0  0  0  0  0  0  0  0  0
  -18.2250  -28.3982   22.7576 C   0  0  0  0  0  0  0  0  0  0  0  0
  -22.3058  -24.0700   19.1341 C   0  0  0  0  0  0  0  0  0  0  0  0
  -22.3596  -21.6967   20.8975 C   0  0  0  0  0  0  0  0  0  0  0  0
  -18.2066  -26.8789   22.9047 C   0  0  0  0  0  0  0  0  0  0  0  0
  -30.0563  -13.9941   19.6069 C   0  0  0  0  0  0  0  0  0  0  0  0
  -19.5442  -26.3782   23.4404 C   0  0  0  0  0  0  0  0  0  0  0  0
  -28.7446  -13.3496   20.0609 C   0  0  0  0  0  0  0  0  0  0  0  0
  -30.5122  -15.0885   20.5699 C   0  0  0  0  0  0  0  0  0  0  0  0
  -28.1956  -15.4772   21.3112 C   0  0  0  0  0  0  0  0  0  0  0  0
  -20.6866  -26.7158   22.4747 C   0  0  1  0  0  0  0  0  0  0  0  0
  -21.1788  -23.7759   20.1194 C   0  0  1  0  0  0  0  0  0  0  0  0
  -27.6626  -14.4112   20.3397 C   0  0  2  0  0  0  0  0  0  0  0  0
  -18.7999  -16.4732   19.1120 C   0  0  0  0  0  0  0  0  0  0  0  0
  -19.5275  -21.2626   23.6290 C   0  0  0  0  0  0  0  0  0  0  0  0
  -19.0568  -18.8596   23.1071 C   0  0  0  0  0  0  0  0  0  0  0  0
  -17.5378  -20.6416   22.2469 C   0  0  0  0  0  0  0  0  0  0  0  0
  -21.0388  -18.4756   16.7766 C   0  0  0  0  0  0  0  0  0  0  0  0
  -27.2200  -20.2534   20.7596 C   0  0  0  0  0  0  0  0  0  1  0  0
  -19.8347  -20.3713   21.2254 C   0  0  1  0  0  0  0  0  0  0  0  0
  -19.4278  -17.7323   18.5347 C   0  0  2  0  0  0  0  0  0  0  0  0
  -19.0134  -20.2960   22.5434 C   0  0  0  0  0  0  0  0  0  0  0  0
  -26.4377  -12.6643   21.5762 N   0  0  0  0  0  0  0  0  0  0  0  0
  -26.3732  -13.7839   20.8357 N   0  0  0  0  0  0  0  0  0  0  0  0
  -21.1098  -22.3618   20.4935 N   0  0  0  0  0  0  0  0  0  0  0  0
  -29.4382  -16.0610   20.7829 N   0  0  0  0  0  0  0  0  0  0  0  0
  -24.8569  -15.3409   19.8939 N   0  0  0  0  0  0  0  0  0  0  0  0
  -22.1554  -12.4053   22.0106 N   0  0  0  0  0  0  0  0  0  0  0  0
  -20.6898  -25.7985   21.3554 N   0  0  0  0  0  0  0  0  0  0  0  0
  -28.5674  -18.2610   20.6826 N   0  0  0  0  0  0  0  0  0  0  0  0
  -19.3536  -19.4862   20.1702 N   0  0  0  0  0  0  0  0  0  0  0  0
  -20.3671  -17.3335   17.4487 N   0  3  0  0  0  0  0  0  0  0  0  0
  -22.1979  -14.3042   20.7256 O   0  0  0  0  0  0  0  0  0  0  0  0
  -21.9092  -24.0787   22.3442 O   0  0  0  0  0  0  0  0  0  0  0  0
  -18.7867  -22.2912   20.3078 O   0  0  0  0  0  0  0  0  0  0  0  0
  -29.4983  -20.2844   19.9721 O   0  0  0  0  0  0  0  0  0  0  0  0
  -21.3323  -18.3064   19.9060 O   0  0  0  0  0  0  0  0  0  0  0  0
  -30.7378  -17.8321   20.0374 O   0  0  0  0  0  0  0  0  0  0  0  0
  -23.7791   -7.9236   24.8938 O   0  0  0  0  0  0  0  0  0  0  0  0
  -27.2364  -21.6426   20.5083 O   0  0  0  0  0  0  0  0  0  1  0  0
  -26.6637   -6.9861   29.4986 F   0  0  0  0  0  0  0  0  0  0  0  0
  -26.5099   -7.5043   24.7961 F   0  0  0  0  0  0  0  0  0  0  0  0
  1  2  1  0  0  0  0
  1  5  2  0  0  0  0
  2  6  2  0  0  0  0
  3  8  2  0  0  0  0
  3 15  1  0  0  0  0
  4  9  1  0  0  0  0
  4 15  2  0  0  0  0
  5 17  1  0  0  0  0
  6 19  1  0  0  0  0
  7 10  2  0  0  0  0
  7 18  1  0  0  0  0
  8 21  1  0  0  0  0
  9 21  2  0  0  0  0
 10 22  1  0  0  0  0
 11 12  2  0  0  0  0
 11 23  1  0  0  0  0
 12 24  1  0  0  0  0
 13 20  1  0  0  0  0
 13 22  2  0  0  0  0
 14 24  2  0  0  0  0
 14 25  1  0  0  0  0
 15 26  1  0  0  0  0
 16 26  1  0  0  0  0
 16 27  2  0  0  0  0
 16 28  1  0  0  0  0
 17 19  2  0  0  0  0
 17 34  1  0  0  0  0
 18 20  2  0  0  0  0
 18 35  1  0  0  0  0
 19 43  1  0  0  0  0
 20 36  1  0  0  0  0
 21 71  1  0  0  0  0
 22 72  1  0  0  0  0
 23 25  2  0  0  0  0
 23 71  1  0  0  0  0
 24 73  1  0  0  0  0
 25 74  1  0  0  0  0
 26 55  2  0  0  0  0
 27 56  1  0  0  0  0
 27 59  1  0  0  0  0
 28 60  1  0  0  0  0
 28 65  2  0  0  0  0
 29 44  1  0  0  0  0
 29 61  1  0  0  0  0
 29 66  2  0  0  0  0
 30 52  1  0  0  0  0
 30 57  1  0  0  0  0
 30 67  2  0  0  0  0
 31 51  1  0  0  0  0
 31 62  1  0  0  0  0
 31 68  2  0  0  0  0
 32 53  1  0  0  0  0
 32 63  1  0  0  0  0
 32 69  2  0  0  0  0
 33 58  1  0  0  0  0
 33 62  1  0  0  0  0
 33 70  2  0  0  0  0
 34 37  1  0  0  0  0
 35 44  1  0  0  0  0
 36 57  1  0  0  0  0
 37 39  1  0  0  0  0
 38 40  1  0  0  0  0
 38 41  1  0  0  0  0
 39 43  1  0  0  0  0
 40 45  1  0  0  0  0
 41 58  1  0  0  0  0
 42 45  1  0  0  0  0
 42 58  1  0  0  0  0
 43 61  1  0  0  0  0
 44 57  1  0  0  0  0
 45 56  1  0  0  0  0
 46 53  1  0  0  0  0
 47 54  1  0  0  0  0
 48 54  1  0  0  0  0
 49 54  1  0  0  0  0
 50 64  1  0  0  0  0
 51 72  1  0  0  0  0
 52 54  1  0  0  0  0
 52 63  1  0  0  0  0
 53 64  1  0  0  0  0
 55 56  1  0  0  0  0
M  CHG  1  64   1
M  ISO  4  33 100  51 101  62 100  72 101
M  END
> <Batch ID>
0001

> <Smiles>
CNC(C)C(=O)NC(C(=O)N1Cc2cc([101O:1][101CH2:1]C(=O)[100NH:0][100C:0](=O)N3CCCC(n4nc(-c5ccc(Oc6ccc(F)cc6F)cc5)c(C(N)=O)c4N)C3)ccc2CC1C(=O)NC1CCCc2ccccc21)C(C)(C)C

> <Shape>
0.172

> <Color>
0.130

> <Negative vol penalty>
0.000

$$$$

  -OEChem-04052315163D

 75 82  0     1  0  0  0  0  0999 V2000
  -19.3418  -16.5297   17.7205 C   0  0  0  0  0  0  0  0  0  0  0  0
  -20.5513  -17.2166   17.7467 C   0  0  0  0  0  0  0  0  0  0  0  0
  -22.1128  -28.0296   20.9944 C   0  0  0  0  0  0  0  0  0  0  0  0
  -23.4035  -27.6047   22.9921 C   0  0  0  0  0  0  0  0  0  0  0  0
  -19.1326  -15.4556   18.5844 C   0  0  0  0  0  0  0  0  0  0  0  0
  -21.5520  -16.8303   18.6377 C   0  0  0  0  0  0  0  0  0  0  0  0
  -27.5993  -17.0179   17.6887 C   0  0  0  0  0  0  0  0  0  0  0  0
  -20.9362  -27.9637   21.7405 C   0  0  0  0  0  0  0  0  0  0  0  0
  -22.2268  -27.5388   23.7383 C   0  0  0  0  0  0  0  0  0  0  0  0
  -28.5793  -17.9368   18.0617 C   0  0  0  0  0  0  0  0  0  0  0  0
  -19.1976  -29.9718   23.8328 C   0  0  0  0  0  0  0  0  0  0  0  0
  -18.2332  -30.9547   23.6106 C   0  0  0  0  0  0  0  0  0  0  0  0
  -29.1069  -16.5833   19.9876 C   0  0  0  0  0  0  0  0  0  0  0  0
  -16.6472  -29.2518   22.9612 C   0  0  0  0  0  0  0  0  0  0  0  0
  -23.3465  -27.8501   21.6202 C   0  0  0  0  0  0  0  0  0  0  0  0
  -25.3416  -29.0607   20.5898 C   0  0  0  0  0  0  0  0  0  0  0  0
  -20.1348  -15.0498   19.4797 C   0  0  0  0  0  0  0  0  0  0  0  0
  -27.3580  -15.8784   18.4696 C   0  0  0  0  0  0  0  0  0  0  0  0
  -21.3555  -15.7505   19.5153 C   0  0  0  0  0  0  0  0  0  0  0  0
  -28.1251  -15.6502   19.6209 C   0  0  0  0  0  0  0  0  0  0  0  0
  -20.9932  -27.7183   23.1125 C   0  0  0  0  0  0  0  0  0  0  0  0
  -29.3313  -17.7211   19.2129 C   0  0  0  0  0  0  0  0  0  0  0  0
  -18.8869  -28.6289   23.6191 C   0  0  0  0  0  0  0  0  0  0  0  0
  -16.9580  -30.5947   23.1748 C   0  0  0  0  0  0  0  0  0  0  0  0
  -17.6117  -28.2689   23.1833 C   0  0  0  0  0  0  0  0  0  0  0  0
  -24.5623  -27.9175   20.8498 C   0  0  0  0  0  0  0  0  0  0  0  0
  -26.3818  -28.5994   19.8206 C   0  0  0  0  0  0  0  0  0  0  0  0
  -25.1430  -30.4181   21.0063 C   0  0  0  0  0  0  0  0  0  0  0  0
  -24.8677  -14.7623   20.0994 C   0  0  0  0  0  0  0  0  0  0  0  0
  -28.8705  -23.1558   19.2857 C   0  0  0  0  0  0  0  0  0  0  0  0
  -26.7860  -12.1780   20.5036 C   0  0  0  0  0  0  0  0  0  0  0  0
  -29.9514  -10.9058   20.5974 C   0  0  0  0  0  0  0  0  0  0  0  0
  -19.8449  -13.9128   20.4272 C   0  0  0  0  0  0  0  0  0  0  0  0
  -26.3156  -14.8832   18.0391 C   0  0  0  0  0  0  0  0  0  0  0  0
  -27.9190  -14.4322   20.4826 C   0  0  0  0  0  0  0  0  0  0  0  0
  -21.0956  -13.3302   21.0804 C   0  0  0  0  0  0  0  0  0  0  0  0
  -27.4932  -25.1834   16.6719 C   0  0  0  0  0  0  0  0  0  0  0  0
  -21.9973  -14.4468   21.5972 C   0  0  0  0  0  0  0  0  0  0  0  0
  -26.6337  -26.2005   17.4216 C   0  0  0  0  0  0  0  0  0  0  0  0
  -27.4721  -23.8210   17.3579 C   0  0  0  0  0  0  0  0  0  0  0  0
  -27.0146  -24.8756   19.5488 C   0  0  0  0  0  0  0  0  0  0  0  0
  -22.4745  -15.3459   20.4503 C   0  0  1  0  0  0  0  0  0  0  0  0
  -25.8033  -14.0198   19.1878 C   0  0  1  0  0  0  0  0  0  0  0  0
  -27.0327  -26.2739   18.9061 C   0  0  2  0  0  0  0  0  0  0  0  0
  -31.2040   -8.7667   20.9880 C   0  0  0  0  0  0  0  0  0  0  0  0
  -26.3066  -12.4480   23.5048 C   0  0  0  0  0  0  0  0  0  0  0  0
  -28.2743  -10.9470   23.8836 C   0  0  0  0  0  0  0  0  0  0  0  0
  -26.2787  -10.0975   22.6513 C   0  0  0  0  0  0  0  0  0  0  0  0
  -31.1074  -10.9497   17.8733 C   0  0  0  0  0  0  0  0  0  0  0  0
  -29.1887  -23.3330   20.7490 C   0  0  0  0  0  0  0  0  0  0  0  0
  -30.3321  -22.4166   21.1473 C   0  0  0  0  0  0  0  0  0  0  0  0
  -30.5537  -18.7481   20.9754 C   0  0  0  0  0  0  0  0  0  1  0  0
  -31.0038  -20.1675   21.2624 C   0  0  0  0  0  0  0  0  0  0  0  0
  -27.8153  -11.7600   21.5258 C   0  0  1  0  0  0  0  0  0  0  0  0
  -30.5621   -9.6754   19.9512 C   0  0  2  0  0  0  0  0  0  0  0  0
  -27.1715  -11.3371   22.8764 C   0  0  0  0  0  0  0  0  0  0  0  0
  -25.0644  -26.8131   20.2911 N   0  0  0  0  0  0  0  0  0  0  0  0
  -26.1704  -27.2602   19.6722 N   0  0  0  0  0  0  0  0  0  0  0  0
  -26.8837  -13.4916   20.0232 N   0  0  0  0  0  0  0  0  0  0  0  0
  -27.8350  -23.9365   18.7715 N   0  0  0  0  0  0  0  0  0  0  0  0
  -27.4475  -29.2127   19.2634 N   0  0  0  0  0  0  0  0  0  0  0  0
  -24.0227  -30.7185   21.7931 N   0  0  0  0  0  0  0  0  0  0  0  0
  -23.5419  -14.7027   19.7144 N   0  0  0  0  0  0  0  0  0  0  0  0
  -28.6181  -10.7182   20.8944 N   0  0  0  0  0  0  0  0  0  0  0  0
  -31.6055  -10.0727   18.9640 N   0  3  0  0  0  0  0  0  0  0  0  0
  -25.9267  -31.3404   20.6764 O   0  0  0  0  0  0  0  0  0  0  0  0
  -25.3152  -15.3448   21.0802 O   0  0  0  0  0  0  0  0  0  0  0  0
  -29.5257  -22.3494   18.6205 O   0  0  0  0  0  0  0  0  0  0  0  0
  -25.9314  -11.3665   20.1393 O   0  0  0  0  0  0  0  0  0  0  0  0
  -30.5940  -11.9295   20.8202 O   0  0  0  0  0  0  0  0  0  0  0  0
  -19.8452  -27.6542   23.8409 O   0  0  0  0  0  0  0  0  0  0  0  0
  -30.2879  -18.6167   19.5796 O   0  0  0  0  0  0  0  0  0  1  0  0
  -29.9616  -21.0668   20.9039 O   0  0  0  0  0  0  0  0  0  0  0  0
  -16.0315  -31.5386   22.9630 F   0  0  0  0  0  0  0  0  0  0  0  0
  -17.3069  -26.9803   22.9774 F   0  0  0  0  0  0  0  0  0  0  0  0
  1  2  1  0  0  0  0
  1  5  2  0  0  0  0
  2  6  2  0  0  0  0
  3  8  2  0  0  0  0
  3 15  1  0  0  0  0
  4  9  1  0  0  0  0
  4 15  2  0  0  0  0
  5 17  1  0  0  0  0
  6 19  1  0  0  0  0
  7 10  2  0  0  0  0
  7 18  1  0  0  0  0
  8 21  1  0  0  0  0
  9 21  2  0  0  0  0
 10 22  1  0  0  0  0
 11 12  2  0  0  0  0
 11 23  1  0  0  0  0
 12 24  1  0  0  0  0
 13 20  1  0  0  0  0
 13 22  2  0  0  0  0
 14 24  2  0  0  0  0
 14 25  1  0  0  0  0
 15 26  1  0  0  0  0
 16 26  1  0  0  0  0
 16 27  2  0  0  0  0
 16 28  1  0  0  0  0
 17 19  2  0  0  0  0
 17 33  1  0  0  0  0
 18 20  2  0  0  0  0
 18 34  1  0  0  0  0
 19 42  1  0  0  0  0
 20 35  1  0  0  0  0
 21 71  1  0  0  0  0
 22 72  1  0  0  0  0
 23 25  2  0  0  0  0
 23 71  1  0  0  0  0
 24 74  1  0  0  0  0
 25 75  1  0  0  0  0
 26 57  2  0  0  0  0
 27 58  1  0  0  0  0
 27 61  1  0  0  0  0
 28 62  1  0  0  0  0
 28 66  2  0  0  0  0
 29 43  1  0  0  0  0
 29 63  1  0  0  0  0
 29 67  2  0  0  0  0
 30 50  1  0  0  0  0
 30 60  1  0  0  0  0
 30 68  2  0  0  0  0
 31 54  1  0  0  0  0
 31 59  1  0  0  0  0
 31 69  2  0  0  0  0
 32 55  1  0  0  0  0
 32 64  1  0  0  0  0
 32 70  2  0  0  0  0
 33 36  1  0  0  0  0
 34 43  1  0  0  0  0
 35 59  1  0  0  0  0
 36 38  1  0  0  0  0
 37 39  1  0  0  0  0
 37 40  1  0  0  0  0
 38 42  1  0  0  0  0
 39 44  1  0  0  0  0
 40 60  1  0  0  0  0
 41 44  1  0  0  0  0
 41 60  1  0  0  0  0
 42 63  1  0  0  0  0
 43 59  1  0  0  0  0
 44 58  1  0  0  0  0
 45 55  1  0  0  0  0
 46 56  1  0  0  0  0
 47 56  1  0  0  0  0
 48 56  1  0  0  0  0
 49 65  1  0  0  0  0
 50 51  1  0  0  0  0
 51 73  1  0  0  0  0
 52 53  1  0  0  0  0
 52 72  1  0  0  0  0
 53 73  1  0  0  0  0
 54 56  1  0  0  0  0
 54 64  1  0  0  0  0
 55 65  1  0  0  0  0
 57 58  1  0  0  0  0
M  CHG  1  65   1
M  ISO  4  30 100  50 100  52 101  72 101
M  END
> <Batch ID>
0001

> <Smiles>
CNC(C)C(=O)NC(C(=O)N1Cc2cc([101O:1][101CH2:1]COC[100CH2:0][100C:0](=O)N3CCCC(n4nc(-c5ccc(Oc6ccc(F)cc6F)cc5)c(C(N)=O)c4N)C3)ccc2CC1C(=O)NC1CCCc2ccccc21)C(C)(C)C

> <Shape>
0.252

> <Color>
0.082

> <Negative vol penalty>
0.000

$$$$

  -OEChem-04052315163D

 81 89  0     1  0  0  0  0  0999 V2000
  -24.5738  -32.0556   29.0851 C   0  0  0  0  0  0  0  0  0  0  0  0
  -25.3302  -31.2090   28.2810 C   0  0  0  0  0  0  0  0  0  0  0  0
  -24.5838   -8.9930   21.5609 C   0  0  0  0  0  0  0  0  0  0  0  0
  -23.9301  -10.7076   23.1324 C   0  0  0  0  0  0  0  0  0  0  0  0
  -23.2505  -32.3371   28.7479 C   0  0  0  0  0  0  0  0  0  0  0  0
  -24.7634  -30.6426   27.1398 C   0  0  0  0  0  0  0  0  0  0  0  0
  -27.5845  -29.4338   21.8402 C   0  0  0  0  0  0  0  0  0  0  0  0
  -26.0332  -20.6131   19.0839 C   0  0  0  0  0  0  0  0  0  0  0  0
  -28.3128  -21.0359   19.7633 C   0  0  0  0  0  0  0  0  0  0  0  0
  -26.2893  -19.2420   19.0780 C   0  0  0  0  0  0  0  0  0  0  0  0
  -28.5689  -19.6648   19.7575 C   0  0  0  0  0  0  0  0  0  0  0  0
  -24.1521   -8.0111   22.4525 C   0  0  0  0  0  0  0  0  0  0  0  0
  -23.4983   -9.7257   24.0241 C   0  0  0  0  0  0  0  0  0  0  0  0
  -28.1273  -28.2632   21.3122 C   0  0  0  0  0  0  0  0  0  0  0  0
  -22.8900   -5.0635   24.1653 C   0  0  0  0  0  0  0  0  0  0  0  0
  -22.1309   -4.0112   23.6535 C   0  0  0  0  0  0  0  0  0  0  0  0
  -26.0782  -27.8657   20.1028 C   0  0  0  0  0  0  0  0  0  0  0  0
  -20.4569   -5.5836   22.9034 C   0  0  0  0  0  0  0  0  0  0  0  0
  -24.4729  -10.3413   21.9008 C   0  0  0  0  0  0  0  0  0  0  0  0
  -24.1598  -11.9867   19.9767 C   0  0  0  0  0  0  0  0  0  0  0  0
  -22.6702  -31.7815   27.5968 C   0  0  0  0  0  0  0  0  0  0  0  0
  -26.2784  -29.8242   21.5115 C   0  0  0  0  0  0  0  0  0  0  0  0
  -23.4307  -30.9159   26.7877 C   0  0  0  0  0  0  0  0  0  0  0  0
  -25.5221  -29.0431   20.6259 C   0  0  0  0  0  0  0  0  0  0  0  0
  -27.0450  -21.5101   19.4265 C   0  0  0  0  0  0  0  0  0  0  0  0
  -27.5571  -18.7678   19.4148 C   0  0  0  0  0  0  0  0  0  0  0  0
  -23.6093   -8.3774   23.6841 C   0  0  0  0  0  0  0  0  0  0  0  0
  -27.3731  -27.4774   20.4456 C   0  0  0  0  0  0  0  0  0  0  0  0
  -22.4325   -6.3759   24.0463 C   0  0  0  0  0  0  0  0  0  0  0  0
  -20.9144   -4.2712   23.0225 C   0  0  0  0  0  0  0  0  0  0  0  0
  -21.2160   -6.6359   23.4154 C   0  0  0  0  0  0  0  0  0  0  0  0
  -24.9192  -11.3560   20.9804 C   0  0  0  0  0  0  0  0  0  0  0  0
  -25.0349  -12.8643   19.3845 C   0  0  0  0  0  0  0  0  0  0  0  0
  -22.7863  -11.7963   19.6123 C   0  0  0  0  0  0  0  0  0  0  0  0
  -23.5940  -30.2814   23.1513 C   0  0  0  0  0  0  0  0  0  0  0  0
  -22.4912  -31.3523   20.2948 C   0  0  0  0  0  0  0  0  0  0  0  0
  -27.6711  -23.9268   19.7453 C   0  0  0  0  0  0  0  0  0  0  0  0
  -22.7599  -31.3303   16.8927 C   0  0  0  0  0  0  0  0  0  0  0  0
  -29.0196  -16.7391   19.7174 C   0  0  0  0  0  0  0  0  0  0  0  0
  -21.2216  -32.0776   27.2989 C   0  0  0  0  0  0  0  0  0  0  0  0
  -25.7170  -31.1037   22.0684 C   0  0  0  0  0  0  0  0  0  0  0  0
  -24.1224  -29.4288   20.2255 C   0  0  0  0  0  0  0  0  0  0  0  0
  -20.8113  -31.7344   25.8692 C   0  0  0  0  0  0  0  0  0  0  0  0
  -30.0527  -13.3346   19.8560 C   0  0  0  0  0  0  0  0  0  0  0  0
  -21.3270  -30.3517   25.4832 C   0  0  0  0  0  0  0  0  0  0  0  0
  -28.7467  -12.5682   20.0783 C   0  0  0  0  0  0  0  0  0  0  0  0
  -30.0634  -14.6660   20.6050 C   0  0  0  0  0  0  0  0  0  0  0  0
  -27.6023  -14.7679   20.5667 C   0  0  0  0  0  0  0  0  0  0  0  0
  -22.8590  -30.3018   25.5283 C   0  0  1  0  0  0  0  0  0  0  0  0
  -24.1918  -31.1363   22.0699 C   0  0  1  0  0  0  0  0  0  0  0  0
  -27.5182  -13.4498   19.7799 C   0  0  2  0  0  0  0  0  0  0  0  0
  -21.6939  -32.2743   14.8264 C   0  0  0  0  0  0  0  0  0  0  0  0
  -20.1808  -29.3813   20.5893 C   0  0  0  0  0  0  0  0  0  0  0  0
  -19.7107  -29.6750   18.1478 C   0  0  0  0  0  0  0  0  0  0  0  0
  -19.5309  -31.6242   19.6941 C   0  0  0  0  0  0  0  0  0  0  0  0
  -25.2535  -32.7114   16.0967 C   0  0  0  0  0  0  0  0  0  0  0  0
  -26.9897  -25.2775   19.6276 C   0  0  0  0  0  0  0  0  0  1  0  0
  -21.8158  -30.7173   19.1034 C   0  0  1  0  0  0  0  0  0  0  0  0
  -22.7785  -32.4579   15.8765 C   0  0  2  0  0  0  0  0  0  0  0  0
  -20.3352  -30.3409   19.3925 C   0  0  0  0  0  0  0  0  0  0  0  0
  -26.1797  -11.7955   21.0261 N   0  0  0  0  0  0  0  0  0  0  0  0
  -26.2191  -12.7116   20.0437 N   0  0  0  0  0  0  0  0  0  0  0  0
  -23.6156  -30.6853   20.8015 N   0  0  0  0  0  0  0  0  0  0  0  0
  -28.8721  -15.4491   20.2696 N   0  0  0  0  0  0  0  0  0  0  0  0
  -24.8991  -13.7439   18.3695 N   0  0  0  0  0  0  0  0  0  0  0  0
  -22.0305  -10.8547   20.3240 N   0  0  0  0  0  0  0  0  0  0  0  0
  -26.7856  -22.9012   19.4322 N   0  0  0  0  0  0  0  0  0  0  0  0
  -27.8175  -17.3750   19.4089 N   0  0  0  0  0  0  0  0  0  0  0  0
  -23.4201  -30.9370   24.3552 N   0  0  0  0  0  0  0  0  0  0  0  0
  -21.9901  -31.6463   17.9922 N   0  0  0  0  0  0  0  0  0  0  0  0
  -24.0977  -32.5106   15.1853 N   0  3  0  0  0  0  0  0  0  0  0  0
  -22.2497  -12.4303   18.6723 O   0  0  0  0  0  0  0  0  0  0  0  0
  -23.3101  -29.1138   22.9107 O   0  0  0  0  0  0  0  0  0  0  0  0
  -22.0422  -32.4053   20.7544 O   0  0  0  0  0  0  0  0  0  0  0  0
  -28.8478  -23.8276   20.0773 O   0  0  0  0  0  0  0  0  0  0  0  0
  -23.3647  -30.2734   16.7261 O   0  0  0  0  0  0  0  0  0  0  0  0
  -30.1309  -17.2316   19.5066 O   0  0  0  0  0  0  0  0  0  0  0  0
  -23.1877   -7.4196   24.5544 O   0  0  0  0  0  0  0  0  0  0  0  0
  -27.9002  -26.3340   19.9294 O   0  0  0  0  0  0  0  0  0  1  0  0
  -20.1862   -3.2608   22.5296 F   0  0  0  0  0  0  0  0  0  0  0  0
  -20.7719   -7.8947   23.2970 F   0  0  0  0  0  0  0  0  0  0  0  0
  1  2  1  0  0  0  0
  1  5  2  0  0  0  0
  2  6  2  0  0  0  0
  3 12  2  0  0  0  0
  3 19  1  0  0  0  0
  4 13  1  0  0  0  0
  4 19  2  0  0  0  0
  5 21  1  0  0  0  0
  6 23  1  0  0  0  0
  7 14  2  0  0  0  0
  7 22  1  0  0  0  0
  8 10  2  0  0  0  0
  8 25  1  0  0  0  0
  9 11  1  0  0  0  0
  9 25  2  0  0  0  0
 10 26  1  0  0  0  0
 11 26  2  0  0  0  0
 12 27  1  0  0  0  0
 13 27  2  0  0  0  0
 14 28  1  0  0  0  0
 15 16  2  0  0  0  0
 15 29  1  0  0  0  0
 16 30  1  0  0  0  0
 17 24  1  0  0  0  0
 17 28  2  0  0  0  0
 18 30  2  0  0  0  0
 18 31  1  0  0  0  0
 19 32  1  0  0  0  0
 20 32  1  0  0  0  0
 20 33  2  0  0  0  0
 20 34  1  0  0  0  0
 21 23  2  0  0  0  0
 21 40  1  0  0  0  0
 22 24  2  0  0  0  0
 22 41  1  0  0  0  0
 23 49  1  0  0  0  0
 24 42  1  0  0  0  0
 25 67  1  0  0  0  0
 26 68  1  0  0  0  0
 27 78  1  0  0  0  0
 28 79  1  0  0  0  0
 29 31  2  0  0  0  0
 29 78  1  0  0  0  0
 30 80  1  0  0  0  0
 31 81  1  0  0  0  0
 32 61  2  0  0  0  0
 33 62  1  0  0  0  0
 33 65  1  0  0  0  0
 34 66  1  0  0  0  0
 34 72  2  0  0  0  0
 35 50  1  0  0  0  0
 35 69  1  0  0  0  0
 35 73  2  0  0  0  0
 36 58  1  0  0  0  0
 36 63  1  0  0  0  0
 36 74  2  0  0  0  0
 37 57  1  0  0  0  0
 37 67  1  0  0  0  0
 37 75  2  0  0  0  0
 38 59  1  0  0  0  0
 38 70  1  0  0  0  0
 38 76  2  0  0  0  0
 39 64  1  0  0  0  0
 39 68  1  0  0  0  0
 39 77  2  0  0  0  0
 40 43  1  0  0  0  0
 41 50  1  0  0  0  0
 42 63  1  0  0  0  0
 43 45  1  0  0  0  0
 44 46  1  0  0  0  0
 44 47  1  0  0  0  0
 45 49  1  0  0  0  0
 46 51  1  0  0  0  0
 47 64  1  0  0  0  0
 48 51  1  0  0  0  0
 48 64  1  0  0  0  0
 49 69  1  0  0  0  0
 50 63  1  0  0  0  0
 51 62  1  0  0  0  0
 52 59  1  0  0  0  0
 53 60  1  0  0  0  0
 54 60  1  0  0  0  0
 55 60  1  0  0  0  0
 56 71  1  0  0  0  0
 57 79  1  0  0  0  0
 58 60  1  0  0  0  0
 58 70  1  0  0  0  0
 59 71  1  0  0  0  0
 61 62  1  0  0  0  0
M  CHG  1  71   1
M  ISO  4  39 100  57 101  68 100  79 101
M  END
> <Batch ID>
0001

> <Smiles>
CNC(C)C(=O)NC(C(=O)N1Cc2cc([101O:1][101CH2:1]C(=O)Nc3ccc([100NH:0][100C:0](=O)N4CCCC(n5nc(-c6ccc(Oc7ccc(F)cc7F)cc6)c(C(N)=O)c5N)C4)cc3)ccc2CC1C(=O)NC1CCCc2ccccc21)C(C)(C)C

> <Shape>
0.258

> <Color>
0.118

> <Negative vol penalty>
0.000

$$$$

  -OEChem-04052315163D

 84 92  0     1  0  0  0  0  0999 V2000
  -19.9393  -33.6425   15.8106 C   0  0  0  0  0  0  0  0  0  0  0  0
  -20.7846  -32.5388   15.8632 C   0  0  0  0  0  0  0  0  0  0  0  0
  -32.3090  -18.6159   20.8413 C   0  0  0  0  0  0  0  0  0  0  0  0
  -23.2564   -9.6669   20.6876 C   0  0  0  0  0  0  0  0  0  0  0  0
  -23.3707  -11.2357   22.5213 C   0  0  0  0  0  0  0  0  0  0  0  0
  -20.2297  -34.7782   16.5655 C   0  0  0  0  0  0  0  0  0  0  0  0
  -21.9216  -32.5707   16.6699 C   0  0  0  0  0  0  0  0  0  0  0  0
  -24.3859  -27.8829   19.7452 C   0  0  0  0  0  0  0  0  0  0  0  0
  -31.4512  -19.6900   20.6046 C   0  0  0  0  0  0  0  0  0  0  0  0
  -31.8758  -17.3116   20.6028 C   0  0  0  0  0  0  0  0  0  0  0  0
  -22.3562   -8.8856   21.4120 C   0  0  0  0  0  0  0  0  0  0  0  0
  -22.4704  -10.4545   23.2458 C   0  0  0  0  0  0  0  0  0  0  0  0
  -25.4537  -27.0326   19.4613 C   0  0  0  0  0  0  0  0  0  0  0  0
  -22.4787   -6.6279   23.9244 C   0  0  0  0  0  0  0  0  0  0  0  0
  -22.6863   -5.2487   23.9413 C   0  0  0  0  0  0  0  0  0  0  0  0
  -26.9095  -28.4290   20.7841 C   0  0  0  0  0  0  0  0  0  0  0  0
  -20.5141   -4.9095   22.9395 C   0  0  0  0  0  0  0  0  0  0  0  0
  -23.7637  -10.8419   21.2422 C   0  0  0  0  0  0  0  0  0  0  0  0
  -24.3878  -12.7026   19.6125 C   0  0  0  0  0  0  0  0  0  0  0  0
  -21.3656  -34.8203   17.3893 C   0  0  0  0  0  0  0  0  0  0  0  0
  -24.5746  -29.0205   20.5431 C   0  0  0  0  0  0  0  0  0  0  0  0
  -22.2282  -33.7085   17.4355 C   0  0  0  0  0  0  0  0  0  0  0  0
  -25.8419  -29.2907   21.0788 C   0  0  0  0  0  0  0  0  0  0  0  0
  -29.7268  -18.1556   19.8910 C   0  0  0  0  0  0  0  0  0  0  0  0
  -30.1601  -19.4599   20.1295 C   0  0  0  0  0  0  0  0  0  0  0  0
  -30.5847  -17.0815   20.1277 C   0  0  0  0  0  0  0  0  0  0  0  0
  -21.9632   -9.2794   22.6911 C   0  0  0  0  0  0  0  0  0  0  0  0
  -26.7163  -27.3071   19.9784 C   0  0  0  0  0  0  0  0  0  0  0  0
  -21.2888   -7.1479   23.4151 C   0  0  0  0  0  0  0  0  0  0  0  0
  -21.7040   -4.3895   23.4489 C   0  0  0  0  0  0  0  0  0  0  0  0
  -20.3065   -6.2887   22.9227 C   0  0  0  0  0  0  0  0  0  0  0  0
  -24.6941  -11.6491   20.4946 C   0  0  0  0  0  0  0  0  0  0  0  0
  -25.6096  -13.1403   19.1630 C   0  0  0  0  0  0  0  0  0  0  0  0
  -23.1128  -13.2379   19.2335 C   0  0  0  0  0  0  0  0  0  0  0  0
  -24.2718  -32.1523   20.0916 C   0  0  0  0  0  0  0  0  0  0  0  0
  -24.8946  -32.2770   23.2726 C   0  0  0  0  0  0  0  0  0  0  0  0
  -29.5933  -21.9133   20.0884 C   0  0  0  0  0  0  0  0  0  0  0  0
  -26.2832  -30.7916   26.0134 C   0  0  0  0  0  0  0  0  0  0  0  0
  -30.9076  -14.5834   20.0858 C   0  0  0  0  0  0  0  0  0  0  0  0
  -21.6636  -36.0877   18.1506 C   0  0  0  0  0  0  0  0  0  0  0  0
  -23.4067  -29.9131   20.8620 C   0  0  0  0  0  0  0  0  0  0  0  0
  -26.0926  -30.4880   21.9574 C   0  0  0  0  0  0  0  0  0  0  0  0
  -22.6865  -35.9007   19.2682 C   0  0  0  0  0  0  0  0  0  0  0  0
  -30.2217  -11.1153   19.6629 C   0  0  0  0  0  0  0  0  0  0  0  0
  -23.8833  -35.0982   18.7677 C   0  0  0  0  0  0  0  0  0  0  0  0
  -28.6973  -11.0317   19.7690 C   0  0  0  0  0  0  0  0  0  0  0  0
  -30.8003  -12.1583   20.6174 C   0  0  0  0  0  0  0  0  0  0  0  0
  -28.6799  -13.4125   20.6165 C   0  0  0  0  0  0  0  0  0  0  0  0
  -23.4577  -33.6954   18.3177 C   0  0  1  0  0  0  0  0  0  0  0  0
  -23.8252  -31.3242   21.2631 C   0  0  1  0  0  0  0  0  0  0  0  0
  -28.0454  -12.4211   19.6274 C   0  0  2  0  0  0  0  0  0  0  0  0
  -28.3403  -17.9084   19.3818 C   0  0  0  0  0  0  0  0  0  0  0  0
  -26.6676  -31.1521   28.4669 C   0  0  0  0  0  0  0  0  0  0  0  0
  -27.1337  -34.2476   22.6299 C   0  0  0  0  0  0  0  0  0  0  0  0
  -28.0597  -33.8346   24.9190 C   0  0  0  0  0  0  0  0  0  0  0  0
  -25.7854  -34.8251   24.6555 C   0  0  0  0  0  0  0  0  0  0  0  0
  -24.7090  -28.3904   26.7310 C   0  0  0  0  0  0  0  0  0  0  0  0
  -28.3924  -22.7721   19.7169 C   0  0  0  0  0  0  0  0  0  0  0  0
  -28.6540  -24.2620   19.9078 C   0  0  0  0  0  0  0  0  0  0  0  0
  -27.4573  -25.1017   19.4854 C   0  0  0  0  0  0  0  0  0  1  0  0
  -26.1435  -32.3815   24.1142 C   0  0  1  0  0  0  0  0  0  0  0  0
  -25.7454  -30.5581   27.4136 C   0  0  2  0  0  0  0  0  0  0  0  0
  -26.7766  -33.8006   24.0615 C   0  0  0  0  0  0  0  0  0  0  0  0
  -26.0075  -11.4305   20.6004 N   0  0  0  0  0  0  0  0  0  0  0  0
  -26.5373  -12.3527   19.7789 N   0  0  0  0  0  0  0  0  0  0  0  0
  -24.9202  -31.3342   22.2352 N   0  0  0  0  0  0  0  0  0  0  0  0
  -30.1380  -13.4500   20.4231 N   0  0  0  0  0  0  0  0  0  0  0  0
  -25.9702  -14.1181   18.3049 N   0  0  0  0  0  0  0  0  0  0  0  0
  -21.9581  -12.6708   19.7896 N   0  0  0  0  0  0  0  0  0  0  0  0
  -29.3065  -20.5645   19.8978 N   0  0  0  0  0  0  0  0  0  0  0  0
  -30.1653  -15.7483   19.8943 N   0  0  0  0  0  0  0  0  0  0  0  0
  -23.2490  -32.8382   19.4649 N   0  0  0  0  0  0  0  0  0  0  0  0
  -25.7703  -31.9431   25.4547 N   0  0  0  0  0  0  0  0  0  0  0  0
  -25.6078  -29.0980   27.6788 N   0  3  0  0  0  0  0  0  0  0  0  0
  -23.0001  -14.1800   18.4130 O   0  0  0  0  0  0  0  0  0  0  0  0
  -25.4569  -32.1689   19.7802 O   0  0  0  0  0  0  0  0  0  0  0  0
  -23.9292  -33.0002   23.5308 O   0  0  0  0  0  0  0  0  0  0  0  0
  -30.6424  -22.4018   20.4947 O   0  0  0  0  0  0  0  0  0  0  0  0
  -27.0816  -30.0307   25.4710 O   0  0  0  0  0  0  0  0  0  0  0  0
  -32.1320  -14.5189   19.9484 O   0  0  0  0  0  0  0  0  0  0  0  0
  -21.0846   -8.5175   23.3982 O   0  0  0  0  0  0  0  0  0  0  0  0
  -27.7605  -26.4792   19.7024 O   0  0  0  0  0  0  0  0  0  1  0  0
  -21.9041   -3.0651   23.4638 F   0  0  0  0  0  0  0  0  0  0  0  0
  -19.1618   -6.7825   22.4310 F   0  0  0  0  0  0  0  0  0  0  0  0
  1  2  1  0  0  0  0
  1  6  2  0  0  0  0
  2  7  2  0  0  0  0
  3  9  2  0  0  0  0
  3 10  1  0  0  0  0
  4 11  2  0  0  0  0
  4 18  1  0  0  0  0
  5 12  1  0  0  0  0
  5 18  2  0  0  0  0
  6 20  1  0  0  0  0
  7 22  1  0  0  0  0
  8 13  2  0  0  0  0
  8 21  1  0  0  0  0
  9 25  1  0  0  0  0
 10 26  2  0  0  0  0
 11 27  1  0  0  0  0
 12 27  2  0  0  0  0
 13 28  1  0  0  0  0
 14 15  2  0  0  0  0
 14 29  1  0  0  0  0
 15 30  1  0  0  0  0
 16 23  1  0  0  0  0
 16 28  2  0  0  0  0
 17 30  2  0  0  0  0
 17 31  1  0  0  0  0
 18 32  1  0  0  0  0
 19 32  1  0  0  0  0
 19 33  2  0  0  0  0
 19 34  1  0  0  0  0
 20 22  2  0  0  0  0
 20 40  1  0  0  0  0
 21 23  2  0  0  0  0
 21 41  1  0  0  0  0
 22 49  1  0  0  0  0
 23 42  1  0  0  0  0
 24 25  2  0  0  0  0
 24 26  1  0  0  0  0
 24 52  1  0  0  0  0
 25 70  1  0  0  0  0
 26 71  1  0  0  0  0
 27 81  1  0  0  0  0
 28 82  1  0  0  0  0
 29 31  2  0  0  0  0
 29 81  1  0  0  0  0
 30 83  1  0  0  0  0
 31 84  1  0  0  0  0
 32 64  2  0  0  0  0
 33 65  1  0  0  0  0
 33 68  1  0  0  0  0
 34 69  1  0  0  0  0
 34 75  2  0  0  0  0
 35 50  1  0  0  0  0
 35 72  1  0  0  0  0
 35 76  2  0  0  0  0
 36 61  1  0  0  0  0
 36 66  1  0  0  0  0
 36 77  2  0  0  0  0
 37 58  1  0  0  0  0
 37 70  1  0  0  0  0
 37 78  2  0  0  0  0
 38 62  1  0  0  0  0
 38 73  1  0  0  0  0
 38 79  2  0  0  0  0
 39 67  1  0  0  0  0
 39 71  1  0  0  0  0
 39 80  2  0  0  0  0
 40 43  1  0  0  0  0
 41 50  1  0  0  0  0
 42 66  1  0  0  0  0
 43 45  1  0  0  0  0
 44 46  1  0  0  0  0
 44 47  1  0  0  0  0
 45 49  1  0  0  0  0
 46 51  1  0  0  0  0
 47 67  1  0  0  0  0
 48 51  1  0  0  0  0
 48 67  1  0  0  0  0
 49 72  1  0  0  0  0
 50 66  1  0  0  0  0
 51 65  1  0  0  0  0
 53 62  1  0  0  0  0
 54 63  1  0  0  0  0
 55 63  1  0  0  0  0
 56 63  1  0  0  0  0
 57 74  1  0  0  0  0
 58 59  1  0  0  0  0
 59 60  1  0  0  0  0
 60 82  1  0  0  0  0
 61 63  1  0  0  0  0
 61 73  1  0  0  0  0
 62 74  1  0  0  0  0
 64 65  1  0  0  0  0
M  CHG  1  74   1
M  ISO  4  39 100  60 101  71 100  82 101
M  END
> <Batch ID>
0001

> <Smiles>
CNC(C)C(=O)NC(C(=O)N1Cc2cc([101O:1][101CH2:1]CCC(=O)Nc3cccc([100NH:0][100C:0](=O)N4CCCC(n5nc(-c6ccc(Oc7ccc(F)cc7F)cc6)c(C(N)=O)c5N)C4)c3C)ccc2CC1C(=O)NC1CCCc2ccccc21)C(C)(C)C

> <Shape>
0.327

> <Color>
0.129

> <Negative vol penalty>
0.000

$$$$

  -OEChem-04052315163D

 79 86  0     1  0  0  0  0  0999 V2000
  -28.8123  -24.7450   16.7647 C   0  0  0  0  0  0  0  0  0  0  0  0
  -27.6115  -24.8376   17.4611 C   0  0  0  0  0  0  0  0  0  0  0  0
  -28.2701  -19.3504   22.5435 C   0  0  0  0  0  0  0  0  0  0  0  0
  -27.1762  -19.6752   20.4140 C   0  0  0  0  0  0  0  0  0  0  0  0
  -29.9573  -25.3624   17.2666 C   0  0  0  0  0  0  0  0  0  0  0  0
  -27.5553  -25.5467   18.6604 C   0  0  0  0  0  0  0  0  0  0  0  0
  -23.4942  -28.5583   18.9479 C   0  0  0  0  0  0  0  0  0  0  0  0
  -29.2994  -18.6553   21.9089 C   0  0  0  0  0  0  0  0  0  0  0  0
  -28.2056  -18.9800   19.7792 C   0  0  0  0  0  0  0  0  0  0  0  0
  -22.2751  -27.9557   19.2554 C   0  0  0  0  0  0  0  0  0  0  0  0
  -30.3619  -16.9805   17.6433 C   0  0  0  0  0  0  0  0  0  0  0  0
  -30.0080  -16.0282   16.6876 C   0  0  0  0  0  0  0  0  0  0  0  0
  -22.5073  -28.6696   21.5479 C   0  0  0  0  0  0  0  0  0  0  0  0
  -28.7702  -14.8056   18.3640 C   0  0  0  0  0  0  0  0  0  0  0  0
  -27.2085  -19.8604   21.7961 C   0  0  0  0  0  0  0  0  0  0  0  0
  -26.0782  -21.9627   22.6962 C   0  0  0  0  0  0  0  0  0  0  0  0
  -29.9128  -26.0876   18.4677 C   0  0  0  0  0  0  0  0  0  0  0  0
  -24.2355  -29.2128   19.9422 C   0  0  0  0  0  0  0  0  0  0  0  0
  -28.7010  -26.1733   19.1795 C   0  0  0  0  0  0  0  0  0  0  0  0
  -23.7343  -29.2819   21.2499 C   0  0  0  0  0  0  0  0  0  0  0  0
  -29.2672  -18.4701   20.5267 C   0  0  0  0  0  0  0  0  0  0  0  0
  -21.7829  -28.0088   20.5561 C   0  0  0  0  0  0  0  0  0  0  0  0
  -29.9200  -16.8453   18.9595 C   0  0  0  0  0  0  0  0  0  0  0  0
  -29.2121  -14.9408   17.0479 C   0  0  0  0  0  0  0  0  0  0  0  0
  -29.1242  -15.7579   19.3198 C   0  0  0  0  0  0  0  0  0  0  0  0
  -26.1446  -20.5780   22.4512 C   0  0  0  0  0  0  0  0  0  0  0  0
  -24.8776  -22.1405   23.3391 C   0  0  0  0  0  0  0  0  0  0  0  0
  -27.0179  -22.9959   22.3716 C   0  0  0  0  0  0  0  0  0  0  0  0
  -27.1100  -28.7998   21.2345 C   0  0  0  0  0  0  0  0  0  0  0  0
  -26.3998  -31.5797   22.7477 C   0  0  0  0  0  0  0  0  0  0  0  0
  -19.3411  -25.3513   20.9078 C   0  0  0  0  0  0  0  0  0  0  0  0
  -24.0060  -33.7336   23.8779 C   0  0  0  0  0  0  0  0  0  0  0  0
  -19.7738  -19.0099   23.3843 C   0  0  0  0  0  0  0  0  0  0  0  0
  -31.1872  -26.6981   18.9947 C   0  0  0  0  0  0  0  0  0  0  0  0
  -25.5358  -29.8809   19.5885 C   0  0  0  0  0  0  0  0  0  0  0  0
  -24.4818  -29.9898   22.3493 C   0  0  0  0  0  0  0  0  0  0  0  0
  -30.9571  -27.7456   20.0810 C   0  0  0  0  0  0  0  0  0  0  0  0
  -21.7860  -19.8646   26.1945 C   0  0  0  0  0  0  0  0  0  0  0  0
  -29.9584  -27.2331   21.1138 C   0  0  0  0  0  0  0  0  0  0  0  0
  -23.1252  -20.2693   25.5759 C   0  0  0  0  0  0  0  0  0  0  0  0
  -21.1370  -18.7122   25.4311 C   0  0  0  0  0  0  0  0  0  0  0  0
  -22.3203  -19.3439   23.3636 C   0  0  0  0  0  0  0  0  0  0  0  0
  -28.5942  -26.9544   20.4712 C   0  0  1  0  0  0  0  0  0  0  0  0
  -26.4535  -30.0767   20.7913 C   0  0  1  0  0  0  0  0  0  0  0  0
  -22.9865  -20.5396   24.0656 C   0  0  2  0  0  0  0  0  0  0  0  0
  -23.7307  -35.9025   25.1098 C   0  0  0  0  0  0  0  0  0  0  0  0
  -27.0265  -30.1634   25.3766 C   0  0  0  0  0  0  0  0  0  0  0  0
  -25.8466  -32.0173   26.5762 C   0  0  0  0  0  0  0  0  0  0  0  0
  -27.8848  -32.5074   25.2241 C   0  0  0  0  0  0  0  0  0  0  0  0
  -22.6644  -35.0087   21.5686 C   0  0  0  0  0  0  0  0  0  0  0  0
  -20.2218  -26.2752   20.0939 C   0  0  0  0  0  0  0  0  0  1  0  0
  -18.7820  -21.8323   20.7145 C   0  0  0  0  0  0  0  0  0  0  0  0
  -17.8737  -20.7289   21.2704 C   0  0  0  0  0  0  0  0  0  0  0  0
  -18.1065  -23.2006   20.7187 C   0  0  0  0  0  0  0  0  0  0  0  0
  -18.5436  -19.3583   21.2572 C   0  0  0  0  0  0  0  0  0  0  0  0
  -25.7199  -31.9477   24.0443 C   0  0  1  0  0  0  0  0  0  0  0  0
  -23.8632  -35.2393   23.7477 C   0  0  2  0  0  0  0  0  0  0  0  0
  -26.6060  -31.6439   25.2852 C   0  0  0  0  0  0  0  0  0  0  0  0
  -25.0716  -19.9227   22.9019 N   0  0  0  0  0  0  0  0  0  0  0  0
  -24.3197  -20.8998   23.4366 N   0  0  0  0  0  0  0  0  0  0  0  0
  -25.7516  -30.6220   21.9550 N   0  0  0  0  0  0  0  0  0  0  0  0
  -21.0335  -19.0327   24.0055 N   0  0  0  0  0  0  0  0  0  0  0  0
  -24.2552  -23.2356   23.8249 N   0  0  0  0  0  0  0  0  0  0  0  0
  -28.2010  -22.6393   21.7104 N   0  0  0  0  0  0  0  0  0  0  0  0
  -27.8742  -28.1914   20.2570 N   0  0  0  0  0  0  0  0  0  0  0  0
  -18.9520  -24.2394   20.1774 N   0  0  0  0  0  0  0  0  0  0  0  0
  -25.3291  -33.3476   23.9174 N   0  0  0  0  0  0  0  0  0  0  0  0
  -19.7637  -19.3323   22.0327 N   0  0  0  0  0  0  0  0  0  0  0  0
  -22.6565  -35.5773   22.9410 N   0  3  0  0  0  0  0  0  0  0  0  0
  -26.8218  -24.1974   22.6741 O   0  0  0  0  0  0  0  0  0  0  0  0
  -26.9373  -28.3972   22.3789 O   0  0  0  0  0  0  0  0  0  0  0  0
  -27.4631  -32.1273   22.4458 O   0  0  0  0  0  0  0  0  0  0  0  0
  -19.0266  -25.5874   22.0711 O   0  0  0  0  0  0  0  0  0  0  0  0
  -23.0404  -32.9760   23.9423 O   0  0  0  0  0  0  0  0  0  0  0  0
  -18.7345  -18.7286   23.9906 O   0  0  0  0  0  0  0  0  0  0  0  0
  -30.2716  -17.7920   19.9070 O   0  0  0  0  0  0  0  0  0  0  0  0
  -20.5936  -27.4209   20.8591 O   0  0  0  0  0  0  0  0  0  1  0  0
  -28.8711  -14.0272   16.1297 F   0  0  0  0  0  0  0  0  0  0  0  0
  -28.6957  -15.6234   20.5824 F   0  0  0  0  0  0  0  0  0  0  0  0
  1  2  1  0  0  0  0
  1  5  2  0  0  0  0
  2  6  2  0  0  0  0
  3  8  2  0  0  0  0
  3 15  1  0  0  0  0
  4  9  1  0  0  0  0
  4 15  2  0  0  0  0
  5 17  1  0  0  0  0
  6 19  1  0  0  0  0
  7 10  2  0  0  0  0
  7 18  1  0  0  0  0
  8 21  1  0  0  0  0
  9 21  2  0  0  0  0
 10 22  1  0  0  0  0
 11 12  2  0  0  0  0
 11 23  1  0  0  0  0
 12 24  1  0  0  0  0
 13 20  1  0  0  0  0
 13 22  2  0  0  0  0
 14 24  2  0  0  0  0
 14 25  1  0  0  0  0
 15 26  1  0  0  0  0
 16 26  1  0  0  0  0
 16 27  2  0  0  0  0
 16 28  1  0  0  0  0
 17 19  2  0  0  0  0
 17 34  1  0  0  0  0
 18 20  2  0  0  0  0
 18 35  1  0  0  0  0
 19 43  1  0  0  0  0
 20 36  1  0  0  0  0
 21 76  1  0  0  0  0
 22 77  1  0  0  0  0
 23 25  2  0  0  0  0
 23 76  1  0  0  0  0
 24 78  1  0  0  0  0
 25 79  1  0  0  0  0
 26 59  2  0  0  0  0
 27 60  1  0  0  0  0
 27 63  1  0  0  0  0
 28 64  1  0  0  0  0
 28 70  2  0  0  0  0
 29 44  1  0  0  0  0
 29 65  1  0  0  0  0
 29 71  2  0  0  0  0
 30 56  1  0  0  0  0
 30 61  1  0  0  0  0
 30 72  2  0  0  0  0
 31 51  1  0  0  0  0
 31 66  1  0  0  0  0
 31 73  2  0  0  0  0
 32 57  1  0  0  0  0
 32 67  1  0  0  0  0
 32 74  2  0  0  0  0
 33 62  1  0  0  0  0
 33 68  1  0  0  0  0
 33 75  2  0  0  0  0
 34 37  1  0  0  0  0
 35 44  1  0  0  0  0
 36 61  1  0  0  0  0
 37 39  1  0  0  0  0
 38 40  1  0  0  0  0
 38 41  1  0  0  0  0
 39 43  1  0  0  0  0
 40 45  1  0  0  0  0
 41 62  1  0  0  0  0
 42 45  1  0  0  0  0
 42 62  1  0  0  0  0
 43 65  1  0  0  0  0
 44 61  1  0  0  0  0
 45 60  1  0  0  0  0
 46 57  1  0  0  0  0
 47 58  1  0  0  0  0
 48 58  1  0  0  0  0
 49 58  1  0  0  0  0
 50 69  1  0  0  0  0
 51 77  1  0  0  0  0
 52 53  1  0  0  0  0
 52 54  1  0  0  0  0
 53 55  1  0  0  0  0
 54 66  1  0  0  0  0
 55 68  1  0  0  0  0
 56 58  1  0  0  0  0
 56 67  1  0  0  0  0
 57 69  1  0  0  0  0
 59 60  1  0  0  0  0
M  CHG  1  69   1
M  ISO  4  33 100  51 101  68 100  77 101
M  END
> <Batch ID>
0001

> <Smiles>
CNC(C)C(=O)NC(C(=O)N1Cc2cc([101O:1][101CH2:1]C(=O)NCCCC[100NH:0][100C:0](=O)N3CCCC(n4nc(-c5ccc(Oc6ccc(F)cc6F)cc5)c(C(N)=O)c4N)C3)ccc2CC1C(=O)NC1CCCc2ccccc21)C(C)(C)C

> <Shape>
0.232

> <Color>
0.073

> <Negative vol penalty>
0.000

$$$$

  -OEChem-04052315163D

 78 85  0     1  0  0  0  0  0999 V2000
  -21.1882  -10.9128   25.0774 C   0  0  0  0  0  0  0  0  0  0  0  0
  -22.2139  -11.8486   25.1643 C   0  0  0  0  0  0  0  0  0  0  0  0
  -23.1900   -9.8192   19.9311 C   0  0  0  0  0  0  0  0  0  0  0  0
  -23.5670   -9.9997   22.3107 C   0  0  0  0  0  0  0  0  0  0  0  0
  -19.9035  -11.3195   24.7197 C   0  0  0  0  0  0  0  0  0  0  0  0
  -21.9557  -13.1917   24.8925 C   0  0  0  0  0  0  0  0  0  0  0  0
  -24.0520  -16.3006   28.2962 C   0  0  0  0  0  0  0  0  0  0  0  0
  -22.4236   -8.6726   20.1394 C   0  0  0  0  0  0  0  0  0  0  0  0
  -22.8005   -8.8531   22.5190 C   0  0  0  0  0  0  0  0  0  0  0  0
  -25.4191  -16.5467   28.1767 C   0  0  0  0  0  0  0  0  0  0  0  0
  -21.2421   -5.7694   23.6472 C   0  0  0  0  0  0  0  0  0  0  0  0
  -21.7380   -4.8096   24.5295 C   0  0  0  0  0  0  0  0  0  0  0  0
  -24.9399  -18.6507   27.0984 C   0  0  0  0  0  0  0  0  0  0  0  0
  -23.6974   -4.5454   23.1410 C   0  0  0  0  0  0  0  0  0  0  0  0
  -23.7618  -10.4827   21.0167 C   0  0  0  0  0  0  0  0  0  0  0  0
  -24.1009  -12.9993   20.7730 C   0  0  0  0  0  0  0  0  0  0  0  0
  -19.6272  -12.6697   24.4528 C   0  0  0  0  0  0  0  0  0  0  0  0
  -23.1171  -17.2242   27.8071 C   0  0  0  0  0  0  0  0  0  0  0  0
  -20.6663  -13.6167   24.5296 C   0  0  0  0  0  0  0  0  0  0  0  0
  -23.5615  -18.4151   27.2152 C   0  0  0  0  0  0  0  0  0  0  0  0
  -22.2287   -8.1896   21.4334 C   0  0  0  0  0  0  0  0  0  0  0  0
  -25.8632  -17.7206   27.5752 C   0  0  0  0  0  0  0  0  0  0  0  0
  -21.9739   -6.1172   22.5117 C   0  0  0  0  0  0  0  0  0  0  0  0
  -22.9656   -4.1976   24.2764 C   0  0  0  0  0  0  0  0  0  0  0  0
  -23.2015   -5.5052   22.2586 C   0  0  0  0  0  0  0  0  0  0  0  0
  -24.5542  -11.6669   20.8021 C   0  0  0  0  0  0  0  0  0  0  0  0
  -25.2322  -13.7419   20.5383 C   0  0  0  0  0  0  0  0  0  0  0  0
  -22.7756  -13.5193   20.9431 C   0  0  0  0  0  0  0  0  0  0  0  0
  -20.8450  -17.1532   25.5853 C   0  0  0  0  0  0  0  0  0  0  0  0
  -20.1630  -20.1053   26.7438 C   0  0  0  0  0  0  0  0  0  0  0  0
  -21.2443  -22.8929   28.3890 C   0  0  0  0  0  0  0  0  0  0  0  0
  -31.0464  -12.7515   21.5709 C   0  0  0  0  0  0  0  0  0  0  0  0
  -18.2334  -13.0545   24.0238 C   0  0  0  0  0  0  0  0  0  0  0  0
  -21.6457  -16.9562   27.9677 C   0  0  0  0  0  0  0  0  0  0  0  0
  -22.5984  -19.4482   26.6921 C   0  0  0  0  0  0  0  0  0  0  0  0
  -17.9595  -14.5533   24.1168 C   0  0  0  0  0  0  0  0  0  0  0  0
  -29.5208  -13.4689   18.4349 C   0  0  0  0  0  0  0  0  0  0  0  0
  -19.1125  -15.3455   23.5086 C   0  0  0  0  0  0  0  0  0  0  0  0
  -28.0340  -13.2086   18.6833 C   0  0  0  0  0  0  0  0  0  0  0  0
  -30.4016  -12.4795   19.1946 C   0  0  0  0  0  0  0  0  0  0  0  0
  -28.6471  -12.1369   20.8911 C   0  0  0  0  0  0  0  0  0  0  0  0
  -20.4201  -15.0865   24.2665 C   0  0  1  0  0  0  0  0  0  0  0  0
  -20.7856  -17.7284   26.9721 C   0  0  1  0  0  0  0  0  0  0  0  0
  -27.7201  -13.1447   20.1902 C   0  0  2  0  0  0  0  0  0  0  0  0
  -20.4702  -25.1550   29.1512 C   0  0  0  0  0  0  0  0  0  0  0  0
  -20.3830  -21.1420   23.8825 C   0  0  0  0  0  0  0  0  0  0  0  0
  -20.5512  -23.4615   24.8099 C   0  0  0  0  0  0  0  0  0  0  0  0
  -18.4909  -22.1104   25.2004 C   0  0  0  0  0  0  0  0  0  0  0  0
  -21.7274  -22.2284   31.2323 C   0  0  0  0  0  0  0  0  0  0  0  0
  -31.5747  -14.4828   24.3581 C   0  0  0  0  0  0  0  0  0  0  0  0
  -30.2029  -15.0226   24.7637 C   0  0  0  0  0  0  0  0  0  0  0  0
  -31.5352  -13.0028   23.9910 C   0  0  0  0  0  0  0  0  0  0  0  0
  -30.2754  -16.4907   25.1643 C   0  0  0  0  0  0  0  0  0  0  0  0
  -27.6181  -18.7470   26.3411 C   0  0  0  0  0  0  0  0  0  1  0  0
  -29.0146  -18.3186   25.9337 C   0  0  0  0  0  0  0  0  0  0  0  0
  -20.6183  -21.5094   26.4273 C   0  0  1  0  0  0  0  0  0  0  0  0
  -20.6346  -23.6907   29.5275 C   0  0  2  0  0  0  0  0  0  0  0  0
  -20.0293  -22.0357   25.0881 C   0  0  0  0  0  0  0  0  0  0  0  0
  -25.8708  -11.5657   20.6017 N   0  0  0  0  0  0  0  0  0  0  0  0
  -26.2546  -12.8440   20.4444 N   0  0  0  0  0  0  0  0  0  0  0  0
  -21.1699  -19.1374   26.8668 N   0  0  0  0  0  0  0  0  0  0  0  0
  -30.0543  -12.4684   20.6177 N   0  0  0  0  0  0  0  0  0  0  0  0
  -25.4423  -15.0687   20.4052 N   0  0  0  0  0  0  0  0  0  0  0  0
  -21.7287  -12.6172   21.1766 N   0  0  0  0  0  0  0  0  0  0  0  0
  -20.4425  -15.8336   25.5057 N   0  0  0  0  0  0  0  0  0  0  0  0
  -20.2766  -22.3212   27.5903 N   0  0  0  0  0  0  0  0  0  0  0  0
  -30.6314  -12.7262   22.8968 N   0  0  0  0  0  0  0  0  0  0  0  0
  -21.5003  -23.6108   30.7379 N   0  3  0  0  0  0  0  0  0  0  0  0
  -22.5245  -14.7464   20.8732 O   0  0  0  0  0  0  0  0  0  0  0  0
  -21.2263  -17.8550   24.6559 O   0  0  0  0  0  0  0  0  0  0  0  0
  -18.9589  -19.8771   26.8840 O   0  0  0  0  0  0  0  0  0  0  0  0
  -22.4577  -22.7904   28.2225 O   0  0  0  0  0  0  0  0  0  0  0  0
  -32.2141  -13.0130   21.2629 O   0  0  0  0  0  0  0  0  0  0  0  0
  -21.4806   -7.0709   21.6371 O   0  0  0  0  0  0  0  0  0  0  0  0
  -27.1970  -17.9630   27.4566 O   0  0  0  0  0  0  0  0  0  1  0  0
  -28.9875  -16.9487   25.5518 O   0  0  0  0  0  0  0  0  0  0  0  0
  -23.4423   -3.2770   25.1246 F   0  0  0  0  0  0  0  0  0  0  0  0
  -23.9096   -5.8360   21.1700 F   0  0  0  0  0  0  0  0  0  0  0  0
  1  2  1  0  0  0  0
  1  5  2  0  0  0  0
  2  6  2  0  0  0  0
  3  8  2  0  0  0  0
  3 15  1  0  0  0  0
  4  9  1  0  0  0  0
  4 15  2  0  0  0  0
  5 17  1  0  0  0  0
  6 19  1  0  0  0  0
  7 10  2  0  0  0  0
  7 18  1  0  0  0  0
  8 21  1  0  0  0  0
  9 21  2  0  0  0  0
 10 22  1  0  0  0  0
 11 12  2  0  0  0  0
 11 23  1  0  0  0  0
 12 24  1  0  0  0  0
 13 20  1  0  0  0  0
 13 22  2  0  0  0  0
 14 24  2  0  0  0  0
 14 25  1  0  0  0  0
 15 26  1  0  0  0  0
 16 26  1  0  0  0  0
 16 27  2  0  0  0  0
 16 28  1  0  0  0  0
 17 19  2  0  0  0  0
 17 33  1  0  0  0  0
 18 20  2  0  0  0  0
 18 34  1  0  0  0  0
 19 42  1  0  0  0  0
 20 35  1  0  0  0  0
 21 74  1  0  0  0  0
 22 75  1  0  0  0  0
 23 25  2  0  0  0  0
 23 74  1  0  0  0  0
 24 77  1  0  0  0  0
 25 78  1  0  0  0  0
 26 59  2  0  0  0  0
 27 60  1  0  0  0  0
 27 63  1  0  0  0  0
 28 64  1  0  0  0  0
 28 69  2  0  0  0  0
 29 43  1  0  0  0  0
 29 65  1  0  0  0  0
 29 70  2  0  0  0  0
 30 56  1  0  0  0  0
 30 61  1  0  0  0  0
 30 71  2  0  0  0  0
 31 57  1  0  0  0  0
 31 66  1  0  0  0  0
 31 72  2  0  0  0  0
 32 62  1  0  0  0  0
 32 67  1  0  0  0  0
 32 73  2  0  0  0  0
 33 36  1  0  0  0  0
 34 43  1  0  0  0  0
 35 61  1  0  0  0  0
 36 38  1  0  0  0  0
 37 39  1  0  0  0  0
 37 40  1  0  0  0  0
 38 42  1  0  0  0  0
 39 44  1  0  0  0  0
 40 62  1  0  0  0  0
 41 44  1  0  0  0  0
 41 62  1  0  0  0  0
 42 65  1  0  0  0  0
 43 61  1  0  0  0  0
 44 60  1  0  0  0  0
 45 57  1  0  0  0  0
 46 58  1  0  0  0  0
 47 58  1  0  0  0  0
 48 58  1  0  0  0  0
 49 68  1  0  0  0  0
 50 51  1  0  0  0  0
 50 52  1  0  0  0  0
 51 53  1  0  0  0  0
 52 67  1  0  0  0  0
 53 76  1  0  0  0  0
 54 55  1  0  0  0  0
 54 75  1  0  0  0  0
 55 76  1  0  0  0  0
 56 58  1  0  0  0  0
 56 66  1  0  0  0  0
 57 68  1  0  0  0  0
 59 60  1  0  0  0  0
M  CHG  1  68   1
M  ISO  4  32 100  54 101  67 100  75 101
M  END
> <Batch ID>
0001

> <Smiles>
CNC(C)C(=O)NC(C(=O)N1Cc2cc([101O:1][101CH2:1]COCCCC[100NH:0][100C:0](=O)N3CCCC(n4nc(-c5ccc(Oc6ccc(F)cc6F)cc5)c(C(N)=O)c4N)C3)ccc2CC1C(=O)NC1CCCc2ccccc21)C(C)(C)C

> <Shape>
0.144

> <Color>
0.190

> <Negative vol penalty>
0.000

$$$$

  -OEChem-04052315163D

 88 95  0     1  0  0  0  0  0999 V2000
  -39.5560  -18.5111   21.6133 C   0  0  0  0  0  0  0  0  0  0  0  0
  -38.2144  -18.3485   21.9434 C   0  0  0  0  0  0  0  0  0  0  0  0
  -23.1177   -9.8491   19.9344 C   0  0  0  0  0  0  0  0  0  0  0  0
  -23.4988   -9.9739   22.3169 C   0  0  0  0  0  0  0  0  0  0  0  0
  -40.0475  -19.7780   21.3016 C   0  0  0  0  0  0  0  0  0  0  0  0
  -37.3636  -19.4532   21.9631 C   0  0  0  0  0  0  0  0  0  0  0  0
  -32.9275  -18.5293   19.7020 C   0  0  0  0  0  0  0  0  0  0  0  0
  -22.3078   -8.7292   20.1227 C   0  0  0  0  0  0  0  0  0  0  0  0
  -22.6888   -8.8541   22.5052 C   0  0  0  0  0  0  0  0  0  0  0  0
  -31.9845  -17.7993   20.4243 C   0  0  0  0  0  0  0  0  0  0  0  0
  -22.9618   -5.4995   22.1839 C   0  0  0  0  0  0  0  0  0  0  0  0
  -23.4216   -4.5048   23.0469 C   0  0  0  0  0  0  0  0  0  0  0  0
  -30.8458  -19.8475   20.9963 C   0  0  0  0  0  0  0  0  0  0  0  0
  -21.4742   -4.8156   24.4426 C   0  0  0  0  0  0  0  0  0  0  0  0
  -23.7133  -10.4714   21.0316 C   0  0  0  0  0  0  0  0  0  0  0  0
  -24.1485  -12.9770   20.8315 C   0  0  0  0  0  0  0  0  0  0  0  0
  -39.2002  -20.8973   21.3081 C   0  0  0  0  0  0  0  0  0  0  0  0
  -32.8428  -19.9272   19.6304 C   0  0  0  0  0  0  0  0  0  0  0  0
  -37.8445  -20.7365   21.6525 C   0  0  0  0  0  0  0  0  0  0  0  0
  -31.7875  -20.5928   20.2704 C   0  0  0  0  0  0  0  0  0  0  0  0
  -22.0933   -8.2317   21.4080 C   0  0  0  0  0  0  0  0  0  0  0  0
  -30.9452  -18.4586   21.0740 C   0  0  0  0  0  0  0  0  0  0  0  0
  -21.7583   -6.1523   22.4503 C   0  0  0  0  0  0  0  0  0  0  0  0
  -22.6778   -4.1628   24.1762 C   0  0  0  0  0  0  0  0  0  0  0  0
  -21.0145   -5.8104   23.5796 C   0  0  0  0  0  0  0  0  0  0  0  0
  -24.5506  -11.6279   20.8377 C   0  0  0  0  0  0  0  0  0  0  0  0
  -25.3077  -13.6797   20.6101 C   0  0  0  0  0  0  0  0  0  0  0  0
  -22.8439  -13.5443   21.0100 C   0  0  0  0  0  0  0  0  0  0  0  0
  -34.7052  -22.3369   20.5405 C   0  0  0  0  0  0  0  0  0  0  0  0
  -32.4922  -24.1240   18.9813 C   0  0  0  0  0  0  0  0  0  0  0  0
  -37.0154  -18.3815   25.6789 C   0  0  0  0  0  0  0  0  0  0  0  0
  -29.2947  -24.4138   17.8242 C   0  0  0  0  0  0  0  0  0  0  0  0
  -29.9585  -18.0837   23.1462 C   0  0  0  0  0  0  0  0  0  1  0  0
  -31.0787  -12.4502   21.6277 C   0  0  0  0  0  0  0  0  0  0  0  0
  -39.7876  -22.2541   21.0103 C   0  0  0  0  0  0  0  0  0  0  0  0
  -33.8526  -20.6979   18.8250 C   0  0  0  0  0  0  0  0  0  0  0  0
  -31.6402  -22.0904   20.2074 C   0  0  0  0  0  0  0  0  0  0  0  0
  -38.7380  -23.3150   20.6893 C   0  0  0  0  0  0  0  0  0  0  0  0
  -29.5849  -13.2793   18.5039 C   0  0  0  0  0  0  0  0  0  0  0  0
  -37.5990  -23.2630   21.7026 C   0  0  0  0  0  0  0  0  0  0  0  0
  -28.0890  -13.0718   18.7473 C   0  0  0  0  0  0  0  0  0  0  0  0
  -30.4265  -12.2440   19.2468 C   0  0  0  0  0  0  0  0  0  0  0  0
  -28.6583  -11.9395   20.9365 C   0  0  0  0  0  0  0  0  0  0  0  0
  -36.8848  -21.9066   21.6607 C   0  0  1  0  0  0  0  0  0  0  0  0
  -33.9626  -22.1600   19.2463 C   0  0  1  0  0  0  0  0  0  0  0  0
  -27.7713  -12.9940   20.2527 C   0  0  2  0  0  0  0  0  0  0  0  0
  -37.9326  -17.2157   25.5117 C   0  0  0  0  0  0  0  0  0  0  0  0
  -27.7710  -26.0055   16.6233 C   0  0  0  0  0  0  0  0  0  0  0  0
  -32.2134  -25.7769   21.5309 C   0  0  0  0  0  0  0  0  0  0  0  0
  -30.0709  -26.6957   20.6178 C   0  0  0  0  0  0  0  0  0  0  0  0
  -32.2170  -27.1129   19.4167 C   0  0  0  0  0  0  0  0  0  0  0  0
  -28.8846  -22.5174   15.5894 C   0  0  0  0  0  0  0  0  0  0  0  0
  -28.9038  -17.2320   23.8221 C   0  0  0  0  0  0  0  0  0  0  0  0
  -33.0324  -17.7481   25.7432 C   0  0  0  0  0  0  0  0  0  0  0  0
  -33.7735  -19.0697   25.9732 C   0  0  0  0  0  0  0  0  0  0  0  0
  -31.9247  -17.5485   26.7823 C   0  0  0  0  0  0  0  0  0  0  0  0
  -31.6666  -14.1123   24.4409 C   0  0  0  0  0  0  0  0  0  0  0  0
  -34.8462  -19.3313   24.9208 C   0  0  0  0  0  0  0  0  0  0  0  0
  -31.5742  -12.6408   24.0520 C   0  0  0  0  0  0  0  0  0  0  0  0
  -29.2448  -16.8869   25.2637 C   0  0  0  0  0  0  0  0  0  0  0  0
  -31.2016  -16.2140   26.6489 C   0  0  0  0  0  0  0  0  0  0  0  0
  -30.3265  -14.6736   24.8991 C   0  0  0  0  0  0  0  0  0  0  0  0
  -31.1985  -24.7994   19.3674 C   0  0  1  0  0  0  0  0  0  0  0  0
  -28.7465  -24.8481   16.4769 C   0  0  2  0  0  0  0  0  0  0  0  0
  -31.4285  -26.0681   20.2362 C   0  0  0  0  0  0  0  0  0  0  0  0
  -25.8626  -11.4799   20.6361 N   0  0  0  0  0  0  0  0  0  0  0  0
  -26.2951  -12.7452   20.5011 N   0  0  0  0  0  0  0  0  0  0  0  0
  -32.6562  -22.8001   19.4128 N   0  0  0  0  0  0  0  0  0  0  0  0
  -30.0774  -12.2217   20.6694 N   0  0  0  0  0  0  0  0  0  0  0  0
  -25.5685  -14.9997   20.5000 N   0  0  0  0  0  0  0  0  0  0  0  0
  -21.7631  -12.6790   21.2275 N   0  0  0  0  0  0  0  0  0  0  0  0
  -35.9942  -21.8393   20.5220 N   0  0  0  0  0  0  0  0  0  0  0  0
  -35.8630  -18.3164   24.9106 N   0  0  0  0  0  0  0  0  0  0  0  0
  -30.4813  -25.0500   18.1220 N   0  0  0  0  0  0  0  0  0  0  0  0
  -30.6616  -12.4179   22.9528 N   0  0  0  0  0  0  0  0  0  0  0  0
  -28.0368  -23.7159   15.8171 N   0  3  0  0  0  0  0  0  0  0  0  0
  -30.5107  -16.1132   25.3113 N   0  3  1  0  0  0  0  0  0  0  0  0
  -22.6400  -14.7811   20.9613 O   0  0  0  0  0  0  0  0  0  0  0  0
  -34.1504  -22.8856   21.4853 O   0  0  0  0  0  0  0  0  0  0  0  0
  -33.3236  -24.7458   18.3151 O   0  0  0  0  0  0  0  0  0  0  0  0
  -37.3199  -19.2840   26.4500 O   0  0  0  0  0  0  0  0  0  0  0  0
  -28.7253  -23.5951   18.5425 O   0  0  0  0  0  0  0  0  0  0  0  0
  -30.6544  -18.9238   23.7002 O   0  0  0  0  0  0  0  0  0  0  0  0
  -32.2559  -12.6721   21.3247 O   0  0  0  0  0  0  0  0  0  0  0  0
  -21.3028   -7.1391   21.5921 O   0  0  0  0  0  0  0  0  0  0  0  0
  -30.0238  -17.7485   21.7802 O   0  0  0  0  0  0  0  0  0  1  0  0
  -23.1187   -3.2066   25.0040 F   0  0  0  0  0  0  0  0  0  0  0  0
  -19.8568   -6.4332   23.8401 F   0  0  0  0  0  0  0  0  0  0  0  0
  1  2  1  0  0  0  0
  1  5  2  0  0  0  0
  2  6  2  0  0  0  0
  3  8  2  0  0  0  0
  3 15  1  0  0  0  0
  4  9  1  0  0  0  0
  4 15  2  0  0  0  0
  5 17  1  0  0  0  0
  6 19  1  0  0  0  0
  7 10  2  0  0  0  0
  7 18  1  0  0  0  0
  8 21  1  0  0  0  0
  9 21  2  0  0  0  0
 10 22  1  0  0  0  0
 11 12  2  0  0  0  0
 11 23  1  0  0  0  0
 12 24  1  0  0  0  0
 13 20  1  0  0  0  0
 13 22  2  0  0  0  0
 14 24  2  0  0  0  0
 14 25  1  0  0  0  0
 15 26  1  0  0  0  0
 16 26  1  0  0  0  0
 16 27  2  0  0  0  0
 16 28  1  0  0  0  0
 17 19  2  0  0  0  0
 17 35  1  0  0  0  0
 18 20  2  0  0  0  0
 18 36  1  0  0  0  0
 19 44  1  0  0  0  0
 20 37  1  0  0  0  0
 21 85  1  0  0  0  0
 22 86  1  0  0  0  0
 23 25  2  0  0  0  0
 23 85  1  0  0  0  0
 24 87  1  0  0  0  0
 25 88  1  0  0  0  0
 26 66  2  0  0  0  0
 27 67  1  0  0  0  0
 27 70  1  0  0  0  0
 28 71  1  0  0  0  0
 28 78  2  0  0  0  0
 29 45  1  0  0  0  0
 29 72  1  0  0  0  0
 29 79  2  0  0  0  0
 30 63  1  0  0  0  0
 30 68  1  0  0  0  0
 30 80  2  0  0  0  0
 31 47  1  0  0  0  0
 31 73  1  0  0  0  0
 31 81  2  0  0  0  0
 32 64  1  0  0  0  0
 32 74  1  0  0  0  0
 32 82  2  0  0  0  0
 33 53  1  0  0  0  0
 33 83  2  0  0  0  0
 33 86  1  0  0  0  0
 34 69  1  0  0  0  0
 34 75  1  0  0  0  0
 34 84  2  0  0  0  0
 35 38  1  0  0  0  0
 36 45  1  0  0  0  0
 37 68  1  0  0  0  0
 38 40  1  0  0  0  0
 39 41  1  0  0  0  0
 39 42  1  0  0  0  0
 40 44  1  0  0  0  0
 41 46  1  0  0  0  0
 42 69  1  0  0  0  0
 43 46  1  0  0  0  0
 43 69  1  0  0  0  0
 44 72  1  0  0  0  0
 45 68  1  0  0  0  0
 46 67  1  0  0  0  0
 48 64  1  0  0  0  0
 49 65  1  0  0  0  0
 50 65  1  0  0  0  0
 51 65  1  0  0  0  0
 52 76  1  0  0  0  0
 53 60  1  0  0  0  0
 54 55  1  0  0  0  0
 54 56  1  0  0  0  0
 55 58  1  0  0  0  0
 56 61  1  0  0  0  0
 57 59  1  0  0  0  0
 57 62  1  0  0  0  0
 58 73  1  0  0  0  0
 59 75  1  0  0  0  0
 60 77  1  0  0  0  0
 61 77  1  0  0  0  0
 62 77  1  0  0  0  0
 63 65  1  0  0  0  0
 63 74  1  0  0  0  0
 64 76  1  0  0  0  0
 66 67  1  0  0  0  0
M  CHG  2  76   1  77   1
M  ISO  4  33 101  34 100  75 100  86 101
M  END
> <Batch ID>
0001

> <Smiles>
CNC(C)C(=O)NC(C(=O)N1Cc2cc([101O:1][101C:1](=O)CCN(CCCCCNC(C)=O)CCC[100NH:0][100C:0](=O)N3CCCC(n4nc(-c5ccc(Oc6ccc(F)cc6F)cc5)c(C(N)=O)c4N)C3)ccc2CC1C(=O)NC1CCCc2ccccc21)C(C)(C)C

> <Shape>
0.208

> <Color>
0.189

> <Negative vol penalty>
0.000

$$$$

  -OEChem-04052315163D

 76 83  0     1  0  0  0  0  0999 V2000
  -16.1600  -22.7176   22.5581 C   0  0  0  0  0  0  0  0  0  0  0  0
  -17.4333  -22.6316   22.0043 C   0  0  0  0  0  0  0  0  0  0  0  0
  -23.0622   -9.9075   19.9658 C   0  0  0  0  0  0  0  0  0  0  0  0
  -23.8771   -9.8683   22.2399 C   0  0  0  0  0  0  0  0  0  0  0  0
  -15.9799  -22.5083   23.9248 C   0  0  0  0  0  0  0  0  0  0  0  0
  -18.5275  -22.3372   22.8170 C   0  0  0  0  0  0  0  0  0  0  0  0
  -23.4690  -19.0565   21.2924 C   0  0  0  0  0  0  0  0  0  0  0  0
  -22.3096   -8.7601   20.2158 C   0  0  0  0  0  0  0  0  0  0  0  0
  -23.1244   -8.7209   22.4899 C   0  0  0  0  0  0  0  0  0  0  0  0
  -24.7491  -19.4249   20.8811 C   0  0  0  0  0  0  0  0  0  0  0  0
  -21.1365   -5.9883   23.8314 C   0  0  0  0  0  0  0  0  0  0  0  0
  -20.4082   -5.9357   25.0198 C   0  0  0  0  0  0  0  0  0  0  0  0
  -25.5335  -19.2128   23.1524 C   0  0  0  0  0  0  0  0  0  0  0  0
  -19.1718   -7.9001   24.3490 C   0  0  0  0  0  0  0  0  0  0  0  0
  -23.8461  -10.4616   20.9779 C   0  0  0  0  0  0  0  0  0  0  0  0
  -24.2180  -12.9838   20.8890 C   0  0  0  0  0  0  0  0  0  0  0  0
  -17.0711  -22.2017   24.7530 C   0  0  0  0  0  0  0  0  0  0  0  0
  -23.2086  -18.7736   22.6410 C   0  0  0  0  0  0  0  0  0  0  0  0
  -18.3620  -22.1249   24.1962 C   0  0  0  0  0  0  0  0  0  0  0  0
  -24.2498  -18.8385   23.5779 C   0  0  0  0  0  0  0  0  0  0  0  0
  -22.3406   -8.1668   21.4778 C   0  0  0  0  0  0  0  0  0  0  0  0
  -25.7810  -19.5059   21.8115 C   0  0  0  0  0  0  0  0  0  0  0  0
  -20.8826   -6.9968   22.9018 C   0  0  0  0  0  0  0  0  0  0  0  0
  -19.4258   -6.8916   25.2786 C   0  0  0  0  0  0  0  0  0  0  0  0
  -19.9003   -7.9527   23.1606 C   0  0  0  0  0  0  0  0  0  0  0  0
  -24.6243  -11.6466   20.7202 C   0  0  0  0  0  0  0  0  0  0  0  0
  -25.3108  -13.7250   20.5111 C   0  0  0  0  0  0  0  0  0  0  0  0
  -22.9648  -13.5090   21.3467 C   0  0  0  0  0  0  0  0  0  0  0  0
  -21.3315  -20.0335   24.8754 C   0  0  0  0  0  0  0  0  0  0  0  0
  -22.3526  -17.4923   26.6138 C   0  0  0  0  0  0  0  0  0  0  0  0
  -24.7431  -15.1140   27.1391 C   0  0  0  0  0  0  0  0  0  0  0  0
  -30.8103  -14.6711   20.5822 C   0  0  0  0  0  0  0  0  0  0  0  0
  -16.8338  -22.0303   26.2325 C   0  0  0  0  0  0  0  0  0  0  0  0
  -21.8283  -18.3516   23.0642 C   0  0  0  0  0  0  0  0  0  0  0  0
  -24.0270  -18.5250   25.0341 C   0  0  0  0  0  0  0  0  0  0  0  0
  -17.9922  -21.3534   26.9608 C   0  0  0  0  0  0  0  0  0  0  0  0
  -29.5845  -12.3396   18.1868 C   0  0  0  0  0  0  0  0  0  0  0  0
  -19.3214  -21.9737   26.5420 C   0  0  0  0  0  0  0  0  0  0  0  0
  -28.1542  -12.0573   18.6499 C   0  0  0  0  0  0  0  0  0  0  0  0
  -30.5331  -12.5296   19.3684 C   0  0  0  0  0  0  0  0  0  0  0  0
  -28.6750  -13.2626   20.8120 C   0  0  0  0  0  0  0  0  0  0  0  0
  -19.5703  -21.7833   25.0409 C   0  0  1  0  0  0  0  0  0  0  0  0
  -21.5607  -18.5851   24.5479 C   0  0  1  0  0  0  0  0  0  0  0  0
  -27.6706  -13.1192   19.6558 C   0  0  2  0  0  0  0  0  0  0  0  0
  -25.3188  -13.2016   28.6585 C   0  0  0  0  0  0  0  0  0  0  0  0
  -23.1824  -19.4698   28.7844 C   0  0  0  0  0  0  0  0  0  0  0  0
  -24.5722  -17.6562   29.8078 C   0  0  0  0  0  0  0  0  0  0  0  0
  -22.0989  -17.3821   29.6341 C   0  0  0  0  0  0  0  0  0  0  0  0
  -24.7054  -13.1748   24.9037 C   0  0  0  0  0  0  0  0  0  0  0  0
  -30.9341  -16.8007   21.8505 C   0  0  0  0  0  0  0  0  0  0  0  0
  -30.6370  -17.9563   20.9116 C   0  0  0  0  0  0  0  0  0  0  0  0
  -27.4127  -19.5218   20.0814 C   0  0  0  0  0  0  0  0  0  1  0  0
  -28.9109  -19.2914   20.0394 C   0  0  0  0  0  0  0  0  0  0  0  0
  -23.5127  -17.2298   27.5436 C   0  0  1  0  0  0  0  0  0  0  0  0
  -24.6416  -13.6157   27.3614 C   0  0  2  0  0  0  0  0  0  0  0  0
  -23.3456  -17.9423   28.9154 C   0  0  0  0  0  0  0  0  0  0  0  0
  -25.8773  -11.5413   20.2699 N   0  0  0  0  0  0  0  0  0  0  0  0
  -26.2678  -12.8219   20.1525 N   0  0  0  0  0  0  0  0  0  0  0  0
  -22.6586  -18.1233   25.3997 N   0  0  0  0  0  0  0  0  0  0  0  0
  -30.0175  -13.5508   20.2834 N   0  0  0  0  0  0  0  0  0  0  0  0
  -25.5368  -15.0547   20.4538 N   0  0  0  0  0  0  0  0  0  0  0  0
  -21.9495  -12.6075   21.6942 N   0  0  0  0  0  0  0  0  0  0  0  0
  -20.0127  -20.4324   24.7692 N   0  0  0  0  0  0  0  0  0  0  0  0
  -23.6422  -15.7796   27.6353 N   0  0  0  0  0  0  0  0  0  0  0  0
  -30.2438  -15.5940   21.4529 N   0  0  0  0  0  0  0  0  0  0  0  0
  -25.2884  -12.8805   26.2380 N   0  3  0  0  0  0  0  0  0  0  0  0
  -22.7461  -14.7414   21.4289 O   0  0  0  0  0  0  0  0  0  0  0  0
  -22.2805  -20.7367   25.2018 O   0  0  0  0  0  0  0  0  0  0  0  0
  -21.2179  -17.1438   26.9493 O   0  0  0  0  0  0  0  0  0  0  0  0
  -25.7046  -15.6415   26.5844 O   0  0  0  0  0  0  0  0  0  0  0  0
  -31.9372  -14.8393   20.1039 O   0  0  0  0  0  0  0  0  0  0  0  0
  -21.6061   -7.0472   21.7221 O   0  0  0  0  0  0  0  0  0  0  0  0
  -27.0313  -19.8659   21.4128 O   0  0  0  0  0  0  0  0  0  1  0  0
  -29.2397  -18.2135   20.9073 O   0  0  0  0  0  0  0  0  0  0  0  0
  -18.7254   -6.8400   26.4191 F   0  0  0  0  0  0  0  0  0  0  0  0
  -19.6510   -8.9232   22.2708 F   0  0  0  0  0  0  0  0  0  0  0  0
  1  2  1  0  0  0  0
  1  5  2  0  0  0  0
  2  6  2  0  0  0  0
  3  8  2  0  0  0  0
  3 15  1  0  0  0  0
  4  9  1  0  0  0  0
  4 15  2  0  0  0  0
  5 17  1  0  0  0  0
  6 19  1  0  0  0  0
  7 10  2  0  0  0  0
  7 18  1  0  0  0  0
  8 21  1  0  0  0  0
  9 21  2  0  0  0  0
 10 22  1  0  0  0  0
 11 12  2  0  0  0  0
 11 23  1  0  0  0  0
 12 24  1  0  0  0  0
 13 20  1  0  0  0  0
 13 22  2  0  0  0  0
 14 24  2  0  0  0  0
 14 25  1  0  0  0  0
 15 26  1  0  0  0  0
 16 26  1  0  0  0  0
 16 27  2  0  0  0  0
 16 28  1  0  0  0  0
 17 19  2  0  0  0  0
 17 33  1  0  0  0  0
 18 20  2  0  0  0  0
 18 34  1  0  0  0  0
 19 42  1  0  0  0  0
 20 35  1  0  0  0  0
 21 72  1  0  0  0  0
 22 73  1  0  0  0  0
 23 25  2  0  0  0  0
 23 72  1  0  0  0  0
 24 75  1  0  0  0  0
 25 76  1  0  0  0  0
 26 57  2  0  0  0  0
 27 58  1  0  0  0  0
 27 61  1  0  0  0  0
 28 62  1  0  0  0  0
 28 67  2  0  0  0  0
 29 43  1  0  0  0  0
 29 63  1  0  0  0  0
 29 68  2  0  0  0  0
 30 54  1  0  0  0  0
 30 59  1  0  0  0  0
 30 69  2  0  0  0  0
 31 55  1  0  0  0  0
 31 64  1  0  0  0  0
 31 70  2  0  0  0  0
 32 60  1  0  0  0  0
 32 65  1  0  0  0  0
 32 71  2  0  0  0  0
 33 36  1  0  0  0  0
 34 43  1  0  0  0  0
 35 59  1  0  0  0  0
 36 38  1  0  0  0  0
 37 39  1  0  0  0  0
 37 40  1  0  0  0  0
 38 42  1  0  0  0  0
 39 44  1  0  0  0  0
 40 60  1  0  0  0  0
 41 44  1  0  0  0  0
 41 60  1  0  0  0  0
 42 63  1  0  0  0  0
 43 59  1  0  0  0  0
 44 58  1  0  0  0  0
 45 55  1  0  0  0  0
 46 56  1  0  0  0  0
 47 56  1  0  0  0  0
 48 56  1  0  0  0  0
 49 66  1  0  0  0  0
 50 51  1  0  0  0  0
 50 65  1  0  0  0  0
 51 74  1  0  0  0  0
 52 53  1  0  0  0  0
 52 73  1  0  0  0  0
 53 74  1  0  0  0  0
 54 56  1  0  0  0  0
 54 64  1  0  0  0  0
 55 66  1  0  0  0  0
 57 58  1  0  0  0  0
M  CHG  1  66   1
M  ISO  4  32 100  52 101  65 100  73 101
M  END
> <Batch ID>
0001

> <Smiles>
CNC(C)C(=O)NC(C(=O)N1Cc2cc([101O:1][101CH2:1]COCC[100NH:0][100C:0](=O)N3CCCC(n4nc(-c5ccc(Oc6ccc(F)cc6F)cc5)c(C(N)=O)c4N)C3)ccc2CC1C(=O)NC1CCCc2ccccc21)C(C)(C)C

> <Shape>
0.186

> <Color>
0.201

> <Negative vol penalty>
0.000

$$$$

  -OEChem-04052315163D

 73 80  0     1  0  0  0  0  0999 V2000
  -28.7807  -11.4027   19.8413 C   0  0  0  0  0  0  0  0  0  0  0  0
  -28.8747  -12.6791   19.2960 C   0  0  0  0  0  0  0  0  0  0  0  0
  -25.9114  -28.9143   20.8188 C   0  0  0  0  0  0  0  0  0  0  0  0
  -25.2447  -26.5922   20.8056 C   0  0  0  0  0  0  0  0  0  0  0  0
  -27.5741  -10.9659   20.3863 C   0  0  0  0  0  0  0  0  0  0  0  0
  -27.7616  -13.5191   19.2943 C   0  0  0  0  0  0  0  0  0  0  0  0
  -28.8908  -18.2435   20.7261 C   0  0  0  0  0  0  0  0  0  0  0  0
  -24.5811  -29.2972   20.6476 C   0  0  0  0  0  0  0  0  0  0  0  0
  -23.9144  -26.9751   20.6344 C   0  0  0  0  0  0  0  0  0  0  0  0
  -29.5037  -19.0657   19.7816 C   0  0  0  0  0  0  0  0  0  0  0  0
  -20.2991  -27.3512   20.5553 C   0  0  0  0  0  0  0  0  0  0  0  0
  -19.3346  -26.7145   21.3363 C   0  0  0  0  0  0  0  0  0  0  0  0
  -27.3782  -20.1087   19.3193 C   0  0  0  0  0  0  0  0  0  0  0  0
  -20.4277  -27.5133   23.3374 C   0  0  0  0  0  0  0  0  0  0  0  0
  -26.2432  -27.5618   20.8978 C   0  0  0  0  0  0  0  0  0  0  0  0
  -28.2943  -26.9641   22.2918 C   0  0  0  0  0  0  0  0  0  0  0  0
  -26.4483  -11.8044   20.4000 C   0  0  0  0  0  0  0  0  0  0  0  0
  -27.5128  -18.3403   20.9669 C   0  0  0  0  0  0  0  0  0  0  0  0
  -26.5384  -13.0925   19.8388 C   0  0  0  0  0  0  0  0  0  0  0  0
  -26.7507  -19.2883   20.2692 C   0  0  0  0  0  0  0  0  0  0  0  0
  -23.5826  -28.3276   20.5554 C   0  0  0  0  0  0  0  0  0  0  0  0
  -28.7469  -19.9965   19.0760 C   0  0  0  0  0  0  0  0  0  0  0  0
  -21.3280  -28.0688   21.1653 C   0  0  0  0  0  0  0  0  0  0  0  0
  -19.3988  -26.7956   22.7274 C   0  0  0  0  0  0  0  0  0  0  0  0
  -21.3923  -28.1499   22.5564 C   0  0  0  0  0  0  0  0  0  0  0  0
  -27.6173  -27.1656   21.0741 C   0  0  0  0  0  0  0  0  0  0  0  0
  -29.5659  -26.6003   21.9215 C   0  0  0  0  0  0  0  0  0  0  0  0
  -27.8165  -27.0941   23.6374 C   0  0  0  0  0  0  0  0  0  0  0  0
  -25.0394  -16.3661   20.6693 C   0  0  0  0  0  0  0  0  0  0  0  0
  -23.4301  -18.7916   22.1009 C   0  0  0  0  0  0  0  0  0  0  0  0
  -23.2352  -22.1273   22.7949 C   0  0  0  0  0  0  0  0  0  0  0  0
  -31.8053  -24.0606   16.9833 C   0  0  0  0  0  0  0  0  0  0  0  0
  -25.1525  -11.2708   20.9575 C   0  0  0  0  0  0  0  0  0  0  0  0
  -26.8716  -17.4645   22.0082 C   0  0  0  0  0  0  0  0  0  0  0  0
  -25.2716  -19.4460   20.5052 C   0  0  0  0  0  0  0  0  0  0  0  0
  -24.1234  -12.3586   21.2544 C   0  0  0  0  0  0  0  0  0  0  0  0
  -32.7528  -27.1859   18.4013 C   0  0  0  0  0  0  0  0  0  0  0  0
  -24.0228  -13.3319   20.0842 C   0  0  0  0  0  0  0  0  0  0  0  0
  -31.6052  -27.5169   19.3570 C   0  0  0  0  0  0  0  0  0  0  0  0
  -32.2517  -26.4924   17.1365 C   0  0  0  0  0  0  0  0  0  0  0  0
  -30.2768  -25.6255   18.3290 C   0  0  0  0  0  0  0  0  0  0  0  0
  -25.3600  -14.0420   19.8407 C   0  0  1  0  0  0  0  0  0  0  0  0
  -25.3693  -17.2948   21.8034 C   0  0  1  0  0  0  0  0  0  0  0  0
  -30.7390  -26.2758   19.6442 C   0  0  2  0  0  0  0  0  0  0  0  0
  -21.7856  -23.8170   23.9528 C   0  0  0  0  0  0  0  0  0  0  0  0
  -21.4554  -18.6861   19.7772 C   0  0  0  0  0  0  0  0  0  0  0  0
  -20.6243  -20.9432   20.4723 C   0  0  0  0  0  0  0  0  0  0  0  0
  -20.4056  -19.0030   22.0249 C   0  0  0  0  0  0  0  0  0  0  0  0
  -25.3980  -22.8660   24.6752 C   0  0  0  0  0  0  0  0  0  0  0  0
  -31.2354  -21.6456   16.9357 C   0  0  0  0  0  0  0  0  0  0  0  0
  -30.7465  -20.6355   17.9583 C   0  0  0  0  0  0  0  0  0  1  0  0
  -22.6870  -20.0136   21.6176 C   0  0  1  0  0  0  0  0  0  0  0  0
  -22.9697  -22.8728   24.0904 C   0  0  2  0  0  0  0  0  0  0  0  0
  -21.3206  -19.6574   20.9669 C   0  0  0  0  0  0  0  0  0  0  0  0
  -28.3944  -26.9480   20.0099 N   0  0  0  0  0  0  0  0  0  0  0  0
  -29.5730  -26.6061   20.5576 N   0  0  0  0  0  0  0  0  0  0  0  0
  -24.6895  -18.5623   21.5289 N   0  0  0  0  0  0  0  0  0  0  0  0
  -31.4385  -25.3228   17.4784 N   0  0  0  0  0  0  0  0  0  0  0  0
  -30.6675  -26.2792   22.6327 N   0  0  0  0  0  0  0  0  0  0  0  0
  -26.4833  -27.4765   23.8389 N   0  0  0  0  0  0  0  0  0  0  0  0
  -25.5584  -15.0937   20.8148 N   0  0  0  0  0  0  0  0  0  0  0  0
  -22.5873  -20.9105   22.7639 N   0  0  0  0  0  0  0  0  0  0  0  0
  -30.9843  -23.0048   17.3602 N   0  0  0  0  0  0  0  0  0  0  0  0
  -24.1650  -23.6719   24.4825 N   0  3  0  0  0  0  0  0  0  0  0  0
  -28.5547  -26.8935   24.6315 O   0  0  0  0  0  0  0  0  0  0  0  0
  -24.3627  -16.7733   19.7323 O   0  0  0  0  0  0  0  0  0  0  0  0
  -22.9152  -18.0710   22.9596 O   0  0  0  0  0  0  0  0  0  0  0  0
  -23.9432  -22.5808   21.8985 O   0  0  0  0  0  0  0  0  0  0  0  0
  -32.7944  -23.8864   16.2633 O   0  0  0  0  0  0  0  0  0  0  0  0
  -22.2844  -28.7009   20.3885 O   0  0  0  0  0  0  0  0  0  0  0  0
  -29.3424  -20.7999   18.1530 O   0  0  0  0  0  0  0  0  0  1  0  0
  -18.4716  -26.1855   23.4772 F   0  0  0  0  0  0  0  0  0  0  0  0
  -22.3777  -28.8388   23.1481 F   0  0  0  0  0  0  0  0  0  0  0  0
  1  2  1  0  0  0  0
  1  5  2  0  0  0  0
  2  6  2  0  0  0  0
  3  8  2  0  0  0  0
  3 15  1  0  0  0  0
  4  9  1  0  0  0  0
  4 15  2  0  0  0  0
  5 17  1  0  0  0  0
  6 19  1  0  0  0  0
  7 10  2  0  0  0  0
  7 18  1  0  0  0  0
  8 21  1  0  0  0  0
  9 21  2  0  0  0  0
 10 22  1  0  0  0  0
 11 12  2  0  0  0  0
 11 23  1  0  0  0  0
 12 24  1  0  0  0  0
 13 20  1  0  0  0  0
 13 22  2  0  0  0  0
 14 24  2  0  0  0  0
 14 25  1  0  0  0  0
 15 26  1  0  0  0  0
 16 26  1  0  0  0  0
 16 27  2  0  0  0  0
 16 28  1  0  0  0  0
 17 19  2  0  0  0  0
 17 33  1  0  0  0  0
 18 20  2  0  0  0  0
 18 34  1  0  0  0  0
 19 42  1  0  0  0  0
 20 35  1  0  0  0  0
 21 70  1  0  0  0  0
 22 71  1  0  0  0  0
 23 25  2  0  0  0  0
 23 70  1  0  0  0  0
 24 72  1  0  0  0  0
 25 73  1  0  0  0  0
 26 55  2  0  0  0  0
 27 56  1  0  0  0  0
 27 59  1  0  0  0  0
 28 60  1  0  0  0  0
 28 65  2  0  0  0  0
 29 43  1  0  0  0  0
 29 61  1  0  0  0  0
 29 66  2  0  0  0  0
 30 52  1  0  0  0  0
 30 57  1  0  0  0  0
 30 67  2  0  0  0  0
 31 53  1  0  0  0  0
 31 62  1  0  0  0  0
 31 68  2  0  0  0  0
 32 58  1  0  0  0  0
 32 63  1  0  0  0  0
 32 69  2  0  0  0  0
 33 36  1  0  0  0  0
 34 43  1  0  0  0  0
 35 57  1  0  0  0  0
 36 38  1  0  0  0  0
 37 39  1  0  0  0  0
 37 40  1  0  0  0  0
 38 42  1  0  0  0  0
 39 44  1  0  0  0  0
 40 58  1  0  0  0  0
 41 44  1  0  0  0  0
 41 58  1  0  0  0  0
 42 61  1  0  0  0  0
 43 57  1  0  0  0  0
 44 56  1  0  0  0  0
 45 53  1  0  0  0  0
 46 54  1  0  0  0  0
 47 54  1  0  0  0  0
 48 54  1  0  0  0  0
 49 64  1  0  0  0  0
 50 51  1  0  0  0  0
 50 63  1  0  0  0  0
 51 71  1  0  0  0  0
 52 54  1  0  0  0  0
 52 62  1  0  0  0  0
 53 64  1  0  0  0  0
 55 56  1  0  0  0  0
M  CHG  1  64   1
M  ISO  4  32 100  51 101  63 100  71 101
M  END
> <Batch ID>
0001

> <Smiles>
CNC(C)C(=O)NC(C(=O)N1Cc2cc([101O:1][101CH2:1]C[100NH:0][100C:0](=O)N3CCCC(n4nc(-c5ccc(Oc6ccc(F)cc6F)cc5)c(C(N)=O)c4N)C3)ccc2CC1C(=O)NC1CCCc2ccccc21)C(C)(C)C

> <Shape>
0.226

> <Color>
0.066

> <Negative vol penalty>
0.000

$$$$

  -OEChem-04052315163D

 82 89  0     1  0  0  0  0  0999 V2000
  -29.4135  -23.8088   17.6574 C   0  0  0  0  0  0  0  0  0  0  0  0
  -28.1855  -24.4196   17.8853 C   0  0  0  0  0  0  0  0  0  0  0  0
  -26.2256  -13.5610   18.9194 C   0  0  0  0  0  0  0  0  0  0  0  0
  -24.9675  -13.9982   20.9351 C   0  0  0  0  0  0  0  0  0  0  0  0
  -30.4838  -24.0641   18.5120 C   0  0  0  0  0  0  0  0  0  0  0  0
  -28.0307  -25.2950   18.9608 C   0  0  0  0  0  0  0  0  0  0  0  0
  -23.7688  -27.7341   19.2618 C   0  0  0  0  0  0  0  0  0  0  0  0
  -26.1894  -12.1938   19.1933 C   0  0  0  0  0  0  0  0  0  0  0  0
  -24.9313  -12.6310   21.2090 C   0  0  0  0  0  0  0  0  0  0  0  0
  -22.5707  -27.1167   19.6183 C   0  0  0  0  0  0  0  0  0  0  0  0
  -23.1857   -9.9298   20.1712 C   0  0  0  0  0  0  0  0  0  0  0  0
  -21.9679   -9.3836   20.5762 C   0  0  0  0  0  0  0  0  0  0  0  0
  -22.7388  -28.0779   21.8244 C   0  0  0  0  0  0  0  0  0  0  0  0
  -22.9752   -8.6805   22.6566 C   0  0  0  0  0  0  0  0  0  0  0  0
  -25.6147  -14.4633   19.7903 C   0  0  0  0  0  0  0  0  0  0  0  0
  -24.7170  -16.6190   18.7634 C   0  0  0  0  0  0  0  0  0  0  0  0
  -30.3378  -24.9335   19.6055 C   0  0  0  0  0  0  0  0  0  0  0  0
  -24.4677  -28.5204   20.1889 C   0  0  0  0  0  0  0  0  0  0  0  0
  -29.1057  -25.5841   19.8206 C   0  0  0  0  0  0  0  0  0  0  0  0
  -23.9443  -28.7063   21.4764 C   0  0  0  0  0  0  0  0  0  0  0  0
  -25.5423  -11.7288   20.3381 C   0  0  0  0  0  0  0  0  0  0  0  0
  -22.0569  -27.2863   20.9006 C   0  0  0  0  0  0  0  0  0  0  0  0
  -24.2984   -9.8513   21.0088 C   0  0  0  0  0  0  0  0  0  0  0  0
  -21.8626   -8.7589   21.8190 C   0  0  0  0  0  0  0  0  0  0  0  0
  -24.1931   -9.2266   22.2515 C   0  0  0  0  0  0  0  0  0  0  0  0
  -25.6522  -15.8757   19.5082 C   0  0  0  0  0  0  0  0  0  0  0  0
  -25.2016  -17.9039   18.7882 C   0  0  0  0  0  0  0  0  0  0  0  0
  -23.5174  -16.1866   18.1079 C   0  0  0  0  0  0  0  0  0  0  0  0
  -27.3366  -28.3673   21.5489 C   0  0  0  0  0  0  0  0  0  0  0  0
  -26.4912  -31.2593   22.7505 C   0  0  0  0  0  0  0  0  0  0  0  0
  -21.3006  -22.9221   24.7164 C   0  0  0  0  0  0  0  0  0  0  0  0
  -23.9951  -33.4182   23.6195 C   0  0  0  0  0  0  0  0  0  0  0  0
  -27.4496  -22.2052   21.5435 C   0  0  0  0  0  0  0  0  0  0  0  0
  -31.5314  -25.1802   20.4941 C   0  0  0  0  0  0  0  0  0  0  0  0
  -25.7452  -29.2013   19.7804 C   0  0  0  0  0  0  0  0  0  0  0  0
  -24.6456  -29.5571   22.5024 C   0  0  0  0  0  0  0  0  0  0  0  0
  -31.1521  -25.7664   21.8501 C   0  0  0  0  0  0  0  0  0  0  0  0
  -29.6724  -19.7074   20.3199 C   0  0  0  0  0  0  0  0  0  0  0  0
  -30.2198  -26.9536   21.6607 C   0  0  0  0  0  0  0  0  0  0  0  0
  -28.7483  -18.5476   19.9444 C   0  0  0  0  0  0  0  0  0  0  0  0
  -29.1837  -20.4364   21.5696 C   0  0  0  0  0  0  0  0  0  0  0  0
  -26.8604  -19.7390   21.1340 C   0  0  0  0  0  0  0  0  0  0  0  0
  -28.9054  -26.5162   21.0019 C   0  0  1  0  0  0  0  0  0  0  0  0
  -26.6357  -29.5615   20.9655 C   0  0  1  0  0  0  0  0  0  0  0  0
  -27.2814  -19.0082   19.8476 C   0  0  2  0  0  0  0  0  0  0  0  0
  -23.6133  -35.6917   24.6110 C   0  0  0  0  0  0  0  0  0  0  0  0
  -27.1347  -30.1562   25.5216 C   0  0  0  0  0  0  0  0  0  0  0  0
  -25.8624  -32.0754   26.5046 C   0  0  0  0  0  0  0  0  0  0  0  0
  -27.8995  -32.5049   25.1303 C   0  0  0  0  0  0  0  0  0  0  0  0
  -22.6383  -34.3847   21.1734 C   0  0  0  0  0  0  0  0  0  0  0  0
  -22.6258  -22.7823   25.4474 C   0  0  0  0  0  0  0  0  0  0  0  0
  -23.7355  -23.6688   24.8841 C   0  0  0  0  0  0  0  0  0  0  0  0
  -24.0897  -23.3106   23.4371 C   0  0  0  0  0  0  0  0  0  0  0  0
  -25.1861  -24.2311   22.8919 C   0  0  0  0  0  0  0  0  0  0  0  0
  -19.8102  -25.1100   22.7069 C   0  0  0  0  0  0  0  0  0  0  0  0
  -25.6043  -23.8632   21.4717 C   0  0  0  0  0  0  0  0  0  0  0  0
  -19.5906  -24.6313   24.1357 C   0  0  0  0  0  0  0  0  0  0  0  0
  -20.7297  -26.3223   22.6226 C   0  0  0  0  0  0  0  0  0  1  0  0
  -25.7773  -31.7334   23.9933 C   0  0  1  0  0  0  0  0  0  0  0  0
  -23.7933  -34.8944   23.3285 C   0  0  2  0  0  0  0  0  0  0  0  0
  -26.6560  -31.5998   25.2690 C   0  0  0  0  0  0  0  0  0  0  0  0
  -26.6552  -16.6260   19.9720 N   0  0  0  0  0  0  0  0  0  0  0  0
  -26.3530  -17.8540   19.5176 N   0  0  0  0  0  0  0  0  0  0  0  0
  -25.8946  -30.1968   22.0570 N   0  0  0  0  0  0  0  0  0  0  0  0
  -27.7866  -20.8479   21.4124 N   0  0  0  0  0  0  0  0  0  0  0  0
  -24.7509  -19.0603   18.2570 N   0  0  0  0  0  0  0  0  0  0  0  0
  -23.1667  -14.8317   18.1820 N   0  0  0  0  0  0  0  0  0  0  0  0
  -28.1397  -27.6916   20.6500 N   0  0  0  0  0  0  0  0  0  0  0  0
  -20.8139  -24.2247   24.7702 N   0  0  0  0  0  0  0  0  0  0  0  0
  -25.3320  -33.0943   23.7142 N   0  0  0  0  0  0  0  0  0  0  0  0
  -26.1046  -22.5101   21.3733 N   0  0  0  0  0  0  0  0  0  0  0  0
  -22.5864  -35.0943   22.4775 N   0  3  0  0  0  0  0  0  0  0  0  0
  -22.7870  -16.9754   17.4614 O   0  0  0  0  0  0  0  0  0  0  0  0
  -27.1629  -28.0809   22.7277 O   0  0  0  0  0  0  0  0  0  0  0  0
  -27.5360  -31.8160   22.4038 O   0  0  0  0  0  0  0  0  0  0  0  0
  -20.7515  -21.9916   24.1328 O   0  0  0  0  0  0  0  0  0  0  0  0
  -23.0601  -32.6318   23.7535 O   0  0  0  0  0  0  0  0  0  0  0  0
  -28.2861  -23.0811   21.7883 O   0  0  0  0  0  0  0  0  0  0  0  0
  -25.5066  -10.3947   20.6056 O   0  0  0  0  0  0  0  0  0  0  0  0
  -20.8880  -26.6843   21.2514 O   0  0  0  0  0  0  0  0  0  1  0  0
  -20.6926   -8.2358   22.2085 F   0  0  0  0  0  0  0  0  0  0  0  0
  -25.2582   -9.1492   23.0611 F   0  0  0  0  0  0  0  0  0  0  0  0
  1  2  1  0  0  0  0
  1  5  2  0  0  0  0
  2  6  2  0  0  0  0
  3  8  2  0  0  0  0
  3 15  1  0  0  0  0
  4  9  1  0  0  0  0
  4 15  2  0  0  0  0
  5 17  1  0  0  0  0
  6 19  1  0  0  0  0
  7 10  2  0  0  0  0
  7 18  1  0  0  0  0
  8 21  1  0  0  0  0
  9 21  2  0  0  0  0
 10 22  1  0  0  0  0
 11 12  2  0  0  0  0
 11 23  1  0  0  0  0
 12 24  1  0  0  0  0
 13 20  1  0  0  0  0
 13 22  2  0  0  0  0
 14 24  2  0  0  0  0
 14 25  1  0  0  0  0
 15 26  1  0  0  0  0
 16 26  1  0  0  0  0
 16 27  2  0  0  0  0
 16 28  1  0  0  0  0
 17 19  2  0  0  0  0
 17 34  1  0  0  0  0
 18 20  2  0  0  0  0
 18 35  1  0  0  0  0
 19 43  1  0  0  0  0
 20 36  1  0  0  0  0
 21 79  1  0  0  0  0
 22 80  1  0  0  0  0
 23 25  2  0  0  0  0
 23 79  1  0  0  0  0
 24 81  1  0  0  0  0
 25 82  1  0  0  0  0
 26 62  2  0  0  0  0
 27 63  1  0  0  0  0
 27 66  1  0  0  0  0
 28 67  1  0  0  0  0
 28 73  2  0  0  0  0
 29 44  1  0  0  0  0
 29 68  1  0  0  0  0
 29 74  2  0  0  0  0
 30 59  1  0  0  0  0
 30 64  1  0  0  0  0
 30 75  2  0  0  0  0
 31 51  1  0  0  0  0
 31 69  1  0  0  0  0
 31 76  2  0  0  0  0
 32 60  1  0  0  0  0
 32 70  1  0  0  0  0
 32 77  2  0  0  0  0
 33 65  1  0  0  0  0
 33 71  1  0  0  0  0
 33 78  2  0  0  0  0
 34 37  1  0  0  0  0
 35 44  1  0  0  0  0
 36 64  1  0  0  0  0
 37 39  1  0  0  0  0
 38 40  1  0  0  0  0
 38 41  1  0  0  0  0
 39 43  1  0  0  0  0
 40 45  1  0  0  0  0
 41 65  1  0  0  0  0
 42 45  1  0  0  0  0
 42 65  1  0  0  0  0
 43 68  1  0  0  0  0
 44 64  1  0  0  0  0
 45 63  1  0  0  0  0
 46 60  1  0  0  0  0
 47 61  1  0  0  0  0
 48 61  1  0  0  0  0
 49 61  1  0  0  0  0
 50 72  1  0  0  0  0
 51 52  1  0  0  0  0
 52 53  1  0  0  0  0
 53 54  1  0  0  0  0
 54 56  1  0  0  0  0
 55 57  1  0  0  0  0
 55 58  1  0  0  0  0
 56 71  1  0  0  0  0
 57 69  1  0  0  0  0
 58 80  1  0  0  0  0
 59 61  1  0  0  0  0
 59 70  1  0  0  0  0
 60 72  1  0  0  0  0
 62 63  1  0  0  0  0
M  CHG  1  72   1
M  ISO  4  33 100  58 101  71 100  80 101
M  END
> <Batch ID>
0001

> <Smiles>
CNC(C)C(=O)NC(C(=O)N1Cc2cc([101O:1][101CH2:1]CCNC(=O)CCCCC[100NH:0][100C:0](=O)N3CCCC(n4nc(-c5ccc(Oc6ccc(F)cc6F)cc5)c(C(N)=O)c4N)C3)ccc2CC1C(=O)NC1CCCc2ccccc21)C(C)(C)C

> <Shape>
0.292

> <Color>
0.076

> <Negative vol penalty>
0.000

$$$$

  -OEChem-04052315163D

 82 89  0     1  0  0  0  0  0999 V2000
  -32.1465  -13.7135   21.4347 C   0  0  0  0  0  0  0  0  0  0  0  0
  -31.4367  -14.9100   21.4328 C   0  0  0  0  0  0  0  0  0  0  0  0
  -28.9743  -26.3807   20.6244 C   0  0  0  0  0  0  0  0  0  0  0  0
  -27.0125  -25.0317   20.2136 C   0  0  0  0  0  0  0  0  0  0  0  0
  -31.5565  -12.5535   20.9346 C   0  0  0  0  0  0  0  0  0  0  0  0
  -30.1368  -14.9474   20.9296 C   0  0  0  0  0  0  0  0  0  0  0  0
  -26.9756  -17.5530   23.9066 C   0  0  0  0  0  0  0  0  0  0  0  0
  -29.6997  -25.2308   20.9360 C   0  0  0  0  0  0  0  0  0  0  0  0
  -27.7380  -23.8818   20.5251 C   0  0  0  0  0  0  0  0  0  0  0  0
  -27.0354  -18.9441   23.8356 C   0  0  0  0  0  0  0  0  0  0  0  0
  -29.1696  -20.5569   20.8625 C   0  0  0  0  0  0  0  0  0  0  0  0
  -29.0288  -19.4528   20.0219 C   0  0  0  0  0  0  0  0  0  0  0  0
  -25.0967  -18.9482   22.4002 C   0  0  0  0  0  0  0  0  0  0  0  0
  -29.8475  -20.7627   18.1642 C   0  0  0  0  0  0  0  0  0  0  0  0
  -27.6306  -26.2812   20.2633 C   0  0  0  0  0  0  0  0  0  0  0  0
  -26.7352  -28.0655   18.6752 C   0  0  0  0  0  0  0  0  0  0  0  0
  -30.2451  -12.5746   20.4339 C   0  0  0  0  0  0  0  0  0  0  0  0
  -25.9808  -16.8472   23.2149 C   0  0  0  0  0  0  0  0  0  0  0  0
  -29.5291  -13.7869   20.4211 C   0  0  0  0  0  0  0  0  0  0  0  0
  -25.0249  -17.5483   22.4660 C   0  0  0  0  0  0  0  0  0  0  0  0
  -29.0816  -23.9814   20.8863 C   0  0  0  0  0  0  0  0  0  0  0  0
  -26.0976  -19.6418   23.0800 C   0  0  0  0  0  0  0  0  0  0  0  0
  -29.6493  -21.7640   20.3540 C   0  0  0  0  0  0  0  0  0  0  0  0
  -29.3678  -19.5557   18.6727 C   0  0  0  0  0  0  0  0  0  0  0  0
  -29.9883  -21.8669   19.0048 C   0  0  0  0  0  0  0  0  0  0  0  0
  -26.8806  -27.4687   19.9419 C   0  0  0  0  0  0  0  0  0  0  0  0
  -25.9351  -29.1589   18.9007 C   0  0  0  0  0  0  0  0  0  0  0  0
  -27.2751  -27.6672   17.4081 C   0  0  0  0  0  0  0  0  0  0  0  0
  -25.9738  -14.6746   20.8947 C   0  0  0  0  0  0  0  0  0  0  0  0
  -22.7899  -14.5955   21.5102 C   0  0  0  0  0  0  0  0  0  0  0  0
  -20.0370  -16.1913   22.7438 C   0  0  0  0  0  0  0  0  0  0  0  0
  -21.8864  -30.4485   23.1191 C   0  0  0  0  0  0  0  0  0  0  0  0
  -29.6666  -11.3055   19.8603 C   0  0  0  0  0  0  0  0  0  0  0  0
  -25.9138  -15.3484   23.3233 C   0  0  0  0  0  0  0  0  0  0  0  0
  -23.9247  -16.8389   21.7213 C   0  0  0  0  0  0  0  0  0  0  0  0
  -28.1502  -11.3500   19.6898 C   0  0  0  0  0  0  0  0  0  0  0  0
  -24.7964  -32.3288   22.2987 C   0  0  0  0  0  0  0  0  0  0  0  0
  -27.7249  -12.6603   19.0350 C   0  0  0  0  0  0  0  0  0  0  0  0
  -25.6474  -31.3502   21.4873 C   0  0  0  0  0  0  0  0  0  0  0  0
  -24.0456  -31.6234   23.4259 C   0  0  0  0  0  0  0  0  0  0  0  0
  -24.0810  -29.4921   22.1889 C   0  0  0  0  0  0  0  0  0  0  0  0
  -28.1080  -13.8624   19.9065 C   0  0  1  0  0  0  0  0  0  0  0  0
  -25.1676  -14.6981   22.1624 C   0  0  1  0  0  0  0  0  0  0  0  0
  -24.8136  -30.1477   21.0058 C   0  0  2  0  0  0  0  0  0  0  0  0
  -17.5681  -15.8884   23.0759 C   0  0  0  0  0  0  0  0  0  0  0  0
  -22.3295  -15.1090   18.5380 C   0  0  0  0  0  0  0  0  0  0  0  0
  -19.9673  -15.7344   19.0832 C   0  0  0  0  0  0  0  0  0  0  0  0
  -20.7856  -13.4261   19.5573 C   0  0  0  0  0  0  0  0  0  0  0  0
  -20.2838  -16.4435   25.6822 C   0  0  0  0  0  0  0  0  0  0  0  0
  -19.8018  -29.1627   22.7186 C   0  0  0  0  0  0  0  0  0  0  0  0
  -19.4491  -28.3845   23.9736 C   0  0  0  0  0  0  0  0  0  0  0  0
  -26.6857  -21.6880   24.1398 C   0  0  0  0  0  0  0  0  0  1  0  0
  -26.0302  -23.0515   24.2427 C   0  0  0  0  0  0  0  0  0  0  0  0
  -19.7525  -26.3315   25.0764 C   0  0  0  0  0  0  0  0  0  0  0  0
  -20.4048  -24.9683   24.9492 C   0  0  0  0  0  0  0  0  0  0  0  0
  -23.9621  -24.1314   24.5248 C   0  0  0  0  0  0  0  0  0  0  0  0
  -22.4746  -23.8861   24.6900 C   0  0  0  0  0  0  0  0  0  0  0  0
  -21.5831  -15.3443   20.9984 C   0  0  1  0  0  0  0  0  0  0  0  0
  -18.9479  -15.7308   23.6958 C   0  0  2  0  0  0  0  0  0  0  0  0
  -21.1881  -14.9170   19.5566 C   0  0  0  0  0  0  0  0  0  0  0  0
  -26.2255  -28.1283   20.9010 N   0  0  0  0  0  0  0  0  0  0  0  0
  -25.6609  -29.1511   20.2367 N   0  0  0  0  0  0  0  0  0  0  0  0
  -23.9052  -15.3727   21.8532 N   0  0  0  0  0  0  0  0  0  0  0  0
  -23.2734  -30.4940   22.9023 N   0  0  0  0  0  0  0  0  0  0  0  0
  -25.4466  -30.1168   18.0844 N   0  0  0  0  0  0  0  0  0  0  0  0
  -28.0768  -26.5188   17.3547 N   0  0  0  0  0  0  0  0  0  0  0  0
  -27.1781  -14.0063   21.0061 N   0  0  0  0  0  0  0  0  0  0  0  0
  -20.5304  -15.1481   21.9892 N   0  0  0  0  0  0  0  0  0  0  0  0
  -21.2296  -29.3471   22.5840 N   0  0  0  0  0  0  0  0  0  0  0  0
  -18.9908  -16.5259   24.9555 N   0  3  0  0  0  0  0  0  0  0  0  0
  -27.0666  -28.3197   16.3573 O   0  0  0  0  0  0  0  0  0  0  0  0
  -25.5349  -15.2209   19.8894 O   0  0  0  0  0  0  0  0  0  0  0  0
  -22.7421  -13.3668   21.6090 O   0  0  0  0  0  0  0  0  0  0  0  0
  -20.4099  -17.3603   22.6737 O   0  0  0  0  0  0  0  0  0  0  0  0
  -21.2775  -31.3273   23.7388 O   0  0  0  0  0  0  0  0  0  0  0  0
  -29.7893  -22.8591   21.1900 O   0  0  0  0  0  0  0  0  0  0  0  0
  -26.1541  -20.9995   23.0085 O   0  0  0  0  0  0  0  0  0  1  0  0
  -20.0550  -27.1006   23.9186 O   0  0  0  0  0  0  0  0  0  0  0  0
  -24.6294  -22.8813   24.4219 O   0  0  0  0  0  0  0  0  0  0  0  0
  -21.8089  -25.1371   24.8135 O   0  0  0  0  0  0  0  0  0  0  0  0
  -29.2339  -18.4949   17.8659 F   0  0  0  0  0  0  0  0  0  0  0  0
  -30.4508  -23.0235   18.5108 F   0  0  0  0  0  0  0  0  0  0  0  0
  1  2  1  0  0  0  0
  1  5  2  0  0  0  0
  2  6  2  0  0  0  0
  3  8  2  0  0  0  0
  3 15  1  0  0  0  0
  4  9  1  0  0  0  0
  4 15  2  0  0  0  0
  5 17  1  0  0  0  0
  6 19  1  0  0  0  0
  7 10  2  0  0  0  0
  7 18  1  0  0  0  0
  8 21  1  0  0  0  0
  9 21  2  0  0  0  0
 10 22  1  0  0  0  0
 11 12  2  0  0  0  0
 11 23  1  0  0  0  0
 12 24  1  0  0  0  0
 13 20  1  0  0  0  0
 13 22  2  0  0  0  0
 14 24  2  0  0  0  0
 14 25  1  0  0  0  0
 15 26  1  0  0  0  0
 16 26  1  0  0  0  0
 16 27  2  0  0  0  0
 16 28  1  0  0  0  0
 17 19  2  0  0  0  0
 17 33  1  0  0  0  0
 18 20  2  0  0  0  0
 18 34  1  0  0  0  0
 19 42  1  0  0  0  0
 20 35  1  0  0  0  0
 21 76  1  0  0  0  0
 22 77  1  0  0  0  0
 23 25  2  0  0  0  0
 23 76  1  0  0  0  0
 24 81  1  0  0  0  0
 25 82  1  0  0  0  0
 26 61  2  0  0  0  0
 27 62  1  0  0  0  0
 27 65  1  0  0  0  0
 28 66  1  0  0  0  0
 28 71  2  0  0  0  0
 29 43  1  0  0  0  0
 29 67  1  0  0  0  0
 29 72  2  0  0  0  0
 30 58  1  0  0  0  0
 30 63  1  0  0  0  0
 30 73  2  0  0  0  0
 31 59  1  0  0  0  0
 31 68  1  0  0  0  0
 31 74  2  0  0  0  0
 32 64  1  0  0  0  0
 32 69  1  0  0  0  0
 32 75  2  0  0  0  0
 33 36  1  0  0  0  0
 34 43  1  0  0  0  0
 35 63  1  0  0  0  0
 36 38  1  0  0  0  0
 37 39  1  0  0  0  0
 37 40  1  0  0  0  0
 38 42  1  0  0  0  0
 39 44  1  0  0  0  0
 40 64  1  0  0  0  0
 41 44  1  0  0  0  0
 41 64  1  0  0  0  0
 42 67  1  0  0  0  0
 43 63  1  0  0  0  0
 44 62  1  0  0  0  0
 45 59  1  0  0  0  0
 46 60  1  0  0  0  0
 47 60  1  0  0  0  0
 48 60  1  0  0  0  0
 49 70  1  0  0  0  0
 50 51  1  0  0  0  0
 50 69  1  0  0  0  0
 51 78  1  0  0  0  0
 52 53  1  0  0  0  0
 52 77  1  0  0  0  0
 53 79  1  0  0  0  0
 54 55  1  0  0  0  0
 54 78  1  0  0  0  0
 55 80  1  0  0  0  0
 56 57  1  0  0  0  0
 56 79  1  0  0  0  0
 57 80  1  0  0  0  0
 58 60  1  0  0  0  0
 58 68  1  0  0  0  0
 59 70  1  0  0  0  0
 61 62  1  0  0  0  0
M  CHG  1  70   1
M  ISO  4  32 100  52 101  69 100  77 101
M  END
> <Batch ID>
0001

> <Smiles>
CNC(C)C(=O)NC(C(=O)N1Cc2cc([101O:1][101CH2:1]COCCOCCOCC[100NH:0][100C:0](=O)N3CCCC(n4nc(-c5ccc(Oc6ccc(F)cc6F)cc5)c(C(N)=O)c4N)C3)ccc2CC1C(=O)NC1CCCc2ccccc21)C(C)(C)C

> <Shape>
0.233

> <Color>
0.068

> <Negative vol penalty>
0.000

$$$$

  -OEChem-04052315163D

 76 83  0     1  0  0  0  0  0999 V2000
  -16.1600  -22.7176   22.5581 C   0  0  0  0  0  0  0  0  0  0  0  0
  -17.4333  -22.6316   22.0043 C   0  0  0  0  0  0  0  0  0  0  0  0
  -23.0622   -9.9075   19.9658 C   0  0  0  0  0  0  0  0  0  0  0  0
  -23.8771   -9.8683   22.2399 C   0  0  0  0  0  0  0  0  0  0  0  0
  -15.9799  -22.5083   23.9248 C   0  0  0  0  0  0  0  0  0  0  0  0
  -18.5275  -22.3372   22.8170 C   0  0  0  0  0  0  0  0  0  0  0  0
  -23.4690  -19.0565   21.2924 C   0  0  0  0  0  0  0  0  0  0  0  0
  -22.3096   -8.7601   20.2158 C   0  0  0  0  0  0  0  0  0  0  0  0
  -23.1244   -8.7209   22.4899 C   0  0  0  0  0  0  0  0  0  0  0  0
  -24.7491  -19.4249   20.8811 C   0  0  0  0  0  0  0  0  0  0  0  0
  -21.1365   -5.9883   23.8314 C   0  0  0  0  0  0  0  0  0  0  0  0
  -20.4082   -5.9357   25.0198 C   0  0  0  0  0  0  0  0  0  0  0  0
  -25.5335  -19.2128   23.1524 C   0  0  0  0  0  0  0  0  0  0  0  0
  -19.1718   -7.9001   24.3490 C   0  0  0  0  0  0  0  0  0  0  0  0
  -23.8461  -10.4616   20.9779 C   0  0  0  0  0  0  0  0  0  0  0  0
  -24.2180  -12.9838   20.8890 C   0  0  0  0  0  0  0  0  0  0  0  0
  -17.0711  -22.2017   24.7530 C   0  0  0  0  0  0  0  0  0  0  0  0
  -23.2086  -18.7736   22.6410 C   0  0  0  0  0  0  0  0  0  0  0  0
  -18.3620  -22.1249   24.1962 C   0  0  0  0  0  0  0  0  0  0  0  0
  -24.2498  -18.8385   23.5779 C   0  0  0  0  0  0  0  0  0  0  0  0
  -22.3406   -8.1668   21.4778 C   0  0  0  0  0  0  0  0  0  0  0  0
  -25.7810  -19.5059   21.8115 C   0  0  0  0  0  0  0  0  0  0  0  0
  -20.8826   -6.9968   22.9018 C   0  0  0  0  0  0  0  0  0  0  0  0
  -19.4258   -6.8916   25.2786 C   0  0  0  0  0  0  0  0  0  0  0  0
  -19.9003   -7.9527   23.1606 C   0  0  0  0  0  0  0  0  0  0  0  0
  -24.6243  -11.6466   20.7202 C   0  0  0  0  0  0  0  0  0  0  0  0
  -25.3108  -13.7250   20.5111 C   0  0  0  0  0  0  0  0  0  0  0  0
  -22.9648  -13.5090   21.3467 C   0  0  0  0  0  0  0  0  0  0  0  0
  -21.3315  -20.0335   24.8754 C   0  0  0  0  0  0  0  0  0  0  0  0
  -22.3526  -17.4923   26.6138 C   0  0  0  0  0  0  0  0  0  0  0  0
  -24.7431  -15.1140   27.1391 C   0  0  0  0  0  0  0  0  0  0  0  0
  -30.8103  -14.6711   20.5822 C   0  0  0  0  0  0  0  0  0  0  0  0
  -16.8338  -22.0303   26.2325 C   0  0  0  0  0  0  0  0  0  0  0  0
  -21.8283  -18.3516   23.0642 C   0  0  0  0  0  0  0  0  0  0  0  0
  -24.0270  -18.5250   25.0341 C   0  0  0  0  0  0  0  0  0  0  0  0
  -17.9922  -21.3534   26.9608 C   0  0  0  0  0  0  0  0  0  0  0  0
  -29.5845  -12.3396   18.1868 C   0  0  0  0  0  0  0  0  0  0  0  0
  -19.3214  -21.9737   26.5420 C   0  0  0  0  0  0  0  0  0  0  0  0
  -28.1542  -12.0573   18.6499 C   0  0  0  0  0  0  0  0  0  0  0  0
  -30.5331  -12.5296   19.3684 C   0  0  0  0  0  0  0  0  0  0  0  0
  -28.6750  -13.2626   20.8120 C   0  0  0  0  0  0  0  0  0  0  0  0
  -19.5703  -21.7833   25.0409 C   0  0  1  0  0  0  0  0  0  0  0  0
  -21.5607  -18.5851   24.5479 C   0  0  1  0  0  0  0  0  0  0  0  0
  -27.6706  -13.1192   19.6558 C   0  0  2  0  0  0  0  0  0  0  0  0
  -25.3188  -13.2016   28.6585 C   0  0  0  0  0  0  0  0  0  0  0  0
  -23.1824  -19.4698   28.7844 C   0  0  0  0  0  0  0  0  0  0  0  0
  -24.5722  -17.6562   29.8078 C   0  0  0  0  0  0  0  0  0  0  0  0
  -22.0989  -17.3821   29.6341 C   0  0  0  0  0  0  0  0  0  0  0  0
  -24.7054  -13.1748   24.9037 C   0  0  0  0  0  0  0  0  0  0  0  0
  -30.9341  -16.8007   21.8505 C   0  0  0  0  0  0  0  0  0  0  0  0
  -30.6370  -17.9563   20.9116 C   0  0  0  0  0  0  0  0  0  0  0  0
  -27.4127  -19.5218   20.0814 C   0  0  0  0  0  0  0  0  0  1  0  0
  -28.9109  -19.2914   20.0394 C   0  0  0  0  0  0  0  0  0  0  0  0
  -23.5127  -17.2298   27.5436 C   0  0  1  0  0  0  0  0  0  0  0  0
  -24.6416  -13.6157   27.3614 C   0  0  2  0  0  0  0  0  0  0  0  0
  -23.3456  -17.9423   28.9154 C   0  0  0  0  0  0  0  0  0  0  0  0
  -25.8773  -11.5413   20.2699 N   0  0  0  0  0  0  0  0  0  0  0  0
  -26.2678  -12.8219   20.1525 N   0  0  0  0  0  0  0  0  0  0  0  0
  -22.6586  -18.1233   25.3997 N   0  0  0  0  0  0  0  0  0  0  0  0
  -30.0175  -13.5508   20.2834 N   0  0  0  0  0  0  0  0  0  0  0  0
  -25.5368  -15.0547   20.4538 N   0  0  0  0  0  0  0  0  0  0  0  0
  -21.9495  -12.6075   21.6942 N   0  0  0  0  0  0  0  0  0  0  0  0
  -20.0127  -20.4324   24.7692 N   0  0  0  0  0  0  0  0  0  0  0  0
  -23.6422  -15.7796   27.6353 N   0  0  0  0  0  0  0  0  0  0  0  0
  -30.2438  -15.5940   21.4529 N   0  0  0  0  0  0  0  0  0  0  0  0
  -25.2884  -12.8805   26.2380 N   0  3  0  0  0  0  0  0  0  0  0  0
  -22.7461  -14.7414   21.4289 O   0  0  0  0  0  0  0  0  0  0  0  0
  -22.2805  -20.7367   25.2018 O   0  0  0  0  0  0  0  0  0  0  0  0
  -21.2179  -17.1438   26.9493 O   0  0  0  0  0  0  0  0  0  0  0  0
  -25.7046  -15.6415   26.5844 O   0  0  0  0  0  0  0  0  0  0  0  0
  -31.9372  -14.8393   20.1039 O   0  0  0  0  0  0  0  0  0  0  0  0
  -21.6061   -7.0472   21.7221 O   0  0  0  0  0  0  0  0  0  0  0  0
  -27.0313  -19.8659   21.4128 O   0  0  0  0  0  0  0  0  0  1  0  0
  -29.2397  -18.2135   20.9073 O   0  0  0  0  0  0  0  0  0  0  0  0
  -18.7254   -6.8400   26.4191 F   0  0  0  0  0  0  0  0  0  0  0  0
  -19.6510   -8.9232   22.2708 F   0  0  0  0  0  0  0  0  0  0  0  0
  1  2  1  0  0  0  0
  1  5  2  0  0  0  0
  2  6  2  0  0  0  0
  3  8  2  0  0  0  0
  3 15  1  0  0  0  0
  4  9  1  0  0  0  0
  4 15  2  0  0  0  0
  5 17  1  0  0  0  0
  6 19  1  0  0  0  0
  7 10  2  0  0  0  0
  7 18  1  0  0  0  0
  8 21  1  0  0  0  0
  9 21  2  0  0  0  0
 10 22  1  0  0  0  0
 11 12  2  0  0  0  0
 11 23  1  0  0  0  0
 12 24  1  0  0  0  0
 13 20  1  0  0  0  0
 13 22  2  0  0  0  0
 14 24  2  0  0  0  0
 14 25  1  0  0  0  0
 15 26  1  0  0  0  0
 16 26  1  0  0  0  0
 16 27  2  0  0  0  0
 16 28  1  0  0  0  0
 17 19  2  0  0  0  0
 17 33  1  0  0  0  0
 18 20  2  0  0  0  0
 18 34  1  0  0  0  0
 19 42  1  0  0  0  0
 20 35  1  0  0  0  0
 21 72  1  0  0  0  0
 22 73  1  0  0  0  0
 23 25  2  0  0  0  0
 23 72  1  0  0  0  0
 24 75  1  0  0  0  0
 25 76  1  0  0  0  0
 26 57  2  0  0  0  0
 27 58  1  0  0  0  0
 27 61  1  0  0  0  0
 28 62  1  0  0  0  0
 28 67  2  0  0  0  0
 29 43  1  0  0  0  0
 29 63  1  0  0  0  0
 29 68  2  0  0  0  0
 30 54  1  0  0  0  0
 30 59  1  0  0  0  0
 30 69  2  0  0  0  0
 31 55  1  0  0  0  0
 31 64  1  0  0  0  0
 31 70  2  0  0  0  0
 32 60  1  0  0  0  0
 32 65  1  0  0  0  0
 32 71  2  0  0  0  0
 33 36  1  0  0  0  0
 34 43  1  0  0  0  0
 35 59  1  0  0  0  0
 36 38  1  0  0  0  0
 37 39  1  0  0  0  0
 37 40  1  0  0  0  0
 38 42  1  0  0  0  0
 39 44  1  0  0  0  0
 40 60  1  0  0  0  0
 41 44  1  0  0  0  0
 41 60  1  0  0  0  0
 42 63  1  0  0  0  0
 43 59  1  0  0  0  0
 44 58  1  0  0  0  0
 45 55  1  0  0  0  0
 46 56  1  0  0  0  0
 47 56  1  0  0  0  0
 48 56  1  0  0  0  0
 49 66  1  0  0  0  0
 50 51  1  0  0  0  0
 50 65  1  0  0  0  0
 51 74  1  0  0  0  0
 52 53  1  0  0  0  0
 52 73  1  0  0  0  0
 53 74  1  0  0  0  0
 54 56  1  0  0  0  0
 54 64  1  0  0  0  0
 55 66  1  0  0  0  0
 57 58  1  0  0  0  0
M  CHG  1  66   1
M  ISO  4  32 100  52 101  65 100  73 101
M  END
> <Batch ID>
0001

> <Smiles>
CNC(C)C(=O)NC(C(=O)N1Cc2cc([101O:1][101CH2:1]COCC[100NH:0][100C:0](=O)N3CCCC(n4nc(-c5ccc(Oc6ccc(F)cc6F)cc5)c(C(N)=O)c4N)C3)ccc2CC1C(=O)NC1CCCc2ccccc21)C(C)(C)C

> <Shape>
0.186

> <Color>
0.201

> <Negative vol penalty>
0.000

$$$$

  -OEChem-04052315163D

 76 83  0     1  0  0  0  0  0999 V2000
  -19.4674  -30.7725   20.4290 C   0  0  0  0  0  0  0  0  0  0  0  0
  -20.8201  -30.4656   20.5353 C   0  0  0  0  0  0  0  0  0  0  0  0
  -26.1328  -14.9864   20.3201 C   0  0  0  0  0  0  0  0  0  0  0  0
  -27.9985  -14.2288   21.6551 C   0  0  0  0  0  0  0  0  0  0  0  0
  -18.5206  -29.9778   21.0740 C   0  0  0  0  0  0  0  0  0  0  0  0
  -21.2270  -29.3644   21.2878 C   0  0  0  0  0  0  0  0  0  0  0  0
  -24.7777  -26.5245   18.8755 C   0  0  0  0  0  0  0  0  0  0  0  0
  -25.7256  -13.6647   20.1391 C   0  0  0  0  0  0  0  0  0  0  0  0
  -27.5913  -12.9071   21.4741 C   0  0  0  0  0  0  0  0  0  0  0  0
  -26.0958  -26.9790   18.8670 C   0  0  0  0  0  0  0  0  0  0  0  0
  -23.9891  -10.5125   19.6257 C   0  0  0  0  0  0  0  0  0  0  0  0
  -22.6325  -10.2254   19.7765 C   0  0  0  0  0  0  0  0  0  0  0  0
  -26.6088  -25.5072   20.7079 C   0  0  0  0  0  0  0  0  0  0  0  0
  -22.7194  -11.0135   22.0587 C   0  0  0  0  0  0  0  0  0  0  0  0
  -27.2693  -15.2685   21.0780 C   0  0  0  0  0  0  0  0  0  0  0  0
  -27.3062  -17.5081   22.2989 C   0  0  0  0  0  0  0  0  0  0  0  0
  -18.9155  -28.8606   21.8267 C   0  0  0  0  0  0  0  0  0  0  0  0
  -24.3616  -25.5637   19.8086 C   0  0  0  0  0  0  0  0  0  0  0  0
  -20.2848  -28.5547   21.9445 C   0  0  0  0  0  0  0  0  0  0  0  0
  -25.2862  -25.0388   20.7229 C   0  0  0  0  0  0  0  0  0  0  0  0
  -26.4548  -12.6250   20.7161 C   0  0  0  0  0  0  0  0  0  0  0  0
  -27.0109  -26.4720   19.7847 C   0  0  0  0  0  0  0  0  0  0  0  0
  -24.7109  -11.0500   20.6915 C   0  0  0  0  0  0  0  0  0  0  0  0
  -21.9976  -10.4759   20.9929 C   0  0  0  0  0  0  0  0  0  0  0  0
  -24.0760  -11.3005   21.9079 C   0  0  0  0  0  0  0  0  0  0  0  0
  -27.6908  -16.6336   21.2648 C   0  0  0  0  0  0  0  0  0  0  0  0
  -27.9758  -18.6762   22.0274 C   0  0  0  0  0  0  0  0  0  0  0  0
  -26.4228  -17.2845   23.4058 C   0  0  0  0  0  0  0  0  0  0  0  0
  -22.2025  -25.4042   22.1663 C   0  0  0  0  0  0  0  0  0  0  0  0
  -23.2379  -22.2450   22.1971 C   0  0  0  0  0  0  0  0  0  0  0  0
  -30.6568  -25.5673   18.6584 C   0  0  0  0  0  0  0  0  0  0  0  0
  -20.5745  -21.4442   24.1731 C   0  0  0  0  0  0  0  0  0  0  0  0
  -29.4546  -22.5610   18.4444 C   0  0  0  0  0  0  0  0  0  0  0  0
  -17.8589  -28.0589   22.5449 C   0  0  0  0  0  0  0  0  0  0  0  0
  -22.9423  -25.0645   19.7812 C   0  0  0  0  0  0  0  0  0  0  0  0
  -24.8903  -24.0040   21.7414 C   0  0  0  0  0  0  0  0  0  0  0  0
  -18.3468  -26.6909   23.0147 C   0  0  0  0  0  0  0  0  0  0  0  0
  -31.6786  -19.6749   18.7477 C   0  0  0  0  0  0  0  0  0  0  0  0
  -19.7042  -26.8146   23.6997 C   0  0  0  0  0  0  0  0  0  0  0  0
  -30.7838  -18.6845   19.4896 C   0  0  0  0  0  0  0  0  0  0  0  0
  -30.8828  -20.5401   17.7717 C   0  0  0  0  0  0  0  0  0  0  0  0
  -28.8411  -20.2638   19.1425 C   0  0  0  0  0  0  0  0  0  0  0  0
  -20.7637  -27.3539   22.7312 C   0  0  1  0  0  0  0  0  0  0  0  0
  -22.5025  -24.4039   21.0861 C   0  0  1  0  0  0  0  0  0  0  0  0
  -29.6070  -19.4084   20.1644 C   0  0  1  0  0  0  0  0  0  0  0  0
  -19.3647  -19.4716   25.1439 C   0  0  0  0  0  0  0  0  0  0  0  0
  -21.9836  -21.6789   19.4747 C   0  0  0  0  0  0  0  0  0  0  0  0
  -20.1679  -20.4197   20.6519 C   0  0  0  0  0  0  0  0  0  0  0  0
  -22.5318  -19.6401   20.8153 C   0  0  0  0  0  0  0  0  0  0  0  0
  -21.1055  -22.3355   26.9449 C   0  0  0  0  0  0  0  0  0  0  0  0
  -30.3316  -27.0476   18.4878 C   0  0  0  0  0  0  0  0  0  0  0  0
  -28.8373  -27.3343   18.5263 C   0  0  0  0  0  0  0  0  0  1  0  0
  -21.8278  -21.7302   22.0513 C   0  0  1  0  0  0  0  0  0  0  0  0
  -20.4490  -20.5144   25.3665 C   0  0  2  0  0  0  0  0  0  0  0  0
  -21.6331  -20.8944   20.7548 C   0  0  0  0  0  0  0  0  0  0  0  0
  -28.5388  -17.1980   20.4009 N   0  0  0  0  0  0  0  0  0  0  0  0
  -28.6925  -18.4397   20.8914 N   0  0  0  0  0  0  0  0  0  0  0  0
  -23.5203  -23.4892   21.6188 N   0  0  0  0  0  0  0  0  0  0  0  0
  -29.7437  -21.1848   18.4423 N   0  0  0  0  0  0  0  0  0  0  0  0
  -28.0155  -19.8723   22.6521 N   0  0  0  0  0  0  0  0  0  0  0  0
  -25.8186  -16.0265   23.5349 N   0  0  0  0  0  0  0  0  0  0  0  0
  -21.2102  -26.3076   21.8366 N   0  0  0  0  0  0  0  0  0  0  0  0
  -21.5292  -21.0040   23.2809 N   0  0  0  0  0  0  0  0  0  0  0  0
  -30.1274  -24.7183   17.7081 N   0  0  0  0  0  0  0  0  0  0  0  0
  -30.3454  -23.3604   17.7450 N   0  0  0  0  0  0  0  0  0  0  0  0
  -20.1108  -21.2894   26.5937 N   0  3  0  0  0  0  0  0  0  0  0  0
  -26.1637  -18.1791   24.2460 O   0  0  0  0  0  0  0  0  0  0  0  0
  -22.8242  -25.3588   23.2213 O   0  0  0  0  0  0  0  0  0  0  0  0
  -24.0701  -21.5614   22.7999 O   0  0  0  0  0  0  0  0  0  0  0  0
  -31.3506  -25.1483   19.5860 O   0  0  0  0  0  0  0  0  0  0  0  0
  -19.8912  -22.4575   24.0434 O   0  0  0  0  0  0  0  0  0  0  0  0
  -28.4763  -23.0369   19.0311 O   0  0  0  0  0  0  0  0  0  0  0  0
  -26.0576  -11.3351   20.5400 O   0  0  0  0  0  0  0  0  0  0  0  0
  -28.3079  -26.9168   19.7782 O   0  0  0  0  0  0  0  0  0  1  0  0
  -20.6945  -10.2017   21.1371 F   0  0  0  0  0  0  0  0  0  0  0  0
  -24.7640  -11.8179   22.9350 F   0  0  0  0  0  0  0  0  0  0  0  0
  1  2  1  0  0  0  0
  1  5  2  0  0  0  0
  2  6  2  0  0  0  0
  3  8  2  0  0  0  0
  3 15  1  0  0  0  0
  4  9  1  0  0  0  0
  4 15  2  0  0  0  0
  5 17  1  0  0  0  0
  6 19  1  0  0  0  0
  7 10  2  0  0  0  0
  7 18  1  0  0  0  0
  8 21  1  0  0  0  0
  9 21  2  0  0  0  0
 10 22  1  0  0  0  0
 11 12  2  0  0  0  0
 11 23  1  0  0  0  0
 12 24  1  0  0  0  0
 13 20  1  0  0  0  0
 13 22  2  0  0  0  0
 14 24  2  0  0  0  0
 14 25  1  0  0  0  0
 15 26  1  0  0  0  0
 16 26  1  0  0  0  0
 16 27  2  0  0  0  0
 16 28  1  0  0  0  0
 17 19  2  0  0  0  0
 17 34  1  0  0  0  0
 18 20  2  0  0  0  0
 18 35  1  0  0  0  0
 19 43  1  0  0  0  0
 20 36  1  0  0  0  0
 21 73  1  0  0  0  0
 22 74  1  0  0  0  0
 23 25  2  0  0  0  0
 23 73  1  0  0  0  0
 24 75  1  0  0  0  0
 25 76  1  0  0  0  0
 26 56  2  0  0  0  0
 27 57  1  0  0  0  0
 27 60  1  0  0  0  0
 28 61  1  0  0  0  0
 28 67  2  0  0  0  0
 29 44  1  0  0  0  0
 29 62  1  0  0  0  0
 29 68  2  0  0  0  0
 30 53  1  0  0  0  0
 30 58  1  0  0  0  0
 30 69  2  0  0  0  0
 31 51  1  0  0  0  0
 31 64  1  0  0  0  0
 31 70  2  0  0  0  0
 32 54  1  0  0  0  0
 32 63  1  0  0  0  0
 32 71  2  0  0  0  0
 33 59  1  0  0  0  0
 33 65  1  0  0  0  0
 33 72  2  0  0  0  0
 34 37  1  0  0  0  0
 35 44  1  0  0  0  0
 36 58  1  0  0  0  0
 37 39  1  0  0  0  0
 38 40  1  0  0  0  0
 38 41  1  0  0  0  0
 39 43  1  0  0  0  0
 40 45  1  0  0  0  0
 41 59  1  0  0  0  0
 42 45  1  0  0  0  0
 42 59  1  0  0  0  0
 43 62  1  0  0  0  0
 44 58  1  0  0  0  0
 45 57  1  0  0  0  0
 46 54  1  0  0  0  0
 47 55  1  0  0  0  0
 48 55  1  0  0  0  0
 49 55  1  0  0  0  0
 50 66  1  0  0  0  0
 51 52  1  0  0  0  0
 52 74  1  0  0  0  0
 53 55  1  0  0  0  0
 53 63  1  0  0  0  0
 54 66  1  0  0  0  0
 56 57  1  0  0  0  0
 64 65  1  0  0  0  0
M  CHG  1  66   1
M  ISO  4  33 100  52 101  65 100  74 101
M  END
> <Batch ID>
0001

> <Smiles>
CNC(C)C(=O)NC(C(=O)N1Cc2cc([101O:1][101CH2:1]CC(=O)N[100NH:0][100C:0](=O)N3CCCC(n4nc(-c5ccc(Oc6ccc(F)cc6F)cc5)c(C(N)=O)c4N)C3)ccc2CC1C(=O)NC1CCCc2ccccc21)C(C)(C)C

> <Shape>
0.205

> <Color>
0.085

> <Negative vol penalty>
0.000

$$$$
