
  -OEChem-04052315183D

 79 86  0     1  0  0  0  0  0999 V2000
  -23.5081  -23.5131   18.2349 C   0  0  0  0  0  0  0  0  0  0  0  0
  -24.4807  -22.5369   18.4261 C   0  0  0  0  0  0  0  0  0  0  0  0
  -26.1822  -27.9827   18.9044 C   0  0  0  0  0  0  0  0  0  0  0  0
  -26.6173  -28.1379   21.2758 C   0  0  0  0  0  0  0  0  0  0  0  0
  -22.3399  -23.4901   18.9957 C   0  0  0  0  0  0  0  0  0  0  0  0
  -24.2861  -21.5377   19.3791 C   0  0  0  0  0  0  0  0  0  0  0  0
  -25.5167  -16.9393   17.6513 C   0  0  0  0  0  0  0  0  0  0  0  0
  -25.0989  -28.8498   19.0464 C   0  0  0  0  0  0  0  0  0  0  0  0
  -25.5340  -29.0050   21.4178 C   0  0  0  0  0  0  0  0  0  0  0  0
  -26.8728  -16.6191   17.6031 C   0  0  0  0  0  0  0  0  0  0  0  0
  -24.8738  -32.2739   20.8710 C   0  0  0  0  0  0  0  0  0  0  0  0
  -25.0569  -33.4147   21.6524 C   0  0  0  0  0  0  0  0  0  0  0  0
  -26.6473  -15.3800   19.6605 C   0  0  0  0  0  0  0  0  0  0  0  0
  -23.2882  -32.6871   23.1288 C   0  0  0  0  0  0  0  0  0  0  0  0
  -26.9414  -27.6267   20.0191 C   0  0  0  0  0  0  0  0  0  0  0  0
  -29.3980  -27.0776   19.6052 C   0  0  0  0  0  0  0  0  0  0  0  0
  -22.1266  -22.4845   19.9517 C   0  0  0  0  0  0  0  0  0  0  0  0
  -24.7167  -16.4905   18.7121 C   0  0  0  0  0  0  0  0  0  0  0  0
  -23.1145  -21.5020   20.1543 C   0  0  0  0  0  0  0  0  0  0  0  0
  -25.2807  -15.6937   19.7185 C   0  0  0  0  0  0  0  0  0  0  0  0
  -24.7748  -29.3610   20.3031 C   0  0  0  0  0  0  0  0  0  0  0  0
  -27.4389  -15.8418   18.6093 C   0  0  0  0  0  0  0  0  0  0  0  0
  -23.8979  -31.3397   21.2184 C   0  0  0  0  0  0  0  0  0  0  0  0
  -24.2641  -33.6213   22.7814 C   0  0  0  0  0  0  0  0  0  0  0  0
  -23.1052  -31.5463   22.3473 C   0  0  0  0  0  0  0  0  0  0  0  0
  -28.0603  -26.7306   19.8732 C   0  0  0  0  0  0  0  0  0  0  0  0
  -30.0625  -25.8763   19.5628 C   0  0  0  0  0  0  0  0  0  0  0  0
  -29.9873  -28.3703   19.4120 C   0  0  0  0  0  0  0  0  0  0  0  0
  -23.0248  -17.9063   21.0004 C   0  0  0  0  0  0  0  0  0  0  0  0
  -22.0770  -14.8704   21.6386 C   0  0  0  0  0  0  0  0  0  0  0  0
  -31.6677  -17.7110   22.1869 C   0  0  0  0  0  0  0  0  0  0  0  0
  -22.7316  -11.5273   21.4335 C   0  0  0  0  0  0  0  0  0  0  0  0
  -28.9273  -20.6622   22.0886 C   0  0  0  0  0  0  0  0  0  0  0  0
  -20.8691  -22.5284   20.7831 C   0  0  0  0  0  0  0  0  0  0  0  0
  -23.2498  -16.8222   18.7355 C   0  0  0  0  0  0  0  0  0  0  0  0
  -24.4607  -15.1701   20.8683 C   0  0  0  0  0  0  0  0  0  0  0  0
  -20.5735  -21.2189   21.5100 C   0  0  0  0  0  0  0  0  0  0  0  0
  -29.3746  -21.2503   18.5458 C   0  0  0  0  0  0  0  0  0  0  0  0
  -21.8325  -20.6896   22.1895 C   0  0  0  0  0  0  0  0  0  0  0  0
  -29.2129  -22.7694   18.4669 C   0  0  0  0  0  0  0  0  0  0  0  0
  -28.4206  -20.6454   19.5715 C   0  0  0  0  0  0  0  0  0  0  0  0
  -28.3760  -22.7442   20.8624 C   0  0  0  0  0  0  0  0  0  0  0  0
  -22.9290  -20.3874   21.1610 C   0  0  1  0  0  0  0  0  0  0  0  0
  -22.6412  -16.7416   20.1321 C   0  0  1  0  0  0  0  0  0  0  0  0
  -29.3291  -23.4184   19.8588 C   0  0  2  0  0  0  0  0  0  0  0  0
  -21.7899   -9.2924   22.0783 C   0  0  0  0  0  0  0  0  0  0  0  0
  -22.9519  -15.3371   24.5242 C   0  0  0  0  0  0  0  0  0  0  0  0
  -22.8879  -12.8584   24.8711 C   0  0  0  0  0  0  0  0  0  0  0  0
  -20.8002  -14.0870   24.2757 C   0  0  0  0  0  0  0  0  0  0  0  0
  -22.5427  -10.6623   18.6095 C   0  0  0  0  0  0  0  0  0  0  0  0
  -30.9694  -18.3851   23.3575 C   0  0  0  0  0  0  0  0  0  0  0  0
  -30.8961  -15.7133   19.6475 C   0  0  0  0  0  0  0  0  0  0  0  0
  -29.4619  -18.4990   23.1804 C   0  0  0  0  0  0  0  0  0  0  0  0
  -31.6943  -15.5643   20.9356 C   0  0  0  0  0  0  0  0  0  0  0  0
  -29.4277  -15.3412   19.8135 C   0  0  0  0  0  0  0  0  0  1  0  0
  -22.5864  -13.7539   22.5178 C   0  0  1  0  0  0  0  0  0  0  0  0
  -21.8695  -10.3571   20.9953 C   0  0  2  0  0  0  0  0  0  0  0  0
  -22.3228  -14.0204   24.0267 C   0  0  0  0  0  0  0  0  0  0  0  0
  -27.8836  -25.4120   19.9924 N   0  0  0  0  0  0  0  0  0  0  0  0
  -29.1190  -24.9200   19.7984 N   0  0  0  0  0  0  0  0  0  0  0  0
  -23.0325  -15.5267   20.8499 N   0  0  0  0  0  0  0  0  0  0  0  0
  -28.5948  -21.2941   20.8788 N   0  0  0  0  0  0  0  0  0  0  0  0
  -31.3559  -25.5552   19.3472 N   0  0  0  0  0  0  0  0  0  0  0  0
  -29.1609  -29.4996   19.4890 N   0  0  0  0  0  0  0  0  0  0  0  0
  -22.6585  -19.1357   20.4868 N   0  0  0  0  0  0  0  0  0  0  0  0
  -31.2034  -16.4148   21.9844 N   0  0  0  0  0  0  0  0  0  0  0  0
  -21.9793  -12.5272   22.0126 N   0  0  0  0  0  0  0  0  0  0  0  0
  -29.1108  -19.2866   22.0196 N   0  0  0  0  0  0  0  0  0  0  0  0
  -22.4301   -9.7334   19.7634 N   0  3  0  0  0  0  0  0  0  0  0  0
  -31.2076  -28.5184   19.1618 O   0  0  0  0  0  0  0  0  0  0  0  0
  -23.6085  -17.7044   22.0588 O   0  0  0  0  0  0  0  0  0  0  0  0
  -20.8745  -15.1452   21.6460 O   0  0  0  0  0  0  0  0  0  0  0  0
  -32.5298  -18.2613   21.5072 O   0  0  0  0  0  0  0  0  0  0  0  0
  -23.9509  -11.5503   21.2808 O   0  0  0  0  0  0  0  0  0  0  0  0
  -29.0565  -21.2793   23.1514 O   0  0  0  0  0  0  0  0  0  0  0  0
  -23.7179  -30.2073   20.4420 O   0  0  0  0  0  0  0  0  0  0  0  0
  -28.7624  -15.5284   18.5650 O   0  0  0  0  0  0  0  0  0  1  0  0
  -24.4411  -34.7161   23.5326 F   0  0  0  0  0  0  0  0  0  0  0  0
  -22.1668  -30.6518   22.6868 F   0  0  0  0  0  0  0  0  0  0  0  0
  1  2  1  0  0  0  0
  1  5  2  0  0  0  0
  2  6  2  0  0  0  0
  3  8  2  0  0  0  0
  3 15  1  0  0  0  0
  4  9  1  0  0  0  0
  4 15  2  0  0  0  0
  5 17  1  0  0  0  0
  6 19  1  0  0  0  0
  7 10  2  0  0  0  0
  7 18  1  0  0  0  0
  8 21  1  0  0  0  0
  9 21  2  0  0  0  0
 10 22  1  0  0  0  0
 11 12  2  0  0  0  0
 11 23  1  0  0  0  0
 12 24  1  0  0  0  0
 13 20  1  0  0  0  0
 13 22  2  0  0  0  0
 14 24  2  0  0  0  0
 14 25  1  0  0  0  0
 15 26  1  0  0  0  0
 16 26  1  0  0  0  0
 16 27  2  0  0  0  0
 16 28  1  0  0  0  0
 17 19  2  0  0  0  0
 17 34  1  0  0  0  0
 18 20  2  0  0  0  0
 18 35  1  0  0  0  0
 19 43  1  0  0  0  0
 20 36  1  0  0  0  0
 21 76  1  0  0  0  0
 22 77  1  0  0  0  0
 23 25  2  0  0  0  0
 23 76  1  0  0  0  0
 24 78  1  0  0  0  0
 25 79  1  0  0  0  0
 26 59  2  0  0  0  0
 27 60  1  0  0  0  0
 27 63  1  0  0  0  0
 28 64  1  0  0  0  0
 28 70  2  0  0  0  0
 29 44  1  0  0  0  0
 29 65  1  0  0  0  0
 29 71  2  0  0  0  0
 30 56  1  0  0  0  0
 30 61  1  0  0  0  0
 30 72  2  0  0  0  0
 31 51  1  0  0  0  0
 31 66  1  0  0  0  0
 31 73  2  0  0  0  0
 32 57  1  0  0  0  0
 32 67  1  0  0  0  0
 32 74  2  0  0  0  0
 33 62  1  0  0  0  0
 33 68  1  0  0  0  0
 33 75  2  0  0  0  0
 34 37  1  0  0  0  0
 35 44  1  0  0  0  0
 36 61  1  0  0  0  0
 37 39  1  0  0  0  0
 38 40  1  0  0  0  0
 38 41  1  0  0  0  0
 39 43  1  0  0  0  0
 40 45  1  0  0  0  0
 41 62  1  0  0  0  0
 42 45  1  0  0  0  0
 42 62  1  0  0  0  0
 43 65  1  0  0  0  0
 44 61  1  0  0  0  0
 45 60  1  0  0  0  0
 46 57  1  0  0  0  0
 47 58  1  0  0  0  0
 48 58  1  0  0  0  0
 49 58  1  0  0  0  0
 50 69  1  0  0  0  0
 51 53  1  0  0  0  0
 52 54  1  0  0  0  0
 52 55  1  0  0  0  0
 53 68  1  0  0  0  0
 54 66  1  0  0  0  0
 55 77  1  0  0  0  0
 56 58  1  0  0  0  0
 56 67  1  0  0  0  0
 57 69  1  0  0  0  0
 59 60  1  0  0  0  0
M  CHG  1  69   1
M  ISO  4  33 100  55 101  68 100  77 101
M  END
> <Batch ID>
0002

> <Smiles>
CNC(C)C(=O)NC(C(=O)N1Cc2cc([101O:1][101CH2:1]CCNC(=O)CC[100NH:0][100C:0](=O)N3CCCC(n4nc(-c5ccc(Oc6ccc(F)cc6F)cc5)c(C(N)=O)c4N)C3)ccc2CC1C(=O)NC1CCCc2ccccc21)C(C)(C)C

> <Shape>
0.221

> <Color>
0.051

> <Negative vol penalty>
0.000

$$$$

  -OEChem-04052315183D

 78 85  0     1  0  0  0  0  0999 V2000
  -17.6820  -24.6967   22.1958 C   0  0  0  0  0  0  0  0  0  0  0  0
  -19.0210  -24.4025   21.9588 C   0  0  0  0  0  0  0  0  0  0  0  0
  -23.6889   -9.9211   21.8215 C   0  0  0  0  0  0  0  0  0  0  0  0
  -24.2193  -11.1788   23.8149 C   0  0  0  0  0  0  0  0  0  0  0  0
  -17.3159  -25.9685   22.6343 C   0  0  0  0  0  0  0  0  0  0  0  0
  -19.9945  -25.3805   22.1592 C   0  0  0  0  0  0  0  0  0  0  0  0
  -24.0440  -23.6125   24.6333 C   0  0  0  0  0  0  0  0  0  0  0  0
  -23.1112   -8.9223   22.6053 C   0  0  0  0  0  0  0  0  0  0  0  0
  -23.6415  -10.1801   24.5988 C   0  0  0  0  0  0  0  0  0  0  0  0
  -24.9605  -22.8608   23.8993 C   0  0  0  0  0  0  0  0  0  0  0  0
  -20.1973   -8.4149   24.2437 C   0  0  0  0  0  0  0  0  0  0  0  0
  -18.9647   -7.9038   23.8375 C   0  0  0  0  0  0  0  0  0  0  0  0
  -26.3851  -24.7978   23.7059 C   0  0  0  0  0  0  0  0  0  0  0  0
  -19.9388   -5.7005   23.6539 C   0  0  0  0  0  0  0  0  0  0  0  0
  -24.2430  -11.0493   22.4263 C   0  0  0  0  0  0  0  0  0  0  0  0
  -24.2019  -13.2119   21.0738 C   0  0  0  0  0  0  0  0  0  0  0  0
  -18.2865  -26.9597   22.8494 C   0  0  0  0  0  0  0  0  0  0  0  0
  -24.2864  -24.9677   24.9002 C   0  0  0  0  0  0  0  0  0  0  0  0
  -19.6409  -26.6672   22.5997 C   0  0  0  0  0  0  0  0  0  0  0  0
  -25.4713  -25.5639   24.4456 C   0  0  0  0  0  0  0  0  0  0  0  0
  -23.0875   -9.0518   23.9939 C   0  0  0  0  0  0  0  0  0  0  0  0
  -26.1299  -23.4542   23.4330 C   0  0  0  0  0  0  0  0  0  0  0  0
  -21.3007   -7.5688   24.3549 C   0  0  0  0  0  0  0  0  0  0  0  0
  -18.8354   -6.5466   23.5427 C   0  0  0  0  0  0  0  0  0  0  0  0
  -21.1715   -6.2116   24.0600 C   0  0  0  0  0  0  0  0  0  0  0  0
  -24.8405  -12.0810   21.6172 C   0  0  0  0  0  0  0  0  0  0  0  0
  -25.1950  -13.8732   20.3934 C   0  0  0  0  0  0  0  0  0  0  0  0
  -22.8334  -13.6274   21.1751 C   0  0  0  0  0  0  0  0  0  0  0  0
  -22.8223  -27.6939   24.1738 C   0  0  0  0  0  0  0  0  0  0  0  0
  -25.0665  -28.9698   26.1380 C   0  0  0  0  0  0  0  0  0  0  0  0
  -28.1454  -28.6941   27.5840 C   0  0  0  0  0  0  0  0  0  0  0  0
  -31.1530  -13.9929   20.9750 C   0  0  0  0  0  0  0  0  0  0  0  0
  -17.8377  -28.3341   23.2785 C   0  0  0  0  0  0  0  0  0  0  0  0
  -23.3005  -25.7578   25.7162 C   0  0  0  0  0  0  0  0  0  0  0  0
  -25.7884  -27.0100   24.7226 C   0  0  0  0  0  0  0  0  0  0  0  0
  -18.9688  -29.2009   23.8258 C   0  0  0  0  0  0  0  0  0  0  0  0
  -29.3033  -13.0899   18.0699 C   0  0  0  0  0  0  0  0  0  0  0  0
  -20.1882  -29.1266   22.9124 C   0  0  0  0  0  0  0  0  0  0  0  0
  -27.8922  -12.8310   18.6005 C   0  0  0  0  0  0  0  0  0  0  0  0
  -30.3716  -12.6302   19.0596 C   0  0  0  0  0  0  0  0  0  0  0  0
  -28.8199  -12.9195   20.9522 C   0  0  0  0  0  0  0  0  0  0  0  0
  -20.7287  -27.6940   22.8293 C   0  0  1  0  0  0  0  0  0  0  0  0
  -23.4069  -27.2626   25.4890 C   0  0  1  0  0  0  0  0  0  0  0  0
  -27.7079  -13.4175   20.0131 C   0  0  2  0  0  0  0  0  0  0  0  0
  -29.7208  -29.9121   29.1110 C   0  0  0  0  0  0  0  0  0  0  0  0
  -25.7904  -30.8751   23.8674 C   0  0  0  0  0  0  0  0  0  0  0  0
  -27.9258  -31.3861   25.0703 C   0  0  0  0  0  0  0  0  0  0  0  0
  -25.7361  -31.9278   26.1353 C   0  0  0  0  0  0  0  0  0  0  0  0
  -28.1044  -26.4982   29.5678 C   0  0  0  0  0  0  0  0  0  0  0  0
  -30.0822  -18.8621   22.6777 C   0  0  0  0  0  0  0  0  0  0  0  0
  -30.2264  -17.3628   22.9481 C   0  0  0  0  0  0  0  0  0  0  0  0
  -28.6715  -19.3520   23.0118 C   0  0  0  0  0  0  0  0  0  0  0  0
  -31.6177  -16.8177   22.6171 C   0  0  0  0  0  0  0  0  0  0  0  0
  -28.5147  -20.8412   22.7120 C   0  0  0  0  0  0  0  0  0  0  0  0
  -31.7869  -15.3422   22.9592 C   0  0  0  0  0  0  0  0  0  0  0  0
  -27.1014  -21.3268   23.0013 C   0  0  0  0  0  0  0  0  0  1  0  0
  -26.4630  -29.5130   25.9551 C   0  0  1  0  0  0  0  0  0  0  0  0
  -28.6052  -28.8828   29.0184 C   0  0  2  0  0  0  0  0  0  0  0  0
  -26.4722  -30.8988   25.2500 C   0  0  0  0  0  0  0  0  0  0  0  0
  -26.1387  -12.0239   21.3084 N   0  0  0  0  0  0  0  0  0  0  0  0
  -26.3240  -13.1271   20.5636 N   0  0  0  0  0  0  0  0  0  0  0  0
  -24.7901  -27.7423   25.5193 N   0  0  0  0  0  0  0  0  0  0  0  0
  -30.1404  -13.2233   20.3789 N   0  0  0  0  0  0  0  0  0  0  0  0
  -25.2039  -15.0142   19.6720 N   0  0  0  0  0  0  0  0  0  0  0  0
  -21.9463  -12.8314   21.9125 N   0  0  0  0  0  0  0  0  0  0  0  0
  -21.4879  -27.3704   24.0181 N   0  0  0  0  0  0  0  0  0  0  0  0
  -27.0781  -29.5116   27.2780 N   0  0  0  0  0  0  0  0  0  0  0  0
  -30.8496  -14.5236   22.2228 N   0  0  0  0  0  0  0  0  0  0  0  0
  -29.1068  -27.5946   29.5752 N   0  3  0  0  0  0  0  0  0  0  0  0
  -22.4062  -14.6650   20.6144 O   0  0  0  0  0  0  0  0  0  0  0  0
  -23.5291  -28.2782   23.3610 O   0  0  0  0  0  0  0  0  0  0  0  0
  -24.2529  -29.6074   26.8112 O   0  0  0  0  0  0  0  0  0  0  0  0
  -28.6820  -27.9034   26.8110 O   0  0  0  0  0  0  0  0  0  0  0  0
  -32.2446  -14.1967   20.4328 O   0  0  0  0  0  0  0  0  0  0  0  0
  -22.5236   -8.0776   24.7591 O   0  0  0  0  0  0  0  0  0  0  0  0
  -27.0258  -22.7229   22.7158 O   0  0  0  0  0  0  0  0  0  1  0  0
  -17.6513   -6.0556   23.1541 F   0  0  0  0  0  0  0  0  0  0  0  0
  -22.2276   -5.3937   24.1662 F   0  0  0  0  0  0  0  0  0  0  0  0
  1  2  1  0  0  0  0
  1  5  2  0  0  0  0
  2  6  2  0  0  0  0
  3  8  2  0  0  0  0
  3 15  1  0  0  0  0
  4  9  1  0  0  0  0
  4 15  2  0  0  0  0
  5 17  1  0  0  0  0
  6 19  1  0  0  0  0
  7 10  2  0  0  0  0
  7 18  1  0  0  0  0
  8 21  1  0  0  0  0
  9 21  2  0  0  0  0
 10 22  1  0  0  0  0
 11 12  2  0  0  0  0
 11 23  1  0  0  0  0
 12 24  1  0  0  0  0
 13 20  1  0  0  0  0
 13 22  2  0  0  0  0
 14 24  2  0  0  0  0
 14 25  1  0  0  0  0
 15 26  1  0  0  0  0
 16 26  1  0  0  0  0
 16 27  2  0  0  0  0
 16 28  1  0  0  0  0
 17 19  2  0  0  0  0
 17 33  1  0  0  0  0
 18 20  2  0  0  0  0
 18 34  1  0  0  0  0
 19 42  1  0  0  0  0
 20 35  1  0  0  0  0
 21 75  1  0  0  0  0
 22 76  1  0  0  0  0
 23 25  2  0  0  0  0
 23 75  1  0  0  0  0
 24 77  1  0  0  0  0
 25 78  1  0  0  0  0
 26 60  2  0  0  0  0
 27 61  1  0  0  0  0
 27 64  1  0  0  0  0
 28 65  1  0  0  0  0
 28 70  2  0  0  0  0
 29 43  1  0  0  0  0
 29 66  1  0  0  0  0
 29 71  2  0  0  0  0
 30 57  1  0  0  0  0
 30 62  1  0  0  0  0
 30 72  2  0  0  0  0
 31 58  1  0  0  0  0
 31 67  1  0  0  0  0
 31 73  2  0  0  0  0
 32 63  1  0  0  0  0
 32 68  1  0  0  0  0
 32 74  2  0  0  0  0
 33 36  1  0  0  0  0
 34 43  1  0  0  0  0
 35 62  1  0  0  0  0
 36 38  1  0  0  0  0
 37 39  1  0  0  0  0
 37 40  1  0  0  0  0
 38 42  1  0  0  0  0
 39 44  1  0  0  0  0
 40 63  1  0  0  0  0
 41 44  1  0  0  0  0
 41 63  1  0  0  0  0
 42 66  1  0  0  0  0
 43 62  1  0  0  0  0
 44 61  1  0  0  0  0
 45 58  1  0  0  0  0
 46 59  1  0  0  0  0
 47 59  1  0  0  0  0
 48 59  1  0  0  0  0
 49 69  1  0  0  0  0
 50 51  1  0  0  0  0
 50 52  1  0  0  0  0
 51 53  1  0  0  0  0
 52 54  1  0  0  0  0
 53 55  1  0  0  0  0
 54 56  1  0  0  0  0
 55 68  1  0  0  0  0
 56 76  1  0  0  0  0
 57 59  1  0  0  0  0
 57 67  1  0  0  0  0
 58 69  1  0  0  0  0
 60 61  1  0  0  0  0
M  CHG  1  69   1
M  ISO  4  32 100  56 101  68 100  76 101
M  END
> <Batch ID>
0002

> <Smiles>
CNC(C)C(=O)NC(C(=O)N1Cc2cc([101O:1][101CH2:1]CCCCCC[100NH:0][100C:0](=O)N3CCCC(n4nc(-c5ccc(Oc6ccc(F)cc6F)cc5)c(C(N)=O)c4N)C3)ccc2CC1C(=O)NC1CCCc2ccccc21)C(C)(C)C

> <Shape>
0.248

> <Color>
0.180

> <Negative vol penalty>
0.000

$$$$

  -OEChem-04052315183D

 81 88  0     1  0  0  0  0  0999 V2000
  -23.4587  -23.8063   19.4438 C   0  0  0  0  0  0  0  0  0  0  0  0
  -24.5731  -23.0366   19.7619 C   0  0  0  0  0  0  0  0  0  0  0  0
  -22.1270  -28.8450   20.7393 C   0  0  0  0  0  0  0  0  0  0  0  0
  -22.7493  -26.8394   21.9340 C   0  0  0  0  0  0  0  0  0  0  0  0
  -22.1849  -23.3686   19.8039 C   0  0  0  0  0  0  0  0  0  0  0  0
  -24.4144  -21.8293   20.4413 C   0  0  0  0  0  0  0  0  0  0  0  0
  -27.2118  -18.1022   18.4593 C   0  0  0  0  0  0  0  0  0  0  0  0
  -20.8239  -28.7290   21.2233 C   0  0  0  0  0  0  0  0  0  0  0  0
  -21.4462  -26.7234   22.4180 C   0  0  0  0  0  0  0  0  0  0  0  0
  -28.5705  -18.0909   18.7715 C   0  0  0  0  0  0  0  0  0  0  0  0
  -17.4239  -29.1620   22.4346 C   0  0  0  0  0  0  0  0  0  0  0  0
  -16.8082  -30.3147   22.9223 C   0  0  0  0  0  0  0  0  0  0  0  0
  -28.1664  -16.3984   20.4423 C   0  0  0  0  0  0  0  0  0  0  0  0
  -18.5484  -30.5415   24.5829 C   0  0  0  0  0  0  0  0  0  0  0  0
  -23.0896  -27.9001   21.0946 C   0  0  0  0  0  0  0  0  0  0  0  0
  -25.5073  -28.7081   21.1934 C   0  0  0  0  0  0  0  0  0  0  0  0
  -22.0096  -22.1507   20.4796 C   0  0  0  0  0  0  0  0  0  0  0  0
  -26.3169  -17.2682   19.1450 C   0  0  0  0  0  0  0  0  0  0  0  0
  -23.1371  -21.3756   20.8120 C   0  0  0  0  0  0  0  0  0  0  0  0
  -26.7971  -16.3992   20.1352 C   0  0  0  0  0  0  0  0  0  0  0  0
  -20.4836  -27.6682   22.0627 C   0  0  0  0  0  0  0  0  0  0  0  0
  -29.0476  -17.2410   19.7651 C   0  0  0  0  0  0  0  0  0  0  0  0
  -18.6018  -28.6990   23.0211 C   0  0  0  0  0  0  0  0  0  0  0  0
  -17.3705  -31.0045   23.9964 C   0  0  0  0  0  0  0  0  0  0  0  0
  -19.1640  -29.3888   24.0952 C   0  0  0  0  0  0  0  0  0  0  0  0
  -24.4357  -28.0191   20.5945 C   0  0  0  0  0  0  0  0  0  0  0  0
  -26.5604  -28.5206   20.3318 C   0  0  0  0  0  0  0  0  0  0  0  0
  -25.5472  -29.4511   22.4190 C   0  0  0  0  0  0  0  0  0  0  0  0
  -23.7886  -17.7440   21.0117 C   0  0  0  0  0  0  0  0  0  0  0  0
  -23.5465  -14.5135   20.8461 C   0  0  0  0  0  0  0  0  0  0  0  0
  -32.2184  -21.0406   20.9954 C   0  0  0  0  0  0  0  0  0  0  0  0
  -25.0904  -11.5155   20.3211 C   0  0  0  0  0  0  0  0  0  0  0  0
  -27.8228  -24.2803   16.2973 C   0  0  0  0  0  0  0  0  0  0  0  0
  -20.6170  -21.7420   20.8899 C   0  0  0  0  0  0  0  0  0  0  0  0
  -24.8583  -17.2730   18.7779 C   0  0  0  0  0  0  0  0  0  0  0  0
  -25.8809  -15.4696   20.8867 C   0  0  0  0  0  0  0  0  0  0  0  0
  -20.5035  -20.2698   21.2772 C   0  0  0  0  0  0  0  0  0  0  0  0
  -27.5267  -27.7787   15.7051 C   0  0  0  0  0  0  0  0  0  0  0  0
  -21.6427  -19.8742   22.2114 C   0  0  0  0  0  0  0  0  0  0  0  0
  -26.7976  -28.2991   16.9451 C   0  0  0  0  0  0  0  0  0  0  0  0
  -27.0221  -26.3979   15.2917 C   0  0  0  0  0  0  0  0  0  0  0  0
  -26.3193  -25.9035   17.6016 C   0  0  0  0  0  0  0  0  0  0  0  0
  -23.0036  -20.0482   21.5264 C   0  0  1  0  0  0  0  0  0  0  0  0
  -23.9592  -16.7529   19.8953 C   0  0  1  0  0  0  0  0  0  0  0  0
  -26.8328  -27.2689   18.0899 C   0  0  2  0  0  0  0  0  0  0  0  0
  -24.6408   -9.0469   20.2904 C   0  0  0  0  0  0  0  0  0  0  0  0
  -23.5061  -14.4853   23.8969 C   0  0  0  0  0  0  0  0  0  0  0  0
  -24.0131  -12.0350   23.8116 C   0  0  0  0  0  0  0  0  0  0  0  0
  -21.8967  -12.9042   22.8177 C   0  0  0  0  0  0  0  0  0  0  0  0
  -25.8588  -11.2936   17.4717 C   0  0  0  0  0  0  0  0  0  0  0  0
  -33.0417  -19.7860   20.7648 C   0  0  0  0  0  0  0  0  0  0  0  0
  -32.2174  -18.5123   20.9135 C   0  0  0  0  0  0  0  0  0  0  0  0
  -30.0629  -22.9612   19.3500 C   0  0  0  0  0  0  0  0  0  0  0  0
  -29.9902  -22.3703   17.9368 C   0  0  0  0  0  0  0  0  0  0  0  0
  -31.4984  -23.1154   19.8442 C   0  0  0  0  0  0  0  0  0  0  0  0
  -28.5554  -22.2055   17.4451 C   0  0  0  0  0  0  0  0  0  0  0  0
  -31.0939  -18.4464   19.8892 C   0  0  0  0  0  0  0  0  0  1  0  0
  -24.0925  -13.3579   21.6495 C   0  0  1  0  0  0  0  0  0  0  0  0
  -24.7082  -10.3221   19.4644 C   0  0  2  0  0  0  0  0  0  0  0  0
  -23.3944  -13.2144   23.0313 C   0  0  0  0  0  0  0  0  0  0  0  0
  -24.7767  -27.4375   19.4415 N   0  0  0  0  0  0  0  0  0  0  0  0
  -26.0744  -27.7606   19.3089 N   0  0  0  0  0  0  0  0  0  0  0  0
  -24.4622  -15.5157   20.4959 N   0  0  0  0  0  0  0  0  0  0  0  0
  -27.0831  -25.4679   16.4219 N   0  0  0  0  0  0  0  0  0  0  0  0
  -27.8455  -28.9335   20.3570 N   0  0  0  0  0  0  0  0  0  0  0  0
  -24.3757  -29.5435   23.1828 N   0  0  0  0  0  0  0  0  0  0  0  0
  -23.2532  -18.9539   20.6129 N   0  0  0  0  0  0  0  0  0  0  0  0
  -32.2123  -21.8610   19.8767 N   0  0  0  0  0  0  0  0  0  0  0  0
  -23.9795  -12.1789   20.7976 N   0  0  0  0  0  0  0  0  0  0  0  0
  -27.8337  -23.4581   17.4174 N   0  0  0  0  0  0  0  0  0  0  0  0
  -25.7068  -10.1247   18.3760 N   0  3  0  0  0  0  0  0  0  0  0  0
  -26.5866  -30.0301   22.8165 O   0  0  0  0  0  0  0  0  0  0  0  0
  -24.1168  -17.4334   22.1508 O   0  0  0  0  0  0  0  0  0  0  0  0
  -22.3530  -14.5229   20.5345 O   0  0  0  0  0  0  0  0  0  0  0  0
  -31.6361  -21.2813   22.0495 O   0  0  0  0  0  0  0  0  0  0  0  0
  -26.2577  -11.8259   20.5483 O   0  0  0  0  0  0  0  0  0  0  0  0
  -28.4330  -23.9779   15.2662 O   0  0  0  0  0  0  0  0  0  0  0  0
  -19.2122  -27.5549   22.5353 O   0  0  0  0  0  0  0  0  0  0  0  0
  -30.3732  -17.2284   20.0722 O   0  0  0  0  0  0  0  0  0  1  0  0
  -16.7800  -32.1123   24.4636 F   0  0  0  0  0  0  0  0  0  0  0  0
  -20.2961  -28.9495   24.6620 F   0  0  0  0  0  0  0  0  0  0  0  0
  1  2  1  0  0  0  0
  1  5  2  0  0  0  0
  2  6  2  0  0  0  0
  3  8  2  0  0  0  0
  3 15  1  0  0  0  0
  4  9  1  0  0  0  0
  4 15  2  0  0  0  0
  5 17  1  0  0  0  0
  6 19  1  0  0  0  0
  7 10  2  0  0  0  0
  7 18  1  0  0  0  0
  8 21  1  0  0  0  0
  9 21  2  0  0  0  0
 10 22  1  0  0  0  0
 11 12  2  0  0  0  0
 11 23  1  0  0  0  0
 12 24  1  0  0  0  0
 13 20  1  0  0  0  0
 13 22  2  0  0  0  0
 14 24  2  0  0  0  0
 14 25  1  0  0  0  0
 15 26  1  0  0  0  0
 16 26  1  0  0  0  0
 16 27  2  0  0  0  0
 16 28  1  0  0  0  0
 17 19  2  0  0  0  0
 17 34  1  0  0  0  0
 18 20  2  0  0  0  0
 18 35  1  0  0  0  0
 19 43  1  0  0  0  0
 20 36  1  0  0  0  0
 21 78  1  0  0  0  0
 22 79  1  0  0  0  0
 23 25  2  0  0  0  0
 23 78  1  0  0  0  0
 24 80  1  0  0  0  0
 25 81  1  0  0  0  0
 26 61  2  0  0  0  0
 27 62  1  0  0  0  0
 27 65  1  0  0  0  0
 28 66  1  0  0  0  0
 28 72  2  0  0  0  0
 29 44  1  0  0  0  0
 29 67  1  0  0  0  0
 29 73  2  0  0  0  0
 30 58  1  0  0  0  0
 30 63  1  0  0  0  0
 30 74  2  0  0  0  0
 31 51  1  0  0  0  0
 31 68  1  0  0  0  0
 31 75  2  0  0  0  0
 32 59  1  0  0  0  0
 32 69  1  0  0  0  0
 32 76  2  0  0  0  0
 33 64  1  0  0  0  0
 33 70  1  0  0  0  0
 33 77  2  0  0  0  0
 34 37  1  0  0  0  0
 35 44  1  0  0  0  0
 36 63  1  0  0  0  0
 37 39  1  0  0  0  0
 38 40  1  0  0  0  0
 38 41  1  0  0  0  0
 39 43  1  0  0  0  0
 40 45  1  0  0  0  0
 41 64  1  0  0  0  0
 42 45  1  0  0  0  0
 42 64  1  0  0  0  0
 43 67  1  0  0  0  0
 44 63  1  0  0  0  0
 45 62  1  0  0  0  0
 46 59  1  0  0  0  0
 47 60  1  0  0  0  0
 48 60  1  0  0  0  0
 49 60  1  0  0  0  0
 50 71  1  0  0  0  0
 51 52  1  0  0  0  0
 52 57  1  0  0  0  0
 53 54  1  0  0  0  0
 53 55  1  0  0  0  0
 54 56  1  0  0  0  0
 55 68  1  0  0  0  0
 56 70  1  0  0  0  0
 57 79  1  0  0  0  0
 58 60  1  0  0  0  0
 58 69  1  0  0  0  0
 59 71  1  0  0  0  0
 61 62  1  0  0  0  0
M  CHG  1  71   1
M  ISO  4  33 100  57 101  70 100  79 101
M  END
> <Batch ID>
0002

> <Smiles>
CNC(C)C(=O)NC(C(=O)N1Cc2cc([101O:1][101CH2:1]CCC(=O)NCCCC[100NH:0][100C:0](=O)N3CCCC(n4nc(-c5ccc(Oc6ccc(F)cc6F)cc5)c(C(N)=O)c4N)C3)ccc2CC1C(=O)NC1CCCc2ccccc21)C(C)(C)C

> <Shape>
0.210

> <Color>
0.082

> <Negative vol penalty>
0.000

$$$$

  -OEChem-04052315183D

 73 80  0     1  0  0  0  0  0999 V2000
  -28.7807  -11.4027   19.8413 C   0  0  0  0  0  0  0  0  0  0  0  0
  -28.8747  -12.6791   19.2960 C   0  0  0  0  0  0  0  0  0  0  0  0
  -25.9114  -28.9143   20.8188 C   0  0  0  0  0  0  0  0  0  0  0  0
  -25.2447  -26.5922   20.8056 C   0  0  0  0  0  0  0  0  0  0  0  0
  -27.5741  -10.9659   20.3863 C   0  0  0  0  0  0  0  0  0  0  0  0
  -27.7616  -13.5191   19.2943 C   0  0  0  0  0  0  0  0  0  0  0  0
  -28.8908  -18.2435   20.7261 C   0  0  0  0  0  0  0  0  0  0  0  0
  -24.5811  -29.2972   20.6476 C   0  0  0  0  0  0  0  0  0  0  0  0
  -23.9144  -26.9751   20.6344 C   0  0  0  0  0  0  0  0  0  0  0  0
  -29.5037  -19.0657   19.7816 C   0  0  0  0  0  0  0  0  0  0  0  0
  -20.2991  -27.3512   20.5553 C   0  0  0  0  0  0  0  0  0  0  0  0
  -19.3346  -26.7145   21.3363 C   0  0  0  0  0  0  0  0  0  0  0  0
  -27.3782  -20.1087   19.3193 C   0  0  0  0  0  0  0  0  0  0  0  0
  -20.4277  -27.5133   23.3374 C   0  0  0  0  0  0  0  0  0  0  0  0
  -26.2432  -27.5618   20.8978 C   0  0  0  0  0  0  0  0  0  0  0  0
  -28.2943  -26.9641   22.2918 C   0  0  0  0  0  0  0  0  0  0  0  0
  -26.4483  -11.8044   20.4000 C   0  0  0  0  0  0  0  0  0  0  0  0
  -27.5128  -18.3403   20.9669 C   0  0  0  0  0  0  0  0  0  0  0  0
  -26.5384  -13.0925   19.8388 C   0  0  0  0  0  0  0  0  0  0  0  0
  -26.7507  -19.2883   20.2692 C   0  0  0  0  0  0  0  0  0  0  0  0
  -23.5826  -28.3276   20.5554 C   0  0  0  0  0  0  0  0  0  0  0  0
  -28.7469  -19.9965   19.0760 C   0  0  0  0  0  0  0  0  0  0  0  0
  -21.3280  -28.0688   21.1653 C   0  0  0  0  0  0  0  0  0  0  0  0
  -19.3988  -26.7956   22.7274 C   0  0  0  0  0  0  0  0  0  0  0  0
  -21.3923  -28.1499   22.5564 C   0  0  0  0  0  0  0  0  0  0  0  0
  -27.6173  -27.1656   21.0741 C   0  0  0  0  0  0  0  0  0  0  0  0
  -29.5659  -26.6003   21.9215 C   0  0  0  0  0  0  0  0  0  0  0  0
  -27.8165  -27.0941   23.6374 C   0  0  0  0  0  0  0  0  0  0  0  0
  -25.0394  -16.3661   20.6693 C   0  0  0  0  0  0  0  0  0  0  0  0
  -23.4301  -18.7916   22.1009 C   0  0  0  0  0  0  0  0  0  0  0  0
  -23.2352  -22.1273   22.7949 C   0  0  0  0  0  0  0  0  0  0  0  0
  -31.8053  -24.0606   16.9833 C   0  0  0  0  0  0  0  0  0  0  0  0
  -25.1525  -11.2708   20.9575 C   0  0  0  0  0  0  0  0  0  0  0  0
  -26.8716  -17.4645   22.0082 C   0  0  0  0  0  0  0  0  0  0  0  0
  -25.2716  -19.4460   20.5052 C   0  0  0  0  0  0  0  0  0  0  0  0
  -24.1234  -12.3586   21.2544 C   0  0  0  0  0  0  0  0  0  0  0  0
  -32.7528  -27.1859   18.4013 C   0  0  0  0  0  0  0  0  0  0  0  0
  -24.0228  -13.3319   20.0842 C   0  0  0  0  0  0  0  0  0  0  0  0
  -31.6052  -27.5169   19.3570 C   0  0  0  0  0  0  0  0  0  0  0  0
  -32.2517  -26.4924   17.1365 C   0  0  0  0  0  0  0  0  0  0  0  0
  -30.2768  -25.6255   18.3290 C   0  0  0  0  0  0  0  0  0  0  0  0
  -25.3600  -14.0420   19.8407 C   0  0  1  0  0  0  0  0  0  0  0  0
  -25.3693  -17.2948   21.8034 C   0  0  1  0  0  0  0  0  0  0  0  0
  -30.7390  -26.2758   19.6442 C   0  0  2  0  0  0  0  0  0  0  0  0
  -21.7856  -23.8170   23.9528 C   0  0  0  0  0  0  0  0  0  0  0  0
  -21.4554  -18.6861   19.7772 C   0  0  0  0  0  0  0  0  0  0  0  0
  -20.6243  -20.9432   20.4723 C   0  0  0  0  0  0  0  0  0  0  0  0
  -20.4056  -19.0030   22.0249 C   0  0  0  0  0  0  0  0  0  0  0  0
  -25.3980  -22.8660   24.6752 C   0  0  0  0  0  0  0  0  0  0  0  0
  -31.2354  -21.6456   16.9357 C   0  0  0  0  0  0  0  0  0  0  0  0
  -30.7465  -20.6355   17.9583 C   0  0  0  0  0  0  0  0  0  1  0  0
  -22.6870  -20.0136   21.6176 C   0  0  1  0  0  0  0  0  0  0  0  0
  -22.9697  -22.8728   24.0904 C   0  0  2  0  0  0  0  0  0  0  0  0
  -21.3206  -19.6574   20.9669 C   0  0  0  0  0  0  0  0  0  0  0  0
  -28.3944  -26.9480   20.0099 N   0  0  0  0  0  0  0  0  0  0  0  0
  -29.5730  -26.6061   20.5576 N   0  0  0  0  0  0  0  0  0  0  0  0
  -24.6895  -18.5623   21.5289 N   0  0  0  0  0  0  0  0  0  0  0  0
  -31.4385  -25.3228   17.4784 N   0  0  0  0  0  0  0  0  0  0  0  0
  -30.6675  -26.2792   22.6327 N   0  0  0  0  0  0  0  0  0  0  0  0
  -26.4833  -27.4765   23.8389 N   0  0  0  0  0  0  0  0  0  0  0  0
  -25.5584  -15.0937   20.8148 N   0  0  0  0  0  0  0  0  0  0  0  0
  -22.5873  -20.9105   22.7639 N   0  0  0  0  0  0  0  0  0  0  0  0
  -30.9843  -23.0048   17.3602 N   0  0  0  0  0  0  0  0  0  0  0  0
  -24.1650  -23.6719   24.4825 N   0  3  0  0  0  0  0  0  0  0  0  0
  -28.5547  -26.8935   24.6315 O   0  0  0  0  0  0  0  0  0  0  0  0
  -24.3627  -16.7733   19.7323 O   0  0  0  0  0  0  0  0  0  0  0  0
  -22.9152  -18.0710   22.9596 O   0  0  0  0  0  0  0  0  0  0  0  0
  -23.9432  -22.5808   21.8985 O   0  0  0  0  0  0  0  0  0  0  0  0
  -32.7944  -23.8864   16.2633 O   0  0  0  0  0  0  0  0  0  0  0  0
  -22.2844  -28.7009   20.3885 O   0  0  0  0  0  0  0  0  0  0  0  0
  -29.3424  -20.7999   18.1530 O   0  0  0  0  0  0  0  0  0  1  0  0
  -18.4716  -26.1855   23.4772 F   0  0  0  0  0  0  0  0  0  0  0  0
  -22.3777  -28.8388   23.1481 F   0  0  0  0  0  0  0  0  0  0  0  0
  1  2  1  0  0  0  0
  1  5  2  0  0  0  0
  2  6  2  0  0  0  0
  3  8  2  0  0  0  0
  3 15  1  0  0  0  0
  4  9  1  0  0  0  0
  4 15  2  0  0  0  0
  5 17  1  0  0  0  0
  6 19  1  0  0  0  0
  7 10  2  0  0  0  0
  7 18  1  0  0  0  0
  8 21  1  0  0  0  0
  9 21  2  0  0  0  0
 10 22  1  0  0  0  0
 11 12  2  0  0  0  0
 11 23  1  0  0  0  0
 12 24  1  0  0  0  0
 13 20  1  0  0  0  0
 13 22  2  0  0  0  0
 14 24  2  0  0  0  0
 14 25  1  0  0  0  0
 15 26  1  0  0  0  0
 16 26  1  0  0  0  0
 16 27  2  0  0  0  0
 16 28  1  0  0  0  0
 17 19  2  0  0  0  0
 17 33  1  0  0  0  0
 18 20  2  0  0  0  0
 18 34  1  0  0  0  0
 19 42  1  0  0  0  0
 20 35  1  0  0  0  0
 21 70  1  0  0  0  0
 22 71  1  0  0  0  0
 23 25  2  0  0  0  0
 23 70  1  0  0  0  0
 24 72  1  0  0  0  0
 25 73  1  0  0  0  0
 26 55  2  0  0  0  0
 27 56  1  0  0  0  0
 27 59  1  0  0  0  0
 28 60  1  0  0  0  0
 28 65  2  0  0  0  0
 29 43  1  0  0  0  0
 29 61  1  0  0  0  0
 29 66  2  0  0  0  0
 30 52  1  0  0  0  0
 30 57  1  0  0  0  0
 30 67  2  0  0  0  0
 31 53  1  0  0  0  0
 31 62  1  0  0  0  0
 31 68  2  0  0  0  0
 32 58  1  0  0  0  0
 32 63  1  0  0  0  0
 32 69  2  0  0  0  0
 33 36  1  0  0  0  0
 34 43  1  0  0  0  0
 35 57  1  0  0  0  0
 36 38  1  0  0  0  0
 37 39  1  0  0  0  0
 37 40  1  0  0  0  0
 38 42  1  0  0  0  0
 39 44  1  0  0  0  0
 40 58  1  0  0  0  0
 41 44  1  0  0  0  0
 41 58  1  0  0  0  0
 42 61  1  0  0  0  0
 43 57  1  0  0  0  0
 44 56  1  0  0  0  0
 45 53  1  0  0  0  0
 46 54  1  0  0  0  0
 47 54  1  0  0  0  0
 48 54  1  0  0  0  0
 49 64  1  0  0  0  0
 50 51  1  0  0  0  0
 50 63  1  0  0  0  0
 51 71  1  0  0  0  0
 52 54  1  0  0  0  0
 52 62  1  0  0  0  0
 53 64  1  0  0  0  0
 55 56  1  0  0  0  0
M  CHG  1  64   1
M  ISO  4  32 100  51 101  63 100  71 101
M  END
> <Batch ID>
0002

> <Smiles>
CNC(C)C(=O)NC(C(=O)N1Cc2cc([101O:1][101CH2:1]C[100NH:0][100C:0](=O)N3CCCC(n4nc(-c5ccc(Oc6ccc(F)cc6F)cc5)c(C(N)=O)c4N)C3)ccc2CC1C(=O)NC1CCCc2ccccc21)C(C)(C)C

> <Shape>
0.226

> <Color>
0.066

> <Negative vol penalty>
0.000

$$$$

  -OEChem-04052315183D

 82 90  0     1  0  0  0  0  0999 V2000
  -25.3082  -37.8061   19.9633 C   0  0  0  0  0  0  0  0  0  0  0  0
  -25.9834  -36.6510   19.5822 C   0  0  0  0  0  0  0  0  0  0  0  0
  -29.5687  -19.2604   14.2743 C   0  0  0  0  0  0  0  0  0  0  0  0
  -26.1712  -11.6636   21.1217 C   0  0  0  0  0  0  0  0  0  0  0  0
  -25.9568  -12.1478   18.7645 C   0  0  0  0  0  0  0  0  0  0  0  0
  -24.6906  -37.8714   21.2116 C   0  0  0  0  0  0  0  0  0  0  0  0
  -26.0423  -35.5608   20.4498 C   0  0  0  0  0  0  0  0  0  0  0  0
  -26.0211  -29.6314   18.9177 C   0  0  0  0  0  0  0  0  0  0  0  0
  -29.8724  -18.3902   15.3212 C   0  0  0  0  0  0  0  0  0  0  0  0
  -29.6734  -20.6389   14.4604 C   0  0  0  0  0  0  0  0  0  0  0  0
  -24.8263  -11.2967   21.1687 C   0  0  0  0  0  0  0  0  0  0  0  0
  -24.6119  -11.7808   18.8114 C   0  0  0  0  0  0  0  0  0  0  0  0
  -27.0447  -28.6955   18.7764 C   0  0  0  0  0  0  0  0  0  0  0  0
  -22.9451   -8.6152   20.3299 C   0  0  0  0  0  0  0  0  0  0  0  0
  -22.6161   -7.4444   21.0129 C   0  0  0  0  0  0  0  0  0  0  0  0
  -26.6458  -27.9280   21.0283 C   0  0  0  0  0  0  0  0  0  0  0  0
  -30.3853  -20.2769   16.7406 C   0  0  0  0  0  0  0  0  0  0  0  0
  -21.2114   -8.7143   22.5132 C   0  0  0  0  0  0  0  0  0  0  0  0
  -26.7365  -12.0892   19.9196 C   0  0  0  0  0  0  0  0  0  0  0  0
  -29.2259  -11.6340   19.5987 C   0  0  0  0  0  0  0  0  0  0  0  0
  -24.7337  -36.7780   22.0910 C   0  0  0  0  0  0  0  0  0  0  0  0
  -25.3082  -29.7302   20.1213 C   0  0  0  0  0  0  0  0  0  0  0  0
  -25.4259  -35.6121   21.7115 C   0  0  0  0  0  0  0  0  0  0  0  0
  -25.6119  -28.8643   21.1815 C   0  0  0  0  0  0  0  0  0  0  0  0
  -30.2807  -18.8984   16.5544 C   0  0  0  0  0  0  0  0  0  0  0  0
  -24.0466  -11.3553   20.0136 C   0  0  0  0  0  0  0  0  0  0  0  0
  -27.3591  -27.8455   19.8327 C   0  0  0  0  0  0  0  0  0  0  0  0
  -30.0817  -21.1471   15.6936 C   0  0  0  0  0  0  0  0  0  0  0  0
  -22.4073   -9.8356   20.7386 C   0  0  0  0  0  0  0  0  0  0  0  0
  -21.7493   -7.4939   22.1045 C   0  0  0  0  0  0  0  0  0  0  0  0
  -21.5405   -9.8852   21.8303 C   0  0  0  0  0  0  0  0  0  0  0  0
  -28.1255  -12.4689   19.8705 C   0  0  0  0  0  0  0  0  0  0  0  0
  -30.3152  -12.4676   19.6700 C   0  0  0  0  0  0  0  0  0  0  0  0
  -29.2604  -10.2305   19.3078 C   0  0  0  0  0  0  0  0  0  0  0  0
  -24.8963  -32.0036   22.3043 C   0  0  0  0  0  0  0  0  0  0  0  0
  -22.7894  -29.8779   23.5552 C   0  0  0  0  0  0  0  0  0  0  0  0
  -21.7843  -26.6306   23.8569 C   0  0  0  0  0  0  0  0  0  0  0  0
  -31.0089  -18.3529   18.9035 C   0  0  0  0  0  0  0  0  0  0  0  0
  -24.0915  -36.9128   23.4489 C   0  0  0  0  0  0  0  0  0  0  0  0
  -24.1890  -30.7270   20.2486 C   0  0  0  0  0  0  0  0  0  0  0  0
  -24.8630  -28.9163   22.4872 C   0  0  0  0  0  0  0  0  0  0  0  0
  -23.8811  -35.5776   24.1584 C   0  0  0  0  0  0  0  0  0  0  0  0
  -31.8318  -16.4728   21.8130 C   0  0  0  0  0  0  0  0  0  0  0  0
  -25.1417  -34.7230   24.0726 C   0  0  0  0  0  0  0  0  0  0  0  0
  -31.0798  -15.1544   21.6174 C   0  0  0  0  0  0  0  0  0  0  0  0
  -31.0316  -17.6650   21.2913 C   0  0  0  0  0  0  0  0  0  0  0  0
  -29.8138  -16.2223   19.7086 C   0  0  0  0  0  0  0  0  0  0  0  0
  -25.4908  -34.3997   22.6148 C   0  0  1  0  0  0  0  0  0  0  0  0
  -23.8719  -31.0877   21.6966 C   0  0  1  0  0  0  0  0  0  0  0  0
  -30.6079  -14.9856   20.1599 C   0  0  2  0  0  0  0  0  0  0  0  0
  -20.0522  -25.2004   24.9759 C   0  0  0  0  0  0  0  0  0  0  0  0
  -24.2801  -30.1490   26.2036 C   0  0  0  0  0  0  0  0  0  0  0  0
  -23.1462  -28.0548   26.9762 C   0  0  0  0  0  0  0  0  0  0  0  0
  -21.7892  -30.0704   26.4119 C   0  0  0  0  0  0  0  0  0  0  0  0
  -20.7179  -25.6886   21.2618 C   0  0  0  0  0  0  0  0  0  0  0  0
  -29.1101  -24.9878   18.4780 C   0  0  0  0  0  0  0  0  0  0  0  0
  -29.3982  -24.4053   17.0987 C   0  0  0  0  0  0  0  0  0  0  0  0
  -28.5965  -26.4187   18.3874 C   0  0  0  0  0  0  0  0  0  1  0  0
  -29.9521  -22.9905   17.1905 C   0  0  0  0  0  0  0  0  0  0  0  0
  -22.8758  -28.7472   24.5516 C   0  0  1  0  0  0  0  0  0  0  0  0
  -20.4179  -25.9825   23.7240 C   0  0  2  0  0  0  0  0  0  0  0  0
  -23.0384  -29.2555   26.0120 C   0  0  0  0  0  0  0  0  0  0  0  0
  -28.4830  -13.7357   20.0977 N   0  0  0  0  0  0  0  0  0  0  0  0
  -29.8204  -13.7029   19.9688 N   0  0  0  0  0  0  0  0  0  0  0  0
  -23.7815  -29.9121   22.5651 N   0  0  0  0  0  0  0  0  0  0  0  0
  -30.6222  -17.4361   19.9039 N   0  0  0  0  0  0  0  0  0  0  0  0
  -31.6385  -12.2571   19.5056 N   0  0  0  0  0  0  0  0  0  0  0  0
  -28.0497   -9.5253   19.2738 N   0  0  0  0  0  0  0  0  0  0  0  0
  -30.5894  -18.0140   17.6175 N   0  0  0  0  0  0  0  0  0  0  0  0
  -24.6348  -33.3467   22.1117 N   0  0  0  0  0  0  0  0  0  0  0  0
  -21.6933  -27.9208   24.3348 N   0  0  0  0  0  0  0  0  0  0  0  0
  -20.3987  -25.0477   22.5635 N   0  3  0  0  0  0  0  0  0  0  0  0
  -30.3345   -9.6166   19.1007 O   0  0  0  0  0  0  0  0  0  0  0  0
  -25.8524  -31.5271   22.9048 O   0  0  0  0  0  0  0  0  0  0  0  0
  -21.8711  -30.6965   23.6474 O   0  0  0  0  0  0  0  0  0  0  0  0
  -22.8281  -26.0490   23.5693 O   0  0  0  0  0  0  0  0  0  0  0  0
  -31.6871  -19.3499   19.1642 O   0  0  0  0  0  0  0  0  0  0  0  0
  -22.7343  -10.9971   20.0590 O   0  0  0  0  0  0  0  0  0  0  0  0
  -28.3582  -26.9315   19.6976 O   0  0  0  0  0  0  0  0  0  1  0  0
  -30.1844  -22.5016   15.8767 O   0  0  0  0  0  0  0  0  0  0  0  0
  -21.4322   -6.3692   22.7593 F   0  0  0  0  0  0  0  0  0  0  0  0
  -21.0197  -11.0545   22.2268 F   0  0  0  0  0  0  0  0  0  0  0  0
  1  2  1  0  0  0  0
  1  6  2  0  0  0  0
  2  7  2  0  0  0  0
  3  9  1  0  0  0  0
  3 10  2  0  0  0  0
  4 11  2  0  0  0  0
  4 19  1  0  0  0  0
  5 12  1  0  0  0  0
  5 19  2  0  0  0  0
  6 21  1  0  0  0  0
  7 23  1  0  0  0  0
  8 13  2  0  0  0  0
  8 22  1  0  0  0  0
  9 25  2  0  0  0  0
 10 28  1  0  0  0  0
 11 26  1  0  0  0  0
 12 26  2  0  0  0  0
 13 27  1  0  0  0  0
 14 15  2  0  0  0  0
 14 29  1  0  0  0  0
 15 30  1  0  0  0  0
 16 24  1  0  0  0  0
 16 27  2  0  0  0  0
 17 25  1  0  0  0  0
 17 28  2  0  0  0  0
 18 30  2  0  0  0  0
 18 31  1  0  0  0  0
 19 32  1  0  0  0  0
 20 32  1  0  0  0  0
 20 33  2  0  0  0  0
 20 34  1  0  0  0  0
 21 23  2  0  0  0  0
 21 39  1  0  0  0  0
 22 24  2  0  0  0  0
 22 40  1  0  0  0  0
 23 48  1  0  0  0  0
 24 41  1  0  0  0  0
 25 69  1  0  0  0  0
 26 78  1  0  0  0  0
 27 79  1  0  0  0  0
 28 80  1  0  0  0  0
 29 31  2  0  0  0  0
 29 78  1  0  0  0  0
 30 81  1  0  0  0  0
 31 82  1  0  0  0  0
 32 63  2  0  0  0  0
 33 64  1  0  0  0  0
 33 67  1  0  0  0  0
 34 68  1  0  0  0  0
 34 73  2  0  0  0  0
 35 49  1  0  0  0  0
 35 70  1  0  0  0  0
 35 74  2  0  0  0  0
 36 60  1  0  0  0  0
 36 65  1  0  0  0  0
 36 75  2  0  0  0  0
 37 61  1  0  0  0  0
 37 71  1  0  0  0  0
 37 76  2  0  0  0  0
 38 66  1  0  0  0  0
 38 69  1  0  0  0  0
 38 77  2  0  0  0  0
 39 42  1  0  0  0  0
 40 49  1  0  0  0  0
 41 65  1  0  0  0  0
 42 44  1  0  0  0  0
 43 45  1  0  0  0  0
 43 46  1  0  0  0  0
 44 48  1  0  0  0  0
 45 50  1  0  0  0  0
 46 66  1  0  0  0  0
 47 50  1  0  0  0  0
 47 66  1  0  0  0  0
 48 70  1  0  0  0  0
 49 65  1  0  0  0  0
 50 64  1  0  0  0  0
 51 61  1  0  0  0  0
 52 62  1  0  0  0  0
 53 62  1  0  0  0  0
 54 62  1  0  0  0  0
 55 72  1  0  0  0  0
 56 57  1  0  0  0  0
 56 58  1  0  0  0  0
 57 59  1  0  0  0  0
 58 79  1  0  0  0  0
 59 80  1  0  0  0  0
 60 62  1  0  0  0  0
 60 71  1  0  0  0  0
 61 72  1  0  0  0  0
 63 64  1  0  0  0  0
M  CHG  1  72   1
M  ISO  4  38 100  58 101  69 100  79 101
M  END
> <Batch ID>
0002

> <Smiles>
CNC(C)C(=O)NC(C(=O)N1Cc2cc([101O:1][101CH2:1]CCCOc3cccc([100NH:0][100C:0](=O)N4CCCC(n5nc(-c6ccc(Oc7ccc(F)cc7F)cc6)c(C(N)=O)c5N)C4)c3)ccc2CC1C(=O)NC1CCCc2ccccc21)C(C)(C)C

> <Shape>
0.287

> <Color>
0.073

> <Negative vol penalty>
0.000

$$$$

  -OEChem-04052315183D

 81 89  0     1  0  0  0  0  0999 V2000
  -16.6897  -29.4611   23.1319 C   0  0  0  0  0  0  0  0  0  0  0  0
  -17.6537  -29.5874   22.1369 C   0  0  0  0  0  0  0  0  0  0  0  0
  -26.5850  -12.6865   21.9931 C   0  0  0  0  0  0  0  0  0  0  0  0
  -25.7693  -14.3575   20.4506 C   0  0  0  0  0  0  0  0  0  0  0  0
  -17.0736  -29.1677   24.4398 C   0  0  0  0  0  0  0  0  0  0  0  0
  -19.0025  -29.4214   22.4495 C   0  0  0  0  0  0  0  0  0  0  0  0
  -25.1332  -27.0212   19.6262 C   0  0  0  0  0  0  0  0  0  0  0  0
  -28.8220  -22.0323   20.5317 C   0  0  0  0  0  0  0  0  0  0  0  0
  -30.6671  -22.6487   21.9643 C   0  0  0  0  0  0  0  0  0  0  0  0
  -25.3403  -12.0575   21.9700 C   0  0  0  0  0  0  0  0  0  0  0  0
  -24.5245  -13.7284   20.4274 C   0  0  0  0  0  0  0  0  0  0  0  0
  -26.4510  -27.4234   19.4131 C   0  0  0  0  0  0  0  0  0  0  0  0
  -29.1192  -23.1028   19.6883 C   0  0  0  0  0  0  0  0  0  0  0  0
  -30.9644  -23.7192   21.1209 C   0  0  0  0  0  0  0  0  0  0  0  0
  -22.4870   -9.8060   22.0365 C   0  0  0  0  0  0  0  0  0  0  0  0
  -22.4646   -8.4169   21.9129 C   0  0  0  0  0  0  0  0  0  0  0  0
  -26.9909  -26.8404   21.6907 C   0  0  0  0  0  0  0  0  0  0  0  0
  -23.6152   -8.5868   19.7952 C   0  0  0  0  0  0  0  0  0  0  0  0
  -26.7995  -13.8366   21.2335 C   0  0  0  0  0  0  0  0  0  0  0  0
  -29.1797  -14.2381   20.4083 C   0  0  0  0  0  0  0  0  0  0  0  0
  -18.4270  -28.9886   24.7666 C   0  0  0  0  0  0  0  0  0  0  0  0
  -24.7311  -26.5350   20.8786 C   0  0  0  0  0  0  0  0  0  0  0  0
  -19.4050  -29.1267   23.7632 C   0  0  0  0  0  0  0  0  0  0  0  0
  -25.6680  -26.4303   21.9165 C   0  0  0  0  0  0  0  0  0  0  0  0
  -29.5959  -21.8053   21.6698 C   0  0  0  0  0  0  0  0  0  0  0  0
  -24.3101  -12.5784   21.1871 C   0  0  0  0  0  0  0  0  0  0  0  0
  -30.1904  -23.9462   19.9829 C   0  0  0  0  0  0  0  0  0  0  0  0
  -27.3794  -27.3357   20.4462 C   0  0  0  0  0  0  0  0  0  0  0  0
  -23.0734  -10.5856   21.0395 C   0  0  0  0  0  0  0  0  0  0  0  0
  -23.0288   -7.8072   20.7923 C   0  0  0  0  0  0  0  0  0  0  0  0
  -23.6375   -9.9760   19.9189 C   0  0  0  0  0  0  0  0  0  0  0  0
  -28.0849  -14.4872   21.2574 C   0  0  0  0  0  0  0  0  0  0  0  0
  -30.1515  -15.1091   20.8365 C   0  0  0  0  0  0  0  0  0  0  0  0
  -29.3069  -13.3031   19.3288 C   0  0  0  0  0  0  0  0  0  0  0  0
  -22.6340  -27.4660   23.0784 C   0  0  0  0  0  0  0  0  0  0  0  0
  -23.4563  -24.6625   24.4878 C   0  0  0  0  0  0  0  0  0  0  0  0
  -25.7688  -22.1825   24.8734 C   0  0  0  0  0  0  0  0  0  0  0  0
  -29.9615  -20.3528   23.6953 C   0  0  0  0  0  0  0  0  0  0  0  0
  -18.7973  -28.7192   26.2036 C   0  0  0  0  0  0  0  0  0  0  0  0
  -23.3122  -26.0803   21.0845 C   0  0  0  0  0  0  0  0  0  0  0  0
  -25.2918  -25.8963   23.2735 C   0  0  0  0  0  0  0  0  0  0  0  0
  -20.2180  -28.1885   26.3773 C   0  0  0  0  0  0  0  0  0  0  0  0
  -31.6554  -17.4075   24.7596 C   0  0  0  0  0  0  0  0  0  0  0  0
  -21.2010  -29.0149   25.5542 C   0  0  0  0  0  0  0  0  0  0  0  0
  -31.0359  -16.3026   23.9007 C   0  0  0  0  0  0  0  0  0  0  0  0
  -30.6229  -18.4591   25.1620 C   0  0  0  0  0  0  0  0  0  0  0  0
  -29.2429  -17.9355   23.1896 C   0  0  0  0  0  0  0  0  0  0  0  0
  -20.8762  -28.9294   24.0580 C   0  0  1  0  0  0  0  0  0  0  0  0
  -22.8907  -26.0828   22.5507 C   0  0  1  0  0  0  0  0  0  0  0  0
  -30.2581  -16.8873   22.7054 C   0  0  2  0  0  0  0  0  0  0  0  0
  -26.7383  -20.0040   25.6554 C   0  0  0  0  0  0  0  0  0  0  0  0
  -24.0606  -26.2563   27.0185 C   0  0  0  0  0  0  0  0  0  0  0  0
  -25.3278  -24.2761   27.8794 C   0  0  0  0  0  0  0  0  0  0  0  0
  -22.8855  -24.0837   27.4097 C   0  0  0  0  0  0  0  0  0  0  0  0
  -24.6824  -20.7270   22.5367 C   0  0  0  0  0  0  0  0  0  0  0  0
  -30.6908  -27.3904   18.9728 C   0  0  0  0  0  0  0  0  0  0  0  0
  -31.0716  -26.1434   19.7552 C   0  0  0  0  0  0  0  0  0  0  0  0
  -29.1843  -27.5901   18.9186 C   0  0  0  0  0  0  0  0  0  1  0  0
  -24.5109  -24.2332   25.4790 C   0  0  1  0  0  0  0  0  0  0  0  0
  -25.6386  -20.6703   24.8434 C   0  0  2  0  0  0  0  0  0  0  0  0
  -24.2031  -24.7242   26.9218 C   0  0  0  0  0  0  0  0  0  0  0  0
  -28.3369  -15.4416   22.1572 N   0  0  0  0  0  0  0  0  0  0  0  0
  -29.6013  -15.7998   21.8759 N   0  0  0  0  0  0  0  0  0  0  0  0
  -23.8910  -25.4702   23.4273 N   0  0  0  0  0  0  0  0  0  0  0  0
  -29.9288  -18.9709   23.9784 N   0  0  0  0  0  0  0  0  0  0  0  0
  -31.4146  -15.3439   20.4217 N   0  0  0  0  0  0  0  0  0  0  0  0
  -28.2117  -12.4841   19.0219 N   0  0  0  0  0  0  0  0  0  0  0  0
  -29.2941  -20.7179   22.5266 N   0  0  0  0  0  0  0  0  0  0  0  0
  -21.3380  -27.6713   23.5117 N   0  0  0  0  0  0  0  0  0  0  0  0
  -24.6244  -22.7842   25.3524 N   0  0  0  0  0  0  0  0  0  0  0  0
  -25.7210  -20.1710   23.4417 N   0  3  0  0  0  0  0  0  0  0  0  0
  -30.3659  -13.1856   18.6670 O   0  0  0  0  0  0  0  0  0  0  0  0
  -23.5446  -28.2859   23.0928 O   0  0  0  0  0  0  0  0  0  0  0  0
  -22.2912  -24.2890   24.6446 O   0  0  0  0  0  0  0  0  0  0  0  0
  -26.7855  -22.7708   24.5118 O   0  0  0  0  0  0  0  0  0  0  0  0
  -30.5621  -21.1498   24.4207 O   0  0  0  0  0  0  0  0  0  0  0  0
  -23.0954  -11.9646   21.1640 O   0  0  0  0  0  0  0  0  0  0  0  0
  -30.4825  -24.9982   19.1542 O   0  0  0  0  0  0  0  0  0  0  0  0
  -28.6662  -27.7281   20.2411 O   0  0  0  0  0  0  0  0  0  1  0  0
  -23.0086   -6.4731   20.6744 F   0  0  0  0  0  0  0  0  0  0  0  0
  -24.2034  -10.7197   18.9583 F   0  0  0  0  0  0  0  0  0  0  0  0
  1  2  1  0  0  0  0
  1  5  2  0  0  0  0
  2  6  2  0  0  0  0
  3 10  2  0  0  0  0
  3 19  1  0  0  0  0
  4 11  1  0  0  0  0
  4 19  2  0  0  0  0
  5 21  1  0  0  0  0
  6 23  1  0  0  0  0
  7 12  2  0  0  0  0
  7 22  1  0  0  0  0
  8 13  2  0  0  0  0
  8 25  1  0  0  0  0
  9 14  1  0  0  0  0
  9 25  2  0  0  0  0
 10 26  1  0  0  0  0
 11 26  2  0  0  0  0
 12 28  1  0  0  0  0
 13 27  1  0  0  0  0
 14 27  2  0  0  0  0
 15 16  2  0  0  0  0
 15 29  1  0  0  0  0
 16 30  1  0  0  0  0
 17 24  1  0  0  0  0
 17 28  2  0  0  0  0
 18 30  2  0  0  0  0
 18 31  1  0  0  0  0
 19 32  1  0  0  0  0
 20 32  1  0  0  0  0
 20 33  2  0  0  0  0
 20 34  1  0  0  0  0
 21 23  2  0  0  0  0
 21 39  1  0  0  0  0
 22 24  2  0  0  0  0
 22 40  1  0  0  0  0
 23 48  1  0  0  0  0
 24 41  1  0  0  0  0
 25 68  1  0  0  0  0
 26 77  1  0  0  0  0
 27 78  1  0  0  0  0
 28 79  1  0  0  0  0
 29 31  2  0  0  0  0
 29 77  1  0  0  0  0
 30 80  1  0  0  0  0
 31 81  1  0  0  0  0
 32 62  2  0  0  0  0
 33 63  1  0  0  0  0
 33 66  1  0  0  0  0
 34 67  1  0  0  0  0
 34 72  2  0  0  0  0
 35 49  1  0  0  0  0
 35 69  1  0  0  0  0
 35 73  2  0  0  0  0
 36 59  1  0  0  0  0
 36 64  1  0  0  0  0
 36 74  2  0  0  0  0
 37 60  1  0  0  0  0
 37 70  1  0  0  0  0
 37 75  2  0  0  0  0
 38 65  1  0  0  0  0
 38 68  1  0  0  0  0
 38 76  2  0  0  0  0
 39 42  1  0  0  0  0
 40 49  1  0  0  0  0
 41 64  1  0  0  0  0
 42 44  1  0  0  0  0
 43 45  1  0  0  0  0
 43 46  1  0  0  0  0
 44 48  1  0  0  0  0
 45 50  1  0  0  0  0
 46 65  1  0  0  0  0
 47 50  1  0  0  0  0
 47 65  1  0  0  0  0
 48 69  1  0  0  0  0
 49 64  1  0  0  0  0
 50 63  1  0  0  0  0
 51 60  1  0  0  0  0
 52 61  1  0  0  0  0
 53 61  1  0  0  0  0
 54 61  1  0  0  0  0
 55 71  1  0  0  0  0
 56 57  1  0  0  0  0
 56 58  1  0  0  0  0
 57 78  1  0  0  0  0
 58 79  1  0  0  0  0
 59 61  1  0  0  0  0
 59 70  1  0  0  0  0
 60 71  1  0  0  0  0
 62 63  1  0  0  0  0
M  CHG  1  71   1
M  ISO  4  38 100  58 101  68 100  79 101
M  END
> <Batch ID>
0002

> <Smiles>
CNC(C)C(=O)NC(C(=O)N1Cc2cc([101O:1][101CH2:1]CCOc3ccc([100NH:0][100C:0](=O)N4CCCC(n5nc(-c6ccc(Oc7ccc(F)cc7F)cc6)c(C(N)=O)c5N)C4)cc3)ccc2CC1C(=O)NC1CCCc2ccccc21)C(C)(C)C

> <Shape>
0.239

> <Color>
0.096

> <Negative vol penalty>
0.000

$$$$

  -OEChem-04052315183D

 81 89  0     1  0  0  0  0  0999 V2000
  -20.2216  -31.0998   21.4600 C   0  0  0  0  0  0  0  0  0  0  0  0
  -21.5008  -30.5660   21.5786 C   0  0  0  0  0  0  0  0  0  0  0  0
  -32.5832  -21.6695   17.2619 C   0  0  0  0  0  0  0  0  0  0  0  0
  -26.4571  -12.3297   21.5605 C   0  0  0  0  0  0  0  0  0  0  0  0
  -25.5108  -13.7965   19.8902 C   0  0  0  0  0  0  0  0  0  0  0  0
  -19.1076  -30.2989   21.7078 C   0  0  0  0  0  0  0  0  0  0  0  0
  -21.6668  -29.2312   21.9462 C   0  0  0  0  0  0  0  0  0  0  0  0
  -25.1228  -26.8507   19.1118 C   0  0  0  0  0  0  0  0  0  0  0  0
  -32.5687  -23.0206   17.6081 C   0  0  0  0  0  0  0  0  0  0  0  0
  -32.1515  -20.7101   18.1778 C   0  0  0  0  0  0  0  0  0  0  0  0
  -25.2875  -11.5696   21.5557 C   0  0  0  0  0  0  0  0  0  0  0  0
  -24.3413  -13.0365   19.8853 C   0  0  0  0  0  0  0  0  0  0  0  0
  -26.4639  -27.0913   19.4074 C   0  0  0  0  0  0  0  0  0  0  0  0
  -20.9691  -11.6942   19.6945 C   0  0  0  0  0  0  0  0  0  0  0  0
  -19.7525  -12.3762   19.7175 C   0  0  0  0  0  0  0  0  0  0  0  0
  -26.5640  -25.0086   20.6204 C   0  0  0  0  0  0  0  0  0  0  0  0
  -31.6909  -22.4530   19.7863 C   0  0  0  0  0  0  0  0  0  0  0  0
  -20.3592  -13.3873   21.8262 C   0  0  0  0  0  0  0  0  0  0  0  0
  -26.5687  -13.4432   20.7278 C   0  0  0  0  0  0  0  0  0  0  0  0
  -28.9145  -14.0438   19.9252 C   0  0  0  0  0  0  0  0  0  0  0  0
  -19.2597  -28.9510   22.0693 C   0  0  0  0  0  0  0  0  0  0  0  0
  -24.4882  -25.6905   19.5784 C   0  0  0  0  0  0  0  0  0  0  0  0
  -20.5538  -28.4119   22.2005 C   0  0  0  0  0  0  0  0  0  0  0  0
  -25.2155  -24.7544   20.3272 C   0  0  0  0  0  0  0  0  0  0  0  0
  -32.1225  -23.4124   18.8703 C   0  0  0  0  0  0  0  0  0  0  0  0
  -31.7054  -21.1019   19.4400 C   0  0  0  0  0  0  0  0  0  0  0  0
  -24.2296  -11.9230   20.7180 C   0  0  0  0  0  0  0  0  0  0  0  0
  -27.1840  -26.1716   20.1642 C   0  0  0  0  0  0  0  0  0  0  0  0
  -21.8806  -11.8586   20.7375 C   0  0  0  0  0  0  0  0  0  0  0  0
  -19.4476  -13.2227   20.7833 C   0  0  0  0  0  0  0  0  0  0  0  0
  -21.5757  -12.7052   21.8033 C   0  0  0  0  0  0  0  0  0  0  0  0
  -27.7764  -14.2290   20.7328 C   0  0  0  0  0  0  0  0  0  0  0  0
  -29.7760  -15.0412   20.3119 C   0  0  0  0  0  0  0  0  0  0  0  0
  -29.1701  -13.0584   18.9156 C   0  0  0  0  0  0  0  0  0  0  0  0
  -22.0369  -25.0982   21.5133 C   0  0  0  0  0  0  0  0  0  0  0  0
  -22.5375  -22.0346   20.5718 C   0  0  0  0  0  0  0  0  0  0  0  0
  -24.6968  -19.7008   19.3319 C   0  0  0  0  0  0  0  0  0  0  0  0
  -30.7932  -20.3461   21.6633 C   0  0  0  0  0  0  0  0  0  0  0  0
  -18.0268  -28.1374   22.3733 C   0  0  0  0  0  0  0  0  0  0  0  0
  -23.0483  -25.4328   19.2283 C   0  0  0  0  0  0  0  0  0  0  0  0
  -24.5862  -23.4835   20.8346 C   0  0  0  0  0  0  0  0  0  0  0  0
  -18.2800  -26.6321   22.3933 C   0  0  0  0  0  0  0  0  0  0  0  0
  -29.5831  -18.2176   24.2483 C   0  0  0  0  0  0  0  0  0  0  0  0
  -19.5345  -26.3125   23.2001 C   0  0  0  0  0  0  0  0  0  0  0  0
  -29.0988  -16.9749   23.4977 C   0  0  0  0  0  0  0  0  0  0  0  0
  -29.3048  -19.4984   23.4636 C   0  0  0  0  0  0  0  0  0  0  0  0
  -29.3242  -18.2607   21.3337 C   0  0  0  0  0  0  0  0  0  0  0  0
  -20.7741  -26.9618   22.5730 C   0  0  1  0  0  0  0  0  0  0  0  0
  -22.3634  -24.4663   20.1897 C   0  0  1  0  0  0  0  0  0  0  0  0
  -29.6412  -16.9407   22.0554 C   0  0  2  0  0  0  0  0  0  0  0  0
  -24.8282  -17.2742   18.7062 C   0  0  0  0  0  0  0  0  0  0  0  0
  -22.6908  -21.2840   23.5253 C   0  0  0  0  0  0  0  0  0  0  0  0
  -23.7436  -19.1158   22.8479 C   0  0  0  0  0  0  0  0  0  0  0  0
  -21.4272  -19.6625   22.1011 C   0  0  0  0  0  0  0  0  0  0  0  0
  -25.3205  -20.3423   16.5108 C   0  0  0  0  0  0  0  0  0  0  0  0
  -32.1071  -24.8660   19.2422 C   0  0  0  0  0  0  0  0  0  0  0  0
  -29.2439  -27.1614   19.5065 C   0  0  0  0  0  0  0  0  0  1  0  0
  -30.6930  -26.7169   19.5540 C   0  0  0  0  0  0  0  0  0  0  0  0
  -23.3835  -20.8878   21.0699 C   0  0  1  0  0  0  0  0  0  0  0  0
  -24.5489  -18.6854   18.2131 C   0  0  2  0  0  0  0  0  0  0  0  0
  -22.8229  -20.2623   22.3783 C   0  0  0  0  0  0  0  0  0  0  0  0
  -27.9006  -15.2627   21.5695 N   0  0  0  0  0  0  0  0  0  0  0  0
  -29.1269  -15.7359   21.2898 N   0  0  0  0  0  0  0  0  0  0  0  0
  -23.1741  -23.2798   20.4714 N   0  0  0  0  0  0  0  0  0  0  0  0
  -29.8510  -19.3950   22.1087 N   0  0  0  0  0  0  0  0  0  0  0  0
  -31.0178  -15.3830   19.9075 N   0  0  0  0  0  0  0  0  0  0  0  0
  -28.1772  -12.1072   18.6438 N   0  0  0  0  0  0  0  0  0  0  0  0
  -31.2663  -20.1271   20.3699 N   0  0  0  0  0  0  0  0  0  0  0  0
  -21.2135  -26.2040   21.4210 N   0  0  0  0  0  0  0  0  0  0  0  0
  -23.4940  -19.9492   19.9584 N   0  0  0  0  0  0  0  0  0  0  0  0
  -25.4979  -18.9927   17.1059 N   0  3  0  0  0  0  0  0  0  0  0  0
  -30.2535  -13.0123   18.2850 O   0  0  0  0  0  0  0  0  0  0  0  0
  -22.4968  -24.6171   22.5423 O   0  0  0  0  0  0  0  0  0  0  0  0
  -21.3574  -21.8315   20.2758 O   0  0  0  0  0  0  0  0  0  0  0  0
  -25.7726  -20.2188   19.6233 O   0  0  0  0  0  0  0  0  0  0  0  0
  -31.1742  -21.2701   22.3866 O   0  0  0  0  0  0  0  0  0  0  0  0
  -23.0883  -11.1814   20.7129 O   0  0  0  0  0  0  0  0  0  0  0  0
  -28.4929  -26.4043   20.4547 O   0  0  0  0  0  0  0  0  0  1  0  0
  -30.7678  -25.3391   19.2084 O   0  0  0  0  0  0  0  0  0  0  0  0
  -18.2800  -13.8788   20.8044 F   0  0  0  0  0  0  0  0  0  0  0  0
  -22.4479  -12.8681   22.8075 F   0  0  0  0  0  0  0  0  0  0  0  0
  1  2  1  0  0  0  0
  1  6  2  0  0  0  0
  2  7  2  0  0  0  0
  3  9  2  0  0  0  0
  3 10  1  0  0  0  0
  4 11  2  0  0  0  0
  4 19  1  0  0  0  0
  5 12  1  0  0  0  0
  5 19  2  0  0  0  0
  6 21  1  0  0  0  0
  7 23  1  0  0  0  0
  8 13  2  0  0  0  0
  8 22  1  0  0  0  0
  9 25  1  0  0  0  0
 10 26  2  0  0  0  0
 11 27  1  0  0  0  0
 12 27  2  0  0  0  0
 13 28  1  0  0  0  0
 14 15  2  0  0  0  0
 14 29  1  0  0  0  0
 15 30  1  0  0  0  0
 16 24  1  0  0  0  0
 16 28  2  0  0  0  0
 17 25  2  0  0  0  0
 17 26  1  0  0  0  0
 18 30  2  0  0  0  0
 18 31  1  0  0  0  0
 19 32  1  0  0  0  0
 20 32  1  0  0  0  0
 20 33  2  0  0  0  0
 20 34  1  0  0  0  0
 21 23  2  0  0  0  0
 21 39  1  0  0  0  0
 22 24  2  0  0  0  0
 22 40  1  0  0  0  0
 23 48  1  0  0  0  0
 24 41  1  0  0  0  0
 25 56  1  0  0  0  0
 26 68  1  0  0  0  0
 27 77  1  0  0  0  0
 28 78  1  0  0  0  0
 29 31  2  0  0  0  0
 29 77  1  0  0  0  0
 30 80  1  0  0  0  0
 31 81  1  0  0  0  0
 32 62  2  0  0  0  0
 33 63  1  0  0  0  0
 33 66  1  0  0  0  0
 34 67  1  0  0  0  0
 34 72  2  0  0  0  0
 35 49  1  0  0  0  0
 35 69  1  0  0  0  0
 35 73  2  0  0  0  0
 36 59  1  0  0  0  0
 36 64  1  0  0  0  0
 36 74  2  0  0  0  0
 37 60  1  0  0  0  0
 37 70  1  0  0  0  0
 37 75  2  0  0  0  0
 38 65  1  0  0  0  0
 38 68  1  0  0  0  0
 38 76  2  0  0  0  0
 39 42  1  0  0  0  0
 40 49  1  0  0  0  0
 41 64  1  0  0  0  0
 42 44  1  0  0  0  0
 43 45  1  0  0  0  0
 43 46  1  0  0  0  0
 44 48  1  0  0  0  0
 45 50  1  0  0  0  0
 46 65  1  0  0  0  0
 47 50  1  0  0  0  0
 47 65  1  0  0  0  0
 48 69  1  0  0  0  0
 49 64  1  0  0  0  0
 50 63  1  0  0  0  0
 51 60  1  0  0  0  0
 52 61  1  0  0  0  0
 53 61  1  0  0  0  0
 54 61  1  0  0  0  0
 55 71  1  0  0  0  0
 56 79  1  0  0  0  0
 57 58  1  0  0  0  0
 57 78  1  0  0  0  0
 58 79  1  0  0  0  0
 59 61  1  0  0  0  0
 59 70  1  0  0  0  0
 60 71  1  0  0  0  0
 62 63  1  0  0  0  0
M  CHG  1  71   1
M  ISO  4  38 100  57 101  68 100  78 101
M  END
> <Batch ID>
0002

> <Smiles>
CNC(C)C(=O)NC(C(=O)N1Cc2cc([101O:1][101CH2:1]COCc3cccc([100NH:0][100C:0](=O)N4CCCC(n5nc(-c6ccc(Oc7ccc(F)cc7F)cc6)c(C(N)=O)c5N)C4)c3)ccc2CC1C(=O)NC1CCCc2ccccc21)C(C)(C)C

> <Shape>
0.216

> <Color>
0.078

> <Negative vol penalty>
0.000

$$$$

  -OEChem-04052315183D

 77 85  0     1  0  0  0  0  0999 V2000
  -29.7601  -24.9273   17.0808 C   0  0  0  0  0  0  0  0  0  0  0  0
  -28.5457  -25.5795   17.2614 C   0  0  0  0  0  0  0  0  0  0  0  0
  -19.3587  -26.3134   23.0227 C   0  0  0  0  0  0  0  0  0  0  0  0
  -28.4607  -17.8740   20.1771 C   0  0  0  0  0  0  0  0  0  0  0  0
  -26.4581  -17.9915   18.8306 C   0  0  0  0  0  0  0  0  0  0  0  0
  -30.7294  -24.9777   18.0804 C   0  0  0  0  0  0  0  0  0  0  0  0
  -28.3047  -26.2922   18.4365 C   0  0  0  0  0  0  0  0  0  0  0  0
  -24.1657  -28.9443   18.6328 C   0  0  0  0  0  0  0  0  0  0  0  0
  -20.3081  -25.3660   23.4058 C   0  0  0  0  0  0  0  0  0  0  0  0
  -19.5947  -27.1291   21.9161 C   0  0  0  0  0  0  0  0  0  0  0  0
  -28.8046  -16.6709   19.5608 C   0  0  0  0  0  0  0  0  0  0  0  0
  -26.8020  -16.7884   18.2142 C   0  0  0  0  0  0  0  0  0  0  0  0
  -22.9035  -28.3639   18.7501 C   0  0  0  0  0  0  0  0  0  0  0  0
  -27.9228  -13.4158   19.7869 C   0  0  0  0  0  0  0  0  0  0  0  0
  -28.3668  -12.3747   20.6020 C   0  0  0  0  0  0  0  0  0  0  0  0
  -22.8486  -28.9697   21.0845 C   0  0  0  0  0  0  0  0  0  0  0  0
  -21.7293  -26.0499   21.5759 C   0  0  0  0  0  0  0  0  0  0  0  0
  -30.4705  -12.3420   19.4143 C   0  0  0  0  0  0  0  0  0  0  0  0
  -27.2874  -18.5343   19.8121 C   0  0  0  0  0  0  0  0  0  0  0  0
  -27.2849  -21.0755   20.0360 C   0  0  0  0  0  0  0  0  0  0  0  0
  -30.4945  -25.6812   19.2732 C   0  0  0  0  0  0  0  0  0  0  0  0
  -24.7845  -29.5331   19.7449 C   0  0  0  0  0  0  0  0  0  0  0  0
  -29.2796  -26.3749   19.4470 C   0  0  0  0  0  0  0  0  0  0  0  0
  -24.1175  -29.5591   20.9780 C   0  0  0  0  0  0  0  0  0  0  0  0
  -21.4934  -25.2343   22.6824 C   0  0  0  0  0  0  0  0  0  0  0  0
  -27.9753  -16.1281   18.5793 C   0  0  0  0  0  0  0  0  0  0  0  0
  -22.2459  -28.3740   19.9768 C   0  0  0  0  0  0  0  0  0  0  0  0
  -20.7800  -26.9974   21.1927 C   0  0  0  0  0  0  0  0  0  1  0  0
  -28.7526  -13.9201   18.7854 C   0  0  0  0  0  0  0  0  0  0  0  0
  -29.6407  -11.8378   20.4157 C   0  0  0  0  0  0  0  0  0  0  0  0
  -30.0265  -13.3832   18.5992 C   0  0  0  0  0  0  0  0  0  0  0  0
  -26.9314  -19.7768   20.4488 C   0  0  0  0  0  0  0  0  0  0  0  0
  -26.7057  -21.9016   20.9679 C   0  0  0  0  0  0  0  0  0  0  0  0
  -28.0668  -21.4973   18.9107 C   0  0  0  0  0  0  0  0  0  0  0  0
  -27.4543  -28.9819   21.3796 C   0  0  0  0  0  0  0  0  0  0  0  0
  -26.6144  -31.7120   22.9169 C   0  0  0  0  0  0  0  0  0  0  0  0
  -24.1421  -33.8818   23.8262 C   0  0  0  0  0  0  0  0  0  0  0  0
  -22.3791  -23.3834   24.1440 C   0  0  0  0  0  0  0  0  0  0  0  0
  -31.5814  -25.7096   20.3187 C   0  0  0  0  0  0  0  0  0  0  0  0
  -26.1348  -30.1786   19.5955 C   0  0  0  0  0  0  0  0  0  0  0  0
  -24.7299  -30.1965   22.1975 C   0  0  0  0  0  0  0  0  0  0  0  0
  -31.0690  -26.1104   21.6982 C   0  0  0  0  0  0  0  0  0  0  0  0
  -24.5226  -20.8375   25.4091 C   0  0  0  0  0  0  0  0  0  0  0  0
  -30.2276  -27.3736   21.5933 C   0  0  0  0  0  0  0  0  0  0  0  0
  -25.3695  -20.4414   24.1974 C   0  0  0  0  0  0  0  0  0  0  0  0
  -23.0840  -21.1646   25.0130 C   0  0  0  0  0  0  0  0  0  0  0  0
  -23.7927  -21.7646   22.7311 C   0  0  0  0  0  0  0  0  0  0  0  0
  -28.9834  -27.1308   20.7297 C   0  0  1  0  0  0  0  0  0  0  0  0
  -26.8907  -30.2952   20.9155 C   0  0  1  0  0  0  0  0  0  0  0  0
  -25.2664  -21.4887   23.0713 C   0  0  2  0  0  0  0  0  0  0  0  0
  -23.7565  -36.0016   25.1127 C   0  0  0  0  0  0  0  0  0  0  0  0
  -26.8581  -30.1644   25.5353 C   0  0  0  0  0  0  0  0  0  0  0  0
  -25.5730  -31.9970   26.6571 C   0  0  0  0  0  0  0  0  0  0  0  0
  -27.7817  -32.4874   25.6066 C   0  0  0  0  0  0  0  0  0  0  0  0
  -23.1448  -35.2947   21.4246 C   0  0  0  0  0  0  0  0  0  0  0  0
  -25.7785  -32.0420   24.1299 C   0  0  1  0  0  0  0  0  0  0  0  0
  -24.0518  -35.3952   23.7497 C   0  0  2  0  0  0  0  0  0  0  0  0
  -26.4868  -31.6589   25.4599 C   0  0  0  0  0  0  0  0  0  0  0  0
  -26.1855  -19.7731   21.5568 N   0  0  0  0  0  0  0  0  0  0  0  0
  -26.0657  -21.0796   21.8482 N   0  0  0  0  0  0  0  0  0  0  0  0
  -26.0545  -30.8089   22.0022 N   0  0  0  0  0  0  0  0  0  0  0  0
  -23.0646  -22.1664   23.9449 N   0  0  0  0  0  0  0  0  0  0  0  0
  -26.6866  -23.2437   21.1122 N   0  0  0  0  0  0  0  0  0  0  0  0
  -28.5866  -20.5178   18.0535 N   0  0  0  0  0  0  0  0  0  0  0  0
  -22.4574  -24.2715   23.0717 N   0  0  0  0  0  0  0  0  0  0  0  0
  -28.3263  -28.3953   20.4824 N   0  0  0  0  0  0  0  0  0  0  0  0
  -25.4396  -33.4567   24.0194 N   0  0  0  0  0  0  0  0  0  0  0  0
  -22.9695  -35.8026   22.8096 N   0  3  0  0  0  0  0  0  0  0  0  0
  -28.3114  -22.7061   18.6816 O   0  0  0  0  0  0  0  0  0  0  0  0
  -27.1236  -28.5346   22.4715 O   0  0  0  0  0  0  0  0  0  0  0  0
  -27.7203  -32.2416   22.7823 O   0  0  0  0  0  0  0  0  0  0  0  0
  -23.1596  -33.1500   23.7284 O   0  0  0  0  0  0  0  0  0  0  0  0
  -21.7905  -23.6315   25.1995 O   0  0  0  0  0  0  0  0  0  0  0  0
  -28.3106  -14.9543   17.9775 O   0  0  0  0  0  0  0  0  0  0  0  0
  -21.0142  -27.8076   20.0942 O   0  0  0  0  0  0  0  0  0  1  0  0
  -30.0675  -10.8390   21.1996 F   0  0  0  0  0  0  0  0  0  0  0  0
  -30.8286  -13.8643   17.6395 F   0  0  0  0  0  0  0  0  0  0  0  0
  1  2  1  0  0  0  0
  1  6  2  0  0  0  0
  2  7  2  0  0  0  0
  3  9  1  0  0  0  0
  3 10  2  0  0  0  0
  4 11  2  0  0  0  0
  4 19  1  0  0  0  0
  5 12  1  0  0  0  0
  5 19  2  0  0  0  0
  6 21  1  0  0  0  0
  7 23  1  0  0  0  0
  8 13  2  0  0  0  0
  8 22  1  0  0  0  0
  9 25  2  0  0  0  0
 10 28  1  0  0  0  0
 11 26  1  0  0  0  0
 12 26  2  0  0  0  0
 13 27  1  0  0  0  0
 14 15  2  0  0  0  0
 14 29  1  0  0  0  0
 15 30  1  0  0  0  0
 16 24  1  0  0  0  0
 16 27  2  0  0  0  0
 17 25  1  0  0  0  0
 17 28  2  0  0  0  0
 18 30  2  0  0  0  0
 18 31  1  0  0  0  0
 19 32  1  0  0  0  0
 20 32  1  0  0  0  0
 20 33  2  0  0  0  0
 20 34  1  0  0  0  0
 21 23  2  0  0  0  0
 21 39  1  0  0  0  0
 22 24  2  0  0  0  0
 22 40  1  0  0  0  0
 23 48  1  0  0  0  0
 24 41  1  0  0  0  0
 25 65  1  0  0  0  0
 26 74  1  0  0  0  0
 27 75  1  0  0  0  0
 28 75  1  0  0  0  0
 29 31  2  0  0  0  0
 29 74  1  0  0  0  0
 30 76  1  0  0  0  0
 31 77  1  0  0  0  0
 32 59  2  0  0  0  0
 33 60  1  0  0  0  0
 33 63  1  0  0  0  0
 34 64  1  0  0  0  0
 34 69  2  0  0  0  0
 35 49  1  0  0  0  0
 35 66  1  0  0  0  0
 35 70  2  0  0  0  0
 36 56  1  0  0  0  0
 36 61  1  0  0  0  0
 36 71  2  0  0  0  0
 37 57  1  0  0  0  0
 37 67  1  0  0  0  0
 37 72  2  0  0  0  0
 38 62  1  0  0  0  0
 38 65  1  0  0  0  0
 38 73  2  0  0  0  0
 39 42  1  0  0  0  0
 40 49  1  0  0  0  0
 41 61  1  0  0  0  0
 42 44  1  0  0  0  0
 43 45  1  0  0  0  0
 43 46  1  0  0  0  0
 44 48  1  0  0  0  0
 45 50  1  0  0  0  0
 46 62  1  0  0  0  0
 47 50  1  0  0  0  0
 47 62  1  0  0  0  0
 48 66  1  0  0  0  0
 49 61  1  0  0  0  0
 50 60  1  0  0  0  0
 51 57  1  0  0  0  0
 52 58  1  0  0  0  0
 53 58  1  0  0  0  0
 54 58  1  0  0  0  0
 55 68  1  0  0  0  0
 56 58  1  0  0  0  0
 56 67  1  0  0  0  0
 57 68  1  0  0  0  0
 59 60  1  0  0  0  0
M  CHG  1  68   1
M  ISO  4  28 101  38 100  65 100  75 101
M  END
> <Batch ID>
0002

> <Smiles>
CNC(C)C(=O)NC(C(=O)N1Cc2cc([101O:1][101c:1]3cccc([100NH:0][100C:0](=O)N4CCCC(n5nc(-c6ccc(Oc7ccc(F)cc7F)cc6)c(C(N)=O)c5N)C4)c3)ccc2CC1C(=O)NC1CCCc2ccccc21)C(C)(C)C

> <Shape>
0.291

> <Color>
0.082

> <Negative vol penalty>
0.000

$$$$

  -OEChem-04052315183D

 77 85  0     1  0  0  0  0  0999 V2000
  -29.7601  -24.9273   17.0808 C   0  0  0  0  0  0  0  0  0  0  0  0
  -28.5457  -25.5795   17.2614 C   0  0  0  0  0  0  0  0  0  0  0  0
  -19.3587  -26.3134   23.0227 C   0  0  0  0  0  0  0  0  0  0  0  0
  -28.4607  -17.8740   20.1771 C   0  0  0  0  0  0  0  0  0  0  0  0
  -26.4581  -17.9915   18.8306 C   0  0  0  0  0  0  0  0  0  0  0  0
  -30.7294  -24.9777   18.0804 C   0  0  0  0  0  0  0  0  0  0  0  0
  -28.3047  -26.2922   18.4365 C   0  0  0  0  0  0  0  0  0  0  0  0
  -24.1657  -28.9443   18.6328 C   0  0  0  0  0  0  0  0  0  0  0  0
  -20.3081  -25.3660   23.4058 C   0  0  0  0  0  0  0  0  0  0  0  0
  -19.5947  -27.1291   21.9161 C   0  0  0  0  0  0  0  0  0  0  0  0
  -28.8046  -16.6709   19.5608 C   0  0  0  0  0  0  0  0  0  0  0  0
  -26.8020  -16.7884   18.2142 C   0  0  0  0  0  0  0  0  0  0  0  0
  -22.9035  -28.3639   18.7501 C   0  0  0  0  0  0  0  0  0  0  0  0
  -27.9228  -13.4158   19.7869 C   0  0  0  0  0  0  0  0  0  0  0  0
  -28.3668  -12.3747   20.6020 C   0  0  0  0  0  0  0  0  0  0  0  0
  -22.8486  -28.9697   21.0845 C   0  0  0  0  0  0  0  0  0  0  0  0
  -21.7293  -26.0499   21.5759 C   0  0  0  0  0  0  0  0  0  0  0  0
  -30.4705  -12.3420   19.4143 C   0  0  0  0  0  0  0  0  0  0  0  0
  -27.2874  -18.5343   19.8121 C   0  0  0  0  0  0  0  0  0  0  0  0
  -27.2849  -21.0755   20.0360 C   0  0  0  0  0  0  0  0  0  0  0  0
  -30.4945  -25.6812   19.2732 C   0  0  0  0  0  0  0  0  0  0  0  0
  -24.7845  -29.5331   19.7449 C   0  0  0  0  0  0  0  0  0  0  0  0
  -29.2796  -26.3749   19.4470 C   0  0  0  0  0  0  0  0  0  0  0  0
  -24.1175  -29.5591   20.9780 C   0  0  0  0  0  0  0  0  0  0  0  0
  -21.4934  -25.2343   22.6824 C   0  0  0  0  0  0  0  0  0  0  0  0
  -27.9753  -16.1281   18.5793 C   0  0  0  0  0  0  0  0  0  0  0  0
  -22.2459  -28.3740   19.9768 C   0  0  0  0  0  0  0  0  0  0  0  0
  -20.7800  -26.9974   21.1927 C   0  0  0  0  0  0  0  0  0  1  0  0
  -28.7526  -13.9201   18.7854 C   0  0  0  0  0  0  0  0  0  0  0  0
  -29.6407  -11.8378   20.4157 C   0  0  0  0  0  0  0  0  0  0  0  0
  -30.0265  -13.3832   18.5992 C   0  0  0  0  0  0  0  0  0  0  0  0
  -26.9314  -19.7768   20.4488 C   0  0  0  0  0  0  0  0  0  0  0  0
  -26.7057  -21.9016   20.9679 C   0  0  0  0  0  0  0  0  0  0  0  0
  -28.0668  -21.4973   18.9107 C   0  0  0  0  0  0  0  0  0  0  0  0
  -27.4543  -28.9819   21.3796 C   0  0  0  0  0  0  0  0  0  0  0  0
  -26.6144  -31.7120   22.9169 C   0  0  0  0  0  0  0  0  0  0  0  0
  -24.1421  -33.8818   23.8262 C   0  0  0  0  0  0  0  0  0  0  0  0
  -22.3791  -23.3834   24.1440 C   0  0  0  0  0  0  0  0  0  0  0  0
  -31.5814  -25.7096   20.3187 C   0  0  0  0  0  0  0  0  0  0  0  0
  -26.1348  -30.1786   19.5955 C   0  0  0  0  0  0  0  0  0  0  0  0
  -24.7299  -30.1965   22.1975 C   0  0  0  0  0  0  0  0  0  0  0  0
  -31.0690  -26.1104   21.6982 C   0  0  0  0  0  0  0  0  0  0  0  0
  -24.5226  -20.8375   25.4091 C   0  0  0  0  0  0  0  0  0  0  0  0
  -30.2276  -27.3736   21.5933 C   0  0  0  0  0  0  0  0  0  0  0  0
  -25.3695  -20.4414   24.1974 C   0  0  0  0  0  0  0  0  0  0  0  0
  -23.0840  -21.1646   25.0130 C   0  0  0  0  0  0  0  0  0  0  0  0
  -23.7927  -21.7646   22.7311 C   0  0  0  0  0  0  0  0  0  0  0  0
  -28.9834  -27.1308   20.7297 C   0  0  1  0  0  0  0  0  0  0  0  0
  -26.8907  -30.2952   20.9155 C   0  0  1  0  0  0  0  0  0  0  0  0
  -25.2664  -21.4887   23.0713 C   0  0  2  0  0  0  0  0  0  0  0  0
  -23.7565  -36.0016   25.1127 C   0  0  0  0  0  0  0  0  0  0  0  0
  -26.8581  -30.1644   25.5353 C   0  0  0  0  0  0  0  0  0  0  0  0
  -25.5730  -31.9970   26.6571 C   0  0  0  0  0  0  0  0  0  0  0  0
  -27.7817  -32.4874   25.6066 C   0  0  0  0  0  0  0  0  0  0  0  0
  -23.1448  -35.2947   21.4246 C   0  0  0  0  0  0  0  0  0  0  0  0
  -25.7785  -32.0420   24.1299 C   0  0  1  0  0  0  0  0  0  0  0  0
  -24.0518  -35.3952   23.7497 C   0  0  2  0  0  0  0  0  0  0  0  0
  -26.4868  -31.6589   25.4599 C   0  0  0  0  0  0  0  0  0  0  0  0
  -26.1855  -19.7731   21.5568 N   0  0  0  0  0  0  0  0  0  0  0  0
  -26.0657  -21.0796   21.8482 N   0  0  0  0  0  0  0  0  0  0  0  0
  -26.0545  -30.8089   22.0022 N   0  0  0  0  0  0  0  0  0  0  0  0
  -23.0646  -22.1664   23.9449 N   0  0  0  0  0  0  0  0  0  0  0  0
  -26.6866  -23.2437   21.1122 N   0  0  0  0  0  0  0  0  0  0  0  0
  -28.5866  -20.5178   18.0535 N   0  0  0  0  0  0  0  0  0  0  0  0
  -22.4574  -24.2715   23.0717 N   0  0  0  0  0  0  0  0  0  0  0  0
  -28.3263  -28.3953   20.4824 N   0  0  0  0  0  0  0  0  0  0  0  0
  -25.4396  -33.4567   24.0194 N   0  0  0  0  0  0  0  0  0  0  0  0
  -22.9695  -35.8026   22.8096 N   0  3  0  0  0  0  0  0  0  0  0  0
  -28.3114  -22.7061   18.6816 O   0  0  0  0  0  0  0  0  0  0  0  0
  -27.1236  -28.5346   22.4715 O   0  0  0  0  0  0  0  0  0  0  0  0
  -27.7203  -32.2416   22.7823 O   0  0  0  0  0  0  0  0  0  0  0  0
  -23.1596  -33.1500   23.7284 O   0  0  0  0  0  0  0  0  0  0  0  0
  -21.7905  -23.6315   25.1995 O   0  0  0  0  0  0  0  0  0  0  0  0
  -28.3106  -14.9543   17.9775 O   0  0  0  0  0  0  0  0  0  0  0  0
  -21.0142  -27.8076   20.0942 O   0  0  0  0  0  0  0  0  0  1  0  0
  -30.0675  -10.8390   21.1996 F   0  0  0  0  0  0  0  0  0  0  0  0
  -30.8286  -13.8643   17.6395 F   0  0  0  0  0  0  0  0  0  0  0  0
  1  2  1  0  0  0  0
  1  6  2  0  0  0  0
  2  7  2  0  0  0  0
  3  9  1  0  0  0  0
  3 10  2  0  0  0  0
  4 11  2  0  0  0  0
  4 19  1  0  0  0  0
  5 12  1  0  0  0  0
  5 19  2  0  0  0  0
  6 21  1  0  0  0  0
  7 23  1  0  0  0  0
  8 13  2  0  0  0  0
  8 22  1  0  0  0  0
  9 25  2  0  0  0  0
 10 28  1  0  0  0  0
 11 26  1  0  0  0  0
 12 26  2  0  0  0  0
 13 27  1  0  0  0  0
 14 15  2  0  0  0  0
 14 29  1  0  0  0  0
 15 30  1  0  0  0  0
 16 24  1  0  0  0  0
 16 27  2  0  0  0  0
 17 25  1  0  0  0  0
 17 28  2  0  0  0  0
 18 30  2  0  0  0  0
 18 31  1  0  0  0  0
 19 32  1  0  0  0  0
 20 32  1  0  0  0  0
 20 33  2  0  0  0  0
 20 34  1  0  0  0  0
 21 23  2  0  0  0  0
 21 39  1  0  0  0  0
 22 24  2  0  0  0  0
 22 40  1  0  0  0  0
 23 48  1  0  0  0  0
 24 41  1  0  0  0  0
 25 65  1  0  0  0  0
 26 74  1  0  0  0  0
 27 75  1  0  0  0  0
 28 75  1  0  0  0  0
 29 31  2  0  0  0  0
 29 74  1  0  0  0  0
 30 76  1  0  0  0  0
 31 77  1  0  0  0  0
 32 59  2  0  0  0  0
 33 60  1  0  0  0  0
 33 63  1  0  0  0  0
 34 64  1  0  0  0  0
 34 69  2  0  0  0  0
 35 49  1  0  0  0  0
 35 66  1  0  0  0  0
 35 70  2  0  0  0  0
 36 56  1  0  0  0  0
 36 61  1  0  0  0  0
 36 71  2  0  0  0  0
 37 57  1  0  0  0  0
 37 67  1  0  0  0  0
 37 72  2  0  0  0  0
 38 62  1  0  0  0  0
 38 65  1  0  0  0  0
 38 73  2  0  0  0  0
 39 42  1  0  0  0  0
 40 49  1  0  0  0  0
 41 61  1  0  0  0  0
 42 44  1  0  0  0  0
 43 45  1  0  0  0  0
 43 46  1  0  0  0  0
 44 48  1  0  0  0  0
 45 50  1  0  0  0  0
 46 62  1  0  0  0  0
 47 50  1  0  0  0  0
 47 62  1  0  0  0  0
 48 66  1  0  0  0  0
 49 61  1  0  0  0  0
 50 60  1  0  0  0  0
 51 57  1  0  0  0  0
 52 58  1  0  0  0  0
 53 58  1  0  0  0  0
 54 58  1  0  0  0  0
 55 68  1  0  0  0  0
 56 58  1  0  0  0  0
 56 67  1  0  0  0  0
 57 68  1  0  0  0  0
 59 60  1  0  0  0  0
M  CHG  1  68   1
M  ISO  4  28 101  38 100  65 100  75 101
M  END
> <Batch ID>
0002

> <Smiles>
CNC(C)C(=O)NC(C(=O)N1Cc2cc([101O:1][101c:1]3cccc([100NH:0][100C:0](=O)N4CCCC(n5nc(-c6ccc(Oc7ccc(F)cc7F)cc6)c(C(N)=O)c5N)C4)c3)ccc2CC1C(=O)NC1CCCc2ccccc21)C(C)(C)C

> <Shape>
0.291

> <Color>
0.082

> <Negative vol penalty>
0.000

$$$$

  -OEChem-04052315183D

 77 85  0     1  0  0  0  0  0999 V2000
  -17.5192  -25.8185   21.4338 C   0  0  0  0  0  0  0  0  0  0  0  0
  -18.7916  -25.7093   20.8820 C   0  0  0  0  0  0  0  0  0  0  0  0
  -26.6261  -12.5770   21.8119 C   0  0  0  0  0  0  0  0  0  0  0  0
  -25.8412  -14.0497   20.0649 C   0  0  0  0  0  0  0  0  0  0  0  0
  -17.0682  -27.0509   21.9045 C   0  0  0  0  0  0  0  0  0  0  0  0
  -19.6134  -26.8328   20.7996 C   0  0  0  0  0  0  0  0  0  0  0  0
  -24.3691  -25.8720   22.2504 C   0  0  0  0  0  0  0  0  0  0  0  0
  -28.1665  -21.8353   19.6877 C   0  0  0  0  0  0  0  0  0  0  0  0
  -28.7648  -22.8992   21.7725 C   0  0  0  0  0  0  0  0  0  0  0  0
  -25.3753  -11.9612   21.8549 C   0  0  0  0  0  0  0  0  0  0  0  0
  -24.5903  -13.4339   20.1079 C   0  0  0  0  0  0  0  0  0  0  0  0
  -25.1919  -25.2122   21.3387 C   0  0  0  0  0  0  0  0  0  0  0  0
  -27.5414  -23.0095   19.2679 C   0  0  0  0  0  0  0  0  0  0  0  0
  -28.1397  -24.0734   21.3528 C   0  0  0  0  0  0  0  0  0  0  0  0
  -23.6696   -9.6584   20.0604 C   0  0  0  0  0  0  0  0  0  0  0  0
  -23.6343   -8.2648   20.1070 C   0  0  0  0  0  0  0  0  0  0  0  0
  -26.1959  -27.3193   20.7291 C   0  0  0  0  0  0  0  0  0  0  0  0
  -22.4632   -8.3651   22.2179 C   0  0  0  0  0  0  0  0  0  0  0  0
  -26.8591  -13.6213   20.9170 C   0  0  0  0  0  0  0  0  0  0  0  0
  -29.2505  -13.8951   20.0721 C   0  0  0  0  0  0  0  0  0  0  0  0
  -17.8885  -28.1881   21.8366 C   0  0  0  0  0  0  0  0  0  0  0  0
  -24.4460  -27.2641   22.4008 C   0  0  0  0  0  0  0  0  0  0  0  0
  -19.1724  -28.0819   21.2686 C   0  0  0  0  0  0  0  0  0  0  0  0
  -25.3747  -27.9940   21.6453 C   0  0  0  0  0  0  0  0  0  0  0  0
  -28.7782  -21.7802   20.9400 C   0  0  0  0  0  0  0  0  0  0  0  0
  -24.3574  -12.3897   21.0029 C   0  0  0  0  0  0  0  0  0  0  0  0
  -27.5280  -24.1286   20.1005 C   0  0  0  0  0  0  0  0  0  1  0  0
  -26.1035  -25.9362   20.5757 C   0  0  0  0  0  0  0  0  0  0  0  0
  -23.1017  -10.4054   21.0925 C   0  0  0  0  0  0  0  0  0  0  0  0
  -23.0311   -7.6181   21.1857 C   0  0  0  0  0  0  0  0  0  0  0  0
  -22.4985   -9.7587   22.1712 C   0  0  0  0  0  0  0  0  0  0  0  0
  -28.1508  -14.2581   20.8725 C   0  0  0  0  0  0  0  0  0  0  0  0
  -30.2274  -14.8038   20.3982 C   0  0  0  0  0  0  0  0  0  0  0  0
  -29.3776  -12.8315   19.1191 C   0  0  0  0  0  0  0  0  0  0  0  0
  -22.4292  -29.6821   21.9655 C   0  0  0  0  0  0  0  0  0  0  0  0
  -24.8421  -31.4181   23.2642 C   0  0  0  0  0  0  0  0  0  0  0  0
  -28.1808  -31.7092   23.9084 C   0  0  0  0  0  0  0  0  0  0  0  0
  -30.0658  -20.3648   22.5786 C   0  0  0  0  0  0  0  0  0  0  0  0
  -17.3394  -29.5088   22.3151 C   0  0  0  0  0  0  0  0  0  0  0  0
  -23.5701  -27.9576   23.4079 C   0  0  0  0  0  0  0  0  0  0  0  0
  -25.5106  -29.4876   21.7837 C   0  0  0  0  0  0  0  0  0  0  0  0
  -18.4132  -30.5717   22.5332 C   0  0  0  0  0  0  0  0  0  0  0  0
  -31.7199  -17.5601   24.0189 C   0  0  0  0  0  0  0  0  0  0  0  0
  -19.3734  -30.6115   21.3486 C   0  0  0  0  0  0  0  0  0  0  0  0
  -31.0968  -16.3624   23.2983 C   0  0  0  0  0  0  0  0  0  0  0  0
  -30.6948  -18.6630   24.2766 C   0  0  0  0  0  0  0  0  0  0  0  0
  -29.3270  -17.9099   22.3711 C   0  0  0  0  0  0  0  0  0  0  0  0
  -20.1026  -29.2726   21.1843 C   0  0  1  0  0  0  0  0  0  0  0  0
  -23.3741  -29.4406   23.1085 C   0  0  1  0  0  0  0  0  0  0  0  0
  -30.3356  -16.8003   22.0317 C   0  0  2  0  0  0  0  0  0  0  0  0
  -29.8580  -33.2567   24.9521 C   0  0  0  0  0  0  0  0  0  0  0  0
  -24.6822  -33.2365   20.8192 C   0  0  0  0  0  0  0  0  0  0  0  0
  -26.9321  -34.1457   21.4350 C   0  0  0  0  0  0  0  0  0  0  0  0
  -25.0038  -34.4343   22.9909 C   0  0  0  0  0  0  0  0  0  0  0  0
  -28.9726  -29.6842   25.9162 C   0  0  0  0  0  0  0  0  0  0  0  0
  -26.0471  -32.1472   22.7209 C   0  0  1  0  0  0  0  0  0  0  0  0
  -28.9344  -32.0694   25.1759 C   0  0  2  0  0  0  0  0  0  0  0  0
  -25.6626  -33.4630   21.9873 C   0  0  0  0  0  0  0  0  0  0  0  0
  -28.4046  -15.3150   21.6488 N   0  0  0  0  0  0  0  0  0  0  0  0
  -29.6751  -15.6238   21.3377 N   0  0  0  0  0  0  0  0  0  0  0  0
  -24.6277  -30.1209   22.7772 N   0  0  0  0  0  0  0  0  0  0  0  0
  -30.0164  -19.0294   23.0314 N   0  0  0  0  0  0  0  0  0  0  0  0
  -31.4964  -14.9735   19.9700 N   0  0  0  0  0  0  0  0  0  0  0  0
  -28.2769  -11.9905   18.9057 N   0  0  0  0  0  0  0  0  0  0  0  0
  -29.4125  -20.5873   21.3668 N   0  0  0  0  0  0  0  0  0  0  0  0
  -21.1668  -29.1539   22.1578 N   0  0  0  0  0  0  0  0  0  0  0  0
  -26.9534  -32.3348   23.8487 N   0  0  0  0  0  0  0  0  0  0  0  0
  -29.7565  -30.9146   25.6357 N   0  3  0  0  0  0  0  0  0  0  0  0
  -30.4412  -12.6227   18.4877 O   0  0  0  0  0  0  0  0  0  0  0  0
  -22.8162  -30.3030   20.9824 O   0  0  0  0  0  0  0  0  0  0  0  0
  -24.1216  -31.9761   24.0956 O   0  0  0  0  0  0  0  0  0  0  0  0
  -28.6369  -30.9518   23.0547 O   0  0  0  0  0  0  0  0  0  0  0  0
  -30.6680  -21.2406   23.2049 O   0  0  0  0  0  0  0  0  0  0  0  0
  -26.9074  -25.2947   19.6846 O   0  0  0  0  0  0  0  0  0  1  0  0
  -23.1368  -11.7889   21.0443 O   0  0  0  0  0  0  0  0  0  0  0  0
  -22.9960   -6.2798   21.2297 F   0  0  0  0  0  0  0  0  0  0  0  0
  -21.9502  -10.4710   23.1651 F   0  0  0  0  0  0  0  0  0  0  0  0
  1  2  1  0  0  0  0
  1  5  2  0  0  0  0
  2  6  2  0  0  0  0
  3 10  2  0  0  0  0
  3 19  1  0  0  0  0
  4 11  1  0  0  0  0
  4 19  2  0  0  0  0
  5 21  1  0  0  0  0
  6 23  1  0  0  0  0
  7 12  2  0  0  0  0
  7 22  1  0  0  0  0
  8 13  2  0  0  0  0
  8 25  1  0  0  0  0
  9 14  1  0  0  0  0
  9 25  2  0  0  0  0
 10 26  1  0  0  0  0
 11 26  2  0  0  0  0
 12 28  1  0  0  0  0
 13 27  1  0  0  0  0
 14 27  2  0  0  0  0
 15 16  2  0  0  0  0
 15 29  1  0  0  0  0
 16 30  1  0  0  0  0
 17 24  1  0  0  0  0
 17 28  2  0  0  0  0
 18 30  2  0  0  0  0
 18 31  1  0  0  0  0
 19 32  1  0  0  0  0
 20 32  1  0  0  0  0
 20 33  2  0  0  0  0
 20 34  1  0  0  0  0
 21 23  2  0  0  0  0
 21 39  1  0  0  0  0
 22 24  2  0  0  0  0
 22 40  1  0  0  0  0
 23 48  1  0  0  0  0
 24 41  1  0  0  0  0
 25 65  1  0  0  0  0
 26 75  1  0  0  0  0
 27 74  1  0  0  0  0
 28 74  1  0  0  0  0
 29 31  2  0  0  0  0
 29 75  1  0  0  0  0
 30 76  1  0  0  0  0
 31 77  1  0  0  0  0
 32 59  2  0  0  0  0
 33 60  1  0  0  0  0
 33 63  1  0  0  0  0
 34 64  1  0  0  0  0
 34 69  2  0  0  0  0
 35 49  1  0  0  0  0
 35 66  1  0  0  0  0
 35 70  2  0  0  0  0
 36 56  1  0  0  0  0
 36 61  1  0  0  0  0
 36 71  2  0  0  0  0
 37 57  1  0  0  0  0
 37 67  1  0  0  0  0
 37 72  2  0  0  0  0
 38 62  1  0  0  0  0
 38 65  1  0  0  0  0
 38 73  2  0  0  0  0
 39 42  1  0  0  0  0
 40 49  1  0  0  0  0
 41 61  1  0  0  0  0
 42 44  1  0  0  0  0
 43 45  1  0  0  0  0
 43 46  1  0  0  0  0
 44 48  1  0  0  0  0
 45 50  1  0  0  0  0
 46 62  1  0  0  0  0
 47 50  1  0  0  0  0
 47 62  1  0  0  0  0
 48 66  1  0  0  0  0
 49 61  1  0  0  0  0
 50 60  1  0  0  0  0
 51 57  1  0  0  0  0
 52 58  1  0  0  0  0
 53 58  1  0  0  0  0
 54 58  1  0  0  0  0
 55 68  1  0  0  0  0
 56 58  1  0  0  0  0
 56 67  1  0  0  0  0
 57 68  1  0  0  0  0
 59 60  1  0  0  0  0
M  CHG  1  68   1
M  ISO  4  27 101  38 100  65 100  74 101
M  END
> <Batch ID>
0002

> <Smiles>
CNC(C)C(=O)NC(C(=O)N1Cc2cc([101O:1][101c:1]3ccc([100NH:0][100C:0](=O)N4CCCC(n5nc(-c6ccc(Oc7ccc(F)cc7F)cc6)c(C(N)=O)c5N)C4)cc3)ccc2CC1C(=O)NC1CCCc2ccccc21)C(C)(C)C

> <Shape>
0.307

> <Color>
0.082

> <Negative vol penalty>
0.000

$$$$

  -OEChem-04052315183D

 91 99  0     1  0  0  0  0  0999 V2000
  -24.9779  -19.9738   20.4513 C   0  0  0  0  0  0  0  0  0  0  0  0
  -24.7771  -21.3209   20.7346 C   0  0  0  0  0  0  0  0  0  0  0  0
  -24.7283   -9.6721   21.7739 C   0  0  0  0  0  0  0  0  0  0  0  0
  -25.2093  -10.4164   24.0215 C   0  0  0  0  0  0  0  0  0  0  0  0
  -26.2703  -19.4508   20.4367 C   0  0  0  0  0  0  0  0  0  0  0  0
  -25.8685  -22.1457   21.0046 C   0  0  0  0  0  0  0  0  0  0  0  0
  -25.5914  -26.5879   18.5890 C   0  0  0  0  0  0  0  0  0  0  0  0
  -24.4125   -8.4040   22.2613 C   0  0  0  0  0  0  0  0  0  0  0  0
  -24.8935   -9.1482   24.5090 C   0  0  0  0  0  0  0  0  0  0  0  0
  -24.7392  -27.5522   19.1253 C   0  0  0  0  0  0  0  0  0  0  0  0
  -23.1323   -5.0730   22.9545 C   0  0  0  0  0  0  0  0  0  0  0  0
  -21.9799   -4.4584   22.4648 C   0  0  0  0  0  0  0  0  0  0  0  0
  -26.6304  -28.6462   20.1478 C   0  0  0  0  0  0  0  0  0  0  0  0
  -20.6462   -6.2888   23.3062 C   0  0  0  0  0  0  0  0  0  0  0  0
  -25.1267  -10.6783   22.6539 C   0  0  0  0  0  0  0  0  0  0  0  0
  -24.6084  -12.8612   21.4399 C   0  0  0  0  0  0  0  0  0  0  0  0
  -27.3789  -20.2717   20.6972 C   0  0  0  0  0  0  0  0  0  0  0  0
  -26.9705  -26.6394   18.8375 C   0  0  0  0  0  0  0  0  0  0  0  0
  -27.1768  -21.6329   20.9949 C   0  0  0  0  0  0  0  0  0  0  0  0
  -27.4983  -27.6828   19.6114 C   0  0  0  0  0  0  0  0  0  0  0  0
  -24.4951   -8.1420   23.6289 C   0  0  0  0  0  0  0  0  0  0  0  0
  -25.2583  -28.5799   19.9072 C   0  0  0  0  0  0  0  0  0  0  0  0
  -23.0417   -6.2955   23.6201 C   0  0  0  0  0  0  0  0  0  0  0  0
  -20.7368   -5.0663   22.6406 C   0  0  0  0  0  0  0  0  0  0  0  0
  -21.7986   -6.9034   23.7959 C   0  0  0  0  0  0  0  0  0  0  0  0
  -25.4536  -11.9884   22.1509 C   0  0  0  0  0  0  0  0  0  0  0  0
  -25.3856  -13.9664   21.1929 C   0  0  0  0  0  0  0  0  0  0  0  0
  -23.2428  -12.6885   21.0386 C   0  0  0  0  0  0  0  0  0  0  0  0
  -29.0639  -24.7268   20.2739 C   0  0  0  0  0  0  0  0  0  0  0  0
  -26.8758  -25.1827   26.2020 C   0  0  0  0  0  0  0  0  0  0  0  0
  -31.2122  -26.8875   19.1609 C   0  0  0  0  0  0  0  0  0  0  0  0
  -31.4275  -30.4773   18.8708 C   0  0  0  0  0  0  0  0  0  0  0  0
  -30.0502  -16.2089   24.0333 C   0  0  0  0  0  0  0  0  0  0  0  0
  -28.7532  -19.6509   20.7167 C   0  0  0  0  0  0  0  0  0  0  0  0
  -27.8796  -25.6067   18.2296 C   0  0  0  0  0  0  0  0  0  0  0  0
  -28.9740  -27.7946   19.8910 C   0  0  0  0  0  0  0  0  0  0  0  0
  -29.8845  -20.6733   20.6448 C   0  0  0  0  0  0  0  0  0  0  0  0
  -29.9448  -15.2683   20.5402 C   0  0  0  0  0  0  0  0  0  0  0  0
  -29.6307  -21.8195   21.6188 C   0  0  0  0  0  0  0  0  0  0  0  0
  -28.6881  -14.3972   20.4976 C   0  0  0  0  0  0  0  0  0  0  0  0
  -25.6643  -27.9769   24.2204 C   0  0  0  0  0  0  0  0  0  0  0  0
  -23.7695  -26.7349   25.3142 C   0  0  0  0  0  0  0  0  0  0  0  0
  -30.7195  -15.0580   21.8378 C   0  0  0  0  0  0  0  0  0  0  0  0
  -26.5721  -27.5701   25.3776 C   0  0  0  0  0  0  0  0  0  0  0  0
  -24.7091  -26.3515   26.4524 C   0  0  0  0  0  0  0  0  0  0  0  0
  -28.6643  -14.4130   23.0352 C   0  0  0  0  0  0  0  0  0  0  0  0
  -28.3372  -22.5650   21.2685 C   0  0  1  0  0  0  0  0  0  0  0  0
  -29.2044  -25.4652   18.9729 C   0  0  1  0  0  0  0  0  0  0  0  0
  -27.8251  -14.5966   21.7576 C   0  0  2  0  0  0  0  0  0  0  0  0
  -24.2017  -28.0477   24.6592 C   0  0  0  0  0  0  0  0  0  0  0  0
  -32.7049  -31.9097   17.2540 C   0  0  0  0  0  0  0  0  0  0  0  0
  -33.3628  -26.9069   21.3252 C   0  0  0  0  0  0  0  0  0  0  0  0
  -33.8105  -29.3047   20.7610 C   0  0  0  0  0  0  0  0  0  0  0  0
  -34.1734  -27.5324   19.0435 C   0  0  0  0  0  0  0  0  0  0  0  0
  -28.9821  -31.9221   18.0394 C   0  0  0  0  0  0  0  0  0  0  0  0
  -28.3116  -25.2498   25.7465 C   0  0  0  0  0  0  0  0  0  0  0  0
  -31.3023  -20.4011   25.6078 C   0  0  0  0  0  0  0  0  0  0  0  0
  -30.6741  -21.7556   25.2743 C   0  0  0  0  0  0  0  0  0  0  0  0
  -30.9438  -19.3479   24.5593 C   0  0  0  0  0  0  0  0  0  0  0  0
  -31.0101  -22.8014   26.3415 C   0  0  0  0  0  0  0  0  0  0  0  0
  -22.5698  -29.9102   21.9210 C   0  0  0  0  0  0  0  0  0  0  0  0
  -31.5382  -17.9897   24.9119 C   0  0  0  0  0  0  0  0  0  0  0  0
  -30.3674  -24.1517   26.0479 C   0  0  0  0  0  0  0  0  0  0  0  0
  -23.0942  -29.1167   20.7345 C   0  0  0  0  0  0  0  0  0  1  0  0
  -23.4063  -29.6847   23.1706 C   0  0  0  0  0  0  0  0  0  0  0  0
  -31.8130  -28.1675   19.6896 C   0  0  1  0  0  0  0  0  0  0  0  0
  -31.3570  -31.2915   17.5915 C   0  0  2  0  0  0  0  0  0  0  0  0
  -33.2639  -27.9694   20.2124 C   0  0  0  0  0  0  0  0  0  0  0  0
  -26.6743  -12.4953   22.3430 N   0  0  0  0  0  0  0  0  0  0  0  0
  -26.6018  -13.6987   21.7491 N   0  0  0  0  0  0  0  0  0  0  0  0
  -29.8212  -26.7573   19.2797 N   0  0  0  0  0  0  0  0  0  0  0  0
  -26.1007  -26.3234   25.9951 N   0  0  0  0  0  0  0  0  0  0  0  0
  -29.8459  -15.2812   22.9984 N   0  0  0  0  0  0  0  0  0  0  0  0
  -25.1405  -15.1314   20.5564 N   0  0  0  0  0  0  0  0  0  0  0  0
  -22.2312  -13.1091   21.9127 N   0  0  0  0  0  0  0  0  0  0  0  0
  -28.5525  -23.4497   20.1437 N   0  0  0  0  0  0  0  0  0  0  0  0
  -31.6933  -29.1484   18.6164 N   0  0  0  0  0  0  0  0  0  0  0  0
  -31.1962  -16.9876   23.9271 N   0  0  0  0  0  0  0  0  0  0  0  0
  -30.3582  -32.3887   17.7302 N   0  3  0  0  0  0  0  0  0  0  0  0
  -22.9288  -12.1614   19.9445 O   0  0  0  0  0  0  0  0  0  0  0  0
  -29.3964  -25.2746   21.3185 O   0  0  0  0  0  0  0  0  0  0  0  0
  -26.4568  -24.1461   26.7234 O   0  0  0  0  0  0  0  0  0  0  0  0
  -31.9490  -26.0376   18.6544 O   0  0  0  0  0  0  0  0  0  0  0  0
  -31.2669  -30.9714   19.9846 O   0  0  0  0  0  0  0  0  0  0  0  0
  -29.2662  -16.3379   24.9798 O   0  0  0  0  0  0  0  0  0  0  0  0
  -24.1868   -6.9047   24.1050 O   0  0  0  0  0  0  0  0  0  0  0  0
  -24.4286  -29.5221   20.4324 O   0  0  0  0  0  0  0  0  0  1  0  0
  -23.3926  -28.3067   23.5181 O   0  0  0  0  0  0  0  0  0  0  0  0
  -28.9494  -24.0195   26.0207 O   0  0  0  0  0  0  0  0  0  0  0  0
  -19.6304   -4.4767   22.1689 F   0  0  0  0  0  0  0  0  0  0  0  0
  -21.7054   -8.0784   24.4334 F   0  0  0  0  0  0  0  0  0  0  0  0
  1  2  1  0  0  0  0
  1  5  2  0  0  0  0
  2  6  2  0  0  0  0
  3  8  2  0  0  0  0
  3 15  1  0  0  0  0
  4  9  1  0  0  0  0
  4 15  2  0  0  0  0
  5 17  1  0  0  0  0
  6 19  1  0  0  0  0
  7 10  2  0  0  0  0
  7 18  1  0  0  0  0
  8 21  1  0  0  0  0
  9 21  2  0  0  0  0
 10 22  1  0  0  0  0
 11 12  2  0  0  0  0
 11 23  1  0  0  0  0
 12 24  1  0  0  0  0
 13 20  1  0  0  0  0
 13 22  2  0  0  0  0
 14 24  2  0  0  0  0
 14 25  1  0  0  0  0
 15 26  1  0  0  0  0
 16 26  1  0  0  0  0
 16 27  2  0  0  0  0
 16 28  1  0  0  0  0
 17 19  2  0  0  0  0
 17 34  1  0  0  0  0
 18 20  2  0  0  0  0
 18 35  1  0  0  0  0
 19 47  1  0  0  0  0
 20 36  1  0  0  0  0
 21 86  1  0  0  0  0
 22 87  1  0  0  0  0
 23 25  2  0  0  0  0
 23 86  1  0  0  0  0
 24 90  1  0  0  0  0
 25 91  1  0  0  0  0
 26 69  2  0  0  0  0
 27 70  1  0  0  0  0
 27 74  1  0  0  0  0
 28 75  1  0  0  0  0
 28 80  2  0  0  0  0
 29 48  1  0  0  0  0
 29 76  1  0  0  0  0
 29 81  2  0  0  0  0
 30 56  1  0  0  0  0
 30 72  1  0  0  0  0
 30 82  2  0  0  0  0
 31 66  1  0  0  0  0
 31 71  1  0  0  0  0
 31 83  2  0  0  0  0
 32 67  1  0  0  0  0
 32 77  1  0  0  0  0
 32 84  2  0  0  0  0
 33 73  1  0  0  0  0
 33 78  1  0  0  0  0
 33 85  2  0  0  0  0
 34 37  1  0  0  0  0
 35 48  1  0  0  0  0
 36 71  1  0  0  0  0
 37 39  1  0  0  0  0
 38 40  1  0  0  0  0
 38 43  1  0  0  0  0
 39 47  1  0  0  0  0
 40 49  1  0  0  0  0
 41 44  1  0  0  0  0
 41 50  1  0  0  0  0
 42 45  1  0  0  0  0
 42 50  1  0  0  0  0
 43 73  1  0  0  0  0
 44 72  1  0  0  0  0
 45 72  1  0  0  0  0
 46 49  1  0  0  0  0
 46 73  1  0  0  0  0
 47 76  1  0  0  0  0
 48 71  1  0  0  0  0
 49 70  1  0  0  0  0
 50 88  1  0  0  0  0
 51 67  1  0  0  0  0
 52 68  1  0  0  0  0
 53 68  1  0  0  0  0
 54 68  1  0  0  0  0
 55 79  1  0  0  0  0
 56 89  1  0  0  0  0
 57 58  1  0  0  0  0
 57 59  1  0  0  0  0
 58 60  1  0  0  0  0
 59 62  1  0  0  0  0
 60 63  1  0  0  0  0
 61 64  1  0  0  0  0
 61 65  1  0  0  0  0
 62 78  1  0  0  0  0
 63 89  1  0  0  0  0
 64 87  1  0  0  0  0
 65 88  1  0  0  0  0
 66 68  1  0  0  0  0
 66 77  1  0  0  0  0
 67 79  1  0  0  0  0
 69 70  1  0  0  0  0
M  CHG  1  79   1
M  ISO  4  33 100  64 101  78 100  87 101
M  END
> <Batch ID>
0002

> <Smiles>
CNC(C)C(=O)NC(C(=O)N1Cc2cc([101O:1][101CH2:1]CCOC3CCN(C(=O)COCCCCCC[100NH:0][100C:0](=O)N4CCCC(n5nc(-c6ccc(Oc7ccc(F)cc7F)cc6)c(C(N)=O)c5N)C4)CC3)ccc2CC1C(=O)NC1CCCc2ccccc21)C(C)(C)C

> <Shape>
0.230

> <Color>
0.088

> <Negative vol penalty>
0.000

$$$$

  -OEChem-04052315183D

 77 85  0     1  0  0  0  0  0999 V2000
  -29.7601  -24.9273   17.0808 C   0  0  0  0  0  0  0  0  0  0  0  0
  -28.5457  -25.5795   17.2614 C   0  0  0  0  0  0  0  0  0  0  0  0
  -19.3587  -26.3134   23.0227 C   0  0  0  0  0  0  0  0  0  0  0  0
  -28.4607  -17.8740   20.1771 C   0  0  0  0  0  0  0  0  0  0  0  0
  -26.4581  -17.9915   18.8306 C   0  0  0  0  0  0  0  0  0  0  0  0
  -30.7294  -24.9777   18.0804 C   0  0  0  0  0  0  0  0  0  0  0  0
  -28.3047  -26.2922   18.4365 C   0  0  0  0  0  0  0  0  0  0  0  0
  -24.1657  -28.9443   18.6328 C   0  0  0  0  0  0  0  0  0  0  0  0
  -20.3081  -25.3660   23.4058 C   0  0  0  0  0  0  0  0  0  0  0  0
  -19.5947  -27.1291   21.9161 C   0  0  0  0  0  0  0  0  0  0  0  0
  -28.8046  -16.6709   19.5608 C   0  0  0  0  0  0  0  0  0  0  0  0
  -26.8020  -16.7884   18.2142 C   0  0  0  0  0  0  0  0  0  0  0  0
  -22.9035  -28.3639   18.7501 C   0  0  0  0  0  0  0  0  0  0  0  0
  -27.9228  -13.4158   19.7869 C   0  0  0  0  0  0  0  0  0  0  0  0
  -28.3668  -12.3747   20.6020 C   0  0  0  0  0  0  0  0  0  0  0  0
  -22.8486  -28.9697   21.0845 C   0  0  0  0  0  0  0  0  0  0  0  0
  -21.7293  -26.0499   21.5759 C   0  0  0  0  0  0  0  0  0  0  0  0
  -30.4705  -12.3420   19.4143 C   0  0  0  0  0  0  0  0  0  0  0  0
  -27.2874  -18.5343   19.8121 C   0  0  0  0  0  0  0  0  0  0  0  0
  -27.2849  -21.0755   20.0360 C   0  0  0  0  0  0  0  0  0  0  0  0
  -30.4945  -25.6812   19.2732 C   0  0  0  0  0  0  0  0  0  0  0  0
  -24.7845  -29.5331   19.7449 C   0  0  0  0  0  0  0  0  0  0  0  0
  -29.2796  -26.3749   19.4470 C   0  0  0  0  0  0  0  0  0  0  0  0
  -24.1175  -29.5591   20.9780 C   0  0  0  0  0  0  0  0  0  0  0  0
  -21.4934  -25.2343   22.6824 C   0  0  0  0  0  0  0  0  0  0  0  0
  -27.9753  -16.1281   18.5793 C   0  0  0  0  0  0  0  0  0  0  0  0
  -22.2459  -28.3740   19.9768 C   0  0  0  0  0  0  0  0  0  0  0  0
  -20.7800  -26.9974   21.1927 C   0  0  0  0  0  0  0  0  0  1  0  0
  -28.7526  -13.9201   18.7854 C   0  0  0  0  0  0  0  0  0  0  0  0
  -29.6407  -11.8378   20.4157 C   0  0  0  0  0  0  0  0  0  0  0  0
  -30.0265  -13.3832   18.5992 C   0  0  0  0  0  0  0  0  0  0  0  0
  -26.9314  -19.7768   20.4488 C   0  0  0  0  0  0  0  0  0  0  0  0
  -26.7057  -21.9016   20.9679 C   0  0  0  0  0  0  0  0  0  0  0  0
  -28.0668  -21.4973   18.9107 C   0  0  0  0  0  0  0  0  0  0  0  0
  -27.4543  -28.9819   21.3796 C   0  0  0  0  0  0  0  0  0  0  0  0
  -26.6144  -31.7120   22.9169 C   0  0  0  0  0  0  0  0  0  0  0  0
  -24.1421  -33.8818   23.8262 C   0  0  0  0  0  0  0  0  0  0  0  0
  -22.3791  -23.3834   24.1440 C   0  0  0  0  0  0  0  0  0  0  0  0
  -31.5814  -25.7096   20.3187 C   0  0  0  0  0  0  0  0  0  0  0  0
  -26.1348  -30.1786   19.5955 C   0  0  0  0  0  0  0  0  0  0  0  0
  -24.7299  -30.1965   22.1975 C   0  0  0  0  0  0  0  0  0  0  0  0
  -31.0690  -26.1104   21.6982 C   0  0  0  0  0  0  0  0  0  0  0  0
  -24.5226  -20.8375   25.4091 C   0  0  0  0  0  0  0  0  0  0  0  0
  -30.2276  -27.3736   21.5933 C   0  0  0  0  0  0  0  0  0  0  0  0
  -25.3695  -20.4414   24.1974 C   0  0  0  0  0  0  0  0  0  0  0  0
  -23.0840  -21.1646   25.0130 C   0  0  0  0  0  0  0  0  0  0  0  0
  -23.7927  -21.7646   22.7311 C   0  0  0  0  0  0  0  0  0  0  0  0
  -28.9834  -27.1308   20.7297 C   0  0  1  0  0  0  0  0  0  0  0  0
  -26.8907  -30.2952   20.9155 C   0  0  1  0  0  0  0  0  0  0  0  0
  -25.2664  -21.4887   23.0713 C   0  0  2  0  0  0  0  0  0  0  0  0
  -23.7565  -36.0016   25.1127 C   0  0  0  0  0  0  0  0  0  0  0  0
  -26.8581  -30.1644   25.5353 C   0  0  0  0  0  0  0  0  0  0  0  0
  -25.5730  -31.9970   26.6571 C   0  0  0  0  0  0  0  0  0  0  0  0
  -27.7817  -32.4874   25.6066 C   0  0  0  0  0  0  0  0  0  0  0  0
  -23.1448  -35.2947   21.4246 C   0  0  0  0  0  0  0  0  0  0  0  0
  -25.7785  -32.0420   24.1299 C   0  0  1  0  0  0  0  0  0  0  0  0
  -24.0518  -35.3952   23.7497 C   0  0  2  0  0  0  0  0  0  0  0  0
  -26.4868  -31.6589   25.4599 C   0  0  0  0  0  0  0  0  0  0  0  0
  -26.1855  -19.7731   21.5568 N   0  0  0  0  0  0  0  0  0  0  0  0
  -26.0657  -21.0796   21.8482 N   0  0  0  0  0  0  0  0  0  0  0  0
  -26.0545  -30.8089   22.0022 N   0  0  0  0  0  0  0  0  0  0  0  0
  -23.0646  -22.1664   23.9449 N   0  0  0  0  0  0  0  0  0  0  0  0
  -26.6866  -23.2437   21.1122 N   0  0  0  0  0  0  0  0  0  0  0  0
  -28.5866  -20.5178   18.0535 N   0  0  0  0  0  0  0  0  0  0  0  0
  -22.4574  -24.2715   23.0717 N   0  0  0  0  0  0  0  0  0  0  0  0
  -28.3263  -28.3953   20.4824 N   0  0  0  0  0  0  0  0  0  0  0  0
  -25.4396  -33.4567   24.0194 N   0  0  0  0  0  0  0  0  0  0  0  0
  -22.9695  -35.8026   22.8096 N   0  3  0  0  0  0  0  0  0  0  0  0
  -28.3114  -22.7061   18.6816 O   0  0  0  0  0  0  0  0  0  0  0  0
  -27.1236  -28.5346   22.4715 O   0  0  0  0  0  0  0  0  0  0  0  0
  -27.7203  -32.2416   22.7823 O   0  0  0  0  0  0  0  0  0  0  0  0
  -23.1596  -33.1500   23.7284 O   0  0  0  0  0  0  0  0  0  0  0  0
  -21.7905  -23.6315   25.1995 O   0  0  0  0  0  0  0  0  0  0  0  0
  -28.3106  -14.9543   17.9775 O   0  0  0  0  0  0  0  0  0  0  0  0
  -21.0142  -27.8076   20.0942 O   0  0  0  0  0  0  0  0  0  1  0  0
  -30.0675  -10.8390   21.1996 F   0  0  0  0  0  0  0  0  0  0  0  0
  -30.8286  -13.8643   17.6395 F   0  0  0  0  0  0  0  0  0  0  0  0
  1  2  1  0  0  0  0
  1  6  2  0  0  0  0
  2  7  2  0  0  0  0
  3  9  1  0  0  0  0
  3 10  2  0  0  0  0
  4 11  2  0  0  0  0
  4 19  1  0  0  0  0
  5 12  1  0  0  0  0
  5 19  2  0  0  0  0
  6 21  1  0  0  0  0
  7 23  1  0  0  0  0
  8 13  2  0  0  0  0
  8 22  1  0  0  0  0
  9 25  2  0  0  0  0
 10 28  1  0  0  0  0
 11 26  1  0  0  0  0
 12 26  2  0  0  0  0
 13 27  1  0  0  0  0
 14 15  2  0  0  0  0
 14 29  1  0  0  0  0
 15 30  1  0  0  0  0
 16 24  1  0  0  0  0
 16 27  2  0  0  0  0
 17 25  1  0  0  0  0
 17 28  2  0  0  0  0
 18 30  2  0  0  0  0
 18 31  1  0  0  0  0
 19 32  1  0  0  0  0
 20 32  1  0  0  0  0
 20 33  2  0  0  0  0
 20 34  1  0  0  0  0
 21 23  2  0  0  0  0
 21 39  1  0  0  0  0
 22 24  2  0  0  0  0
 22 40  1  0  0  0  0
 23 48  1  0  0  0  0
 24 41  1  0  0  0  0
 25 65  1  0  0  0  0
 26 74  1  0  0  0  0
 27 75  1  0  0  0  0
 28 75  1  0  0  0  0
 29 31  2  0  0  0  0
 29 74  1  0  0  0  0
 30 76  1  0  0  0  0
 31 77  1  0  0  0  0
 32 59  2  0  0  0  0
 33 60  1  0  0  0  0
 33 63  1  0  0  0  0
 34 64  1  0  0  0  0
 34 69  2  0  0  0  0
 35 49  1  0  0  0  0
 35 66  1  0  0  0  0
 35 70  2  0  0  0  0
 36 56  1  0  0  0  0
 36 61  1  0  0  0  0
 36 71  2  0  0  0  0
 37 57  1  0  0  0  0
 37 67  1  0  0  0  0
 37 72  2  0  0  0  0
 38 62  1  0  0  0  0
 38 65  1  0  0  0  0
 38 73  2  0  0  0  0
 39 42  1  0  0  0  0
 40 49  1  0  0  0  0
 41 61  1  0  0  0  0
 42 44  1  0  0  0  0
 43 45  1  0  0  0  0
 43 46  1  0  0  0  0
 44 48  1  0  0  0  0
 45 50  1  0  0  0  0
 46 62  1  0  0  0  0
 47 50  1  0  0  0  0
 47 62  1  0  0  0  0
 48 66  1  0  0  0  0
 49 61  1  0  0  0  0
 50 60  1  0  0  0  0
 51 57  1  0  0  0  0
 52 58  1  0  0  0  0
 53 58  1  0  0  0  0
 54 58  1  0  0  0  0
 55 68  1  0  0  0  0
 56 58  1  0  0  0  0
 56 67  1  0  0  0  0
 57 68  1  0  0  0  0
 59 60  1  0  0  0  0
M  CHG  1  68   1
M  ISO  4  28 101  38 100  65 100  75 101
M  END
> <Batch ID>
0002

> <Smiles>
CNC(C)C(=O)NC(C(=O)N1Cc2cc([101O:1][101c:1]3cccc([100NH:0][100C:0](=O)N4CCCC(n5nc(-c6ccc(Oc7ccc(F)cc7F)cc6)c(C(N)=O)c5N)C4)c3)ccc2CC1C(=O)NC1CCCc2ccccc21)C(C)(C)C

> <Shape>
0.291

> <Color>
0.082

> <Negative vol penalty>
0.000

$$$$

  -OEChem-04052315183D

 85 93  0     1  0  0  0  0  0999 V2000
  -22.0471  -16.0190   23.5296 C   0  0  0  0  0  0  0  0  0  0  0  0
  -23.2163  -16.7426   23.3178 C   0  0  0  0  0  0  0  0  0  0  0  0
  -24.1890  -10.0418   22.2100 C   0  0  0  0  0  0  0  0  0  0  0  0
  -24.5447  -11.5015   24.1021 C   0  0  0  0  0  0  0  0  0  0  0  0
  -20.8168  -16.5602   23.1588 C   0  0  0  0  0  0  0  0  0  0  0  0
  -23.1559  -18.0075   22.7341 C   0  0  0  0  0  0  0  0  0  0  0  0
  -26.7541  -22.8070   23.9683 C   0  0  0  0  0  0  0  0  0  0  0  0
  -30.3107  -19.6723   19.8673 C   0  0  0  0  0  0  0  0  0  0  0  0
  -23.7572   -9.0322   23.0701 C   0  0  0  0  0  0  0  0  0  0  0  0
  -24.1129  -10.4919   24.9622 C   0  0  0  0  0  0  0  0  0  0  0  0
  -27.8808  -23.3234   23.3297 C   0  0  0  0  0  0  0  0  0  0  0  0
  -30.3986  -21.0295   19.5580 C   0  0  0  0  0  0  0  0  0  0  0  0
  -22.2190   -6.1920   24.7382 C   0  0  0  0  0  0  0  0  0  0  0  0
  -21.0702   -5.4849   24.3832 C   0  0  0  0  0  0  0  0  0  0  0  0
  -26.4847  -24.9028   22.1568 C   0  0  0  0  0  0  0  0  0  0  0  0
  -28.0193  -21.0890   19.1424 C   0  0  0  0  0  0  0  0  0  0  0  0
  -19.7957   -7.5371   24.4200 C   0  0  0  0  0  0  0  0  0  0  0  0
  -24.5828  -11.2765   22.7260 C   0  0  0  0  0  0  0  0  0  0  0  0
  -24.2390  -13.3092   21.2235 C   0  0  0  0  0  0  0  0  0  0  0  0
  -20.7405  -17.8364   22.5791 C   0  0  0  0  0  0  0  0  0  0  0  0
  -25.4808  -23.3283   23.6972 C   0  0  0  0  0  0  0  0  0  0  0  0
  -21.9236  -18.5658   22.3540 C   0  0  0  0  0  0  0  0  0  0  0  0
  -25.3438  -24.3930   22.7951 C   0  0  0  0  0  0  0  0  0  0  0  0
  -27.9314  -19.7317   19.4517 C   0  0  0  0  0  0  0  0  0  0  0  0
  -29.0771  -19.0233   19.8142 C   0  0  0  0  0  0  0  0  0  0  0  0
  -23.7192   -9.2572   24.4462 C   0  0  0  0  0  0  0  0  0  0  0  0
  -27.7459  -24.3696   22.4217 C   0  0  0  0  0  0  0  0  0  0  0  0
  -29.2530  -21.7379   19.1955 C   0  0  0  0  0  0  0  0  0  0  0  0
  -22.1561   -7.5716   24.9342 C   0  0  0  0  0  0  0  0  0  0  0  0
  -19.8586   -6.1575   24.2241 C   0  0  0  0  0  0  0  0  0  0  0  0
  -20.9445   -8.2442   24.7750 C   0  0  0  0  0  0  0  0  0  0  0  0
  -25.0295  -12.3196   21.8381 C   0  0  0  0  0  0  0  0  0  0  0  0
  -25.1291  -14.0503   20.4854 C   0  0  0  0  0  0  0  0  0  0  0  0
  -22.8264  -13.5380   21.3120 C   0  0  0  0  0  0  0  0  0  0  0  0
  -22.7901  -22.1556   22.4771 C   0  0  0  0  0  0  0  0  0  0  0  0
  -21.6115  -25.0663   23.2903 C   0  0  0  0  0  0  0  0  0  0  0  0
  -22.2229  -28.3584   23.9496 C   0  0  0  0  0  0  0  0  0  0  0  0
  -30.0048  -16.6849   19.9470 C   0  0  0  0  0  0  0  0  0  0  0  0
  -19.3923  -18.3600   22.1515 C   0  0  0  0  0  0  0  0  0  0  0  0
  -24.2786  -22.7780   24.4144 C   0  0  0  0  0  0  0  0  0  0  0  0
  -24.0015  -25.0015   22.4846 C   0  0  0  0  0  0  0  0  0  0  0  0
  -19.3799  -19.8625   21.8821 C   0  0  0  0  0  0  0  0  0  0  0  0
  -29.9796  -13.1784   19.3300 C   0  0  0  0  0  0  0  0  0  0  0  0
  -20.5785  -20.2615   21.0270 C   0  0  0  0  0  0  0  0  0  0  0  0
  -28.6244  -12.7238   19.8769 C   0  0  0  0  0  0  0  0  0  0  0  0
  -30.5953  -14.2831   20.1868 C   0  0  0  0  0  0  0  0  0  0  0  0
  -28.3693  -14.9862   20.9740 C   0  0  0  0  0  0  0  0  0  0  0  0
  -21.8969  -19.9514   21.7461 C   0  0  1  0  0  0  0  0  0  0  0  0
  -22.9698  -23.0426   23.6766 C   0  0  1  0  0  0  0  0  0  0  0  0
  -27.6798  -13.9197   20.1074 C   0  0  2  0  0  0  0  0  0  0  0  0
  -21.0550  -30.4977   24.5471 C   0  0  0  0  0  0  0  0  0  0  0  0
  -20.6484  -25.3425   20.4083 C   0  0  0  0  0  0  0  0  0  0  0  0
  -20.3646  -27.7971   20.8119 C   0  0  0  0  0  0  0  0  0  0  0  0
  -19.0288  -26.1552   22.1319 C   0  0  0  0  0  0  0  0  0  0  0  0
  -23.7030  -28.5893   26.5021 C   0  0  0  0  0  0  0  0  0  0  0  0
  -29.9345  -25.2680   19.6805 C   0  0  0  0  0  0  0  0  0  0  0  0
  -28.6556  -25.4163   20.4897 C   0  0  0  0  0  0  0  0  0  1  0  0
  -30.3586  -23.8137   19.5482 C   0  0  0  0  0  0  0  0  0  0  0  0
  -21.5004  -26.4051   22.6017 C   0  0  1  0  0  0  0  0  0  0  0  0
  -21.7630  -29.2617   25.0797 C   0  0  2  0  0  0  0  0  0  0  0  0
  -26.5969  -19.0627   19.3861 C   0  0  0  0  0  0  0  0  0  0  0  0
  -20.4108  -26.4124   21.4926 C   0  0  0  0  0  0  0  0  0  0  0  0
  -26.3223  -12.4202   21.5181 N   0  0  0  0  0  0  0  0  0  0  0  0
  -26.3510  -13.4816   20.6943 N   0  0  0  0  0  0  0  0  0  0  0  0
  -22.8554  -24.4247   23.2065 N   0  0  0  0  0  0  0  0  0  0  0  0
  -29.6451  -15.3842   20.3588 N   0  0  0  0  0  0  0  0  0  0  0  0
  -24.9780  -15.1265   19.6844 N   0  0  0  0  0  0  0  0  0  0  0  0
  -22.0599  -12.6826   22.1151 N   0  0  0  0  0  0  0  0  0  0  0  0
  -29.0089  -17.6437   20.1300 N   0  0  0  0  0  0  0  0  0  0  0  0
  -22.1699  -20.9525   22.7550 N   0  0  0  0  0  0  0  0  0  0  0  0
  -21.2861  -27.3900   23.6564 N   0  0  0  0  0  0  0  0  0  0  0  0
  -22.9284  -29.7032   25.8969 N   0  3  0  0  0  0  0  0  0  0  0  0
  -22.2581  -14.4634   20.6840 O   0  0  0  0  0  0  0  0  0  0  0  0
  -23.1837  -22.5353   21.3805 O   0  0  0  0  0  0  0  0  0  0  0  0
  -20.6329  -24.6099   23.8868 O   0  0  0  0  0  0  0  0  0  0  0  0
  -23.3033  -28.5002   23.3812 O   0  0  0  0  0  0  0  0  0  0  0  0
  -31.1046  -16.9250   19.4423 O   0  0  0  0  0  0  0  0  0  0  0  0
  -23.2977   -8.2723   25.2858 O   0  0  0  0  0  0  0  0  0  0  0  0
  -28.8439  -24.8750   21.7966 O   0  0  0  0  0  0  0  0  0  1  0  0
  -29.3393  -23.0717   18.8922 O   0  0  0  0  0  0  0  0  0  0  0  0
  -18.7559   -5.4786   23.8817 F   0  0  0  0  0  0  0  0  0  0  0  0
  -20.8782   -9.5697   24.9608 F   0  0  0  0  0  0  0  0  0  0  0  0
  -25.5853  -19.9006   19.0152 F   0  0  0  0  0  0  0  0  0  0  0  0
  -26.5500  -18.0285   18.4969 F   0  0  0  0  0  0  0  0  0  0  0  0
  -26.2175  -18.5354   20.5852 F   0  0  0  0  0  0  0  0  0  0  0  0
  1  2  1  0  0  0  0
  1  5  2  0  0  0  0
  2  6  2  0  0  0  0
  3  9  2  0  0  0  0
  3 18  1  0  0  0  0
  4 10  1  0  0  0  0
  4 18  2  0  0  0  0
  5 20  1  0  0  0  0
  6 22  1  0  0  0  0
  7 11  2  0  0  0  0
  7 21  1  0  0  0  0
  8 12  2  0  0  0  0
  8 25  1  0  0  0  0
  9 26  1  0  0  0  0
 10 26  2  0  0  0  0
 11 27  1  0  0  0  0
 12 28  1  0  0  0  0
 13 14  2  0  0  0  0
 13 29  1  0  0  0  0
 14 30  1  0  0  0  0
 15 23  1  0  0  0  0
 15 27  2  0  0  0  0
 16 24  1  0  0  0  0
 16 28  2  0  0  0  0
 17 30  2  0  0  0  0
 17 31  1  0  0  0  0
 18 32  1  0  0  0  0
 19 32  1  0  0  0  0
 19 33  2  0  0  0  0
 19 34  1  0  0  0  0
 20 22  2  0  0  0  0
 20 39  1  0  0  0  0
 21 23  2  0  0  0  0
 21 40  1  0  0  0  0
 22 48  1  0  0  0  0
 23 41  1  0  0  0  0
 24 25  2  0  0  0  0
 24 61  1  0  0  0  0
 25 69  1  0  0  0  0
 26 78  1  0  0  0  0
 27 79  1  0  0  0  0
 28 80  1  0  0  0  0
 29 31  2  0  0  0  0
 29 78  1  0  0  0  0
 30 81  1  0  0  0  0
 31 82  1  0  0  0  0
 32 63  2  0  0  0  0
 33 64  1  0  0  0  0
 33 67  1  0  0  0  0
 34 68  1  0  0  0  0
 34 73  2  0  0  0  0
 35 49  1  0  0  0  0
 35 70  1  0  0  0  0
 35 74  2  0  0  0  0
 36 59  1  0  0  0  0
 36 65  1  0  0  0  0
 36 75  2  0  0  0  0
 37 60  1  0  0  0  0
 37 71  1  0  0  0  0
 37 76  2  0  0  0  0
 38 66  1  0  0  0  0
 38 69  1  0  0  0  0
 38 77  2  0  0  0  0
 39 42  1  0  0  0  0
 40 49  1  0  0  0  0
 41 65  1  0  0  0  0
 42 44  1  0  0  0  0
 43 45  1  0  0  0  0
 43 46  1  0  0  0  0
 44 48  1  0  0  0  0
 45 50  1  0  0  0  0
 46 66  1  0  0  0  0
 47 50  1  0  0  0  0
 47 66  1  0  0  0  0
 48 70  1  0  0  0  0
 49 65  1  0  0  0  0
 50 64  1  0  0  0  0
 51 60  1  0  0  0  0
 52 62  1  0  0  0  0
 53 62  1  0  0  0  0
 54 62  1  0  0  0  0
 55 72  1  0  0  0  0
 56 57  1  0  0  0  0
 56 58  1  0  0  0  0
 57 79  1  0  0  0  0
 58 80  1  0  0  0  0
 59 62  1  0  0  0  0
 59 71  1  0  0  0  0
 60 72  1  0  0  0  0
 61 83  1  0  0  0  0
 61 84  1  0  0  0  0
 61 85  1  0  0  0  0
 63 64  1  0  0  0  0
M  CHG  1  72   1
M  ISO  4  38 100  57 101  69 100  79 101
M  END
> <Batch ID>
0002

> <Smiles>
CNC(C)C(=O)NC(C(=O)N1Cc2cc([101O:1][101CH2:1]CCOc3ccc([100NH:0][100C:0](=O)N4CCCC(n5nc(-c6ccc(Oc7ccc(F)cc7F)cc6)c(C(N)=O)c5N)C4)c(C(F)(F)F)c3)ccc2CC1C(=O)NC1CCCc2ccccc21)C(C)(C)C

> <Shape>
0.211

> <Color>
0.120

> <Negative vol penalty>
0.000

$$$$

  -OEChem-04052315183D

 80 87  0     1  0  0  0  0  0999 V2000
  -28.8837  -36.9429   21.7664 C   0  0  0  0  0  0  0  0  0  0  0  0
  -29.1243  -35.6866   21.2195 C   0  0  0  0  0  0  0  0  0  0  0  0
  -27.3200  -11.6247   20.6842 C   0  0  0  0  0  0  0  0  0  0  0  0
  -26.8401  -13.0424   18.7877 C   0  0  0  0  0  0  0  0  0  0  0  0
  -28.0770  -37.0671   22.8968 C   0  0  0  0  0  0  0  0  0  0  0  0
  -28.5592  -34.5534   21.8035 C   0  0  0  0  0  0  0  0  0  0  0  0
  -26.5819  -29.5243   18.9218 C   0  0  0  0  0  0  0  0  0  0  0  0
  -26.1781  -10.8719   20.4104 C   0  0  0  0  0  0  0  0  0  0  0  0
  -25.6982  -12.2896   18.5139 C   0  0  0  0  0  0  0  0  0  0  0  0
  -27.1653  -28.2766   18.7056 C   0  0  0  0  0  0  0  0  0  0  0  0
  -22.8430  -11.1428   20.8879 C   0  0  0  0  0  0  0  0  0  0  0  0
  -22.0153  -10.8089   21.9598 C   0  0  0  0  0  0  0  0  0  0  0  0
  -26.0057  -27.4070   20.6339 C   0  0  0  0  0  0  0  0  0  0  0  0
  -22.3635   -8.4631   21.4982 C   0  0  0  0  0  0  0  0  0  0  0  0
  -27.6510  -12.7100   19.8729 C   0  0  0  0  0  0  0  0  0  0  0  0
  -30.1309  -13.2704   19.6633 C   0  0  0  0  0  0  0  0  0  0  0  0
  -27.4939  -35.9358   23.4892 C   0  0  0  0  0  0  0  0  0  0  0  0
  -25.7131  -29.7259   20.0039 C   0  0  0  0  0  0  0  0  0  0  0  0
  -27.7451  -34.6624   22.9437 C   0  0  0  0  0  0  0  0  0  0  0  0
  -25.4106  -28.6575   20.8602 C   0  0  0  0  0  0  0  0  0  0  0  0
  -25.3673  -11.2043   19.3252 C   0  0  0  0  0  0  0  0  0  0  0  0
  -26.8794  -27.2185   19.5634 C   0  0  0  0  0  0  0  0  0  0  0  0
  -23.4309  -10.1368   20.1210 C   0  0  0  0  0  0  0  0  0  0  0  0
  -21.7756   -9.4692   22.2650 C   0  0  0  0  0  0  0  0  0  0  0  0
  -23.1912   -8.7970   20.4262 C   0  0  0  0  0  0  0  0  0  0  0  0
  -28.8301  -13.4884   20.1556 C   0  0  0  0  0  0  0  0  0  0  0  0
  -30.8825  -14.2746   20.2227 C   0  0  0  0  0  0  0  0  0  0  0  0
  -30.6162  -12.2513   18.7792 C   0  0  0  0  0  0  0  0  0  0  0  0
  -25.7379  -31.5809   22.5850 C   0  0  0  0  0  0  0  0  0  0  0  0
  -22.7488  -30.3885   22.9925 C   0  0  0  0  0  0  0  0  0  0  0  0
  -20.5220  -27.8775   22.3738 C   0  0  0  0  0  0  0  0  0  0  0  0
  -31.7280  -19.4115   21.5858 C   0  0  0  0  0  0  0  0  0  0  0  0
  -26.6675  -36.1149   24.7381 C   0  0  0  0  0  0  0  0  0  0  0  0
  -25.0711  -31.0708   20.2078 C   0  0  0  0  0  0  0  0  0  0  0  0
  -24.4685  -28.8167   22.0245 C   0  0  0  0  0  0  0  0  0  0  0  0
  -25.8020  -34.9034   25.0747 C   0  0  0  0  0  0  0  0  0  0  0  0
  -29.7912  -17.5668   23.8917 C   0  0  0  0  0  0  0  0  0  0  0  0
  -26.6163  -33.6183   24.9640 C   0  0  0  0  0  0  0  0  0  0  0  0
  -29.4625  -16.3158   23.0783 C   0  0  0  0  0  0  0  0  0  0  0  0
  -29.7301  -18.8373   23.0418 C   0  0  0  0  0  0  0  0  0  0  0  0
  -30.2309  -17.5268   21.0036 C   0  0  0  0  0  0  0  0  0  0  0  0
  -27.1298  -33.4120   23.5338 C   0  0  1  0  0  0  0  0  0  0  0  0
  -24.6029  -31.2982   21.6418 C   0  0  1  0  0  0  0  0  0  0  0  0
  -30.3439  -16.2303   21.8202 C   0  0  2  0  0  0  0  0  0  0  0  0
  -18.1676  -27.1655   22.8712 C   0  0  0  0  0  0  0  0  0  0  0  0
  -23.5925  -29.5752   25.8097 C   0  0  0  0  0  0  0  0  0  0  0  0
  -21.5927  -28.0716   25.8993 C   0  0  0  0  0  0  0  0  0  0  0  0
  -21.2887  -30.5346   25.6467 C   0  0  0  0  0  0  0  0  0  0  0  0
  -19.7852  -27.9039   19.5075 C   0  0  0  0  0  0  0  0  0  0  0  0
  -29.1834  -23.4056   21.4750 C   0  0  0  0  0  0  0  0  0  0  0  0
  -30.3640  -22.4681   21.2049 C   0  0  0  0  0  0  0  0  0  0  0  0
  -28.8819  -24.2809   20.2599 C   0  0  0  0  0  0  0  0  0  0  0  0
  -33.8506  -21.0190   23.5350 C   0  0  0  0  0  0  0  0  0  0  0  0
  -30.6835  -21.5699   22.3953 C   0  0  0  0  0  0  0  0  0  0  0  0
  -33.1333  -21.3333   22.2265 C   0  0  0  0  0  0  0  0  0  0  0  0
  -35.2056  -21.7086   23.6305 C   0  0  0  0  0  0  0  0  0  0  0  0
  -27.6829  -25.1876   20.5045 C   0  0  0  0  0  0  0  0  0  1  0  0
  -22.1636  -29.1871   23.6946 C   0  0  1  0  0  0  0  0  0  0  0  0
  -19.0790  -27.9041   21.9033 C   0  0  2  0  0  0  0  0  0  0  0  0
  -22.1787  -29.3393   25.2419 C   0  0  0  0  0  0  0  0  0  0  0  0
  -28.7562  -14.5478   20.9656 N   0  0  0  0  0  0  0  0  0  0  0  0
  -30.0200  -15.0044   20.9867 N   0  0  0  0  0  0  0  0  0  0  0  0
  -23.8710  -30.1525   22.1858 N   0  0  0  0  0  0  0  0  0  0  0  0
  -30.5466  -18.6955   21.8286 N   0  0  0  0  0  0  0  0  0  0  0  0
  -32.1905  -14.5957   20.1309 N   0  0  0  0  0  0  0  0  0  0  0  0
  -29.7093  -11.2978   18.2968 N   0  0  0  0  0  0  0  0  0  0  0  0
  -26.0687  -32.9190   22.6820 N   0  0  0  0  0  0  0  0  0  0  0  0
  -20.8344  -28.9897   23.1266 N   0  0  0  0  0  0  0  0  0  0  0  0
  -31.8270  -20.6953   22.1431 N   0  0  0  0  0  0  0  0  0  0  0  0
  -35.8167  -21.3947   24.9451 N   0  3  0  0  0  0  0  0  0  0  0  0
  -18.9591  -27.2634   20.5631 N   0  3  0  0  0  0  0  0  0  0  0  0
  -31.8218  -12.1784   18.4404 O   0  0  0  0  0  0  0  0  0  0  0  0
  -26.2728  -30.6538   23.1817 O   0  0  0  0  0  0  0  0  0  0  0  0
  -22.2251  -31.4945   23.1482 O   0  0  0  0  0  0  0  0  0  0  0  0
  -21.2938  -26.9599   22.1038 O   0  0  0  0  0  0  0  0  0  0  0  0
  -32.6424  -18.9343   20.9015 O   0  0  0  0  0  0  0  0  0  0  0  0
  -24.2531  -10.4698   19.0576 O   0  0  0  0  0  0  0  0  0  0  0  0
  -27.4480  -25.9998   19.3550 O   0  0  0  0  0  0  0  0  0  1  0  0
  -20.9819   -9.1487   23.2954 F   0  0  0  0  0  0  0  0  0  0  0  0
  -23.7542   -7.8261   19.6938 F   0  0  0  0  0  0  0  0  0  0  0  0
  1  2  1  0  0  0  0
  1  5  2  0  0  0  0
  2  6  2  0  0  0  0
  3  8  2  0  0  0  0
  3 15  1  0  0  0  0
  4  9  1  0  0  0  0
  4 15  2  0  0  0  0
  5 17  1  0  0  0  0
  6 19  1  0  0  0  0
  7 10  2  0  0  0  0
  7 18  1  0  0  0  0
  8 21  1  0  0  0  0
  9 21  2  0  0  0  0
 10 22  1  0  0  0  0
 11 12  2  0  0  0  0
 11 23  1  0  0  0  0
 12 24  1  0  0  0  0
 13 20  1  0  0  0  0
 13 22  2  0  0  0  0
 14 24  2  0  0  0  0
 14 25  1  0  0  0  0
 15 26  1  0  0  0  0
 16 26  1  0  0  0  0
 16 27  2  0  0  0  0
 16 28  1  0  0  0  0
 17 19  2  0  0  0  0
 17 33  1  0  0  0  0
 18 20  2  0  0  0  0
 18 34  1  0  0  0  0
 19 42  1  0  0  0  0
 20 35  1  0  0  0  0
 21 77  1  0  0  0  0
 22 78  1  0  0  0  0
 23 25  2  0  0  0  0
 23 77  1  0  0  0  0
 24 79  1  0  0  0  0
 25 80  1  0  0  0  0
 26 61  2  0  0  0  0
 27 62  1  0  0  0  0
 27 65  1  0  0  0  0
 28 66  1  0  0  0  0
 28 72  2  0  0  0  0
 29 43  1  0  0  0  0
 29 67  1  0  0  0  0
 29 73  2  0  0  0  0
 30 58  1  0  0  0  0
 30 63  1  0  0  0  0
 30 74  2  0  0  0  0
 31 59  1  0  0  0  0
 31 68  1  0  0  0  0
 31 75  2  0  0  0  0
 32 64  1  0  0  0  0
 32 69  1  0  0  0  0
 32 76  2  0  0  0  0
 33 36  1  0  0  0  0
 34 43  1  0  0  0  0
 35 63  1  0  0  0  0
 36 38  1  0  0  0  0
 37 39  1  0  0  0  0
 37 40  1  0  0  0  0
 38 42  1  0  0  0  0
 39 44  1  0  0  0  0
 40 64  1  0  0  0  0
 41 44  1  0  0  0  0
 41 64  1  0  0  0  0
 42 67  1  0  0  0  0
 43 63  1  0  0  0  0
 44 62  1  0  0  0  0
 45 59  1  0  0  0  0
 46 60  1  0  0  0  0
 47 60  1  0  0  0  0
 48 60  1  0  0  0  0
 49 71  1  0  0  0  0
 50 51  1  0  0  0  0
 50 52  1  0  0  0  0
 51 54  1  0  0  0  0
 52 57  1  0  0  0  0
 53 55  1  0  0  0  0
 53 56  1  0  0  0  0
 54 69  1  0  0  0  0
 55 69  1  0  0  0  0
 56 70  1  0  0  0  0
 57 78  1  0  0  0  0
 58 60  1  0  0  0  0
 58 68  1  0  0  0  0
 59 71  1  0  0  0  0
 61 62  1  0  0  0  0
M  CHG  2  70   1  71   1
M  ISO  4  32 100  57 101  69 100  78 101
M  END
> <Batch ID>
0002

> <Smiles>
CNC(C)C(=O)NC(C(=O)N1Cc2cc([101O:1][101CH2:1]CCCC[100N:0](CCCN)[100C:0](=O)N3CCCC(n4nc(-c5ccc(Oc6ccc(F)cc6F)cc5)c(C(N)=O)c4N)C3)ccc2CC1C(=O)NC1CCCc2ccccc21)C(C)(C)C

> <Shape>
0.302

> <Color>
0.076

> <Negative vol penalty>
0.000

$$$$

  -OEChem-04052315183D

 78 86  0     1  0  0  0  0  0999 V2000
  -26.7739  -32.6995   28.1675 C   0  0  0  0  0  0  0  0  0  0  0  0
  -27.2042  -31.6974   27.3039 C   0  0  0  0  0  0  0  0  0  0  0  0
  -27.9925  -22.3141   16.9447 C   0  0  0  0  0  0  0  0  0  0  0  0
  -26.5064  -12.7174   21.6170 C   0  0  0  0  0  0  0  0  0  0  0  0
  -26.0125  -13.7464   19.4877 C   0  0  0  0  0  0  0  0  0  0  0  0
  -25.4236  -33.0436   28.2165 C   0  0  0  0  0  0  0  0  0  0  0  0
  -26.2843  -31.0379   26.4894 C   0  0  0  0  0  0  0  0  0  0  0  0
  -27.2352  -28.9309   20.8182 C   0  0  0  0  0  0  0  0  0  0  0  0
  -27.8815  -23.5924   17.4918 C   0  0  0  0  0  0  0  0  0  0  0  0
  -28.5263  -21.2739   17.7054 C   0  0  0  0  0  0  0  0  0  0  0  0
  -25.2502  -12.1112   21.6155 C   0  0  0  0  0  0  0  0  0  0  0  0
  -24.7563  -13.1402   19.4860 C   0  0  0  0  0  0  0  0  0  0  0  0
  -27.5382  -27.6615   20.3277 C   0  0  0  0  0  0  0  0  0  0  0  0
  -23.7752   -9.4401   20.1584 C   0  0  0  0  0  0  0  0  0  0  0  0
  -23.7052   -8.0929   20.5128 C   0  0  0  0  0  0  0  0  0  0  0  0
  -25.1982  -27.2824   19.8806 C   0  0  0  0  0  0  0  0  0  0  0  0
  -28.8381  -22.7902   19.5602 C   0  0  0  0  0  0  0  0  0  0  0  0
  -22.2435   -8.6529   22.3531 C   0  0  0  0  0  0  0  0  0  0  0  0
  -26.8875  -13.5351   20.5531 C   0  0  0  0  0  0  0  0  0  0  0  0
  -29.3811  -13.6417   20.0253 C   0  0  0  0  0  0  0  0  0  0  0  0
  -24.4882  -32.3946   27.3953 C   0  0  0  0  0  0  0  0  0  0  0  0
  -25.9080  -29.3822   20.8538 C   0  0  0  0  0  0  0  0  0  0  0  0
  -24.9201  -31.3726   26.5285 C   0  0  0  0  0  0  0  0  0  0  0  0
  -24.8813  -28.5589   20.3697 C   0  0  0  0  0  0  0  0  0  0  0  0
  -28.3043  -23.8305   18.7995 C   0  0  0  0  0  0  0  0  0  0  0  0
  -28.9491  -21.5119   19.0131 C   0  0  0  0  0  0  0  0  0  0  0  0
  -24.3751  -12.3225   20.5500 C   0  0  0  0  0  0  0  0  0  0  0  0
  -26.5193  -26.8359   19.8615 C   0  0  0  0  0  0  0  0  0  0  0  0
  -23.0795  -10.3938   20.9015 C   0  0  0  0  0  0  0  0  0  0  0  0
  -22.9393   -7.6992   21.6101 C   0  0  0  0  0  0  0  0  0  0  0  0
  -22.3136  -10.0001   21.9988 C   0  0  0  0  0  0  0  0  0  0  0  0
  -28.1848  -14.1621   20.5545 C   0  0  0  0  0  0  0  0  0  0  0  0
  -30.3189  -14.6133   20.2763 C   0  0  0  0  0  0  0  0  0  0  0  0
  -29.6229  -12.3918   19.3657 C   0  0  0  0  0  0  0  0  0  0  0  0
  -23.8999  -30.2656   23.1541 C   0  0  0  0  0  0  0  0  0  0  0  0
  -21.9913  -31.0484   20.6508 C   0  0  0  0  0  0  0  0  0  0  0  0
  -21.1684  -30.5681   17.3737 C   0  0  0  0  0  0  0  0  0  0  0  0
  -29.9572  -20.5208   21.0983 C   0  0  0  0  0  0  0  0  0  0  0  0
  -23.0321  -32.7683   27.5176 C   0  0  0  0  0  0  0  0  0  0  0  0
  -25.6007  -30.7644   21.3612 C   0  0  0  0  0  0  0  0  0  0  0  0
  -23.4424  -29.0040   20.3674 C   0  0  0  0  0  0  0  0  0  0  0  0
  -22.1777  -32.2795   26.3509 C   0  0  0  0  0  0  0  0  0  0  0  0
  -31.3281  -18.1363   23.3592 C   0  0  0  0  0  0  0  0  0  0  0  0
  -22.4919  -30.8209   26.0335 C   0  0  0  0  0  0  0  0  0  0  0  0
  -30.7915  -16.7986   22.8447 C   0  0  0  0  0  0  0  0  0  0  0  0
  -30.2992  -19.2555   23.2095 C   0  0  0  0  0  0  0  0  0  0  0  0
  -29.2062  -18.0732   21.3449 C   0  0  0  0  0  0  0  0  0  0  0  0
  -23.9563  -30.6512   25.6115 C   0  0  1  0  0  0  0  0  0  0  0  0
  -24.1568  -30.9225   21.8274 C   0  0  1  0  0  0  0  0  0  0  0  0
  -30.2305  -16.9288   21.4151 C   0  0  2  0  0  0  0  0  0  0  0  0
  -19.5398  -31.3237   15.6205 C   0  0  0  0  0  0  0  0  0  0  0  0
  -19.8198  -29.3285   21.9301 C   0  0  0  0  0  0  0  0  0  0  0  0
  -18.6126  -29.3443   19.7367 C   0  0  0  0  0  0  0  0  0  0  0  0
  -19.0056  -31.4839   20.9576 C   0  0  0  0  0  0  0  0  0  0  0  0
  -23.3324  -31.6255   15.6538 C   0  0  0  0  0  0  0  0  0  0  0  0
  -28.1847  -25.2057   19.3875 C   0  0  0  0  0  0  0  0  0  1  0  0
  -20.9499  -30.3236   19.8328 C   0  0  1  0  0  0  0  0  0  0  0  0
  -20.9071  -31.5505   16.2463 C   0  0  2  0  0  0  0  0  0  0  0  0
  -19.6238  -30.1106   20.6160 C   0  0  0  0  0  0  0  0  0  0  0  0
  -28.3453  -15.3704   21.1006 N   0  0  0  0  0  0  0  0  0  0  0  0
  -29.6533  -15.6173   20.9160 N   0  0  0  0  0  0  0  0  0  0  0  0
  -23.1921  -30.3615   20.8793 N   0  0  0  0  0  0  0  0  0  0  0  0
  -29.8156  -19.3219   21.8287 N   0  0  0  0  0  0  0  0  0  0  0  0
  -31.6396  -14.6981   20.0102 N   0  0  0  0  0  0  0  0  0  0  0  0
  -28.5477  -11.5102   19.1899 N   0  0  0  0  0  0  0  0  0  0  0  0
  -29.4906  -20.4548   19.7858 N   0  0  0  0  0  0  0  0  0  0  0  0
  -24.1410  -31.0823   24.2423 N   0  0  0  0  0  0  0  0  0  0  0  0
  -20.7987  -31.0848   18.5974 N   0  0  0  0  0  0  0  0  0  0  0  0
  -21.9408  -31.4053   15.1827 N   0  3  0  0  0  0  0  0  0  0  0  0
  -30.7622  -12.0595   18.9593 O   0  0  0  0  0  0  0  0  0  0  0  0
  -23.5105  -29.1042   23.1878 O   0  0  0  0  0  0  0  0  0  0  0  0
  -21.7511  -32.1850   21.0655 O   0  0  0  0  0  0  0  0  0  0  0  0
  -21.6488  -29.4523   17.1870 O   0  0  0  0  0  0  0  0  0  0  0  0
  -30.4803  -21.5233   21.5915 O   0  0  0  0  0  0  0  0  0  0  0  0
  -23.1494  -11.7309   20.5480 O   0  0  0  0  0  0  0  0  0  0  0  0
  -26.8122  -25.5962   19.3828 O   0  0  0  0  0  0  0  0  0  1  0  0
  -22.8709   -6.4052   21.9493 F   0  0  0  0  0  0  0  0  0  0  0  0
  -21.6420  -10.9116   22.7158 F   0  0  0  0  0  0  0  0  0  0  0  0
  1  2  1  0  0  0  0
  1  6  2  0  0  0  0
  2  7  2  0  0  0  0
  3  9  2  0  0  0  0
  3 10  1  0  0  0  0
  4 11  2  0  0  0  0
  4 19  1  0  0  0  0
  5 12  1  0  0  0  0
  5 19  2  0  0  0  0
  6 21  1  0  0  0  0
  7 23  1  0  0  0  0
  8 13  2  0  0  0  0
  8 22  1  0  0  0  0
  9 25  1  0  0  0  0
 10 26  2  0  0  0  0
 11 27  1  0  0  0  0
 12 27  2  0  0  0  0
 13 28  1  0  0  0  0
 14 15  2  0  0  0  0
 14 29  1  0  0  0  0
 15 30  1  0  0  0  0
 16 24  1  0  0  0  0
 16 28  2  0  0  0  0
 17 25  2  0  0  0  0
 17 26  1  0  0  0  0
 18 30  2  0  0  0  0
 18 31  1  0  0  0  0
 19 32  1  0  0  0  0
 20 32  1  0  0  0  0
 20 33  2  0  0  0  0
 20 34  1  0  0  0  0
 21 23  2  0  0  0  0
 21 39  1  0  0  0  0
 22 24  2  0  0  0  0
 22 40  1  0  0  0  0
 23 48  1  0  0  0  0
 24 41  1  0  0  0  0
 25 56  1  0  0  0  0
 26 66  1  0  0  0  0
 27 75  1  0  0  0  0
 28 76  1  0  0  0  0
 29 31  2  0  0  0  0
 29 75  1  0  0  0  0
 30 77  1  0  0  0  0
 31 78  1  0  0  0  0
 32 60  2  0  0  0  0
 33 61  1  0  0  0  0
 33 64  1  0  0  0  0
 34 65  1  0  0  0  0
 34 70  2  0  0  0  0
 35 49  1  0  0  0  0
 35 67  1  0  0  0  0
 35 71  2  0  0  0  0
 36 57  1  0  0  0  0
 36 62  1  0  0  0  0
 36 72  2  0  0  0  0
 37 58  1  0  0  0  0
 37 68  1  0  0  0  0
 37 73  2  0  0  0  0
 38 63  1  0  0  0  0
 38 66  1  0  0  0  0
 38 74  2  0  0  0  0
 39 42  1  0  0  0  0
 40 49  1  0  0  0  0
 41 62  1  0  0  0  0
 42 44  1  0  0  0  0
 43 45  1  0  0  0  0
 43 46  1  0  0  0  0
 44 48  1  0  0  0  0
 45 50  1  0  0  0  0
 46 63  1  0  0  0  0
 47 50  1  0  0  0  0
 47 63  1  0  0  0  0
 48 67  1  0  0  0  0
 49 62  1  0  0  0  0
 50 61  1  0  0  0  0
 51 58  1  0  0  0  0
 52 59  1  0  0  0  0
 53 59  1  0  0  0  0
 54 59  1  0  0  0  0
 55 69  1  0  0  0  0
 56 76  1  0  0  0  0
 57 59  1  0  0  0  0
 57 68  1  0  0  0  0
 58 69  1  0  0  0  0
 60 61  1  0  0  0  0
M  CHG  1  69   1
M  ISO  4  38 100  56 101  66 100  76 101
M  END
> <Batch ID>
0002

> <Smiles>
CNC(C)C(=O)NC(C(=O)N1Cc2cc([101O:1][101CH2:1]c3cccc([100NH:0][100C:0](=O)N4CCCC(n5nc(-c6ccc(Oc7ccc(F)cc7F)cc6)c(C(N)=O)c5N)C4)c3)ccc2CC1C(=O)NC1CCCc2ccccc21)C(C)(C)C

> <Shape>
0.294

> <Color>
0.112

> <Negative vol penalty>
0.000

$$$$

  -OEChem-04052315183D

 74 81  0     1  0  0  0  0  0999 V2000
  -28.2370  -24.4861   17.1417 C   0  0  0  0  0  0  0  0  0  0  0  0
  -27.0905  -25.1970   17.4776 C   0  0  0  0  0  0  0  0  0  0  0  0
  -23.9976  -17.2212   19.7044 C   0  0  0  0  0  0  0  0  0  0  0  0
  -21.6114  -17.5982   19.7372 C   0  0  0  0  0  0  0  0  0  0  0  0
  -29.3729  -24.5840   17.9426 C   0  0  0  0  0  0  0  0  0  0  0  0
  -27.0832  -26.0153   18.6078 C   0  0  0  0  0  0  0  0  0  0  0  0
  -23.1087  -28.8301   19.3032 C   0  0  0  0  0  0  0  0  0  0  0  0
  -23.7896  -15.8777   20.0166 C   0  0  0  0  0  0  0  0  0  0  0  0
  -21.4034  -16.2547   20.0494 C   0  0  0  0  0  0  0  0  0  0  0  0
  -21.8764  -28.3102   19.6969 C   0  0  0  0  0  0  0  0  0  0  0  0
  -23.8696  -12.2693   20.4498 C   0  0  0  0  0  0  0  0  0  0  0  0
  -24.5945  -11.3172   19.7332 C   0  0  0  0  0  0  0  0  0  0  0  0
  -22.2606  -29.1131   21.9389 C   0  0  0  0  0  0  0  0  0  0  0  0
  -23.5960  -12.1033   17.6784 C   0  0  0  0  0  0  0  0  0  0  0  0
  -22.9085  -18.0814   19.5647 C   0  0  0  0  0  0  0  0  0  0  0  0
  -23.1955  -20.0430   17.9592 C   0  0  0  0  0  0  0  0  0  0  0  0
  -29.3747  -25.3944   19.0898 C   0  0  0  0  0  0  0  0  0  0  0  0
  -23.9324  -29.4870   20.2287 C   0  0  0  0  0  0  0  0  0  0  0  0
  -28.2273  -26.1461   19.4155 C   0  0  0  0  0  0  0  0  0  0  0  0
  -23.5017  -29.6426   21.5540 C   0  0  0  0  0  0  0  0  0  0  0  0
  -22.4925  -15.3945   20.1891 C   0  0  0  0  0  0  0  0  0  0  0  0
  -21.4534  -28.4491   21.0155 C   0  0  0  0  0  0  0  0  0  0  0  0
  -23.0077  -13.1384   19.7807 C   0  0  0  0  0  0  0  0  0  0  0  0
  -24.4578  -11.2342   18.3475 C   0  0  0  0  0  0  0  0  0  0  0  0
  -22.8709  -13.0554   18.3951 C   0  0  0  0  0  0  0  0  0  0  0  0
  -23.1227  -19.4695   19.2428 C   0  0  0  0  0  0  0  0  0  0  0  0
  -23.4090  -21.3796   18.1920 C   0  0  0  0  0  0  0  0  0  0  0  0
  -23.0803  -19.4229   16.6716 C   0  0  0  0  0  0  0  0  0  0  0  0
  -26.8422  -28.9749   21.4010 C   0  0  0  0  0  0  0  0  0  0  0  0
  -26.3567  -31.8553   22.8116 C   0  0  0  0  0  0  0  0  0  0  0  0
  -24.1398  -34.1868   23.9501 C   0  0  0  0  0  0  0  0  0  0  0  0
  -22.1653  -24.9610   22.8264 C   0  0  0  0  0  0  0  0  0  0  0  0
  -30.6340  -25.4698   19.9166 C   0  0  0  0  0  0  0  0  0  0  0  0
  -25.2470  -30.0656   19.7819 C   0  0  0  0  0  0  0  0  0  0  0  0
  -24.3398  -30.3572   22.5814 C   0  0  0  0  0  0  0  0  0  0  0  0
  -30.3902  -26.0052   21.3238 C   0  0  0  0  0  0  0  0  0  0  0  0
  -25.3644  -24.3589   21.3844 C   0  0  0  0  0  0  0  0  0  0  0  0
  -29.5719  -27.2861   21.2580 C   0  0  0  0  0  0  0  0  0  0  0  0
  -25.1592  -23.0892   20.5562 C   0  0  0  0  0  0  0  0  0  0  0  0
  -24.5549  -24.3253   22.6788 C   0  0  0  0  0  0  0  0  0  0  0  0
  -22.9098  -22.7899   21.6739 C   0  0  0  0  0  0  0  0  0  0  0  0
  -28.1862  -27.0186   20.6570 C   0  0  1  0  0  0  0  0  0  0  0  0
  -26.2328  -30.2646   20.9290 C   0  0  1  0  0  0  0  0  0  0  0  0
  -23.6624  -22.8016   20.3323 C   0  0  2  0  0  0  0  0  0  0  0  0
  -24.0417  -36.4211   25.0884 C   0  0  0  0  0  0  0  0  0  0  0  0
  -27.0386  -30.5268   25.4724 C   0  0  0  0  0  0  0  0  0  0  0  0
  -26.0199  -32.4953   26.6367 C   0  0  0  0  0  0  0  0  0  0  0  0
  -28.0109  -32.8106   25.1672 C   0  0  0  0  0  0  0  0  0  0  0  0
  -22.7535  -35.4283   21.6488 C   0  0  0  0  0  0  0  0  0  0  0  0
  -18.9463  -25.9462   21.6711 C   0  0  0  0  0  0  0  0  0  0  0  0
  -19.7364  -25.4678   22.8817 C   0  0  0  0  0  0  0  0  0  0  0  0
  -19.7817  -26.7851   20.7116 C   0  0  0  0  0  0  0  0  0  1  0  0
  -25.7630  -32.3184   24.1200 C   0  0  1  0  0  0  0  0  0  0  0  0
  -24.0705  -35.6906   23.7549 C   0  0  2  0  0  0  0  0  0  0  0  0
  -26.6930  -32.0226   25.3304 C   0  0  0  0  0  0  0  0  0  0  0  0
  -23.2776  -20.3682   20.2186 N   0  0  0  0  0  0  0  0  0  0  0  0
  -23.4499  -21.5200   19.5480 N   0  0  0  0  0  0  0  0  0  0  0  0
  -25.6199  -30.9000   22.0973 N   0  0  0  0  0  0  0  0  0  0  0  0
  -23.1441  -24.0498   22.3967 N   0  0  0  0  0  0  0  0  0  0  0  0
  -23.5640  -22.4369   17.3670 N   0  0  0  0  0  0  0  0  0  0  0  0
  -22.8617  -18.0397   16.6133 N   0  0  0  0  0  0  0  0  0  0  0  0
  -27.5233  -28.2817   20.4185 N   0  0  0  0  0  0  0  0  0  0  0  0
  -25.4410  -33.7306   23.9450 N   0  0  0  0  0  0  0  0  0  0  0  0
  -20.8535  -24.6272   22.5125 N   0  0  0  0  0  0  0  0  0  0  0  0
  -22.8445  -36.0579   22.9913 N   0  3  0  0  0  0  0  0  0  0  0  0
  -23.1849  -20.0734   15.6042 O   0  0  0  0  0  0  0  0  0  0  0  0
  -26.7060  -28.6345   22.5703 O   0  0  0  0  0  0  0  0  0  0  0  0
  -27.4311  -32.3292   22.4336 O   0  0  0  0  0  0  0  0  0  0  0  0
  -23.1399  -33.4873   24.0965 O   0  0  0  0  0  0  0  0  0  0  0  0
  -22.4405  -25.9981   23.4394 O   0  0  0  0  0  0  0  0  0  0  0  0
  -22.2892  -14.0836   20.4935 O   0  0  0  0  0  0  0  0  0  0  0  0
  -20.2514  -27.9420   21.4025 O   0  0  0  0  0  0  0  0  0  1  0  0
  -25.1552  -10.3209   17.6593 F   0  0  0  0  0  0  0  0  0  0  0  0
  -22.0454  -13.8884   17.7467 F   0  0  0  0  0  0  0  0  0  0  0  0
  1  2  1  0  0  0  0
  1  5  2  0  0  0  0
  2  6  2  0  0  0  0
  3  8  2  0  0  0  0
  3 15  1  0  0  0  0
  4  9  1  0  0  0  0
  4 15  2  0  0  0  0
  5 17  1  0  0  0  0
  6 19  1  0  0  0  0
  7 10  2  0  0  0  0
  7 18  1  0  0  0  0
  8 21  1  0  0  0  0
  9 21  2  0  0  0  0
 10 22  1  0  0  0  0
 11 12  2  0  0  0  0
 11 23  1  0  0  0  0
 12 24  1  0  0  0  0
 13 20  1  0  0  0  0
 13 22  2  0  0  0  0
 14 24  2  0  0  0  0
 14 25  1  0  0  0  0
 15 26  1  0  0  0  0
 16 26  1  0  0  0  0
 16 27  2  0  0  0  0
 16 28  1  0  0  0  0
 17 19  2  0  0  0  0
 17 33  1  0  0  0  0
 18 20  2  0  0  0  0
 18 34  1  0  0  0  0
 19 42  1  0  0  0  0
 20 35  1  0  0  0  0
 21 71  1  0  0  0  0
 22 72  1  0  0  0  0
 23 25  2  0  0  0  0
 23 71  1  0  0  0  0
 24 73  1  0  0  0  0
 25 74  1  0  0  0  0
 26 56  2  0  0  0  0
 27 57  1  0  0  0  0
 27 60  1  0  0  0  0
 28 61  1  0  0  0  0
 28 66  2  0  0  0  0
 29 43  1  0  0  0  0
 29 62  1  0  0  0  0
 29 67  2  0  0  0  0
 30 53  1  0  0  0  0
 30 58  1  0  0  0  0
 30 68  2  0  0  0  0
 31 54  1  0  0  0  0
 31 63  1  0  0  0  0
 31 69  2  0  0  0  0
 32 59  1  0  0  0  0
 32 64  1  0  0  0  0
 32 70  2  0  0  0  0
 33 36  1  0  0  0  0
 34 43  1  0  0  0  0
 35 58  1  0  0  0  0
 36 38  1  0  0  0  0
 37 39  1  0  0  0  0
 37 40  1  0  0  0  0
 38 42  1  0  0  0  0
 39 44  1  0  0  0  0
 40 59  1  0  0  0  0
 41 44  1  0  0  0  0
 41 59  1  0  0  0  0
 42 62  1  0  0  0  0
 43 58  1  0  0  0  0
 44 57  1  0  0  0  0
 45 54  1  0  0  0  0
 46 55  1  0  0  0  0
 47 55  1  0  0  0  0
 48 55  1  0  0  0  0
 49 65  1  0  0  0  0
 50 51  1  0  0  0  0
 50 52  1  0  0  0  0
 51 64  1  0  0  0  0
 52 72  1  0  0  0  0
 53 55  1  0  0  0  0
 53 63  1  0  0  0  0
 54 65  1  0  0  0  0
 56 57  1  0  0  0  0
M  CHG  1  65   1
M  ISO  4  32 100  52 101  64 100  72 101
M  END
> <Batch ID>
0002

> <Smiles>
CNC(C)C(=O)NC(C(=O)N1Cc2cc([101O:1][101CH2:1]CC[100NH:0][100C:0](=O)N3CCCC(n4nc(-c5ccc(Oc6ccc(F)cc6F)cc5)c(C(N)=O)c4N)C3)ccc2CC1C(=O)NC1CCCc2ccccc21)C(C)(C)C

> <Shape>
0.222

> <Color>
0.068

> <Negative vol penalty>
0.000

$$$$

  -OEChem-04052315183D

 85 93  0     1  0  0  0  0  0999 V2000
  -17.4257  -30.7127   24.1735 C   0  0  0  0  0  0  0  0  0  0  0  0
  -18.7641  -30.3411   24.2495 C   0  0  0  0  0  0  0  0  0  0  0  0
  -24.3597  -13.5335   20.8203 C   0  0  0  0  0  0  0  0  0  0  0  0
  -26.3485  -12.2122   21.1886 C   0  0  0  0  0  0  0  0  0  0  0  0
  -16.5393  -29.9670   23.3975 C   0  0  0  0  0  0  0  0  0  0  0  0
  -19.2169  -29.2229   23.5502 C   0  0  0  0  0  0  0  0  0  0  0  0
  -23.5911  -30.0752   21.1450 C   0  0  0  0  0  0  0  0  0  0  0  0
  -29.3470  -28.2728   20.2246 C   0  0  0  0  0  0  0  0  0  0  0  0
  -29.8134  -27.0078   22.2294 C   0  0  0  0  0  0  0  0  0  0  0  0
  -23.7622  -12.4533   20.1709 C   0  0  0  0  0  0  0  0  0  0  0  0
  -25.7510  -11.1319   20.5393 C   0  0  0  0  0  0  0  0  0  0  0  0
  -24.7543  -30.0567   21.9134 C   0  0  0  0  0  0  0  0  0  0  0  0
  -28.1903  -28.7819   20.8150 C   0  0  0  0  0  0  0  0  0  0  0  0
  -28.6567  -27.5169   22.8197 C   0  0  0  0  0  0  0  0  0  0  0  0
  -24.6141   -7.9101   19.2962 C   0  0  0  0  0  0  0  0  0  0  0  0
  -24.7303   -6.6521   19.8875 C   0  0  0  0  0  0  0  0  0  0  0  0
  -25.2066  -27.8089   21.1636 C   0  0  0  0  0  0  0  0  0  0  0  0
  -23.5989   -7.4737   21.8578 C   0  0  0  0  0  0  0  0  0  0  0  0
  -25.6528  -13.4131   21.3291 C   0  0  0  0  0  0  0  0  0  0  0  0
  -26.2171  -14.8308   23.3734 C   0  0  0  0  0  0  0  0  0  0  0  0
  -16.9834  -28.8447   22.6806 C   0  0  0  0  0  0  0  0  0  0  0  0
  -23.2205  -28.9549   20.3874 C   0  0  0  0  0  0  0  0  0  0  0  0
  -18.3353  -28.4607   22.7649 C   0  0  0  0  0  0  0  0  0  0  0  0
  -24.0395  -27.8167   20.3844 C   0  0  0  0  0  0  0  0  0  0  0  0
  -30.1585  -27.3857   20.9318 C   0  0  0  0  0  0  0  0  0  0  0  0
  -24.4579  -11.2525   20.0304 C   0  0  0  0  0  0  0  0  0  0  0  0
  -27.8452  -28.4040   22.1125 C   0  0  0  0  0  0  0  0  0  1  0  0
  -25.5607  -28.9224   21.9250 C   0  0  0  0  0  0  0  0  0  0  0  0
  -23.9904   -8.9499   19.9858 C   0  0  0  0  0  0  0  0  0  0  0  0
  -24.2226   -6.4339   21.1683 C   0  0  0  0  0  0  0  0  0  0  0  0
  -23.4827   -8.7317   21.2665 C   0  0  0  0  0  0  0  0  0  0  0  0
  -26.2707  -14.5288   21.9995 C   0  0  0  0  0  0  0  0  0  0  0  0
  -26.9580  -15.9802   23.5015 C   0  0  0  0  0  0  0  0  0  0  0  0
  -25.5567  -14.1345   24.4387 C   0  0  0  0  0  0  0  0  0  0  0  0
  -20.7356  -26.9729   20.3820 C   0  0  0  0  0  0  0  0  0  0  0  0
  -22.1764  -25.7964   17.7245 C   0  0  0  0  0  0  0  0  0  0  0  0
  -28.7542  -23.0150   19.5714 C   0  0  0  0  0  0  0  0  0  0  0  0
  -25.0484  -25.3842   15.9276 C   0  0  0  0  0  0  0  0  0  0  0  0
  -27.9297  -20.7730   20.3733 C   0  0  0  0  0  0  0  0  0  0  0  0
  -15.9783  -28.0422   21.8929 C   0  0  0  0  0  0  0  0  0  0  0  0
  -21.9767  -29.0006   19.5429 C   0  0  0  0  0  0  0  0  0  0  0  0
  -23.6968  -26.5953   19.5726 C   0  0  0  0  0  0  0  0  0  0  0  0
  -16.6153  -27.0902   20.8839 C   0  0  0  0  0  0  0  0  0  0  0  0
  -29.8153  -17.4827   19.8100 C   0  0  0  0  0  0  0  0  0  0  0  0
  -17.7624  -26.3185   21.5285 C   0  0  0  0  0  0  0  0  0  0  0  0
  -29.6166  -17.0245   21.2518 C   0  0  0  0  0  0  0  0  0  0  0  0
  -29.5750  -18.9834   19.6757 C   0  0  0  0  0  0  0  0  0  0  0  0
  -27.4772  -18.4005   20.8893 C   0  0  0  0  0  0  0  0  0  0  0  0
  -18.8696  -27.2685   22.0011 C   0  0  1  0  0  0  0  0  0  0  0  0
  -21.4271  -27.6161   19.2134 C   0  0  1  0  0  0  0  0  0  0  0  0
  -28.2551  -17.4661   21.8327 C   0  0  1  0  0  0  0  0  0  0  0  0
  -27.5960  -23.7444   20.1365 C   0  0  0  0  0  0  0  0  0  0  0  0
  -25.9183  -24.3475   13.8144 C   0  0  0  0  0  0  0  0  0  0  0  0
  -22.0448  -23.0397   19.0256 C   0  0  0  0  0  0  0  0  0  0  0  0
  -23.7303  -22.2465   17.3529 C   0  0  0  0  0  0  0  0  0  0  0  0
  -21.5038  -23.0678   16.5841 C   0  0  0  0  0  0  0  0  0  0  0  0
  -25.9261  -28.0039   14.8665 C   0  0  0  0  0  0  0  0  0  0  0  0
  -31.4029  -26.8380   20.2971 C   0  0  0  0  0  0  0  0  0  0  0  0
  -31.7234  -24.2659   17.6811 C   0  0  0  0  0  0  0  0  0  0  0  0
  -30.9132  -23.1408   18.3032 C   0  0  0  0  0  0  0  0  0  0  0  0
  -32.1836  -25.2940   18.7067 C   0  0  0  0  0  0  0  0  0  0  0  0
  -23.2046  -24.7254   17.4511 C   0  0  1  0  0  0  0  0  0  0  0  0
  -25.3578  -25.6061   14.4581 C   0  0  2  0  0  0  0  0  0  0  0  0
  -22.6266  -23.2920   17.6204 C   0  0  0  0  0  0  0  0  0  0  0  0
  -26.9888  -15.4149   21.3044 N   0  0  0  0  0  0  0  0  0  0  0  0
  -27.3932  -16.2851   22.2454 N   0  0  0  0  0  0  0  0  0  0  0  0
  -22.4671  -26.6864   18.7681 N   0  0  0  0  0  0  0  0  0  0  0  0
  -28.3408  -19.4376   20.3245 N   0  0  0  0  0  0  0  0  0  0  0  0
  -27.2732  -16.7497   24.5649 N   0  0  0  0  0  0  0  0  0  0  0  0
  -24.8391  -12.9703   24.1321 N   0  0  0  0  0  0  0  0  0  0  0  0
  -19.6742  -27.7043   20.8799 N   0  0  0  0  0  0  0  0  0  0  0  0
  -28.8417  -21.6870   19.7129 N   0  0  0  0  0  0  0  0  0  0  0  0
  -23.7380  -25.0015   16.1215 N   0  0  0  0  0  0  0  0  0  0  0  0
  -29.7053  -23.6933   18.9226 N   0  3  0  0  0  0  0  0  0  0  0  0
  -26.3568  -26.7004   14.2986 N   0  3  0  0  0  0  0  0  0  0  0  0
  -25.5879  -14.5421   25.6246 O   0  0  0  0  0  0  0  0  0  0  0  0
  -21.1344  -25.8922   20.8000 O   0  0  0  0  0  0  0  0  0  0  0  0
  -21.1563  -25.8460   17.0327 O   0  0  0  0  0  0  0  0  0  0  0  0
  -25.8864  -25.5318   16.8145 O   0  0  0  0  0  0  0  0  0  0  0  0
  -26.9057  -21.1828   20.9069 O   0  0  0  0  0  0  0  0  0  0  0  0
  -26.7163  -28.9011   22.6878 O   0  0  0  0  0  0  0  0  0  1  0  0
  -23.8751  -10.1981   19.3971 O   0  0  0  0  0  0  0  0  0  0  0  0
  -31.0403  -25.8500   19.3421 O   0  0  0  0  0  0  0  0  0  0  0  0
  -24.3329   -5.2254   21.7353 F   0  0  0  0  0  0  0  0  0  0  0  0
  -22.8814   -9.7265   21.9334 F   0  0  0  0  0  0  0  0  0  0  0  0
  1  2  1  0  0  0  0
  1  5  2  0  0  0  0
  2  6  2  0  0  0  0
  3 10  2  0  0  0  0
  3 19  1  0  0  0  0
  4 11  1  0  0  0  0
  4 19  2  0  0  0  0
  5 21  1  0  0  0  0
  6 23  1  0  0  0  0
  7 12  2  0  0  0  0
  7 22  1  0  0  0  0
  8 13  2  0  0  0  0
  8 25  1  0  0  0  0
  9 14  1  0  0  0  0
  9 25  2  0  0  0  0
 10 26  1  0  0  0  0
 11 26  2  0  0  0  0
 12 28  1  0  0  0  0
 13 27  1  0  0  0  0
 14 27  2  0  0  0  0
 15 16  2  0  0  0  0
 15 29  1  0  0  0  0
 16 30  1  0  0  0  0
 17 24  1  0  0  0  0
 17 28  2  0  0  0  0
 18 30  2  0  0  0  0
 18 31  1  0  0  0  0
 19 32  1  0  0  0  0
 20 32  1  0  0  0  0
 20 33  2  0  0  0  0
 20 34  1  0  0  0  0
 21 23  2  0  0  0  0
 21 40  1  0  0  0  0
 22 24  2  0  0  0  0
 22 41  1  0  0  0  0
 23 49  1  0  0  0  0
 24 42  1  0  0  0  0
 25 58  1  0  0  0  0
 26 82  1  0  0  0  0
 27 81  1  0  0  0  0
 28 81  1  0  0  0  0
 29 31  2  0  0  0  0
 29 82  1  0  0  0  0
 30 84  1  0  0  0  0
 31 85  1  0  0  0  0
 32 65  2  0  0  0  0
 33 66  1  0  0  0  0
 33 69  1  0  0  0  0
 34 70  1  0  0  0  0
 34 76  2  0  0  0  0
 35 50  1  0  0  0  0
 35 71  1  0  0  0  0
 35 77  2  0  0  0  0
 36 62  1  0  0  0  0
 36 67  1  0  0  0  0
 36 78  2  0  0  0  0
 37 52  1  0  0  0  0
 37 72  1  0  0  0  0
 37 74  2  0  0  0  0
 38 63  1  0  0  0  0
 38 73  1  0  0  0  0
 38 79  2  0  0  0  0
 39 68  1  0  0  0  0
 39 72  1  0  0  0  0
 39 80  2  0  0  0  0
 40 43  1  0  0  0  0
 41 50  1  0  0  0  0
 42 67  1  0  0  0  0
 43 45  1  0  0  0  0
 44 46  1  0  0  0  0
 44 47  1  0  0  0  0
 45 49  1  0  0  0  0
 46 51  1  0  0  0  0
 47 68  1  0  0  0  0
 48 51  1  0  0  0  0
 48 68  1  0  0  0  0
 49 71  1  0  0  0  0
 50 67  1  0  0  0  0
 51 66  1  0  0  0  0
 53 63  1  0  0  0  0
 54 64  1  0  0  0  0
 55 64  1  0  0  0  0
 56 64  1  0  0  0  0
 57 75  1  0  0  0  0
 58 83  1  0  0  0  0
 59 60  1  0  0  0  0
 59 61  1  0  0  0  0
 60 74  1  0  0  0  0
 61 83  1  0  0  0  0
 62 64  1  0  0  0  0
 62 73  1  0  0  0  0
 63 75  1  0  0  0  0
 65 66  1  0  0  0  0
M  CHG  2  74   1  75   1
M  ISO  4  27 101  39 100  72 100  81 101
M  END
> <Batch ID>
0002

> <Smiles>
CNC(C)C(=O)NC(C(=O)N1Cc2cc([101O:1][101c:1]3ccc(COCCCNC(C)=[100N:0][100C:0](=O)N4CCCC(n5nc(-c6ccc(Oc7ccc(F)cc7F)cc6)c(C(N)=O)c5N)C4)cc3)ccc2CC1C(=O)NC1CCCc2ccccc21)C(C)(C)C

> <Shape>
0.266

> <Color>
0.054

> <Negative vol penalty>
0.000

$$$$

  -OEChem-04052315183D

 75 82  0     1  0  0  0  0  0999 V2000
  -21.6576  -26.0082   22.2550 C   0  0  0  0  0  0  0  0  0  0  0  0
  -22.5356  -24.9529   22.0299 C   0  0  0  0  0  0  0  0  0  0  0  0
  -23.8221  -10.0103   22.1423 C   0  0  0  0  0  0  0  0  0  0  0  0
  -24.3934  -11.4271   24.0141 C   0  0  0  0  0  0  0  0  0  0  0  0
  -22.0394  -27.3110   21.9374 C   0  0  0  0  0  0  0  0  0  0  0  0
  -23.7956  -25.1996   21.4859 C   0  0  0  0  0  0  0  0  0  0  0  0
  -27.4742  -22.6745   23.8810 C   0  0  0  0  0  0  0  0  0  0  0  0
  -23.3018   -9.0598   23.0206 C   0  0  0  0  0  0  0  0  0  0  0  0
  -23.8731  -10.4766   24.8924 C   0  0  0  0  0  0  0  0  0  0  0  0
  -27.6174  -21.3207   23.5801 C   0  0  0  0  0  0  0  0  0  0  0  0
  -24.8491   -7.5351   26.2437 C   0  0  0  0  0  0  0  0  0  0  0  0
  -25.5983   -7.2219   27.3778 C   0  0  0  0  0  0  0  0  0  0  0  0
  -29.4494  -21.8491   22.1024 C   0  0  0  0  0  0  0  0  0  0  0  0
  -23.7739   -7.9504   28.7842 C   0  0  0  0  0  0  0  0  0  0  0  0
  -24.3679  -11.1940   22.6391 C   0  0  0  0  0  0  0  0  0  0  0  0
  -24.2169  -13.2470   21.1323 C   0  0  0  0  0  0  0  0  0  0  0  0
  -23.3083  -27.5750   21.3982 C   0  0  0  0  0  0  0  0  0  0  0  0
  -28.3119  -23.6285   23.2855 C   0  0  0  0  0  0  0  0  0  0  0  0
  -24.1942  -26.5070   21.1594 C   0  0  0  0  0  0  0  0  0  0  0  0
  -29.3165  -23.2141   22.3994 C   0  0  0  0  0  0  0  0  0  0  0  0
  -23.3273   -9.2929   24.3956 C   0  0  0  0  0  0  0  0  0  0  0  0
  -28.6032  -20.9081   22.6885 C   0  0  0  0  0  0  0  0  0  0  0  0
  -23.5623   -8.0560   26.3798 C   0  0  0  0  0  0  0  0  0  0  0  0
  -25.0607   -7.4295   28.6481 C   0  0  0  0  0  0  0  0  0  0  0  0
  -23.0247   -8.2636   27.6500 C   0  0  0  0  0  0  0  0  0  0  0  0
  -24.9060  -12.1760   21.7323 C   0  0  0  0  0  0  0  0  0  0  0  0
  -25.1651  -13.8790   20.3656 C   0  0  0  0  0  0  0  0  0  0  0  0
  -22.8425  -13.6357   21.2570 C   0  0  0  0  0  0  0  0  0  0  0  0
  -27.8632  -26.1195   21.3628 C   0  0  0  0  0  0  0  0  0  0  0  0
  -31.0302  -26.5937   21.8798 C   0  0  0  0  0  0  0  0  0  0  0  0
  -34.0557  -25.2690   22.7393 C   0  0  0  0  0  0  0  0  0  0  0  0
  -31.1355  -14.1863   20.6987 C   0  0  0  0  0  0  0  0  0  0  0  0
  -23.6583  -28.9942   21.0268 C   0  0  0  0  0  0  0  0  0  0  0  0
  -28.1620  -25.0822   23.6411 C   0  0  0  0  0  0  0  0  0  0  0  0
  -30.2547  -24.1964   21.7488 C   0  0  0  0  0  0  0  0  0  0  0  0
  -25.1521  -29.2144   20.8024 C   0  0  0  0  0  0  0  0  0  0  0  0
  -29.2021  -13.0226   17.9448 C   0  0  0  0  0  0  0  0  0  0  0  0
  -25.7287  -28.1085   19.9240 C   0  0  0  0  0  0  0  0  0  0  0  0
  -27.8196  -12.7703   18.5491 C   0  0  0  0  0  0  0  0  0  0  0  0
  -30.3192  -12.6648   18.9225 C   0  0  0  0  0  0  0  0  0  0  0  0
  -28.8331  -13.0581   20.8488 C   0  0  0  0  0  0  0  0  0  0  0  0
  -25.5789  -26.7373   20.5939 C   0  0  1  0  0  0  0  0  0  0  0  0
  -28.7355  -26.0186   22.5820 C   0  0  1  0  0  0  0  0  0  0  0  0
  -27.6733  -13.4569   19.9203 C   0  0  2  0  0  0  0  0  0  0  0  0
  -36.4673  -25.8955   23.0376 C   0  0  0  0  0  0  0  0  0  0  0  0
  -31.3900  -26.6419   18.8502 C   0  0  0  0  0  0  0  0  0  0  0  0
  -33.8462  -26.3127   19.2065 C   0  0  0  0  0  0  0  0  0  0  0  0
  -32.7232  -28.3590   20.0866 C   0  0  0  0  0  0  0  0  0  0  0  0
  -34.0184  -24.5131   25.6005 C   0  0  0  0  0  0  0  0  0  0  0  0
  -31.6127  -17.1488   22.1275 C   0  0  0  0  0  0  0  0  0  0  0  0
  -30.2124  -17.6705   22.4514 C   0  0  0  0  0  0  0  0  0  0  0  0
  -31.8074  -15.6961   22.5503 C   0  0  0  0  0  0  0  0  0  0  0  0
  -30.0554  -19.1337   22.0572 C   0  0  0  0  0  0  0  0  0  1  0  0
  -32.3032  -26.1339   21.2112 C   0  0  1  0  0  0  0  0  0  0  0  0
  -35.1174  -25.7346   23.7193 C   0  0  2  0  0  0  0  0  0  0  0  0
  -32.5469  -26.8433   19.8492 C   0  0  0  0  0  0  0  0  0  0  0  0
  -26.1927  -12.1272   21.3772 N   0  0  0  0  0  0  0  0  0  0  0  0
  -26.3196  -13.1754   20.5457 N   0  0  0  0  0  0  0  0  0  0  0  0
  -30.0641  -25.6073   22.1236 N   0  0  0  0  0  0  0  0  0  0  0  0
  -30.1222  -13.3497   20.2023 N   0  0  0  0  0  0  0  0  0  0  0  0
  -25.1157  -14.9623   19.5616 N   0  0  0  0  0  0  0  0  0  0  0  0
  -22.0059  -12.8763   22.0863 N   0  0  0  0  0  0  0  0  0  0  0  0
  -26.5815  -26.5654   21.6233 N   0  0  0  0  0  0  0  0  0  0  0  0
  -33.3704  -26.3301   22.1864 N   0  0  0  0  0  0  0  0  0  0  0  0
  -30.8653  -14.8020   21.9147 N   0  0  0  0  0  0  0  0  0  0  0  0
  -35.2654  -24.7508   24.8288 N   0  3  0  0  0  0  0  0  0  0  0  0
  -22.3663  -14.6175   20.6382 O   0  0  0  0  0  0  0  0  0  0  0  0
  -28.3196  -25.8167   20.2665 O   0  0  0  0  0  0  0  0  0  0  0  0
  -30.9009  -27.7828   22.1813 O   0  0  0  0  0  0  0  0  0  0  0  0
  -33.8568  -24.0828   22.4866 O   0  0  0  0  0  0  0  0  0  0  0  0
  -32.1998  -14.3751   20.0998 O   0  0  0  0  0  0  0  0  0  0  0  0
  -22.8195   -8.3657   25.2529 O   0  0  0  0  0  0  0  0  0  0  0  0
  -28.7447  -19.5874   22.3925 O   0  0  0  0  0  0  0  0  0  1  0  0
  -25.7797   -7.1273   29.7370 F   0  0  0  0  0  0  0  0  0  0  0  0
  -21.7886   -8.7626   27.7871 F   0  0  0  0  0  0  0  0  0  0  0  0
  1  2  1  0  0  0  0
  1  5  2  0  0  0  0
  2  6  2  0  0  0  0
  3  8  2  0  0  0  0
  3 15  1  0  0  0  0
  4  9  1  0  0  0  0
  4 15  2  0  0  0  0
  5 17  1  0  0  0  0
  6 19  1  0  0  0  0
  7 10  2  0  0  0  0
  7 18  1  0  0  0  0
  8 21  1  0  0  0  0
  9 21  2  0  0  0  0
 10 22  1  0  0  0  0
 11 12  2  0  0  0  0
 11 23  1  0  0  0  0
 12 24  1  0  0  0  0
 13 20  1  0  0  0  0
 13 22  2  0  0  0  0
 14 24  2  0  0  0  0
 14 25  1  0  0  0  0
 15 26  1  0  0  0  0
 16 26  1  0  0  0  0
 16 27  2  0  0  0  0
 16 28  1  0  0  0  0
 17 19  2  0  0  0  0
 17 33  1  0  0  0  0
 18 20  2  0  0  0  0
 18 34  1  0  0  0  0
 19 42  1  0  0  0  0
 20 35  1  0  0  0  0
 21 72  1  0  0  0  0
 22 73  1  0  0  0  0
 23 25  2  0  0  0  0
 23 72  1  0  0  0  0
 24 74  1  0  0  0  0
 25 75  1  0  0  0  0
 26 57  2  0  0  0  0
 27 58  1  0  0  0  0
 27 61  1  0  0  0  0
 28 62  1  0  0  0  0
 28 67  2  0  0  0  0
 29 43  1  0  0  0  0
 29 63  1  0  0  0  0
 29 68  2  0  0  0  0
 30 54  1  0  0  0  0
 30 59  1  0  0  0  0
 30 69  2  0  0  0  0
 31 55  1  0  0  0  0
 31 64  1  0  0  0  0
 31 70  2  0  0  0  0
 32 60  1  0  0  0  0
 32 65  1  0  0  0  0
 32 71  2  0  0  0  0
 33 36  1  0  0  0  0
 34 43  1  0  0  0  0
 35 59  1  0  0  0  0
 36 38  1  0  0  0  0
 37 39  1  0  0  0  0
 37 40  1  0  0  0  0
 38 42  1  0  0  0  0
 39 44  1  0  0  0  0
 40 60  1  0  0  0  0
 41 44  1  0  0  0  0
 41 60  1  0  0  0  0
 42 63  1  0  0  0  0
 43 59  1  0  0  0  0
 44 58  1  0  0  0  0
 45 55  1  0  0  0  0
 46 56  1  0  0  0  0
 47 56  1  0  0  0  0
 48 56  1  0  0  0  0
 49 66  1  0  0  0  0
 50 51  1  0  0  0  0
 50 52  1  0  0  0  0
 51 53  1  0  0  0  0
 52 65  1  0  0  0  0
 53 73  1  0  0  0  0
 54 56  1  0  0  0  0
 54 64  1  0  0  0  0
 55 66  1  0  0  0  0
 57 58  1  0  0  0  0
M  CHG  1  66   1
M  ISO  4  32 100  53 101  65 100  73 101
M  END
> <Batch ID>
0002

> <Smiles>
CNC(C)C(=O)NC(C(=O)N1Cc2cc([101O:1][101CH2:1]CCC[100NH:0][100C:0](=O)N3CCCC(n4nc(-c5ccc(Oc6ccc(F)cc6F)cc5)c(C(N)=O)c4N)C3)ccc2CC1C(=O)NC1CCCc2ccccc21)C(C)(C)C

> <Shape>
0.193

> <Color>
0.131

> <Negative vol penalty>
0.000

$$$$

  -OEChem-04052315183D

 82 90  0     1  0  0  0  0  0999 V2000
  -17.4720  -30.8956   24.2232 C   0  0  0  0  0  0  0  0  0  0  0  0
  -18.8413  -31.1410   24.2371 C   0  0  0  0  0  0  0  0  0  0  0  0
  -27.7513  -21.7644   23.7748 C   0  0  0  0  0  0  0  0  0  0  0  0
  -24.6284  -12.3079   19.6558 C   0  0  0  0  0  0  0  0  0  0  0  0
  -25.4403  -13.1353   21.7755 C   0  0  0  0  0  0  0  0  0  0  0  0
  -28.5022  -22.7821   23.1868 C   0  0  0  0  0  0  0  0  0  0  0  0
  -16.9851  -29.6967   23.7041 C   0  0  0  0  0  0  0  0  0  0  0  0
  -19.7246  -30.1871   23.7328 C   0  0  0  0  0  0  0  0  0  0  0  0
  -26.0037  -29.6403   20.3284 C   0  0  0  0  0  0  0  0  0  0  0  0
  -26.8221  -21.0546   23.0142 C   0  0  0  0  0  0  0  0  0  0  0  0
  -25.4268  -11.1725   19.7931 C   0  0  0  0  0  0  0  0  0  0  0  0
  -26.2387  -11.9998   21.9129 C   0  0  0  0  0  0  0  0  0  0  0  0
  -27.2371  -29.0000   20.4398 C   0  0  0  0  0  0  0  0  0  0  0  0
  -26.9786   -7.8852   19.7566 C   0  0  0  0  0  0  0  0  0  0  0  0
  -26.4037   -6.6488   19.4629 C   0  0  0  0  0  0  0  0  0  0  0  0
  -27.3945  -22.3806   21.0775 C   0  0  0  0  0  0  0  0  0  0  0  0
  -26.2768  -26.9987   19.4954 C   0  0  0  0  0  0  0  0  0  0  0  0
  -24.7508   -7.0074   21.1881 C   0  0  0  0  0  0  0  0  0  0  0  0
  -24.6352  -13.2893   20.6470 C   0  0  0  0  0  0  0  0  0  0  0  0
  -28.3238  -23.0903   21.8381 C   0  0  0  0  0  0  0  0  0  0  0  0
  -22.4852  -14.6289   20.9486 C   0  0  0  0  0  0  0  0  0  0  0  0
  -17.8622  -28.7317   23.1843 C   0  0  0  0  0  0  0  0  0  0  0  0
  -24.8930  -28.9600   19.8089 C   0  0  0  0  0  0  0  0  0  0  0  0
  -19.2491  -28.9736   23.2075 C   0  0  0  0  0  0  0  0  0  0  0  0
  -25.0310  -27.6335   19.3761 C   0  0  0  0  0  0  0  0  0  0  0  0
  -26.6437  -21.3627   21.6656 C   0  0  0  0  0  0  0  0  0  0  0  0
  -26.2320  -11.0184   20.9216 C   0  0  0  0  0  0  0  0  0  0  0  0
  -27.3731  -27.6781   20.0260 C   0  0  0  0  0  0  0  0  0  0  0  0
  -26.4396   -8.6828   20.7662 C   0  0  0  0  0  0  0  0  0  0  0  0
  -25.2898   -6.2099   20.1786 C   0  0  0  0  0  0  0  0  0  0  0  0
  -25.3257   -8.2439   21.4819 C   0  0  0  0  0  0  0  0  0  0  0  0
  -23.8110  -14.4627   20.5054 C   0  0  0  0  0  0  0  0  0  0  0  0
  -22.1565  -15.9093   20.5757 C   0  0  0  0  0  0  0  0  0  0  0  0
  -29.1243  -24.1746   21.2131 C   0  0  0  0  0  0  0  0  0  0  0  0
  -21.6276  -13.7082   21.6359 C   0  0  0  0  0  0  0  0  0  0  0  0
  -22.0415  -28.1278   20.9404 C   0  0  0  0  0  0  0  0  0  0  0  0
  -21.5408  -27.1684   17.8825 C   0  0  0  0  0  0  0  0  0  0  0  0
  -22.8735  -26.1454   14.9119 C   0  0  0  0  0  0  0  0  0  0  0  0
  -25.3999  -20.8204   19.5430 C   0  0  0  0  0  0  0  0  0  0  0  0
  -17.2922  -27.4308   22.6770 C   0  0  0  0  0  0  0  0  0  0  0  0
  -23.5760  -29.6733   19.6705 C   0  0  0  0  0  0  0  0  0  0  0  0
  -23.8743  -26.8653   18.7926 C   0  0  0  0  0  0  0  0  0  0  0  0
  -18.2694  -26.6311   21.8192 C   0  0  0  0  0  0  0  0  0  0  0  0
  -23.1702  -19.2245   17.2718 C   0  0  0  0  0  0  0  0  0  0  0  0
  -19.6398  -26.5709   22.4863 C   0  0  0  0  0  0  0  0  0  0  0  0
  -22.9560  -17.8396   17.8868 C   0  0  0  0  0  0  0  0  0  0  0  0
  -24.6040  -19.7151   17.4646 C   0  0  0  0  0  0  0  0  0  0  0  0
  -24.8740  -18.3038   19.4657 C   0  0  0  0  0  0  0  0  0  0  0  0
  -20.2373  -27.9740   22.6469 C   0  0  1  0  0  0  0  0  0  0  0  0
  -22.3853  -28.7219   19.6038 C   0  0  1  0  0  0  0  0  0  0  0  0
  -23.4274  -17.7953   19.3535 C   0  0  2  0  0  0  0  0  0  0  0  0
  -22.2121  -25.3961   12.6101 C   0  0  0  0  0  0  0  0  0  0  0  0
  -20.7519  -24.4409   18.9996 C   0  0  0  0  0  0  0  0  0  0  0  0
  -21.0286  -23.4957   16.6978 C   0  0  0  0  0  0  0  0  0  0  0  0
  -19.3129  -25.2557   17.1235 C   0  0  0  0  0  0  0  0  0  0  0  0
  -24.2917  -28.4109   13.6410 C   0  0  0  0  0  0  0  0  0  0  0  0
  -30.3257  -26.3094   21.6070 C   0  0  0  0  0  0  0  0  0  0  0  0
  -29.4319  -27.4664   21.1975 C   0  0  0  0  0  0  0  0  0  1  0  0
  -21.7608  -25.8877   17.1142 C   0  0  1  0  0  0  0  0  0  0  0  0
  -22.6009  -26.5792   13.4830 C   0  0  2  0  0  0  0  0  0  0  0  0
  -20.7351  -24.7836   17.4965 C   0  0  0  0  0  0  0  0  0  0  0  0
  -24.2916  -15.5505   19.8973 N   0  0  0  0  0  0  0  0  0  0  0  0
  -23.2622  -16.4125   19.9557 N   0  0  0  0  0  0  0  0  0  0  0  0
  -22.6056  -27.6043   18.6837 N   0  0  0  0  0  0  0  0  0  0  0  0
  -24.9796  -19.6488   18.8786 N   0  0  0  0  0  0  0  0  0  0  0  0
  -21.0323  -16.6425   20.7209 N   0  0  0  0  0  0  0  0  0  0  0  0
  -22.1241  -12.4339   21.9423 N   0  0  0  0  0  0  0  0  0  0  0  0
  -25.6999  -20.6414   20.8931 N   0  0  0  0  0  0  0  0  0  0  0  0
  -29.5617  -25.1799   22.0663 N   0  0  0  0  0  0  0  0  0  0  0  0
  -20.7722  -28.4428   21.3865 N   0  0  0  0  0  0  0  0  0  0  0  0
  -21.7481  -26.2517   15.7015 N   0  0  0  0  0  0  0  0  0  0  0  0
  -23.8122  -27.2185   12.8957 N   0  3  0  0  0  0  0  0  0  0  0  0
  -29.3374  -24.1423   20.0039 O   0  0  0  0  0  0  0  0  0  0  0  0
  -20.4500  -14.0011   21.9540 O   0  0  0  0  0  0  0  0  0  0  0  0
  -22.8663  -27.4337   21.5232 O   0  0  0  0  0  0  0  0  0  0  0  0
  -20.4665  -27.7641   17.7701 O   0  0  0  0  0  0  0  0  0  0  0  0
  -23.9737  -25.7481   15.2890 O   0  0  0  0  0  0  0  0  0  0  0  0
  -25.4612  -21.9081   18.9643 O   0  0  0  0  0  0  0  0  0  0  0  0
  -27.0110   -9.9104   21.0561 O   0  0  0  0  0  0  0  0  0  0  0  0
  -28.5757  -27.0506   20.1343 O   0  0  0  0  0  0  0  0  0  1  0  0
  -24.7369   -5.0232   19.8953 F   0  0  0  0  0  0  0  0  0  0  0  0
  -24.8028   -9.0062   22.4521 F   0  0  0  0  0  0  0  0  0  0  0  0
  1  2  1  0  0  0  0
  1  7  2  0  0  0  0
  2  8  2  0  0  0  0
  3  6  2  0  0  0  0
  3 10  1  0  0  0  0
  4 11  2  0  0  0  0
  4 19  1  0  0  0  0
  5 12  1  0  0  0  0
  5 19  2  0  0  0  0
  6 20  1  0  0  0  0
  7 22  1  0  0  0  0
  8 24  1  0  0  0  0
  9 13  2  0  0  0  0
  9 23  1  0  0  0  0
 10 26  2  0  0  0  0
 11 27  1  0  0  0  0
 12 27  2  0  0  0  0
 13 28  1  0  0  0  0
 14 15  2  0  0  0  0
 14 29  1  0  0  0  0
 15 30  1  0  0  0  0
 16 20  2  0  0  0  0
 16 26  1  0  0  0  0
 17 25  1  0  0  0  0
 17 28  2  0  0  0  0
 18 30  2  0  0  0  0
 18 31  1  0  0  0  0
 19 32  1  0  0  0  0
 20 34  1  0  0  0  0
 21 32  1  0  0  0  0
 21 33  2  0  0  0  0
 21 35  1  0  0  0  0
 22 24  2  0  0  0  0
 22 40  1  0  0  0  0
 23 25  2  0  0  0  0
 23 41  1  0  0  0  0
 24 49  1  0  0  0  0
 25 42  1  0  0  0  0
 26 68  1  0  0  0  0
 27 79  1  0  0  0  0
 28 80  1  0  0  0  0
 29 31  2  0  0  0  0
 29 79  1  0  0  0  0
 30 81  1  0  0  0  0
 31 82  1  0  0  0  0
 32 62  2  0  0  0  0
 33 63  1  0  0  0  0
 33 66  1  0  0  0  0
 34 69  1  0  0  0  0
 34 73  2  0  0  0  0
 35 67  1  0  0  0  0
 35 74  2  0  0  0  0
 36 50  1  0  0  0  0
 36 70  1  0  0  0  0
 36 75  2  0  0  0  0
 37 59  1  0  0  0  0
 37 64  1  0  0  0  0
 37 76  2  0  0  0  0
 38 60  1  0  0  0  0
 38 71  1  0  0  0  0
 38 77  2  0  0  0  0
 39 65  1  0  0  0  0
 39 68  1  0  0  0  0
 39 78  2  0  0  0  0
 40 43  1  0  0  0  0
 41 50  1  0  0  0  0
 42 64  1  0  0  0  0
 43 45  1  0  0  0  0
 44 46  1  0  0  0  0
 44 47  1  0  0  0  0
 45 49  1  0  0  0  0
 46 51  1  0  0  0  0
 47 65  1  0  0  0  0
 48 51  1  0  0  0  0
 48 65  1  0  0  0  0
 49 70  1  0  0  0  0
 50 64  1  0  0  0  0
 51 63  1  0  0  0  0
 52 60  1  0  0  0  0
 53 61  1  0  0  0  0
 54 61  1  0  0  0  0
 55 61  1  0  0  0  0
 56 72  1  0  0  0  0
 57 58  1  0  0  0  0
 57 69  1  0  0  0  0
 58 80  1  0  0  0  0
 59 61  1  0  0  0  0
 59 71  1  0  0  0  0
 60 72  1  0  0  0  0
 62 63  1  0  0  0  0
M  CHG  1  72   1
M  ISO  4  39 100  58 101  68 100  80 101
M  END
> <Batch ID>
0002

> <Smiles>
CNC(C)C(=O)NC(C(=O)N1Cc2cc([101O:1][101CH2:1]CNC(=O)c3cccc([100NH:0][100C:0](=O)N4CCCC(n5nc(-c6ccc(Oc7ccc(F)cc7F)cc6)c(C(N)=O)c5N)C4)c3)ccc2CC1C(=O)NC1CCCc2ccccc21)C(C)(C)C

> <Shape>
0.205

> <Color>
0.100

> <Negative vol penalty>
0.000

$$$$

  -OEChem-04052315183D

 83 91  0     1  0  0  0  0  0999 V2000
  -33.9208  -25.3539   32.0477 C   0  0  0  0  0  0  0  0  0  0  0  0
  -33.2966  -24.1201   31.8941 C   0  0  0  0  0  0  0  0  0  0  0  0
  -33.8822  -11.6649   24.1037 C   0  0  0  0  0  0  0  0  0  0  0  0
  -23.1564   -9.8646   20.0535 C   0  0  0  0  0  0  0  0  0  0  0  0
  -23.8014   -9.9806   22.3789 C   0  0  0  0  0  0  0  0  0  0  0  0
  -33.4101  -11.6837   25.4161 C   0  0  0  0  0  0  0  0  0  0  0  0
  -33.8724  -26.2915   31.0170 C   0  0  0  0  0  0  0  0  0  0  0  0
  -32.6226  -23.8236   30.7099 C   0  0  0  0  0  0  0  0  0  0  0  0
  -33.6586  -19.1719   28.9973 C   0  0  0  0  0  0  0  0  0  0  0  0
  -33.0328  -12.0086   23.0520 C   0  0  0  0  0  0  0  0  0  0  0  0
  -22.4110   -8.7156   20.3176 C   0  0  0  0  0  0  0  0  0  0  0  0
  -23.0560   -8.8316   22.6430 C   0  0  0  0  0  0  0  0  0  0  0  0
  -33.0145  -18.1051   29.6225 C   0  0  0  0  0  0  0  0  0  0  0  0
  -22.9967   -5.4195   20.7835 C   0  0  0  0  0  0  0  0  0  0  0  0
  -23.1189   -4.3504   19.8961 C   0  0  0  0  0  0  0  0  0  0  0  0
  -31.2392  -12.3897   24.6250 C   0  0  0  0  0  0  0  0  0  0  0  0
  -31.4210  -18.0151   27.8137 C   0  0  0  0  0  0  0  0  0  0  0  0
  -20.7534   -4.4748   19.4204 C   0  0  0  0  0  0  0  0  0  0  0  0
  -23.8517  -10.4971   21.0841 C   0  0  0  0  0  0  0  0  0  0  0  0
  -32.0886  -12.0460   25.6768 C   0  0  0  0  0  0  0  0  0  0  0  0
  -24.1773  -13.0180   20.8689 C   0  0  0  0  0  0  0  0  0  0  0  0
  -33.2057  -26.0027   29.8158 C   0  0  0  0  0  0  0  0  0  0  0  0
  -33.1814  -19.6762   27.7789 C   0  0  0  0  0  0  0  0  0  0  0  0
  -32.5641  -24.7588   29.6626 C   0  0  0  0  0  0  0  0  0  0  0  0
  -32.0624  -19.0867   27.1738 C   0  0  0  0  0  0  0  0  0  0  0  0
  -31.7113  -12.3709   23.3126 C   0  0  0  0  0  0  0  0  0  0  0  0
  -22.3607   -8.1991   21.6123 C   0  0  0  0  0  0  0  0  0  0  0  0
  -31.8938  -17.5284   29.0321 C   0  0  0  0  0  0  0  0  0  0  0  0
  -21.7528   -6.0162   20.9896 C   0  0  0  0  0  0  0  0  0  0  0  0
  -21.9973   -3.8781   19.2145 C   0  0  0  0  0  0  0  0  0  0  0  0
  -20.6312   -5.5439   20.3080 C   0  0  0  0  0  0  0  0  0  0  0  0
  -24.6223  -11.6837   20.8118 C   0  0  0  0  0  0  0  0  0  0  0  0
  -25.2797  -13.7626   20.5268 C   0  0  0  0  0  0  0  0  0  0  0  0
  -31.5871  -12.0656   27.0751 C   0  0  0  0  0  0  0  0  0  0  0  0
  -22.8832  -13.5380   21.2015 C   0  0  0  0  0  0  0  0  0  0  0  0
  -32.0354  -22.4766   26.8051 C   0  0  0  0  0  0  0  0  0  0  0  0
  -32.1036  -21.0509   23.8922 C   0  0  0  0  0  0  0  0  0  0  0  0
  -32.0809  -18.1585   22.0810 C   0  0  0  0  0  0  0  0  0  0  0  0
  -31.1584  -12.7537   20.8848 C   0  0  0  0  0  0  0  0  0  0  0  0
  -33.1400  -27.0659   28.7482 C   0  0  0  0  0  0  0  0  0  0  0  0
  -33.9034  -20.8101   27.1041 C   0  0  0  0  0  0  0  0  0  0  0  0
  -31.5224  -19.5778   25.8563 C   0  0  0  0  0  0  0  0  0  0  0  0
  -32.7245  -26.5308   27.3803 C   0  0  0  0  0  0  0  0  0  0  0  0
  -29.3052  -13.5238   17.9438 C   0  0  0  0  0  0  0  0  0  0  0  0
  -31.5162  -25.6091   27.5121 C   0  0  0  0  0  0  0  0  0  0  0  0
  -27.8530  -13.2666   18.3525 C   0  0  0  0  0  0  0  0  0  0  0  0
  -30.2605  -12.5157   18.5800 C   0  0  0  0  0  0  0  0  0  0  0  0
  -28.7000  -12.1360   20.4481 C   0  0  0  0  0  0  0  0  0  0  0  0
  -31.8443  -24.3906   28.3834 C   0  0  1  0  0  0  0  0  0  0  0  0
  -33.0248  -21.5767   26.1203 C   0  0  1  0  0  0  0  0  0  0  0  0
  -27.7079  -13.1660   19.8837 C   0  0  2  0  0  0  0  0  0  0  0  0
  -32.1069  -17.3136   19.7183 C   0  0  0  0  0  0  0  0  0  0  0  0
  -29.1632  -21.8084   23.5915 C   0  0  0  0  0  0  0  0  0  0  0  0
  -29.0022  -20.1589   21.7149 C   0  0  0  0  0  0  0  0  0  0  0  0
  -30.5366  -22.1165   21.5243 C   0  0  0  0  0  0  0  0  0  0  0  0
  -34.6316  -16.7177   22.5016 C   0  0  0  0  0  0  0  0  0  0  0  0
  -30.6553  -14.1728   29.4629 C   0  0  0  0  0  0  0  0  0  0  0  0
  -29.9626  -13.0911   28.6452 C   0  0  0  0  0  0  0  0  0  0  0  0
  -30.6073  -15.5422   28.7961 C   0  0  0  0  0  0  0  0  0  1  0  0
  -31.1349  -20.2202   23.0856 C   0  0  1  0  0  0  0  0  0  0  0  0
  -32.9487  -17.6844   20.9293 C   0  0  2  0  0  0  0  0  0  0  0  0
  -29.9680  -21.0678   22.5049 C   0  0  0  0  0  0  0  0  0  0  0  0
  -25.9072  -11.5832   20.4610 N   0  0  0  0  0  0  0  0  0  0  0  0
  -26.2789  -12.8639   20.2944 N   0  0  0  0  0  0  0  0  0  0  0  0
  -32.2592  -20.6929   25.2389 N   0  0  0  0  0  0  0  0  0  0  0  0
  -30.0691  -12.4779   20.0315 N   0  0  0  0  0  0  0  0  0  0  0  0
  -25.4820  -15.0917   20.4051 N   0  0  0  0  0  0  0  0  0  0  0  0
  -21.8637  -12.6337   21.5286 N   0  0  0  0  0  0  0  0  0  0  0  0
  -30.8488  -12.7203   22.2441 N   0  0  0  0  0  0  0  0  0  0  0  0
  -30.5390  -12.9406   27.3378 N   0  0  0  0  0  0  0  0  0  0  0  0
  -32.6128  -23.4229   27.6302 N   0  0  0  0  0  0  0  0  0  0  0  0
  -31.9311  -19.5292   22.0771 N   0  0  0  0  0  0  0  0  0  0  0  0
  -33.7404  -16.4889   21.3353 N   0  3  0  0  0  0  0  0  0  0  0  0
  -32.1202  -11.3440   27.9138 O   0  0  0  0  0  0  0  0  0  0  0  0
  -22.6338  -14.7674   21.1923 O   0  0  0  0  0  0  0  0  0  0  0  0
  -30.8370  -22.3247   26.5991 O   0  0  0  0  0  0  0  0  0  0  0  0
  -32.7055  -21.9786   23.3457 O   0  0  0  0  0  0  0  0  0  0  0  0
  -31.5824  -17.3895   22.8999 O   0  0  0  0  0  0  0  0  0  0  0  0
  -32.2766  -13.0279   20.4418 O   0  0  0  0  0  0  0  0  0  0  0  0
  -21.6333   -7.0781   21.8704 O   0  0  0  0  0  0  0  0  0  0  0  0
  -31.2629  -16.4875   29.6405 O   0  0  0  0  0  0  0  0  0  1  0  0
  -22.1151   -2.8524   18.3611 F   0  0  0  0  0  0  0  0  0  0  0  0
  -19.4338   -6.1139   20.5009 F   0  0  0  0  0  0  0  0  0  0  0  0
  1  2  1  0  0  0  0
  1  7  2  0  0  0  0
  2  8  2  0  0  0  0
  3  6  2  0  0  0  0
  3 10  1  0  0  0  0
  4 11  2  0  0  0  0
  4 19  1  0  0  0  0
  5 12  1  0  0  0  0
  5 19  2  0  0  0  0
  6 20  1  0  0  0  0
  7 22  1  0  0  0  0
  8 24  1  0  0  0  0
  9 13  2  0  0  0  0
  9 23  1  0  0  0  0
 10 26  2  0  0  0  0
 11 27  1  0  0  0  0
 12 27  2  0  0  0  0
 13 28  1  0  0  0  0
 14 15  2  0  0  0  0
 14 29  1  0  0  0  0
 15 30  1  0  0  0  0
 16 20  2  0  0  0  0
 16 26  1  0  0  0  0
 17 25  1  0  0  0  0
 17 28  2  0  0  0  0
 18 30  2  0  0  0  0
 18 31  1  0  0  0  0
 19 32  1  0  0  0  0
 20 34  1  0  0  0  0
 21 32  1  0  0  0  0
 21 33  2  0  0  0  0
 21 35  1  0  0  0  0
 22 24  2  0  0  0  0
 22 40  1  0  0  0  0
 23 25  2  0  0  0  0
 23 41  1  0  0  0  0
 24 49  1  0  0  0  0
 25 42  1  0  0  0  0
 26 69  1  0  0  0  0
 27 80  1  0  0  0  0
 28 81  1  0  0  0  0
 29 31  2  0  0  0  0
 29 80  1  0  0  0  0
 30 82  1  0  0  0  0
 31 83  1  0  0  0  0
 32 63  2  0  0  0  0
 33 64  1  0  0  0  0
 33 67  1  0  0  0  0
 34 70  1  0  0  0  0
 34 74  2  0  0  0  0
 35 68  1  0  0  0  0
 35 75  2  0  0  0  0
 36 50  1  0  0  0  0
 36 71  1  0  0  0  0
 36 76  2  0  0  0  0
 37 60  1  0  0  0  0
 37 65  1  0  0  0  0
 37 77  2  0  0  0  0
 38 61  1  0  0  0  0
 38 72  1  0  0  0  0
 38 78  2  0  0  0  0
 39 66  1  0  0  0  0
 39 69  1  0  0  0  0
 39 79  2  0  0  0  0
 40 43  1  0  0  0  0
 41 50  1  0  0  0  0
 42 65  1  0  0  0  0
 43 45  1  0  0  0  0
 44 46  1  0  0  0  0
 44 47  1  0  0  0  0
 45 49  1  0  0  0  0
 46 51  1  0  0  0  0
 47 66  1  0  0  0  0
 48 51  1  0  0  0  0
 48 66  1  0  0  0  0
 49 71  1  0  0  0  0
 50 65  1  0  0  0  0
 51 64  1  0  0  0  0
 52 61  1  0  0  0  0
 53 62  1  0  0  0  0
 54 62  1  0  0  0  0
 55 62  1  0  0  0  0
 56 73  1  0  0  0  0
 57 58  1  0  0  0  0
 57 59  1  0  0  0  0
 58 70  1  0  0  0  0
 59 81  1  0  0  0  0
 60 62  1  0  0  0  0
 60 72  1  0  0  0  0
 61 73  1  0  0  0  0
 63 64  1  0  0  0  0
M  CHG  1  73   1
M  ISO  4  39 100  59 101  69 100  81 101
M  END
> <Batch ID>
0002

> <Smiles>
CNC(C)C(=O)NC(C(=O)N1Cc2cc([101O:1][101CH2:1]CCNC(=O)c3cccc([100NH:0][100C:0](=O)N4CCCC(n5nc(-c6ccc(Oc7ccc(F)cc7F)cc6)c(C(N)=O)c5N)C4)c3)ccc2CC1C(=O)NC1CCCc2ccccc21)C(C)(C)C

> <Shape>
0.142

> <Color>
0.167

> <Negative vol penalty>
0.000

$$$$

  -OEChem-04052315183D

 76 83  0     1  0  0  0  0  0999 V2000
  -23.6992   -8.5157   21.8889 C   0  0  0  0  0  0  0  0  0  0  0  0
  -24.8792   -9.1930   21.5987 C   0  0  0  0  0  0  0  0  0  0  0  0
  -26.2545  -27.9989   21.3502 C   0  0  0  0  0  0  0  0  0  0  0  0
  -25.9997  -28.1355   18.9515 C   0  0  0  0  0  0  0  0  0  0  0  0
  -22.4695   -9.1374   21.6762 C   0  0  0  0  0  0  0  0  0  0  0  0
  -24.8301  -10.4921   21.0945 C   0  0  0  0  0  0  0  0  0  0  0  0
  -28.7890  -15.0282   22.2155 C   0  0  0  0  0  0  0  0  0  0  0  0
  -25.4349  -29.1174   21.5010 C   0  0  0  0  0  0  0  0  0  0  0  0
  -25.1800  -29.2540   19.1023 C   0  0  0  0  0  0  0  0  0  0  0  0
  -29.8731  -15.5267   21.4943 C   0  0  0  0  0  0  0  0  0  0  0  0
  -25.7223  -32.4727   21.2118 C   0  0  0  0  0  0  0  0  0  0  0  0
  -26.1354  -33.4625   22.1035 C   0  0  0  0  0  0  0  0  0  0  0  0
  -28.4555  -17.2397   20.5588 C   0  0  0  0  0  0  0  0  0  0  0  0
  -24.1159  -33.1453   23.3912 C   0  0  0  0  0  0  0  0  0  0  0  0
  -26.5370  -27.5080   20.0754 C   0  0  0  0  0  0  0  0  0  0  0  0
  -26.9840  -25.0037   19.8844 C   0  0  0  0  0  0  0  0  0  0  0  0
  -22.4056  -10.4483   21.1782 C   0  0  0  0  0  0  0  0  0  0  0  0
  -27.5254  -15.6261   22.1051 C   0  0  0  0  0  0  0  0  0  0  0  0
  -23.5984  -11.1315   20.8736 C   0  0  0  0  0  0  0  0  0  0  0  0
  -27.3576  -16.7485   21.2815 C   0  0  0  0  0  0  0  0  0  0  0  0
  -24.8976  -29.7449   20.3771 C   0  0  0  0  0  0  0  0  0  0  0  0
  -29.7058  -16.6308   20.6636 C   0  0  0  0  0  0  0  0  0  0  0  0
  -24.5059  -31.8192   21.4097 C   0  0  0  0  0  0  0  0  0  0  0  0
  -25.3323  -33.7988   23.1932 C   0  0  0  0  0  0  0  0  0  0  0  0
  -23.7028  -32.1555   22.4994 C   0  0  0  0  0  0  0  0  0  0  0  0
  -27.3841  -26.3530   19.9189 C   0  0  0  0  0  0  0  0  0  0  0  0
  -28.1536  -24.3029   19.7194 C   0  0  0  0  0  0  0  0  0  0  0  0
  -25.6723  -24.4348   19.9918 C   0  0  0  0  0  0  0  0  0  0  0  0
  -24.6670  -14.6611   21.1042 C   0  0  0  0  0  0  0  0  0  0  0  0
  -23.7352  -17.5715   22.1921 C   0  0  0  0  0  0  0  0  0  0  0  0
  -24.5873  -20.7845   22.9650 C   0  0  0  0  0  0  0  0  0  0  0  0
  -33.1018  -23.6086   17.2337 C   0  0  0  0  0  0  0  0  0  0  0  0
  -21.0521  -11.0616   20.9201 C   0  0  0  0  0  0  0  0  0  0  0  0
  -26.3722  -15.0928   22.9102 C   0  0  0  0  0  0  0  0  0  0  0  0
  -26.0262  -17.4391   21.1438 C   0  0  0  0  0  0  0  0  0  0  0  0
  -21.0948  -12.5764   20.7362 C   0  0  0  0  0  0  0  0  0  0  0  0
  -32.9702  -25.8176   20.0229 C   0  0  0  0  0  0  0  0  0  0  0  0
  -22.2224  -12.9672   19.7862 C   0  0  0  0  0  0  0  0  0  0  0  0
  -31.4731  -26.0472   20.2374 C   0  0  0  0  0  0  0  0  0  0  0  0
  -33.3168  -25.7023   18.5401 C   0  0  0  0  0  0  0  0  0  0  0  0
  -31.0384  -24.9247   18.0125 C   0  0  0  0  0  0  0  0  0  0  0  0
  -23.5869  -12.5508   20.3486 C   0  0  1  0  0  0  0  0  0  0  0  0
  -25.0129  -15.4646   22.3258 C   0  0  1  0  0  0  0  0  0  0  0  0
  -30.6319  -24.9917   19.4946 C   0  0  2  0  0  0  0  0  0  0  0  0
  -23.6027  -22.9382   23.7953 C   0  0  0  0  0  0  0  0  0  0  0  0
  -22.5070  -18.0669   19.4432 C   0  0  0  0  0  0  0  0  0  0  0  0
  -22.3988  -20.5036   20.0078 C   0  0  0  0  0  0  0  0  0  0  0  0
  -21.1133  -18.8523   21.3654 C   0  0  0  0  0  0  0  0  0  0  0  0
  -26.3240  -20.7893   25.3615 C   0  0  0  0  0  0  0  0  0  0  0  0
  -31.5932  -19.8735   17.5173 C   0  0  0  0  0  0  0  0  0  0  0  0
  -32.9044  -20.3146   16.8603 C   0  0  0  0  0  0  0  0  0  0  0  0
  -31.8105  -18.6727   18.4361 C   0  0  0  0  0  0  0  0  0  0  0  0
  -32.7247  -21.5213   15.9452 C   0  0  0  0  0  0  0  0  0  0  0  0
  -30.5194  -18.2527   19.1263 C   0  0  0  0  0  0  0  0  0  1  0  0
  -23.6292  -18.9531   21.5930 C   0  0  1  0  0  0  0  0  0  0  0  0
  -24.2918  -21.6395   24.1841 C   0  0  2  0  0  0  0  0  0  0  0  0
  -22.4369  -19.0800   20.6032 C   0  0  0  0  0  0  0  0  0  0  0  0
  -28.7047  -26.5027   19.7867 N   0  0  0  0  0  0  0  0  0  0  0  0
  -29.1446  -25.2385   19.6675 N   0  0  0  0  0  0  0  0  0  0  0  0
  -24.9278  -16.8764   21.9465 N   0  0  0  0  0  0  0  0  0  0  0  0
  -32.4851  -24.6836   17.8948 N   0  0  0  0  0  0  0  0  0  0  0  0
  -28.4207  -22.9837   19.6151 N   0  0  0  0  0  0  0  0  0  0  0  0
  -24.5810  -25.2984   20.1577 N   0  0  0  0  0  0  0  0  0  0  0  0
  -24.0128  -13.4750   21.3776 N   0  0  0  0  0  0  0  0  0  0  0  0
  -23.5747  -19.8821   22.7165 N   0  0  0  0  0  0  0  0  0  0  0  0
  -32.2406  -22.6846   16.6546 N   0  0  0  0  0  0  0  0  0  0  0  0
  -25.5549  -21.9739   24.9007 N   0  3  0  0  0  0  0  0  0  0  0  0
  -25.4757  -23.1963   19.9587 O   0  0  0  0  0  0  0  0  0  0  0  0
  -24.9697  -15.0864   19.9955 O   0  0  0  0  0  0  0  0  0  0  0  0
  -22.7973  -17.1283   22.8596 O   0  0  0  0  0  0  0  0  0  0  0  0
  -25.6120  -20.9075   22.2977 O   0  0  0  0  0  0  0  0  0  0  0  0
  -34.3290  -23.4788   17.1693 O   0  0  0  0  0  0  0  0  0  0  0  0
  -24.0975  -30.8362   20.5239 O   0  0  0  0  0  0  0  0  0  0  0  0
  -30.7622  -17.1189   19.9581 O   0  0  0  0  0  0  0  0  0  1  0  0
  -25.7299  -34.7482   24.0503 F   0  0  0  0  0  0  0  0  0  0  0  0
  -22.5338  -31.5303   22.6954 F   0  0  0  0  0  0  0  0  0  0  0  0
  1  2  1  0  0  0  0
  1  5  2  0  0  0  0
  2  6  2  0  0  0  0
  3  8  2  0  0  0  0
  3 15  1  0  0  0  0
  4  9  1  0  0  0  0
  4 15  2  0  0  0  0
  5 17  1  0  0  0  0
  6 19  1  0  0  0  0
  7 10  2  0  0  0  0
  7 18  1  0  0  0  0
  8 21  1  0  0  0  0
  9 21  2  0  0  0  0
 10 22  1  0  0  0  0
 11 12  2  0  0  0  0
 11 23  1  0  0  0  0
 12 24  1  0  0  0  0
 13 20  1  0  0  0  0
 13 22  2  0  0  0  0
 14 24  2  0  0  0  0
 14 25  1  0  0  0  0
 15 26  1  0  0  0  0
 16 26  1  0  0  0  0
 16 27  2  0  0  0  0
 16 28  1  0  0  0  0
 17 19  2  0  0  0  0
 17 33  1  0  0  0  0
 18 20  2  0  0  0  0
 18 34  1  0  0  0  0
 19 42  1  0  0  0  0
 20 35  1  0  0  0  0
 21 73  1  0  0  0  0
 22 74  1  0  0  0  0
 23 25  2  0  0  0  0
 23 73  1  0  0  0  0
 24 75  1  0  0  0  0
 25 76  1  0  0  0  0
 26 58  2  0  0  0  0
 27 59  1  0  0  0  0
 27 62  1  0  0  0  0
 28 63  1  0  0  0  0
 28 68  2  0  0  0  0
 29 43  1  0  0  0  0
 29 64  1  0  0  0  0
 29 69  2  0  0  0  0
 30 55  1  0  0  0  0
 30 60  1  0  0  0  0
 30 70  2  0  0  0  0
 31 56  1  0  0  0  0
 31 65  1  0  0  0  0
 31 71  2  0  0  0  0
 32 61  1  0  0  0  0
 32 66  1  0  0  0  0
 32 72  2  0  0  0  0
 33 36  1  0  0  0  0
 34 43  1  0  0  0  0
 35 60  1  0  0  0  0
 36 38  1  0  0  0  0
 37 39  1  0  0  0  0
 37 40  1  0  0  0  0
 38 42  1  0  0  0  0
 39 44  1  0  0  0  0
 40 61  1  0  0  0  0
 41 44  1  0  0  0  0
 41 61  1  0  0  0  0
 42 64  1  0  0  0  0
 43 60  1  0  0  0  0
 44 59  1  0  0  0  0
 45 56  1  0  0  0  0
 46 57  1  0  0  0  0
 47 57  1  0  0  0  0
 48 57  1  0  0  0  0
 49 67  1  0  0  0  0
 50 51  1  0  0  0  0
 50 52  1  0  0  0  0
 51 53  1  0  0  0  0
 52 54  1  0  0  0  0
 53 66  1  0  0  0  0
 54 74  1  0  0  0  0
 55 57  1  0  0  0  0
 55 65  1  0  0  0  0
 56 67  1  0  0  0  0
 58 59  1  0  0  0  0
M  CHG  1  67   1
M  ISO  4  32 100  54 101  66 100  74 101
M  END
> <Batch ID>
0002

> <Smiles>
CNC(C)C(=O)NC(C(=O)N1Cc2cc([101O:1][101CH2:1]CCCC[100NH:0][100C:0](=O)N3CCCC(n4nc(-c5ccc(Oc6ccc(F)cc6F)cc5)c(C(N)=O)c4N)C3)ccc2CC1C(=O)NC1CCCc2ccccc21)C(C)(C)C

> <Shape>
0.204

> <Color>
0.079

> <Negative vol penalty>
0.000

$$$$

  -OEChem-04052315183D

 74 81  0     1  0  0  0  0  0999 V2000
  -28.2370  -24.4861   17.1417 C   0  0  0  0  0  0  0  0  0  0  0  0
  -27.0905  -25.1970   17.4776 C   0  0  0  0  0  0  0  0  0  0  0  0
  -23.9976  -17.2212   19.7044 C   0  0  0  0  0  0  0  0  0  0  0  0
  -21.6114  -17.5982   19.7372 C   0  0  0  0  0  0  0  0  0  0  0  0
  -29.3729  -24.5840   17.9426 C   0  0  0  0  0  0  0  0  0  0  0  0
  -27.0832  -26.0153   18.6078 C   0  0  0  0  0  0  0  0  0  0  0  0
  -23.1087  -28.8301   19.3032 C   0  0  0  0  0  0  0  0  0  0  0  0
  -23.7896  -15.8777   20.0166 C   0  0  0  0  0  0  0  0  0  0  0  0
  -21.4034  -16.2547   20.0494 C   0  0  0  0  0  0  0  0  0  0  0  0
  -21.8764  -28.3102   19.6969 C   0  0  0  0  0  0  0  0  0  0  0  0
  -23.8696  -12.2693   20.4498 C   0  0  0  0  0  0  0  0  0  0  0  0
  -24.5945  -11.3172   19.7332 C   0  0  0  0  0  0  0  0  0  0  0  0
  -22.2606  -29.1131   21.9389 C   0  0  0  0  0  0  0  0  0  0  0  0
  -23.5960  -12.1033   17.6784 C   0  0  0  0  0  0  0  0  0  0  0  0
  -22.9085  -18.0814   19.5647 C   0  0  0  0  0  0  0  0  0  0  0  0
  -23.1955  -20.0430   17.9592 C   0  0  0  0  0  0  0  0  0  0  0  0
  -29.3747  -25.3944   19.0898 C   0  0  0  0  0  0  0  0  0  0  0  0
  -23.9324  -29.4870   20.2287 C   0  0  0  0  0  0  0  0  0  0  0  0
  -28.2273  -26.1461   19.4155 C   0  0  0  0  0  0  0  0  0  0  0  0
  -23.5017  -29.6426   21.5540 C   0  0  0  0  0  0  0  0  0  0  0  0
  -22.4925  -15.3945   20.1891 C   0  0  0  0  0  0  0  0  0  0  0  0
  -21.4534  -28.4491   21.0155 C   0  0  0  0  0  0  0  0  0  0  0  0
  -23.0077  -13.1384   19.7807 C   0  0  0  0  0  0  0  0  0  0  0  0
  -24.4578  -11.2342   18.3475 C   0  0  0  0  0  0  0  0  0  0  0  0
  -22.8709  -13.0554   18.3951 C   0  0  0  0  0  0  0  0  0  0  0  0
  -23.1227  -19.4695   19.2428 C   0  0  0  0  0  0  0  0  0  0  0  0
  -23.4090  -21.3796   18.1920 C   0  0  0  0  0  0  0  0  0  0  0  0
  -23.0803  -19.4229   16.6716 C   0  0  0  0  0  0  0  0  0  0  0  0
  -26.8422  -28.9749   21.4010 C   0  0  0  0  0  0  0  0  0  0  0  0
  -26.3567  -31.8553   22.8116 C   0  0  0  0  0  0  0  0  0  0  0  0
  -24.1398  -34.1868   23.9501 C   0  0  0  0  0  0  0  0  0  0  0  0
  -22.1653  -24.9610   22.8264 C   0  0  0  0  0  0  0  0  0  0  0  0
  -30.6340  -25.4698   19.9166 C   0  0  0  0  0  0  0  0  0  0  0  0
  -25.2470  -30.0656   19.7819 C   0  0  0  0  0  0  0  0  0  0  0  0
  -24.3398  -30.3572   22.5814 C   0  0  0  0  0  0  0  0  0  0  0  0
  -30.3902  -26.0052   21.3238 C   0  0  0  0  0  0  0  0  0  0  0  0
  -25.3644  -24.3589   21.3844 C   0  0  0  0  0  0  0  0  0  0  0  0
  -29.5719  -27.2861   21.2580 C   0  0  0  0  0  0  0  0  0  0  0  0
  -25.1592  -23.0892   20.5562 C   0  0  0  0  0  0  0  0  0  0  0  0
  -24.5549  -24.3253   22.6788 C   0  0  0  0  0  0  0  0  0  0  0  0
  -22.9098  -22.7899   21.6739 C   0  0  0  0  0  0  0  0  0  0  0  0
  -28.1862  -27.0186   20.6570 C   0  0  1  0  0  0  0  0  0  0  0  0
  -26.2328  -30.2646   20.9290 C   0  0  1  0  0  0  0  0  0  0  0  0
  -23.6624  -22.8016   20.3323 C   0  0  2  0  0  0  0  0  0  0  0  0
  -24.0417  -36.4211   25.0884 C   0  0  0  0  0  0  0  0  0  0  0  0
  -27.0386  -30.5268   25.4724 C   0  0  0  0  0  0  0  0  0  0  0  0
  -26.0199  -32.4953   26.6367 C   0  0  0  0  0  0  0  0  0  0  0  0
  -28.0109  -32.8106   25.1672 C   0  0  0  0  0  0  0  0  0  0  0  0
  -22.7535  -35.4283   21.6488 C   0  0  0  0  0  0  0  0  0  0  0  0
  -18.9463  -25.9462   21.6711 C   0  0  0  0  0  0  0  0  0  0  0  0
  -19.7364  -25.4678   22.8817 C   0  0  0  0  0  0  0  0  0  0  0  0
  -19.7817  -26.7851   20.7116 C   0  0  0  0  0  0  0  0  0  1  0  0
  -25.7630  -32.3184   24.1200 C   0  0  1  0  0  0  0  0  0  0  0  0
  -24.0705  -35.6906   23.7549 C   0  0  2  0  0  0  0  0  0  0  0  0
  -26.6930  -32.0226   25.3304 C   0  0  0  0  0  0  0  0  0  0  0  0
  -23.2776  -20.3682   20.2186 N   0  0  0  0  0  0  0  0  0  0  0  0
  -23.4499  -21.5200   19.5480 N   0  0  0  0  0  0  0  0  0  0  0  0
  -25.6199  -30.9000   22.0973 N   0  0  0  0  0  0  0  0  0  0  0  0
  -23.1441  -24.0498   22.3967 N   0  0  0  0  0  0  0  0  0  0  0  0
  -23.5640  -22.4369   17.3670 N   0  0  0  0  0  0  0  0  0  0  0  0
  -22.8617  -18.0397   16.6133 N   0  0  0  0  0  0  0  0  0  0  0  0
  -27.5233  -28.2817   20.4185 N   0  0  0  0  0  0  0  0  0  0  0  0
  -25.4410  -33.7306   23.9450 N   0  0  0  0  0  0  0  0  0  0  0  0
  -20.8535  -24.6272   22.5125 N   0  0  0  0  0  0  0  0  0  0  0  0
  -22.8445  -36.0579   22.9913 N   0  3  0  0  0  0  0  0  0  0  0  0
  -23.1849  -20.0734   15.6042 O   0  0  0  0  0  0  0  0  0  0  0  0
  -26.7060  -28.6345   22.5703 O   0  0  0  0  0  0  0  0  0  0  0  0
  -27.4311  -32.3292   22.4336 O   0  0  0  0  0  0  0  0  0  0  0  0
  -23.1399  -33.4873   24.0965 O   0  0  0  0  0  0  0  0  0  0  0  0
  -22.4405  -25.9981   23.4394 O   0  0  0  0  0  0  0  0  0  0  0  0
  -22.2892  -14.0836   20.4935 O   0  0  0  0  0  0  0  0  0  0  0  0
  -20.2514  -27.9420   21.4025 O   0  0  0  0  0  0  0  0  0  1  0  0
  -25.1552  -10.3209   17.6593 F   0  0  0  0  0  0  0  0  0  0  0  0
  -22.0454  -13.8884   17.7467 F   0  0  0  0  0  0  0  0  0  0  0  0
  1  2  1  0  0  0  0
  1  5  2  0  0  0  0
  2  6  2  0  0  0  0
  3  8  2  0  0  0  0
  3 15  1  0  0  0  0
  4  9  1  0  0  0  0
  4 15  2  0  0  0  0
  5 17  1  0  0  0  0
  6 19  1  0  0  0  0
  7 10  2  0  0  0  0
  7 18  1  0  0  0  0
  8 21  1  0  0  0  0
  9 21  2  0  0  0  0
 10 22  1  0  0  0  0
 11 12  2  0  0  0  0
 11 23  1  0  0  0  0
 12 24  1  0  0  0  0
 13 20  1  0  0  0  0
 13 22  2  0  0  0  0
 14 24  2  0  0  0  0
 14 25  1  0  0  0  0
 15 26  1  0  0  0  0
 16 26  1  0  0  0  0
 16 27  2  0  0  0  0
 16 28  1  0  0  0  0
 17 19  2  0  0  0  0
 17 33  1  0  0  0  0
 18 20  2  0  0  0  0
 18 34  1  0  0  0  0
 19 42  1  0  0  0  0
 20 35  1  0  0  0  0
 21 71  1  0  0  0  0
 22 72  1  0  0  0  0
 23 25  2  0  0  0  0
 23 71  1  0  0  0  0
 24 73  1  0  0  0  0
 25 74  1  0  0  0  0
 26 56  2  0  0  0  0
 27 57  1  0  0  0  0
 27 60  1  0  0  0  0
 28 61  1  0  0  0  0
 28 66  2  0  0  0  0
 29 43  1  0  0  0  0
 29 62  1  0  0  0  0
 29 67  2  0  0  0  0
 30 53  1  0  0  0  0
 30 58  1  0  0  0  0
 30 68  2  0  0  0  0
 31 54  1  0  0  0  0
 31 63  1  0  0  0  0
 31 69  2  0  0  0  0
 32 59  1  0  0  0  0
 32 64  1  0  0  0  0
 32 70  2  0  0  0  0
 33 36  1  0  0  0  0
 34 43  1  0  0  0  0
 35 58  1  0  0  0  0
 36 38  1  0  0  0  0
 37 39  1  0  0  0  0
 37 40  1  0  0  0  0
 38 42  1  0  0  0  0
 39 44  1  0  0  0  0
 40 59  1  0  0  0  0
 41 44  1  0  0  0  0
 41 59  1  0  0  0  0
 42 62  1  0  0  0  0
 43 58  1  0  0  0  0
 44 57  1  0  0  0  0
 45 54  1  0  0  0  0
 46 55  1  0  0  0  0
 47 55  1  0  0  0  0
 48 55  1  0  0  0  0
 49 65  1  0  0  0  0
 50 51  1  0  0  0  0
 50 52  1  0  0  0  0
 51 64  1  0  0  0  0
 52 72  1  0  0  0  0
 53 55  1  0  0  0  0
 53 63  1  0  0  0  0
 54 65  1  0  0  0  0
 56 57  1  0  0  0  0
M  CHG  1  65   1
M  ISO  4  32 100  52 101  64 100  72 101
M  END
> <Batch ID>
0002

> <Smiles>
CNC(C)C(=O)NC(C(=O)N1Cc2cc([101O:1][101CH2:1]CC[100NH:0][100C:0](=O)N3CCCC(n4nc(-c5ccc(Oc6ccc(F)cc6F)cc5)c(C(N)=O)c4N)C3)ccc2CC1C(=O)NC1CCCc2ccccc21)C(C)(C)C

> <Shape>
0.222

> <Color>
0.068

> <Negative vol penalty>
0.000

$$$$

  -OEChem-04052315183D

 82 90  0     1  0  0  0  0  0999 V2000
  -25.3082  -37.8061   19.9633 C   0  0  0  0  0  0  0  0  0  0  0  0
  -25.9834  -36.6510   19.5822 C   0  0  0  0  0  0  0  0  0  0  0  0
  -29.5687  -19.2604   14.2743 C   0  0  0  0  0  0  0  0  0  0  0  0
  -26.1712  -11.6636   21.1217 C   0  0  0  0  0  0  0  0  0  0  0  0
  -25.9568  -12.1478   18.7645 C   0  0  0  0  0  0  0  0  0  0  0  0
  -24.6906  -37.8714   21.2116 C   0  0  0  0  0  0  0  0  0  0  0  0
  -26.0423  -35.5608   20.4498 C   0  0  0  0  0  0  0  0  0  0  0  0
  -26.0211  -29.6314   18.9177 C   0  0  0  0  0  0  0  0  0  0  0  0
  -29.8724  -18.3902   15.3212 C   0  0  0  0  0  0  0  0  0  0  0  0
  -29.6734  -20.6389   14.4604 C   0  0  0  0  0  0  0  0  0  0  0  0
  -24.8263  -11.2967   21.1687 C   0  0  0  0  0  0  0  0  0  0  0  0
  -24.6119  -11.7808   18.8114 C   0  0  0  0  0  0  0  0  0  0  0  0
  -27.0447  -28.6955   18.7764 C   0  0  0  0  0  0  0  0  0  0  0  0
  -22.9451   -8.6152   20.3299 C   0  0  0  0  0  0  0  0  0  0  0  0
  -22.6161   -7.4444   21.0129 C   0  0  0  0  0  0  0  0  0  0  0  0
  -26.6458  -27.9280   21.0283 C   0  0  0  0  0  0  0  0  0  0  0  0
  -30.3853  -20.2769   16.7406 C   0  0  0  0  0  0  0  0  0  0  0  0
  -21.2114   -8.7143   22.5132 C   0  0  0  0  0  0  0  0  0  0  0  0
  -26.7365  -12.0892   19.9196 C   0  0  0  0  0  0  0  0  0  0  0  0
  -29.2259  -11.6340   19.5987 C   0  0  0  0  0  0  0  0  0  0  0  0
  -24.7337  -36.7780   22.0910 C   0  0  0  0  0  0  0  0  0  0  0  0
  -25.3082  -29.7302   20.1213 C   0  0  0  0  0  0  0  0  0  0  0  0
  -25.4259  -35.6121   21.7115 C   0  0  0  0  0  0  0  0  0  0  0  0
  -25.6119  -28.8643   21.1815 C   0  0  0  0  0  0  0  0  0  0  0  0
  -30.2807  -18.8984   16.5544 C   0  0  0  0  0  0  0  0  0  0  0  0
  -24.0466  -11.3553   20.0136 C   0  0  0  0  0  0  0  0  0  0  0  0
  -27.3591  -27.8455   19.8327 C   0  0  0  0  0  0  0  0  0  0  0  0
  -30.0817  -21.1471   15.6936 C   0  0  0  0  0  0  0  0  0  0  0  0
  -22.4073   -9.8356   20.7386 C   0  0  0  0  0  0  0  0  0  0  0  0
  -21.7493   -7.4939   22.1045 C   0  0  0  0  0  0  0  0  0  0  0  0
  -21.5405   -9.8852   21.8303 C   0  0  0  0  0  0  0  0  0  0  0  0
  -28.1255  -12.4689   19.8705 C   0  0  0  0  0  0  0  0  0  0  0  0
  -30.3152  -12.4676   19.6700 C   0  0  0  0  0  0  0  0  0  0  0  0
  -29.2604  -10.2305   19.3078 C   0  0  0  0  0  0  0  0  0  0  0  0
  -24.8963  -32.0036   22.3043 C   0  0  0  0  0  0  0  0  0  0  0  0
  -22.7894  -29.8779   23.5552 C   0  0  0  0  0  0  0  0  0  0  0  0
  -21.7843  -26.6306   23.8569 C   0  0  0  0  0  0  0  0  0  0  0  0
  -31.0089  -18.3529   18.9035 C   0  0  0  0  0  0  0  0  0  0  0  0
  -24.0915  -36.9128   23.4489 C   0  0  0  0  0  0  0  0  0  0  0  0
  -24.1890  -30.7270   20.2486 C   0  0  0  0  0  0  0  0  0  0  0  0
  -24.8630  -28.9163   22.4872 C   0  0  0  0  0  0  0  0  0  0  0  0
  -23.8811  -35.5776   24.1584 C   0  0  0  0  0  0  0  0  0  0  0  0
  -31.8318  -16.4728   21.8130 C   0  0  0  0  0  0  0  0  0  0  0  0
  -25.1417  -34.7230   24.0726 C   0  0  0  0  0  0  0  0  0  0  0  0
  -31.0798  -15.1544   21.6174 C   0  0  0  0  0  0  0  0  0  0  0  0
  -31.0316  -17.6650   21.2913 C   0  0  0  0  0  0  0  0  0  0  0  0
  -29.8138  -16.2223   19.7086 C   0  0  0  0  0  0  0  0  0  0  0  0
  -25.4908  -34.3997   22.6148 C   0  0  1  0  0  0  0  0  0  0  0  0
  -23.8719  -31.0877   21.6966 C   0  0  1  0  0  0  0  0  0  0  0  0
  -30.6079  -14.9856   20.1599 C   0  0  2  0  0  0  0  0  0  0  0  0
  -20.0522  -25.2004   24.9759 C   0  0  0  0  0  0  0  0  0  0  0  0
  -24.2801  -30.1490   26.2036 C   0  0  0  0  0  0  0  0  0  0  0  0
  -23.1462  -28.0548   26.9762 C   0  0  0  0  0  0  0  0  0  0  0  0
  -21.7892  -30.0704   26.4119 C   0  0  0  0  0  0  0  0  0  0  0  0
  -20.7179  -25.6886   21.2618 C   0  0  0  0  0  0  0  0  0  0  0  0
  -29.1101  -24.9878   18.4780 C   0  0  0  0  0  0  0  0  0  0  0  0
  -29.3982  -24.4053   17.0987 C   0  0  0  0  0  0  0  0  0  0  0  0
  -28.5965  -26.4187   18.3874 C   0  0  0  0  0  0  0  0  0  1  0  0
  -29.9521  -22.9905   17.1905 C   0  0  0  0  0  0  0  0  0  0  0  0
  -22.8758  -28.7472   24.5516 C   0  0  1  0  0  0  0  0  0  0  0  0
  -20.4179  -25.9825   23.7240 C   0  0  2  0  0  0  0  0  0  0  0  0
  -23.0384  -29.2555   26.0120 C   0  0  0  0  0  0  0  0  0  0  0  0
  -28.4830  -13.7357   20.0977 N   0  0  0  0  0  0  0  0  0  0  0  0
  -29.8204  -13.7029   19.9688 N   0  0  0  0  0  0  0  0  0  0  0  0
  -23.7815  -29.9121   22.5651 N   0  0  0  0  0  0  0  0  0  0  0  0
  -30.6222  -17.4361   19.9039 N   0  0  0  0  0  0  0  0  0  0  0  0
  -31.6385  -12.2571   19.5056 N   0  0  0  0  0  0  0  0  0  0  0  0
  -28.0497   -9.5253   19.2738 N   0  0  0  0  0  0  0  0  0  0  0  0
  -30.5894  -18.0140   17.6175 N   0  0  0  0  0  0  0  0  0  0  0  0
  -24.6348  -33.3467   22.1117 N   0  0  0  0  0  0  0  0  0  0  0  0
  -21.6933  -27.9208   24.3348 N   0  0  0  0  0  0  0  0  0  0  0  0
  -20.3987  -25.0477   22.5635 N   0  3  0  0  0  0  0  0  0  0  0  0
  -30.3345   -9.6166   19.1007 O   0  0  0  0  0  0  0  0  0  0  0  0
  -25.8524  -31.5271   22.9048 O   0  0  0  0  0  0  0  0  0  0  0  0
  -21.8711  -30.6965   23.6474 O   0  0  0  0  0  0  0  0  0  0  0  0
  -22.8281  -26.0490   23.5693 O   0  0  0  0  0  0  0  0  0  0  0  0
  -31.6871  -19.3499   19.1642 O   0  0  0  0  0  0  0  0  0  0  0  0
  -22.7343  -10.9971   20.0590 O   0  0  0  0  0  0  0  0  0  0  0  0
  -28.3582  -26.9315   19.6976 O   0  0  0  0  0  0  0  0  0  1  0  0
  -30.1844  -22.5016   15.8767 O   0  0  0  0  0  0  0  0  0  0  0  0
  -21.4322   -6.3692   22.7593 F   0  0  0  0  0  0  0  0  0  0  0  0
  -21.0197  -11.0545   22.2268 F   0  0  0  0  0  0  0  0  0  0  0  0
  1  2  1  0  0  0  0
  1  6  2  0  0  0  0
  2  7  2  0  0  0  0
  3  9  1  0  0  0  0
  3 10  2  0  0  0  0
  4 11  2  0  0  0  0
  4 19  1  0  0  0  0
  5 12  1  0  0  0  0
  5 19  2  0  0  0  0
  6 21  1  0  0  0  0
  7 23  1  0  0  0  0
  8 13  2  0  0  0  0
  8 22  1  0  0  0  0
  9 25  2  0  0  0  0
 10 28  1  0  0  0  0
 11 26  1  0  0  0  0
 12 26  2  0  0  0  0
 13 27  1  0  0  0  0
 14 15  2  0  0  0  0
 14 29  1  0  0  0  0
 15 30  1  0  0  0  0
 16 24  1  0  0  0  0
 16 27  2  0  0  0  0
 17 25  1  0  0  0  0
 17 28  2  0  0  0  0
 18 30  2  0  0  0  0
 18 31  1  0  0  0  0
 19 32  1  0  0  0  0
 20 32  1  0  0  0  0
 20 33  2  0  0  0  0
 20 34  1  0  0  0  0
 21 23  2  0  0  0  0
 21 39  1  0  0  0  0
 22 24  2  0  0  0  0
 22 40  1  0  0  0  0
 23 48  1  0  0  0  0
 24 41  1  0  0  0  0
 25 69  1  0  0  0  0
 26 78  1  0  0  0  0
 27 79  1  0  0  0  0
 28 80  1  0  0  0  0
 29 31  2  0  0  0  0
 29 78  1  0  0  0  0
 30 81  1  0  0  0  0
 31 82  1  0  0  0  0
 32 63  2  0  0  0  0
 33 64  1  0  0  0  0
 33 67  1  0  0  0  0
 34 68  1  0  0  0  0
 34 73  2  0  0  0  0
 35 49  1  0  0  0  0
 35 70  1  0  0  0  0
 35 74  2  0  0  0  0
 36 60  1  0  0  0  0
 36 65  1  0  0  0  0
 36 75  2  0  0  0  0
 37 61  1  0  0  0  0
 37 71  1  0  0  0  0
 37 76  2  0  0  0  0
 38 66  1  0  0  0  0
 38 69  1  0  0  0  0
 38 77  2  0  0  0  0
 39 42  1  0  0  0  0
 40 49  1  0  0  0  0
 41 65  1  0  0  0  0
 42 44  1  0  0  0  0
 43 45  1  0  0  0  0
 43 46  1  0  0  0  0
 44 48  1  0  0  0  0
 45 50  1  0  0  0  0
 46 66  1  0  0  0  0
 47 50  1  0  0  0  0
 47 66  1  0  0  0  0
 48 70  1  0  0  0  0
 49 65  1  0  0  0  0
 50 64  1  0  0  0  0
 51 61  1  0  0  0  0
 52 62  1  0  0  0  0
 53 62  1  0  0  0  0
 54 62  1  0  0  0  0
 55 72  1  0  0  0  0
 56 57  1  0  0  0  0
 56 58  1  0  0  0  0
 57 59  1  0  0  0  0
 58 79  1  0  0  0  0
 59 80  1  0  0  0  0
 60 62  1  0  0  0  0
 60 71  1  0  0  0  0
 61 72  1  0  0  0  0
 63 64  1  0  0  0  0
M  CHG  1  72   1
M  ISO  4  38 100  58 101  69 100  79 101
M  END
> <Batch ID>
0002

> <Smiles>
CNC(C)C(=O)NC(C(=O)N1Cc2cc([101O:1][101CH2:1]CCCOc3cccc([100NH:0][100C:0](=O)N4CCCC(n5nc(-c6ccc(Oc7ccc(F)cc7F)cc6)c(C(N)=O)c5N)C4)c3)ccc2CC1C(=O)NC1CCCc2ccccc21)C(C)(C)C

> <Shape>
0.287

> <Color>
0.073

> <Negative vol penalty>
0.000

$$$$

  -OEChem-04052315183D

 91 98  0     1  0  0  0  0  0999 V2000
  -31.4144  -25.2954   17.8940 C   0  0  0  0  0  0  0  0  0  0  0  0
  -30.0979  -24.9661   18.2001 C   0  0  0  0  0  0  0  0  0  0  0  0
  -31.9744  -21.8413   19.4387 C   0  0  0  0  0  0  0  0  0  0  0  0
  -32.5379  -19.7411   18.3858 C   0  0  0  0  0  0  0  0  0  0  0  0
  -32.1235  -26.1675   18.7189 C   0  0  0  0  0  0  0  0  0  0  0  0
  -29.4900  -25.5079   19.3321 C   0  0  0  0  0  0  0  0  0  0  0  0
  -23.6048  -27.0846   19.9521 C   0  0  0  0  0  0  0  0  0  0  0  0
  -33.3007  -22.2566   19.3203 C   0  0  0  0  0  0  0  0  0  0  0  0
  -33.8643  -20.1564   18.2674 C   0  0  0  0  0  0  0  0  0  0  0  0
  -22.5142  -26.4319   20.5252 C   0  0  0  0  0  0  0  0  0  0  0  0
  -35.6709  -22.1695   16.2415 C   0  0  0  0  0  0  0  0  0  0  0  0
  -36.3114  -21.9480   15.0224 C   0  0  0  0  0  0  0  0  0  0  0  0
  -22.8688  -27.6525   22.5755 C   0  0  0  0  0  0  0  0  0  0  0  0
  -37.9647  -20.5851   16.1387 C   0  0  0  0  0  0  0  0  0  0  0  0
  -31.5930  -20.5835   18.9715 C   0  0  0  0  0  0  0  0  0  0  0  0
  -29.1861  -20.3431   18.1609 C   0  0  0  0  0  0  0  0  0  0  0  0
  -31.5209  -26.7279   19.8562 C   0  0  0  0  0  0  0  0  0  0  0  0
  -24.3435  -28.0198   20.6913 C   0  0  0  0  0  0  0  0  0  0  0  0
  -30.1921  -26.3873   20.1738 C   0  0  0  0  0  0  0  0  0  0  0  0
  -23.9667  -28.3176   22.0087 C   0  0  0  0  0  0  0  0  0  0  0  0
  -34.2456  -21.4141   18.7346 C   0  0  0  0  0  0  0  0  0  0  0  0
  -22.1478  -26.7137   21.8380 C   0  0  0  0  0  0  0  0  0  0  0  0
  -36.1774  -21.5989   17.4093 C   0  0  0  0  0  0  0  0  0  0  0  0
  -37.4583  -21.1558   14.9709 C   0  0  0  0  0  0  0  0  0  0  0  0
  -37.3242  -20.8067   17.3578 C   0  0  0  0  0  0  0  0  0  0  0  0
  -30.2232  -20.1538   19.0940 C   0  0  0  0  0  0  0  0  0  0  0  0
  -28.0893  -19.7560   18.7429 C   0  0  0  0  0  0  0  0  0  0  0  0
  -29.2121  -20.9915   16.8824 C   0  0  0  0  0  0  0  0  0  0  0  0
  -27.3591  -28.2237   21.6752 C   0  0  0  0  0  0  0  0  0  0  0  0
  -26.4289  -31.1708   22.6611 C   0  0  0  0  0  0  0  0  0  0  0  0
  -19.1913  -16.8135   22.2703 C   0  0  0  0  0  0  0  0  0  0  0  0
  -22.9975  -15.5333   19.9541 C   0  0  0  0  0  0  0  0  0  0  0  0
  -23.8863  -33.2390   23.6120 C   0  0  0  0  0  0  0  0  0  0  0  0
  -25.7340  -15.5335   21.5301 C   0  0  0  0  0  0  0  0  0  0  0  0
  -32.3427  -27.6287   20.7438 C   0  0  0  0  0  0  0  0  0  0  0  0
  -25.5009  -28.7349   20.0499 C   0  0  0  0  0  0  0  0  0  0  0  0
  -24.7144  -29.3282   22.8381 C   0  0  0  0  0  0  0  0  0  0  0  0
  -31.5049  -28.4529   21.7180 C   0  0  0  0  0  0  0  0  0  0  0  0
  -27.3818  -18.0398   23.4483 C   0  0  0  0  0  0  0  0  0  0  0  0
  -30.4626  -27.5739   22.4019 C   0  0  0  0  0  0  0  0  0  0  0  0
  -28.1868  -18.8243   22.4107 C   0  0  0  0  0  0  0  0  0  0  0  0
  -27.3393  -16.5490   23.1201 C   0  0  0  0  0  0  0  0  0  0  0  0
  -27.6726  -17.0120   20.7226 C   0  0  0  0  0  0  0  0  0  0  0  0
  -29.4901  -26.9739   21.3792 C   0  0  1  0  0  0  0  0  0  0  0  0
  -26.4958  -29.2909   21.0639 C   0  0  1  0  0  0  0  0  0  0  0  0
  -27.6971  -18.5283   20.9804 C   0  0  2  0  0  0  0  0  0  0  0  0
  -23.4404  -35.5807   24.3965 C   0  0  0  0  0  0  0  0  0  0  0  0
  -27.4936  -30.4444   25.4268 C   0  0  0  0  0  0  0  0  0  0  0  0
  -26.1952  -32.3727   26.3564 C   0  0  0  0  0  0  0  0  0  0  0  0
  -28.0075  -32.7787   24.6910 C   0  0  0  0  0  0  0  0  0  0  0  0
  -23.1317  -13.0700   18.0823 C   0  0  0  0  0  0  0  0  0  0  0  0
  -25.6029  -13.0480   18.3890 C   0  0  0  0  0  0  0  0  0  0  0  0
  -24.5016  -15.0093   17.2953 C   0  0  0  0  0  0  0  0  0  0  0  0
  -22.1668  -33.8188   21.2740 C   0  0  0  0  0  0  0  0  0  0  0  0
  -20.5072  -16.1040   22.0059 C   0  0  0  0  0  0  0  0  0  0  0  0
  -19.2587  -21.7277   23.8124 C   0  0  0  0  0  0  0  0  0  0  0  0
  -18.9435  -20.2920   23.3866 C   0  0  0  0  0  0  0  0  0  0  0  0
  -19.8369  -22.5362   22.6489 C   0  0  0  0  0  0  0  0  0  0  0  0
  -18.3741  -19.4344   24.5190 C   0  0  0  0  0  0  0  0  0  0  0  0
  -20.1831  -23.9600   23.0793 C   0  0  0  0  0  0  0  0  0  0  0  0
  -20.5978  -15.5525   20.5897 C   0  0  0  0  0  0  0  0  0  0  0  0
  -17.9867  -18.0281   24.0775 C   0  0  0  0  0  0  0  0  0  0  0  0
  -20.7986  -24.7578   21.9384 C   0  0  0  0  0  0  0  0  0  1  0  0
  -25.8343  -31.7359   23.9284 C   0  0  1  0  0  0  0  0  0  0  0  0
  -24.2001  -14.5989   19.8175 C   0  0  1  0  0  0  0  0  0  0  0  0
  -23.5288  -34.6539   23.1939 C   0  0  2  0  0  0  0  0  0  0  0  0
  -26.8695  -31.8124   25.0859 C   0  0  0  0  0  0  0  0  0  0  0  0
  -24.3521  -13.9539   18.4079 C   0  0  0  0  0  0  0  0  0  0  0  0
  -29.8210  -19.4979   20.1858 N   0  0  0  0  0  0  0  0  0  0  0  0
  -28.5191  -19.2700   19.9426 N   0  0  0  0  0  0  0  0  0  0  0  0
  -25.8426  -29.9963   22.1684 N   0  0  0  0  0  0  0  0  0  0  0  0
  -26.8650  -16.3367   21.7505 N   0  0  0  0  0  0  0  0  0  0  0  0
  -26.8086  -19.6133   18.3404 N   0  0  0  0  0  0  0  0  0  0  0  0
  -30.4219  -21.5407   16.4362 N   0  0  0  0  0  0  0  0  0  0  0  0
  -28.5166  -27.9624   20.9672 N   0  0  0  0  0  0  0  0  0  0  0  0
  -19.1237  -17.3114   23.5675 N   0  0  0  0  0  0  0  0  0  0  0  0
  -21.8606  -14.8793   20.4079 N   0  0  0  0  0  0  0  0  0  0  0  0
  -25.2470  -33.0212   23.5660 N   0  0  0  0  0  0  0  0  0  0  0  0
  -25.3478  -15.3894   20.2031 N   0  0  0  0  0  0  0  0  0  0  0  0
  -22.2150  -34.6700   22.4906 N   0  3  0  0  0  0  0  0  0  0  0  0
  -28.1887  -21.0957   16.1645 O   0  0  0  0  0  0  0  0  0  0  0  0
  -27.0022  -27.6789   22.7132 O   0  0  0  0  0  0  0  0  0  0  0  0
  -27.3739  -31.7540   22.1241 O   0  0  0  0  0  0  0  0  0  0  0  0
  -18.3064  -16.9251   21.4262 O   0  0  0  0  0  0  0  0  0  0  0  0
  -23.0465  -16.7281   19.6659 O   0  0  0  0  0  0  0  0  0  0  0  0
  -23.0430  -32.4111   23.9495 O   0  0  0  0  0  0  0  0  0  0  0  0
  -25.1110  -14.9897   22.4483 O   0  0  0  0  0  0  0  0  0  0  0  0
  -35.5399  -21.8191   18.6187 O   0  0  0  0  0  0  0  0  0  0  0  0
  -21.0841  -26.0776   22.4000 O   0  0  0  0  0  0  0  0  0  1  0  0
  -38.0723  -20.9419   13.7999 F   0  0  0  0  0  0  0  0  0  0  0  0
  -37.8148  -20.2548   18.4761 F   0  0  0  0  0  0  0  0  0  0  0  0
  1  2  1  0  0  0  0
  1  5  2  0  0  0  0
  2  6  2  0  0  0  0
  3  8  2  0  0  0  0
  3 15  1  0  0  0  0
  4  9  1  0  0  0  0
  4 15  2  0  0  0  0
  5 17  1  0  0  0  0
  6 19  1  0  0  0  0
  7 10  2  0  0  0  0
  7 18  1  0  0  0  0
  8 21  1  0  0  0  0
  9 21  2  0  0  0  0
 10 22  1  0  0  0  0
 11 12  2  0  0  0  0
 11 23  1  0  0  0  0
 12 24  1  0  0  0  0
 13 20  1  0  0  0  0
 13 22  2  0  0  0  0
 14 24  2  0  0  0  0
 14 25  1  0  0  0  0
 15 26  1  0  0  0  0
 16 26  1  0  0  0  0
 16 27  2  0  0  0  0
 16 28  1  0  0  0  0
 17 19  2  0  0  0  0
 17 35  1  0  0  0  0
 18 20  2  0  0  0  0
 18 36  1  0  0  0  0
 19 44  1  0  0  0  0
 20 37  1  0  0  0  0
 21 88  1  0  0  0  0
 22 89  1  0  0  0  0
 23 25  2  0  0  0  0
 23 88  1  0  0  0  0
 24 90  1  0  0  0  0
 25 91  1  0  0  0  0
 26 69  2  0  0  0  0
 27 70  1  0  0  0  0
 27 73  1  0  0  0  0
 28 74  1  0  0  0  0
 28 81  2  0  0  0  0
 29 45  1  0  0  0  0
 29 75  1  0  0  0  0
 29 82  2  0  0  0  0
 30 64  1  0  0  0  0
 30 71  1  0  0  0  0
 30 83  2  0  0  0  0
 31 55  1  0  0  0  0
 31 76  1  0  0  0  0
 31 84  2  0  0  0  0
 32 65  1  0  0  0  0
 32 77  1  0  0  0  0
 32 85  2  0  0  0  0
 33 66  1  0  0  0  0
 33 78  1  0  0  0  0
 33 86  2  0  0  0  0
 34 72  1  0  0  0  0
 34 79  1  0  0  0  0
 34 87  2  0  0  0  0
 35 38  1  0  0  0  0
 36 45  1  0  0  0  0
 37 71  1  0  0  0  0
 38 40  1  0  0  0  0
 39 41  1  0  0  0  0
 39 42  1  0  0  0  0
 40 44  1  0  0  0  0
 41 46  1  0  0  0  0
 42 72  1  0  0  0  0
 43 46  1  0  0  0  0
 43 72  1  0  0  0  0
 44 75  1  0  0  0  0
 45 71  1  0  0  0  0
 46 70  1  0  0  0  0
 47 66  1  0  0  0  0
 48 67  1  0  0  0  0
 49 67  1  0  0  0  0
 50 67  1  0  0  0  0
 51 68  1  0  0  0  0
 52 68  1  0  0  0  0
 53 68  1  0  0  0  0
 54 80  1  0  0  0  0
 55 61  1  0  0  0  0
 56 57  1  0  0  0  0
 56 58  1  0  0  0  0
 57 59  1  0  0  0  0
 58 60  1  0  0  0  0
 59 62  1  0  0  0  0
 60 63  1  0  0  0  0
 61 77  1  0  0  0  0
 62 76  1  0  0  0  0
 63 89  1  0  0  0  0
 64 67  1  0  0  0  0
 64 78  1  0  0  0  0
 65 68  1  0  0  0  0
 65 79  1  0  0  0  0
 66 80  1  0  0  0  0
 69 70  1  0  0  0  0
M  CHG  1  80   1
M  ISO  4  34 100  63 101  79 100  89 101
M  END
> <Batch ID>
0002

> <Smiles>
CNC(C)C(=O)NC(C(=O)N1Cc2cc([101O:1][101CH2:1]CCCCCCNC(=O)CCNC(=O)C([100NH:0][100C:0](=O)N3CCCC(n4nc(-c5ccc(Oc6ccc(F)cc6F)cc5)c(C(N)=O)c4N)C3)C(C)(C)C)ccc2CC1C(=O)NC1CCCc2ccccc21)C(C)(C)C

> <Shape>
0.205

> <Color>
0.056

> <Negative vol penalty>
0.000

$$$$

  -OEChem-04052315183D

 78 86  0     1  0  0  0  0  0999 V2000
  -26.7739  -32.6995   28.1675 C   0  0  0  0  0  0  0  0  0  0  0  0
  -27.2042  -31.6974   27.3039 C   0  0  0  0  0  0  0  0  0  0  0  0
  -27.9925  -22.3141   16.9447 C   0  0  0  0  0  0  0  0  0  0  0  0
  -26.5064  -12.7174   21.6170 C   0  0  0  0  0  0  0  0  0  0  0  0
  -26.0125  -13.7464   19.4877 C   0  0  0  0  0  0  0  0  0  0  0  0
  -25.4236  -33.0436   28.2165 C   0  0  0  0  0  0  0  0  0  0  0  0
  -26.2843  -31.0379   26.4894 C   0  0  0  0  0  0  0  0  0  0  0  0
  -27.2352  -28.9309   20.8182 C   0  0  0  0  0  0  0  0  0  0  0  0
  -27.8815  -23.5924   17.4918 C   0  0  0  0  0  0  0  0  0  0  0  0
  -28.5263  -21.2739   17.7054 C   0  0  0  0  0  0  0  0  0  0  0  0
  -25.2502  -12.1112   21.6155 C   0  0  0  0  0  0  0  0  0  0  0  0
  -24.7563  -13.1402   19.4860 C   0  0  0  0  0  0  0  0  0  0  0  0
  -27.5382  -27.6615   20.3277 C   0  0  0  0  0  0  0  0  0  0  0  0
  -23.7752   -9.4401   20.1584 C   0  0  0  0  0  0  0  0  0  0  0  0
  -23.7052   -8.0929   20.5128 C   0  0  0  0  0  0  0  0  0  0  0  0
  -25.1982  -27.2824   19.8806 C   0  0  0  0  0  0  0  0  0  0  0  0
  -28.8381  -22.7902   19.5602 C   0  0  0  0  0  0  0  0  0  0  0  0
  -22.2435   -8.6529   22.3531 C   0  0  0  0  0  0  0  0  0  0  0  0
  -26.8875  -13.5351   20.5531 C   0  0  0  0  0  0  0  0  0  0  0  0
  -29.3811  -13.6417   20.0253 C   0  0  0  0  0  0  0  0  0  0  0  0
  -24.4882  -32.3946   27.3953 C   0  0  0  0  0  0  0  0  0  0  0  0
  -25.9080  -29.3822   20.8538 C   0  0  0  0  0  0  0  0  0  0  0  0
  -24.9201  -31.3726   26.5285 C   0  0  0  0  0  0  0  0  0  0  0  0
  -24.8813  -28.5589   20.3697 C   0  0  0  0  0  0  0  0  0  0  0  0
  -28.3043  -23.8305   18.7995 C   0  0  0  0  0  0  0  0  0  0  0  0
  -28.9491  -21.5119   19.0131 C   0  0  0  0  0  0  0  0  0  0  0  0
  -24.3751  -12.3225   20.5500 C   0  0  0  0  0  0  0  0  0  0  0  0
  -26.5193  -26.8359   19.8615 C   0  0  0  0  0  0  0  0  0  0  0  0
  -23.0795  -10.3938   20.9015 C   0  0  0  0  0  0  0  0  0  0  0  0
  -22.9393   -7.6992   21.6101 C   0  0  0  0  0  0  0  0  0  0  0  0
  -22.3136  -10.0001   21.9988 C   0  0  0  0  0  0  0  0  0  0  0  0
  -28.1848  -14.1621   20.5545 C   0  0  0  0  0  0  0  0  0  0  0  0
  -30.3189  -14.6133   20.2763 C   0  0  0  0  0  0  0  0  0  0  0  0
  -29.6229  -12.3918   19.3657 C   0  0  0  0  0  0  0  0  0  0  0  0
  -23.8999  -30.2656   23.1541 C   0  0  0  0  0  0  0  0  0  0  0  0
  -21.9913  -31.0484   20.6508 C   0  0  0  0  0  0  0  0  0  0  0  0
  -21.1684  -30.5681   17.3737 C   0  0  0  0  0  0  0  0  0  0  0  0
  -29.9572  -20.5208   21.0983 C   0  0  0  0  0  0  0  0  0  0  0  0
  -23.0321  -32.7683   27.5176 C   0  0  0  0  0  0  0  0  0  0  0  0
  -25.6007  -30.7644   21.3612 C   0  0  0  0  0  0  0  0  0  0  0  0
  -23.4424  -29.0040   20.3674 C   0  0  0  0  0  0  0  0  0  0  0  0
  -22.1777  -32.2795   26.3509 C   0  0  0  0  0  0  0  0  0  0  0  0
  -31.3281  -18.1363   23.3592 C   0  0  0  0  0  0  0  0  0  0  0  0
  -22.4919  -30.8209   26.0335 C   0  0  0  0  0  0  0  0  0  0  0  0
  -30.7915  -16.7986   22.8447 C   0  0  0  0  0  0  0  0  0  0  0  0
  -30.2992  -19.2555   23.2095 C   0  0  0  0  0  0  0  0  0  0  0  0
  -29.2062  -18.0732   21.3449 C   0  0  0  0  0  0  0  0  0  0  0  0
  -23.9563  -30.6512   25.6115 C   0  0  1  0  0  0  0  0  0  0  0  0
  -24.1568  -30.9225   21.8274 C   0  0  1  0  0  0  0  0  0  0  0  0
  -30.2305  -16.9288   21.4151 C   0  0  2  0  0  0  0  0  0  0  0  0
  -19.5398  -31.3237   15.6205 C   0  0  0  0  0  0  0  0  0  0  0  0
  -19.8198  -29.3285   21.9301 C   0  0  0  0  0  0  0  0  0  0  0  0
  -18.6126  -29.3443   19.7367 C   0  0  0  0  0  0  0  0  0  0  0  0
  -19.0056  -31.4839   20.9576 C   0  0  0  0  0  0  0  0  0  0  0  0
  -23.3324  -31.6255   15.6538 C   0  0  0  0  0  0  0  0  0  0  0  0
  -28.1847  -25.2057   19.3875 C   0  0  0  0  0  0  0  0  0  1  0  0
  -20.9499  -30.3236   19.8328 C   0  0  1  0  0  0  0  0  0  0  0  0
  -20.9071  -31.5505   16.2463 C   0  0  2  0  0  0  0  0  0  0  0  0
  -19.6238  -30.1106   20.6160 C   0  0  0  0  0  0  0  0  0  0  0  0
  -28.3453  -15.3704   21.1006 N   0  0  0  0  0  0  0  0  0  0  0  0
  -29.6533  -15.6173   20.9160 N   0  0  0  0  0  0  0  0  0  0  0  0
  -23.1921  -30.3615   20.8793 N   0  0  0  0  0  0  0  0  0  0  0  0
  -29.8156  -19.3219   21.8287 N   0  0  0  0  0  0  0  0  0  0  0  0
  -31.6396  -14.6981   20.0102 N   0  0  0  0  0  0  0  0  0  0  0  0
  -28.5477  -11.5102   19.1899 N   0  0  0  0  0  0  0  0  0  0  0  0
  -29.4906  -20.4548   19.7858 N   0  0  0  0  0  0  0  0  0  0  0  0
  -24.1410  -31.0823   24.2423 N   0  0  0  0  0  0  0  0  0  0  0  0
  -20.7987  -31.0848   18.5974 N   0  0  0  0  0  0  0  0  0  0  0  0
  -21.9408  -31.4053   15.1827 N   0  3  0  0  0  0  0  0  0  0  0  0
  -30.7622  -12.0595   18.9593 O   0  0  0  0  0  0  0  0  0  0  0  0
  -23.5105  -29.1042   23.1878 O   0  0  0  0  0  0  0  0  0  0  0  0
  -21.7511  -32.1850   21.0655 O   0  0  0  0  0  0  0  0  0  0  0  0
  -21.6488  -29.4523   17.1870 O   0  0  0  0  0  0  0  0  0  0  0  0
  -30.4803  -21.5233   21.5915 O   0  0  0  0  0  0  0  0  0  0  0  0
  -23.1494  -11.7309   20.5480 O   0  0  0  0  0  0  0  0  0  0  0  0
  -26.8122  -25.5962   19.3828 O   0  0  0  0  0  0  0  0  0  1  0  0
  -22.8709   -6.4052   21.9493 F   0  0  0  0  0  0  0  0  0  0  0  0
  -21.6420  -10.9116   22.7158 F   0  0  0  0  0  0  0  0  0  0  0  0
  1  2  1  0  0  0  0
  1  6  2  0  0  0  0
  2  7  2  0  0  0  0
  3  9  2  0  0  0  0
  3 10  1  0  0  0  0
  4 11  2  0  0  0  0
  4 19  1  0  0  0  0
  5 12  1  0  0  0  0
  5 19  2  0  0  0  0
  6 21  1  0  0  0  0
  7 23  1  0  0  0  0
  8 13  2  0  0  0  0
  8 22  1  0  0  0  0
  9 25  1  0  0  0  0
 10 26  2  0  0  0  0
 11 27  1  0  0  0  0
 12 27  2  0  0  0  0
 13 28  1  0  0  0  0
 14 15  2  0  0  0  0
 14 29  1  0  0  0  0
 15 30  1  0  0  0  0
 16 24  1  0  0  0  0
 16 28  2  0  0  0  0
 17 25  2  0  0  0  0
 17 26  1  0  0  0  0
 18 30  2  0  0  0  0
 18 31  1  0  0  0  0
 19 32  1  0  0  0  0
 20 32  1  0  0  0  0
 20 33  2  0  0  0  0
 20 34  1  0  0  0  0
 21 23  2  0  0  0  0
 21 39  1  0  0  0  0
 22 24  2  0  0  0  0
 22 40  1  0  0  0  0
 23 48  1  0  0  0  0
 24 41  1  0  0  0  0
 25 56  1  0  0  0  0
 26 66  1  0  0  0  0
 27 75  1  0  0  0  0
 28 76  1  0  0  0  0
 29 31  2  0  0  0  0
 29 75  1  0  0  0  0
 30 77  1  0  0  0  0
 31 78  1  0  0  0  0
 32 60  2  0  0  0  0
 33 61  1  0  0  0  0
 33 64  1  0  0  0  0
 34 65  1  0  0  0  0
 34 70  2  0  0  0  0
 35 49  1  0  0  0  0
 35 67  1  0  0  0  0
 35 71  2  0  0  0  0
 36 57  1  0  0  0  0
 36 62  1  0  0  0  0
 36 72  2  0  0  0  0
 37 58  1  0  0  0  0
 37 68  1  0  0  0  0
 37 73  2  0  0  0  0
 38 63  1  0  0  0  0
 38 66  1  0  0  0  0
 38 74  2  0  0  0  0
 39 42  1  0  0  0  0
 40 49  1  0  0  0  0
 41 62  1  0  0  0  0
 42 44  1  0  0  0  0
 43 45  1  0  0  0  0
 43 46  1  0  0  0  0
 44 48  1  0  0  0  0
 45 50  1  0  0  0  0
 46 63  1  0  0  0  0
 47 50  1  0  0  0  0
 47 63  1  0  0  0  0
 48 67  1  0  0  0  0
 49 62  1  0  0  0  0
 50 61  1  0  0  0  0
 51 58  1  0  0  0  0
 52 59  1  0  0  0  0
 53 59  1  0  0  0  0
 54 59  1  0  0  0  0
 55 69  1  0  0  0  0
 56 76  1  0  0  0  0
 57 59  1  0  0  0  0
 57 68  1  0  0  0  0
 58 69  1  0  0  0  0
 60 61  1  0  0  0  0
M  CHG  1  69   1
M  ISO  4  38 100  56 101  66 100  76 101
M  END
> <Batch ID>
0002

> <Smiles>
CNC(C)C(=O)NC(C(=O)N1Cc2cc([101O:1][101CH2:1]c3cccc([100NH:0][100C:0](=O)N4CCCC(n5nc(-c6ccc(Oc7ccc(F)cc7F)cc6)c(C(N)=O)c5N)C4)c3)ccc2CC1C(=O)NC1CCCc2ccccc21)C(C)(C)C

> <Shape>
0.294

> <Color>
0.112

> <Negative vol penalty>
0.000

$$$$

  -OEChem-04052315183D

 81 89  0     1  0  0  0  0  0999 V2000
  -31.0321  -23.5433   16.2987 C   0  0  0  0  0  0  0  0  0  0  0  0
  -29.6858  -23.8880   16.2344 C   0  0  0  0  0  0  0  0  0  0  0  0
  -20.7385  -23.6600   23.0526 C   0  0  0  0  0  0  0  0  0  0  0  0
  -23.8376  -14.5233   21.0189 C   0  0  0  0  0  0  0  0  0  0  0  0
  -25.4316  -14.6626   19.2087 C   0  0  0  0  0  0  0  0  0  0  0  0
  -31.6827  -23.5052   17.5313 C   0  0  0  0  0  0  0  0  0  0  0  0
  -28.9890  -24.1937   17.4029 C   0  0  0  0  0  0  0  0  0  0  0  0
  -24.5028  -28.3132   18.0430 C   0  0  0  0  0  0  0  0  0  0  0  0
  -24.2172  -13.2014   21.2515 C   0  0  0  0  0  0  0  0  0  0  0  0
  -25.8112  -13.3406   19.4414 C   0  0  0  0  0  0  0  0  0  0  0  0
  -23.1141  -28.1917   18.0665 C   0  0  0  0  0  0  0  0  0  0  0  0
  -24.5131   -9.6750   22.0885 C   0  0  0  0  0  0  0  0  0  0  0  0
  -23.5030   -8.7350   22.2925 C   0  0  0  0  0  0  0  0  0  0  0  0
  -20.5015  -22.8241   21.9336 C   0  0  0  0  0  0  0  0  0  0  0  0
  -23.1653  -28.1420   20.4778 C   0  0  0  0  0  0  0  0  0  0  0  0
  -22.6087   -9.2204   20.1013 C   0  0  0  0  0  0  0  0  0  0  0  0
  -20.0454  -24.8320   22.8448 C   0  0  0  0  0  0  0  0  0  0  0  0
  -24.4448  -15.2539   19.9975 C   0  0  0  0  0  0  0  0  0  0  0  0
  -24.6071  -17.7775   20.3334 C   0  0  0  0  0  0  0  0  0  0  0  0
  -30.9959  -23.8200   18.7145 C   0  0  0  0  0  0  0  0  0  0  0  0
  -25.2353  -28.3391   19.2385 C   0  0  0  0  0  0  0  0  0  0  0  0
  -29.6306  -24.1585   18.6526 C   0  0  0  0  0  0  0  0  0  0  0  0
  -24.5630  -28.2665   20.4668 C   0  0  0  0  0  0  0  0  0  0  0  0
  -25.2040  -12.6101   20.4628 C   0  0  0  0  0  0  0  0  0  0  0  0
  -22.4454  -28.1031   19.2839 C   0  0  0  0  0  0  0  0  0  0  0  0
  -24.5709  -10.3879   20.8909 C   0  0  0  0  0  0  0  0  0  0  0  0
  -22.5508   -8.5077   21.2989 C   0  0  0  0  0  0  0  0  0  0  0  0
  -23.6188  -10.1606   19.8973 C   0  0  0  0  0  0  0  0  0  0  0  0
  -24.0527  -16.6193   19.7563 C   0  0  0  0  0  0  0  0  0  0  0  0
  -19.6709  -23.5110   21.0758 C   0  0  0  0  0  0  0  0  0  0  0  0
  -23.8917  -18.8121   19.7818 C   0  0  0  0  0  0  0  0  0  0  0  0
  -25.6735  -17.9066   21.2830 C   0  0  0  0  0  0  0  0  0  0  0  0
  -19.1416  -23.0514   19.7660 C   0  0  0  0  0  0  0  0  0  0  0  0
  -27.4767  -26.4963   20.5362 C   0  0  0  0  0  0  0  0  0  0  0  0
  -27.5571  -28.8412   22.7761 C   0  0  0  0  0  0  0  0  0  0  0  0
  -25.9422  -31.4060   24.3449 C   0  0  0  0  0  0  0  0  0  0  0  0
  -19.1190  -21.1378   18.1972 C   0  0  0  0  0  0  0  0  0  0  0  0
  -31.7295  -23.7191   20.0284 C   0  0  0  0  0  0  0  0  0  0  0  0
  -26.7305  -28.4975   19.1968 C   0  0  0  0  0  0  0  0  0  0  0  0
  -25.3013  -28.3102   21.7788 C   0  0  0  0  0  0  0  0  0  0  0  0
  -31.0150  -24.4210   21.1804 C   0  0  0  0  0  0  0  0  0  0  0  0
  -20.5984  -18.8605   15.9340 C   0  0  0  0  0  0  0  0  0  0  0  0
  -29.5327  -24.0611   21.1877 C   0  0  0  0  0  0  0  0  0  0  0  0
  -21.6815  -18.1730   16.7697 C   0  0  0  0  0  0  0  0  0  0  0  0
  -19.3380  -19.1346   16.7533 C   0  0  0  0  0  0  0  0  0  0  0  0
  -20.6371  -19.1692   18.8435 C   0  0  0  0  0  0  0  0  0  0  0  0
  -28.8470  -24.5208   19.8955 C   0  0  1  0  0  0  0  0  0  0  0  0
  -27.4201  -27.9959   20.4618 C   0  0  1  0  0  0  0  0  0  0  0  0
  -21.9521  -18.9352   18.0824 C   0  0  1  0  0  0  0  0  0  0  0  0
  -26.2505  -33.1109   26.1602 C   0  0  0  0  0  0  0  0  0  0  0  0
  -27.1360  -26.6727   24.8809 C   0  0  0  0  0  0  0  0  0  0  0  0
  -26.5093  -28.4704   26.5070 C   0  0  0  0  0  0  0  0  0  0  0  0
  -28.7971  -28.4320   25.5135 C   0  0  0  0  0  0  0  0  0  0  0  0
  -25.6003  -33.6544   22.4510 C   0  0  0  0  0  0  0  0  0  0  0  0
  -19.2211  -26.6206   19.9465 C   0  0  0  0  0  0  0  0  0  0  0  0
  -18.5293  -25.8060   21.0418 C   0  0  0  0  0  0  0  0  0  0  0  0
  -20.5217  -27.2691   20.4063 C   0  0  0  0  0  0  0  0  0  1  0  0
  -26.8316  -29.1060   24.0732 C   0  0  1  0  0  0  0  0  0  0  0  0
  -26.3807  -32.8218   24.6729 C   0  0  2  0  0  0  0  0  0  0  0  0
  -27.3045  -28.1675   25.2191 C   0  0  0  0  0  0  0  0  0  0  0  0
  -23.0614  -16.8918   18.9037 N   0  0  0  0  0  0  0  0  0  0  0  0
  -19.4004  -24.7303   21.6398 N   0  0  0  0  0  0  0  0  0  0  0  0
  -22.9872  -18.2332   18.9410 N   0  0  0  0  0  0  0  0  0  0  0  0
  -26.7630  -28.4597   21.6855 N   0  0  0  0  0  0  0  0  0  0  0  0
  -19.6784  -19.8675   17.9740 N   0  0  0  0  0  0  0  0  0  0  0  0
  -23.9542  -20.1514   19.9390 N   0  0  0  0  0  0  0  0  0  0  0  0
  -26.3003  -16.7418   21.7463 N   0  0  0  0  0  0  0  0  0  0  0  0
  -19.5395  -21.7740   19.3704 N   0  0  0  0  0  0  0  0  0  0  0  0
  -28.5931  -25.9450   19.9371 N   0  0  0  0  0  0  0  0  0  0  0  0
  -27.0046  -30.5270   24.3549 N   0  0  0  0  0  0  0  0  0  0  0  0
  -25.5478  -33.8077   23.9278 N   0  3  0  0  0  0  0  0  0  0  0  0
  -26.0483  -19.0209   21.7205 O   0  0  0  0  0  0  0  0  0  0  0  0
  -18.3757  -23.7802   19.1415 O   0  0  0  0  0  0  0  0  0  0  0  0
  -26.5749  -25.8847   21.0971 O   0  0  0  0  0  0  0  0  0  0  0  0
  -28.7825  -28.9751   22.7304 O   0  0  0  0  0  0  0  0  0  0  0  0
  -24.7735  -31.1087   24.1074 O   0  0  0  0  0  0  0  0  0  0  0  0
  -18.3419  -21.6757   17.4021 O   0  0  0  0  0  0  0  0  0  0  0  0
  -25.5748  -11.3203   20.6896 O   0  0  0  0  0  0  0  0  0  0  0  0
  -21.0900  -27.9838   19.3097 O   0  0  0  0  0  0  0  0  0  1  0  0
  -21.5818   -7.6038   21.4943 F   0  0  0  0  0  0  0  0  0  0  0  0
  -23.6699  -10.8415   18.7442 F   0  0  0  0  0  0  0  0  0  0  0  0
  1  2  1  0  0  0  0
  1  6  2  0  0  0  0
  2  7  2  0  0  0  0
  3 14  1  0  0  0  0
  3 17  2  0  0  0  0
  4  9  2  0  0  0  0
  4 18  1  0  0  0  0
  5 10  1  0  0  0  0
  5 18  2  0  0  0  0
  6 20  1  0  0  0  0
  7 22  1  0  0  0  0
  8 11  2  0  0  0  0
  8 21  1  0  0  0  0
  9 24  1  0  0  0  0
 10 24  2  0  0  0  0
 11 25  1  0  0  0  0
 12 13  2  0  0  0  0
 12 26  1  0  0  0  0
 13 27  1  0  0  0  0
 14 30  2  0  0  0  0
 15 23  1  0  0  0  0
 15 25  2  0  0  0  0
 16 27  2  0  0  0  0
 16 28  1  0  0  0  0
 17 62  1  0  0  0  0
 18 29  1  0  0  0  0
 19 29  1  0  0  0  0
 19 31  2  0  0  0  0
 19 32  1  0  0  0  0
 20 22  2  0  0  0  0
 20 38  1  0  0  0  0
 21 23  2  0  0  0  0
 21 39  1  0  0  0  0
 22 47  1  0  0  0  0
 23 40  1  0  0  0  0
 24 78  1  0  0  0  0
 25 79  1  0  0  0  0
 26 28  2  0  0  0  0
 26 78  1  0  0  0  0
 27 80  1  0  0  0  0
 28 81  1  0  0  0  0
 29 61  2  0  0  0  0
 30 33  1  0  0  0  0
 30 62  1  0  0  0  0
 31 63  1  0  0  0  0
 31 66  1  0  0  0  0
 32 67  1  0  0  0  0
 32 72  2  0  0  0  0
 33 68  1  0  0  0  0
 33 73  2  0  0  0  0
 34 48  1  0  0  0  0
 34 69  1  0  0  0  0
 34 74  2  0  0  0  0
 35 58  1  0  0  0  0
 35 64  1  0  0  0  0
 35 75  2  0  0  0  0
 36 59  1  0  0  0  0
 36 70  1  0  0  0  0
 36 76  2  0  0  0  0
 37 65  1  0  0  0  0
 37 68  1  0  0  0  0
 37 77  2  0  0  0  0
 38 41  1  0  0  0  0
 39 48  1  0  0  0  0
 40 64  1  0  0  0  0
 41 43  1  0  0  0  0
 42 44  1  0  0  0  0
 42 45  1  0  0  0  0
 43 47  1  0  0  0  0
 44 49  1  0  0  0  0
 45 65  1  0  0  0  0
 46 49  1  0  0  0  0
 46 65  1  0  0  0  0
 47 69  1  0  0  0  0
 48 64  1  0  0  0  0
 49 63  1  0  0  0  0
 50 59  1  0  0  0  0
 51 60  1  0  0  0  0
 52 60  1  0  0  0  0
 53 60  1  0  0  0  0
 54 71  1  0  0  0  0
 55 56  1  0  0  0  0
 55 57  1  0  0  0  0
 56 62  1  0  0  0  0
 57 79  1  0  0  0  0
 58 60  1  0  0  0  0
 58 70  1  0  0  0  0
 59 71  1  0  0  0  0
 61 63  1  0  0  0  0
M  CHG  1  71   1
M  ISO  4  37 100  57 101  68 100  79 101
M  END
> <Batch ID>
0002

> <Smiles>
CNC(C)C(=O)NC(C(=O)N1Cc2cc([101O:1][101CH2:1]CCn3cccc3C(=O)[100NH:0][100C:0](=O)N3CCCC(n4nc(-c5ccc(Oc6ccc(F)cc6F)cc5)c(C(N)=O)c4N)C3)ccc2CC1C(=O)NC1CCCc2ccccc21)C(C)(C)C

> <Shape>
0.220

> <Color>
0.070

> <Negative vol penalty>
0.000

$$$$

  -OEChem-04052315183D

 84 92  0     1  0  0  0  0  0999 V2000
  -28.9525  -32.0248   26.4992 C   0  0  0  0  0  0  0  0  0  0  0  0
  -28.9046  -30.9657   25.5984 C   0  0  0  0  0  0  0  0  0  0  0  0
  -24.1218  -11.5536   23.8916 C   0  0  0  0  0  0  0  0  0  0  0  0
  -23.5906  -13.9068   23.7598 C   0  0  0  0  0  0  0  0  0  0  0  0
  -27.7750  -32.5083   27.0681 C   0  0  0  0  0  0  0  0  0  0  0  0
  -27.6792  -30.3888   25.2667 C   0  0  0  0  0  0  0  0  0  0  0  0
  -27.1931  -29.5869   20.2902 C   0  0  0  0  0  0  0  0  0  0  0  0
  -30.9333  -18.6553   20.1099 C   0  0  0  0  0  0  0  0  0  0  0  0
  -23.5615  -11.4986   25.1677 C   0  0  0  0  0  0  0  0  0  0  0  0
  -23.0302  -13.8518   25.0360 C   0  0  0  0  0  0  0  0  0  0  0  0
  -27.8507  -28.4794   19.7565 C   0  0  0  0  0  0  0  0  0  0  0  0
  -31.2497  -19.9944   20.3385 C   0  0  0  0  0  0  0  0  0  0  0  0
  -20.4690  -11.3365   26.5255 C   0  0  0  0  0  0  0  0  0  0  0  0
  -19.6226  -10.2667   26.8162 C   0  0  0  0  0  0  0  0  0  0  0  0
  -25.7790  -27.2440   19.7831 C   0  0  0  0  0  0  0  0  0  0  0  0
  -28.5813  -19.2072   20.1322 C   0  0  0  0  0  0  0  0  0  0  0  0
  -21.0972   -9.5861   28.6049 C   0  0  0  0  0  0  0  0  0  0  0  0
  -24.1365  -12.7578   23.1876 C   0  0  0  0  0  0  0  0  0  0  0  0
  -24.0601  -12.5989   20.6427 C   0  0  0  0  0  0  0  0  0  0  0  0
  -26.5336  -31.9434   26.7358 C   0  0  0  0  0  0  0  0  0  0  0  0
  -25.8234  -29.5275   20.5850 C   0  0  0  0  0  0  0  0  0  0  0  0
  -26.4841  -30.8644   25.8327 C   0  0  0  0  0  0  0  0  0  0  0  0
  -25.1058  -28.3529   20.3181 C   0  0  0  0  0  0  0  0  0  0  0  0
  -29.5990  -18.2617   20.0067 C   0  0  0  0  0  0  0  0  0  0  0  0
  -23.0156  -12.6476   25.7399 C   0  0  0  0  0  0  0  0  0  0  0  0
  -27.1443  -27.3068   19.5056 C   0  0  0  0  0  0  0  0  0  0  0  0
  -30.2319  -20.9399   20.4639 C   0  0  0  0  0  0  0  0  0  0  0  0
  -21.6296  -11.5311   27.2744 C   0  0  0  0  0  0  0  0  0  0  0  0
  -28.8977  -20.5464   20.3608 C   0  0  0  0  0  0  0  0  0  0  0  0
  -19.9366   -9.3915   27.8559 C   0  0  0  0  0  0  0  0  0  0  0  0
  -21.9437  -10.6559   28.3141 C   0  0  0  0  0  0  0  0  0  0  0  0
  -24.7157  -12.8154   21.8696 C   0  0  0  0  0  0  0  0  0  0  0  0
  -25.0400  -12.7679   19.6953 C   0  0  0  0  0  0  0  0  0  0  0  0
  -22.6880  -12.2742   20.3827 C   0  0  0  0  0  0  0  0  0  0  0  0
  -24.0848  -29.8003   23.2320 C   0  0  0  0  0  0  0  0  0  0  0  0
  -21.6015  -29.6391   21.1512 C   0  0  0  0  0  0  0  0  0  0  0  0
  -20.4350  -28.6379   18.1043 C   0  0  0  0  0  0  0  0  0  0  0  0
  -30.1667  -15.8368   19.6273 C   0  0  0  0  0  0  0  0  0  0  0  0
  -25.2924  -32.4691   27.4125 C   0  0  0  0  0  0  0  0  0  0  0  0
  -25.1231  -30.7396   21.1354 C   0  0  0  0  0  0  0  0  0  0  0  0
  -23.6298  -28.2444   20.5978 C   0  0  0  0  0  0  0  0  0  0  0  0
  -23.9976  -32.0478   26.7223 C   0  0  0  0  0  0  0  0  0  0  0  0
  -29.7705  -12.3405   19.0830 C   0  0  0  0  0  0  0  0  0  0  0  0
  -24.0273  -30.5583   26.3949 C   0  0  0  0  0  0  0  0  0  0  0  0
  -28.3672  -12.0470   19.6186 C   0  0  0  0  0  0  0  0  0  0  0  0
  -30.4909  -13.3913   19.9260 C   0  0  0  0  0  0  0  0  0  0  0  0
  -28.3440  -14.3476   20.6644 C   0  0  0  0  0  0  0  0  0  0  0  0
  -25.1716  -30.2285   25.4288 C   0  0  1  0  0  0  0  0  0  0  0  0
  -23.8341  -30.3995   21.8771 C   0  0  1  0  0  0  0  0  0  0  0  0
  -27.5545  -13.3426   19.8098 C   0  0  2  0  0  0  0  0  0  0  0  0
  -18.3531  -28.6118   16.7035 C   0  0  0  0  0  0  0  0  0  0  0  0
  -20.4940  -27.3549   22.8441 C   0  0  0  0  0  0  0  0  0  0  0  0
  -18.9904  -26.7601   20.9328 C   0  0  0  0  0  0  0  0  0  0  0  0
  -18.7765  -28.9852   22.0399 C   0  0  0  0  0  0  0  0  0  0  0  0
  -21.7014  -30.2695   15.9846 C   0  0  0  0  0  0  0  0  0  0  0  0
  -27.3817  -21.6884   21.7937 C   0  0  0  0  0  0  0  0  0  0  0  0
  -29.5321  -24.5895   19.3050 C   0  0  0  0  0  0  0  0  0  0  0  0
  -30.9973  -24.3732   19.6674 C   0  0  0  0  0  0  0  0  0  0  0  0
  -29.1646  -26.0675   19.3099 C   0  0  0  0  0  0  0  0  0  1  0  0
  -31.3547  -22.8941   19.7047 C   0  0  0  0  0  0  0  0  0  0  0  0
  -20.7733  -28.5243   20.5593 C   0  0  1  0  0  0  0  0  0  0  0  0
  -19.6279  -29.3672   17.0454 C   0  0  2  0  0  0  0  0  0  0  0  0
  -19.7867  -27.9072   21.5905 C   0  0  0  0  0  0  0  0  0  0  0  0
  -26.0119  -13.1000   21.7184 N   0  0  0  0  0  0  0  0  0  0  0  0
  -26.1787  -13.0635   20.3854 N   0  0  0  0  0  0  0  0  0  0  0  0
  -22.9913  -29.4545   21.1416 N   0  0  0  0  0  0  0  0  0  0  0  0
  -29.6632  -14.5919   20.0605 N   0  0  0  0  0  0  0  0  0  0  0  0
  -25.0302  -12.6909   18.3475 N   0  0  0  0  0  0  0  0  0  0  0  0
  -21.8159  -12.1375   21.4714 N   0  0  0  0  0  0  0  0  0  0  0  0
  -29.2779  -16.9012   19.7752 N   0  0  0  0  0  0  0  0  0  0  0  0
  -24.8184  -30.6097   24.0781 N   0  0  0  0  0  0  0  0  0  0  0  0
  -20.1289  -29.0796   19.3741 N   0  0  0  0  0  0  0  0  0  0  0  0
  -20.4301  -29.5236   15.7992 N   0  3  0  0  0  0  0  0  0  0  0  0
  -22.2520  -12.0939   19.2205 O   0  0  0  0  0  0  0  0  0  0  0  0
  -23.6439  -28.6866   23.4911 O   0  0  0  0  0  0  0  0  0  0  0  0
  -21.0365  -30.6401   21.5989 O   0  0  0  0  0  0  0  0  0  0  0  0
  -21.2524  -27.7612   17.8324 O   0  0  0  0  0  0  0  0  0  0  0  0
  -31.2924  -15.9456   19.1345 O   0  0  0  0  0  0  0  0  0  0  0  0
  -22.4685  -12.5942   26.9851 O   0  0  0  0  0  0  0  0  0  0  0  0
  -27.8948  -21.4602   20.4827 O   0  0  0  0  0  0  0  0  0  0  0  0
  -27.7838  -26.2241   18.9853 O   0  0  0  0  0  0  0  0  0  1  0  0
  -30.5556  -22.2527   20.6892 O   0  0  0  0  0  0  0  0  0  0  0  0
  -19.1229   -8.3650   28.1359 F   0  0  0  0  0  0  0  0  0  0  0  0
  -23.0566  -10.8384   29.0379 F   0  0  0  0  0  0  0  0  0  0  0  0
  1  2  1  0  0  0  0
  1  5  2  0  0  0  0
  2  6  2  0  0  0  0
  3  9  2  0  0  0  0
  3 18  1  0  0  0  0
  4 10  1  0  0  0  0
  4 18  2  0  0  0  0
  5 20  1  0  0  0  0
  6 22  1  0  0  0  0
  7 11  2  0  0  0  0
  7 21  1  0  0  0  0
  8 12  2  0  0  0  0
  8 24  1  0  0  0  0
  9 25  1  0  0  0  0
 10 25  2  0  0  0  0
 11 26  1  0  0  0  0
 12 27  1  0  0  0  0
 13 14  2  0  0  0  0
 13 28  1  0  0  0  0
 14 30  1  0  0  0  0
 15 23  1  0  0  0  0
 15 26  2  0  0  0  0
 16 24  2  0  0  0  0
 16 29  1  0  0  0  0
 17 30  2  0  0  0  0
 17 31  1  0  0  0  0
 18 32  1  0  0  0  0
 19 32  1  0  0  0  0
 19 33  2  0  0  0  0
 19 34  1  0  0  0  0
 20 22  2  0  0  0  0
 20 39  1  0  0  0  0
 21 23  2  0  0  0  0
 21 40  1  0  0  0  0
 22 48  1  0  0  0  0
 23 41  1  0  0  0  0
 24 70  1  0  0  0  0
 25 79  1  0  0  0  0
 26 81  1  0  0  0  0
 27 29  2  0  0  0  0
 27 82  1  0  0  0  0
 28 31  2  0  0  0  0
 28 79  1  0  0  0  0
 29 80  1  0  0  0  0
 30 83  1  0  0  0  0
 31 84  1  0  0  0  0
 32 64  2  0  0  0  0
 33 65  1  0  0  0  0
 33 68  1  0  0  0  0
 34 69  1  0  0  0  0
 34 74  2  0  0  0  0
 35 49  1  0  0  0  0
 35 71  1  0  0  0  0
 35 75  2  0  0  0  0
 36 61  1  0  0  0  0
 36 66  1  0  0  0  0
 36 76  2  0  0  0  0
 37 62  1  0  0  0  0
 37 72  1  0  0  0  0
 37 77  2  0  0  0  0
 38 67  1  0  0  0  0
 38 70  1  0  0  0  0
 38 78  2  0  0  0  0
 39 42  1  0  0  0  0
 40 49  1  0  0  0  0
 41 66  1  0  0  0  0
 42 44  1  0  0  0  0
 43 45  1  0  0  0  0
 43 46  1  0  0  0  0
 44 48  1  0  0  0  0
 45 50  1  0  0  0  0
 46 67  1  0  0  0  0
 47 50  1  0  0  0  0
 47 67  1  0  0  0  0
 48 71  1  0  0  0  0
 49 66  1  0  0  0  0
 50 65  1  0  0  0  0
 51 62  1  0  0  0  0
 52 63  1  0  0  0  0
 53 63  1  0  0  0  0
 54 63  1  0  0  0  0
 55 73  1  0  0  0  0
 56 80  1  0  0  0  0
 57 58  1  0  0  0  0
 57 59  1  0  0  0  0
 58 60  1  0  0  0  0
 59 81  1  0  0  0  0
 60 82  1  0  0  0  0
 61 63  1  0  0  0  0
 61 72  1  0  0  0  0
 62 73  1  0  0  0  0
 64 65  1  0  0  0  0
M  CHG  1  73   1
M  ISO  4  38 100  59 101  70 100  81 101
M  END
> <Batch ID>
0002

> <Smiles>
CNC(C)C(=O)NC(C(=O)N1Cc2cc([101O:1][101CH2:1]CCCOc3ccc([100NH:0][100C:0](=O)N4CCCC(n5nc(-c6ccc(Oc7ccc(F)cc7F)cc6)c(C(N)=O)c5N)C4)cc3OC)ccc2CC1C(=O)NC1CCCc2ccccc21)C(C)(C)C

> <Shape>
0.297

> <Color>
0.091

> <Negative vol penalty>
0.000

$$$$

  -OEChem-04052315183D

 80 87  0     1  0  0  0  0  0999 V2000
  -22.7441   -7.5381   20.3710 C   0  0  0  0  0  0  0  0  0  0  0  0
  -22.1553   -8.5690   19.6458 C   0  0  0  0  0  0  0  0  0  0  0  0
  -29.6186  -28.0853   21.5230 C   0  0  0  0  0  0  0  0  0  0  0  0
  -28.1424  -27.8610   19.6236 C   0  0  0  0  0  0  0  0  0  0  0  0
  -23.4201   -7.8196   21.5574 C   0  0  0  0  0  0  0  0  0  0  0  0
  -22.2412   -9.8820   20.1073 C   0  0  0  0  0  0  0  0  0  0  0  0
  -22.6874  -16.6211   17.7195 C   0  0  0  0  0  0  0  0  0  0  0  0
  -30.3783  -27.0113   21.0594 C   0  0  0  0  0  0  0  0  0  0  0  0
  -28.9021  -26.7870   19.1600 C   0  0  0  0  0  0  0  0  0  0  0  0
  -22.0674  -17.8607   17.8707 C   0  0  0  0  0  0  0  0  0  0  0  0
  -30.2426  -23.7576   17.6648 C   0  0  0  0  0  0  0  0  0  0  0  0
  -29.5604  -22.6268   17.2159 C   0  0  0  0  0  0  0  0  0  0  0  0
  -23.3284  -18.2381   19.8922 C   0  0  0  0  0  0  0  0  0  0  0  0
  -28.5610  -22.3628   19.3997 C   0  0  0  0  0  0  0  0  0  0  0  0
  -28.5006  -28.5102   20.8052 C   0  0  0  0  0  0  0  0  0  0  0  0
  -27.8961  -30.9822   20.9820 C   0  0  0  0  0  0  0  0  0  0  0  0
  -23.5226   -9.1379   22.0288 C   0  0  0  0  0  0  0  0  0  0  0  0
  -23.6262  -16.1753   18.6610 C   0  0  0  0  0  0  0  0  0  0  0  0
  -22.9180  -10.1813   21.3020 C   0  0  0  0  0  0  0  0  0  0  0  0
  -23.9608  -16.9936   19.7493 C   0  0  0  0  0  0  0  0  0  0  0  0
  -30.0201  -26.3622   19.8779 C   0  0  0  0  0  0  0  0  0  0  0  0
  -22.3857  -18.6681   18.9587 C   0  0  0  0  0  0  0  0  0  0  0  0
  -30.0840  -24.1910   18.9812 C   0  0  0  0  0  0  0  0  0  0  0  0
  -28.7196  -21.9294   18.0833 C   0  0  0  0  0  0  0  0  0  0  0  0
  -29.2433  -23.4937   19.8486 C   0  0  0  0  0  0  0  0  0  0  0  0
  -27.7151  -29.6192   21.2839 C   0  0  0  0  0  0  0  0  0  0  0  0
  -26.9010  -31.6233   21.6786 C   0  0  0  0  0  0  0  0  0  0  0  0
  -28.8761  -31.6125   20.1464 C   0  0  0  0  0  0  0  0  0  0  0  0
  -23.7996  -13.7121   20.6626 C   0  0  0  0  0  0  0  0  0  0  0  0
  -26.7844  -14.8618   21.2022 C   0  0  0  0  0  0  0  0  0  0  0  0
  -28.9185  -17.5243   21.1413 C   0  0  0  0  0  0  0  0  0  0  0  0
  -21.5469  -29.8573   23.6950 C   0  0  0  0  0  0  0  0  0  0  0  0
  -24.2228   -9.3873   23.3411 C   0  0  0  0  0  0  0  0  0  0  0  0
  -24.3058  -14.8473   18.4692 C   0  0  0  0  0  0  0  0  0  0  0  0
  -24.9769  -16.5699   20.7771 C   0  0  0  0  0  0  0  0  0  0  0  0
  -24.5899  -10.8517   23.5669 C   0  0  0  0  0  0  0  0  0  0  0  0
  -24.2220  -31.2039   25.6204 C   0  0  0  0  0  0  0  0  0  0  0  0
  -23.4080  -11.7561   23.2321 C   0  0  0  0  0  0  0  0  0  0  0  0
  -25.4369  -31.0734   24.7001 C   0  0  0  0  0  0  0  0  0  0  0  0
  -23.2690  -30.0204   25.4682 C   0  0  0  0  0  0  0  0  0  0  0  0
  -24.0487  -29.6192   23.1649 C   0  0  0  0  0  0  0  0  0  0  0  0
  -23.0108  -11.6215   21.7571 C   0  0  1  0  0  0  0  0  0  0  0  0
  -24.8674  -14.2707   19.7652 C   0  0  1  0  0  0  0  0  0  0  0  0
  -25.0109  -30.8169   23.2420 C   0  0  2  0  0  0  0  0  0  0  0  0
  -31.0859  -18.7759   21.3239 C   0  0  0  0  0  0  0  0  0  0  0  0
  -26.1033  -14.8826   24.1763 C   0  0  0  0  0  0  0  0  0  0  0  0
  -28.0750  -16.3805   24.5462 C   0  0  0  0  0  0  0  0  0  0  0  0
  -28.4107  -14.0807   23.6401 C   0  0  0  0  0  0  0  0  0  0  0  0
  -29.6016  -16.9858   18.3124 C   0  0  0  0  0  0  0  0  0  0  0  0
  -20.1868  -24.8054   20.2080 C   0  0  0  0  0  0  0  0  0  0  0  0
  -19.4275  -25.8555   21.0261 C   0  0  0  0  0  0  0  0  0  0  0  0
  -19.5313  -23.4227   20.2297 C   0  0  0  0  0  0  0  0  0  0  0  0
  -20.0712  -27.2438   20.9787 C   0  0  0  0  0  0  0  0  0  0  0  0
  -20.3148  -22.4250   19.3727 C   0  0  0  0  0  0  0  0  0  0  0  0
  -19.3093  -28.2960   21.7948 C   0  0  0  0  0  0  0  0  0  0  0  0
  -19.6770  -21.0333   19.4175 C   0  0  0  0  0  0  0  0  0  0  0  0
  -19.9428  -29.6841   21.8093 C   0  0  0  0  0  0  0  0  0  0  0  0
  -20.4585  -20.0140   18.5974 C   0  0  0  0  0  0  0  0  0  1  0  0
  -27.3889  -15.8587   22.1613 C   0  0  1  0  0  0  0  0  0  0  0  0
  -30.3294  -17.6722   20.6011 C   0  0  2  0  0  0  0  0  0  0  0  0
  -27.4739  -15.3081   23.6129 C   0  0  0  0  0  0  0  0  0  0  0  0
  -26.6860  -29.4059   22.1082 N   0  0  0  0  0  0  0  0  0  0  0  0
  -26.2115  -30.6435   22.3303 N   0  0  0  0  0  0  0  0  0  0  0  0
  -25.6095  -15.2602   20.5491 N   0  0  0  0  0  0  0  0  0  0  0  0
  -22.9024  -29.8321   24.0625 N   0  0  0  0  0  0  0  0  0  0  0  0
  -26.5574  -32.9239   21.7912 N   0  0  0  0  0  0  0  0  0  0  0  0
  -29.8255  -30.8055   19.5048 N   0  0  0  0  0  0  0  0  0  0  0  0
  -23.9291  -12.3601   20.9171 N   0  0  0  0  0  0  0  0  0  0  0  0
  -28.6758  -16.2441   21.5922 N   0  0  0  0  0  0  0  0  0  0  0  0
  -21.2870  -29.6771   22.3420 N   0  0  0  0  0  0  0  0  0  0  0  0
  -30.2960  -17.9994   19.1476 N   0  3  0  0  0  0  0  0  0  0  0  0
  -28.9190  -32.8559   19.9870 O   0  0  0  0  0  0  0  0  0  0  0  0
  -22.9239  -14.4532   21.0935 O   0  0  0  0  0  0  0  0  0  0  0  0
  -27.3384  -13.7727   21.0332 O   0  0  0  0  0  0  0  0  0  0  0  0
  -28.1135  -18.4527   21.1646 O   0  0  0  0  0  0  0  0  0  0  0  0
  -20.6361  -30.0329   24.5114 O   0  0  0  0  0  0  0  0  0  0  0  0
  -30.7614  -25.3143   19.4251 O   0  0  0  0  0  0  0  0  0  0  0  0
  -21.7769  -19.8873   19.1102 O   0  0  0  0  0  0  0  0  0  1  0  0
  -28.0634  -20.8444   17.6517 F   0  0  0  0  0  0  0  0  0  0  0  0
  -29.0860  -23.9059   21.1139 F   0  0  0  0  0  0  0  0  0  0  0  0
  1  2  1  0  0  0  0
  1  5  2  0  0  0  0
  2  6  2  0  0  0  0
  3  8  2  0  0  0  0
  3 15  1  0  0  0  0
  4  9  1  0  0  0  0
  4 15  2  0  0  0  0
  5 17  1  0  0  0  0
  6 19  1  0  0  0  0
  7 10  2  0  0  0  0
  7 18  1  0  0  0  0
  8 21  1  0  0  0  0
  9 21  2  0  0  0  0
 10 22  1  0  0  0  0
 11 12  2  0  0  0  0
 11 23  1  0  0  0  0
 12 24  1  0  0  0  0
 13 20  1  0  0  0  0
 13 22  2  0  0  0  0
 14 24  2  0  0  0  0
 14 25  1  0  0  0  0
 15 26  1  0  0  0  0
 16 26  1  0  0  0  0
 16 27  2  0  0  0  0
 16 28  1  0  0  0  0
 17 19  2  0  0  0  0
 17 33  1  0  0  0  0
 18 20  2  0  0  0  0
 18 34  1  0  0  0  0
 19 42  1  0  0  0  0
 20 35  1  0  0  0  0
 21 77  1  0  0  0  0
 22 78  1  0  0  0  0
 23 25  2  0  0  0  0
 23 77  1  0  0  0  0
 24 79  1  0  0  0  0
 25 80  1  0  0  0  0
 26 62  2  0  0  0  0
 27 63  1  0  0  0  0
 27 66  1  0  0  0  0
 28 67  1  0  0  0  0
 28 72  2  0  0  0  0
 29 43  1  0  0  0  0
 29 68  1  0  0  0  0
 29 73  2  0  0  0  0
 30 59  1  0  0  0  0
 30 64  1  0  0  0  0
 30 74  2  0  0  0  0
 31 60  1  0  0  0  0
 31 69  1  0  0  0  0
 31 75  2  0  0  0  0
 32 65  1  0  0  0  0
 32 70  1  0  0  0  0
 32 76  2  0  0  0  0
 33 36  1  0  0  0  0
 34 43  1  0  0  0  0
 35 64  1  0  0  0  0
 36 38  1  0  0  0  0
 37 39  1  0  0  0  0
 37 40  1  0  0  0  0
 38 42  1  0  0  0  0
 39 44  1  0  0  0  0
 40 65  1  0  0  0  0
 41 44  1  0  0  0  0
 41 65  1  0  0  0  0
 42 68  1  0  0  0  0
 43 64  1  0  0  0  0
 44 63  1  0  0  0  0
 45 60  1  0  0  0  0
 46 61  1  0  0  0  0
 47 61  1  0  0  0  0
 48 61  1  0  0  0  0
 49 71  1  0  0  0  0
 50 51  1  0  0  0  0
 50 52  1  0  0  0  0
 51 53  1  0  0  0  0
 52 54  1  0  0  0  0
 53 55  1  0  0  0  0
 54 56  1  0  0  0  0
 55 57  1  0  0  0  0
 56 58  1  0  0  0  0
 57 70  1  0  0  0  0
 58 78  1  0  0  0  0
 59 61  1  0  0  0  0
 59 69  1  0  0  0  0
 60 71  1  0  0  0  0
 62 63  1  0  0  0  0
M  CHG  1  71   1
M  ISO  4  32 100  58 101  70 100  78 101
M  END
> <Batch ID>
0002

> <Smiles>
CNC(C)C(=O)NC(C(=O)N1Cc2cc([101O:1][101CH2:1]CCCCCCCC[100NH:0][100C:0](=O)N3CCCC(n4nc(-c5ccc(Oc6ccc(F)cc6F)cc5)c(C(N)=O)c4N)C3)ccc2CC1C(=O)NC1CCCc2ccccc21)C(C)(C)C

> <Shape>
0.279

> <Color>
0.065

> <Negative vol penalty>
0.000

$$$$

  -OEChem-04052315183D

 78 86  0     1  0  0  0  0  0999 V2000
  -28.0667  -37.0392   21.1568 C   0  0  0  0  0  0  0  0  0  0  0  0
  -28.4786  -35.7212   20.9880 C   0  0  0  0  0  0  0  0  0  0  0  0
  -26.8779  -12.7381   21.8118 C   0  0  0  0  0  0  0  0  0  0  0  0
  -26.2289  -14.3697   20.1524 C   0  0  0  0  0  0  0  0  0  0  0  0
  -26.9484  -37.3241   21.9392 C   0  0  0  0  0  0  0  0  0  0  0  0
  -27.7731  -34.6872   21.6025 C   0  0  0  0  0  0  0  0  0  0  0  0
  -26.8406  -29.0494   19.4001 C   0  0  0  0  0  0  0  0  0  0  0  0
  -29.9140  -23.9385   21.6652 C   0  0  0  0  0  0  0  0  0  0  0  0
  -29.0925  -23.0456   19.5759 C   0  0  0  0  0  0  0  0  0  0  0  0
  -30.3903  -22.6757   22.0176 C   0  0  0  0  0  0  0  0  0  0  0  0
  -29.5689  -21.7828   19.9283 C   0  0  0  0  0  0  0  0  0  0  0  0
  -25.5581  -12.2939   21.8913 C   0  0  0  0  0  0  0  0  0  0  0  0
  -24.9090  -13.9255   20.2318 C   0  0  0  0  0  0  0  0  0  0  0  0
  -27.4760  -27.8317   19.6398 C   0  0  0  0  0  0  0  0  0  0  0  0
  -22.4256  -10.4880   22.2670 C   0  0  0  0  0  0  0  0  0  0  0  0
  -22.2040   -9.1109   22.2726 C   0  0  0  0  0  0  0  0  0  0  0  0
  -25.7862  -27.2777   21.2698 C   0  0  0  0  0  0  0  0  0  0  0  0
  -23.2629   -8.9317   20.1084 C   0  0  0  0  0  0  0  0  0  0  0  0
  -27.2133  -13.7760   20.9424 C   0  0  0  0  0  0  0  0  0  0  0  0
  -29.5834  -13.7604   19.9988 C   0  0  0  0  0  0  0  0  0  0  0  0
  -26.2231  -36.2924   22.5558 C   0  0  0  0  0  0  0  0  0  0  0  0
  -25.6774  -29.3956   20.1025 C   0  0  0  0  0  0  0  0  0  0  0  0
  -26.6449  -34.9587   22.3951 C   0  0  0  0  0  0  0  0  0  0  0  0
  -25.1365  -28.4992   21.0353 C   0  0  0  0  0  0  0  0  0  0  0  0
  -29.2650  -24.1234   20.4444 C   0  0  0  0  0  0  0  0  0  0  0  0
  -30.2178  -21.5979   21.1491 C   0  0  0  0  0  0  0  0  0  0  0  0
  -24.5736  -12.8876   21.1013 C   0  0  0  0  0  0  0  0  0  0  0  0
  -26.9505  -26.9469   20.5769 C   0  0  0  0  0  0  0  0  0  0  0  0
  -23.0657  -11.0870   21.1821 C   0  0  0  0  0  0  0  0  0  0  0  0
  -22.6227   -8.3327   21.1933 C   0  0  0  0  0  0  0  0  0  0  0  0
  -23.4844  -10.3089   20.1028 C   0  0  0  0  0  0  0  0  0  0  0  0
  -28.5764  -14.2357   20.8602 C   0  0  0  0  0  0  0  0  0  0  0  0
  -30.6867  -14.5170   20.3100 C   0  0  0  0  0  0  0  0  0  0  0  0
  -29.5265  -12.7275   19.0061 C   0  0  0  0  0  0  0  0  0  0  0  0
  -24.8815  -31.7237   22.1150 C   0  0  0  0  0  0  0  0  0  0  0  0
  -21.9265  -30.4122   21.8504 C   0  0  0  0  0  0  0  0  0  0  0  0
  -20.0285  -27.6660   21.1412 C   0  0  0  0  0  0  0  0  0  0  0  0
  -31.3678  -19.9601   22.6793 C   0  0  0  0  0  0  0  0  0  0  0  0
  -25.0489  -36.6530   23.4308 C   0  0  0  0  0  0  0  0  0  0  0  0
  -24.9890  -30.7013   19.8131 C   0  0  0  0  0  0  0  0  0  0  0  0
  -23.8787  -28.8147   21.8013 C   0  0  0  0  0  0  0  0  0  0  0  0
  -24.1351  -35.4704   23.7419 C   0  0  0  0  0  0  0  0  0  0  0  0
  -32.6846  -16.9053   23.9485 C   0  0  0  0  0  0  0  0  0  0  0  0
  -24.9579  -34.2549   24.1570 C   0  0  0  0  0  0  0  0  0  0  0  0
  -31.8764  -15.8307   23.2177 C   0  0  0  0  0  0  0  0  0  0  0  0
  -31.8295  -18.1244   24.2893 C   0  0  0  0  0  0  0  0  0  0  0  0
  -30.2959  -17.6360   22.4242 C   0  0  0  0  0  0  0  0  0  0  0  0
  -25.8910  -33.8077   23.0253 C   0  0  1  0  0  0  0  0  0  0  0  0
  -24.0974  -31.1732   20.9575 C   0  0  1  0  0  0  0  0  0  0  0  0
  -31.1304  -16.4157   22.0024 C   0  0  2  0  0  0  0  0  0  0  0  0
  -17.6438  -26.8901   21.0485 C   0  0  0  0  0  0  0  0  0  0  0  0
  -21.8657  -30.2428   24.8963 C   0  0  0  0  0  0  0  0  0  0  0  0
  -19.9531  -28.6392   24.6994 C   0  0  0  0  0  0  0  0  0  0  0  0
  -19.7150  -30.9722   23.8490 C   0  0  0  0  0  0  0  0  0  0  0  0
  -20.2148  -27.0650   18.2493 C   0  0  0  0  0  0  0  0  0  0  0  0
  -28.7526  -25.4818   20.0654 C   0  0  0  0  0  0  0  0  0  1  0  0
  -21.1660  -29.3336   22.5834 C   0  0  1  0  0  0  0  0  0  0  0  0
  -18.8017  -27.4884   20.2649 C   0  0  2  0  0  0  0  0  0  0  0  0
  -20.6998  -29.7915   23.9942 C   0  0  0  0  0  0  0  0  0  0  0  0
  -29.0023  -15.2180   21.6588 N   0  0  0  0  0  0  0  0  0  0  0  0
  -30.2891  -15.3661   21.3005 N   0  0  0  0  0  0  0  0  0  0  0  0
  -23.2458  -30.1064   21.4875 N   0  0  0  0  0  0  0  0  0  0  0  0
  -31.1567  -18.6266   23.0893 N   0  0  0  0  0  0  0  0  0  0  0  0
  -31.9484  -14.5321   19.8303 N   0  0  0  0  0  0  0  0  0  0  0  0
  -28.3144  -12.0502   18.8153 N   0  0  0  0  0  0  0  0  0  0  0  0
  -30.7018  -20.3151   21.5067 N   0  0  0  0  0  0  0  0  0  0  0  0
  -25.1513  -33.0756   22.0197 N   0  0  0  0  0  0  0  0  0  0  0  0
  -20.0802  -28.9263   21.6982 N   0  0  0  0  0  0  0  0  0  0  0  0
  -19.1097  -26.5865   19.1192 N   0  3  0  0  0  0  0  0  0  0  0  0
  -30.5255  -12.4032   18.3203 O   0  0  0  0  0  0  0  0  0  0  0  0
  -25.2157  -30.9775   23.0278 O   0  0  0  0  0  0  0  0  0  0  0  0
  -21.3681  -31.4838   21.6025 O   0  0  0  0  0  0  0  0  0  0  0  0
  -20.8560  -26.7746   21.3172 O   0  0  0  0  0  0  0  0  0  0  0  0
  -32.1080  -20.7224   23.3063 O   0  0  0  0  0  0  0  0  0  0  0  0
  -23.2857  -12.4542   21.1784 O   0  0  0  0  0  0  0  0  0  0  0  0
  -27.5690  -25.7581   20.8132 O   0  0  0  0  0  0  0  0  0  1  0  0
  -22.4112   -7.0101   21.1995 F   0  0  0  0  0  0  0  0  0  0  0  0
  -24.1010  -10.8786   19.0582 F   0  0  0  0  0  0  0  0  0  0  0  0
  1  2  1  0  0  0  0
  1  5  2  0  0  0  0
  2  6  2  0  0  0  0
  3 12  2  0  0  0  0
  3 19  1  0  0  0  0
  4 13  1  0  0  0  0
  4 19  2  0  0  0  0
  5 21  1  0  0  0  0
  6 23  1  0  0  0  0
  7 14  2  0  0  0  0
  7 22  1  0  0  0  0
  8 10  2  0  0  0  0
  8 25  1  0  0  0  0
  9 11  1  0  0  0  0
  9 25  2  0  0  0  0
 10 26  1  0  0  0  0
 11 26  2  0  0  0  0
 12 27  1  0  0  0  0
 13 27  2  0  0  0  0
 14 28  1  0  0  0  0
 15 16  2  0  0  0  0
 15 29  1  0  0  0  0
 16 30  1  0  0  0  0
 17 24  1  0  0  0  0
 17 28  2  0  0  0  0
 18 30  2  0  0  0  0
 18 31  1  0  0  0  0
 19 32  1  0  0  0  0
 20 32  1  0  0  0  0
 20 33  2  0  0  0  0
 20 34  1  0  0  0  0
 21 23  2  0  0  0  0
 21 39  1  0  0  0  0
 22 24  2  0  0  0  0
 22 40  1  0  0  0  0
 23 48  1  0  0  0  0
 24 41  1  0  0  0  0
 25 56  1  0  0  0  0
 26 66  1  0  0  0  0
 27 75  1  0  0  0  0
 28 76  1  0  0  0  0
 29 31  2  0  0  0  0
 29 75  1  0  0  0  0
 30 77  1  0  0  0  0
 31 78  1  0  0  0  0
 32 60  2  0  0  0  0
 33 61  1  0  0  0  0
 33 64  1  0  0  0  0
 34 65  1  0  0  0  0
 34 70  2  0  0  0  0
 35 49  1  0  0  0  0
 35 67  1  0  0  0  0
 35 71  2  0  0  0  0
 36 57  1  0  0  0  0
 36 62  1  0  0  0  0
 36 72  2  0  0  0  0
 37 58  1  0  0  0  0
 37 68  1  0  0  0  0
 37 73  2  0  0  0  0
 38 63  1  0  0  0  0
 38 66  1  0  0  0  0
 38 74  2  0  0  0  0
 39 42  1  0  0  0  0
 40 49  1  0  0  0  0
 41 62  1  0  0  0  0
 42 44  1  0  0  0  0
 43 45  1  0  0  0  0
 43 46  1  0  0  0  0
 44 48  1  0  0  0  0
 45 50  1  0  0  0  0
 46 63  1  0  0  0  0
 47 50  1  0  0  0  0
 47 63  1  0  0  0  0
 48 67  1  0  0  0  0
 49 62  1  0  0  0  0
 50 61  1  0  0  0  0
 51 58  1  0  0  0  0
 52 59  1  0  0  0  0
 53 59  1  0  0  0  0
 54 59  1  0  0  0  0
 55 69  1  0  0  0  0
 56 76  1  0  0  0  0
 57 59  1  0  0  0  0
 57 68  1  0  0  0  0
 58 69  1  0  0  0  0
 60 61  1  0  0  0  0
M  CHG  1  69   1
M  ISO  4  38 100  56 101  66 100  76 101
M  END
> <Batch ID>
0002

> <Smiles>
CNC(C)C(=O)NC(C(=O)N1Cc2cc([101O:1][101CH2:1]c3ccc([100NH:0][100C:0](=O)N4CCCC(n5nc(-c6ccc(Oc7ccc(F)cc7F)cc6)c(C(N)=O)c5N)C4)cc3)ccc2CC1C(=O)NC1CCCc2ccccc21)C(C)(C)C

> <Shape>
0.340

> <Color>
0.078

> <Negative vol penalty>
0.000

$$$$

  -OEChem-04052315183D

 81 89  0     1  0  0  0  0  0999 V2000
  -31.3643  -25.1310   14.3803 C   0  0  0  0  0  0  0  0  0  0  0  0
  -30.7087  -24.5332   15.4519 C   0  0  0  0  0  0  0  0  0  0  0  0
  -19.8633  -23.0670   25.3053 C   0  0  0  0  0  0  0  0  0  0  0  0
  -20.7640  -23.5975   26.2287 C   0  0  0  0  0  0  0  0  0  0  0  0
  -28.2545  -18.9653   19.2740 C   0  0  0  0  0  0  0  0  0  0  0  0
  -29.6586  -18.0238   21.0001 C   0  0  0  0  0  0  0  0  0  0  0  0
  -31.7640  -26.4640   14.4650 C   0  0  0  0  0  0  0  0  0  0  0  0
  -30.4534  -25.2678   16.6093 C   0  0  0  0  0  0  0  0  0  0  0  0
  -25.7457  -24.5840   18.3455 C   0  0  0  0  0  0  0  0  0  0  0  0
  -20.3000  -22.1411   24.3578 C   0  0  0  0  0  0  0  0  0  0  0  0
  -22.1015  -23.2023   26.2046 C   0  0  0  0  0  0  0  0  0  0  0  0
  -28.3847  -17.7934   18.5289 C   0  0  0  0  0  0  0  0  0  0  0  0
  -29.7888  -16.8519   20.2549 C   0  0  0  0  0  0  0  0  0  0  0  0
  -25.4901  -23.4058   19.0457 C   0  0  0  0  0  0  0  0  0  0  0  0
  -30.1967  -13.4747   18.9719 C   0  0  0  0  0  0  0  0  0  0  0  0
  -30.0601  -12.2598   19.6434 C   0  0  0  0  0  0  0  0  0  0  0  0
  -25.6872  -24.6076   21.1280 C   0  0  0  0  0  0  0  0  0  0  0  0
  -27.8142  -12.8704   20.2914 C   0  0  0  0  0  0  0  0  0  0  0  0
  -28.8915  -19.0805   20.5097 C   0  0  0  0  0  0  0  0  0  0  0  0
  -29.1387  -21.5903   20.8940 C   0  0  0  0  0  0  0  0  0  0  0  0
  -31.5048  -27.2182   15.6203 C   0  0  0  0  0  0  0  0  0  0  0  0
  -25.9851  -25.7827   19.0327 C   0  0  0  0  0  0  0  0  0  0  0  0
  -30.8512  -26.6118   16.7100 C   0  0  0  0  0  0  0  0  0  0  0  0
  -25.9430  -25.8002   20.4341 C   0  0  0  0  0  0  0  0  0  0  0  0
  -21.6374  -21.7459   24.3336 C   0  0  0  0  0  0  0  0  0  0  0  0
  -22.5382  -22.2765   25.2570 C   0  0  0  0  0  0  0  0  0  0  0  0
  -29.1519  -16.7367   19.0193 C   0  0  0  0  0  0  0  0  0  0  0  0
  -25.4637  -23.4169   20.4372 C   0  0  0  0  0  0  0  0  0  0  0  0
  -29.1421  -14.3875   18.9602 C   0  0  0  0  0  0  0  0  0  0  0  0
  -28.8689  -11.9576   20.3031 C   0  0  0  0  0  0  0  0  0  0  0  0
  -27.9508  -14.0854   19.6199 C   0  0  0  0  0  0  0  0  0  0  0  0
  -28.7578  -20.2911   21.2796 C   0  0  0  0  0  0  0  0  0  0  0  0
  -28.8041  -22.3791   21.9675 C   0  0  0  0  0  0  0  0  0  0  0  0
  -29.7410  -22.0436   19.6744 C   0  0  0  0  0  0  0  0  0  0  0  0
  -28.4330  -27.7999   19.2386 C   0  0  0  0  0  0  0  0  0  0  0  0
  -26.3260  -29.5697   20.9563 C   0  0  0  0  0  0  0  0  0  0  0  0
  -23.5137  -29.6572   22.8877 C   0  0  0  0  0  0  0  0  0  0  0  0
  -24.7682  -21.8258   26.3390 C   0  0  0  0  0  0  0  0  0  0  0  0
  -31.9980  -28.6421   15.6834 C   0  0  0  0  0  0  0  0  0  0  0  0
  -26.2327  -27.0505   18.2622 C   0  0  0  0  0  0  0  0  0  0  0  0
  -26.1735  -27.0651   21.2187 C   0  0  0  0  0  0  0  0  0  0  0  0
  -31.3566  -29.4598   16.8015 C   0  0  0  0  0  0  0  0  0  0  0  0
  -28.2872  -22.2054   26.7253 C   0  0  0  0  0  0  0  0  0  0  0  0
  -31.3559  -28.6708   18.1070 C   0  0  0  0  0  0  0  0  0  0  0  0
  -28.8415  -21.8817   25.3360 C   0  0  0  0  0  0  0  0  0  0  0  0
  -27.0881  -21.3265   27.0764 C   0  0  0  0  0  0  0  0  0  0  0  0
  -26.5625  -20.9994   24.6919 C   0  0  0  0  0  0  0  0  0  0  0  0
  -30.5342  -27.3830   17.9729 C   0  0  1  0  0  0  0  0  0  0  0  0
  -26.9717  -28.1091   19.0750 C   0  0  1  0  0  0  0  0  0  0  0  0
  -27.7312  -21.9036   24.2672 C   0  0  2  0  0  0  0  0  0  0  0  0
  -22.0594  -31.2431   24.1790 C   0  0  0  0  0  0  0  0  0  0  0  0
  -28.4159  -29.6741   23.1769 C   0  0  0  0  0  0  0  0  0  0  0  0
  -26.6103  -30.4126   24.7462 C   0  0  0  0  0  0  0  0  0  0  0  0
  -27.2070  -31.8271   22.7800 C   0  0  0  0  0  0  0  0  0  0  0  0
  -21.1534  -29.0401   21.2122 C   0  0  0  0  0  0  0  0  0  0  0  0
  -22.0789  -20.7484   23.3032 C   0  0  0  0  0  0  0  0  0  0  0  0
  -24.3821  -21.2995   20.4876 C   0  0  0  0  0  0  0  0  0  1  0  0
  -23.6263  -20.5236   21.5489 C   0  0  0  0  0  0  0  0  0  0  0  0
  -25.9491  -29.6647   22.4150 C   0  0  1  0  0  0  0  0  0  0  0  0
  -22.2888  -30.5529   22.8434 C   0  0  2  0  0  0  0  0  0  0  0  0
  -27.0431  -30.3702   23.2651 C   0  0  0  0  0  0  0  0  0  0  0  0
  -28.2224  -20.2524   22.5027 N   0  0  0  0  0  0  0  0  0  0  0  0
  -28.2645  -21.5371   22.8949 N   0  0  0  0  0  0  0  0  0  0  0  0
  -26.4178  -28.2775   20.4200 N   0  0  0  0  0  0  0  0  0  0  0  0
  -26.0754  -21.4006   26.0210 N   0  0  0  0  0  0  0  0  0  0  0  0
  -28.9218  -23.7038   22.1992 N   0  0  0  0  0  0  0  0  0  0  0  0
  -31.1397  -22.0707   19.5898 N   0  0  0  0  0  0  0  0  0  0  0  0
  -23.9009  -21.8879   25.2488 N   0  0  0  0  0  0  0  0  0  0  0  0
  -29.1189  -27.6767   18.0453 N   0  0  0  0  0  0  0  0  0  0  0  0
  -24.6452  -30.3178   22.4580 N   0  0  0  0  0  0  0  0  0  0  0  0
  -21.0749  -29.7544   22.5124 N   0  3  0  0  0  0  0  0  0  0  0  0
  -29.0591  -22.4293   18.6947 O   0  0  0  0  0  0  0  0  0  0  0  0
  -28.9036  -27.6833   20.3640 O   0  0  0  0  0  0  0  0  0  0  0  0
  -26.5244  -30.6042   20.3144 O   0  0  0  0  0  0  0  0  0  0  0  0
  -23.4716  -28.4896   23.2690 O   0  0  0  0  0  0  0  0  0  0  0  0
  -24.4495  -22.1397   27.4888 O   0  0  0  0  0  0  0  0  0  0  0  0
  -29.2790  -15.5930   18.2925 O   0  0  0  0  0  0  0  0  0  0  0  0
  -25.2152  -22.2681   21.1231 O   0  0  0  0  0  0  0  0  0  1  0  0
  -22.8084  -21.4229   22.2876 O   0  0  0  0  0  0  0  0  0  0  0  0
  -28.7373  -10.7902   20.9466 F   0  0  0  0  0  0  0  0  0  0  0  0
  -26.9337  -14.9579   19.6112 F   0  0  0  0  0  0  0  0  0  0  0  0
  1  2  1  0  0  0  0
  1  7  2  0  0  0  0
  2  8  2  0  0  0  0
  3  4  1  0  0  0  0
  3 10  2  0  0  0  0
  4 11  2  0  0  0  0
  5 12  2  0  0  0  0
  5 19  1  0  0  0  0
  6 13  1  0  0  0  0
  6 19  2  0  0  0  0
  7 21  1  0  0  0  0
  8 23  1  0  0  0  0
  9 14  2  0  0  0  0
  9 22  1  0  0  0  0
 10 25  1  0  0  0  0
 11 26  1  0  0  0  0
 12 27  1  0  0  0  0
 13 27  2  0  0  0  0
 14 28  1  0  0  0  0
 15 16  2  0  0  0  0
 15 29  1  0  0  0  0
 16 30  1  0  0  0  0
 17 24  1  0  0  0  0
 17 28  2  0  0  0  0
 18 30  2  0  0  0  0
 18 31  1  0  0  0  0
 19 32  1  0  0  0  0
 20 32  1  0  0  0  0
 20 33  2  0  0  0  0
 20 34  1  0  0  0  0
 21 23  2  0  0  0  0
 21 39  1  0  0  0  0
 22 24  2  0  0  0  0
 22 40  1  0  0  0  0
 23 48  1  0  0  0  0
 24 41  1  0  0  0  0
 25 26  2  0  0  0  0
 25 56  1  0  0  0  0
 26 68  1  0  0  0  0
 27 77  1  0  0  0  0
 28 78  1  0  0  0  0
 29 31  2  0  0  0  0
 29 77  1  0  0  0  0
 30 80  1  0  0  0  0
 31 81  1  0  0  0  0
 32 62  2  0  0  0  0
 33 63  1  0  0  0  0
 33 66  1  0  0  0  0
 34 67  1  0  0  0  0
 34 72  2  0  0  0  0
 35 49  1  0  0  0  0
 35 69  1  0  0  0  0
 35 73  2  0  0  0  0
 36 59  1  0  0  0  0
 36 64  1  0  0  0  0
 36 74  2  0  0  0  0
 37 60  1  0  0  0  0
 37 70  1  0  0  0  0
 37 75  2  0  0  0  0
 38 65  1  0  0  0  0
 38 68  1  0  0  0  0
 38 76  2  0  0  0  0
 39 42  1  0  0  0  0
 40 49  1  0  0  0  0
 41 64  1  0  0  0  0
 42 44  1  0  0  0  0
 43 45  1  0  0  0  0
 43 46  1  0  0  0  0
 44 48  1  0  0  0  0
 45 50  1  0  0  0  0
 46 65  1  0  0  0  0
 47 50  1  0  0  0  0
 47 65  1  0  0  0  0
 48 69  1  0  0  0  0
 49 64  1  0  0  0  0
 50 63  1  0  0  0  0
 51 60  1  0  0  0  0
 52 61  1  0  0  0  0
 53 61  1  0  0  0  0
 54 61  1  0  0  0  0
 55 71  1  0  0  0  0
 56 79  1  0  0  0  0
 57 58  1  0  0  0  0
 57 78  1  0  0  0  0
 58 79  1  0  0  0  0
 59 61  1  0  0  0  0
 59 70  1  0  0  0  0
 60 71  1  0  0  0  0
 62 63  1  0  0  0  0
M  CHG  1  71   1
M  ISO  4  38 100  57 101  68 100  78 101
M  END
> <Batch ID>
0002

> <Smiles>
CNC(C)C(=O)NC(C(=O)N1Cc2cc([101O:1][101CH2:1]COCc3ccccc3[100NH:0][100C:0](=O)N3CCCC(n4nc(-c5ccc(Oc6ccc(F)cc6F)cc5)c(C(N)=O)c4N)C3)ccc2CC1C(=O)NC1CCCc2ccccc21)C(C)(C)C

> <Shape>
0.210

> <Color>
0.071

> <Negative vol penalty>
0.000

$$$$

  -OEChem-04052315183D

 78 86  0     1  0  0  0  0  0999 V2000
  -26.7739  -32.6995   28.1675 C   0  0  0  0  0  0  0  0  0  0  0  0
  -27.2042  -31.6974   27.3039 C   0  0  0  0  0  0  0  0  0  0  0  0
  -27.9925  -22.3141   16.9447 C   0  0  0  0  0  0  0  0  0  0  0  0
  -26.5064  -12.7174   21.6170 C   0  0  0  0  0  0  0  0  0  0  0  0
  -26.0125  -13.7464   19.4877 C   0  0  0  0  0  0  0  0  0  0  0  0
  -25.4236  -33.0436   28.2165 C   0  0  0  0  0  0  0  0  0  0  0  0
  -26.2843  -31.0379   26.4894 C   0  0  0  0  0  0  0  0  0  0  0  0
  -27.2352  -28.9309   20.8182 C   0  0  0  0  0  0  0  0  0  0  0  0
  -27.8815  -23.5924   17.4918 C   0  0  0  0  0  0  0  0  0  0  0  0
  -28.5263  -21.2739   17.7054 C   0  0  0  0  0  0  0  0  0  0  0  0
  -25.2502  -12.1112   21.6155 C   0  0  0  0  0  0  0  0  0  0  0  0
  -24.7563  -13.1402   19.4860 C   0  0  0  0  0  0  0  0  0  0  0  0
  -27.5382  -27.6615   20.3277 C   0  0  0  0  0  0  0  0  0  0  0  0
  -23.7752   -9.4401   20.1584 C   0  0  0  0  0  0  0  0  0  0  0  0
  -23.7052   -8.0929   20.5128 C   0  0  0  0  0  0  0  0  0  0  0  0
  -25.1982  -27.2824   19.8806 C   0  0  0  0  0  0  0  0  0  0  0  0
  -28.8381  -22.7902   19.5602 C   0  0  0  0  0  0  0  0  0  0  0  0
  -22.2435   -8.6529   22.3531 C   0  0  0  0  0  0  0  0  0  0  0  0
  -26.8875  -13.5351   20.5531 C   0  0  0  0  0  0  0  0  0  0  0  0
  -29.3811  -13.6417   20.0253 C   0  0  0  0  0  0  0  0  0  0  0  0
  -24.4882  -32.3946   27.3953 C   0  0  0  0  0  0  0  0  0  0  0  0
  -25.9080  -29.3822   20.8538 C   0  0  0  0  0  0  0  0  0  0  0  0
  -24.9201  -31.3726   26.5285 C   0  0  0  0  0  0  0  0  0  0  0  0
  -24.8813  -28.5589   20.3697 C   0  0  0  0  0  0  0  0  0  0  0  0
  -28.3043  -23.8305   18.7995 C   0  0  0  0  0  0  0  0  0  0  0  0
  -28.9491  -21.5119   19.0131 C   0  0  0  0  0  0  0  0  0  0  0  0
  -24.3751  -12.3225   20.5500 C   0  0  0  0  0  0  0  0  0  0  0  0
  -26.5193  -26.8359   19.8615 C   0  0  0  0  0  0  0  0  0  0  0  0
  -23.0795  -10.3938   20.9015 C   0  0  0  0  0  0  0  0  0  0  0  0
  -22.9393   -7.6992   21.6101 C   0  0  0  0  0  0  0  0  0  0  0  0
  -22.3136  -10.0001   21.9988 C   0  0  0  0  0  0  0  0  0  0  0  0
  -28.1848  -14.1621   20.5545 C   0  0  0  0  0  0  0  0  0  0  0  0
  -30.3189  -14.6133   20.2763 C   0  0  0  0  0  0  0  0  0  0  0  0
  -29.6229  -12.3918   19.3657 C   0  0  0  0  0  0  0  0  0  0  0  0
  -23.8999  -30.2656   23.1541 C   0  0  0  0  0  0  0  0  0  0  0  0
  -21.9913  -31.0484   20.6508 C   0  0  0  0  0  0  0  0  0  0  0  0
  -21.1684  -30.5681   17.3737 C   0  0  0  0  0  0  0  0  0  0  0  0
  -29.9572  -20.5208   21.0983 C   0  0  0  0  0  0  0  0  0  0  0  0
  -23.0321  -32.7683   27.5176 C   0  0  0  0  0  0  0  0  0  0  0  0
  -25.6007  -30.7644   21.3612 C   0  0  0  0  0  0  0  0  0  0  0  0
  -23.4424  -29.0040   20.3674 C   0  0  0  0  0  0  0  0  0  0  0  0
  -22.1777  -32.2795   26.3509 C   0  0  0  0  0  0  0  0  0  0  0  0
  -31.3281  -18.1363   23.3592 C   0  0  0  0  0  0  0  0  0  0  0  0
  -22.4919  -30.8209   26.0335 C   0  0  0  0  0  0  0  0  0  0  0  0
  -30.7915  -16.7986   22.8447 C   0  0  0  0  0  0  0  0  0  0  0  0
  -30.2992  -19.2555   23.2095 C   0  0  0  0  0  0  0  0  0  0  0  0
  -29.2062  -18.0732   21.3449 C   0  0  0  0  0  0  0  0  0  0  0  0
  -23.9563  -30.6512   25.6115 C   0  0  1  0  0  0  0  0  0  0  0  0
  -24.1568  -30.9225   21.8274 C   0  0  1  0  0  0  0  0  0  0  0  0
  -30.2305  -16.9288   21.4151 C   0  0  2  0  0  0  0  0  0  0  0  0
  -19.5398  -31.3237   15.6205 C   0  0  0  0  0  0  0  0  0  0  0  0
  -19.8198  -29.3285   21.9301 C   0  0  0  0  0  0  0  0  0  0  0  0
  -18.6126  -29.3443   19.7367 C   0  0  0  0  0  0  0  0  0  0  0  0
  -19.0056  -31.4839   20.9576 C   0  0  0  0  0  0  0  0  0  0  0  0
  -23.3324  -31.6255   15.6538 C   0  0  0  0  0  0  0  0  0  0  0  0
  -28.1847  -25.2057   19.3875 C   0  0  0  0  0  0  0  0  0  1  0  0
  -20.9499  -30.3236   19.8328 C   0  0  1  0  0  0  0  0  0  0  0  0
  -20.9071  -31.5505   16.2463 C   0  0  2  0  0  0  0  0  0  0  0  0
  -19.6238  -30.1106   20.6160 C   0  0  0  0  0  0  0  0  0  0  0  0
  -28.3453  -15.3704   21.1006 N   0  0  0  0  0  0  0  0  0  0  0  0
  -29.6533  -15.6173   20.9160 N   0  0  0  0  0  0  0  0  0  0  0  0
  -23.1921  -30.3615   20.8793 N   0  0  0  0  0  0  0  0  0  0  0  0
  -29.8156  -19.3219   21.8287 N   0  0  0  0  0  0  0  0  0  0  0  0
  -31.6396  -14.6981   20.0102 N   0  0  0  0  0  0  0  0  0  0  0  0
  -28.5477  -11.5102   19.1899 N   0  0  0  0  0  0  0  0  0  0  0  0
  -29.4906  -20.4548   19.7858 N   0  0  0  0  0  0  0  0  0  0  0  0
  -24.1410  -31.0823   24.2423 N   0  0  0  0  0  0  0  0  0  0  0  0
  -20.7987  -31.0848   18.5974 N   0  0  0  0  0  0  0  0  0  0  0  0
  -21.9408  -31.4053   15.1827 N   0  3  0  0  0  0  0  0  0  0  0  0
  -30.7622  -12.0595   18.9593 O   0  0  0  0  0  0  0  0  0  0  0  0
  -23.5105  -29.1042   23.1878 O   0  0  0  0  0  0  0  0  0  0  0  0
  -21.7511  -32.1850   21.0655 O   0  0  0  0  0  0  0  0  0  0  0  0
  -21.6488  -29.4523   17.1870 O   0  0  0  0  0  0  0  0  0  0  0  0
  -30.4803  -21.5233   21.5915 O   0  0  0  0  0  0  0  0  0  0  0  0
  -23.1494  -11.7309   20.5480 O   0  0  0  0  0  0  0  0  0  0  0  0
  -26.8122  -25.5962   19.3828 O   0  0  0  0  0  0  0  0  0  1  0  0
  -22.8709   -6.4052   21.9493 F   0  0  0  0  0  0  0  0  0  0  0  0
  -21.6420  -10.9116   22.7158 F   0  0  0  0  0  0  0  0  0  0  0  0
  1  2  1  0  0  0  0
  1  6  2  0  0  0  0
  2  7  2  0  0  0  0
  3  9  2  0  0  0  0
  3 10  1  0  0  0  0
  4 11  2  0  0  0  0
  4 19  1  0  0  0  0
  5 12  1  0  0  0  0
  5 19  2  0  0  0  0
  6 21  1  0  0  0  0
  7 23  1  0  0  0  0
  8 13  2  0  0  0  0
  8 22  1  0  0  0  0
  9 25  1  0  0  0  0
 10 26  2  0  0  0  0
 11 27  1  0  0  0  0
 12 27  2  0  0  0  0
 13 28  1  0  0  0  0
 14 15  2  0  0  0  0
 14 29  1  0  0  0  0
 15 30  1  0  0  0  0
 16 24  1  0  0  0  0
 16 28  2  0  0  0  0
 17 25  2  0  0  0  0
 17 26  1  0  0  0  0
 18 30  2  0  0  0  0
 18 31  1  0  0  0  0
 19 32  1  0  0  0  0
 20 32  1  0  0  0  0
 20 33  2  0  0  0  0
 20 34  1  0  0  0  0
 21 23  2  0  0  0  0
 21 39  1  0  0  0  0
 22 24  2  0  0  0  0
 22 40  1  0  0  0  0
 23 48  1  0  0  0  0
 24 41  1  0  0  0  0
 25 56  1  0  0  0  0
 26 66  1  0  0  0  0
 27 75  1  0  0  0  0
 28 76  1  0  0  0  0
 29 31  2  0  0  0  0
 29 75  1  0  0  0  0
 30 77  1  0  0  0  0
 31 78  1  0  0  0  0
 32 60  2  0  0  0  0
 33 61  1  0  0  0  0
 33 64  1  0  0  0  0
 34 65  1  0  0  0  0
 34 70  2  0  0  0  0
 35 49  1  0  0  0  0
 35 67  1  0  0  0  0
 35 71  2  0  0  0  0
 36 57  1  0  0  0  0
 36 62  1  0  0  0  0
 36 72  2  0  0  0  0
 37 58  1  0  0  0  0
 37 68  1  0  0  0  0
 37 73  2  0  0  0  0
 38 63  1  0  0  0  0
 38 66  1  0  0  0  0
 38 74  2  0  0  0  0
 39 42  1  0  0  0  0
 40 49  1  0  0  0  0
 41 62  1  0  0  0  0
 42 44  1  0  0  0  0
 43 45  1  0  0  0  0
 43 46  1  0  0  0  0
 44 48  1  0  0  0  0
 45 50  1  0  0  0  0
 46 63  1  0  0  0  0
 47 50  1  0  0  0  0
 47 63  1  0  0  0  0
 48 67  1  0  0  0  0
 49 62  1  0  0  0  0
 50 61  1  0  0  0  0
 51 58  1  0  0  0  0
 52 59  1  0  0  0  0
 53 59  1  0  0  0  0
 54 59  1  0  0  0  0
 55 69  1  0  0  0  0
 56 76  1  0  0  0  0
 57 59  1  0  0  0  0
 57 68  1  0  0  0  0
 58 69  1  0  0  0  0
 60 61  1  0  0  0  0
M  CHG  1  69   1
M  ISO  4  38 100  56 101  66 100  76 101
M  END
> <Batch ID>
0002

> <Smiles>
CNC(C)C(=O)NC(C(=O)N1Cc2cc([101O:1][101CH2:1]c3cccc([100NH:0][100C:0](=O)N4CCCC(n5nc(-c6ccc(Oc7ccc(F)cc7F)cc6)c(C(N)=O)c5N)C4)c3)ccc2CC1C(=O)NC1CCCc2ccccc21)C(C)(C)C

> <Shape>
0.294

> <Color>
0.112

> <Negative vol penalty>
0.000

$$$$

  -OEChem-04052315183D

 78 86  0     1  0  0  0  0  0999 V2000
  -26.6841  -10.9203   17.4068 C   0  0  0  0  0  0  0  0  0  0  0  0
  -25.9165  -12.0441   17.6955 C   0  0  0  0  0  0  0  0  0  0  0  0
  -19.9748  -20.0918   15.6358 C   0  0  0  0  0  0  0  0  0  0  0  0
  -26.2164  -29.3106   20.5870 C   0  0  0  0  0  0  0  0  0  0  0  0
  -23.8093  -29.2573   20.3869 C   0  0  0  0  0  0  0  0  0  0  0  0
  -27.9824  -10.8178   17.9046 C   0  0  0  0  0  0  0  0  0  0  0  0
  -26.4464  -13.0655   18.4831 C   0  0  0  0  0  0  0  0  0  0  0  0
  -25.4958  -17.6671   16.5943 C   0  0  0  0  0  0  0  0  0  0  0  0
  -20.6014  -20.8556   14.6511 C   0  0  0  0  0  0  0  0  0  0  0  0
  -20.6913  -19.6775   16.7585 C   0  0  0  0  0  0  0  0  0  0  0  0
  -26.1283  -30.4847   21.3348 C   0  0  0  0  0  0  0  0  0  0  0  0
  -23.7211  -30.4314   21.1348 C   0  0  0  0  0  0  0  0  0  0  0  0
  -24.2173  -18.1859   16.7945 C   0  0  0  0  0  0  0  0  0  0  0  0
  -26.5161  -33.2993   23.6026 C   0  0  0  0  0  0  0  0  0  0  0  0
  -27.2957  -33.3941   24.7552 C   0  0  0  0  0  0  0  0  0  0  0  0
  -25.0503  -19.5155   18.6269 C   0  0  0  0  0  0  0  0  0  0  0  0
  -22.6613  -20.7908   15.9118 C   0  0  0  0  0  0  0  0  0  0  0  0
  -26.1775  -31.4580   25.6708 C   0  0  0  0  0  0  0  0  0  0  0  0
  -25.0569  -28.6969   20.1130 C   0  0  0  0  0  0  0  0  0  0  0  0
  -25.1360  -26.1633   19.8263 C   0  0  0  0  0  0  0  0  0  0  0  0
  -28.5320  -11.8429   18.6907 C   0  0  0  0  0  0  0  0  0  0  0  0
  -26.5607  -18.0611   17.4173 C   0  0  0  0  0  0  0  0  0  0  0  0
  -27.7528  -12.9760   18.9929 C   0  0  0  0  0  0  0  0  0  0  0  0
  -26.3419  -19.0022   18.4334 C   0  0  0  0  0  0  0  0  0  0  0  0
  -21.9447  -21.2051   14.7892 C   0  0  0  0  0  0  0  0  0  0  0  0
  -24.8807  -31.0451   21.6087 C   0  0  0  0  0  0  0  0  0  0  0  0
  -23.9938  -19.1080   17.8127 C   0  0  0  0  0  0  0  0  0  0  0  0
  -22.0346  -20.0270   16.8965 C   0  0  0  0  0  0  0  0  0  1  0  0
  -25.5670  -32.2839   23.4840 C   0  0  0  0  0  0  0  0  0  0  0  0
  -27.1265  -32.4734   25.7893 C   0  0  0  0  0  0  0  0  0  0  0  0
  -25.3978  -31.3633   24.5181 C   0  0  0  0  0  0  0  0  0  0  0  0
  -25.1473  -27.4843   19.3400 C   0  0  0  0  0  0  0  0  0  0  0  0
  -25.2459  -25.3824   18.7017 C   0  0  0  0  0  0  0  0  0  0  0  0
  -25.0350  -25.6848   21.1741 C   0  0  0  0  0  0  0  0  0  0  0  0
  -28.5059  -16.5659   19.4382 C   0  0  0  0  0  0  0  0  0  0  0  0
  -29.9681  -19.4589   19.5605 C   0  0  0  0  0  0  0  0  0  0  0  0
  -29.7385  -22.8404   19.1610 C   0  0  0  0  0  0  0  0  0  0  0  0
  -23.7955  -24.1852   13.4474 C   0  0  0  0  0  0  0  0  0  0  0  0
  -29.9231  -11.6657   19.2455 C   0  0  0  0  0  0  0  0  0  0  0  0
  -27.9394  -17.5124   17.1713 C   0  0  0  0  0  0  0  0  0  0  0  0
  -27.4556  -19.4731   19.3314 C   0  0  0  0  0  0  0  0  0  0  0  0
  -30.5429  -12.9620   19.7612 C   0  0  0  0  0  0  0  0  0  0  0  0
  -26.3418  -26.6277   13.9232 C   0  0  0  0  0  0  0  0  0  0  0  0
  -29.5451  -13.7225   20.6288 C   0  0  0  0  0  0  0  0  0  0  0  0
  -26.2528  -26.9636   15.4129 C   0  0  0  0  0  0  0  0  0  0  0  0
  -24.9634  -26.3660   13.3203 C   0  0  0  0  0  0  0  0  0  0  0  0
  -24.0734  -25.6835   15.5147 C   0  0  0  0  0  0  0  0  0  0  0  0
  -28.3012  -14.1163   19.8231 C   0  0  1  0  0  0  0  0  0  0  0  0
  -28.8433  -17.5957   18.3974 C   0  0  1  0  0  0  0  0  0  0  0  0
  -25.4433  -25.9007   16.1799 C   0  0  2  0  0  0  0  0  0  0  0  0
  -31.0889  -24.9450   19.3711 C   0  0  0  0  0  0  0  0  0  0  0  0
  -29.6895  -19.3316   22.5963 C   0  0  0  0  0  0  0  0  0  0  0  0
  -30.1591  -21.7896   22.6727 C   0  0  0  0  0  0  0  0  0  0  0  0
  -31.8828  -20.2193   21.7863 C   0  0  0  0  0  0  0  0  0  0  0  0
  -29.4207  -23.4692   16.2865 C   0  0  0  0  0  0  0  0  0  0  0  0
  -22.6139  -22.0219   13.7363 C   0  0  0  0  0  0  0  0  0  0  0  0
  -29.8171  -20.6981   20.4094 C   0  0  1  0  0  0  0  0  0  0  0  0
  -30.6330  -23.8325   18.4399 C   0  0  2  0  0  0  0  0  0  0  0  0
  -30.3655  -20.4995   21.8507 C   0  0  0  0  0  0  0  0  0  0  0  0
  -25.2560  -27.5432   18.0100 N   0  0  0  0  0  0  0  0  0  0  0  0
  -25.3141  -26.2495   17.6511 N   0  0  0  0  0  0  0  0  0  0  0  0
  -28.7845  -18.9027   19.0551 N   0  0  0  0  0  0  0  0  0  0  0  0
  -24.2485  -25.3474   14.0931 N   0  0  0  0  0  0  0  0  0  0  0  0
  -25.2899  -24.0456   18.5190 N   0  0  0  0  0  0  0  0  0  0  0  0
  -24.9289  -26.6229   22.2099 N   0  0  0  0  0  0  0  0  0  0  0  0
  -28.5833  -15.2625   18.9859 N   0  0  0  0  0  0  0  0  0  0  0  0
  -30.4581  -21.7801   19.6700 N   0  0  0  0  0  0  0  0  0  0  0  0
  -23.1329  -23.2682   14.2542 N   0  0  0  0  0  0  0  0  0  0  0  0
  -29.9058  -24.4476   17.2936 N   0  3  0  0  0  0  0  0  0  0  0  0
  -25.0553  -24.4619   21.4530 O   0  0  0  0  0  0  0  0  0  0  0  0
  -28.1997  -16.9270   20.5685 O   0  0  0  0  0  0  0  0  0  0  0  0
  -31.0953  -19.0054   19.3476 O   0  0  0  0  0  0  0  0  0  0  0  0
  -28.5234  -22.9928   19.2657 O   0  0  0  0  0  0  0  0  0  0  0  0
  -23.9733  -23.9774   12.2423 O   0  0  0  0  0  0  0  0  0  0  0  0
  -24.7943  -32.1907   22.3386 O   0  0  0  0  0  0  0  0  0  0  0  0
  -22.7467  -19.6154   18.0107 O   0  0  0  0  0  0  0  0  0  1  0  0
  -27.8763  -32.5636   26.8956 F   0  0  0  0  0  0  0  0  0  0  0  0
  -24.4885  -30.3849   24.4094 F   0  0  0  0  0  0  0  0  0  0  0  0
  1  2  1  0  0  0  0
  1  6  2  0  0  0  0
  2  7  2  0  0  0  0
  3  9  1  0  0  0  0
  3 10  2  0  0  0  0
  4 11  2  0  0  0  0
  4 19  1  0  0  0  0
  5 12  1  0  0  0  0
  5 19  2  0  0  0  0
  6 21  1  0  0  0  0
  7 23  1  0  0  0  0
  8 13  2  0  0  0  0
  8 22  1  0  0  0  0
  9 25  2  0  0  0  0
 10 28  1  0  0  0  0
 11 26  1  0  0  0  0
 12 26  2  0  0  0  0
 13 27  1  0  0  0  0
 14 15  2  0  0  0  0
 14 29  1  0  0  0  0
 15 30  1  0  0  0  0
 16 24  1  0  0  0  0
 16 27  2  0  0  0  0
 17 25  1  0  0  0  0
 17 28  2  0  0  0  0
 18 30  2  0  0  0  0
 18 31  1  0  0  0  0
 19 32  1  0  0  0  0
 20 32  1  0  0  0  0
 20 33  2  0  0  0  0
 20 34  1  0  0  0  0
 21 23  2  0  0  0  0
 21 39  1  0  0  0  0
 22 24  2  0  0  0  0
 22 40  1  0  0  0  0
 23 48  1  0  0  0  0
 24 41  1  0  0  0  0
 25 56  1  0  0  0  0
 26 75  1  0  0  0  0
 27 76  1  0  0  0  0
 28 76  1  0  0  0  0
 29 31  2  0  0  0  0
 29 75  1  0  0  0  0
 30 77  1  0  0  0  0
 31 78  1  0  0  0  0
 32 60  2  0  0  0  0
 33 61  1  0  0  0  0
 33 64  1  0  0  0  0
 34 65  1  0  0  0  0
 34 70  2  0  0  0  0
 35 49  1  0  0  0  0
 35 66  1  0  0  0  0
 35 71  2  0  0  0  0
 36 57  1  0  0  0  0
 36 62  1  0  0  0  0
 36 72  2  0  0  0  0
 37 58  1  0  0  0  0
 37 67  1  0  0  0  0
 37 73  2  0  0  0  0
 38 63  1  0  0  0  0
 38 68  1  0  0  0  0
 38 74  2  0  0  0  0
 39 42  1  0  0  0  0
 40 49  1  0  0  0  0
 41 62  1  0  0  0  0
 42 44  1  0  0  0  0
 43 45  1  0  0  0  0
 43 46  1  0  0  0  0
 44 48  1  0  0  0  0
 45 50  1  0  0  0  0
 46 63  1  0  0  0  0
 47 50  1  0  0  0  0
 47 63  1  0  0  0  0
 48 66  1  0  0  0  0
 49 62  1  0  0  0  0
 50 61  1  0  0  0  0
 51 58  1  0  0  0  0
 52 59  1  0  0  0  0
 53 59  1  0  0  0  0
 54 59  1  0  0  0  0
 55 69  1  0  0  0  0
 56 68  1  0  0  0  0
 57 59  1  0  0  0  0
 57 67  1  0  0  0  0
 58 69  1  0  0  0  0
 60 61  1  0  0  0  0
M  CHG  1  69   1
M  ISO  4  28 101  38 100  68 100  76 101
M  END
> <Batch ID>
0002

> <Smiles>
CNC(C)C(=O)NC(C(=O)N1Cc2cc([101O:1][101c:1]3cccc(C[100NH:0][100C:0](=O)N4CCCC(n5nc(-c6ccc(Oc7ccc(F)cc7F)cc6)c(C(N)=O)c5N)C4)c3)ccc2CC1C(=O)NC1CCCc2ccccc21)C(C)(C)C

> <Shape>
0.233

> <Color>
0.052

> <Negative vol penalty>
0.000

$$$$

  -OEChem-04052315183D

 82 90  0     1  0  0  0  0  0999 V2000
  -22.6557  -18.9870   22.1101 C   0  0  0  0  0  0  0  0  0  0  0  0
  -23.9467  -19.4571   22.3281 C   0  0  0  0  0  0  0  0  0  0  0  0
  -23.4527   -9.7271   21.4264 C   0  0  0  0  0  0  0  0  0  0  0  0
  -24.0562  -10.7584   23.5263 C   0  0  0  0  0  0  0  0  0  0  0  0
  -21.6887  -19.8337   21.5696 C   0  0  0  0  0  0  0  0  0  0  0  0
  -24.2719  -20.7740   22.0046 C   0  0  0  0  0  0  0  0  0  0  0  0
  -26.9785  -23.0527   25.6277 C   0  0  0  0  0  0  0  0  0  0  0  0
  -31.4784  -18.0064   21.1772 C   0  0  0  0  0  0  0  0  0  0  0  0
  -22.8217   -8.6919   22.1162 C   0  0  0  0  0  0  0  0  0  0  0  0
  -23.4251   -9.7233   24.2161 C   0  0  0  0  0  0  0  0  0  0  0  0
  -28.3359  -22.7425   25.6987 C   0  0  0  0  0  0  0  0  0  0  0  0
  -31.9079  -19.2471   21.6481 C   0  0  0  0  0  0  0  0  0  0  0  0
  -19.8871   -8.1932   23.7200 C   0  0  0  0  0  0  0  0  0  0  0  0
  -18.6271   -7.7921   23.2761 C   0  0  0  0  0  0  0  0  0  0  0  0
  -28.8585  -24.7902   24.5355 C   0  0  0  0  0  0  0  0  0  0  0  0
  -29.1824  -18.7426   21.3316 C   0  0  0  0  0  0  0  0  0  0  0  0
  -19.4764   -5.5656   22.8774 C   0  0  0  0  0  0  0  0  0  0  0  0
  -24.0701  -10.7603   22.1315 C   0  0  0  0  0  0  0  0  0  0  0  0
  -24.1471  -13.0406   20.9904 C   0  0  0  0  0  0  0  0  0  0  0  0
  -21.9997  -21.1644   21.2483 C   0  0  0  0  0  0  0  0  0  0  0  0
  -26.5495  -24.2306   24.9994 C   0  0  0  0  0  0  0  0  0  0  0  0
  -23.3086  -21.6388   21.4581 C   0  0  0  0  0  0  0  0  0  0  0  0
  -27.4952  -25.1142   24.4601 C   0  0  0  0  0  0  0  0  0  0  0  0
  -29.6119  -19.9833   21.8026 C   0  0  0  0  0  0  0  0  0  0  0  0
  -30.1156  -17.7541   21.0189 C   0  0  0  0  0  0  0  0  0  0  0  0
  -22.8078   -8.6900   23.5110 C   0  0  0  0  0  0  0  0  0  0  0  0
  -29.2760  -23.6099   25.1500 C   0  0  0  0  0  0  0  0  0  0  0  0
  -30.9747  -20.2355   21.9608 C   0  0  0  0  0  0  0  0  0  0  0  0
  -20.9418   -7.2806   23.7426 C   0  0  0  0  0  0  0  0  0  0  0  0
  -18.4217   -6.4783   22.8548 C   0  0  0  0  0  0  0  0  0  0  0  0
  -20.7364   -5.9668   23.3214 C   0  0  0  0  0  0  0  0  0  0  0  0
  -24.7226  -11.8296   21.4195 C   0  0  0  0  0  0  0  0  0  0  0  0
  -25.1743  -13.7076   20.3686 C   0  0  0  0  0  0  0  0  0  0  0  0
  -22.8042  -13.5198   21.1405 C   0  0  0  0  0  0  0  0  0  0  0  0
  -24.7272  -24.8937   22.4808 C   0  0  0  0  0  0  0  0  0  0  0  0
  -25.1194  -27.9509   23.4921 C   0  0  0  0  0  0  0  0  0  0  0  0
  -26.9936  -30.2078   25.2357 C   0  0  0  0  0  0  0  0  0  0  0  0
  -30.4743  -15.4044   20.1844 C   0  0  0  0  0  0  0  0  0  0  0  0
  -20.9336  -22.0281   20.6222 C   0  0  0  0  0  0  0  0  0  0  0  0
  -25.0834  -24.5637   24.9547 C   0  0  0  0  0  0  0  0  0  0  0  0
  -27.0877  -26.4015   23.7927 C   0  0  0  0  0  0  0  0  0  0  0  0
  -21.2602  -23.5189   20.6555 C   0  0  0  0  0  0  0  0  0  0  0  0
  -29.7812  -12.1193   18.9992 C   0  0  0  0  0  0  0  0  0  0  0  0
  -22.6974  -23.7608   20.2052 C   0  0  0  0  0  0  0  0  0  0  0  0
  -28.3560  -11.8507   19.4879 C   0  0  0  0  0  0  0  0  0  0  0  0
  -30.5862  -12.9277   20.0151 C   0  0  0  0  0  0  0  0  0  0  0  0
  -28.5267  -13.9073   20.9468 C   0  0  0  0  0  0  0  0  0  0  0  0
  -23.6934  -23.0681   21.1432 C   0  0  1  0  0  0  0  0  0  0  0  0
  -24.7261  -25.5393   23.8376 C   0  0  1  0  0  0  0  0  0  0  0  0
  -27.6569  -13.1516   19.9289 C   0  0  2  0  0  0  0  0  0  0  0  0
  -28.5993  -21.0298   22.1324 C   0  0  0  0  0  0  0  0  0  0  0  0
  -27.0804  -32.6392   25.8508 C   0  0  0  0  0  0  0  0  0  0  0  0
  -26.0823  -28.6263   20.6767 C   0  0  0  0  0  0  0  0  0  0  0  0
  -27.0300  -30.7573   21.5873 C   0  0  0  0  0  0  0  0  0  0  0  0
  -24.5737  -30.3374   21.7018 C   0  0  0  0  0  0  0  0  0  0  0  0
  -26.8196  -29.6017   28.1273 C   0  0  0  0  0  0  0  0  0  0  0  0
  -32.6136  -22.8561   23.9651 C   0  0  0  0  0  0  0  0  0  0  0  0
  -31.4314  -23.7922   24.1618 C   0  0  0  0  0  0  0  0  0  1  0  0
  -32.1691  -21.4420   23.6263 C   0  0  0  0  0  0  0  0  0  0  0  0
  -26.1244  -29.0450   23.2240 C   0  0  1  0  0  0  0  0  0  0  0  0
  -26.6091  -31.2542   26.2661 C   0  0  2  0  0  0  0  0  0  0  0  0
  -25.9605  -29.6664   21.8083 C   0  0  0  0  0  0  0  0  0  0  0  0
  -26.0151  -11.7303   21.0975 N   0  0  0  0  0  0  0  0  0  0  0  0
  -26.2602  -12.8873   20.4593 N   0  0  0  0  0  0  0  0  0  0  0  0
  -25.6422  -26.6796   23.7686 N   0  0  0  0  0  0  0  0  0  0  0  0
  -29.8642  -14.1477   20.3828 N   0  0  0  0  0  0  0  0  0  0  0  0
  -25.2455  -14.9097   19.7586 N   0  0  0  0  0  0  0  0  0  0  0  0
  -21.8754  -12.7077   21.8054 N   0  0  0  0  0  0  0  0  0  0  0  0
  -29.6797  -16.4937   20.5405 N   0  0  0  0  0  0  0  0  0  0  0  0
  -23.8527  -23.8303   22.3631 N   0  0  0  0  0  0  0  0  0  0  0  0
  -25.9867  -30.0022   24.3163 N   0  0  0  0  0  0  0  0  0  0  0  0
  -27.2163  -30.9277   27.5873 N   0  3  0  0  0  0  0  0  0  0  0  0
  -22.4345  -14.6280   20.6837 O   0  0  0  0  0  0  0  0  0  0  0  0
  -25.4656  -25.3292   21.6051 O   0  0  0  0  0  0  0  0  0  0  0  0
  -23.9150  -28.2160   23.4643 O   0  0  0  0  0  0  0  0  0  0  0  0
  -28.0800  -29.6332   25.2432 O   0  0  0  0  0  0  0  0  0  0  0  0
  -31.6070  -15.5077   19.7066 O   0  0  0  0  0  0  0  0  0  0  0  0
  -22.1919   -7.6802   24.1844 O   0  0  0  0  0  0  0  0  0  0  0  0
  -30.6015  -23.3092   25.2173 O   0  0  0  0  0  0  0  0  0  1  0  0
  -31.4141  -21.4491   22.4223 O   0  0  0  0  0  0  0  0  0  0  0  0
  -17.2113   -6.0928   22.4300 F   0  0  0  0  0  0  0  0  0  0  0  0
  -21.7455   -5.0853   23.3419 F   0  0  0  0  0  0  0  0  0  0  0  0
  1  2  1  0  0  0  0
  1  5  2  0  0  0  0
  2  6  2  0  0  0  0
  3  9  2  0  0  0  0
  3 18  1  0  0  0  0
  4 10  1  0  0  0  0
  4 18  2  0  0  0  0
  5 20  1  0  0  0  0
  6 22  1  0  0  0  0
  7 11  2  0  0  0  0
  7 21  1  0  0  0  0
  8 12  2  0  0  0  0
  8 25  1  0  0  0  0
  9 26  1  0  0  0  0
 10 26  2  0  0  0  0
 11 27  1  0  0  0  0
 12 28  1  0  0  0  0
 13 14  2  0  0  0  0
 13 29  1  0  0  0  0
 14 30  1  0  0  0  0
 15 23  1  0  0  0  0
 15 27  2  0  0  0  0
 16 24  1  0  0  0  0
 16 25  2  0  0  0  0
 17 30  2  0  0  0  0
 17 31  1  0  0  0  0
 18 32  1  0  0  0  0
 19 32  1  0  0  0  0
 19 33  2  0  0  0  0
 19 34  1  0  0  0  0
 20 22  2  0  0  0  0
 20 39  1  0  0  0  0
 21 23  2  0  0  0  0
 21 40  1  0  0  0  0
 22 48  1  0  0  0  0
 23 41  1  0  0  0  0
 24 28  2  0  0  0  0
 24 51  1  0  0  0  0
 25 69  1  0  0  0  0
 26 78  1  0  0  0  0
 27 79  1  0  0  0  0
 28 80  1  0  0  0  0
 29 31  2  0  0  0  0
 29 78  1  0  0  0  0
 30 81  1  0  0  0  0
 31 82  1  0  0  0  0
 32 63  2  0  0  0  0
 33 64  1  0  0  0  0
 33 67  1  0  0  0  0
 34 68  1  0  0  0  0
 34 73  2  0  0  0  0
 35 49  1  0  0  0  0
 35 70  1  0  0  0  0
 35 74  2  0  0  0  0
 36 60  1  0  0  0  0
 36 65  1  0  0  0  0
 36 75  2  0  0  0  0
 37 61  1  0  0  0  0
 37 71  1  0  0  0  0
 37 76  2  0  0  0  0
 38 66  1  0  0  0  0
 38 69  1  0  0  0  0
 38 77  2  0  0  0  0
 39 42  1  0  0  0  0
 40 49  1  0  0  0  0
 41 65  1  0  0  0  0
 42 44  1  0  0  0  0
 43 45  1  0  0  0  0
 43 46  1  0  0  0  0
 44 48  1  0  0  0  0
 45 50  1  0  0  0  0
 46 66  1  0  0  0  0
 47 50  1  0  0  0  0
 47 66  1  0  0  0  0
 48 70  1  0  0  0  0
 49 65  1  0  0  0  0
 50 64  1  0  0  0  0
 52 61  1  0  0  0  0
 53 62  1  0  0  0  0
 54 62  1  0  0  0  0
 55 62  1  0  0  0  0
 56 72  1  0  0  0  0
 57 58  1  0  0  0  0
 57 59  1  0  0  0  0
 58 79  1  0  0  0  0
 59 80  1  0  0  0  0
 60 62  1  0  0  0  0
 60 71  1  0  0  0  0
 61 72  1  0  0  0  0
 63 64  1  0  0  0  0
M  CHG  1  72   1
M  ISO  4  38 100  58 101  69 100  79 101
M  END
> <Batch ID>
0002

> <Smiles>
CNC(C)C(=O)NC(C(=O)N1Cc2cc([101O:1][101CH2:1]CCOc3ccc([100NH:0][100C:0](=O)N4CCCC(n5nc(-c6ccc(Oc7ccc(F)cc7F)cc6)c(C(N)=O)c5N)C4)cc3C)ccc2CC1C(=O)NC1CCCc2ccccc21)C(C)(C)C

> <Shape>
0.217

> <Color>
0.137

> <Negative vol penalty>
0.000

$$$$

  -OEChem-04052315183D

 84 92  0     1  0  0  0  0  0999 V2000
  -29.2602  -31.9119   26.0572 C   0  0  0  0  0  0  0  0  0  0  0  0
  -29.2816  -31.1936   24.8660 C   0  0  0  0  0  0  0  0  0  0  0  0
  -23.1048   -9.8323   19.9337 C   0  0  0  0  0  0  0  0  0  0  0  0
  -23.8676   -9.8478   22.2261 C   0  0  0  0  0  0  0  0  0  0  0  0
  -28.6467  -33.1630   26.1045 C   0  0  0  0  0  0  0  0  0  0  0  0
  -28.6885  -31.7255   23.7215 C   0  0  0  0  0  0  0  0  0  0  0  0
  -31.5850  -31.1866   19.6027 C   0  0  0  0  0  0  0  0  0  0  0  0
  -29.1187  -18.7703   21.0161 C   0  0  0  0  0  0  0  0  0  0  0  0
  -31.3359  -18.5851   20.0745 C   0  0  0  0  0  0  0  0  0  0  0  0
  -28.8351  -19.8196   20.1420 C   0  0  0  0  0  0  0  0  0  0  0  0
  -31.0523  -19.6344   19.2003 C   0  0  0  0  0  0  0  0  0  0  0  0
  -22.3891   -8.6607   20.1798 C   0  0  0  0  0  0  0  0  0  0  0  0
  -23.1518   -8.6762   22.4722 C   0  0  0  0  0  0  0  0  0  0  0  0
  -31.6059  -29.9300   18.9990 C   0  0  0  0  0  0  0  0  0  0  0  0
  -19.4628   -7.7878   21.6317 C   0  0  0  0  0  0  0  0  0  0  0  0
  -18.1567   -7.7124   21.1480 C   0  0  0  0  0  0  0  0  0  0  0  0
  -30.0363  -30.7074   17.3404 C   0  0  0  0  0  0  0  0  0  0  0  0
  -18.7607   -5.7888   19.8168 C   0  0  0  0  0  0  0  0  0  0  0  0
  -23.8441  -10.4259   20.9569 C   0  0  0  0  0  0  0  0  0  0  0  0
  -24.1254  -12.9590   20.8470 C   0  0  0  0  0  0  0  0  0  0  0  0
  -28.0542  -33.7148   24.9577 C   0  0  0  0  0  0  0  0  0  0  0  0
  -30.7798  -32.2115   19.0854 C   0  0  0  0  0  0  0  0  0  0  0  0
  -28.0653  -32.9846   23.7539 C   0  0  0  0  0  0  0  0  0  0  0  0
  -30.0089  -31.9768   17.9379 C   0  0  0  0  0  0  0  0  0  0  0  0
  -30.3691  -18.1530   20.9824 C   0  0  0  0  0  0  0  0  0  0  0  0
  -29.8019  -20.2516   19.2341 C   0  0  0  0  0  0  0  0  0  0  0  0
  -22.4125   -8.0826   21.4491 C   0  0  0  0  0  0  0  0  0  0  0  0
  -30.8293  -29.6894   17.8694 C   0  0  0  0  0  0  0  0  0  0  0  0
  -20.4179   -6.8638   21.2079 C   0  0  0  0  0  0  0  0  0  0  0  0
  -17.8056   -6.7129   20.2406 C   0  0  0  0  0  0  0  0  0  0  0  0
  -20.0669   -5.8643   20.3005 C   0  0  0  0  0  0  0  0  0  0  0  0
  -24.5842  -11.6359   20.7031 C   0  0  0  0  0  0  0  0  0  0  0  0
  -25.1988  -13.7358   20.4855 C   0  0  0  0  0  0  0  0  0  0  0  0
  -22.8436  -13.4425   21.2698 C   0  0  0  0  0  0  0  0  0  0  0  0
  -28.3336  -33.9154   20.1881 C   0  0  0  0  0  0  0  0  0  0  0  0
  -28.7097  -35.5340   17.4023 C   0  0  0  0  0  0  0  0  0  0  0  0
  -29.8372  -35.5343   14.1812 C   0  0  0  0  0  0  0  0  0  0  0  0
  -30.6569  -14.8848   20.6708 C   0  0  0  0  0  0  0  0  0  0  0  0
  -27.3615  -35.0499   25.0693 C   0  0  0  0  0  0  0  0  0  0  0  0
  -30.7889  -33.5693   19.7324 C   0  0  0  0  0  0  0  0  0  0  0  0
  -29.1430  -33.0495   17.3313 C   0  0  0  0  0  0  0  0  0  0  0  0
  -27.0843  -35.7070   23.7196 C   0  0  0  0  0  0  0  0  0  0  0  0
  -29.5732  -12.4838   18.2755 C   0  0  0  0  0  0  0  0  0  0  0  0
  -26.4837  -34.6967   22.7473 C   0  0  0  0  0  0  0  0  0  0  0  0
  -28.1438  -12.1540   18.7091 C   0  0  0  0  0  0  0  0  0  0  0  0
  -30.4865  -12.7214   19.4761 C   0  0  0  0  0  0  0  0  0  0  0  0
  -28.5698  -13.4011   20.8683 C   0  0  0  0  0  0  0  0  0  0  0  0
  -27.4545  -33.5389   22.4851 C   0  0  1  0  0  0  0  0  0  0  0  0
  -29.5383  -34.3866   19.4237 C   0  0  1  0  0  0  0  0  0  0  0  0
  -27.5984  -13.2082   19.6912 C   0  0  2  0  0  0  0  0  0  0  0  0
  -29.9692  -36.9886   12.1404 C   0  0  0  0  0  0  0  0  0  0  0  0
  -25.7499  -35.0324   16.8565 C   0  0  0  0  0  0  0  0  0  0  0  0
  -26.1598  -35.6402   14.4626 C   0  0  0  0  0  0  0  0  0  0  0  0
  -26.5466  -37.3266   16.2595 C   0  0  0  0  0  0  0  0  0  0  0  0
  -32.7959  -35.4603   14.1776 C   0  0  0  0  0  0  0  0  0  0  0  0
  -30.6732  -17.0311   21.9167 C   0  0  0  0  0  0  0  0  0  0  0  0
  -29.4954  -21.3793   18.2929 C   0  0  0  0  0  0  0  0  0  0  0  0
  -30.4065  -26.1053   17.5515 C   0  0  0  0  0  0  0  0  0  0  0  0
  -30.6252  -24.8814   18.4341 C   0  0  0  0  0  0  0  0  0  0  0  0
  -31.0923  -27.3394   18.1226 C   0  0  0  0  0  0  0  0  0  1  0  0
  -29.9045  -23.6576   17.8866 C   0  0  0  0  0  0  0  0  0  0  0  0
  -28.1593  -35.3965   16.0033 C   0  0  1  0  0  0  0  0  0  0  0  0
  -30.6767  -36.5352   13.4079 C   0  0  2  0  0  0  0  0  0  0  0  0
  -26.6686  -35.8279   15.9078 C   0  0  0  0  0  0  0  0  0  0  0  0
  -25.8504  -11.5720   20.2828 N   0  0  0  0  0  0  0  0  0  0  0  0
  -26.1963  -12.8647   20.1593 N   0  0  0  0  0  0  0  0  0  0  0  0
  -29.1810  -34.3586   18.0040 N   0  0  0  0  0  0  0  0  0  0  0  0
  -29.9128  -13.7328   20.3671 N   0  0  0  0  0  0  0  0  0  0  0  0
  -25.3772  -15.0722   20.4178 N   0  0  0  0  0  0  0  0  0  0  0  0
  -21.8541  -12.5080   21.6046 N   0  0  0  0  0  0  0  0  0  0  0  0
  -28.4903  -33.9475   21.5607 N   0  0  0  0  0  0  0  0  0  0  0  0
  -29.0567  -36.1516   15.1356 N   0  0  0  0  0  0  0  0  0  0  0  0
  -30.0370  -15.7955   21.5175 N   0  0  0  0  0  0  0  0  0  0  0  0
  -31.9835  -35.9294   13.0256 N   0  3  0  0  0  0  0  0  0  0  0  0
  -22.5781  -14.6669   21.3327 O   0  0  0  0  0  0  0  0  0  0  0  0
  -27.3353  -33.5513   19.5779 O   0  0  0  0  0  0  0  0  0  0  0  0
  -28.7275  -36.6447   17.9386 O   0  0  0  0  0  0  0  0  0  0  0  0
  -29.8679  -34.3260   13.9582 O   0  0  0  0  0  0  0  0  0  0  0  0
  -31.7877  -15.0892   20.2164 O   0  0  0  0  0  0  0  0  0  0  0  0
  -21.7140   -6.9395   21.6896 O   0  0  0  0  0  0  0  0  0  0  0  0
  -30.8474  -28.4637   17.2786 O   0  0  0  0  0  0  0  0  0  1  0  0
  -30.1594  -22.5527   18.7429 O   0  0  0  0  0  0  0  0  0  0  0  0
  -16.5509   -6.6396   19.7773 F   0  0  0  0  0  0  0  0  0  0  0  0
  -20.9798   -4.9730   19.8906 F   0  0  0  0  0  0  0  0  0  0  0  0
  1  2  1  0  0  0  0
  1  5  2  0  0  0  0
  2  6  2  0  0  0  0
  3 12  2  0  0  0  0
  3 19  1  0  0  0  0
  4 13  1  0  0  0  0
  4 19  2  0  0  0  0
  5 21  1  0  0  0  0
  6 23  1  0  0  0  0
  7 14  2  0  0  0  0
  7 22  1  0  0  0  0
  8 10  2  0  0  0  0
  8 25  1  0  0  0  0
  9 11  1  0  0  0  0
  9 25  2  0  0  0  0
 10 26  1  0  0  0  0
 11 26  2  0  0  0  0
 12 27  1  0  0  0  0
 13 27  2  0  0  0  0
 14 28  1  0  0  0  0
 15 16  2  0  0  0  0
 15 29  1  0  0  0  0
 16 30  1  0  0  0  0
 17 24  1  0  0  0  0
 17 28  2  0  0  0  0
 18 30  2  0  0  0  0
 18 31  1  0  0  0  0
 19 32  1  0  0  0  0
 20 32  1  0  0  0  0
 20 33  2  0  0  0  0
 20 34  1  0  0  0  0
 21 23  2  0  0  0  0
 21 39  1  0  0  0  0
 22 24  2  0  0  0  0
 22 40  1  0  0  0  0
 23 48  1  0  0  0  0
 24 41  1  0  0  0  0
 25 56  1  0  0  0  0
 26 57  1  0  0  0  0
 27 80  1  0  0  0  0
 28 81  1  0  0  0  0
 29 31  2  0  0  0  0
 29 80  1  0  0  0  0
 30 83  1  0  0  0  0
 31 84  1  0  0  0  0
 32 65  2  0  0  0  0
 33 66  1  0  0  0  0
 33 69  1  0  0  0  0
 34 70  1  0  0  0  0
 34 75  2  0  0  0  0
 35 49  1  0  0  0  0
 35 71  1  0  0  0  0
 35 76  2  0  0  0  0
 36 62  1  0  0  0  0
 36 67  1  0  0  0  0
 36 77  2  0  0  0  0
 37 63  1  0  0  0  0
 37 72  1  0  0  0  0
 37 78  2  0  0  0  0
 38 68  1  0  0  0  0
 38 73  1  0  0  0  0
 38 79  2  0  0  0  0
 39 42  1  0  0  0  0
 40 49  1  0  0  0  0
 41 67  1  0  0  0  0
 42 44  1  0  0  0  0
 43 45  1  0  0  0  0
 43 46  1  0  0  0  0
 44 48  1  0  0  0  0
 45 50  1  0  0  0  0
 46 68  1  0  0  0  0
 47 50  1  0  0  0  0
 47 68  1  0  0  0  0
 48 71  1  0  0  0  0
 49 67  1  0  0  0  0
 50 66  1  0  0  0  0
 51 63  1  0  0  0  0
 52 64  1  0  0  0  0
 53 64  1  0  0  0  0
 54 64  1  0  0  0  0
 55 74  1  0  0  0  0
 56 73  1  0  0  0  0
 57 82  1  0  0  0  0
 58 59  1  0  0  0  0
 58 60  1  0  0  0  0
 59 61  1  0  0  0  0
 60 81  1  0  0  0  0
 61 82  1  0  0  0  0
 62 64  1  0  0  0  0
 62 72  1  0  0  0  0
 63 74  1  0  0  0  0
 65 66  1  0  0  0  0
M  CHG  1  74   1
M  ISO  4  38 100  60 101  73 100  81 101
M  END
> <Batch ID>
0002

> <Smiles>
CNC(C)C(=O)NC(C(=O)N1Cc2cc([101O:1][101CH2:1]CCCOCc3ccc(C[100NH:0][100C:0](=O)N4CCCC(n5nc(-c6ccc(Oc7ccc(F)cc7F)cc6)c(C(N)=O)c5N)C4)cc3)ccc2CC1C(=O)NC1CCCc2ccccc21)C(C)(C)C

> <Shape>
0.238

> <Color>
0.199

> <Negative vol penalty>
0.000

$$$$

  -OEChem-04052315183D

 82 90  0     1  0  0  0  0  0999 V2000
  -29.7420  -11.9303   19.7450 C   0  0  0  0  0  0  0  0  0  0  0  0
  -29.8220  -13.1057   20.4851 C   0  0  0  0  0  0  0  0  0  0  0  0
  -34.2841  -21.9332   25.3123 C   0  0  0  0  0  0  0  0  0  0  0  0
  -26.1778  -28.1054   18.8650 C   0  0  0  0  0  0  0  0  0  0  0  0
  -26.4570  -28.0505   21.2642 C   0  0  0  0  0  0  0  0  0  0  0  0
  -28.7100  -11.7570   18.8237 C   0  0  0  0  0  0  0  0  0  0  0  0
  -28.8707  -14.1088   20.3033 C   0  0  0  0  0  0  0  0  0  0  0  0
  -27.2011  -16.0198   24.6857 C   0  0  0  0  0  0  0  0  0  0  0  0
  -33.0634  -21.3580   25.6654 C   0  0  0  0  0  0  0  0  0  0  0  0
  -25.2374  -29.1269   18.9978 C   0  0  0  0  0  0  0  0  0  0  0  0
  -25.5166  -29.0720   21.3970 C   0  0  0  0  0  0  0  0  0  0  0  0
  -28.0283  -16.9327   25.3386 C   0  0  0  0  0  0  0  0  0  0  0  0
  -25.4222  -32.4308   21.0361 C   0  0  0  0  0  0  0  0  0  0  0  0
  -34.7437  -21.8426   23.9984 C   0  0  0  0  0  0  0  0  0  0  0  0
  -25.7252  -33.4797   21.9042 C   0  0  0  0  0  0  0  0  0  0  0  0
  -26.7018  -18.7491   24.4668 C   0  0  0  0  0  0  0  0  0  0  0  0
  -23.7606  -32.9642   23.2126 C   0  0  0  0  0  0  0  0  0  0  0  0
  -26.7876  -27.5671   19.9982 C   0  0  0  0  0  0  0  0  0  0  0  0
  -29.1505  -26.6520   19.7031 C   0  0  0  0  0  0  0  0  0  0  0  0
  -27.7400  -12.7545   18.6375 C   0  0  0  0  0  0  0  0  0  0  0  0
  -26.1227  -16.4660   23.9083 C   0  0  0  0  0  0  0  0  0  0  0  0
  -27.8255  -13.9492   19.3776 C   0  0  0  0  0  0  0  0  0  0  0  0
  -25.8608  -17.8398   23.8072 C   0  0  0  0  0  0  0  0  0  0  0  0
  -32.7621  -20.6014   23.3908 C   0  0  0  0  0  0  0  0  0  0  0  0
  -24.9068  -29.6103   20.2638 C   0  0  0  0  0  0  0  0  0  0  0  0
  -27.7805  -18.2976   25.2269 C   0  0  0  0  0  0  0  0  0  0  0  0
  -32.3024  -20.6920   24.7046 C   0  0  0  0  0  0  0  0  0  0  0  0
  -24.2883  -31.6487   21.2561 C   0  0  0  0  0  0  0  0  0  0  0  0
  -24.8944  -33.7463   22.9925 C   0  0  0  0  0  0  0  0  0  0  0  0
  -33.9827  -21.1767   23.0377 C   0  0  0  0  0  0  0  0  0  0  0  0
  -23.4576  -31.9154   22.3444 C   0  0  0  0  0  0  0  0  0  0  0  0
  -27.7587  -26.5115   19.8617 C   0  0  0  0  0  0  0  0  0  0  0  0
  -29.6184  -25.3633   19.6200 C   0  0  0  0  0  0  0  0  0  0  0  0
  -29.9489  -27.8410   19.6370 C   0  0  0  0  0  0  0  0  0  0  0  0
  -25.3298  -16.2497   20.8378 C   0  0  0  0  0  0  0  0  0  0  0  0
  -22.5799  -17.6396   21.8518 C   0  0  0  0  0  0  0  0  0  0  0  0
  -20.9949  -19.5664   24.1804 C   0  0  0  0  0  0  0  0  0  0  0  0
  -29.6683  -20.0786   21.4131 C   0  0  0  0  0  0  0  0  0  0  0  0
  -26.6702  -12.5414   17.5959 C   0  0  0  0  0  0  0  0  0  0  0  0
  -25.2237  -15.4675   23.2321 C   0  0  0  0  0  0  0  0  0  0  0  0
  -24.7038  -18.3694   23.0014 C   0  0  0  0  0  0  0  0  0  0  0  0
  -25.4876  -13.4967   17.7332 C   0  0  0  0  0  0  0  0  0  0  0  0
  -27.1376  -20.9884   19.0797 C   0  0  0  0  0  0  0  0  0  0  0  0
  -25.9774  -14.9268   17.9373 C   0  0  0  0  0  0  0  0  0  0  0  0
  -27.1844  -22.5173   19.0669 C   0  0  0  0  0  0  0  0  0  0  0  0
  -27.4022  -20.4272   20.4751 C   0  0  0  0  0  0  0  0  0  0  0  0
  -28.6924  -22.4331   21.0961 C   0  0  0  0  0  0  0  0  0  0  0  0
  -26.7983  -15.0501   19.2267 C   0  0  1  0  0  0  0  0  0  0  0  0
  -24.4615  -16.0552   22.0485 C   0  0  1  0  0  0  0  0  0  0  0  0
  -28.4868  -23.0437   19.6992 C   0  0  2  0  0  0  0  0  0  0  0  0
  -18.7551  -20.5613   24.7196 C   0  0  0  0  0  0  0  0  0  0  0  0
  -23.0110  -19.7665   19.7070 C   0  0  0  0  0  0  0  0  0  0  0  0
  -21.3318  -21.1990   20.8887 C   0  0  0  0  0  0  0  0  0  0  0  0
  -20.6450  -18.9929   19.9484 C   0  0  0  0  0  0  0  0  0  0  0  0
  -20.8171  -18.0754   26.7307 C   0  0  0  0  0  0  0  0  0  0  0  0
  -31.9581  -19.8916   22.3518 C   0  0  0  0  0  0  0  0  0  0  0  0
  -28.7430  -20.4722   25.2543 C   0  0  0  0  0  0  0  0  0  1  0  0
  -30.1187  -21.0150   25.5895 C   0  0  0  0  0  0  0  0  0  0  0  0
  -22.0978  -19.0606   22.0165 C   0  0  1  0  0  0  0  0  0  0  0  0
  -19.6848  -19.3752   24.9231 C   0  0  2  0  0  0  0  0  0  0  0  0
  -21.7944  -19.7452   20.6538 C   0  0  0  0  0  0  0  0  0  0  0  0
  -27.3680  -25.2343   19.8784 N   0  0  0  0  0  0  0  0  0  0  0  0
  -28.5212  -24.5606   19.7292 N   0  0  0  0  0  0  0  0  0  0  0  0
  -23.8574  -17.3537   22.3538 N   0  0  0  0  0  0  0  0  0  0  0  0
  -28.6525  -20.9644   21.0174 N   0  0  0  0  0  0  0  0  0  0  0  0
  -30.8572  -24.8499   19.4648 N   0  0  0  0  0  0  0  0  0  0  0  0
  -29.3076  -29.0830   19.7393 N   0  0  0  0  0  0  0  0  0  0  0  0
  -25.9249  -15.0896   20.3800 N   0  0  0  0  0  0  0  0  0  0  0  0
  -20.9561  -19.0019   22.9229 N   0  0  0  0  0  0  0  0  0  0  0  0
  -30.8229  -20.6708   21.9101 N   0  0  0  0  0  0  0  0  0  0  0  0
  -19.9355  -19.2198   26.3839 N   0  3  0  0  0  0  0  0  0  0  0  0
  -31.1922  -27.8036   19.4750 O   0  0  0  0  0  0  0  0  0  0  0  0
  -25.4498  -17.3691   20.3538 O   0  0  0  0  0  0  0  0  0  0  0  0
  -21.8470  -16.8119   21.3046 O   0  0  0  0  0  0  0  0  0  0  0  0
  -21.9551  -20.1605   24.6656 O   0  0  0  0  0  0  0  0  0  0  0  0
  -29.5568  -18.8512   21.3246 O   0  0  0  0  0  0  0  0  0  0  0  0
  -23.9893  -30.6072   20.3938 O   0  0  0  0  0  0  0  0  0  0  0  0
  -28.5868  -19.1908   25.8625 O   0  0  0  0  0  0  0  0  0  1  0  0
  -31.1057  -20.1330   25.0687 O   0  0  0  0  0  0  0  0  0  0  0  0
  -25.1863  -34.7526   23.8270 F   0  0  0  0  0  0  0  0  0  0  0  0
  -34.4334  -21.0949   21.7779 F   0  0  0  0  0  0  0  0  0  0  0  0
  -22.3676  -31.1667   22.5616 F   0  0  0  0  0  0  0  0  0  0  0  0
  1  2  1  0  0  0  0
  1  6  2  0  0  0  0
  2  7  2  0  0  0  0
  3  9  2  0  0  0  0
  3 14  1  0  0  0  0
  4 10  2  0  0  0  0
  4 18  1  0  0  0  0
  5 11  1  0  0  0  0
  5 18  2  0  0  0  0
  6 20  1  0  0  0  0
  7 22  1  0  0  0  0
  8 12  2  0  0  0  0
  8 21  1  0  0  0  0
  9 27  1  0  0  0  0
 10 25  1  0  0  0  0
 11 25  2  0  0  0  0
 12 26  1  0  0  0  0
 13 15  2  0  0  0  0
 13 28  1  0  0  0  0
 14 30  2  0  0  0  0
 15 29  1  0  0  0  0
 16 23  1  0  0  0  0
 16 26  2  0  0  0  0
 17 29  2  0  0  0  0
 17 31  1  0  0  0  0
 18 32  1  0  0  0  0
 19 32  1  0  0  0  0
 19 33  2  0  0  0  0
 19 34  1  0  0  0  0
 20 22  2  0  0  0  0
 20 39  1  0  0  0  0
 21 23  2  0  0  0  0
 21 40  1  0  0  0  0
 22 48  1  0  0  0  0
 23 41  1  0  0  0  0
 24 27  2  0  0  0  0
 24 30  1  0  0  0  0
 24 56  1  0  0  0  0
 25 77  1  0  0  0  0
 26 78  1  0  0  0  0
 27 79  1  0  0  0  0
 28 31  2  0  0  0  0
 28 77  1  0  0  0  0
 29 80  1  0  0  0  0
 30 81  1  0  0  0  0
 31 82  1  0  0  0  0
 32 62  2  0  0  0  0
 33 63  1  0  0  0  0
 33 66  1  0  0  0  0
 34 67  1  0  0  0  0
 34 72  2  0  0  0  0
 35 49  1  0  0  0  0
 35 68  1  0  0  0  0
 35 73  2  0  0  0  0
 36 59  1  0  0  0  0
 36 64  1  0  0  0  0
 36 74  2  0  0  0  0
 37 60  1  0  0  0  0
 37 69  1  0  0  0  0
 37 75  2  0  0  0  0
 38 65  1  0  0  0  0
 38 70  1  0  0  0  0
 38 76  2  0  0  0  0
 39 42  1  0  0  0  0
 40 49  1  0  0  0  0
 41 64  1  0  0  0  0
 42 44  1  0  0  0  0
 43 45  1  0  0  0  0
 43 46  1  0  0  0  0
 44 48  1  0  0  0  0
 45 50  1  0  0  0  0
 46 65  1  0  0  0  0
 47 50  1  0  0  0  0
 47 65  1  0  0  0  0
 48 68  1  0  0  0  0
 49 64  1  0  0  0  0
 50 63  1  0  0  0  0
 51 60  1  0  0  0  0
 52 61  1  0  0  0  0
 53 61  1  0  0  0  0
 54 61  1  0  0  0  0
 55 71  1  0  0  0  0
 56 70  1  0  0  0  0
 57 58  1  0  0  0  0
 57 78  1  0  0  0  0
 58 79  1  0  0  0  0
 59 61  1  0  0  0  0
 59 69  1  0  0  0  0
 60 71  1  0  0  0  0
 62 63  1  0  0  0  0
M  CHG  1  71   1
M  ISO  4  38 100  57 101  70 100  78 101
M  END
> <Batch ID>
0002

> <Smiles>
CNC(C)C(=O)NC(C(=O)N1Cc2cc([101O:1][101CH2:1]COc3cccc(F)c3C[100NH:0][100C:0](=O)N3CCCC(n4nc(-c5ccc(Oc6ccc(F)cc6F)cc5)c(C(N)=O)c4N)C3)ccc2CC1C(=O)NC1CCCc2ccccc21)C(C)(C)C

> <Shape>
0.188

> <Color>
0.066

> <Negative vol penalty>
0.000

$$$$

  -OEChem-04052315183D

 81 88  0     1  0  0  0  0  0999 V2000
  -24.3911  -22.6272   18.9266 C   0  0  0  0  0  0  0  0  0  0  0  0
  -23.5201  -23.6814   19.1824 C   0  0  0  0  0  0  0  0  0  0  0  0
  -24.6059  -13.9931   21.7486 C   0  0  0  0  0  0  0  0  0  0  0  0
  -23.0820  -14.9024   20.1091 C   0  0  0  0  0  0  0  0  0  0  0  0
  -25.5645  -22.4982   19.6686 C   0  0  0  0  0  0  0  0  0  0  0  0
  -23.8215  -24.6067   20.1811 C   0  0  0  0  0  0  0  0  0  0  0  0
  -23.0236  -29.3854   18.7071 C   0  0  0  0  0  0  0  0  0  0  0  0
  -24.4570  -12.7262   21.1844 C   0  0  0  0  0  0  0  0  0  0  0  0
  -22.9332  -13.6354   19.5448 C   0  0  0  0  0  0  0  0  0  0  0  0
  -21.7046  -29.8367   18.6970 C   0  0  0  0  0  0  0  0  0  0  0  0
  -24.1982   -9.1854   20.3973 C   0  0  0  0  0  0  0  0  0  0  0  0
  -24.0096   -8.1070   21.2616 C   0  0  0  0  0  0  0  0  0  0  0  0
  -22.0723  -30.9404   20.8102 C   0  0  0  0  0  0  0  0  0  0  0  0
  -21.9988   -9.1410   22.1129 C   0  0  0  0  0  0  0  0  0  0  0  0
  -23.9184  -15.0812   21.2110 C   0  0  0  0  0  0  0  0  0  0  0  0
  -25.0242  -17.3677   21.4499 C   0  0  0  0  0  0  0  0  0  0  0  0
  -25.8851  -23.4279   20.6704 C   0  0  0  0  0  0  0  0  0  0  0  0
  -23.8752  -29.6995   19.7760 C   0  0  0  0  0  0  0  0  0  0  0  0
  -24.9995  -24.4893   20.9381 C   0  0  0  0  0  0  0  0  0  0  0  0
  -23.4025  -30.4940   20.8303 C   0  0  0  0  0  0  0  0  0  0  0  0
  -23.6207  -12.5473   20.0825 C   0  0  0  0  0  0  0  0  0  0  0  0
  -21.2279  -30.6120   19.7500 C   0  0  0  0  0  0  0  0  0  0  0  0
  -23.2872  -10.2417   20.3908 C   0  0  0  0  0  0  0  0  0  0  0  0
  -22.9099   -8.0848   22.1194 C   0  0  0  0  0  0  0  0  0  0  0  0
  -22.1875  -10.2194   21.2486 C   0  0  0  0  0  0  0  0  0  0  0  0
  -24.0713  -16.3901   21.7937 C   0  0  0  0  0  0  0  0  0  0  0  0
  -24.7516  -18.4221   22.2867 C   0  0  0  0  0  0  0  0  0  0  0  0
  -26.0627  -17.3263   20.4623 C   0  0  0  0  0  0  0  0  0  0  0  0
  -25.4473  -28.0110   21.9626 C   0  0  0  0  0  0  0  0  0  0  0  0
  -26.6923  -30.9045   22.7374 C   0  0  0  0  0  0  0  0  0  0  0  0
  -19.1170  -28.1494   22.1078 C   0  0  0  0  0  0  0  0  0  0  0  0
  -26.3631  -34.3012   22.7113 C   0  0  0  0  0  0  0  0  0  0  0  0
  -21.1157  -21.8573   24.7617 C   0  0  0  0  0  0  0  0  0  0  0  0
  -27.1417  -23.2202   21.4782 C   0  0  0  0  0  0  0  0  0  0  0  0
  -25.3032  -29.2273   19.7590 C   0  0  0  0  0  0  0  0  0  0  0  0
  -24.2823  -30.8760   21.9915 C   0  0  0  0  0  0  0  0  0  0  0  0
  -27.5711  -24.4558   22.2652 C   0  0  0  0  0  0  0  0  0  0  0  0
  -21.7266  -18.7198   26.3299 C   0  0  0  0  0  0  0  0  0  0  0  0
  -26.3771  -25.0682   22.9907 C   0  0  0  0  0  0  0  0  0  0  0  0
  -22.4637  -17.9131   25.2594 C   0  0  0  0  0  0  0  0  0  0  0  0
  -20.6545  -19.6200   25.7198 C   0  0  0  0  0  0  0  0  0  0  0  0
  -21.8694  -19.7066   23.5774 C   0  0  0  0  0  0  0  0  0  0  0  0
  -25.3037  -25.5273   21.9965 C   0  0  1  0  0  0  0  0  0  0  0  0
  -25.9323  -29.1766   21.1479 C   0  0  1  0  0  0  0  0  0  0  0  0
  -22.9983  -18.8253   24.1389 C   0  0  2  0  0  0  0  0  0  0  0  0
  -27.5244  -36.3986   23.4525 C   0  0  0  0  0  0  0  0  0  0  0  0
  -25.8087  -30.3759   25.6096 C   0  0  0  0  0  0  0  0  0  0  0  0
  -26.1168  -32.8156   26.0797 C   0  0  0  0  0  0  0  0  0  0  0  0
  -28.0687  -31.4240   25.3896 C   0  0  0  0  0  0  0  0  0  0  0  0
  -26.6034  -35.2887   19.9317 C   0  0  0  0  0  0  0  0  0  0  0  0
  -19.2073  -26.6321   22.1305 C   0  0  0  0  0  0  0  0  0  0  0  0
  -20.4144  -26.0978   22.9010 C   0  0  0  0  0  0  0  0  0  0  0  0
  -20.4330  -24.5654   22.9632 C   0  0  0  0  0  0  0  0  0  0  0  0
  -17.6314  -30.4016   19.7746 C   0  0  0  0  0  0  0  0  0  0  0  0
  -21.6640  -24.0247   23.6843 C   0  0  0  0  0  0  0  0  0  0  0  0
  -17.6634  -29.9776   21.2367 C   0  0  0  0  0  0  0  0  0  0  0  0
  -18.9774  -30.2357   19.0796 C   0  0  0  0  0  0  0  0  0  1  0  0
  -26.3036  -32.0180   23.6797 C   0  0  1  0  0  0  0  0  0  0  0  0
  -27.3297  -35.4039   22.3187 C   0  0  2  0  0  0  0  0  0  0  0  0
  -26.5570  -31.6497   25.1688 C   0  0  0  0  0  0  0  0  0  0  0  0
  -23.2545  -16.7880   22.7727 N   0  0  0  0  0  0  0  0  0  0  0  0
  -23.6935  -18.0273   23.0514 N   0  0  0  0  0  0  0  0  0  0  0  0
  -25.6689  -30.3848   21.9321 N   0  0  0  0  0  0  0  0  0  0  0  0
  -21.2269  -20.4604   24.6653 N   0  0  0  0  0  0  0  0  0  0  0  0
  -25.3163  -19.6392   22.4358 N   0  0  0  0  0  0  0  0  0  0  0  0
  -26.2036  -16.1659   19.6890 N   0  0  0  0  0  0  0  0  0  0  0  0
  -25.6868  -26.7802   21.3819 N   0  0  0  0  0  0  0  0  0  0  0  0
  -18.0049  -28.5913   21.3967 N   0  0  0  0  0  0  0  0  0  0  0  0
  -27.0212  -33.2049   23.2272 N   0  0  0  0  0  0  0  0  0  0  0  0
  -21.6911  -22.5796   23.7234 N   0  0  0  0  0  0  0  0  0  0  0  0
  -26.8185  -36.1415   21.1289 N   0  3  0  0  0  0  0  0  0  0  0  0
  -26.8532  -18.2836   20.2825 O   0  0  0  0  0  0  0  0  0  0  0  0
  -24.8979  -28.2133   23.0391 O   0  0  0  0  0  0  0  0  0  0  0  0
  -27.8625  -30.5151   22.7115 O   0  0  0  0  0  0  0  0  0  0  0  0
  -19.9256  -28.8799   22.6739 O   0  0  0  0  0  0  0  0  0  0  0  0
  -25.1456  -34.4037   22.5773 O   0  0  0  0  0  0  0  0  0  0  0  0
  -20.5506  -22.4194   25.7059 O   0  0  0  0  0  0  0  0  0  0  0  0
  -23.4754  -11.3113   19.5316 O   0  0  0  0  0  0  0  0  0  0  0  0
  -19.9406  -31.0533   19.7429 O   0  0  0  0  0  0  0  0  0  1  0  0
  -22.7281   -7.0484   22.9482 F   0  0  0  0  0  0  0  0  0  0  0  0
  -21.3082  -11.2307   21.2461 F   0  0  0  0  0  0  0  0  0  0  0  0
  1  2  1  0  0  0  0
  1  5  2  0  0  0  0
  2  6  2  0  0  0  0
  3  8  2  0  0  0  0
  3 15  1  0  0  0  0
  4  9  1  0  0  0  0
  4 15  2  0  0  0  0
  5 17  1  0  0  0  0
  6 19  1  0  0  0  0
  7 10  2  0  0  0  0
  7 18  1  0  0  0  0
  8 21  1  0  0  0  0
  9 21  2  0  0  0  0
 10 22  1  0  0  0  0
 11 12  2  0  0  0  0
 11 23  1  0  0  0  0
 12 24  1  0  0  0  0
 13 20  1  0  0  0  0
 13 22  2  0  0  0  0
 14 24  2  0  0  0  0
 14 25  1  0  0  0  0
 15 26  1  0  0  0  0
 16 26  1  0  0  0  0
 16 27  2  0  0  0  0
 16 28  1  0  0  0  0
 17 19  2  0  0  0  0
 17 34  1  0  0  0  0
 18 20  2  0  0  0  0
 18 35  1  0  0  0  0
 19 43  1  0  0  0  0
 20 36  1  0  0  0  0
 21 78  1  0  0  0  0
 22 79  1  0  0  0  0
 23 25  2  0  0  0  0
 23 78  1  0  0  0  0
 24 80  1  0  0  0  0
 25 81  1  0  0  0  0
 26 61  2  0  0  0  0
 27 62  1  0  0  0  0
 27 65  1  0  0  0  0
 28 66  1  0  0  0  0
 28 72  2  0  0  0  0
 29 44  1  0  0  0  0
 29 67  1  0  0  0  0
 29 73  2  0  0  0  0
 30 58  1  0  0  0  0
 30 63  1  0  0  0  0
 30 74  2  0  0  0  0
 31 51  1  0  0  0  0
 31 68  1  0  0  0  0
 31 75  2  0  0  0  0
 32 59  1  0  0  0  0
 32 69  1  0  0  0  0
 32 76  2  0  0  0  0
 33 64  1  0  0  0  0
 33 70  1  0  0  0  0
 33 77  2  0  0  0  0
 34 37  1  0  0  0  0
 35 44  1  0  0  0  0
 36 63  1  0  0  0  0
 37 39  1  0  0  0  0
 38 40  1  0  0  0  0
 38 41  1  0  0  0  0
 39 43  1  0  0  0  0
 40 45  1  0  0  0  0
 41 64  1  0  0  0  0
 42 45  1  0  0  0  0
 42 64  1  0  0  0  0
 43 67  1  0  0  0  0
 44 63  1  0  0  0  0
 45 62  1  0  0  0  0
 46 59  1  0  0  0  0
 47 60  1  0  0  0  0
 48 60  1  0  0  0  0
 49 60  1  0  0  0  0
 50 71  1  0  0  0  0
 51 52  1  0  0  0  0
 52 53  1  0  0  0  0
 53 55  1  0  0  0  0
 54 56  1  0  0  0  0
 54 57  1  0  0  0  0
 55 70  1  0  0  0  0
 56 68  1  0  0  0  0
 57 79  1  0  0  0  0
 58 60  1  0  0  0  0
 58 69  1  0  0  0  0
 59 71  1  0  0  0  0
 61 62  1  0  0  0  0
M  CHG  1  71   1
M  ISO  4  33 100  57 101  70 100  79 101
M  END
> <Batch ID>
0002

> <Smiles>
CNC(C)C(=O)NC(C(=O)N1Cc2cc([101O:1][101CH2:1]CCNC(=O)CCCC[100NH:0][100C:0](=O)N3CCCC(n4nc(-c5ccc(Oc6ccc(F)cc6F)cc5)c(C(N)=O)c4N)C3)ccc2CC1C(=O)NC1CCCc2ccccc21)C(C)(C)C

> <Shape>
0.209

> <Color>
0.063

> <Negative vol penalty>
0.000

$$$$

  -OEChem-04052315183D

 81 89  0     1  0  0  0  0  0999 V2000
  -20.2216  -31.0998   21.4600 C   0  0  0  0  0  0  0  0  0  0  0  0
  -21.5008  -30.5660   21.5786 C   0  0  0  0  0  0  0  0  0  0  0  0
  -32.5832  -21.6695   17.2619 C   0  0  0  0  0  0  0  0  0  0  0  0
  -26.4571  -12.3297   21.5605 C   0  0  0  0  0  0  0  0  0  0  0  0
  -25.5108  -13.7965   19.8902 C   0  0  0  0  0  0  0  0  0  0  0  0
  -19.1076  -30.2989   21.7078 C   0  0  0  0  0  0  0  0  0  0  0  0
  -21.6668  -29.2312   21.9462 C   0  0  0  0  0  0  0  0  0  0  0  0
  -25.1228  -26.8507   19.1118 C   0  0  0  0  0  0  0  0  0  0  0  0
  -32.5687  -23.0206   17.6081 C   0  0  0  0  0  0  0  0  0  0  0  0
  -32.1515  -20.7101   18.1778 C   0  0  0  0  0  0  0  0  0  0  0  0
  -25.2875  -11.5696   21.5557 C   0  0  0  0  0  0  0  0  0  0  0  0
  -24.3413  -13.0365   19.8853 C   0  0  0  0  0  0  0  0  0  0  0  0
  -26.4639  -27.0913   19.4074 C   0  0  0  0  0  0  0  0  0  0  0  0
  -20.9691  -11.6942   19.6945 C   0  0  0  0  0  0  0  0  0  0  0  0
  -19.7525  -12.3762   19.7175 C   0  0  0  0  0  0  0  0  0  0  0  0
  -26.5640  -25.0086   20.6204 C   0  0  0  0  0  0  0  0  0  0  0  0
  -31.6909  -22.4530   19.7863 C   0  0  0  0  0  0  0  0  0  0  0  0
  -20.3592  -13.3873   21.8262 C   0  0  0  0  0  0  0  0  0  0  0  0
  -26.5687  -13.4432   20.7278 C   0  0  0  0  0  0  0  0  0  0  0  0
  -28.9145  -14.0438   19.9252 C   0  0  0  0  0  0  0  0  0  0  0  0
  -19.2597  -28.9510   22.0693 C   0  0  0  0  0  0  0  0  0  0  0  0
  -24.4882  -25.6905   19.5784 C   0  0  0  0  0  0  0  0  0  0  0  0
  -20.5538  -28.4119   22.2005 C   0  0  0  0  0  0  0  0  0  0  0  0
  -25.2155  -24.7544   20.3272 C   0  0  0  0  0  0  0  0  0  0  0  0
  -32.1225  -23.4124   18.8703 C   0  0  0  0  0  0  0  0  0  0  0  0
  -31.7054  -21.1019   19.4400 C   0  0  0  0  0  0  0  0  0  0  0  0
  -24.2296  -11.9230   20.7180 C   0  0  0  0  0  0  0  0  0  0  0  0
  -27.1840  -26.1716   20.1642 C   0  0  0  0  0  0  0  0  0  0  0  0
  -21.8806  -11.8586   20.7375 C   0  0  0  0  0  0  0  0  0  0  0  0
  -19.4476  -13.2227   20.7833 C   0  0  0  0  0  0  0  0  0  0  0  0
  -21.5757  -12.7052   21.8033 C   0  0  0  0  0  0  0  0  0  0  0  0
  -27.7764  -14.2290   20.7328 C   0  0  0  0  0  0  0  0  0  0  0  0
  -29.7760  -15.0412   20.3119 C   0  0  0  0  0  0  0  0  0  0  0  0
  -29.1701  -13.0584   18.9156 C   0  0  0  0  0  0  0  0  0  0  0  0
  -22.0369  -25.0982   21.5133 C   0  0  0  0  0  0  0  0  0  0  0  0
  -22.5375  -22.0346   20.5718 C   0  0  0  0  0  0  0  0  0  0  0  0
  -24.6968  -19.7008   19.3319 C   0  0  0  0  0  0  0  0  0  0  0  0
  -30.7932  -20.3461   21.6633 C   0  0  0  0  0  0  0  0  0  0  0  0
  -18.0268  -28.1374   22.3733 C   0  0  0  0  0  0  0  0  0  0  0  0
  -23.0483  -25.4328   19.2283 C   0  0  0  0  0  0  0  0  0  0  0  0
  -24.5862  -23.4835   20.8346 C   0  0  0  0  0  0  0  0  0  0  0  0
  -18.2800  -26.6321   22.3933 C   0  0  0  0  0  0  0  0  0  0  0  0
  -29.5831  -18.2176   24.2483 C   0  0  0  0  0  0  0  0  0  0  0  0
  -19.5345  -26.3125   23.2001 C   0  0  0  0  0  0  0  0  0  0  0  0
  -29.0988  -16.9749   23.4977 C   0  0  0  0  0  0  0  0  0  0  0  0
  -29.3048  -19.4984   23.4636 C   0  0  0  0  0  0  0  0  0  0  0  0
  -29.3242  -18.2607   21.3337 C   0  0  0  0  0  0  0  0  0  0  0  0
  -20.7741  -26.9618   22.5730 C   0  0  1  0  0  0  0  0  0  0  0  0
  -22.3634  -24.4663   20.1897 C   0  0  1  0  0  0  0  0  0  0  0  0
  -29.6412  -16.9407   22.0554 C   0  0  2  0  0  0  0  0  0  0  0  0
  -24.8282  -17.2742   18.7062 C   0  0  0  0  0  0  0  0  0  0  0  0
  -22.6908  -21.2840   23.5253 C   0  0  0  0  0  0  0  0  0  0  0  0
  -23.7436  -19.1158   22.8479 C   0  0  0  0  0  0  0  0  0  0  0  0
  -21.4272  -19.6625   22.1011 C   0  0  0  0  0  0  0  0  0  0  0  0
  -25.3205  -20.3423   16.5108 C   0  0  0  0  0  0  0  0  0  0  0  0
  -32.1071  -24.8660   19.2422 C   0  0  0  0  0  0  0  0  0  0  0  0
  -29.2439  -27.1614   19.5065 C   0  0  0  0  0  0  0  0  0  1  0  0
  -30.6930  -26.7169   19.5540 C   0  0  0  0  0  0  0  0  0  0  0  0
  -23.3835  -20.8878   21.0699 C   0  0  1  0  0  0  0  0  0  0  0  0
  -24.5489  -18.6854   18.2131 C   0  0  2  0  0  0  0  0  0  0  0  0
  -22.8229  -20.2623   22.3783 C   0  0  0  0  0  0  0  0  0  0  0  0
  -27.9006  -15.2627   21.5695 N   0  0  0  0  0  0  0  0  0  0  0  0
  -29.1269  -15.7359   21.2898 N   0  0  0  0  0  0  0  0  0  0  0  0
  -23.1741  -23.2798   20.4714 N   0  0  0  0  0  0  0  0  0  0  0  0
  -29.8510  -19.3950   22.1087 N   0  0  0  0  0  0  0  0  0  0  0  0
  -31.0178  -15.3830   19.9075 N   0  0  0  0  0  0  0  0  0  0  0  0
  -28.1772  -12.1072   18.6438 N   0  0  0  0  0  0  0  0  0  0  0  0
  -31.2663  -20.1271   20.3699 N   0  0  0  0  0  0  0  0  0  0  0  0
  -21.2135  -26.2040   21.4210 N   0  0  0  0  0  0  0  0  0  0  0  0
  -23.4940  -19.9492   19.9584 N   0  0  0  0  0  0  0  0  0  0  0  0
  -25.4979  -18.9927   17.1059 N   0  3  0  0  0  0  0  0  0  0  0  0
  -30.2535  -13.0123   18.2850 O   0  0  0  0  0  0  0  0  0  0  0  0
  -22.4968  -24.6171   22.5423 O   0  0  0  0  0  0  0  0  0  0  0  0
  -21.3574  -21.8315   20.2758 O   0  0  0  0  0  0  0  0  0  0  0  0
  -25.7726  -20.2188   19.6233 O   0  0  0  0  0  0  0  0  0  0  0  0
  -31.1742  -21.2701   22.3866 O   0  0  0  0  0  0  0  0  0  0  0  0
  -23.0883  -11.1814   20.7129 O   0  0  0  0  0  0  0  0  0  0  0  0
  -28.4929  -26.4043   20.4547 O   0  0  0  0  0  0  0  0  0  1  0  0
  -30.7678  -25.3391   19.2084 O   0  0  0  0  0  0  0  0  0  0  0  0
  -18.2800  -13.8788   20.8044 F   0  0  0  0  0  0  0  0  0  0  0  0
  -22.4479  -12.8681   22.8075 F   0  0  0  0  0  0  0  0  0  0  0  0
  1  2  1  0  0  0  0
  1  6  2  0  0  0  0
  2  7  2  0  0  0  0
  3  9  2  0  0  0  0
  3 10  1  0  0  0  0
  4 11  2  0  0  0  0
  4 19  1  0  0  0  0
  5 12  1  0  0  0  0
  5 19  2  0  0  0  0
  6 21  1  0  0  0  0
  7 23  1  0  0  0  0
  8 13  2  0  0  0  0
  8 22  1  0  0  0  0
  9 25  1  0  0  0  0
 10 26  2  0  0  0  0
 11 27  1  0  0  0  0
 12 27  2  0  0  0  0
 13 28  1  0  0  0  0
 14 15  2  0  0  0  0
 14 29  1  0  0  0  0
 15 30  1  0  0  0  0
 16 24  1  0  0  0  0
 16 28  2  0  0  0  0
 17 25  2  0  0  0  0
 17 26  1  0  0  0  0
 18 30  2  0  0  0  0
 18 31  1  0  0  0  0
 19 32  1  0  0  0  0
 20 32  1  0  0  0  0
 20 33  2  0  0  0  0
 20 34  1  0  0  0  0
 21 23  2  0  0  0  0
 21 39  1  0  0  0  0
 22 24  2  0  0  0  0
 22 40  1  0  0  0  0
 23 48  1  0  0  0  0
 24 41  1  0  0  0  0
 25 56  1  0  0  0  0
 26 68  1  0  0  0  0
 27 77  1  0  0  0  0
 28 78  1  0  0  0  0
 29 31  2  0  0  0  0
 29 77  1  0  0  0  0
 30 80  1  0  0  0  0
 31 81  1  0  0  0  0
 32 62  2  0  0  0  0
 33 63  1  0  0  0  0
 33 66  1  0  0  0  0
 34 67  1  0  0  0  0
 34 72  2  0  0  0  0
 35 49  1  0  0  0  0
 35 69  1  0  0  0  0
 35 73  2  0  0  0  0
 36 59  1  0  0  0  0
 36 64  1  0  0  0  0
 36 74  2  0  0  0  0
 37 60  1  0  0  0  0
 37 70  1  0  0  0  0
 37 75  2  0  0  0  0
 38 65  1  0  0  0  0
 38 68  1  0  0  0  0
 38 76  2  0  0  0  0
 39 42  1  0  0  0  0
 40 49  1  0  0  0  0
 41 64  1  0  0  0  0
 42 44  1  0  0  0  0
 43 45  1  0  0  0  0
 43 46  1  0  0  0  0
 44 48  1  0  0  0  0
 45 50  1  0  0  0  0
 46 65  1  0  0  0  0
 47 50  1  0  0  0  0
 47 65  1  0  0  0  0
 48 69  1  0  0  0  0
 49 64  1  0  0  0  0
 50 63  1  0  0  0  0
 51 60  1  0  0  0  0
 52 61  1  0  0  0  0
 53 61  1  0  0  0  0
 54 61  1  0  0  0  0
 55 71  1  0  0  0  0
 56 79  1  0  0  0  0
 57 58  1  0  0  0  0
 57 78  1  0  0  0  0
 58 79  1  0  0  0  0
 59 61  1  0  0  0  0
 59 70  1  0  0  0  0
 60 71  1  0  0  0  0
 62 63  1  0  0  0  0
M  CHG  1  71   1
M  ISO  4  38 100  57 101  68 100  78 101
M  END
> <Batch ID>
0002

> <Smiles>
CNC(C)C(=O)NC(C(=O)N1Cc2cc([101O:1][101CH2:1]COCc3cccc([100NH:0][100C:0](=O)N4CCCC(n5nc(-c6ccc(Oc7ccc(F)cc7F)cc6)c(C(N)=O)c5N)C4)c3)ccc2CC1C(=O)NC1CCCc2ccccc21)C(C)(C)C

> <Shape>
0.216

> <Color>
0.078

> <Negative vol penalty>
0.000

$$$$

  -OEChem-04052315183D

 85 93  0     1  0  0  0  0  0999 V2000
  -23.3593  -36.7136   25.8009 C   0  0  0  0  0  0  0  0  0  0  0  0
  -24.4385  -36.2884   25.0328 C   0  0  0  0  0  0  0  0  0  0  0  0
  -26.9078  -12.2691   21.8254 C   0  0  0  0  0  0  0  0  0  0  0  0
  -26.1924  -13.9689   20.2647 C   0  0  0  0  0  0  0  0  0  0  0  0
  -22.4727  -35.7786   26.3333 C   0  0  0  0  0  0  0  0  0  0  0  0
  -24.6324  -34.9277   24.7976 C   0  0  0  0  0  0  0  0  0  0  0  0
  -27.1045  -30.4211   19.8081 C   0  0  0  0  0  0  0  0  0  0  0  0
  -31.2316  -22.2710   21.8998 C   0  0  0  0  0  0  0  0  0  0  0  0
  -25.6017  -11.7848   21.8968 C   0  0  0  0  0  0  0  0  0  0  0  0
  -24.8862  -13.4847   20.3360 C   0  0  0  0  0  0  0  0  0  0  0  0
  -28.0045  -29.3666   19.6601 C   0  0  0  0  0  0  0  0  0  0  0  0
  -31.2235  -23.5503   21.3440 C   0  0  0  0  0  0  0  0  0  0  0  0
  -23.5586   -9.8451   20.0270 C   0  0  0  0  0  0  0  0  0  0  0  0
  -23.3745   -8.4642   19.9570 C   0  0  0  0  0  0  0  0  0  0  0  0
  -29.7478  -22.7802   19.5929 C   0  0  0  0  0  0  0  0  0  0  0  0
  -26.3636  -27.8471   20.5644 C   0  0  0  0  0  0  0  0  0  0  0  0
  -22.3399   -8.4915   22.1402 C   0  0  0  0  0  0  0  0  0  0  0  0
  -27.2032  -13.3612   21.0094 C   0  0  0  0  0  0  0  0  0  0  0  0
  -29.7559  -21.5009   20.1487 C   0  0  0  0  0  0  0  0  0  0  0  0
  -29.5597  -13.4620   20.0377 C   0  0  0  0  0  0  0  0  0  0  0  0
  -22.6502  -34.4063   26.0964 C   0  0  0  0  0  0  0  0  0  0  0  0
  -25.8290  -30.1980   20.3464 C   0  0  0  0  0  0  0  0  0  0  0  0
  -23.7480  -33.9733   25.3285 C   0  0  0  0  0  0  0  0  0  0  0  0
  -25.4484  -28.9000   20.7158 C   0  0  0  0  0  0  0  0  0  0  0  0
  -30.4978  -21.2463   21.3022 C   0  0  0  0  0  0  0  0  0  0  0  0
  -24.5909  -12.3926   21.1521 C   0  0  0  0  0  0  0  0  0  0  0  0
  -30.4816  -23.8049   20.1906 C   0  0  0  0  0  0  0  0  0  0  0  0
  -27.6351  -28.0799   20.0409 C   0  0  0  0  0  0  0  0  0  0  0  0
  -23.1335  -10.5492   21.1536 C   0  0  0  0  0  0  0  0  0  0  0  0
  -22.7651   -7.7874   21.0136 C   0  0  0  0  0  0  0  0  0  0  0  0
  -22.5241   -9.8724   22.2102 C   0  0  0  0  0  0  0  0  0  0  0  0
  -28.5521  -13.8622   20.9357 C   0  0  0  0  0  0  0  0  0  0  0  0
  -30.6463  -14.2311   20.3760 C   0  0  0  0  0  0  0  0  0  0  0  0
  -28.9785  -20.4525   19.4997 C   0  0  0  0  0  0  0  0  0  0  0  0
  -29.5173  -12.4828   18.9913 C   0  0  0  0  0  0  0  0  0  0  0  0
  -24.2721  -31.2178   22.9232 C   0  0  0  0  0  0  0  0  0  0  0  0
  -21.7919  -29.6160   21.5796 C   0  0  0  0  0  0  0  0  0  0  0  0
  -20.7391  -27.1471   19.4717 C   0  0  0  0  0  0  0  0  0  0  0  0
  -31.2122  -19.5558   23.0279 C   0  0  0  0  0  0  0  0  0  0  0  0
  -21.6925  -33.4301   26.7323 C   0  0  0  0  0  0  0  0  0  0  0  0
  -24.8603  -31.3415   20.4748 C   0  0  0  0  0  0  0  0  0  0  0  0
  -24.0836  -28.6042   21.2801 C   0  0  0  0  0  0  0  0  0  0  0  0
  -21.7555  -32.0313   26.1243 C   0  0  0  0  0  0  0  0  0  0  0  0
  -32.6283  -16.4748   24.1139 C   0  0  0  0  0  0  0  0  0  0  0  0
  -23.2046  -31.5790   25.9748 C   0  0  0  0  0  0  0  0  0  0  0  0
  -31.8395  -15.4190   23.3358 C   0  0  0  0  0  0  0  0  0  0  0  0
  -31.7452  -17.6497   24.5305 C   0  0  0  0  0  0  0  0  0  0  0  0
  -30.2001  -17.2199   22.6604 C   0  0  0  0  0  0  0  0  0  0  0  0
  -23.9777  -32.5075   25.0305 C   0  0  1  0  0  0  0  0  0  0  0  0
  -23.7711  -31.0883   21.5125 C   0  0  1  0  0  0  0  0  0  0  0  0
  -31.0616  -16.0476   22.1631 C   0  0  2  0  0  0  0  0  0  0  0  0
  -18.6535  -26.0503   18.6087 C   0  0  0  0  0  0  0  0  0  0  0  0
  -21.4821  -28.1286   24.2257 C   0  0  0  0  0  0  0  0  0  0  0  0
  -20.0727  -26.4391   23.0309 C   0  0  0  0  0  0  0  0  0  0  0  0
  -19.3281  -28.8165   23.1572 C   0  0  0  0  0  0  0  0  0  0  0  0
  -21.3523  -27.9136   16.6796 C   0  0  0  0  0  0  0  0  0  0  0  0
  -30.6394  -26.1514   20.5442 C   0  0  0  0  0  0  0  0  0  0  0  0
  -29.9011  -27.3589   20.0000 C   0  0  0  0  0  0  0  0  0  1  0  0
  -29.0561  -18.2016   18.4043 C   0  0  0  0  0  0  0  0  0  0  0  0
  -21.2661  -28.2028   21.6539 C   0  0  1  0  0  0  0  0  0  0  0  0
  -19.6896  -27.1387   18.3749 C   0  0  2  0  0  0  0  0  0  0  0  0
  -20.5637  -27.9023   23.0081 C   0  0  0  0  0  0  0  0  0  0  0  0
  -28.9621  -14.8116   21.7811 N   0  0  0  0  0  0  0  0  0  0  0  0
  -30.2394  -15.0144   21.4157 N   0  0  0  0  0  0  0  0  0  0  0  0
  -23.1742  -29.7566   21.3920 N   0  0  0  0  0  0  0  0  0  0  0  0
  -31.0429  -18.1968   23.3676 N   0  0  0  0  0  0  0  0  0  0  0  0
  -31.9005  -14.3069   19.8825 N   0  0  0  0  0  0  0  0  0  0  0  0
  -28.3214  -11.7834   18.7789 N   0  0  0  0  0  0  0  0  0  0  0  0
  -30.5210  -19.9547   21.8844 N   0  0  0  0  0  0  0  0  0  0  0  0
  -29.6834  -19.3329   19.0461 N   0  0  0  0  0  0  0  0  0  0  0  0
  -23.6498  -32.2133   23.6520 N   0  0  0  0  0  0  0  0  0  0  0  0
  -20.4118  -28.0231   20.4850 N   0  0  0  0  0  0  0  0  0  0  0  0
  -29.0294  -18.4064   16.9404 N   0  3  0  0  0  0  0  0  0  0  0  0
  -20.3279  -26.9030   17.0490 N   0  3  0  0  0  0  0  0  0  0  0  0
  -27.7469  -20.5637   19.3856 O   0  0  0  0  0  0  0  0  0  0  0  0
  -30.5152  -12.2237   18.2769 O   0  0  0  0  0  0  0  0  0  0  0  0
  -25.1566  -30.4690   23.3214 O   0  0  0  0  0  0  0  0  0  0  0  0
  -21.0042  -30.5602   21.6770 O   0  0  0  0  0  0  0  0  0  0  0  0
  -21.7464  -26.4440   19.4351 O   0  0  0  0  0  0  0  0  0  0  0  0
  -31.9400  -20.3034   23.6862 O   0  0  0  0  0  0  0  0  0  0  0  0
  -23.3163  -11.9202   21.2213 O   0  0  0  0  0  0  0  0  0  0  0  0
  -30.4739  -25.0616   19.6450 O   0  0  0  0  0  0  0  0  0  0  0  0
  -28.5119  -27.0490   19.8981 O   0  0  0  0  0  0  0  0  0  1  0  0
  -22.5869   -6.4616   20.9455 F   0  0  0  0  0  0  0  0  0  0  0  0
  -22.1125  -10.5436   23.2946 F   0  0  0  0  0  0  0  0  0  0  0  0
  1  2  1  0  0  0  0
  1  5  2  0  0  0  0
  2  6  2  0  0  0  0
  3  9  2  0  0  0  0
  3 18  1  0  0  0  0
  4 10  1  0  0  0  0
  4 18  2  0  0  0  0
  5 21  1  0  0  0  0
  6 23  1  0  0  0  0
  7 11  2  0  0  0  0
  7 22  1  0  0  0  0
  8 12  2  0  0  0  0
  8 25  1  0  0  0  0
  9 26  1  0  0  0  0
 10 26  2  0  0  0  0
 11 28  1  0  0  0  0
 12 27  1  0  0  0  0
 13 14  2  0  0  0  0
 13 29  1  0  0  0  0
 14 30  1  0  0  0  0
 15 19  1  0  0  0  0
 15 27  2  0  0  0  0
 16 24  1  0  0  0  0
 16 28  2  0  0  0  0
 17 30  2  0  0  0  0
 17 31  1  0  0  0  0
 18 32  1  0  0  0  0
 19 25  2  0  0  0  0
 19 34  1  0  0  0  0
 20 32  1  0  0  0  0
 20 33  2  0  0  0  0
 20 35  1  0  0  0  0
 21 23  2  0  0  0  0
 21 40  1  0  0  0  0
 22 24  2  0  0  0  0
 22 41  1  0  0  0  0
 23 49  1  0  0  0  0
 24 42  1  0  0  0  0
 25 69  1  0  0  0  0
 26 81  1  0  0  0  0
 27 82  1  0  0  0  0
 28 83  1  0  0  0  0
 29 31  2  0  0  0  0
 29 81  1  0  0  0  0
 30 84  1  0  0  0  0
 31 85  1  0  0  0  0
 32 63  2  0  0  0  0
 33 64  1  0  0  0  0
 33 67  1  0  0  0  0
 34 70  1  0  0  0  0
 34 75  2  0  0  0  0
 35 68  1  0  0  0  0
 35 76  2  0  0  0  0
 36 50  1  0  0  0  0
 36 71  1  0  0  0  0
 36 77  2  0  0  0  0
 37 60  1  0  0  0  0
 37 65  1  0  0  0  0
 37 78  2  0  0  0  0
 38 61  1  0  0  0  0
 38 72  1  0  0  0  0
 38 79  2  0  0  0  0
 39 66  1  0  0  0  0
 39 69  1  0  0  0  0
 39 80  2  0  0  0  0
 40 43  1  0  0  0  0
 41 50  1  0  0  0  0
 42 65  1  0  0  0  0
 43 45  1  0  0  0  0
 44 46  1  0  0  0  0
 44 47  1  0  0  0  0
 45 49  1  0  0  0  0
 46 51  1  0  0  0  0
 47 66  1  0  0  0  0
 48 51  1  0  0  0  0
 48 66  1  0  0  0  0
 49 71  1  0  0  0  0
 50 65  1  0  0  0  0
 51 64  1  0  0  0  0
 52 61  1  0  0  0  0
 53 62  1  0  0  0  0
 54 62  1  0  0  0  0
 55 62  1  0  0  0  0
 56 74  1  0  0  0  0
 57 58  1  0  0  0  0
 57 82  1  0  0  0  0
 58 83  1  0  0  0  0
 59 70  1  0  0  0  0
 59 73  1  0  0  0  0
 60 62  1  0  0  0  0
 60 72  1  0  0  0  0
 61 74  1  0  0  0  0
 63 64  1  0  0  0  0
M  CHG  2  73   1  74   1
M  ISO  4  39 100  58 101  69 100  83 101
M  END
> <Batch ID>
0002

> <Smiles>
CNC(C)C(=O)NC(C(=O)N1Cc2cc([101O:1][101CH2:1]COc3ccc([100NH:0][100C:0](=O)N4CCCC(n5nc(-c6ccc(Oc7ccc(F)cc7F)cc6)c(C(N)=O)c5N)C4)c(C(=O)NCN)c3)ccc2CC1C(=O)NC1CCCc2ccccc21)C(C)(C)C

> <Shape>
0.349

> <Color>
0.099

> <Negative vol penalty>
0.000

$$$$

  -OEChem-04052315183D

 75 82  0     1  0  0  0  0  0999 V2000
  -21.6576  -26.0082   22.2550 C   0  0  0  0  0  0  0  0  0  0  0  0
  -22.5356  -24.9529   22.0299 C   0  0  0  0  0  0  0  0  0  0  0  0
  -23.8221  -10.0103   22.1423 C   0  0  0  0  0  0  0  0  0  0  0  0
  -24.3934  -11.4271   24.0141 C   0  0  0  0  0  0  0  0  0  0  0  0
  -22.0394  -27.3110   21.9374 C   0  0  0  0  0  0  0  0  0  0  0  0
  -23.7956  -25.1996   21.4859 C   0  0  0  0  0  0  0  0  0  0  0  0
  -27.4742  -22.6745   23.8810 C   0  0  0  0  0  0  0  0  0  0  0  0
  -23.3018   -9.0598   23.0206 C   0  0  0  0  0  0  0  0  0  0  0  0
  -23.8731  -10.4766   24.8924 C   0  0  0  0  0  0  0  0  0  0  0  0
  -27.6174  -21.3207   23.5801 C   0  0  0  0  0  0  0  0  0  0  0  0
  -24.8491   -7.5351   26.2437 C   0  0  0  0  0  0  0  0  0  0  0  0
  -25.5983   -7.2219   27.3778 C   0  0  0  0  0  0  0  0  0  0  0  0
  -29.4494  -21.8491   22.1024 C   0  0  0  0  0  0  0  0  0  0  0  0
  -23.7739   -7.9504   28.7842 C   0  0  0  0  0  0  0  0  0  0  0  0
  -24.3679  -11.1940   22.6391 C   0  0  0  0  0  0  0  0  0  0  0  0
  -24.2169  -13.2470   21.1323 C   0  0  0  0  0  0  0  0  0  0  0  0
  -23.3083  -27.5750   21.3982 C   0  0  0  0  0  0  0  0  0  0  0  0
  -28.3119  -23.6285   23.2855 C   0  0  0  0  0  0  0  0  0  0  0  0
  -24.1942  -26.5070   21.1594 C   0  0  0  0  0  0  0  0  0  0  0  0
  -29.3165  -23.2141   22.3994 C   0  0  0  0  0  0  0  0  0  0  0  0
  -23.3273   -9.2929   24.3956 C   0  0  0  0  0  0  0  0  0  0  0  0
  -28.6032  -20.9081   22.6885 C   0  0  0  0  0  0  0  0  0  0  0  0
  -23.5623   -8.0560   26.3798 C   0  0  0  0  0  0  0  0  0  0  0  0
  -25.0607   -7.4295   28.6481 C   0  0  0  0  0  0  0  0  0  0  0  0
  -23.0247   -8.2636   27.6500 C   0  0  0  0  0  0  0  0  0  0  0  0
  -24.9060  -12.1760   21.7323 C   0  0  0  0  0  0  0  0  0  0  0  0
  -25.1651  -13.8790   20.3656 C   0  0  0  0  0  0  0  0  0  0  0  0
  -22.8425  -13.6357   21.2570 C   0  0  0  0  0  0  0  0  0  0  0  0
  -27.8632  -26.1195   21.3628 C   0  0  0  0  0  0  0  0  0  0  0  0
  -31.0302  -26.5937   21.8798 C   0  0  0  0  0  0  0  0  0  0  0  0
  -34.0557  -25.2690   22.7393 C   0  0  0  0  0  0  0  0  0  0  0  0
  -31.1355  -14.1863   20.6987 C   0  0  0  0  0  0  0  0  0  0  0  0
  -23.6583  -28.9942   21.0268 C   0  0  0  0  0  0  0  0  0  0  0  0
  -28.1620  -25.0822   23.6411 C   0  0  0  0  0  0  0  0  0  0  0  0
  -30.2547  -24.1964   21.7488 C   0  0  0  0  0  0  0  0  0  0  0  0
  -25.1521  -29.2144   20.8024 C   0  0  0  0  0  0  0  0  0  0  0  0
  -29.2021  -13.0226   17.9448 C   0  0  0  0  0  0  0  0  0  0  0  0
  -25.7287  -28.1085   19.9240 C   0  0  0  0  0  0  0  0  0  0  0  0
  -27.8196  -12.7703   18.5491 C   0  0  0  0  0  0  0  0  0  0  0  0
  -30.3192  -12.6648   18.9225 C   0  0  0  0  0  0  0  0  0  0  0  0
  -28.8331  -13.0581   20.8488 C   0  0  0  0  0  0  0  0  0  0  0  0
  -25.5789  -26.7373   20.5939 C   0  0  1  0  0  0  0  0  0  0  0  0
  -28.7355  -26.0186   22.5820 C   0  0  1  0  0  0  0  0  0  0  0  0
  -27.6733  -13.4569   19.9203 C   0  0  2  0  0  0  0  0  0  0  0  0
  -36.4673  -25.8955   23.0376 C   0  0  0  0  0  0  0  0  0  0  0  0
  -31.3900  -26.6419   18.8502 C   0  0  0  0  0  0  0  0  0  0  0  0
  -33.8462  -26.3127   19.2065 C   0  0  0  0  0  0  0  0  0  0  0  0
  -32.7232  -28.3590   20.0866 C   0  0  0  0  0  0  0  0  0  0  0  0
  -34.0184  -24.5131   25.6005 C   0  0  0  0  0  0  0  0  0  0  0  0
  -31.6127  -17.1488   22.1275 C   0  0  0  0  0  0  0  0  0  0  0  0
  -30.2124  -17.6705   22.4514 C   0  0  0  0  0  0  0  0  0  0  0  0
  -31.8074  -15.6961   22.5503 C   0  0  0  0  0  0  0  0  0  0  0  0
  -30.0554  -19.1337   22.0572 C   0  0  0  0  0  0  0  0  0  1  0  0
  -32.3032  -26.1339   21.2112 C   0  0  1  0  0  0  0  0  0  0  0  0
  -35.1174  -25.7346   23.7193 C   0  0  2  0  0  0  0  0  0  0  0  0
  -32.5469  -26.8433   19.8492 C   0  0  0  0  0  0  0  0  0  0  0  0
  -26.1927  -12.1272   21.3772 N   0  0  0  0  0  0  0  0  0  0  0  0
  -26.3196  -13.1754   20.5457 N   0  0  0  0  0  0  0  0  0  0  0  0
  -30.0641  -25.6073   22.1236 N   0  0  0  0  0  0  0  0  0  0  0  0
  -30.1222  -13.3497   20.2023 N   0  0  0  0  0  0  0  0  0  0  0  0
  -25.1157  -14.9623   19.5616 N   0  0  0  0  0  0  0  0  0  0  0  0
  -22.0059  -12.8763   22.0863 N   0  0  0  0  0  0  0  0  0  0  0  0
  -26.5815  -26.5654   21.6233 N   0  0  0  0  0  0  0  0  0  0  0  0
  -33.3704  -26.3301   22.1864 N   0  0  0  0  0  0  0  0  0  0  0  0
  -30.8653  -14.8020   21.9147 N   0  0  0  0  0  0  0  0  0  0  0  0
  -35.2654  -24.7508   24.8288 N   0  3  0  0  0  0  0  0  0  0  0  0
  -22.3663  -14.6175   20.6382 O   0  0  0  0  0  0  0  0  0  0  0  0
  -28.3196  -25.8167   20.2665 O   0  0  0  0  0  0  0  0  0  0  0  0
  -30.9009  -27.7828   22.1813 O   0  0  0  0  0  0  0  0  0  0  0  0
  -33.8568  -24.0828   22.4866 O   0  0  0  0  0  0  0  0  0  0  0  0
  -32.1998  -14.3751   20.0998 O   0  0  0  0  0  0  0  0  0  0  0  0
  -22.8195   -8.3657   25.2529 O   0  0  0  0  0  0  0  0  0  0  0  0
  -28.7447  -19.5874   22.3925 O   0  0  0  0  0  0  0  0  0  1  0  0
  -25.7797   -7.1273   29.7370 F   0  0  0  0  0  0  0  0  0  0  0  0
  -21.7886   -8.7626   27.7871 F   0  0  0  0  0  0  0  0  0  0  0  0
  1  2  1  0  0  0  0
  1  5  2  0  0  0  0
  2  6  2  0  0  0  0
  3  8  2  0  0  0  0
  3 15  1  0  0  0  0
  4  9  1  0  0  0  0
  4 15  2  0  0  0  0
  5 17  1  0  0  0  0
  6 19  1  0  0  0  0
  7 10  2  0  0  0  0
  7 18  1  0  0  0  0
  8 21  1  0  0  0  0
  9 21  2  0  0  0  0
 10 22  1  0  0  0  0
 11 12  2  0  0  0  0
 11 23  1  0  0  0  0
 12 24  1  0  0  0  0
 13 20  1  0  0  0  0
 13 22  2  0  0  0  0
 14 24  2  0  0  0  0
 14 25  1  0  0  0  0
 15 26  1  0  0  0  0
 16 26  1  0  0  0  0
 16 27  2  0  0  0  0
 16 28  1  0  0  0  0
 17 19  2  0  0  0  0
 17 33  1  0  0  0  0
 18 20  2  0  0  0  0
 18 34  1  0  0  0  0
 19 42  1  0  0  0  0
 20 35  1  0  0  0  0
 21 72  1  0  0  0  0
 22 73  1  0  0  0  0
 23 25  2  0  0  0  0
 23 72  1  0  0  0  0
 24 74  1  0  0  0  0
 25 75  1  0  0  0  0
 26 57  2  0  0  0  0
 27 58  1  0  0  0  0
 27 61  1  0  0  0  0
 28 62  1  0  0  0  0
 28 67  2  0  0  0  0
 29 43  1  0  0  0  0
 29 63  1  0  0  0  0
 29 68  2  0  0  0  0
 30 54  1  0  0  0  0
 30 59  1  0  0  0  0
 30 69  2  0  0  0  0
 31 55  1  0  0  0  0
 31 64  1  0  0  0  0
 31 70  2  0  0  0  0
 32 60  1  0  0  0  0
 32 65  1  0  0  0  0
 32 71  2  0  0  0  0
 33 36  1  0  0  0  0
 34 43  1  0  0  0  0
 35 59  1  0  0  0  0
 36 38  1  0  0  0  0
 37 39  1  0  0  0  0
 37 40  1  0  0  0  0
 38 42  1  0  0  0  0
 39 44  1  0  0  0  0
 40 60  1  0  0  0  0
 41 44  1  0  0  0  0
 41 60  1  0  0  0  0
 42 63  1  0  0  0  0
 43 59  1  0  0  0  0
 44 58  1  0  0  0  0
 45 55  1  0  0  0  0
 46 56  1  0  0  0  0
 47 56  1  0  0  0  0
 48 56  1  0  0  0  0
 49 66  1  0  0  0  0
 50 51  1  0  0  0  0
 50 52  1  0  0  0  0
 51 53  1  0  0  0  0
 52 65  1  0  0  0  0
 53 73  1  0  0  0  0
 54 56  1  0  0  0  0
 54 64  1  0  0  0  0
 55 66  1  0  0  0  0
 57 58  1  0  0  0  0
M  CHG  1  66   1
M  ISO  4  32 100  53 101  65 100  73 101
M  END
> <Batch ID>
0002

> <Smiles>
CNC(C)C(=O)NC(C(=O)N1Cc2cc([101O:1][101CH2:1]CCC[100NH:0][100C:0](=O)N3CCCC(n4nc(-c5ccc(Oc6ccc(F)cc6F)cc5)c(C(N)=O)c4N)C3)ccc2CC1C(=O)NC1CCCc2ccccc21)C(C)(C)C

> <Shape>
0.193

> <Color>
0.131

> <Negative vol penalty>
0.000

$$$$

  -OEChem-04052315183D

 87 94  0     1  0  0  0  0  0999 V2000
  -27.4370  -23.0016   14.7790 C   0  0  0  0  0  0  0  0  0  0  0  0
  -26.4448  -23.2617   15.7188 C   0  0  0  0  0  0  0  0  0  0  0  0
  -24.1252  -10.3695   23.1339 C   0  0  0  0  0  0  0  0  0  0  0  0
  -24.1199  -12.5405   24.1940 C   0  0  0  0  0  0  0  0  0  0  0  0
  -28.7790  -23.1631   15.1209 C   0  0  0  0  0  0  0  0  0  0  0  0
  -26.7940  -23.6824   17.0015 C   0  0  0  0  0  0  0  0  0  0  0  0
  -23.9444  -27.5416   18.6235 C   0  0  0  0  0  0  0  0  0  0  0  0
  -23.6574   -9.7919   24.3142 C   0  0  0  0  0  0  0  0  0  0  0  0
  -23.6520  -11.9629   25.3744 C   0  0  0  0  0  0  0  0  0  0  0  0
  -22.6623  -27.2387   19.0798 C   0  0  0  0  0  0  0  0  0  0  0  0
  -20.7061  -10.8576   26.6074 C   0  0  0  0  0  0  0  0  0  0  0  0
  -19.6634  -11.5017   27.2733 C   0  0  0  0  0  0  0  0  0  0  0  0
  -23.4529  -27.3491   21.3562 C   0  0  0  0  0  0  0  0  0  0  0  0
  -21.0674  -11.7596   29.2225 C   0  0  0  0  0  0  0  0  0  0  0  0
  -24.3565  -11.7437   23.0738 C   0  0  0  0  0  0  0  0  0  0  0  0
  -24.0688  -12.8562   20.7962 C   0  0  0  0  0  0  0  0  0  0  0  0
  -29.1445  -23.5953   16.4055 C   0  0  0  0  0  0  0  0  0  0  0  0
  -24.9946  -27.7402   19.5314 C   0  0  0  0  0  0  0  0  0  0  0  0
  -28.1422  -23.8485   17.3614 C   0  0  0  0  0  0  0  0  0  0  0  0
  -24.7468  -27.6570   20.9090 C   0  0  0  0  0  0  0  0  0  0  0  0
  -23.4207  -10.5886   25.4344 C   0  0  0  0  0  0  0  0  0  0  0  0
  -22.4170  -27.1395   20.4462 C   0  0  0  0  0  0  0  0  0  0  0  0
  -21.9295  -10.6644   27.2490 C   0  0  0  0  0  0  0  0  0  0  0  0
  -19.8440  -11.9527   28.5808 C   0  0  0  0  0  0  0  0  0  0  0  0
  -22.1102  -11.1154   28.5565 C   0  0  0  0  0  0  0  0  0  0  0  0
  -24.8403  -12.3408   21.8550 C   0  0  0  0  0  0  0  0  0  0  0  0
  -24.9930  -13.3046   19.8845 C   0  0  0  0  0  0  0  0  0  0  0  0
  -22.6441  -12.9236   20.6500 C   0  0  0  0  0  0  0  0  0  0  0  0
  -27.7683  -26.2970   20.1033 C   0  0  0  0  0  0  0  0  0  0  0  0
  -28.1852  -28.7690   22.1619 C   0  0  0  0  0  0  0  0  0  0  0  0
  -26.4418  -20.9867   20.0538 C   0  0  0  0  0  0  0  0  0  0  0  0
  -22.3616  -23.2277   21.3119 C   0  0  0  0  0  0  0  0  0  0  0  0
  -26.7697  -31.1910   24.1054 C   0  0  0  0  0  0  0  0  0  0  0  0
  -30.6733  -15.1275   20.3966 C   0  0  0  0  0  0  0  0  0  0  0  0
  -30.6099  -23.7099   16.7433 C   0  0  0  0  0  0  0  0  0  0  0  0
  -26.3660  -28.0927   19.0240 C   0  0  0  0  0  0  0  0  0  0  0  0
  -25.8354  -27.8813   21.9255 C   0  0  0  0  0  0  0  0  0  0  0  0
  -30.8819  -24.5196   18.0085 C   0  0  0  0  0  0  0  0  0  0  0  0
  -29.4508  -12.4783   18.3560 C   0  0  0  0  0  0  0  0  0  0  0  0
  -29.9463  -24.0845   19.1320 C   0  0  0  0  0  0  0  0  0  0  0  0
  -28.0609  -12.1892   18.9258 C   0  0  0  0  0  0  0  0  0  0  0  0
  -30.4453  -12.8478   19.4543 C   0  0  0  0  0  0  0  0  0  0  0  0
  -28.6256  -13.6623   20.9031 C   0  0  0  0  0  0  0  0  0  0  0  0
  -28.4803  -24.3304   18.7555 C   0  0  1  0  0  0  0  0  0  0  0  0
  -27.4738  -27.7681   20.0214 C   0  0  1  0  0  0  0  0  0  0  0  0
  -27.5742  -13.3394   19.8277 C   0  0  2  0  0  0  0  0  0  0  0  0
  -27.3648  -33.0333   25.7020 C   0  0  0  0  0  0  0  0  0  0  0  0
  -28.7466  -26.7016   24.3345 C   0  0  0  0  0  0  0  0  0  0  0  0
  -28.3905  -28.4995   26.0400 C   0  0  0  0  0  0  0  0  0  0  0  0
  -30.2464  -28.7022   24.3856 C   0  0  0  0  0  0  0  0  0  0  0  0
  -25.5428  -33.2497   22.3689 C   0  0  0  0  0  0  0  0  0  0  0  0
  -24.9453  -21.0432   19.8324 C   0  0  0  0  0  0  0  0  0  0  0  0
  -22.9587  -22.1376   20.4478 C   0  0  0  0  0  0  0  0  0  0  0  0
  -28.8483  -18.6971   20.3282 C   0  0  0  0  0  0  0  0  0  0  0  0
  -30.3588  -18.4341   20.3570 C   0  0  0  0  0  0  0  0  0  0  0  0
  -19.4186  -25.1995   20.9214 C   0  0  0  0  0  0  0  0  0  0  0  0
  -28.4587  -19.7445   19.2891 C   0  0  0  0  0  0  0  0  0  0  0  0
  -30.7514  -17.3948   21.4027 C   0  0  0  0  0  0  0  0  0  0  0  0
  -20.1680  -24.2669   21.8634 C   0  0  0  0  0  0  0  0  0  0  0  0
  -20.3488  -26.0345   20.0497 C   0  0  0  0  0  0  0  0  0  1  0  0
  -27.8592  -29.0169   23.6149 C   0  0  1  0  0  0  0  0  0  0  0  0
  -27.0760  -32.6704   24.2536 C   0  0  2  0  0  0  0  0  0  0  0  0
  -28.7904  -28.2238   24.5748 C   0  0  0  0  0  0  0  0  0  0  0  0
  -26.1535  -12.4509   21.6373 N   0  0  0  0  0  0  0  0  0  0  0  0
  -26.2143  -13.0406   20.4311 N   0  0  0  0  0  0  0  0  0  0  0  0
  -27.1608  -28.2172   21.3796 N   0  0  0  0  0  0  0  0  0  0  0  0
  -29.9244  -13.9456   20.2724 N   0  0  0  0  0  0  0  0  0  0  0  0
  -24.8719  -13.8950   18.6765 N   0  0  0  0  0  0  0  0  0  0  0  0
  -21.8419  -12.4171   21.6816 N   0  0  0  0  0  0  0  0  0  0  0  0
  -28.1492  -25.7317   18.9013 N   0  0  0  0  0  0  0  0  0  0  0  0
  -27.0384  -20.0094   19.2725 N   0  0  0  0  0  0  0  0  0  0  0  0
  -20.9824  -23.3162   21.1582 N   0  0  0  0  0  0  0  0  0  0  0  0
  -27.9007  -30.4632   23.8016 N   0  0  0  0  0  0  0  0  0  0  0  0
  -30.1043  -16.1202   21.1849 N   0  0  0  0  0  0  0  0  0  0  0  0
  -25.9212  -33.4879   23.7855 N   0  3  0  0  0  0  0  0  0  0  0  0
  -22.0987  -13.4034   19.6274 O   0  0  0  0  0  0  0  0  0  0  0  0
  -27.6596  -25.7180   21.1778 O   0  0  0  0  0  0  0  0  0  0  0  0
  -29.3050  -29.0612   21.7350 O   0  0  0  0  0  0  0  0  0  0  0  0
  -27.0257  -21.7307   20.8370 O   0  0  0  0  0  0  0  0  0  0  0  0
  -23.0400  -23.9346   22.0523 O   0  0  0  0  0  0  0  0  0  0  0  0
  -25.6407  -30.7269   24.2487 O   0  0  0  0  0  0  0  0  0  0  0  0
  -31.7655  -15.2882   19.8413 O   0  0  0  0  0  0  0  0  0  0  0  0
  -22.9640  -10.0255   26.5863 O   0  0  0  0  0  0  0  0  0  0  0  0
  -21.1667  -26.8433   20.8943 O   0  0  0  0  0  0  0  0  0  1  0  0
  -24.3561  -22.0625   20.6346 O   0  0  0  0  0  0  0  0  0  0  0  0
  -18.8431  -12.5726   29.2196 F   0  0  0  0  0  0  0  0  0  0  0  0
  -23.2836  -10.9338   29.1777 F   0  0  0  0  0  0  0  0  0  0  0  0
  1  2  1  0  0  0  0
  1  5  2  0  0  0  0
  2  6  2  0  0  0  0
  3  8  2  0  0  0  0
  3 15  1  0  0  0  0
  4  9  1  0  0  0  0
  4 15  2  0  0  0  0
  5 17  1  0  0  0  0
  6 19  1  0  0  0  0
  7 10  2  0  0  0  0
  7 18  1  0  0  0  0
  8 21  1  0  0  0  0
  9 21  2  0  0  0  0
 10 22  1  0  0  0  0
 11 12  2  0  0  0  0
 11 23  1  0  0  0  0
 12 24  1  0  0  0  0
 13 20  1  0  0  0  0
 13 22  2  0  0  0  0
 14 24  2  0  0  0  0
 14 25  1  0  0  0  0
 15 26  1  0  0  0  0
 16 26  1  0  0  0  0
 16 27  2  0  0  0  0
 16 28  1  0  0  0  0
 17 19  2  0  0  0  0
 17 35  1  0  0  0  0
 18 20  2  0  0  0  0
 18 36  1  0  0  0  0
 19 44  1  0  0  0  0
 20 37  1  0  0  0  0
 21 83  1  0  0  0  0
 22 84  1  0  0  0  0
 23 25  2  0  0  0  0
 23 83  1  0  0  0  0
 24 86  1  0  0  0  0
 25 87  1  0  0  0  0
 26 64  2  0  0  0  0
 27 65  1  0  0  0  0
 27 68  1  0  0  0  0
 28 69  1  0  0  0  0
 28 76  2  0  0  0  0
 29 45  1  0  0  0  0
 29 70  1  0  0  0  0
 29 77  2  0  0  0  0
 30 61  1  0  0  0  0
 30 66  1  0  0  0  0
 30 78  2  0  0  0  0
 31 52  1  0  0  0  0
 31 71  1  0  0  0  0
 31 79  2  0  0  0  0
 32 53  1  0  0  0  0
 32 72  1  0  0  0  0
 32 80  2  0  0  0  0
 33 62  1  0  0  0  0
 33 73  1  0  0  0  0
 33 81  2  0  0  0  0
 34 67  1  0  0  0  0
 34 74  1  0  0  0  0
 34 82  2  0  0  0  0
 35 38  1  0  0  0  0
 36 45  1  0  0  0  0
 37 66  1  0  0  0  0
 38 40  1  0  0  0  0
 39 41  1  0  0  0  0
 39 42  1  0  0  0  0
 40 44  1  0  0  0  0
 41 46  1  0  0  0  0
 42 67  1  0  0  0  0
 43 46  1  0  0  0  0
 43 67  1  0  0  0  0
 44 70  1  0  0  0  0
 45 66  1  0  0  0  0
 46 65  1  0  0  0  0
 47 62  1  0  0  0  0
 48 63  1  0  0  0  0
 49 63  1  0  0  0  0
 50 63  1  0  0  0  0
 51 75  1  0  0  0  0
 52 85  1  0  0  0  0
 53 85  1  0  0  0  0
 54 55  1  0  0  0  0
 54 57  1  0  0  0  0
 55 58  1  0  0  0  0
 56 59  1  0  0  0  0
 56 60  1  0  0  0  0
 57 71  1  0  0  0  0
 58 74  1  0  0  0  0
 59 72  1  0  0  0  0
 60 84  1  0  0  0  0
 61 63  1  0  0  0  0
 61 73  1  0  0  0  0
 62 75  1  0  0  0  0
 64 65  1  0  0  0  0
M  CHG  1  75   1
M  ISO  4  34 100  60 101  74 100  84 101
M  END
> <Batch ID>
0002

> <Smiles>
CNC(C)C(=O)NC(C(=O)N1Cc2cc([101O:1][101CH2:1]CCNC(=O)COCC(=O)NCCCC[100NH:0][100C:0](=O)N3CCCC(n4nc(-c5ccc(Oc6ccc(F)cc6F)cc5)c(C(N)=O)c4N)C3)ccc2CC1C(=O)NC1CCCc2ccccc21)C(C)(C)C

> <Shape>
0.257

> <Color>
0.093

> <Negative vol penalty>
0.000

$$$$

  -OEChem-04052315183D

 78 85  0     1  0  0  0  0  0999 V2000
  -22.3668  -11.5824   18.4856 C   0  0  0  0  0  0  0  0  0  0  0  0
  -21.9666  -12.8333   18.9445 C   0  0  0  0  0  0  0  0  0  0  0  0
  -26.4080  -29.3506   21.4295 C   0  0  0  0  0  0  0  0  0  0  0  0
  -24.8280  -27.7661   20.5184 C   0  0  0  0  0  0  0  0  0  0  0  0
  -23.6013  -11.0618   18.8714 C   0  0  0  0  0  0  0  0  0  0  0  0
  -22.8003  -13.5639   19.7903 C   0  0  0  0  0  0  0  0  0  0  0  0
  -23.1285  -18.4388   18.4588 C   0  0  0  0  0  0  0  0  0  0  0  0
  -27.4627  -28.5812   20.9384 C   0  0  0  0  0  0  0  0  0  0  0  0
  -25.8828  -26.9967   20.0273 C   0  0  0  0  0  0  0  0  0  0  0  0
  -22.0621  -19.2669   18.8064 C   0  0  0  0  0  0  0  0  0  0  0  0
  -29.0020  -28.0690   17.9717 C   0  0  0  0  0  0  0  0  0  0  0  0
  -30.0422  -28.7341   17.3228 C   0  0  0  0  0  0  0  0  0  0  0  0
  -23.3190  -20.0816   20.6974 C   0  0  0  0  0  0  0  0  0  0  0  0
  -31.6043  -27.8887   18.9605 C   0  0  0  0  0  0  0  0  0  0  0  0
  -25.0906  -28.9430   21.2196 C   0  0  0  0  0  0  0  0  0  0  0  0
  -23.3316  -30.7842   21.0656 C   0  0  0  0  0  0  0  0  0  0  0  0
  -24.4548  -11.7906   19.7147 C   0  0  0  0  0  0  0  0  0  0  0  0
  -24.2959  -18.4177   19.2355 C   0  0  0  0  0  0  0  0  0  0  0  0
  -24.0468  -13.0520   20.1889 C   0  0  0  0  0  0  0  0  0  0  0  0
  -24.3997  -19.2541   20.3560 C   0  0  0  0  0  0  0  0  0  0  0  0
  -27.2001  -27.4043   20.2373 C   0  0  0  0  0  0  0  0  0  0  0  0
  -22.1561  -20.0863   19.9274 C   0  0  0  0  0  0  0  0  0  0  0  0
  -29.2628  -27.3138   19.1151 C   0  0  0  0  0  0  0  0  0  0  0  0
  -31.3434  -28.6440   17.8172 C   0  0  0  0  0  0  0  0  0  0  0  0
  -30.5640  -27.2236   19.6094 C   0  0  0  0  0  0  0  0  0  0  0  0
  -24.0006  -29.7370   21.7271 C   0  0  0  0  0  0  0  0  0  0  0  0
  -22.3851  -31.2095   21.9653 C   0  0  0  0  0  0  0  0  0  0  0  0
  -23.5466  -31.3242   19.7549 C   0  0  0  0  0  0  0  0  0  0  0  0
  -25.8157  -16.2077   20.9412 C   0  0  0  0  0  0  0  0  0  0  0  0
  -28.0495  -18.5395   21.2486 C   0  0  0  0  0  0  0  0  0  0  0  0
  -28.7818  -21.8726   21.2153 C   0  0  0  0  0  0  0  0  0  0  0  0
  -19.7277  -28.3893   26.5658 C   0  0  0  0  0  0  0  0  0  0  0  0
  -25.7592  -11.1662   20.1426 C   0  0  0  0  0  0  0  0  0  0  0  0
  -25.4476  -17.5385   18.8318 C   0  0  0  0  0  0  0  0  0  0  0  0
  -25.6391  -19.2837   21.2113 C   0  0  0  0  0  0  0  0  0  0  0  0
  -26.7460  -12.1659   20.7401 C   0  0  0  0  0  0  0  0  0  0  0  0
  -21.5282  -31.5118   26.6541 C   0  0  0  0  0  0  0  0  0  0  0  0
  -26.0463  -13.0661   21.7534 C   0  0  0  0  0  0  0  0  0  0  0  0
  -22.3356  -31.4839   25.3569 C   0  0  0  0  0  0  0  0  0  0  0  0
  -21.3753  -30.1150   27.2475 C   0  0  0  0  0  0  0  0  0  0  0  0
  -21.5862  -29.0893   24.9980 C   0  0  0  0  0  0  0  0  0  0  0  0
  -24.9341  -13.8856   21.0878 C   0  0  1  0  0  0  0  0  0  0  0  0
  -26.3891  -17.2185   19.9888 C   0  0  1  0  0  0  0  0  0  0  0  0
  -21.7379  -30.4792   24.3560 C   0  0  2  0  0  0  0  0  0  0  0  0
  -30.6866  -23.4743   21.5377 C   0  0  0  0  0  0  0  0  0  0  0  0
  -27.8766  -18.1338   24.2678 C   0  0  0  0  0  0  0  0  0  0  0  0
  -29.0338  -20.3347   24.5597 C   0  0  0  0  0  0  0  0  0  0  0  0
  -30.1954  -18.4622   23.3905 C   0  0  0  0  0  0  0  0  0  0  0  0
  -28.5347  -22.9037   18.4522 C   0  0  0  0  0  0  0  0  0  0  0  0
  -20.0180  -22.5245   21.6726 C   0  0  0  0  0  0  0  0  0  0  0  0
  -20.1567  -23.4258   22.8946 C   0  0  0  0  0  0  0  0  0  0  0  0
  -21.2809  -21.7086   21.4302 C   0  0  0  0  0  0  0  0  0  1  0  0
  -18.9111  -24.2730   23.1125 C   0  0  0  0  0  0  0  0  0  0  0  0
  -18.2252  -26.7275   25.7660 C   0  0  0  0  0  0  0  0  0  0  0  0
  -17.9638  -25.8930   24.5271 C   0  0  0  0  0  0  0  0  0  0  0  0
  -28.2966  -19.6608   22.2287 C   0  0  1  0  0  0  0  0  0  0  0  0
  -29.8914  -22.6534   20.5344 C   0  0  2  0  0  0  0  0  0  0  0  0
  -28.8264  -19.1461   23.5969 C   0  0  0  0  0  0  0  0  0  0  0  0
  -23.5199  -29.5109   22.9526 N   0  0  0  0  0  0  0  0  0  0  0  0
  -22.5388  -30.4220   23.0683 N   0  0  0  0  0  0  0  0  0  0  0  0
  -26.7356  -18.4014   20.7792 N   0  0  0  0  0  0  0  0  0  0  0  0
  -20.8423  -29.1766   26.2607 N   0  0  0  0  0  0  0  0  0  0  0  0
  -21.4445  -32.1764   21.9128 N   0  0  0  0  0  0  0  0  0  0  0  0
  -24.5608  -30.7699   18.9620 N   0  0  0  0  0  0  0  0  0  0  0  0
  -25.4967  -14.9985   20.3534 N   0  0  0  0  0  0  0  0  0  0  0  0
  -29.1885  -20.6004   21.5578 N   0  0  0  0  0  0  0  0  0  0  0  0
  -29.3226  -23.5797   19.5149 N   0  3  0  0  0  0  0  0  0  0  0  0
  -22.8706  -32.2810   19.3065 O   0  0  0  0  0  0  0  0  0  0  0  0
  -25.6745  -16.5024   22.1223 O   0  0  0  0  0  0  0  0  0  0  0  0
  -28.9893  -17.8174   20.9064 O   0  0  0  0  0  0  0  0  0  0  0  0
  -27.6671  -22.3454   21.4260 O   0  0  0  0  0  0  0  0  0  0  0  0
  -19.1311  -28.4199   27.6407 O   0  0  0  0  0  0  0  0  0  0  0  0
  -28.2291  -26.6534   19.7577 O   0  0  0  0  0  0  0  0  0  0  0  0
  -21.1165  -20.8952   20.2693 O   0  0  0  0  0  0  0  0  0  1  0  0
  -19.3611  -27.5682   25.5325 O   0  0  0  0  0  0  0  0  0  0  0  0
  -19.0979  -25.0758   24.2699 O   0  0  0  0  0  0  0  0  0  0  0  0
  -32.3425  -29.2814   17.1930 F   0  0  0  0  0  0  0  0  0  0  0  0
  -30.8210  -26.4986   20.7068 F   0  0  0  0  0  0  0  0  0  0  0  0
  1  2  1  0  0  0  0
  1  5  2  0  0  0  0
  2  6  2  0  0  0  0
  3  8  2  0  0  0  0
  3 15  1  0  0  0  0
  4  9  1  0  0  0  0
  4 15  2  0  0  0  0
  5 17  1  0  0  0  0
  6 19  1  0  0  0  0
  7 10  2  0  0  0  0
  7 18  1  0  0  0  0
  8 21  1  0  0  0  0
  9 21  2  0  0  0  0
 10 22  1  0  0  0  0
 11 12  2  0  0  0  0
 11 23  1  0  0  0  0
 12 24  1  0  0  0  0
 13 20  1  0  0  0  0
 13 22  2  0  0  0  0
 14 24  2  0  0  0  0
 14 25  1  0  0  0  0
 15 26  1  0  0  0  0
 16 26  1  0  0  0  0
 16 27  2  0  0  0  0
 16 28  1  0  0  0  0
 17 19  2  0  0  0  0
 17 33  1  0  0  0  0
 18 20  2  0  0  0  0
 18 34  1  0  0  0  0
 19 42  1  0  0  0  0
 20 35  1  0  0  0  0
 21 73  1  0  0  0  0
 22 74  1  0  0  0  0
 23 25  2  0  0  0  0
 23 73  1  0  0  0  0
 24 77  1  0  0  0  0
 25 78  1  0  0  0  0
 26 59  2  0  0  0  0
 27 60  1  0  0  0  0
 27 63  1  0  0  0  0
 28 64  1  0  0  0  0
 28 68  2  0  0  0  0
 29 43  1  0  0  0  0
 29 65  1  0  0  0  0
 29 69  2  0  0  0  0
 30 56  1  0  0  0  0
 30 61  1  0  0  0  0
 30 70  2  0  0  0  0
 31 57  1  0  0  0  0
 31 66  1  0  0  0  0
 31 71  2  0  0  0  0
 32 62  1  0  0  0  0
 32 72  2  0  0  0  0
 32 75  1  0  0  0  0
 33 36  1  0  0  0  0
 34 43  1  0  0  0  0
 35 61  1  0  0  0  0
 36 38  1  0  0  0  0
 37 39  1  0  0  0  0
 37 40  1  0  0  0  0
 38 42  1  0  0  0  0
 39 44  1  0  0  0  0
 40 62  1  0  0  0  0
 41 44  1  0  0  0  0
 41 62  1  0  0  0  0
 42 65  1  0  0  0  0
 43 61  1  0  0  0  0
 44 60  1  0  0  0  0
 45 57  1  0  0  0  0
 46 58  1  0  0  0  0
 47 58  1  0  0  0  0
 48 58  1  0  0  0  0
 49 67  1  0  0  0  0
 50 51  1  0  0  0  0
 50 52  1  0  0  0  0
 51 53  1  0  0  0  0
 52 74  1  0  0  0  0
 53 76  1  0  0  0  0
 54 55  1  0  0  0  0
 54 75  1  0  0  0  0
 55 76  1  0  0  0  0
 56 58  1  0  0  0  0
 56 66  1  0  0  0  0
 57 67  1  0  0  0  0
 59 60  1  0  0  0  0
M  CHG  1  67   1
M  ISO  4  32 100  52 101  74 101  75 100
M  END
> <Batch ID>
0002

> <Smiles>
CNC(C)C(=O)NC(C(=O)N1Cc2cc([101O:1][101CH2:1]CCCOCC[100O:0][100C:0](=O)N3CCCC(n4nc(-c5ccc(Oc6ccc(F)cc6F)cc5)c(C(N)=O)c4N)C3)ccc2CC1C(=O)NC1CCCc2ccccc21)C(C)(C)C

> <Shape>
0.189

> <Color>
0.085

> <Negative vol penalty>
0.000

$$$$

  -OEChem-04052315183D

 74 81  0     1  0  0  0  0  0999 V2000
  -28.2370  -24.4861   17.1417 C   0  0  0  0  0  0  0  0  0  0  0  0
  -27.0905  -25.1970   17.4776 C   0  0  0  0  0  0  0  0  0  0  0  0
  -23.9976  -17.2212   19.7044 C   0  0  0  0  0  0  0  0  0  0  0  0
  -21.6114  -17.5982   19.7372 C   0  0  0  0  0  0  0  0  0  0  0  0
  -29.3729  -24.5840   17.9426 C   0  0  0  0  0  0  0  0  0  0  0  0
  -27.0832  -26.0153   18.6078 C   0  0  0  0  0  0  0  0  0  0  0  0
  -23.1087  -28.8301   19.3032 C   0  0  0  0  0  0  0  0  0  0  0  0
  -23.7896  -15.8777   20.0166 C   0  0  0  0  0  0  0  0  0  0  0  0
  -21.4034  -16.2547   20.0494 C   0  0  0  0  0  0  0  0  0  0  0  0
  -21.8764  -28.3102   19.6969 C   0  0  0  0  0  0  0  0  0  0  0  0
  -23.8696  -12.2693   20.4498 C   0  0  0  0  0  0  0  0  0  0  0  0
  -24.5945  -11.3172   19.7332 C   0  0  0  0  0  0  0  0  0  0  0  0
  -22.2606  -29.1131   21.9389 C   0  0  0  0  0  0  0  0  0  0  0  0
  -23.5960  -12.1033   17.6784 C   0  0  0  0  0  0  0  0  0  0  0  0
  -22.9085  -18.0814   19.5647 C   0  0  0  0  0  0  0  0  0  0  0  0
  -23.1955  -20.0430   17.9592 C   0  0  0  0  0  0  0  0  0  0  0  0
  -29.3747  -25.3944   19.0898 C   0  0  0  0  0  0  0  0  0  0  0  0
  -23.9324  -29.4870   20.2287 C   0  0  0  0  0  0  0  0  0  0  0  0
  -28.2273  -26.1461   19.4155 C   0  0  0  0  0  0  0  0  0  0  0  0
  -23.5017  -29.6426   21.5540 C   0  0  0  0  0  0  0  0  0  0  0  0
  -22.4925  -15.3945   20.1891 C   0  0  0  0  0  0  0  0  0  0  0  0
  -21.4534  -28.4491   21.0155 C   0  0  0  0  0  0  0  0  0  0  0  0
  -23.0077  -13.1384   19.7807 C   0  0  0  0  0  0  0  0  0  0  0  0
  -24.4578  -11.2342   18.3475 C   0  0  0  0  0  0  0  0  0  0  0  0
  -22.8709  -13.0554   18.3951 C   0  0  0  0  0  0  0  0  0  0  0  0
  -23.1227  -19.4695   19.2428 C   0  0  0  0  0  0  0  0  0  0  0  0
  -23.4090  -21.3796   18.1920 C   0  0  0  0  0  0  0  0  0  0  0  0
  -23.0803  -19.4229   16.6716 C   0  0  0  0  0  0  0  0  0  0  0  0
  -26.8422  -28.9749   21.4010 C   0  0  0  0  0  0  0  0  0  0  0  0
  -26.3567  -31.8553   22.8116 C   0  0  0  0  0  0  0  0  0  0  0  0
  -24.1398  -34.1868   23.9501 C   0  0  0  0  0  0  0  0  0  0  0  0
  -22.1653  -24.9610   22.8264 C   0  0  0  0  0  0  0  0  0  0  0  0
  -30.6340  -25.4698   19.9166 C   0  0  0  0  0  0  0  0  0  0  0  0
  -25.2470  -30.0656   19.7819 C   0  0  0  0  0  0  0  0  0  0  0  0
  -24.3398  -30.3572   22.5814 C   0  0  0  0  0  0  0  0  0  0  0  0
  -30.3902  -26.0052   21.3238 C   0  0  0  0  0  0  0  0  0  0  0  0
  -25.3644  -24.3589   21.3844 C   0  0  0  0  0  0  0  0  0  0  0  0
  -29.5719  -27.2861   21.2580 C   0  0  0  0  0  0  0  0  0  0  0  0
  -25.1592  -23.0892   20.5562 C   0  0  0  0  0  0  0  0  0  0  0  0
  -24.5549  -24.3253   22.6788 C   0  0  0  0  0  0  0  0  0  0  0  0
  -22.9098  -22.7899   21.6739 C   0  0  0  0  0  0  0  0  0  0  0  0
  -28.1862  -27.0186   20.6570 C   0  0  1  0  0  0  0  0  0  0  0  0
  -26.2328  -30.2646   20.9290 C   0  0  1  0  0  0  0  0  0  0  0  0
  -23.6624  -22.8016   20.3323 C   0  0  2  0  0  0  0  0  0  0  0  0
  -24.0417  -36.4211   25.0884 C   0  0  0  0  0  0  0  0  0  0  0  0
  -27.0386  -30.5268   25.4724 C   0  0  0  0  0  0  0  0  0  0  0  0
  -26.0199  -32.4953   26.6367 C   0  0  0  0  0  0  0  0  0  0  0  0
  -28.0109  -32.8106   25.1672 C   0  0  0  0  0  0  0  0  0  0  0  0
  -22.7535  -35.4283   21.6488 C   0  0  0  0  0  0  0  0  0  0  0  0
  -18.9463  -25.9462   21.6711 C   0  0  0  0  0  0  0  0  0  0  0  0
  -19.7364  -25.4678   22.8817 C   0  0  0  0  0  0  0  0  0  0  0  0
  -19.7817  -26.7851   20.7116 C   0  0  0  0  0  0  0  0  0  1  0  0
  -25.7630  -32.3184   24.1200 C   0  0  1  0  0  0  0  0  0  0  0  0
  -24.0705  -35.6906   23.7549 C   0  0  2  0  0  0  0  0  0  0  0  0
  -26.6930  -32.0226   25.3304 C   0  0  0  0  0  0  0  0  0  0  0  0
  -23.2776  -20.3682   20.2186 N   0  0  0  0  0  0  0  0  0  0  0  0
  -23.4499  -21.5200   19.5480 N   0  0  0  0  0  0  0  0  0  0  0  0
  -25.6199  -30.9000   22.0973 N   0  0  0  0  0  0  0  0  0  0  0  0
  -23.1441  -24.0498   22.3967 N   0  0  0  0  0  0  0  0  0  0  0  0
  -23.5640  -22.4369   17.3670 N   0  0  0  0  0  0  0  0  0  0  0  0
  -22.8617  -18.0397   16.6133 N   0  0  0  0  0  0  0  0  0  0  0  0
  -27.5233  -28.2817   20.4185 N   0  0  0  0  0  0  0  0  0  0  0  0
  -25.4410  -33.7306   23.9450 N   0  0  0  0  0  0  0  0  0  0  0  0
  -20.8535  -24.6272   22.5125 N   0  0  0  0  0  0  0  0  0  0  0  0
  -22.8445  -36.0579   22.9913 N   0  3  0  0  0  0  0  0  0  0  0  0
  -23.1849  -20.0734   15.6042 O   0  0  0  0  0  0  0  0  0  0  0  0
  -26.7060  -28.6345   22.5703 O   0  0  0  0  0  0  0  0  0  0  0  0
  -27.4311  -32.3292   22.4336 O   0  0  0  0  0  0  0  0  0  0  0  0
  -23.1399  -33.4873   24.0965 O   0  0  0  0  0  0  0  0  0  0  0  0
  -22.4405  -25.9981   23.4394 O   0  0  0  0  0  0  0  0  0  0  0  0
  -22.2892  -14.0836   20.4935 O   0  0  0  0  0  0  0  0  0  0  0  0
  -20.2514  -27.9420   21.4025 O   0  0  0  0  0  0  0  0  0  1  0  0
  -25.1552  -10.3209   17.6593 F   0  0  0  0  0  0  0  0  0  0  0  0
  -22.0454  -13.8884   17.7467 F   0  0  0  0  0  0  0  0  0  0  0  0
  1  2  1  0  0  0  0
  1  5  2  0  0  0  0
  2  6  2  0  0  0  0
  3  8  2  0  0  0  0
  3 15  1  0  0  0  0
  4  9  1  0  0  0  0
  4 15  2  0  0  0  0
  5 17  1  0  0  0  0
  6 19  1  0  0  0  0
  7 10  2  0  0  0  0
  7 18  1  0  0  0  0
  8 21  1  0  0  0  0
  9 21  2  0  0  0  0
 10 22  1  0  0  0  0
 11 12  2  0  0  0  0
 11 23  1  0  0  0  0
 12 24  1  0  0  0  0
 13 20  1  0  0  0  0
 13 22  2  0  0  0  0
 14 24  2  0  0  0  0
 14 25  1  0  0  0  0
 15 26  1  0  0  0  0
 16 26  1  0  0  0  0
 16 27  2  0  0  0  0
 16 28  1  0  0  0  0
 17 19  2  0  0  0  0
 17 33  1  0  0  0  0
 18 20  2  0  0  0  0
 18 34  1  0  0  0  0
 19 42  1  0  0  0  0
 20 35  1  0  0  0  0
 21 71  1  0  0  0  0
 22 72  1  0  0  0  0
 23 25  2  0  0  0  0
 23 71  1  0  0  0  0
 24 73  1  0  0  0  0
 25 74  1  0  0  0  0
 26 56  2  0  0  0  0
 27 57  1  0  0  0  0
 27 60  1  0  0  0  0
 28 61  1  0  0  0  0
 28 66  2  0  0  0  0
 29 43  1  0  0  0  0
 29 62  1  0  0  0  0
 29 67  2  0  0  0  0
 30 53  1  0  0  0  0
 30 58  1  0  0  0  0
 30 68  2  0  0  0  0
 31 54  1  0  0  0  0
 31 63  1  0  0  0  0
 31 69  2  0  0  0  0
 32 59  1  0  0  0  0
 32 64  1  0  0  0  0
 32 70  2  0  0  0  0
 33 36  1  0  0  0  0
 34 43  1  0  0  0  0
 35 58  1  0  0  0  0
 36 38  1  0  0  0  0
 37 39  1  0  0  0  0
 37 40  1  0  0  0  0
 38 42  1  0  0  0  0
 39 44  1  0  0  0  0
 40 59  1  0  0  0  0
 41 44  1  0  0  0  0
 41 59  1  0  0  0  0
 42 62  1  0  0  0  0
 43 58  1  0  0  0  0
 44 57  1  0  0  0  0
 45 54  1  0  0  0  0
 46 55  1  0  0  0  0
 47 55  1  0  0  0  0
 48 55  1  0  0  0  0
 49 65  1  0  0  0  0
 50 51  1  0  0  0  0
 50 52  1  0  0  0  0
 51 64  1  0  0  0  0
 52 72  1  0  0  0  0
 53 55  1  0  0  0  0
 53 63  1  0  0  0  0
 54 65  1  0  0  0  0
 56 57  1  0  0  0  0
M  CHG  1  65   1
M  ISO  4  32 100  52 101  64 100  72 101
M  END
> <Batch ID>
0002

> <Smiles>
CNC(C)C(=O)NC(C(=O)N1Cc2cc([101O:1][101CH2:1]CC[100NH:0][100C:0](=O)N3CCCC(n4nc(-c5ccc(Oc6ccc(F)cc6F)cc5)c(C(N)=O)c4N)C3)ccc2CC1C(=O)NC1CCCc2ccccc21)C(C)(C)C

> <Shape>
0.222

> <Color>
0.068

> <Negative vol penalty>
0.000

$$$$

  -OEChem-04052315183D

 83 91  0     1  0  0  0  0  0999 V2000
  -33.9208  -25.3539   32.0477 C   0  0  0  0  0  0  0  0  0  0  0  0
  -33.2966  -24.1201   31.8941 C   0  0  0  0  0  0  0  0  0  0  0  0
  -33.8822  -11.6649   24.1037 C   0  0  0  0  0  0  0  0  0  0  0  0
  -23.1564   -9.8646   20.0535 C   0  0  0  0  0  0  0  0  0  0  0  0
  -23.8014   -9.9806   22.3789 C   0  0  0  0  0  0  0  0  0  0  0  0
  -33.4101  -11.6837   25.4161 C   0  0  0  0  0  0  0  0  0  0  0  0
  -33.8724  -26.2915   31.0170 C   0  0  0  0  0  0  0  0  0  0  0  0
  -32.6226  -23.8236   30.7099 C   0  0  0  0  0  0  0  0  0  0  0  0
  -33.6586  -19.1719   28.9973 C   0  0  0  0  0  0  0  0  0  0  0  0
  -33.0328  -12.0086   23.0520 C   0  0  0  0  0  0  0  0  0  0  0  0
  -22.4110   -8.7156   20.3176 C   0  0  0  0  0  0  0  0  0  0  0  0
  -23.0560   -8.8316   22.6430 C   0  0  0  0  0  0  0  0  0  0  0  0
  -33.0145  -18.1051   29.6225 C   0  0  0  0  0  0  0  0  0  0  0  0
  -22.9967   -5.4195   20.7835 C   0  0  0  0  0  0  0  0  0  0  0  0
  -23.1189   -4.3504   19.8961 C   0  0  0  0  0  0  0  0  0  0  0  0
  -31.2392  -12.3897   24.6250 C   0  0  0  0  0  0  0  0  0  0  0  0
  -31.4210  -18.0151   27.8137 C   0  0  0  0  0  0  0  0  0  0  0  0
  -20.7534   -4.4748   19.4204 C   0  0  0  0  0  0  0  0  0  0  0  0
  -23.8517  -10.4971   21.0841 C   0  0  0  0  0  0  0  0  0  0  0  0
  -32.0886  -12.0460   25.6768 C   0  0  0  0  0  0  0  0  0  0  0  0
  -24.1773  -13.0180   20.8689 C   0  0  0  0  0  0  0  0  0  0  0  0
  -33.2057  -26.0027   29.8158 C   0  0  0  0  0  0  0  0  0  0  0  0
  -33.1814  -19.6762   27.7789 C   0  0  0  0  0  0  0  0  0  0  0  0
  -32.5641  -24.7588   29.6626 C   0  0  0  0  0  0  0  0  0  0  0  0
  -32.0624  -19.0867   27.1738 C   0  0  0  0  0  0  0  0  0  0  0  0
  -31.7113  -12.3709   23.3126 C   0  0  0  0  0  0  0  0  0  0  0  0
  -22.3607   -8.1991   21.6123 C   0  0  0  0  0  0  0  0  0  0  0  0
  -31.8938  -17.5284   29.0321 C   0  0  0  0  0  0  0  0  0  0  0  0
  -21.7528   -6.0162   20.9896 C   0  0  0  0  0  0  0  0  0  0  0  0
  -21.9973   -3.8781   19.2145 C   0  0  0  0  0  0  0  0  0  0  0  0
  -20.6312   -5.5439   20.3080 C   0  0  0  0  0  0  0  0  0  0  0  0
  -24.6223  -11.6837   20.8118 C   0  0  0  0  0  0  0  0  0  0  0  0
  -25.2797  -13.7626   20.5268 C   0  0  0  0  0  0  0  0  0  0  0  0
  -31.5871  -12.0656   27.0751 C   0  0  0  0  0  0  0  0  0  0  0  0
  -22.8832  -13.5380   21.2015 C   0  0  0  0  0  0  0  0  0  0  0  0
  -32.0354  -22.4766   26.8051 C   0  0  0  0  0  0  0  0  0  0  0  0
  -32.1036  -21.0509   23.8922 C   0  0  0  0  0  0  0  0  0  0  0  0
  -32.0809  -18.1585   22.0810 C   0  0  0  0  0  0  0  0  0  0  0  0
  -31.1584  -12.7537   20.8848 C   0  0  0  0  0  0  0  0  0  0  0  0
  -33.1400  -27.0659   28.7482 C   0  0  0  0  0  0  0  0  0  0  0  0
  -33.9034  -20.8101   27.1041 C   0  0  0  0  0  0  0  0  0  0  0  0
  -31.5224  -19.5778   25.8563 C   0  0  0  0  0  0  0  0  0  0  0  0
  -32.7245  -26.5308   27.3803 C   0  0  0  0  0  0  0  0  0  0  0  0
  -29.3052  -13.5238   17.9438 C   0  0  0  0  0  0  0  0  0  0  0  0
  -31.5162  -25.6091   27.5121 C   0  0  0  0  0  0  0  0  0  0  0  0
  -27.8530  -13.2666   18.3525 C   0  0  0  0  0  0  0  0  0  0  0  0
  -30.2605  -12.5157   18.5800 C   0  0  0  0  0  0  0  0  0  0  0  0
  -28.7000  -12.1360   20.4481 C   0  0  0  0  0  0  0  0  0  0  0  0
  -31.8443  -24.3906   28.3834 C   0  0  1  0  0  0  0  0  0  0  0  0
  -33.0248  -21.5767   26.1203 C   0  0  1  0  0  0  0  0  0  0  0  0
  -27.7079  -13.1660   19.8837 C   0  0  2  0  0  0  0  0  0  0  0  0
  -32.1069  -17.3136   19.7183 C   0  0  0  0  0  0  0  0  0  0  0  0
  -29.1632  -21.8084   23.5915 C   0  0  0  0  0  0  0  0  0  0  0  0
  -29.0022  -20.1589   21.7149 C   0  0  0  0  0  0  0  0  0  0  0  0
  -30.5366  -22.1165   21.5243 C   0  0  0  0  0  0  0  0  0  0  0  0
  -34.6316  -16.7177   22.5016 C   0  0  0  0  0  0  0  0  0  0  0  0
  -30.6553  -14.1728   29.4629 C   0  0  0  0  0  0  0  0  0  0  0  0
  -29.9626  -13.0911   28.6452 C   0  0  0  0  0  0  0  0  0  0  0  0
  -30.6073  -15.5422   28.7961 C   0  0  0  0  0  0  0  0  0  1  0  0
  -31.1349  -20.2202   23.0856 C   0  0  1  0  0  0  0  0  0  0  0  0
  -32.9487  -17.6844   20.9293 C   0  0  2  0  0  0  0  0  0  0  0  0
  -29.9680  -21.0678   22.5049 C   0  0  0  0  0  0  0  0  0  0  0  0
  -25.9072  -11.5832   20.4610 N   0  0  0  0  0  0  0  0  0  0  0  0
  -26.2789  -12.8639   20.2944 N   0  0  0  0  0  0  0  0  0  0  0  0
  -32.2592  -20.6929   25.2389 N   0  0  0  0  0  0  0  0  0  0  0  0
  -30.0691  -12.4779   20.0315 N   0  0  0  0  0  0  0  0  0  0  0  0
  -25.4820  -15.0917   20.4051 N   0  0  0  0  0  0  0  0  0  0  0  0
  -21.8637  -12.6337   21.5286 N   0  0  0  0  0  0  0  0  0  0  0  0
  -30.8488  -12.7203   22.2441 N   0  0  0  0  0  0  0  0  0  0  0  0
  -30.5390  -12.9406   27.3378 N   0  0  0  0  0  0  0  0  0  0  0  0
  -32.6128  -23.4229   27.6302 N   0  0  0  0  0  0  0  0  0  0  0  0
  -31.9311  -19.5292   22.0771 N   0  0  0  0  0  0  0  0  0  0  0  0
  -33.7404  -16.4889   21.3353 N   0  3  0  0  0  0  0  0  0  0  0  0
  -32.1202  -11.3440   27.9138 O   0  0  0  0  0  0  0  0  0  0  0  0
  -22.6338  -14.7674   21.1923 O   0  0  0  0  0  0  0  0  0  0  0  0
  -30.8370  -22.3247   26.5991 O   0  0  0  0  0  0  0  0  0  0  0  0
  -32.7055  -21.9786   23.3457 O   0  0  0  0  0  0  0  0  0  0  0  0
  -31.5824  -17.3895   22.8999 O   0  0  0  0  0  0  0  0  0  0  0  0
  -32.2766  -13.0279   20.4418 O   0  0  0  0  0  0  0  0  0  0  0  0
  -21.6333   -7.0781   21.8704 O   0  0  0  0  0  0  0  0  0  0  0  0
  -31.2629  -16.4875   29.6405 O   0  0  0  0  0  0  0  0  0  1  0  0
  -22.1151   -2.8524   18.3611 F   0  0  0  0  0  0  0  0  0  0  0  0
  -19.4338   -6.1139   20.5009 F   0  0  0  0  0  0  0  0  0  0  0  0
  1  2  1  0  0  0  0
  1  7  2  0  0  0  0
  2  8  2  0  0  0  0
  3  6  2  0  0  0  0
  3 10  1  0  0  0  0
  4 11  2  0  0  0  0
  4 19  1  0  0  0  0
  5 12  1  0  0  0  0
  5 19  2  0  0  0  0
  6 20  1  0  0  0  0
  7 22  1  0  0  0  0
  8 24  1  0  0  0  0
  9 13  2  0  0  0  0
  9 23  1  0  0  0  0
 10 26  2  0  0  0  0
 11 27  1  0  0  0  0
 12 27  2  0  0  0  0
 13 28  1  0  0  0  0
 14 15  2  0  0  0  0
 14 29  1  0  0  0  0
 15 30  1  0  0  0  0
 16 20  2  0  0  0  0
 16 26  1  0  0  0  0
 17 25  1  0  0  0  0
 17 28  2  0  0  0  0
 18 30  2  0  0  0  0
 18 31  1  0  0  0  0
 19 32  1  0  0  0  0
 20 34  1  0  0  0  0
 21 32  1  0  0  0  0
 21 33  2  0  0  0  0
 21 35  1  0  0  0  0
 22 24  2  0  0  0  0
 22 40  1  0  0  0  0
 23 25  2  0  0  0  0
 23 41  1  0  0  0  0
 24 49  1  0  0  0  0
 25 42  1  0  0  0  0
 26 69  1  0  0  0  0
 27 80  1  0  0  0  0
 28 81  1  0  0  0  0
 29 31  2  0  0  0  0
 29 80  1  0  0  0  0
 30 82  1  0  0  0  0
 31 83  1  0  0  0  0
 32 63  2  0  0  0  0
 33 64  1  0  0  0  0
 33 67  1  0  0  0  0
 34 70  1  0  0  0  0
 34 74  2  0  0  0  0
 35 68  1  0  0  0  0
 35 75  2  0  0  0  0
 36 50  1  0  0  0  0
 36 71  1  0  0  0  0
 36 76  2  0  0  0  0
 37 60  1  0  0  0  0
 37 65  1  0  0  0  0
 37 77  2  0  0  0  0
 38 61  1  0  0  0  0
 38 72  1  0  0  0  0
 38 78  2  0  0  0  0
 39 66  1  0  0  0  0
 39 69  1  0  0  0  0
 39 79  2  0  0  0  0
 40 43  1  0  0  0  0
 41 50  1  0  0  0  0
 42 65  1  0  0  0  0
 43 45  1  0  0  0  0
 44 46  1  0  0  0  0
 44 47  1  0  0  0  0
 45 49  1  0  0  0  0
 46 51  1  0  0  0  0
 47 66  1  0  0  0  0
 48 51  1  0  0  0  0
 48 66  1  0  0  0  0
 49 71  1  0  0  0  0
 50 65  1  0  0  0  0
 51 64  1  0  0  0  0
 52 61  1  0  0  0  0
 53 62  1  0  0  0  0
 54 62  1  0  0  0  0
 55 62  1  0  0  0  0
 56 73  1  0  0  0  0
 57 58  1  0  0  0  0
 57 59  1  0  0  0  0
 58 70  1  0  0  0  0
 59 81  1  0  0  0  0
 60 62  1  0  0  0  0
 60 72  1  0  0  0  0
 61 73  1  0  0  0  0
 63 64  1  0  0  0  0
M  CHG  1  73   1
M  ISO  4  39 100  59 101  69 100  81 101
M  END
> <Batch ID>
0002

> <Smiles>
CNC(C)C(=O)NC(C(=O)N1Cc2cc([101O:1][101CH2:1]CCNC(=O)c3cccc([100NH:0][100C:0](=O)N4CCCC(n5nc(-c6ccc(Oc7ccc(F)cc7F)cc6)c(C(N)=O)c5N)C4)c3)ccc2CC1C(=O)NC1CCCc2ccccc21)C(C)(C)C

> <Shape>
0.142

> <Color>
0.167

> <Negative vol penalty>
0.000

$$$$

  -OEChem-04052315183D

 83 91  0     1  0  0  0  0  0999 V2000
  -25.9260  -25.7519   11.3920 C   0  0  0  0  0  0  0  0  0  0  0  0
  -25.5531  -26.5628   12.4591 C   0  0  0  0  0  0  0  0  0  0  0  0
  -23.2003  -14.2011   19.6293 C   0  0  0  0  0  0  0  0  0  0  0  0
  -24.7345  -15.7412   20.6836 C   0  0  0  0  0  0  0  0  0  0  0  0
  -26.0767  -24.3787   11.5809 C   0  0  0  0  0  0  0  0  0  0  0  0
  -25.3296  -26.0009   13.7156 C   0  0  0  0  0  0  0  0  0  0  0  0
  -26.5338  -28.5463   19.1540 C   0  0  0  0  0  0  0  0  0  0  0  0
  -20.2130  -26.1172   19.3161 C   0  0  0  0  0  0  0  0  0  0  0  0
  -21.5930  -25.5147   21.2055 C   0  0  0  0  0  0  0  0  0  0  0  0
  -20.6807  -25.0031   18.6192 C   0  0  0  0  0  0  0  0  0  0  0  0
  -22.0607  -24.4005   20.5086 C   0  0  0  0  0  0  0  0  0  0  0  0
  -24.1580  -13.1904   19.7120 C   0  0  0  0  0  0  0  0  0  0  0  0
  -25.6923  -14.7305   20.7664 C   0  0  0  0  0  0  0  0  0  0  0  0
  -25.7298  -29.2181   20.0739 C   0  0  0  0  0  0  0  0  0  0  0  0
  -27.9124  -13.2274   18.7066 C   0  0  0  0  0  0  0  0  0  0  0  0
  -29.2208  -13.5428   18.3404 C   0  0  0  0  0  0  0  0  0  0  0  0
  -25.4327  -27.1648   21.3047 C   0  0  0  0  0  0  0  0  0  0  0  0
  -29.9807  -12.9684   20.5607 C   0  0  0  0  0  0  0  0  0  0  0  0
  -23.4886  -15.4765   20.1151 C   0  0  0  0  0  0  0  0  0  0  0  0
  -21.5189  -16.8437   20.9862 C   0  0  0  0  0  0  0  0  0  0  0  0
  -25.8643  -23.8010   12.8426 C   0  0  0  0  0  0  0  0  0  0  0  0
  -26.7848  -27.1741   19.2968 C   0  0  0  0  0  0  0  0  0  0  0  0
  -25.4762  -24.6185   13.9212 C   0  0  0  0  0  0  0  0  0  0  0  0
  -26.2423  -26.4785   20.3867 C   0  0  0  0  0  0  0  0  0  0  0  0
  -20.6692  -26.3730   20.6093 C   0  0  0  0  0  0  0  0  0  0  0  0
  -21.6045  -24.1448   19.2155 C   0  0  0  0  0  0  0  0  0  0  0  0
  -25.4040  -13.4551   20.2806 C   0  0  0  0  0  0  0  0  0  0  0  0
  -25.1768  -28.5268   21.1478 C   0  0  0  0  0  0  0  0  0  0  0  0
  -27.6381  -12.7825   19.9999 C   0  0  0  0  0  0  0  0  0  0  0  0
  -30.2550  -13.4133   19.2674 C   0  0  0  0  0  0  0  0  0  0  0  0
  -28.6722  -12.6530   20.9269 C   0  0  0  0  0  0  0  0  0  0  0  0
  -22.4999  -16.5212   20.0294 C   0  0  0  0  0  0  0  0  0  0  0  0
  -20.8370  -17.9013   20.4356 C   0  0  0  0  0  0  0  0  0  0  0  0
  -21.2484  -16.2414   22.2588 C   0  0  0  0  0  0  0  0  0  0  0  0
  -26.1796  -24.5893   17.5485 C   0  0  0  0  0  0  0  0  0  0  0  0
  -27.9694  -23.1140   19.8162 C   0  0  0  0  0  0  0  0  0  0  0  0
  -21.0061  -28.8183   21.1429 C   0  0  0  0  0  0  0  0  0  0  0  0
  -29.1745  -23.1135   23.0091 C   0  0  0  0  0  0  0  0  0  0  0  0
  -21.7291  -22.6143   17.2183 C   0  0  0  0  0  0  0  0  0  0  0  0
  -25.9933  -22.3053   12.9871 C   0  0  0  0  0  0  0  0  0  0  0  0
  -27.6759  -26.4697   18.3108 C   0  0  0  0  0  0  0  0  0  0  0  0
  -26.4978  -25.0090   20.5963 C   0  0  0  0  0  0  0  0  0  0  0  0
  -26.1023  -21.8406   14.4371 C   0  0  0  0  0  0  0  0  0  0  0  0
  -20.2645  -19.6713   15.8506 C   0  0  0  0  0  0  0  0  0  0  0  0
  -25.0489  -22.5293   15.2990 C   0  0  0  0  0  0  0  0  0  0  0  0
  -20.5948  -18.5894   16.8813 C   0  0  0  0  0  0  0  0  0  0  0  0
  -21.4051  -20.6760   15.6976 C   0  0  0  0  0  0  0  0  0  0  0  0
  -22.1983  -20.2034   17.9816 C   0  0  0  0  0  0  0  0  0  0  0  0
  -25.2489  -24.0497   15.3050 C   0  0  1  0  0  0  0  0  0  0  0  0
  -27.4451  -24.9623   18.2676 C   0  0  1  0  0  0  0  0  0  0  0  0
  -21.0530  -19.2053   18.2178 C   0  0  2  0  0  0  0  0  0  0  0  0
  -30.5795  -21.7561   24.5842 C   0  0  0  0  0  0  0  0  0  0  0  0
  -25.6549  -21.1621   20.1948 C   0  0  0  0  0  0  0  0  0  0  0  0
  -26.6919  -20.4614   22.3631 C   0  0  0  0  0  0  0  0  0  0  0  0
  -27.9229  -20.1088   20.2224 C   0  0  0  0  0  0  0  0  0  0  0  0
  -31.1500  -25.2962   23.3123 C   0  0  0  0  0  0  0  0  0  0  0  0
  -20.1643  -27.5758   21.3615 C   0  0  0  0  0  0  0  0  0  0  0  0
  -22.3850  -30.4565   22.4018 C   0  0  0  0  0  0  0  0  0  0  0  0
  -23.6413  -30.2943   21.5649 C   0  0  0  0  0  0  0  0  0  1  0  0
  -27.6814  -22.4515   21.1418 C   0  0  1  0  0  0  0  0  0  0  0  0
  -30.5699  -22.8794   23.5590 C   0  0  2  0  0  0  0  0  0  0  0  0
  -26.9812  -21.0732   20.9758 C   0  0  0  0  0  0  0  0  0  0  0  0
  -22.4490  -17.3098   18.9526 N   0  0  0  0  0  0  0  0  0  0  0  0
  -21.4277  -18.1384   19.2294 N   0  0  0  0  0  0  0  0  0  0  0  0
  -27.3705  -24.3634   19.6017 N   0  0  0  0  0  0  0  0  0  0  0  0
  -21.7830  -21.2209   17.0034 N   0  0  0  0  0  0  0  0  0  0  0  0
  -19.7956  -18.6421   20.8705 N   0  0  0  0  0  0  0  0  0  0  0  0
  -22.0449  -15.1644   22.6711 N   0  0  0  0  0  0  0  0  0  0  0  0
  -22.0796  -23.0128   18.5079 N   0  0  0  0  0  0  0  0  0  0  0  0
  -26.3372  -24.4128   16.1871 N   0  0  0  0  0  0  0  0  0  0  0  0
  -21.5436  -29.2912   22.3349 N   0  0  0  0  0  0  0  0  0  0  0  0
  -28.9533  -22.3936   21.8541 N   0  0  0  0  0  0  0  0  0  0  0  0
  -31.0834  -24.1164   24.2125 N   0  3  0  0  0  0  0  0  0  0  0  0
  -20.3170  -16.6355   23.0009 O   0  0  0  0  0  0  0  0  0  0  0  0
  -25.1377  -24.4689   18.1822 O   0  0  0  0  0  0  0  0  0  0  0  0
  -28.7046  -22.5471   19.0039 O   0  0  0  0  0  0  0  0  0  0  0  0
  -21.1855  -29.3304   20.0409 O   0  0  0  0  0  0  0  0  0  0  0  0
  -28.3607  -23.8575   23.5520 O   0  0  0  0  0  0  0  0  0  0  0  0
  -21.3704  -23.3943   16.3323 O   0  0  0  0  0  0  0  0  0  0  0  0
  -26.3387  -12.4690   20.3617 O   0  0  0  0  0  0  0  0  0  0  0  0
  -24.3912  -29.1799   22.0467 O   0  0  0  0  0  0  0  0  0  1  0  0
  -31.5116  -13.7148   18.9151 F   0  0  0  0  0  0  0  0  0  0  0  0
  -28.4151  -12.2250   22.1704 F   0  0  0  0  0  0  0  0  0  0  0  0
  1  2  1  0  0  0  0
  1  5  2  0  0  0  0
  2  6  2  0  0  0  0
  3 12  2  0  0  0  0
  3 19  1  0  0  0  0
  4 13  1  0  0  0  0
  4 19  2  0  0  0  0
  5 21  1  0  0  0  0
  6 23  1  0  0  0  0
  7 14  2  0  0  0  0
  7 22  1  0  0  0  0
  8 10  2  0  0  0  0
  8 25  1  0  0  0  0
  9 11  1  0  0  0  0
  9 25  2  0  0  0  0
 10 26  1  0  0  0  0
 11 26  2  0  0  0  0
 12 27  1  0  0  0  0
 13 27  2  0  0  0  0
 14 28  1  0  0  0  0
 15 16  2  0  0  0  0
 15 29  1  0  0  0  0
 16 30  1  0  0  0  0
 17 24  1  0  0  0  0
 17 28  2  0  0  0  0
 18 30  2  0  0  0  0
 18 31  1  0  0  0  0
 19 32  1  0  0  0  0
 20 32  1  0  0  0  0
 20 33  2  0  0  0  0
 20 34  1  0  0  0  0
 21 23  2  0  0  0  0
 21 40  1  0  0  0  0
 22 24  2  0  0  0  0
 22 41  1  0  0  0  0
 23 49  1  0  0  0  0
 24 42  1  0  0  0  0
 25 57  1  0  0  0  0
 26 69  1  0  0  0  0
 27 80  1  0  0  0  0
 28 81  1  0  0  0  0
 29 31  2  0  0  0  0
 29 80  1  0  0  0  0
 30 82  1  0  0  0  0
 31 83  1  0  0  0  0
 32 63  2  0  0  0  0
 33 64  1  0  0  0  0
 33 67  1  0  0  0  0
 34 68  1  0  0  0  0
 34 74  2  0  0  0  0
 35 50  1  0  0  0  0
 35 70  1  0  0  0  0
 35 75  2  0  0  0  0
 36 60  1  0  0  0  0
 36 65  1  0  0  0  0
 36 76  2  0  0  0  0
 37 57  1  0  0  0  0
 37 71  1  0  0  0  0
 37 77  2  0  0  0  0
 38 61  1  0  0  0  0
 38 72  1  0  0  0  0
 38 78  2  0  0  0  0
 39 66  1  0  0  0  0
 39 69  1  0  0  0  0
 39 79  2  0  0  0  0
 40 43  1  0  0  0  0
 41 50  1  0  0  0  0
 42 65  1  0  0  0  0
 43 45  1  0  0  0  0
 44 46  1  0  0  0  0
 44 47  1  0  0  0  0
 45 49  1  0  0  0  0
 46 51  1  0  0  0  0
 47 66  1  0  0  0  0
 48 51  1  0  0  0  0
 48 66  1  0  0  0  0
 49 70  1  0  0  0  0
 50 65  1  0  0  0  0
 51 64  1  0  0  0  0
 52 61  1  0  0  0  0
 53 62  1  0  0  0  0
 54 62  1  0  0  0  0
 55 62  1  0  0  0  0
 56 73  1  0  0  0  0
 58 59  1  0  0  0  0
 58 71  1  0  0  0  0
 59 81  1  0  0  0  0
 60 62  1  0  0  0  0
 60 72  1  0  0  0  0
 61 73  1  0  0  0  0
 63 64  1  0  0  0  0
M  CHG  1  73   1
M  ISO  4  39 100  59 101  69 100  81 101
M  END
> <Batch ID>
0002

> <Smiles>
CNC(C)C(=O)NC(C(=O)N1Cc2cc([101O:1][101CH2:1]CNC(=O)Cc3ccc([100NH:0][100C:0](=O)N4CCCC(n5nc(-c6ccc(Oc7ccc(F)cc7F)cc6)c(C(N)=O)c5N)C4)cc3)ccc2CC1C(=O)NC1CCCc2ccccc21)C(C)(C)C

> <Shape>
0.168

> <Color>
0.076

> <Negative vol penalty>
0.000

$$$$

  -OEChem-04052315183D

 74 81  0     1  0  0  0  0  0999 V2000
  -28.2370  -24.4861   17.1417 C   0  0  0  0  0  0  0  0  0  0  0  0
  -27.0905  -25.1970   17.4776 C   0  0  0  0  0  0  0  0  0  0  0  0
  -23.9976  -17.2212   19.7044 C   0  0  0  0  0  0  0  0  0  0  0  0
  -21.6114  -17.5982   19.7372 C   0  0  0  0  0  0  0  0  0  0  0  0
  -29.3729  -24.5840   17.9426 C   0  0  0  0  0  0  0  0  0  0  0  0
  -27.0832  -26.0153   18.6078 C   0  0  0  0  0  0  0  0  0  0  0  0
  -23.1087  -28.8301   19.3032 C   0  0  0  0  0  0  0  0  0  0  0  0
  -23.7896  -15.8777   20.0166 C   0  0  0  0  0  0  0  0  0  0  0  0
  -21.4034  -16.2547   20.0494 C   0  0  0  0  0  0  0  0  0  0  0  0
  -21.8764  -28.3102   19.6969 C   0  0  0  0  0  0  0  0  0  0  0  0
  -23.8696  -12.2693   20.4498 C   0  0  0  0  0  0  0  0  0  0  0  0
  -24.5945  -11.3172   19.7332 C   0  0  0  0  0  0  0  0  0  0  0  0
  -22.2606  -29.1131   21.9389 C   0  0  0  0  0  0  0  0  0  0  0  0
  -23.5960  -12.1033   17.6784 C   0  0  0  0  0  0  0  0  0  0  0  0
  -22.9085  -18.0814   19.5647 C   0  0  0  0  0  0  0  0  0  0  0  0
  -23.1955  -20.0430   17.9592 C   0  0  0  0  0  0  0  0  0  0  0  0
  -29.3747  -25.3944   19.0898 C   0  0  0  0  0  0  0  0  0  0  0  0
  -23.9324  -29.4870   20.2287 C   0  0  0  0  0  0  0  0  0  0  0  0
  -28.2273  -26.1461   19.4155 C   0  0  0  0  0  0  0  0  0  0  0  0
  -23.5017  -29.6426   21.5540 C   0  0  0  0  0  0  0  0  0  0  0  0
  -22.4925  -15.3945   20.1891 C   0  0  0  0  0  0  0  0  0  0  0  0
  -21.4534  -28.4491   21.0155 C   0  0  0  0  0  0  0  0  0  0  0  0
  -23.0077  -13.1384   19.7807 C   0  0  0  0  0  0  0  0  0  0  0  0
  -24.4578  -11.2342   18.3475 C   0  0  0  0  0  0  0  0  0  0  0  0
  -22.8709  -13.0554   18.3951 C   0  0  0  0  0  0  0  0  0  0  0  0
  -23.1227  -19.4695   19.2428 C   0  0  0  0  0  0  0  0  0  0  0  0
  -23.4090  -21.3796   18.1920 C   0  0  0  0  0  0  0  0  0  0  0  0
  -23.0803  -19.4229   16.6716 C   0  0  0  0  0  0  0  0  0  0  0  0
  -26.8422  -28.9749   21.4010 C   0  0  0  0  0  0  0  0  0  0  0  0
  -26.3567  -31.8553   22.8116 C   0  0  0  0  0  0  0  0  0  0  0  0
  -24.1398  -34.1868   23.9501 C   0  0  0  0  0  0  0  0  0  0  0  0
  -22.1653  -24.9610   22.8264 C   0  0  0  0  0  0  0  0  0  0  0  0
  -30.6340  -25.4698   19.9166 C   0  0  0  0  0  0  0  0  0  0  0  0
  -25.2470  -30.0656   19.7819 C   0  0  0  0  0  0  0  0  0  0  0  0
  -24.3398  -30.3572   22.5814 C   0  0  0  0  0  0  0  0  0  0  0  0
  -30.3902  -26.0052   21.3238 C   0  0  0  0  0  0  0  0  0  0  0  0
  -25.3644  -24.3589   21.3844 C   0  0  0  0  0  0  0  0  0  0  0  0
  -29.5719  -27.2861   21.2580 C   0  0  0  0  0  0  0  0  0  0  0  0
  -25.1592  -23.0892   20.5562 C   0  0  0  0  0  0  0  0  0  0  0  0
  -24.5549  -24.3253   22.6788 C   0  0  0  0  0  0  0  0  0  0  0  0
  -22.9098  -22.7899   21.6739 C   0  0  0  0  0  0  0  0  0  0  0  0
  -28.1862  -27.0186   20.6570 C   0  0  1  0  0  0  0  0  0  0  0  0
  -26.2328  -30.2646   20.9290 C   0  0  1  0  0  0  0  0  0  0  0  0
  -23.6624  -22.8016   20.3323 C   0  0  2  0  0  0  0  0  0  0  0  0
  -24.0417  -36.4211   25.0884 C   0  0  0  0  0  0  0  0  0  0  0  0
  -27.0386  -30.5268   25.4724 C   0  0  0  0  0  0  0  0  0  0  0  0
  -26.0199  -32.4953   26.6367 C   0  0  0  0  0  0  0  0  0  0  0  0
  -28.0109  -32.8106   25.1672 C   0  0  0  0  0  0  0  0  0  0  0  0
  -22.7535  -35.4283   21.6488 C   0  0  0  0  0  0  0  0  0  0  0  0
  -18.9463  -25.9462   21.6711 C   0  0  0  0  0  0  0  0  0  0  0  0
  -19.7364  -25.4678   22.8817 C   0  0  0  0  0  0  0  0  0  0  0  0
  -19.7817  -26.7851   20.7116 C   0  0  0  0  0  0  0  0  0  1  0  0
  -25.7630  -32.3184   24.1200 C   0  0  1  0  0  0  0  0  0  0  0  0
  -24.0705  -35.6906   23.7549 C   0  0  2  0  0  0  0  0  0  0  0  0
  -26.6930  -32.0226   25.3304 C   0  0  0  0  0  0  0  0  0  0  0  0
  -23.2776  -20.3682   20.2186 N   0  0  0  0  0  0  0  0  0  0  0  0
  -23.4499  -21.5200   19.5480 N   0  0  0  0  0  0  0  0  0  0  0  0
  -25.6199  -30.9000   22.0973 N   0  0  0  0  0  0  0  0  0  0  0  0
  -23.1441  -24.0498   22.3967 N   0  0  0  0  0  0  0  0  0  0  0  0
  -23.5640  -22.4369   17.3670 N   0  0  0  0  0  0  0  0  0  0  0  0
  -22.8617  -18.0397   16.6133 N   0  0  0  0  0  0  0  0  0  0  0  0
  -27.5233  -28.2817   20.4185 N   0  0  0  0  0  0  0  0  0  0  0  0
  -25.4410  -33.7306   23.9450 N   0  0  0  0  0  0  0  0  0  0  0  0
  -20.8535  -24.6272   22.5125 N   0  0  0  0  0  0  0  0  0  0  0  0
  -22.8445  -36.0579   22.9913 N   0  3  0  0  0  0  0  0  0  0  0  0
  -23.1849  -20.0734   15.6042 O   0  0  0  0  0  0  0  0  0  0  0  0
  -26.7060  -28.6345   22.5703 O   0  0  0  0  0  0  0  0  0  0  0  0
  -27.4311  -32.3292   22.4336 O   0  0  0  0  0  0  0  0  0  0  0  0
  -23.1399  -33.4873   24.0965 O   0  0  0  0  0  0  0  0  0  0  0  0
  -22.4405  -25.9981   23.4394 O   0  0  0  0  0  0  0  0  0  0  0  0
  -22.2892  -14.0836   20.4935 O   0  0  0  0  0  0  0  0  0  0  0  0
  -20.2514  -27.9420   21.4025 O   0  0  0  0  0  0  0  0  0  1  0  0
  -25.1552  -10.3209   17.6593 F   0  0  0  0  0  0  0  0  0  0  0  0
  -22.0454  -13.8884   17.7467 F   0  0  0  0  0  0  0  0  0  0  0  0
  1  2  1  0  0  0  0
  1  5  2  0  0  0  0
  2  6  2  0  0  0  0
  3  8  2  0  0  0  0
  3 15  1  0  0  0  0
  4  9  1  0  0  0  0
  4 15  2  0  0  0  0
  5 17  1  0  0  0  0
  6 19  1  0  0  0  0
  7 10  2  0  0  0  0
  7 18  1  0  0  0  0
  8 21  1  0  0  0  0
  9 21  2  0  0  0  0
 10 22  1  0  0  0  0
 11 12  2  0  0  0  0
 11 23  1  0  0  0  0
 12 24  1  0  0  0  0
 13 20  1  0  0  0  0
 13 22  2  0  0  0  0
 14 24  2  0  0  0  0
 14 25  1  0  0  0  0
 15 26  1  0  0  0  0
 16 26  1  0  0  0  0
 16 27  2  0  0  0  0
 16 28  1  0  0  0  0
 17 19  2  0  0  0  0
 17 33  1  0  0  0  0
 18 20  2  0  0  0  0
 18 34  1  0  0  0  0
 19 42  1  0  0  0  0
 20 35  1  0  0  0  0
 21 71  1  0  0  0  0
 22 72  1  0  0  0  0
 23 25  2  0  0  0  0
 23 71  1  0  0  0  0
 24 73  1  0  0  0  0
 25 74  1  0  0  0  0
 26 56  2  0  0  0  0
 27 57  1  0  0  0  0
 27 60  1  0  0  0  0
 28 61  1  0  0  0  0
 28 66  2  0  0  0  0
 29 43  1  0  0  0  0
 29 62  1  0  0  0  0
 29 67  2  0  0  0  0
 30 53  1  0  0  0  0
 30 58  1  0  0  0  0
 30 68  2  0  0  0  0
 31 54  1  0  0  0  0
 31 63  1  0  0  0  0
 31 69  2  0  0  0  0
 32 59  1  0  0  0  0
 32 64  1  0  0  0  0
 32 70  2  0  0  0  0
 33 36  1  0  0  0  0
 34 43  1  0  0  0  0
 35 58  1  0  0  0  0
 36 38  1  0  0  0  0
 37 39  1  0  0  0  0
 37 40  1  0  0  0  0
 38 42  1  0  0  0  0
 39 44  1  0  0  0  0
 40 59  1  0  0  0  0
 41 44  1  0  0  0  0
 41 59  1  0  0  0  0
 42 62  1  0  0  0  0
 43 58  1  0  0  0  0
 44 57  1  0  0  0  0
 45 54  1  0  0  0  0
 46 55  1  0  0  0  0
 47 55  1  0  0  0  0
 48 55  1  0  0  0  0
 49 65  1  0  0  0  0
 50 51  1  0  0  0  0
 50 52  1  0  0  0  0
 51 64  1  0  0  0  0
 52 72  1  0  0  0  0
 53 55  1  0  0  0  0
 53 63  1  0  0  0  0
 54 65  1  0  0  0  0
 56 57  1  0  0  0  0
M  CHG  1  65   1
M  ISO  4  32 100  52 101  64 100  72 101
M  END
> <Batch ID>
0002

> <Smiles>
CNC(C)C(=O)NC(C(=O)N1Cc2cc([101O:1][101CH2:1]CC[100NH:0][100C:0](=O)N3CCCC(n4nc(-c5ccc(Oc6ccc(F)cc6F)cc5)c(C(N)=O)c4N)C3)ccc2CC1C(=O)NC1CCCc2ccccc21)C(C)(C)C

> <Shape>
0.222

> <Color>
0.068

> <Negative vol penalty>
0.000

$$$$

  -OEChem-04052315183D

 83 90  0     1  0  0  0  0  0999 V2000
  -31.0979  -35.3049   21.2210 C   0  0  0  0  0  0  0  0  0  0  0  0
  -31.1779  -34.0296   20.6708 C   0  0  0  0  0  0  0  0  0  0  0  0
  -23.3029   -9.6146   20.7659 C   0  0  0  0  0  0  0  0  0  0  0  0
  -23.9558  -10.2853   22.9932 C   0  0  0  0  0  0  0  0  0  0  0  0
  -30.3002  -35.5304   22.3421 C   0  0  0  0  0  0  0  0  0  0  0  0
  -30.4610  -32.9788   21.2421 C   0  0  0  0  0  0  0  0  0  0  0  0
  -27.8754  -28.2640   18.3111 C   0  0  0  0  0  0  0  0  0  0  0  0
  -22.6403   -8.5066   21.2937 C   0  0  0  0  0  0  0  0  0  0  0  0
  -23.2931   -9.1772   23.5211 C   0  0  0  0  0  0  0  0  0  0  0  0
  -28.2920  -26.9510   18.0957 C   0  0  0  0  0  0  0  0  0  0  0  0
  -20.1128   -8.2873   24.2379 C   0  0  0  0  0  0  0  0  0  0  0  0
  -19.3092   -8.4887   25.3601 C   0  0  0  0  0  0  0  0  0  0  0  0
  -27.0034  -26.2353   20.0053 C   0  0  0  0  0  0  0  0  0  0  0  0
  -20.6627   -6.9255   26.6097 C   0  0  0  0  0  0  0  0  0  0  0  0
  -23.9608  -10.5040   21.6156 C   0  0  0  0  0  0  0  0  0  0  0  0
  -24.1107  -12.9303   20.8420 C   0  0  0  0  0  0  0  0  0  0  0  0
  -29.5656  -34.4839   22.9216 C   0  0  0  0  0  0  0  0  0  0  0  0
  -27.0269  -28.5747   19.3835 C   0  0  0  0  0  0  0  0  0  0  0  0
  -29.6538  -33.1903   22.3728 C   0  0  0  0  0  0  0  0  0  0  0  0
  -26.5754  -27.5526   20.2306 C   0  0  0  0  0  0  0  0  0  0  0  0
  -22.6353   -8.2879   22.6713 C   0  0  0  0  0  0  0  0  0  0  0  0
  -27.8583  -25.9369   18.9446 C   0  0  0  0  0  0  0  0  0  0  0  0
  -21.1913   -7.4050   24.3016 C   0  0  0  0  0  0  0  0  0  0  0  0
  -19.5842   -7.8078   26.5460 C   0  0  0  0  0  0  0  0  0  0  0  0
  -21.4663   -6.7242   25.4875 C   0  0  0  0  0  0  0  0  0  0  0  0
  -24.6460  -11.6485   21.0709 C   0  0  0  0  0  0  0  0  0  0  0  0
  -25.1566  -13.6508   20.3194 C   0  0  0  0  0  0  0  0  0  0  0  0
  -22.7864  -13.4253   21.0807 C   0  0  0  0  0  0  0  0  0  0  0  0
  -27.2629  -30.4014   21.9740 C   0  0  0  0  0  0  0  0  0  0  0  0
  -30.5523  -15.1185   20.4705 C   0  0  0  0  0  0  0  0  0  0  0  0
  -24.1378  -29.6121   22.3389 C   0  0  0  0  0  0  0  0  0  0  0  0
  -31.7502  -20.2487   22.8251 C   0  0  0  0  0  0  0  0  0  0  0  0
  -21.6077  -27.4185   21.6803 C   0  0  0  0  0  0  0  0  0  0  0  0
  -28.7541  -34.7661   24.1611 C   0  0  0  0  0  0  0  0  0  0  0  0
  -26.5652  -29.9917   19.5863 C   0  0  0  0  0  0  0  0  0  0  0  0
  -25.6477  -27.8305   21.3841 C   0  0  0  0  0  0  0  0  0  0  0  0
  -27.7323  -33.6781   24.4811 C   0  0  0  0  0  0  0  0  0  0  0  0
  -29.6826  -12.1595   18.6462 C   0  0  0  0  0  0  0  0  0  0  0  0
  -28.3715  -32.2972   24.3738 C   0  0  0  0  0  0  0  0  0  0  0  0
  -28.2624  -11.8511   19.1183 C   0  0  0  0  0  0  0  0  0  0  0  0
  -30.5297  -12.7470   19.7707 C   0  0  0  0  0  0  0  0  0  0  0  0
  -28.5139  -13.6534   20.8828 C   0  0  0  0  0  0  0  0  0  0  0  0
  -28.8716  -32.0300   22.9490 C   0  0  1  0  0  0  0  0  0  0  0  0
  -26.1127  -30.2740   21.0156 C   0  0  1  0  0  0  0  0  0  0  0  0
  -27.6157  -13.0867   19.7691 C   0  0  2  0  0  0  0  0  0  0  0  0
  -32.9443  -18.7341   26.1971 C   0  0  0  0  0  0  0  0  0  0  0  0
  -19.1739  -27.0214   22.1453 C   0  0  0  0  0  0  0  0  0  0  0  0
  -24.8309  -28.6851   25.1620 C   0  0  0  0  0  0  0  0  0  0  0  0
  -22.6494  -27.4579   25.2197 C   0  0  0  0  0  0  0  0  0  0  0  0
  -22.6758  -29.9403   24.9758 C   0  0  0  0  0  0  0  0  0  0  0  0
  -20.9175  -27.5515   18.8054 C   0  0  0  0  0  0  0  0  0  0  0  0
  -29.8071  -16.2660   21.1044 C   0  0  0  0  0  0  0  0  0  0  0  0
  -31.8387  -19.2831   23.9998 C   0  0  0  0  0  0  0  0  0  0  0  0
  -32.8527  -19.7304   25.0526 C   0  0  0  0  0  0  0  0  0  0  0  0
  -30.6688  -17.5263   21.1402 C   0  0  0  0  0  0  0  0  0  0  0  0
  -29.6189  -21.8520   20.8706 C   0  0  0  0  0  0  0  0  0  0  0  0
  -29.4796  -22.7877   19.6694 C   0  0  0  0  0  0  0  0  0  0  0  0
  -29.9925  -18.7223   21.8068 C   0  0  0  0  0  0  0  0  0  0  0  0
  -30.6924  -20.7885   20.6615 C   0  0  0  0  0  0  0  0  0  0  0  0
  -28.3751  -23.8146   19.8853 C   0  0  0  0  0  0  0  0  0  1  0  0
  -23.3904  -28.4959   23.0277 C   0  0  1  0  0  0  0  0  0  0  0  0
  -20.1868  -27.6367   21.1924 C   0  0  2  0  0  0  0  0  0  0  0  0
  -23.4057  -28.6395   24.5758 C   0  0  0  0  0  0  0  0  0  0  0  0
  -25.9320  -11.5569   20.7220 N   0  0  0  0  0  0  0  0  0  0  0  0
  -26.2136  -12.7903   20.2685 N   0  0  0  0  0  0  0  0  0  0  0  0
  -25.2293  -29.2329   21.5448 N   0  0  0  0  0  0  0  0  0  0  0  0
  -29.8708  -13.9048   20.3778 N   0  0  0  0  0  0  0  0  0  0  0  0
  -25.2662  -14.9303   19.9028 N   0  0  0  0  0  0  0  0  0  0  0  0
  -21.8339  -12.5513   21.6222 N   0  0  0  0  0  0  0  0  0  0  0  0
  -27.7659  -31.6840   22.0819 N   0  0  0  0  0  0  0  0  0  0  0  0
  -22.0542  -28.4773   22.4425 N   0  0  0  0  0  0  0  0  0  0  0  0
  -30.8405  -19.9230   21.7992 N   0  0  0  0  0  0  0  0  0  0  0  0
  -20.0008  -27.0219   19.8476 N   0  3  0  0  0  0  0  0  0  0  0  0
  -22.4530  -14.6030   20.8061 O   0  0  0  0  0  0  0  0  0  0  0  0
  -27.6633  -29.4099   22.5726 O   0  0  0  0  0  0  0  0  0  0  0  0
  -31.7045  -15.2982   20.0677 O   0  0  0  0  0  0  0  0  0  0  0  0
  -23.7624  -30.7769   22.4937 O   0  0  0  0  0  0  0  0  0  0  0  0
  -32.4515  -21.2633   22.7955 O   0  0  0  0  0  0  0  0  0  0  0  0
  -22.2553  -26.4081   21.4152 O   0  0  0  0  0  0  0  0  0  0  0  0
  -21.9886   -7.2069   23.1868 O   0  0  0  0  0  0  0  0  0  0  0  0
  -28.2639  -24.6546   18.7371 O   0  0  0  0  0  0  0  0  0  1  0  0
  -18.8134   -8.0024   27.6240 F   0  0  0  0  0  0  0  0  0  0  0  0
  -22.5018   -5.8762   25.5551 F   0  0  0  0  0  0  0  0  0  0  0  0
  1  2  1  0  0  0  0
  1  5  2  0  0  0  0
  2  6  2  0  0  0  0
  3  8  2  0  0  0  0
  3 15  1  0  0  0  0
  4  9  1  0  0  0  0
  4 15  2  0  0  0  0
  5 17  1  0  0  0  0
  6 19  1  0  0  0  0
  7 10  2  0  0  0  0
  7 18  1  0  0  0  0
  8 21  1  0  0  0  0
  9 21  2  0  0  0  0
 10 22  1  0  0  0  0
 11 12  2  0  0  0  0
 11 23  1  0  0  0  0
 12 24  1  0  0  0  0
 13 20  1  0  0  0  0
 13 22  2  0  0  0  0
 14 24  2  0  0  0  0
 14 25  1  0  0  0  0
 15 26  1  0  0  0  0
 16 26  1  0  0  0  0
 16 27  2  0  0  0  0
 16 28  1  0  0  0  0
 17 19  2  0  0  0  0
 17 34  1  0  0  0  0
 18 20  2  0  0  0  0
 18 35  1  0  0  0  0
 19 43  1  0  0  0  0
 20 36  1  0  0  0  0
 21 80  1  0  0  0  0
 22 81  1  0  0  0  0
 23 25  2  0  0  0  0
 23 80  1  0  0  0  0
 24 82  1  0  0  0  0
 25 83  1  0  0  0  0
 26 64  2  0  0  0  0
 27 65  1  0  0  0  0
 27 68  1  0  0  0  0
 28 69  1  0  0  0  0
 28 74  2  0  0  0  0
 29 44  1  0  0  0  0
 29 70  1  0  0  0  0
 29 75  2  0  0  0  0
 30 52  1  0  0  0  0
 30 67  1  0  0  0  0
 30 76  2  0  0  0  0
 31 61  1  0  0  0  0
 31 66  1  0  0  0  0
 31 77  2  0  0  0  0
 32 53  1  0  0  0  0
 32 72  1  0  0  0  0
 32 78  2  0  0  0  0
 33 62  1  0  0  0  0
 33 71  1  0  0  0  0
 33 79  2  0  0  0  0
 34 37  1  0  0  0  0
 35 44  1  0  0  0  0
 36 66  1  0  0  0  0
 37 39  1  0  0  0  0
 38 40  1  0  0  0  0
 38 41  1  0  0  0  0
 39 43  1  0  0  0  0
 40 45  1  0  0  0  0
 41 67  1  0  0  0  0
 42 45  1  0  0  0  0
 42 67  1  0  0  0  0
 43 70  1  0  0  0  0
 44 66  1  0  0  0  0
 45 65  1  0  0  0  0
 46 54  1  0  0  0  0
 47 62  1  0  0  0  0
 48 63  1  0  0  0  0
 49 63  1  0  0  0  0
 50 63  1  0  0  0  0
 51 73  1  0  0  0  0
 52 55  1  0  0  0  0
 53 54  1  0  0  0  0
 55 58  1  0  0  0  0
 56 57  1  0  0  0  0
 56 59  1  0  0  0  0
 57 60  1  0  0  0  0
 58 72  1  0  0  0  0
 59 72  1  0  0  0  0
 60 81  1  0  0  0  0
 61 63  1  0  0  0  0
 61 71  1  0  0  0  0
 62 73  1  0  0  0  0
 64 65  1  0  0  0  0
M  CHG  1  73   1
M  ISO  4  30 100  52 100  60 101  81 101
M  END
> <Batch ID>
0002

> <Smiles>
CCCC(=O)N(CCC[101CH2:1][101O:1]c1ccc2c(c1)CN(C(=O)C(NC(=O)C(C)NC)C(C)(C)C)C(C(=O)NC1CCCc3ccccc31)C2)CC[100CH2:0][100C:0](=O)N1CCCC(n2nc(-c3ccc(Oc4ccc(F)cc4F)cc3)c(C(N)=O)c2N)C1

> <Shape>
0.299

> <Color>
0.178

> <Negative vol penalty>
0.000

$$$$

  -OEChem-04052315183D

 84 92  0     1  0  0  0  0  0999 V2000
  -27.0794  -38.0836   20.8364 C   0  0  0  0  0  0  0  0  0  0  0  0
  -27.5531  -36.9688   20.1523 C   0  0  0  0  0  0  0  0  0  0  0  0
  -24.3116   -8.6694   20.1216 C   0  0  0  0  0  0  0  0  0  0  0  0
  -23.0162  -10.5088   21.0023 C   0  0  0  0  0  0  0  0  0  0  0  0
  -26.4850  -37.9312   22.0884 C   0  0  0  0  0  0  0  0  0  0  0  0
  -27.4337  -35.7009   20.7202 C   0  0  0  0  0  0  0  0  0  0  0  0
  -26.4403  -28.8423   18.9064 C   0  0  0  0  0  0  0  0  0  0  0  0
  -27.4551  -18.6766   18.1008 C   0  0  0  0  0  0  0  0  0  0  0  0
  -29.0827  -19.1655   19.8180 C   0  0  0  0  0  0  0  0  0  0  0  0
  -23.4461   -7.7651   20.7371 C   0  0  0  0  0  0  0  0  0  0  0  0
  -22.1507   -9.6045   21.6178 C   0  0  0  0  0  0  0  0  0  0  0  0
  -27.0031  -27.5827   19.1075 C   0  0  0  0  0  0  0  0  0  0  0  0
  -20.3771   -6.4682   20.1609 C   0  0  0  0  0  0  0  0  0  0  0  0
  -19.9416   -5.3751   19.4118 C   0  0  0  0  0  0  0  0  0  0  0  0
  -27.2868  -20.0421   17.8714 C   0  0  0  0  0  0  0  0  0  0  0  0
  -28.9145  -20.5311   19.5886 C   0  0  0  0  0  0  0  0  0  0  0  0
  -25.8869  -27.4311   21.2407 C   0  0  0  0  0  0  0  0  0  0  0  0
  -20.9314   -3.8745   21.0260 C   0  0  0  0  0  0  0  0  0  0  0  0
  -24.0967  -10.0412   20.2543 C   0  0  0  0  0  0  0  0  0  0  0  0
  -24.8765  -11.5157   18.3241 C   0  0  0  0  0  0  0  0  0  0  0  0
  -26.3495  -36.6597   22.6676 C   0  0  0  0  0  0  0  0  0  0  0  0
  -25.6039  -29.4114   19.8775 C   0  0  0  0  0  0  0  0  0  0  0  0
  -26.8381  -35.5314   21.9816 C   0  0  0  0  0  0  0  0  0  0  0  0
  -25.3128  -28.6970   21.0484 C   0  0  0  0  0  0  0  0  0  0  0  0
  -28.3530  -18.2383   19.0741 C   0  0  0  0  0  0  0  0  0  0  0  0
  -22.3656   -8.2327   21.4851 C   0  0  0  0  0  0  0  0  0  0  0  0
  -26.7287  -26.8781   20.2760 C   0  0  0  0  0  0  0  0  0  0  0  0
  -21.0898   -6.2644   21.3426 C   0  0  0  0  0  0  0  0  0  0  0  0
  -20.2187   -4.0783   19.8443 C   0  0  0  0  0  0  0  0  0  0  0  0
  -21.3669   -4.9676   21.7751 C   0  0  0  0  0  0  0  0  0  0  0  0
  -28.0166  -20.9694   18.6153 C   0  0  0  0  0  0  0  0  0  0  0  0
  -24.9908  -10.9758   19.6192 C   0  0  0  0  0  0  0  0  0  0  0  0
  -25.9656  -12.3433   18.1998 C   0  0  0  0  0  0  0  0  0  0  0  0
  -23.8753  -11.2894   17.3230 C   0  0  0  0  0  0  0  0  0  0  0  0
  -25.7210  -32.0216   21.6878 C   0  0  0  0  0  0  0  0  0  0  0  0
  -22.7307  -31.0943   22.5365 C   0  0  0  0  0  0  0  0  0  0  0  0
  -20.4590  -28.5660   22.8432 C   0  0  0  0  0  0  0  0  0  0  0  0
  -29.3731  -16.2486   20.2346 C   0  0  0  0  0  0  0  0  0  0  0  0
  -25.7425  -36.5499   24.0440 C   0  0  0  0  0  0  0  0  0  0  0  0
  -24.9834  -30.7597   19.6336 C   0  0  0  0  0  0  0  0  0  0  0  0
  -24.4050  -29.2551   22.1128 C   0  0  0  0  0  0  0  0  0  0  0  0
  -25.3165  -35.1306   24.4104 C   0  0  0  0  0  0  0  0  0  0  0  0
  -30.0530  -12.8724   21.1382 C   0  0  0  0  0  0  0  0  0  0  0  0
  -26.4182  -34.1353   24.0602 C   0  0  0  0  0  0  0  0  0  0  0  0
  -28.7872  -12.1225   20.7171 C   0  0  0  0  0  0  0  0  0  0  0  0
  -29.7332  -14.2628   21.6845 C   0  0  0  0  0  0  0  0  0  0  0  0
  -27.6431  -14.3511   20.3833 C   0  0  0  0  0  0  0  0  0  0  0  0
  -26.7045  -34.1367   22.5537 C   0  0  1  0  0  0  0  0  0  0  0  0
  -24.5574  -31.4627   20.9188 C   0  0  1  0  0  0  0  0  0  0  0  0
  -27.9199  -12.9704   19.7661 C   0  0  2  0  0  0  0  0  0  0  0  0
  -18.1111  -28.1087   23.6019 C   0  0  0  0  0  0  0  0  0  0  0  0
  -23.6421  -31.2527   25.4442 C   0  0  0  0  0  0  0  0  0  0  0  0
  -21.6283  -29.9060   26.0759 C   0  0  0  0  0  0  0  0  0  0  0  0
  -21.3459  -32.1485   25.0203 C   0  0  0  0  0  0  0  0  0  0  0  0
  -25.2250  -22.4199   19.2440 C   0  0  0  0  0  0  0  0  0  0  0  0
  -19.6441  -27.6476   20.1503 C   0  0  0  0  0  0  0  0  0  0  0  0
  -26.8739  -23.3068   20.8424 C   0  0  0  0  0  0  0  0  0  0  0  0
  -26.5296  -24.7239   21.2638 C   0  0  0  0  0  0  0  0  0  1  0  0
  -22.1512  -30.2086   23.6130 C   0  0  1  0  0  0  0  0  0  0  0  0
  -19.0039  -28.4628   22.4228 C   0  0  2  0  0  0  0  0  0  0  0  0
  -22.2106  -30.8690   25.0194 C   0  0  0  0  0  0  0  0  0  0  0  0
  -26.0676  -11.4227   20.2710 N   0  0  0  0  0  0  0  0  0  0  0  0
  -26.6399  -12.2521   19.3818 N   0  0  0  0  0  0  0  0  0  0  0  0
  -23.8275  -30.5797   21.8308 N   0  0  0  0  0  0  0  0  0  0  0  0
  -28.9127  -15.0097   20.7285 N   0  0  0  0  0  0  0  0  0  0  0  0
  -26.4027  -13.1328   17.1958 N   0  0  0  0  0  0  0  0  0  0  0  0
  -22.8250  -10.4088   17.6155 N   0  0  0  0  0  0  0  0  0  0  0  0
  -28.5238  -16.8511   19.3071 N   0  0  0  0  0  0  0  0  0  0  0  0
  -25.6846  -33.3940   21.8447 N   0  0  0  0  0  0  0  0  0  0  0  0
  -20.8047  -29.8594   23.1732 N   0  0  0  0  0  0  0  0  0  0  0  0
  -26.5290  -23.1128   19.4153 N   0  0  1  0  0  0  0  0  0  0  0  0
  -18.8400  -27.4135   21.3774 N   0  3  0  0  0  0  0  0  0  0  0  0
  -23.9200  -11.8390   16.1963 O   0  0  0  0  0  0  0  0  0  0  0  0
  -26.5870  -31.2637   22.1089 O   0  0  0  0  0  0  0  0  0  0  0  0
  -22.2243  -32.1989   22.3246 O   0  0  0  0  0  0  0  0  0  0  0  0
  -21.2124  -27.5957   22.8789 O   0  0  0  0  0  0  0  0  0  0  0  0
  -30.4549  -16.7259   20.5866 O   0  0  0  0  0  0  0  0  0  0  0  0
  -29.0252  -23.3642   18.7424 O   0  0  0  0  0  0  0  0  0  0  0  0
  -27.3403  -22.8564   16.9572 O   0  0  0  0  0  0  0  0  0  0  0  0
  -21.5207   -7.3506   22.0856 O   0  0  0  0  0  0  0  0  0  0  0  0
  -27.2772  -25.6487   20.4750 O   0  0  0  0  0  0  0  0  0  1  0  0
  -19.7992   -3.0287   19.1256 F   0  0  0  0  0  0  0  0  0  0  0  0
  -22.0501   -4.7655   22.9101 F   0  0  0  0  0  0  0  0  0  0  0  0
  -27.8027  -22.7032   18.3243 S   0  0  0  0  0  0  0  0  0  0  0  0
  1  2  1  0  0  0  0
  1  5  2  0  0  0  0
  2  6  2  0  0  0  0
  3 10  2  0  0  0  0
  3 19  1  0  0  0  0
  4 11  1  0  0  0  0
  4 19  2  0  0  0  0
  5 21  1  0  0  0  0
  6 23  1  0  0  0  0
  7 12  2  0  0  0  0
  7 22  1  0  0  0  0
  8 15  2  0  0  0  0
  8 25  1  0  0  0  0
  9 16  1  0  0  0  0
  9 25  2  0  0  0  0
 10 26  1  0  0  0  0
 11 26  2  0  0  0  0
 12 27  1  0  0  0  0
 13 14  2  0  0  0  0
 13 28  1  0  0  0  0
 14 29  1  0  0  0  0
 15 31  1  0  0  0  0
 16 31  2  0  0  0  0
 17 24  1  0  0  0  0
 17 27  2  0  0  0  0
 18 29  2  0  0  0  0
 18 30  1  0  0  0  0
 19 32  1  0  0  0  0
 20 32  1  0  0  0  0
 20 33  2  0  0  0  0
 20 34  1  0  0  0  0
 21 23  2  0  0  0  0
 21 39  1  0  0  0  0
 22 24  2  0  0  0  0
 22 40  1  0  0  0  0
 23 48  1  0  0  0  0
 24 41  1  0  0  0  0
 25 68  1  0  0  0  0
 26 80  1  0  0  0  0
 27 81  1  0  0  0  0
 28 30  2  0  0  0  0
 28 80  1  0  0  0  0
 29 82  1  0  0  0  0
 30 83  1  0  0  0  0
 31 84  1  0  0  0  0
 32 62  2  0  0  0  0
 33 63  1  0  0  0  0
 33 66  1  0  0  0  0
 34 67  1  0  0  0  0
 34 73  2  0  0  0  0
 35 49  1  0  0  0  0
 35 69  1  0  0  0  0
 35 74  2  0  0  0  0
 36 59  1  0  0  0  0
 36 64  1  0  0  0  0
 36 75  2  0  0  0  0
 37 60  1  0  0  0  0
 37 70  1  0  0  0  0
 37 76  2  0  0  0  0
 38 65  1  0  0  0  0
 38 68  1  0  0  0  0
 38 77  2  0  0  0  0
 39 42  1  0  0  0  0
 40 49  1  0  0  0  0
 41 64  1  0  0  0  0
 42 44  1  0  0  0  0
 43 45  1  0  0  0  0
 43 46  1  0  0  0  0
 44 48  1  0  0  0  0
 45 50  1  0  0  0  0
 46 65  1  0  0  0  0
 47 50  1  0  0  0  0
 47 65  1  0  0  0  0
 48 69  1  0  0  0  0
 49 64  1  0  0  0  0
 50 63  1  0  0  0  0
 51 60  1  0  0  0  0
 52 61  1  0  0  0  0
 53 61  1  0  0  0  0
 54 61  1  0  0  0  0
 55 71  1  0  0  0  0
 56 72  1  0  0  0  0
 57 58  1  0  0  0  0
 57 71  1  0  0  0  0
 58 81  1  0  0  0  0
 59 61  1  0  0  0  0
 59 70  1  0  0  0  0
 60 72  1  0  0  0  0
 62 63  1  0  0  0  0
 71 84  1  0  0  0  0
 78 84  2  0  0  0  0
 79 84  2  0  0  0  0
M  CHG  1  72   1
M  ISO  4  38 100  58 101  68 100  81 101
M  END
> <Batch ID>
0002

> <Smiles>
CNC(C)C(=O)NC(C(=O)N1Cc2cc([101O:1][101CH2:1]CN(C)S(=O)(=O)c3ccc([100NH:0][100C:0](=O)N4CCCC(n5nc(-c6ccc(Oc7ccc(F)cc7F)cc6)c(C(N)=O)c5N)C4)cc3)ccc2CC1C(=O)NC1CCCc2ccccc21)C(C)(C)C

> <Shape>
0.303

> <Color>
0.117

> <Negative vol penalty>
0.000

$$$$

  -OEChem-04052315183D

 76 83  0     1  0  0  0  0  0999 V2000
  -16.1600  -22.7176   22.5581 C   0  0  0  0  0  0  0  0  0  0  0  0
  -17.4333  -22.6316   22.0043 C   0  0  0  0  0  0  0  0  0  0  0  0
  -23.0622   -9.9075   19.9658 C   0  0  0  0  0  0  0  0  0  0  0  0
  -23.8771   -9.8683   22.2399 C   0  0  0  0  0  0  0  0  0  0  0  0
  -15.9799  -22.5083   23.9248 C   0  0  0  0  0  0  0  0  0  0  0  0
  -18.5275  -22.3372   22.8170 C   0  0  0  0  0  0  0  0  0  0  0  0
  -23.4690  -19.0565   21.2924 C   0  0  0  0  0  0  0  0  0  0  0  0
  -22.3096   -8.7601   20.2158 C   0  0  0  0  0  0  0  0  0  0  0  0
  -23.1244   -8.7209   22.4899 C   0  0  0  0  0  0  0  0  0  0  0  0
  -24.7491  -19.4249   20.8811 C   0  0  0  0  0  0  0  0  0  0  0  0
  -21.1365   -5.9883   23.8314 C   0  0  0  0  0  0  0  0  0  0  0  0
  -20.4082   -5.9357   25.0198 C   0  0  0  0  0  0  0  0  0  0  0  0
  -25.5335  -19.2128   23.1524 C   0  0  0  0  0  0  0  0  0  0  0  0
  -19.1718   -7.9001   24.3490 C   0  0  0  0  0  0  0  0  0  0  0  0
  -23.8461  -10.4616   20.9779 C   0  0  0  0  0  0  0  0  0  0  0  0
  -24.2180  -12.9838   20.8890 C   0  0  0  0  0  0  0  0  0  0  0  0
  -17.0711  -22.2017   24.7530 C   0  0  0  0  0  0  0  0  0  0  0  0
  -23.2086  -18.7736   22.6410 C   0  0  0  0  0  0  0  0  0  0  0  0
  -18.3620  -22.1249   24.1962 C   0  0  0  0  0  0  0  0  0  0  0  0
  -24.2498  -18.8385   23.5779 C   0  0  0  0  0  0  0  0  0  0  0  0
  -22.3406   -8.1668   21.4778 C   0  0  0  0  0  0  0  0  0  0  0  0
  -25.7810  -19.5059   21.8115 C   0  0  0  0  0  0  0  0  0  0  0  0
  -20.8826   -6.9968   22.9018 C   0  0  0  0  0  0  0  0  0  0  0  0
  -19.4258   -6.8916   25.2786 C   0  0  0  0  0  0  0  0  0  0  0  0
  -19.9003   -7.9527   23.1606 C   0  0  0  0  0  0  0  0  0  0  0  0
  -24.6243  -11.6466   20.7202 C   0  0  0  0  0  0  0  0  0  0  0  0
  -25.3108  -13.7250   20.5111 C   0  0  0  0  0  0  0  0  0  0  0  0
  -22.9648  -13.5090   21.3467 C   0  0  0  0  0  0  0  0  0  0  0  0
  -21.3315  -20.0335   24.8754 C   0  0  0  0  0  0  0  0  0  0  0  0
  -22.3526  -17.4923   26.6138 C   0  0  0  0  0  0  0  0  0  0  0  0
  -24.7431  -15.1140   27.1391 C   0  0  0  0  0  0  0  0  0  0  0  0
  -30.8103  -14.6711   20.5822 C   0  0  0  0  0  0  0  0  0  0  0  0
  -16.8338  -22.0303   26.2325 C   0  0  0  0  0  0  0  0  0  0  0  0
  -21.8283  -18.3516   23.0642 C   0  0  0  0  0  0  0  0  0  0  0  0
  -24.0270  -18.5250   25.0341 C   0  0  0  0  0  0  0  0  0  0  0  0
  -17.9922  -21.3534   26.9608 C   0  0  0  0  0  0  0  0  0  0  0  0
  -29.5845  -12.3396   18.1868 C   0  0  0  0  0  0  0  0  0  0  0  0
  -19.3214  -21.9737   26.5420 C   0  0  0  0  0  0  0  0  0  0  0  0
  -28.1542  -12.0573   18.6499 C   0  0  0  0  0  0  0  0  0  0  0  0
  -30.5331  -12.5296   19.3684 C   0  0  0  0  0  0  0  0  0  0  0  0
  -28.6750  -13.2626   20.8120 C   0  0  0  0  0  0  0  0  0  0  0  0
  -19.5703  -21.7833   25.0409 C   0  0  1  0  0  0  0  0  0  0  0  0
  -21.5607  -18.5851   24.5479 C   0  0  1  0  0  0  0  0  0  0  0  0
  -27.6706  -13.1192   19.6558 C   0  0  2  0  0  0  0  0  0  0  0  0
  -25.3188  -13.2016   28.6585 C   0  0  0  0  0  0  0  0  0  0  0  0
  -23.1824  -19.4698   28.7844 C   0  0  0  0  0  0  0  0  0  0  0  0
  -24.5722  -17.6562   29.8078 C   0  0  0  0  0  0  0  0  0  0  0  0
  -22.0989  -17.3821   29.6341 C   0  0  0  0  0  0  0  0  0  0  0  0
  -24.7054  -13.1748   24.9037 C   0  0  0  0  0  0  0  0  0  0  0  0
  -30.9341  -16.8007   21.8505 C   0  0  0  0  0  0  0  0  0  0  0  0
  -30.6370  -17.9563   20.9116 C   0  0  0  0  0  0  0  0  0  0  0  0
  -27.4127  -19.5218   20.0814 C   0  0  0  0  0  0  0  0  0  1  0  0
  -28.9109  -19.2914   20.0394 C   0  0  0  0  0  0  0  0  0  0  0  0
  -23.5127  -17.2298   27.5436 C   0  0  1  0  0  0  0  0  0  0  0  0
  -24.6416  -13.6157   27.3614 C   0  0  2  0  0  0  0  0  0  0  0  0
  -23.3456  -17.9423   28.9154 C   0  0  0  0  0  0  0  0  0  0  0  0
  -25.8773  -11.5413   20.2699 N   0  0  0  0  0  0  0  0  0  0  0  0
  -26.2678  -12.8219   20.1525 N   0  0  0  0  0  0  0  0  0  0  0  0
  -22.6586  -18.1233   25.3997 N   0  0  0  0  0  0  0  0  0  0  0  0
  -30.0175  -13.5508   20.2834 N   0  0  0  0  0  0  0  0  0  0  0  0
  -25.5368  -15.0547   20.4538 N   0  0  0  0  0  0  0  0  0  0  0  0
  -21.9495  -12.6075   21.6942 N   0  0  0  0  0  0  0  0  0  0  0  0
  -20.0127  -20.4324   24.7692 N   0  0  0  0  0  0  0  0  0  0  0  0
  -23.6422  -15.7796   27.6353 N   0  0  0  0  0  0  0  0  0  0  0  0
  -30.2438  -15.5940   21.4529 N   0  0  0  0  0  0  0  0  0  0  0  0
  -25.2884  -12.8805   26.2380 N   0  3  0  0  0  0  0  0  0  0  0  0
  -22.7461  -14.7414   21.4289 O   0  0  0  0  0  0  0  0  0  0  0  0
  -22.2805  -20.7367   25.2018 O   0  0  0  0  0  0  0  0  0  0  0  0
  -21.2179  -17.1438   26.9493 O   0  0  0  0  0  0  0  0  0  0  0  0
  -25.7046  -15.6415   26.5844 O   0  0  0  0  0  0  0  0  0  0  0  0
  -31.9372  -14.8393   20.1039 O   0  0  0  0  0  0  0  0  0  0  0  0
  -21.6061   -7.0472   21.7221 O   0  0  0  0  0  0  0  0  0  0  0  0
  -27.0313  -19.8659   21.4128 O   0  0  0  0  0  0  0  0  0  1  0  0
  -29.2397  -18.2135   20.9073 O   0  0  0  0  0  0  0  0  0  0  0  0
  -18.7254   -6.8400   26.4191 F   0  0  0  0  0  0  0  0  0  0  0  0
  -19.6510   -8.9232   22.2708 F   0  0  0  0  0  0  0  0  0  0  0  0
  1  2  1  0  0  0  0
  1  5  2  0  0  0  0
  2  6  2  0  0  0  0
  3  8  2  0  0  0  0
  3 15  1  0  0  0  0
  4  9  1  0  0  0  0
  4 15  2  0  0  0  0
  5 17  1  0  0  0  0
  6 19  1  0  0  0  0
  7 10  2  0  0  0  0
  7 18  1  0  0  0  0
  8 21  1  0  0  0  0
  9 21  2  0  0  0  0
 10 22  1  0  0  0  0
 11 12  2  0  0  0  0
 11 23  1  0  0  0  0
 12 24  1  0  0  0  0
 13 20  1  0  0  0  0
 13 22  2  0  0  0  0
 14 24  2  0  0  0  0
 14 25  1  0  0  0  0
 15 26  1  0  0  0  0
 16 26  1  0  0  0  0
 16 27  2  0  0  0  0
 16 28  1  0  0  0  0
 17 19  2  0  0  0  0
 17 33  1  0  0  0  0
 18 20  2  0  0  0  0
 18 34  1  0  0  0  0
 19 42  1  0  0  0  0
 20 35  1  0  0  0  0
 21 72  1  0  0  0  0
 22 73  1  0  0  0  0
 23 25  2  0  0  0  0
 23 72  1  0  0  0  0
 24 75  1  0  0  0  0
 25 76  1  0  0  0  0
 26 57  2  0  0  0  0
 27 58  1  0  0  0  0
 27 61  1  0  0  0  0
 28 62  1  0  0  0  0
 28 67  2  0  0  0  0
 29 43  1  0  0  0  0
 29 63  1  0  0  0  0
 29 68  2  0  0  0  0
 30 54  1  0  0  0  0
 30 59  1  0  0  0  0
 30 69  2  0  0  0  0
 31 55  1  0  0  0  0
 31 64  1  0  0  0  0
 31 70  2  0  0  0  0
 32 60  1  0  0  0  0
 32 65  1  0  0  0  0
 32 71  2  0  0  0  0
 33 36  1  0  0  0  0
 34 43  1  0  0  0  0
 35 59  1  0  0  0  0
 36 38  1  0  0  0  0
 37 39  1  0  0  0  0
 37 40  1  0  0  0  0
 38 42  1  0  0  0  0
 39 44  1  0  0  0  0
 40 60  1  0  0  0  0
 41 44  1  0  0  0  0
 41 60  1  0  0  0  0
 42 63  1  0  0  0  0
 43 59  1  0  0  0  0
 44 58  1  0  0  0  0
 45 55  1  0  0  0  0
 46 56  1  0  0  0  0
 47 56  1  0  0  0  0
 48 56  1  0  0  0  0
 49 66  1  0  0  0  0
 50 51  1  0  0  0  0
 50 65  1  0  0  0  0
 51 74  1  0  0  0  0
 52 53  1  0  0  0  0
 52 73  1  0  0  0  0
 53 74  1  0  0  0  0
 54 56  1  0  0  0  0
 54 64  1  0  0  0  0
 55 66  1  0  0  0  0
 57 58  1  0  0  0  0
M  CHG  1  66   1
M  ISO  4  32 100  52 101  65 100  73 101
M  END
> <Batch ID>
0002

> <Smiles>
CNC(C)C(=O)NC(C(=O)N1Cc2cc([101O:1][101CH2:1]COCC[100NH:0][100C:0](=O)N3CCCC(n4nc(-c5ccc(Oc6ccc(F)cc6F)cc5)c(C(N)=O)c4N)C3)ccc2CC1C(=O)NC1CCCc2ccccc21)C(C)(C)C

> <Shape>
0.186

> <Color>
0.201

> <Negative vol penalty>
0.000

$$$$

  -OEChem-04052315183D

 81 89  0     1  0  0  0  0  0999 V2000
  -31.2840  -35.2703   20.7049 C   0  0  0  0  0  0  0  0  0  0  0  0
  -30.9821  -33.9896   20.2532 C   0  0  0  0  0  0  0  0  0  0  0  0
  -24.4302   -8.8503   21.4128 C   0  0  0  0  0  0  0  0  0  0  0  0
  -24.3212  -10.4275   23.2398 C   0  0  0  0  0  0  0  0  0  0  0  0
  -26.8860  -20.4530   19.8014 C   0  0  0  0  0  0  0  0  0  0  0  0
  -29.2889  -20.5397   20.0372 C   0  0  0  0  0  0  0  0  0  0  0  0
  -30.7828  -35.7129   21.9284 C   0  0  0  0  0  0  0  0  0  0  0  0
  -30.1796  -33.1503   21.0252 C   0  0  0  0  0  0  0  0  0  0  0  0
  -26.1321  -29.0303   18.9884 C   0  0  0  0  0  0  0  0  0  0  0  0
  -26.9544  -19.0729   19.6116 C   0  0  0  0  0  0  0  0  0  0  0  0
  -29.3574  -19.1595   19.8475 C   0  0  0  0  0  0  0  0  0  0  0  0
  -24.0531   -7.8228   22.2774 C   0  0  0  0  0  0  0  0  0  0  0  0
  -23.9440   -9.3999   24.1044 C   0  0  0  0  0  0  0  0  0  0  0  0
  -26.2086  -27.6500   18.8082 C   0  0  0  0  0  0  0  0  0  0  0  0
  -22.7687   -4.8487   23.9267 C   0  0  0  0  0  0  0  0  0  0  0  0
  -21.7941   -3.9541   23.4845 C   0  0  0  0  0  0  0  0  0  0  0  0
  -25.1864  -27.3174   20.9677 C   0  0  0  0  0  0  0  0  0  0  0  0
  -20.2279   -5.7782   23.2460 C   0  0  0  0  0  0  0  0  0  0  0  0
  -24.5643  -10.1527   21.8941 C   0  0  0  0  0  0  0  0  0  0  0  0
  -28.0533  -21.1865   20.0142 C   0  0  0  0  0  0  0  0  0  0  0  0
  -24.1055  -12.0392   20.2393 C   0  0  0  0  0  0  0  0  0  0  0  0
  -29.9658  -34.8821   22.7113 C   0  0  0  0  0  0  0  0  0  0  0  0
  -25.5912  -29.5654   20.1663 C   0  0  0  0  0  0  0  0  0  0  0  0
  -29.6681  -33.5818   22.2609 C   0  0  0  0  0  0  0  0  0  0  0  0
  -25.1018  -28.7049   21.1593 C   0  0  0  0  0  0  0  0  0  0  0  0
  -28.1901  -18.4261   19.6347 C   0  0  0  0  0  0  0  0  0  0  0  0
  -23.8100   -8.0975   23.6231 C   0  0  0  0  0  0  0  0  0  0  0  0
  -25.7384  -26.7932   19.7991 C   0  0  0  0  0  0  0  0  0  0  0  0
  -22.4729   -6.2081   24.0286 C   0  0  0  0  0  0  0  0  0  0  0  0
  -20.5237   -4.4189   23.1442 C   0  0  0  0  0  0  0  0  0  0  0  0
  -21.2025   -6.6728   23.6882 C   0  0  0  0  0  0  0  0  0  0  0  0
  -24.9544  -11.2146   21.0016 C   0  0  0  0  0  0  0  0  0  0  0  0
  -24.9577  -12.8798   19.5657 C   0  0  0  0  0  0  0  0  0  0  0  0
  -27.9819  -22.6444   20.2157 C   0  0  0  0  0  0  0  0  0  0  0  0
  -26.9483  -23.4145   19.8473 C   0  0  0  0  0  0  0  0  0  0  0  0
  -22.6747  -12.0450   20.1483 C   0  0  0  0  0  0  0  0  0  0  0  0
  -27.0010  -24.8742   20.0973 C   0  0  0  0  0  0  0  0  0  1  0  0
  -26.7042  -31.3905   22.5187 C   0  0  0  0  0  0  0  0  0  0  0  0
  -23.6115  -31.3407   23.4961 C   0  0  0  0  0  0  0  0  0  0  0  0
  -20.5921  -29.7502   23.4762 C   0  0  0  0  0  0  0  0  0  0  0  0
  -29.4048  -16.2279   19.4377 C   0  0  0  0  0  0  0  0  0  0  0  0
  -29.4862  -35.3876   24.0488 C   0  0  0  0  0  0  0  0  0  0  0  0
  -25.4913  -31.0568   20.3339 C   0  0  0  0  0  0  0  0  0  0  0  0
  -24.4934  -29.2291   22.4335 C   0  0  0  0  0  0  0  0  0  0  0  0
  -28.3355  -34.5711   24.6316 C   0  0  0  0  0  0  0  0  0  0  0  0
  -29.9900  -12.7385   19.0392 C   0  0  0  0  0  0  0  0  0  0  0  0
  -28.6315  -33.0786   24.5232 C   0  0  0  0  0  0  0  0  0  0  0  0
  -28.6623  -12.0988   19.4515 C   0  0  0  0  0  0  0  0  0  0  0  0
  -30.3190  -13.9624   19.8923 C   0  0  0  0  0  0  0  0  0  0  0  0
  -27.9314  -14.3370   20.3699 C   0  0  0  0  0  0  0  0  0  0  0  0
  -28.7806  -32.6508   23.0582 C   0  0  1  0  0  0  0  0  0  0  0  0
  -25.3918  -31.4887   21.7937 C   0  0  1  0  0  0  0  0  0  0  0  0
  -27.5256  -13.1388   19.4963 C   0  0  2  0  0  0  0  0  0  0  0  0
  -18.2647  -29.9302   24.3973 C   0  0  0  0  0  0  0  0  0  0  0  0
  -24.6170  -30.3909   26.2158 C   0  0  0  0  0  0  0  0  0  0  0  0
  -22.2756  -29.6902   26.7589 C   0  0  0  0  0  0  0  0  0  0  0  0
  -22.7861  -32.0915   26.3162 C   0  0  0  0  0  0  0  0  0  0  0  0
  -19.4094  -29.9244   20.7688 C   0  0  0  0  0  0  0  0  0  0  0  0
  -22.7883  -30.4491   24.3941 C   0  0  1  0  0  0  0  0  0  0  0  0
  -19.1845  -30.2641   23.2331 C   0  0  2  0  0  0  0  0  0  0  0  0
  -23.1299  -30.6452   25.8982 C   0  0  0  0  0  0  0  0  0  0  0  0
  -26.2466  -11.5048   20.8289 N   0  0  0  0  0  0  0  0  0  0  0  0
  -26.2161  -12.5212   19.9502 N   0  0  0  0  0  0  0  0  0  0  0  0
  -24.4239  -30.6948   22.5533 N   0  0  0  0  0  0  0  0  0  0  0  0
  -29.1985  -14.9054   19.8841 N   0  0  0  0  0  0  0  0  0  0  0  0
  -24.7458  -13.8832   18.6878 N   0  0  0  0  0  0  0  0  0  0  0  0
  -21.9531  -11.1141   20.9079 N   0  0  0  0  0  0  0  0  0  0  0  0
  -28.2597  -17.0238   19.4440 N   0  0  0  0  0  0  0  0  0  0  0  0
  -27.4814  -32.5298   22.4323 N   0  0  0  0  0  0  0  0  0  0  0  0
  -21.3924  -30.7097   24.0594 N   0  0  0  0  0  0  0  0  0  0  0  0
  -18.6173  -29.6557   21.9965 N   0  3  0  0  0  0  0  0  0  0  0  0
  -22.0551  -12.8410   19.4026 O   0  0  0  0  0  0  0  0  0  0  0  0
  -27.9273  -25.4695   20.6258 O   0  0  0  0  0  0  0  0  0  0  0  0
  -26.9898  -30.3581   23.1139 O   0  0  0  0  0  0  0  0  0  0  0  0
  -23.5311  -32.5652   23.6215 O   0  0  0  0  0  0  0  0  0  0  0  0
  -20.9452  -28.6104   23.1818 O   0  0  0  0  0  0  0  0  0  0  0  0
  -30.5096  -16.6173   19.0507 O   0  0  0  0  0  0  0  0  0  0  0  0
  -23.4417   -7.0951   24.4669 O   0  0  0  0  0  0  0  0  0  0  0  0
  -25.8125  -25.4455   19.6260 O   0  0  0  0  0  0  0  0  0  1  0  0
  -19.5884   -3.5599   22.7181 F   0  0  0  0  0  0  0  0  0  0  0  0
  -20.9128   -7.9778   23.7829 F   0  0  0  0  0  0  0  0  0  0  0  0
  1  2  1  0  0  0  0
  1  7  2  0  0  0  0
  2  8  2  0  0  0  0
  3 12  2  0  0  0  0
  3 19  1  0  0  0  0
  4 13  1  0  0  0  0
  4 19  2  0  0  0  0
  5 10  2  0  0  0  0
  5 20  1  0  0  0  0
  6 11  1  0  0  0  0
  6 20  2  0  0  0  0
  7 22  1  0  0  0  0
  8 24  1  0  0  0  0
  9 14  2  0  0  0  0
  9 23  1  0  0  0  0
 10 26  1  0  0  0  0
 11 26  2  0  0  0  0
 12 27  1  0  0  0  0
 13 27  2  0  0  0  0
 14 28  1  0  0  0  0
 15 16  2  0  0  0  0
 15 29  1  0  0  0  0
 16 30  1  0  0  0  0
 17 25  1  0  0  0  0
 17 28  2  0  0  0  0
 18 30  2  0  0  0  0
 18 31  1  0  0  0  0
 19 32  1  0  0  0  0
 20 34  1  0  0  0  0
 21 32  1  0  0  0  0
 21 33  2  0  0  0  0
 21 36  1  0  0  0  0
 22 24  2  0  0  0  0
 22 42  1  0  0  0  0
 23 25  2  0  0  0  0
 23 43  1  0  0  0  0
 24 51  1  0  0  0  0
 25 44  1  0  0  0  0
 26 68  1  0  0  0  0
 27 78  1  0  0  0  0
 28 79  1  0  0  0  0
 29 31  2  0  0  0  0
 29 78  1  0  0  0  0
 30 80  1  0  0  0  0
 31 81  1  0  0  0  0
 32 62  2  0  0  0  0
 33 63  1  0  0  0  0
 33 66  1  0  0  0  0
 34 35  2  0  0  0  0
 35 37  1  0  0  0  0
 36 67  1  0  0  0  0
 36 72  2  0  0  0  0
 37 73  2  0  0  0  0
 37 79  1  0  0  0  0
 38 52  1  0  0  0  0
 38 69  1  0  0  0  0
 38 74  2  0  0  0  0
 39 59  1  0  0  0  0
 39 64  1  0  0  0  0
 39 75  2  0  0  0  0
 40 60  1  0  0  0  0
 40 70  1  0  0  0  0
 40 76  2  0  0  0  0
 41 65  1  0  0  0  0
 41 68  1  0  0  0  0
 41 77  2  0  0  0  0
 42 45  1  0  0  0  0
 43 52  1  0  0  0  0
 44 64  1  0  0  0  0
 45 47  1  0  0  0  0
 46 48  1  0  0  0  0
 46 49  1  0  0  0  0
 47 51  1  0  0  0  0
 48 53  1  0  0  0  0
 49 65  1  0  0  0  0
 50 53  1  0  0  0  0
 50 65  1  0  0  0  0
 51 69  1  0  0  0  0
 52 64  1  0  0  0  0
 53 63  1  0  0  0  0
 54 60  1  0  0  0  0
 55 61  1  0  0  0  0
 56 61  1  0  0  0  0
 57 61  1  0  0  0  0
 58 71  1  0  0  0  0
 59 61  1  0  0  0  0
 59 70  1  0  0  0  0
 60 71  1  0  0  0  0
 62 63  1  0  0  0  0
M  CHG  1  71   1
M  ISO  4  37 101  41 100  68 100  79 101
M  END
> <Batch ID>
0002

> <Smiles>
CNC(C)C(=O)NC(C(=O)N1Cc2cc([101O:1][101C:1](=O)C=Cc3ccc([100NH:0][100C:0](=O)N4CCCC(n5nc(-c6ccc(Oc7ccc(F)cc7F)cc6)c(C(N)=O)c5N)C4)cc3)ccc2CC1C(=O)NC1CCCc2ccccc21)C(C)(C)C

> <Shape>
0.296

> <Color>
0.118

> <Negative vol penalty>
0.000

$$$$

  -OEChem-04052315183D

 78 86  0     1  0  0  0  0  0999 V2000
  -26.6841  -10.9203   17.4068 C   0  0  0  0  0  0  0  0  0  0  0  0
  -25.9165  -12.0441   17.6955 C   0  0  0  0  0  0  0  0  0  0  0  0
  -19.9748  -20.0918   15.6358 C   0  0  0  0  0  0  0  0  0  0  0  0
  -26.2164  -29.3106   20.5870 C   0  0  0  0  0  0  0  0  0  0  0  0
  -23.8093  -29.2573   20.3869 C   0  0  0  0  0  0  0  0  0  0  0  0
  -27.9824  -10.8178   17.9046 C   0  0  0  0  0  0  0  0  0  0  0  0
  -26.4464  -13.0655   18.4831 C   0  0  0  0  0  0  0  0  0  0  0  0
  -25.4958  -17.6671   16.5943 C   0  0  0  0  0  0  0  0  0  0  0  0
  -20.6014  -20.8556   14.6511 C   0  0  0  0  0  0  0  0  0  0  0  0
  -20.6913  -19.6775   16.7585 C   0  0  0  0  0  0  0  0  0  0  0  0
  -26.1283  -30.4847   21.3348 C   0  0  0  0  0  0  0  0  0  0  0  0
  -23.7211  -30.4314   21.1348 C   0  0  0  0  0  0  0  0  0  0  0  0
  -24.2173  -18.1859   16.7945 C   0  0  0  0  0  0  0  0  0  0  0  0
  -26.5161  -33.2993   23.6026 C   0  0  0  0  0  0  0  0  0  0  0  0
  -27.2957  -33.3941   24.7552 C   0  0  0  0  0  0  0  0  0  0  0  0
  -25.0503  -19.5155   18.6269 C   0  0  0  0  0  0  0  0  0  0  0  0
  -22.6613  -20.7908   15.9118 C   0  0  0  0  0  0  0  0  0  0  0  0
  -26.1775  -31.4580   25.6708 C   0  0  0  0  0  0  0  0  0  0  0  0
  -25.0569  -28.6969   20.1130 C   0  0  0  0  0  0  0  0  0  0  0  0
  -25.1360  -26.1633   19.8263 C   0  0  0  0  0  0  0  0  0  0  0  0
  -28.5320  -11.8429   18.6907 C   0  0  0  0  0  0  0  0  0  0  0  0
  -26.5607  -18.0611   17.4173 C   0  0  0  0  0  0  0  0  0  0  0  0
  -27.7528  -12.9760   18.9929 C   0  0  0  0  0  0  0  0  0  0  0  0
  -26.3419  -19.0022   18.4334 C   0  0  0  0  0  0  0  0  0  0  0  0
  -21.9447  -21.2051   14.7892 C   0  0  0  0  0  0  0  0  0  0  0  0
  -24.8807  -31.0451   21.6087 C   0  0  0  0  0  0  0  0  0  0  0  0
  -23.9938  -19.1080   17.8127 C   0  0  0  0  0  0  0  0  0  0  0  0
  -22.0346  -20.0270   16.8965 C   0  0  0  0  0  0  0  0  0  1  0  0
  -25.5670  -32.2839   23.4840 C   0  0  0  0  0  0  0  0  0  0  0  0
  -27.1265  -32.4734   25.7893 C   0  0  0  0  0  0  0  0  0  0  0  0
  -25.3978  -31.3633   24.5181 C   0  0  0  0  0  0  0  0  0  0  0  0
  -25.1473  -27.4843   19.3400 C   0  0  0  0  0  0  0  0  0  0  0  0
  -25.2459  -25.3824   18.7017 C   0  0  0  0  0  0  0  0  0  0  0  0
  -25.0350  -25.6848   21.1741 C   0  0  0  0  0  0  0  0  0  0  0  0
  -28.5059  -16.5659   19.4382 C   0  0  0  0  0  0  0  0  0  0  0  0
  -29.9681  -19.4589   19.5605 C   0  0  0  0  0  0  0  0  0  0  0  0
  -29.7385  -22.8404   19.1610 C   0  0  0  0  0  0  0  0  0  0  0  0
  -23.7955  -24.1852   13.4474 C   0  0  0  0  0  0  0  0  0  0  0  0
  -29.9231  -11.6657   19.2455 C   0  0  0  0  0  0  0  0  0  0  0  0
  -27.9394  -17.5124   17.1713 C   0  0  0  0  0  0  0  0  0  0  0  0
  -27.4556  -19.4731   19.3314 C   0  0  0  0  0  0  0  0  0  0  0  0
  -30.5429  -12.9620   19.7612 C   0  0  0  0  0  0  0  0  0  0  0  0
  -26.3418  -26.6277   13.9232 C   0  0  0  0  0  0  0  0  0  0  0  0
  -29.5451  -13.7225   20.6288 C   0  0  0  0  0  0  0  0  0  0  0  0
  -26.2528  -26.9636   15.4129 C   0  0  0  0  0  0  0  0  0  0  0  0
  -24.9634  -26.3660   13.3203 C   0  0  0  0  0  0  0  0  0  0  0  0
  -24.0734  -25.6835   15.5147 C   0  0  0  0  0  0  0  0  0  0  0  0
  -28.3012  -14.1163   19.8231 C   0  0  1  0  0  0  0  0  0  0  0  0
  -28.8433  -17.5957   18.3974 C   0  0  1  0  0  0  0  0  0  0  0  0
  -25.4433  -25.9007   16.1799 C   0  0  2  0  0  0  0  0  0  0  0  0
  -31.0889  -24.9450   19.3711 C   0  0  0  0  0  0  0  0  0  0  0  0
  -29.6895  -19.3316   22.5963 C   0  0  0  0  0  0  0  0  0  0  0  0
  -30.1591  -21.7896   22.6727 C   0  0  0  0  0  0  0  0  0  0  0  0
  -31.8828  -20.2193   21.7863 C   0  0  0  0  0  0  0  0  0  0  0  0
  -29.4207  -23.4692   16.2865 C   0  0  0  0  0  0  0  0  0  0  0  0
  -22.6139  -22.0219   13.7363 C   0  0  0  0  0  0  0  0  0  0  0  0
  -29.8171  -20.6981   20.4094 C   0  0  1  0  0  0  0  0  0  0  0  0
  -30.6330  -23.8325   18.4399 C   0  0  2  0  0  0  0  0  0  0  0  0
  -30.3655  -20.4995   21.8507 C   0  0  0  0  0  0  0  0  0  0  0  0
  -25.2560  -27.5432   18.0100 N   0  0  0  0  0  0  0  0  0  0  0  0
  -25.3141  -26.2495   17.6511 N   0  0  0  0  0  0  0  0  0  0  0  0
  -28.7845  -18.9027   19.0551 N   0  0  0  0  0  0  0  0  0  0  0  0
  -24.2485  -25.3474   14.0931 N   0  0  0  0  0  0  0  0  0  0  0  0
  -25.2899  -24.0456   18.5190 N   0  0  0  0  0  0  0  0  0  0  0  0
  -24.9289  -26.6229   22.2099 N   0  0  0  0  0  0  0  0  0  0  0  0
  -28.5833  -15.2625   18.9859 N   0  0  0  0  0  0  0  0  0  0  0  0
  -30.4581  -21.7801   19.6700 N   0  0  0  0  0  0  0  0  0  0  0  0
  -23.1329  -23.2682   14.2542 N   0  0  0  0  0  0  0  0  0  0  0  0
  -29.9058  -24.4476   17.2936 N   0  3  0  0  0  0  0  0  0  0  0  0
  -25.0553  -24.4619   21.4530 O   0  0  0  0  0  0  0  0  0  0  0  0
  -28.1997  -16.9270   20.5685 O   0  0  0  0  0  0  0  0  0  0  0  0
  -31.0953  -19.0054   19.3476 O   0  0  0  0  0  0  0  0  0  0  0  0
  -28.5234  -22.9928   19.2657 O   0  0  0  0  0  0  0  0  0  0  0  0
  -23.9733  -23.9774   12.2423 O   0  0  0  0  0  0  0  0  0  0  0  0
  -24.7943  -32.1907   22.3386 O   0  0  0  0  0  0  0  0  0  0  0  0
  -22.7467  -19.6154   18.0107 O   0  0  0  0  0  0  0  0  0  1  0  0
  -27.8763  -32.5636   26.8956 F   0  0  0  0  0  0  0  0  0  0  0  0
  -24.4885  -30.3849   24.4094 F   0  0  0  0  0  0  0  0  0  0  0  0
  1  2  1  0  0  0  0
  1  6  2  0  0  0  0
  2  7  2  0  0  0  0
  3  9  1  0  0  0  0
  3 10  2  0  0  0  0
  4 11  2  0  0  0  0
  4 19  1  0  0  0  0
  5 12  1  0  0  0  0
  5 19  2  0  0  0  0
  6 21  1  0  0  0  0
  7 23  1  0  0  0  0
  8 13  2  0  0  0  0
  8 22  1  0  0  0  0
  9 25  2  0  0  0  0
 10 28  1  0  0  0  0
 11 26  1  0  0  0  0
 12 26  2  0  0  0  0
 13 27  1  0  0  0  0
 14 15  2  0  0  0  0
 14 29  1  0  0  0  0
 15 30  1  0  0  0  0
 16 24  1  0  0  0  0
 16 27  2  0  0  0  0
 17 25  1  0  0  0  0
 17 28  2  0  0  0  0
 18 30  2  0  0  0  0
 18 31  1  0  0  0  0
 19 32  1  0  0  0  0
 20 32  1  0  0  0  0
 20 33  2  0  0  0  0
 20 34  1  0  0  0  0
 21 23  2  0  0  0  0
 21 39  1  0  0  0  0
 22 24  2  0  0  0  0
 22 40  1  0  0  0  0
 23 48  1  0  0  0  0
 24 41  1  0  0  0  0
 25 56  1  0  0  0  0
 26 75  1  0  0  0  0
 27 76  1  0  0  0  0
 28 76  1  0  0  0  0
 29 31  2  0  0  0  0
 29 75  1  0  0  0  0
 30 77  1  0  0  0  0
 31 78  1  0  0  0  0
 32 60  2  0  0  0  0
 33 61  1  0  0  0  0
 33 64  1  0  0  0  0
 34 65  1  0  0  0  0
 34 70  2  0  0  0  0
 35 49  1  0  0  0  0
 35 66  1  0  0  0  0
 35 71  2  0  0  0  0
 36 57  1  0  0  0  0
 36 62  1  0  0  0  0
 36 72  2  0  0  0  0
 37 58  1  0  0  0  0
 37 67  1  0  0  0  0
 37 73  2  0  0  0  0
 38 63  1  0  0  0  0
 38 68  1  0  0  0  0
 38 74  2  0  0  0  0
 39 42  1  0  0  0  0
 40 49  1  0  0  0  0
 41 62  1  0  0  0  0
 42 44  1  0  0  0  0
 43 45  1  0  0  0  0
 43 46  1  0  0  0  0
 44 48  1  0  0  0  0
 45 50  1  0  0  0  0
 46 63  1  0  0  0  0
 47 50  1  0  0  0  0
 47 63  1  0  0  0  0
 48 66  1  0  0  0  0
 49 62  1  0  0  0  0
 50 61  1  0  0  0  0
 51 58  1  0  0  0  0
 52 59  1  0  0  0  0
 53 59  1  0  0  0  0
 54 59  1  0  0  0  0
 55 69  1  0  0  0  0
 56 68  1  0  0  0  0
 57 59  1  0  0  0  0
 57 67  1  0  0  0  0
 58 69  1  0  0  0  0
 60 61  1  0  0  0  0
M  CHG  1  69   1
M  ISO  4  28 101  38 100  68 100  76 101
M  END
> <Batch ID>
0002

> <Smiles>
CNC(C)C(=O)NC(C(=O)N1Cc2cc([101O:1][101c:1]3cccc(C[100NH:0][100C:0](=O)N4CCCC(n5nc(-c6ccc(Oc7ccc(F)cc7F)cc6)c(C(N)=O)c5N)C4)c3)ccc2CC1C(=O)NC1CCCc2ccccc21)C(C)(C)C

> <Shape>
0.233

> <Color>
0.052

> <Negative vol penalty>
0.000

$$$$

  -OEChem-04052315183D

 84 92  0     1  0  0  0  0  0999 V2000
  -31.9677  -18.1865   19.5296 C   0  0  0  0  0  0  0  0  0  0  0  0
  -31.5088  -17.4893   20.6414 C   0  0  0  0  0  0  0  0  0  0  0  0
  -26.6887  -29.7545   19.2968 C   0  0  0  0  0  0  0  0  0  0  0  0
  -26.2705  -29.0525   21.5704 C   0  0  0  0  0  0  0  0  0  0  0  0
  -27.2355  -20.6078   24.9700 C   0  0  0  0  0  0  0  0  0  0  0  0
  -31.1690  -18.2802   18.3919 C   0  0  0  0  0  0  0  0  0  0  0  0
  -30.2560  -16.8755   20.6117 C   0  0  0  0  0  0  0  0  0  0  0  0
  -29.0677  -14.0342   24.4481 C   0  0  0  0  0  0  0  0  0  0  0  0
  -27.8336  -21.4635   24.0450 C   0  0  0  0  0  0  0  0  0  0  0  0
  -25.5406  -30.5459   19.3299 C   0  0  0  0  0  0  0  0  0  0  0  0
  -25.1223  -29.8439   21.6036 C   0  0  0  0  0  0  0  0  0  0  0  0
  -28.7604  -14.5542   25.7046 C   0  0  0  0  0  0  0  0  0  0  0  0
  -22.5221  -32.4714   18.6942 C   0  0  0  0  0  0  0  0  0  0  0  0
  -21.6667  -32.4222   17.5935 C   0  0  0  0  0  0  0  0  0  0  0  0
  -26.4170  -14.1633   25.2866 C   0  0  0  0  0  0  0  0  0  0  0  0
  -27.7322  -19.7246   22.3707 C   0  0  0  0  0  0  0  0  0  0  0  0
  -21.3437  -30.0547   17.9504 C   0  0  0  0  0  0  0  0  0  0  0  0
  -27.0537  -29.0078   20.4171 C   0  0  0  0  0  0  0  0  0  0  0  0
  -26.8858  -19.3104   24.5954 C   0  0  0  0  0  0  0  0  0  0  0  0
  -29.5460  -28.5714   20.7418 C   0  0  0  0  0  0  0  0  0  0  0  0
  -29.9008  -17.6776   18.3535 C   0  0  0  0  0  0  0  0  0  0  0  0
  -28.0493  -13.5841   23.5956 C   0  0  0  0  0  0  0  0  0  0  0  0
  -29.4450  -16.9385   19.4641 C   0  0  0  0  0  0  0  0  0  0  0  0
  -26.7142  -13.6356   24.0208 C   0  0  0  0  0  0  0  0  0  0  0  0
  -28.0820  -21.0220   22.7454 C   0  0  0  0  0  0  0  0  0  0  0  0
  -24.7574  -30.5906   20.4833 C   0  0  0  0  0  0  0  0  0  0  0  0
  -27.4347  -14.6216   26.1229 C   0  0  0  0  0  0  0  0  0  0  0  0
  -22.7883  -31.3122   19.4230 C   0  0  0  0  0  0  0  0  0  0  0  0
  -21.0775  -31.2139   17.2217 C   0  0  0  0  0  0  0  0  0  0  0  0
  -27.1341  -18.8689   23.2958 C   0  0  0  0  0  0  0  0  0  0  0  0
  -22.1991  -30.1039   19.0511 C   0  0  0  0  0  0  0  0  0  0  0  0
  -28.2393  -28.1897   20.3833 C   0  0  0  0  0  0  0  0  0  0  0  0
  -30.3023  -27.4439   20.5337 C   0  0  0  0  0  0  0  0  0  0  0  0
  -26.2516  -18.4016   25.5848 C   0  0  0  0  0  0  0  0  0  0  0  0
  -30.0326  -29.8324   21.2202 C   0  0  0  0  0  0  0  0  0  0  0  0
  -26.9992  -14.4258   20.7159 C   0  0  0  0  0  0  0  0  0  0  0  0
  -25.1169  -11.8072   21.0655 C   0  0  0  0  0  0  0  0  0  0  0  0
  -23.5850   -9.6004   23.1703 C   0  0  0  0  0  0  0  0  0  0  0  0
  -29.0052  -21.6113   20.4768 C   0  0  0  0  0  0  0  0  0  0  0  0
  -29.0811  -17.8038   17.0936 C   0  0  0  0  0  0  0  0  0  0  0  0
  -28.3995  -13.0011   22.2540 C   0  0  0  0  0  0  0  0  0  0  0  0
  -25.5856  -13.1468   23.1515 C   0  0  0  0  0  0  0  0  0  0  0  0
  -27.6020  -17.5044   17.3141 C   0  0  0  0  0  0  0  0  0  0  0  0
  -30.4700  -23.4929   17.8327 C   0  0  0  0  0  0  0  0  0  0  0  0
  -27.4440  -16.1935   18.0700 C   0  0  0  0  0  0  0  0  0  0  0  0
  -30.1884  -24.9458   18.2224 C   0  0  0  0  0  0  0  0  0  0  0  0
  -29.3102  -22.5709   18.2050 C   0  0  0  0  0  0  0  0  0  0  0  0
  -28.5963  -24.1047   19.9957 C   0  0  0  0  0  0  0  0  0  0  0  0
  -28.0731  -16.2888   19.4657 C   0  0  1  0  0  0  0  0  0  0  0  0
  -27.2414  -13.0470   21.2619 C   0  0  1  0  0  0  0  0  0  0  0  0
  -29.7632  -25.0608   19.6994 C   0  0  2  0  0  0  0  0  0  0  0  0
  -22.0831   -7.5900   23.1635 C   0  0  0  0  0  0  0  0  0  0  0  0
  -22.7247  -13.5995   20.4532 C   0  0  0  0  0  0  0  0  0  0  0  0
  -21.2366  -11.8113   21.3786 C   0  0  0  0  0  0  0  0  0  0  0  0
  -22.6436  -11.3459   19.3720 C   0  0  0  0  0  0  0  0  0  0  0  0
  -25.6333   -7.9214   24.4911 C   0  0  0  0  0  0  0  0  0  0  0  0
  -27.1981  -17.0774   28.7484 C   0  0  0  0  0  0  0  0  0  0  0  0
  -26.0913  -17.7916   27.9844 C   0  0  0  0  0  0  0  0  0  0  0  0
  -28.0063  -16.1283   27.8719 C   0  0  0  0  0  0  0  0  0  1  0  0
  -23.7451  -11.5455   21.6388 C   0  0  1  0  0  0  0  0  0  0  0  0
  -23.5215   -8.0837   23.1671 C   0  0  2  0  0  0  0  0  0  0  0  0
  -22.6084  -12.0866   20.7265 C   0  0  0  0  0  0  0  0  0  0  0  0
  -28.1661  -26.9190   19.9781 N   0  0  0  0  0  0  0  0  0  0  0  0
  -29.4364  -26.4926   20.0806 N   0  0  0  0  0  0  0  0  0  0  0  0
  -25.9784  -12.5911   21.8459 N   0  0  0  0  0  0  0  0  0  0  0  0
  -28.9655  -22.7311   19.6193 N   0  0  0  0  0  0  0  0  0  0  0  0
  -31.6170  -27.1835   20.6959 N   0  0  0  0  0  0  0  0  0  0  0  0
  -29.1204  -30.8848   21.3765 N   0  0  0  0  0  0  0  0  0  0  0  0
  -28.6895  -21.8914   21.8059 N   0  0  0  0  0  0  0  0  0  0  0  0
  -26.6016  -18.6042   26.9150 N   0  0  0  0  0  0  0  0  0  0  0  0
  -28.0894  -14.9734   20.0670 N   0  0  0  0  0  0  0  0  0  0  0  0
  -23.6757  -10.1105   21.8925 N   0  0  0  0  0  0  0  0  0  0  0  0
  -24.2039   -7.5341   24.3726 N   0  3  0  0  0  0  0  0  0  0  0  0
  -25.4858  -17.5260   25.1905 O   0  0  0  0  0  0  0  0  0  0  0  0
  -31.2435  -30.0250   21.4851 O   0  0  0  0  0  0  0  0  0  0  0  0
  -25.9039  -14.9530   20.8705 O   0  0  0  0  0  0  0  0  0  0  0  0
  -25.4156  -11.3276   19.9690 O   0  0  0  0  0  0  0  0  0  0  0  0
  -23.5533  -10.2662   24.2029 O   0  0  0  0  0  0  0  0  0  0  0  0
  -29.3243  -20.4919   20.0680 O   0  0  0  0  0  0  0  0  0  0  0  0
  -23.6371  -31.3629   20.5160 O   0  0  0  0  0  0  0  0  0  0  0  0
  -27.1319  -15.1293   27.3486 O   0  0  0  0  0  0  0  0  0  1  0  0
  -20.2549  -31.1671   16.1656 F   0  0  0  0  0  0  0  0  0  0  0  0
  -26.8026  -17.6239   22.9247 F   0  0  0  0  0  0  0  0  0  0  0  0
  -22.4501  -28.9872   19.7481 F   0  0  0  0  0  0  0  0  0  0  0  0
  1  2  1  0  0  0  0
  1  6  2  0  0  0  0
  2  7  2  0  0  0  0
  3 10  2  0  0  0  0
  3 18  1  0  0  0  0
  4 11  1  0  0  0  0
  4 18  2  0  0  0  0
  5  9  2  0  0  0  0
  5 19  1  0  0  0  0
  6 21  1  0  0  0  0
  7 23  1  0  0  0  0
  8 12  2  0  0  0  0
  8 22  1  0  0  0  0
  9 25  1  0  0  0  0
 10 26  1  0  0  0  0
 11 26  2  0  0  0  0
 12 27  1  0  0  0  0
 13 14  2  0  0  0  0
 13 28  1  0  0  0  0
 14 29  1  0  0  0  0
 15 24  1  0  0  0  0
 15 27  2  0  0  0  0
 16 25  2  0  0  0  0
 16 30  1  0  0  0  0
 17 29  2  0  0  0  0
 17 31  1  0  0  0  0
 18 32  1  0  0  0  0
 19 30  2  0  0  0  0
 19 34  1  0  0  0  0
 20 32  1  0  0  0  0
 20 33  2  0  0  0  0
 20 35  1  0  0  0  0
 21 23  2  0  0  0  0
 21 40  1  0  0  0  0
 22 24  2  0  0  0  0
 22 41  1  0  0  0  0
 23 49  1  0  0  0  0
 24 42  1  0  0  0  0
 25 69  1  0  0  0  0
 26 80  1  0  0  0  0
 27 81  1  0  0  0  0
 28 31  2  0  0  0  0
 28 80  1  0  0  0  0
 29 82  1  0  0  0  0
 30 83  1  0  0  0  0
 31 84  1  0  0  0  0
 32 63  2  0  0  0  0
 33 64  1  0  0  0  0
 33 67  1  0  0  0  0
 34 70  1  0  0  0  0
 34 74  2  0  0  0  0
 35 68  1  0  0  0  0
 35 75  2  0  0  0  0
 36 50  1  0  0  0  0
 36 71  1  0  0  0  0
 36 76  2  0  0  0  0
 37 60  1  0  0  0  0
 37 65  1  0  0  0  0
 37 77  2  0  0  0  0
 38 61  1  0  0  0  0
 38 72  1  0  0  0  0
 38 78  2  0  0  0  0
 39 66  1  0  0  0  0
 39 69  1  0  0  0  0
 39 79  2  0  0  0  0
 40 43  1  0  0  0  0
 41 50  1  0  0  0  0
 42 65  1  0  0  0  0
 43 45  1  0  0  0  0
 44 46  1  0  0  0  0
 44 47  1  0  0  0  0
 45 49  1  0  0  0  0
 46 51  1  0  0  0  0
 47 66  1  0  0  0  0
 48 51  1  0  0  0  0
 48 66  1  0  0  0  0
 49 71  1  0  0  0  0
 50 65  1  0  0  0  0
 51 64  1  0  0  0  0
 52 61  1  0  0  0  0
 53 62  1  0  0  0  0
 54 62  1  0  0  0  0
 55 62  1  0  0  0  0
 56 73  1  0  0  0  0
 57 58  1  0  0  0  0
 57 59  1  0  0  0  0
 58 70  1  0  0  0  0
 59 81  1  0  0  0  0
 60 62  1  0  0  0  0
 60 72  1  0  0  0  0
 61 73  1  0  0  0  0
 63 64  1  0  0  0  0
M  CHG  1  73   1
M  ISO  4  39 100  59 101  69 100  81 101
M  END
> <Batch ID>
0002

> <Smiles>
CNC(C)C(=O)NC(C(=O)N1Cc2cc([101O:1][101CH2:1]CCNC(=O)c3ccc([100NH:0][100C:0](=O)N4CCCC(n5nc(-c6ccc(Oc7ccc(F)cc7F)cc6)c(C(N)=O)c5N)C4)cc3F)ccc2CC1C(=O)NC1CCCc2ccccc21)C(C)(C)C

> <Shape>
0.227

> <Color>
0.061

> <Negative vol penalty>
0.000

$$$$

  -OEChem-04052315183D

 75 82  0     1  0  0  0  0  0999 V2000
  -28.8153  -11.5345   21.6269 C   0  0  0  0  0  0  0  0  0  0  0  0
  -29.0552  -12.8045   21.1122 C   0  0  0  0  0  0  0  0  0  0  0  0
  -24.9758  -30.6613   21.1029 C   0  0  0  0  0  0  0  0  0  0  0  0
  -24.8803  -28.3070   21.6369 C   0  0  0  0  0  0  0  0  0  0  0  0
  -27.5304  -10.9954   21.5790 C   0  0  0  0  0  0  0  0  0  0  0  0
  -28.0104  -13.5359   20.5484 C   0  0  0  0  0  0  0  0  0  0  0  0
  -27.9857  -18.3693   22.0590 C   0  0  0  0  0  0  0  0  0  0  0  0
  -23.6149  -30.6472   20.7973 C   0  0  0  0  0  0  0  0  0  0  0  0
  -23.5194  -28.2929   21.3314 C   0  0  0  0  0  0  0  0  0  0  0  0
  -28.9031  -19.2293   21.4567 C   0  0  0  0  0  0  0  0  0  0  0  0
  -19.9414  -27.7183   21.0381 C   0  0  0  0  0  0  0  0  0  0  0  0
  -19.0853  -27.0559   21.9178 C   0  0  0  0  0  0  0  0  0  0  0  0
  -27.1634  -20.0597   20.0065 C   0  0  0  0  0  0  0  0  0  0  0  0
  -19.7658  -28.5407   23.6981 C   0  0  0  0  0  0  0  0  0  0  0  0
  -25.6085  -29.4911   21.5227 C   0  0  0  0  0  0  0  0  0  0  0  0
  -27.6022  -29.7650   23.0904 C   0  0  0  0  0  0  0  0  0  0  0  0
  -26.4673  -11.7244   21.0230 C   0  0  0  0  0  0  0  0  0  0  0  0
  -26.6505  -18.3403   21.6314 C   0  0  0  0  0  0  0  0  0  0  0  0
  -26.7103  -13.0055   20.4918 C   0  0  0  0  0  0  0  0  0  0  0  0
  -26.2305  -19.2003   20.6067 C   0  0  0  0  0  0  0  0  0  0  0  0
  -22.8867  -29.4630   20.9116 C   0  0  0  0  0  0  0  0  0  0  0  0
  -28.4926  -20.0726   20.4284 C   0  0  0  0  0  0  0  0  0  0  0  0
  -20.7098  -28.7918   21.4884 C   0  0  0  0  0  0  0  0  0  0  0  0
  -18.9974  -27.4670   23.2478 C   0  0  0  0  0  0  0  0  0  0  0  0
  -20.6219  -29.2030   22.8184 C   0  0  0  0  0  0  0  0  0  0  0  0
  -27.0144  -29.5049   21.8379 C   0  0  0  0  0  0  0  0  0  0  0  0
  -28.9528  -29.6581   22.8646 C   0  0  0  0  0  0  0  0  0  0  0  0
  -26.9828  -30.0753   24.3457 C   0  0  0  0  0  0  0  0  0  0  0  0
  -24.7550  -16.1373   20.3439 C   0  0  0  0  0  0  0  0  0  0  0  0
  -22.4872  -18.4247   20.7273 C   0  0  0  0  0  0  0  0  0  0  0  0
  -21.3121  -21.8348   20.6391 C   0  0  0  0  0  0  0  0  0  0  0  0
  -32.0534  -26.6774   18.6597 C   0  0  0  0  0  0  0  0  0  0  0  0
  -25.1052  -11.0809   20.9508 C   0  0  0  0  0  0  0  0  0  0  0  0
  -25.6673  -17.4260   22.3094 C   0  0  0  0  0  0  0  0  0  0  0  0
  -24.8037  -19.2221   20.1246 C   0  0  0  0  0  0  0  0  0  0  0  0
  -23.9772  -12.0719   20.6755 C   0  0  0  0  0  0  0  0  0  0  0  0
  -32.2426  -30.1916   19.4436 C   0  0  0  0  0  0  0  0  0  0  0  0
  -24.3584  -13.0113   19.5357 C   0  0  0  0  0  0  0  0  0  0  0  0
  -30.9545  -30.4426   20.2267 C   0  0  0  0  0  0  0  0  0  0  0  0
  -32.0405  -29.1403   18.3571 C   0  0  0  0  0  0  0  0  0  0  0  0
  -30.2048  -28.0899   19.6548 C   0  0  0  0  0  0  0  0  0  0  0  0
  -25.5979  -13.8398   19.8946 C   0  0  1  0  0  0  0  0  0  0  0  0
  -24.4495  -17.1122   21.4457 C   0  0  1  0  0  0  0  0  0  0  0  0
  -30.3783  -29.1264   20.7783 C   0  0  2  0  0  0  0  0  0  0  0  0
  -19.0871  -22.8105   21.2674 C   0  0  0  0  0  0  0  0  0  0  0  0
  -21.8315  -18.0942   17.7658 C   0  0  0  0  0  0  0  0  0  0  0  0
  -20.6051  -20.2747   17.8655 C   0  0  0  0  0  0  0  0  0  0  0  0
  -19.8375  -18.3494   19.2536 C   0  0  0  0  0  0  0  0  0  0  0  0
  -22.5535  -23.7486   22.5246 C   0  0  0  0  0  0  0  0  0  0  0  0
  -31.5763  -21.8927   19.5682 C   0  0  0  0  0  0  0  0  0  0  0  0
  -31.0562  -23.3132   19.7593 C   0  0  0  0  0  0  0  0  0  0  0  0
  -30.7280  -20.8776   20.3227 C   0  0  0  0  0  0  0  0  0  1  0  0
  -31.9285  -24.3327   19.0407 C   0  0  0  0  0  0  0  0  0  0  0  0
  -21.9637  -19.5629   19.8851 C   0  0  1  0  0  0  0  0  0  0  0  0
  -20.5167  -22.5501   21.7162 C   0  0  2  0  0  0  0  0  0  0  0  0
  -21.0868  -19.0688   18.7001 C   0  0  0  0  0  0  0  0  0  0  0  0
  -27.9176  -29.2521   20.8870 N   0  0  0  0  0  0  0  0  0  0  0  0
  -29.0867  -29.3528   21.5421 N   0  0  0  0  0  0  0  0  0  0  0  0
  -23.8814  -18.3053   20.8148 N   0  0  0  0  0  0  0  0  0  0  0  0
  -31.4562  -27.9175   18.9066 N   0  0  0  0  0  0  0  0  0  0  0  0
  -30.0271  -29.7965   23.6703 N   0  0  0  0  0  0  0  0  0  0  0  0
  -25.5841  -30.1454   24.4013 N   0  0  0  0  0  0  0  0  0  0  0  0
  -25.2414  -14.9221   20.7868 N   0  0  0  0  0  0  0  0  0  0  0  0
  -21.2758  -20.4660   20.8015 N   0  0  0  0  0  0  0  0  0  0  0  0
  -21.1511  -23.8575   22.0465 N   0  3  0  0  0  0  0  0  0  0  0  0
  -27.6505  -30.3003   25.3835 O   0  0  0  0  0  0  0  0  0  0  0  0
  -24.5622  -16.4629   19.1784 O   0  0  0  0  0  0  0  0  0  0  0  0
  -21.6885  -17.6737   21.2928 O   0  0  0  0  0  0  0  0  0  0  0  0
  -21.9032  -22.4306   19.7412 O   0  0  0  0  0  0  0  0  0  0  0  0
  -33.0730  -26.5205   17.9902 O   0  0  0  0  0  0  0  0  0  0  0  0
  -21.5587  -29.4490   20.6137 O   0  0  0  0  0  0  0  0  0  0  0  0
  -29.3861  -20.9125   19.8384 O   0  0  0  0  0  0  0  0  0  1  0  0
  -31.3794  -25.6395   19.2466 O   0  0  0  0  0  0  0  0  0  0  0  0
  -18.1741  -26.8318   24.0921 F   0  0  0  0  0  0  0  0  0  0  0  0
  -21.3567  -30.2345   23.2565 F   0  0  0  0  0  0  0  0  0  0  0  0
  1  2  1  0  0  0  0
  1  5  2  0  0  0  0
  2  6  2  0  0  0  0
  3  8  2  0  0  0  0
  3 15  1  0  0  0  0
  4  9  1  0  0  0  0
  4 15  2  0  0  0  0
  5 17  1  0  0  0  0
  6 19  1  0  0  0  0
  7 10  2  0  0  0  0
  7 18  1  0  0  0  0
  8 21  1  0  0  0  0
  9 21  2  0  0  0  0
 10 22  1  0  0  0  0
 11 12  2  0  0  0  0
 11 23  1  0  0  0  0
 12 24  1  0  0  0  0
 13 20  1  0  0  0  0
 13 22  2  0  0  0  0
 14 24  2  0  0  0  0
 14 25  1  0  0  0  0
 15 26  1  0  0  0  0
 16 26  1  0  0  0  0
 16 27  2  0  0  0  0
 16 28  1  0  0  0  0
 17 19  2  0  0  0  0
 17 33  1  0  0  0  0
 18 20  2  0  0  0  0
 18 34  1  0  0  0  0
 19 42  1  0  0  0  0
 20 35  1  0  0  0  0
 21 71  1  0  0  0  0
 22 72  1  0  0  0  0
 23 25  2  0  0  0  0
 23 71  1  0  0  0  0
 24 74  1  0  0  0  0
 25 75  1  0  0  0  0
 26 57  2  0  0  0  0
 27 58  1  0  0  0  0
 27 61  1  0  0  0  0
 28 62  1  0  0  0  0
 28 66  2  0  0  0  0
 29 43  1  0  0  0  0
 29 63  1  0  0  0  0
 29 67  2  0  0  0  0
 30 54  1  0  0  0  0
 30 59  1  0  0  0  0
 30 68  2  0  0  0  0
 31 55  1  0  0  0  0
 31 64  1  0  0  0  0
 31 69  2  0  0  0  0
 32 60  1  0  0  0  0
 32 70  2  0  0  0  0
 32 73  1  0  0  0  0
 33 36  1  0  0  0  0
 34 43  1  0  0  0  0
 35 59  1  0  0  0  0
 36 38  1  0  0  0  0
 37 39  1  0  0  0  0
 37 40  1  0  0  0  0
 38 42  1  0  0  0  0
 39 44  1  0  0  0  0
 40 60  1  0  0  0  0
 41 44  1  0  0  0  0
 41 60  1  0  0  0  0
 42 63  1  0  0  0  0
 43 59  1  0  0  0  0
 44 58  1  0  0  0  0
 45 55  1  0  0  0  0
 46 56  1  0  0  0  0
 47 56  1  0  0  0  0
 48 56  1  0  0  0  0
 49 65  1  0  0  0  0
 50 51  1  0  0  0  0
 50 52  1  0  0  0  0
 51 53  1  0  0  0  0
 52 72  1  0  0  0  0
 53 73  1  0  0  0  0
 54 56  1  0  0  0  0
 54 64  1  0  0  0  0
 55 65  1  0  0  0  0
 57 58  1  0  0  0  0
M  CHG  1  65   1
M  ISO  4  32 100  52 101  72 101  73 100
M  END
> <Batch ID>
0002

> <Smiles>
CNC(C)C(=O)NC(C(=O)N1Cc2cc([101O:1][101CH2:1]CCC[100O:0][100C:0](=O)N3CCCC(n4nc(-c5ccc(Oc6ccc(F)cc6F)cc5)c(C(N)=O)c4N)C3)ccc2CC1C(=O)NC1CCCc2ccccc21)C(C)(C)C

> <Shape>
0.227

> <Color>
0.074

> <Negative vol penalty>
0.000

$$$$

  -OEChem-04052315183D

 73 80  0     1  0  0  0  0  0999 V2000
  -28.7485  -11.4171   19.9091 C   0  0  0  0  0  0  0  0  0  0  0  0
  -28.8789  -12.6951   19.3752 C   0  0  0  0  0  0  0  0  0  0  0  0
  -26.0858  -28.8294   20.5380 C   0  0  0  0  0  0  0  0  0  0  0  0
  -25.4611  -26.4979   20.6438 C   0  0  0  0  0  0  0  0  0  0  0  0
  -27.5209  -10.9983   20.4202 C   0  0  0  0  0  0  0  0  0  0  0  0
  -27.7813  -13.5548   19.3512 C   0  0  0  0  0  0  0  0  0  0  0  0
  -28.9569  -18.2489   20.8439 C   0  0  0  0  0  0  0  0  0  0  0  0
  -24.7576  -29.1739   20.2878 C   0  0  0  0  0  0  0  0  0  0  0  0
  -24.1328  -26.8425   20.3936 C   0  0  0  0  0  0  0  0  0  0  0  0
  -29.6081  -19.0662   19.9210 C   0  0  0  0  0  0  0  0  0  0  0  0
  -20.5182  -27.1399   20.1408 C   0  0  0  0  0  0  0  0  0  0  0  0
  -19.5325  -26.5338   20.9197 C   0  0  0  0  0  0  0  0  0  0  0  0
  -27.5138  -20.1500   19.4123 C   0  0  0  0  0  0  0  0  0  0  0  0
  -20.5249  -27.4777   22.9100 C   0  0  0  0  0  0  0  0  0  0  0  0
  -26.4376  -27.4913   20.7160 C   0  0  0  0  0  0  0  0  0  0  0  0
  -28.4375  -27.0233   22.2289 C   0  0  0  0  0  0  0  0  0  0  0  0
  -26.4101  -11.8567   20.4113 C   0  0  0  0  0  0  0  0  0  0  0  0
  -27.5751  -18.3688   21.0504 C   0  0  0  0  0  0  0  0  0  0  0  0
  -26.5372  -13.1466   19.8615 C   0  0  0  0  0  0  0  0  0  0  0  0
  -26.8480  -19.3347   20.3402 C   0  0  0  0  0  0  0  0  0  0  0  0
  -23.7811  -28.1805   20.2156 C   0  0  0  0  0  0  0  0  0  0  0  0
  -28.8860  -20.0149   19.2029 C   0  0  0  0  0  0  0  0  0  0  0  0
  -21.5073  -27.9147   20.7465 C   0  0  0  0  0  0  0  0  0  0  0  0
  -19.5358  -26.7028   22.3043 C   0  0  0  0  0  0  0  0  0  0  0  0
  -21.5107  -28.0837   22.1311 C   0  0  0  0  0  0  0  0  0  0  0  0
  -27.8096  -27.1347   20.9739 C   0  0  0  0  0  0  0  0  0  0  0  0
  -29.7299  -26.6628   21.9355 C   0  0  0  0  0  0  0  0  0  0  0  0
  -27.9004  -27.2272   23.5426 C   0  0  0  0  0  0  0  0  0  0  0  0
  -25.0756  -16.4409   20.6764 C   0  0  0  0  0  0  0  0  0  0  0  0
  -23.4735  -18.8854   22.0836 C   0  0  0  0  0  0  0  0  0  0  0  0
  -23.3199  -22.2195   22.7957 C   0  0  0  0  0  0  0  0  0  0  0  0
  -32.0912  -23.8931   17.1467 C   0  0  0  0  0  0  0  0  0  0  0  0
  -25.0913  -11.3427   20.9321 C   0  0  0  0  0  0  0  0  0  0  0  0
  -26.8922  -17.4978   22.0689 C   0  0  0  0  0  0  0  0  0  0  0  0
  -25.3663  -19.5172   20.5397 C   0  0  0  0  0  0  0  0  0  0  0  0
  -24.0744  -12.4467   21.2103 C   0  0  0  0  0  0  0  0  0  0  0  0
  -33.0648  -27.0723   18.5411 C   0  0  0  0  0  0  0  0  0  0  0  0
  -24.0208  -13.4292   20.0447 C   0  0  0  0  0  0  0  0  0  0  0  0
  -31.8641  -27.4545   19.4058 C   0  0  0  0  0  0  0  0  0  0  0  0
  -32.6340  -26.3100   17.2921 C   0  0  0  0  0  0  0  0  0  0  0  0
  -30.6054  -25.4729   18.4501 C   0  0  0  0  0  0  0  0  0  0  0  0
  -25.3761  -14.1169   19.8402 C   0  0  1  0  0  0  0  0  0  0  0  0
  -25.3929  -17.3562   21.8250 C   0  0  1  0  0  0  0  0  0  0  0  0
  -31.0048  -26.2206   19.7339 C   0  0  2  0  0  0  0  0  0  0  0  0
  -21.8714  -23.9273   23.9282 C   0  0  0  0  0  0  0  0  0  0  0  0
  -21.5571  -18.8303   19.7100 C   0  0  0  0  0  0  0  0  0  0  0  0
  -20.7485  -21.0973   20.3994 C   0  0  0  0  0  0  0  0  0  0  0  0
  -20.4561  -19.1513   21.9324 C   0  0  0  0  0  0  0  0  0  0  0  0
  -25.4469  -22.9073   24.7352 C   0  0  0  0  0  0  0  0  0  0  0  0
  -30.9245  -20.6254   18.1407 C   0  0  0  0  0  0  0  0  0  1  0  0
  -31.4404  -21.6054   17.1049 C   0  0  0  0  0  0  0  0  0  0  0  0
  -22.7647  -20.1236   21.5902 C   0  0  1  0  0  0  0  0  0  0  0  0
  -23.0348  -22.9612   24.0891 C   0  0  2  0  0  0  0  0  0  0  0  0
  -21.4092  -19.7961   20.9026 C   0  0  0  0  0  0  0  0  0  0  0  0
  -28.6353  -26.8669   19.9587 N   0  0  0  0  0  0  0  0  0  0  0  0
  -29.7952  -26.5837   20.5755 N   0  0  0  0  0  0  0  0  0  0  0  0
  -24.7428  -18.6375   21.5422 N   0  0  0  0  0  0  0  0  0  0  0  0
  -31.7879  -25.1677   17.6353 N   0  0  0  0  0  0  0  0  0  0  0  0
  -30.8056  -26.4090   22.7107 N   0  0  0  0  0  0  0  0  0  0  0  0
  -26.5533  -27.5944   23.6640 N   0  0  0  0  0  0  0  0  0  0  0  0
  -25.5682  -15.1586   20.8262 N   0  0  0  0  0  0  0  0  0  0  0  0
  -22.6517  -21.0147   22.7398 N   0  0  0  0  0  0  0  0  0  0  0  0
  -24.2336  -23.7363   24.5169 N   0  3  0  0  0  0  0  0  0  0  0  0
  -28.5988  -27.1040   24.5772 O   0  0  0  0  0  0  0  0  0  0  0  0
  -24.4303  -16.8662   19.7254 O   0  0  0  0  0  0  0  0  0  0  0  0
  -22.9243  -18.1686   22.9240 O   0  0  0  0  0  0  0  0  0  0  0  0
  -24.0585  -22.6661   21.9207 O   0  0  0  0  0  0  0  0  0  0  0  0
  -33.0510  -23.6395   16.4210 O   0  0  0  0  0  0  0  0  0  0  0  0
  -22.4848  -28.5164   19.9718 O   0  0  0  0  0  0  0  0  0  0  0  0
  -29.5190  -20.8135   18.3010 O   0  0  0  0  0  0  0  0  0  1  0  0
  -31.1991  -22.9408   17.5633 O   0  0  0  0  0  0  0  0  0  0  0  0
  -18.5883  -26.1220   23.0520 F   0  0  0  0  0  0  0  0  0  0  0  0
  -22.4577  -28.8279   22.7186 F   0  0  0  0  0  0  0  0  0  0  0  0
  1  2  1  0  0  0  0
  1  5  2  0  0  0  0
  2  6  2  0  0  0  0
  3  8  2  0  0  0  0
  3 15  1  0  0  0  0
  4  9  1  0  0  0  0
  4 15  2  0  0  0  0
  5 17  1  0  0  0  0
  6 19  1  0  0  0  0
  7 10  2  0  0  0  0
  7 18  1  0  0  0  0
  8 21  1  0  0  0  0
  9 21  2  0  0  0  0
 10 22  1  0  0  0  0
 11 12  2  0  0  0  0
 11 23  1  0  0  0  0
 12 24  1  0  0  0  0
 13 20  1  0  0  0  0
 13 22  2  0  0  0  0
 14 24  2  0  0  0  0
 14 25  1  0  0  0  0
 15 26  1  0  0  0  0
 16 26  1  0  0  0  0
 16 27  2  0  0  0  0
 16 28  1  0  0  0  0
 17 19  2  0  0  0  0
 17 33  1  0  0  0  0
 18 20  2  0  0  0  0
 18 34  1  0  0  0  0
 19 42  1  0  0  0  0
 20 35  1  0  0  0  0
 21 69  1  0  0  0  0
 22 70  1  0  0  0  0
 23 25  2  0  0  0  0
 23 69  1  0  0  0  0
 24 72  1  0  0  0  0
 25 73  1  0  0  0  0
 26 55  2  0  0  0  0
 27 56  1  0  0  0  0
 27 59  1  0  0  0  0
 28 60  1  0  0  0  0
 28 64  2  0  0  0  0
 29 43  1  0  0  0  0
 29 61  1  0  0  0  0
 29 65  2  0  0  0  0
 30 52  1  0  0  0  0
 30 57  1  0  0  0  0
 30 66  2  0  0  0  0
 31 53  1  0  0  0  0
 31 62  1  0  0  0  0
 31 67  2  0  0  0  0
 32 58  1  0  0  0  0
 32 68  2  0  0  0  0
 32 71  1  0  0  0  0
 33 36  1  0  0  0  0
 34 43  1  0  0  0  0
 35 57  1  0  0  0  0
 36 38  1  0  0  0  0
 37 39  1  0  0  0  0
 37 40  1  0  0  0  0
 38 42  1  0  0  0  0
 39 44  1  0  0  0  0
 40 58  1  0  0  0  0
 41 44  1  0  0  0  0
 41 58  1  0  0  0  0
 42 61  1  0  0  0  0
 43 57  1  0  0  0  0
 44 56  1  0  0  0  0
 45 53  1  0  0  0  0
 46 54  1  0  0  0  0
 47 54  1  0  0  0  0
 48 54  1  0  0  0  0
 49 63  1  0  0  0  0
 50 51  1  0  0  0  0
 50 70  1  0  0  0  0
 51 71  1  0  0  0  0
 52 54  1  0  0  0  0
 52 62  1  0  0  0  0
 53 63  1  0  0  0  0
 55 56  1  0  0  0  0
M  CHG  1  63   1
M  ISO  4  32 100  50 101  70 101  71 100
M  END
> <Batch ID>
0002

> <Smiles>
CNC(C)C(=O)NC(C(=O)N1Cc2cc([101O:1][101CH2:1]C[100O:0][100C:0](=O)N3CCCC(n4nc(-c5ccc(Oc6ccc(F)cc6F)cc5)c(C(N)=O)c4N)C3)ccc2CC1C(=O)NC1CCCc2ccccc21)C(C)(C)C

> <Shape>
0.224

> <Color>
0.066

> <Negative vol penalty>
0.000

$$$$

  -OEChem-04052315183D

 79 86  0     1  0  0  0  0  0999 V2000
  -26.3416   -9.0562   19.3419 C   0  0  0  0  0  0  0  0  0  0  0  0
  -25.5671  -10.1765   19.6259 C   0  0  0  0  0  0  0  0  0  0  0  0
  -25.5770  -28.8323   21.2136 C   0  0  0  0  0  0  0  0  0  0  0  0
  -24.9975  -27.5840   19.2279 C   0  0  0  0  0  0  0  0  0  0  0  0
  -27.6994   -9.0505   19.6583 C   0  0  0  0  0  0  0  0  0  0  0  0
  -26.1500  -11.2914   20.2274 C   0  0  0  0  0  0  0  0  0  0  0  0
  -24.7259  -15.6383   18.0546 C   0  0  0  0  0  0  0  0  0  0  0  0
  -26.8848  -28.3542   21.1327 C   0  0  0  0  0  0  0  0  0  0  0  0
  -26.3054  -27.1059   19.1469 C   0  0  0  0  0  0  0  0  0  0  0  0
  -23.4633  -16.1303   18.3826 C   0  0  0  0  0  0  0  0  0  0  0  0
  -30.2855  -27.1763   21.6536 C   0  0  0  0  0  0  0  0  0  0  0  0
  -30.8849  -26.7207   22.8278 C   0  0  0  0  0  0  0  0  0  0  0  0
  -24.4746  -17.6696   19.9405 C   0  0  0  0  0  0  0  0  0  0  0  0
  -29.1509  -25.0554   23.0670 C   0  0  0  0  0  0  0  0  0  0  0  0
  -24.6333  -28.4472   20.2613 C   0  0  0  0  0  0  0  0  0  0  0  0
  -22.7669  -30.1119   19.7583 C   0  0  0  0  0  0  0  0  0  0  0  0
  -28.3013  -10.1694   20.2552 C   0  0  0  0  0  0  0  0  0  0  0  0
  -25.8733  -16.1515   18.6761 C   0  0  0  0  0  0  0  0  0  0  0  0
  -27.5169  -11.3000   20.5533 C   0  0  0  0  0  0  0  0  0  0  0  0
  -25.7508  -17.1841   19.6167 C   0  0  0  0  0  0  0  0  0  0  0  0
  -27.2490  -27.4910   20.0993 C   0  0  0  0  0  0  0  0  0  0  0  0
  -23.3373  -17.1442   19.3277 C   0  0  0  0  0  0  0  0  0  0  0  0
  -29.1187  -26.5715   21.1861 C   0  0  0  0  0  0  0  0  0  0  0  0
  -30.3177  -25.6603   23.5345 C   0  0  0  0  0  0  0  0  0  0  0  0
  -28.5514  -25.5111   21.8928 C   0  0  0  0  0  0  0  0  0  0  0  0
  -23.2820  -28.9404   20.3447 C   0  0  0  0  0  0  0  0  0  0  0  0
  -21.4452  -30.1301   20.1315 C   0  0  0  0  0  0  0  0  0  0  0  0
  -23.4244  -31.0957   18.9486 C   0  0  0  0  0  0  0  0  0  0  0  0
  -28.1484  -14.9406   20.5366 C   0  0  0  0  0  0  0  0  0  0  0  0
  -29.4709  -17.8797   20.1689 C   0  0  0  0  0  0  0  0  0  0  0  0
  -29.0242  -21.1921   19.4794 C   0  0  0  0  0  0  0  0  0  0  0  0
  -21.6844  -18.7096   18.8570 C   0  0  0  0  0  0  0  0  0  1  0  0
  -17.5944  -25.8256   21.7102 C   0  0  0  0  0  0  0  0  0  0  0  0
  -29.7625  -10.0986   20.6219 C   0  0  0  0  0  0  0  0  0  0  0  0
  -27.2302  -15.6284   18.2917 C   0  0  0  0  0  0  0  0  0  0  0  0
  -26.9531  -17.7833   20.2978 C   0  0  0  0  0  0  0  0  0  0  0  0
  -30.3834  -11.4617   20.9161 C   0  0  0  0  0  0  0  0  0  0  0  0
  -18.5215  -28.6777   23.6291 C   0  0  0  0  0  0  0  0  0  0  0  0
  -29.4786  -12.2726   21.8384 C   0  0  0  0  0  0  0  0  0  0  0  0
  -19.8003  -29.1742   22.9521 C   0  0  0  0  0  0  0  0  0  0  0  0
  -18.4361  -27.1530   23.6248 C   0  0  0  0  0  0  0  0  0  0  0  0
  -19.8639  -27.0246   21.6202 C   0  0  0  0  0  0  0  0  0  0  0  0
  -28.1180  -12.5380   21.1827 C   0  0  1  0  0  0  0  0  0  0  0  0
  -28.2889  -15.8688   19.3635 C   0  0  1  0  0  0  0  0  0  0  0  0
  -19.9681  -28.5577   21.5502 C   0  0  2  0  0  0  0  0  0  0  0  0
  -29.6467  -23.5778   19.0126 C   0  0  0  0  0  0  0  0  0  0  0  0
  -29.6190  -18.0561   23.2114 C   0  0  0  0  0  0  0  0  0  0  0  0
  -29.9744  -20.5237   22.9814 C   0  0  0  0  0  0  0  0  0  0  0  0
  -31.6342  -18.9310   22.0164 C   0  0  0  0  0  0  0  0  0  0  0  0
  -29.2733  -20.6804   16.5751 C   0  0  0  0  0  0  0  0  0  0  0  0
  -20.3095  -19.1583   19.3048 C   0  0  0  0  0  0  0  0  0  0  0  0
  -20.0735  -20.6552   19.1049 C   0  0  0  0  0  0  0  0  0  0  0  0
  -18.7057  -21.1061   19.6275 C   0  0  0  0  0  0  0  0  0  0  0  0
  -18.5115  -22.6131   19.4447 C   0  0  0  0  0  0  0  0  0  0  0  0
  -17.1287  -23.0574   19.9306 C   0  0  0  0  0  0  0  0  0  0  0  0
  -16.8812  -24.5459   19.7070 C   0  0  0  0  0  0  0  0  0  0  0  0
  -29.3780  -19.1937   20.9063 C   0  0  1  0  0  0  0  0  0  0  0  0
  -29.7617  -22.1350   18.5459 C   0  0  2  0  0  0  0  0  0  0  0  0
  -30.1284  -19.1637   22.2677 C   0  0  0  0  0  0  0  0  0  0  0  0
  -22.3626  -28.2635   21.0379 N   0  0  0  0  0  0  0  0  0  0  0  0
  -21.2565  -29.0122   20.8895 N   0  0  0  0  0  0  0  0  0  0  0  0
  -28.2575  -17.2338   19.8928 N   0  0  0  0  0  0  0  0  0  0  0  0
  -18.6014  -26.6320   22.2658 N   0  0  0  0  0  0  0  0  0  0  0  0
  -20.4377  -30.9933   19.8819 N   0  0  0  0  0  0  0  0  0  0  0  0
  -24.7852  -30.9232   18.6608 N   0  0  0  0  0  0  0  0  0  0  0  0
  -28.2262  -13.6010   20.2066 N   0  0  0  0  0  0  0  0  0  0  0  0
  -29.8578  -20.2153   19.9819 N   0  0  0  0  0  0  0  0  0  0  0  0
  -17.8274  -25.3788   20.4153 N   0  0  0  0  0  0  0  0  0  0  0  0
  -29.2033  -22.0410   17.1674 N   0  3  0  0  0  0  0  0  0  0  0  0
  -22.8269  -32.1065   18.5073 O   0  0  0  0  0  0  0  0  0  0  0  0
  -27.9833  -15.4054   21.6584 O   0  0  0  0  0  0  0  0  0  0  0  0
  -30.5789  -17.4459   19.8435 O   0  0  0  0  0  0  0  0  0  0  0  0
  -27.8291  -21.3123   19.7399 O   0  0  0  0  0  0  0  0  0  0  0  0
  -22.3406  -19.2263   17.9627 O   0  0  0  0  0  0  0  0  0  0  0  0
  -16.5615  -25.5303   22.3209 O   0  0  0  0  0  0  0  0  0  0  0  0
  -28.5252  -27.0244   20.0198 O   0  0  0  0  0  0  0  0  0  0  0  0
  -22.1061  -17.6258   19.6502 O   0  0  0  0  0  0  0  0  0  1  0  0
  -30.8943  -25.2219   24.6612 F   0  0  0  0  0  0  0  0  0  0  0  0
  -27.4312  -24.9253   21.4480 F   0  0  0  0  0  0  0  0  0  0  0  0
  1  2  1  0  0  0  0
  1  5  2  0  0  0  0
  2  6  2  0  0  0  0
  3  8  2  0  0  0  0
  3 15  1  0  0  0  0
  4  9  1  0  0  0  0
  4 15  2  0  0  0  0
  5 17  1  0  0  0  0
  6 19  1  0  0  0  0
  7 10  2  0  0  0  0
  7 18  1  0  0  0  0
  8 21  1  0  0  0  0
  9 21  2  0  0  0  0
 10 22  1  0  0  0  0
 11 12  2  0  0  0  0
 11 23  1  0  0  0  0
 12 24  1  0  0  0  0
 13 20  1  0  0  0  0
 13 22  2  0  0  0  0
 14 24  2  0  0  0  0
 14 25  1  0  0  0  0
 15 26  1  0  0  0  0
 16 26  1  0  0  0  0
 16 27  2  0  0  0  0
 16 28  1  0  0  0  0
 17 19  2  0  0  0  0
 17 34  1  0  0  0  0
 18 20  2  0  0  0  0
 18 35  1  0  0  0  0
 19 43  1  0  0  0  0
 20 36  1  0  0  0  0
 21 76  1  0  0  0  0
 22 77  1  0  0  0  0
 23 25  2  0  0  0  0
 23 76  1  0  0  0  0
 24 78  1  0  0  0  0
 25 79  1  0  0  0  0
 26 60  2  0  0  0  0
 27 61  1  0  0  0  0
 27 64  1  0  0  0  0
 28 65  1  0  0  0  0
 28 70  2  0  0  0  0
 29 44  1  0  0  0  0
 29 66  1  0  0  0  0
 29 71  2  0  0  0  0
 30 57  1  0  0  0  0
 30 62  1  0  0  0  0
 30 72  2  0  0  0  0
 31 58  1  0  0  0  0
 31 67  1  0  0  0  0
 31 73  2  0  0  0  0
 32 51  1  0  0  0  0
 32 74  2  0  0  0  0
 32 77  1  0  0  0  0
 33 63  1  0  0  0  0
 33 68  1  0  0  0  0
 33 75  2  0  0  0  0
 34 37  1  0  0  0  0
 35 44  1  0  0  0  0
 36 62  1  0  0  0  0
 37 39  1  0  0  0  0
 38 40  1  0  0  0  0
 38 41  1  0  0  0  0
 39 43  1  0  0  0  0
 40 45  1  0  0  0  0
 41 63  1  0  0  0  0
 42 45  1  0  0  0  0
 42 63  1  0  0  0  0
 43 66  1  0  0  0  0
 44 62  1  0  0  0  0
 45 61  1  0  0  0  0
 46 58  1  0  0  0  0
 47 59  1  0  0  0  0
 48 59  1  0  0  0  0
 49 59  1  0  0  0  0
 50 69  1  0  0  0  0
 51 52  1  0  0  0  0
 52 53  1  0  0  0  0
 53 54  1  0  0  0  0
 54 55  1  0  0  0  0
 55 56  1  0  0  0  0
 56 68  1  0  0  0  0
 57 59  1  0  0  0  0
 57 67  1  0  0  0  0
 58 69  1  0  0  0  0
 60 61  1  0  0  0  0
M  CHG  1  69   1
M  ISO  4  32 101  33 100  68 100  77 101
M  END
> <Batch ID>
0002

> <Smiles>
CNC(C)C(=O)NC(C(=O)N1Cc2cc([101O:1][101C:1](=O)CCCCCC[100NH:0][100C:0](=O)N3CCCC(n4nc(-c5ccc(Oc6ccc(F)cc6F)cc5)c(C(N)=O)c4N)C3)ccc2CC1C(=O)NC1CCCc2ccccc21)C(C)(C)C

> <Shape>
0.221

> <Color>
0.074

> <Negative vol penalty>
0.000

$$$$

  -OEChem-04052315183D

 82 90  0     1  0  0  0  0  0999 V2000
  -17.4720  -30.8956   24.2232 C   0  0  0  0  0  0  0  0  0  0  0  0
  -18.8413  -31.1410   24.2371 C   0  0  0  0  0  0  0  0  0  0  0  0
  -27.7513  -21.7644   23.7748 C   0  0  0  0  0  0  0  0  0  0  0  0
  -24.6284  -12.3079   19.6558 C   0  0  0  0  0  0  0  0  0  0  0  0
  -25.4403  -13.1353   21.7755 C   0  0  0  0  0  0  0  0  0  0  0  0
  -28.5022  -22.7821   23.1868 C   0  0  0  0  0  0  0  0  0  0  0  0
  -16.9851  -29.6967   23.7041 C   0  0  0  0  0  0  0  0  0  0  0  0
  -19.7246  -30.1871   23.7328 C   0  0  0  0  0  0  0  0  0  0  0  0
  -26.0037  -29.6403   20.3284 C   0  0  0  0  0  0  0  0  0  0  0  0
  -26.8221  -21.0546   23.0142 C   0  0  0  0  0  0  0  0  0  0  0  0
  -25.4268  -11.1725   19.7931 C   0  0  0  0  0  0  0  0  0  0  0  0
  -26.2387  -11.9998   21.9129 C   0  0  0  0  0  0  0  0  0  0  0  0
  -27.2371  -29.0000   20.4398 C   0  0  0  0  0  0  0  0  0  0  0  0
  -26.9786   -7.8852   19.7566 C   0  0  0  0  0  0  0  0  0  0  0  0
  -26.4037   -6.6488   19.4629 C   0  0  0  0  0  0  0  0  0  0  0  0
  -27.3945  -22.3806   21.0775 C   0  0  0  0  0  0  0  0  0  0  0  0
  -26.2768  -26.9987   19.4954 C   0  0  0  0  0  0  0  0  0  0  0  0
  -24.7508   -7.0074   21.1881 C   0  0  0  0  0  0  0  0  0  0  0  0
  -24.6352  -13.2893   20.6470 C   0  0  0  0  0  0  0  0  0  0  0  0
  -28.3238  -23.0903   21.8381 C   0  0  0  0  0  0  0  0  0  0  0  0
  -22.4852  -14.6289   20.9486 C   0  0  0  0  0  0  0  0  0  0  0  0
  -17.8622  -28.7317   23.1843 C   0  0  0  0  0  0  0  0  0  0  0  0
  -24.8930  -28.9600   19.8089 C   0  0  0  0  0  0  0  0  0  0  0  0
  -19.2491  -28.9736   23.2075 C   0  0  0  0  0  0  0  0  0  0  0  0
  -25.0310  -27.6335   19.3761 C   0  0  0  0  0  0  0  0  0  0  0  0
  -26.6437  -21.3627   21.6656 C   0  0  0  0  0  0  0  0  0  0  0  0
  -26.2320  -11.0184   20.9216 C   0  0  0  0  0  0  0  0  0  0  0  0
  -27.3731  -27.6781   20.0260 C   0  0  0  0  0  0  0  0  0  0  0  0
  -26.4396   -8.6828   20.7662 C   0  0  0  0  0  0  0  0  0  0  0  0
  -25.2898   -6.2099   20.1786 C   0  0  0  0  0  0  0  0  0  0  0  0
  -25.3257   -8.2439   21.4819 C   0  0  0  0  0  0  0  0  0  0  0  0
  -23.8110  -14.4627   20.5054 C   0  0  0  0  0  0  0  0  0  0  0  0
  -22.1565  -15.9093   20.5757 C   0  0  0  0  0  0  0  0  0  0  0  0
  -29.1243  -24.1746   21.2131 C   0  0  0  0  0  0  0  0  0  0  0  0
  -21.6276  -13.7082   21.6359 C   0  0  0  0  0  0  0  0  0  0  0  0
  -22.0415  -28.1278   20.9404 C   0  0  0  0  0  0  0  0  0  0  0  0
  -21.5408  -27.1684   17.8825 C   0  0  0  0  0  0  0  0  0  0  0  0
  -22.8735  -26.1454   14.9119 C   0  0  0  0  0  0  0  0  0  0  0  0
  -25.3999  -20.8204   19.5430 C   0  0  0  0  0  0  0  0  0  0  0  0
  -17.2922  -27.4308   22.6770 C   0  0  0  0  0  0  0  0  0  0  0  0
  -23.5760  -29.6733   19.6705 C   0  0  0  0  0  0  0  0  0  0  0  0
  -23.8743  -26.8653   18.7926 C   0  0  0  0  0  0  0  0  0  0  0  0
  -18.2694  -26.6311   21.8192 C   0  0  0  0  0  0  0  0  0  0  0  0
  -23.1702  -19.2245   17.2718 C   0  0  0  0  0  0  0  0  0  0  0  0
  -19.6398  -26.5709   22.4863 C   0  0  0  0  0  0  0  0  0  0  0  0
  -22.9560  -17.8396   17.8868 C   0  0  0  0  0  0  0  0  0  0  0  0
  -24.6040  -19.7151   17.4646 C   0  0  0  0  0  0  0  0  0  0  0  0
  -24.8740  -18.3038   19.4657 C   0  0  0  0  0  0  0  0  0  0  0  0
  -20.2373  -27.9740   22.6469 C   0  0  1  0  0  0  0  0  0  0  0  0
  -22.3853  -28.7219   19.6038 C   0  0  1  0  0  0  0  0  0  0  0  0
  -23.4274  -17.7953   19.3535 C   0  0  2  0  0  0  0  0  0  0  0  0
  -22.2121  -25.3961   12.6101 C   0  0  0  0  0  0  0  0  0  0  0  0
  -20.7519  -24.4409   18.9996 C   0  0  0  0  0  0  0  0  0  0  0  0
  -21.0286  -23.4957   16.6978 C   0  0  0  0  0  0  0  0  0  0  0  0
  -19.3129  -25.2557   17.1235 C   0  0  0  0  0  0  0  0  0  0  0  0
  -24.2917  -28.4109   13.6410 C   0  0  0  0  0  0  0  0  0  0  0  0
  -30.3257  -26.3094   21.6070 C   0  0  0  0  0  0  0  0  0  0  0  0
  -29.4319  -27.4664   21.1975 C   0  0  0  0  0  0  0  0  0  1  0  0
  -21.7608  -25.8877   17.1142 C   0  0  1  0  0  0  0  0  0  0  0  0
  -22.6009  -26.5792   13.4830 C   0  0  2  0  0  0  0  0  0  0  0  0
  -20.7351  -24.7836   17.4965 C   0  0  0  0  0  0  0  0  0  0  0  0
  -24.2916  -15.5505   19.8973 N   0  0  0  0  0  0  0  0  0  0  0  0
  -23.2622  -16.4125   19.9557 N   0  0  0  0  0  0  0  0  0  0  0  0
  -22.6056  -27.6043   18.6837 N   0  0  0  0  0  0  0  0  0  0  0  0
  -24.9796  -19.6488   18.8786 N   0  0  0  0  0  0  0  0  0  0  0  0
  -21.0323  -16.6425   20.7209 N   0  0  0  0  0  0  0  0  0  0  0  0
  -22.1241  -12.4339   21.9423 N   0  0  0  0  0  0  0  0  0  0  0  0
  -25.6999  -20.6414   20.8931 N   0  0  0  0  0  0  0  0  0  0  0  0
  -29.5617  -25.1799   22.0663 N   0  0  0  0  0  0  0  0  0  0  0  0
  -20.7722  -28.4428   21.3865 N   0  0  0  0  0  0  0  0  0  0  0  0
  -21.7481  -26.2517   15.7015 N   0  0  0  0  0  0  0  0  0  0  0  0
  -23.8122  -27.2185   12.8957 N   0  3  0  0  0  0  0  0  0  0  0  0
  -29.3374  -24.1423   20.0039 O   0  0  0  0  0  0  0  0  0  0  0  0
  -20.4500  -14.0011   21.9540 O   0  0  0  0  0  0  0  0  0  0  0  0
  -22.8663  -27.4337   21.5232 O   0  0  0  0  0  0  0  0  0  0  0  0
  -20.4665  -27.7641   17.7701 O   0  0  0  0  0  0  0  0  0  0  0  0
  -23.9737  -25.7481   15.2890 O   0  0  0  0  0  0  0  0  0  0  0  0
  -25.4612  -21.9081   18.9643 O   0  0  0  0  0  0  0  0  0  0  0  0
  -27.0110   -9.9104   21.0561 O   0  0  0  0  0  0  0  0  0  0  0  0
  -28.5757  -27.0506   20.1343 O   0  0  0  0  0  0  0  0  0  1  0  0
  -24.7369   -5.0232   19.8953 F   0  0  0  0  0  0  0  0  0  0  0  0
  -24.8028   -9.0062   22.4521 F   0  0  0  0  0  0  0  0  0  0  0  0
  1  2  1  0  0  0  0
  1  7  2  0  0  0  0
  2  8  2  0  0  0  0
  3  6  2  0  0  0  0
  3 10  1  0  0  0  0
  4 11  2  0  0  0  0
  4 19  1  0  0  0  0
  5 12  1  0  0  0  0
  5 19  2  0  0  0  0
  6 20  1  0  0  0  0
  7 22  1  0  0  0  0
  8 24  1  0  0  0  0
  9 13  2  0  0  0  0
  9 23  1  0  0  0  0
 10 26  2  0  0  0  0
 11 27  1  0  0  0  0
 12 27  2  0  0  0  0
 13 28  1  0  0  0  0
 14 15  2  0  0  0  0
 14 29  1  0  0  0  0
 15 30  1  0  0  0  0
 16 20  2  0  0  0  0
 16 26  1  0  0  0  0
 17 25  1  0  0  0  0
 17 28  2  0  0  0  0
 18 30  2  0  0  0  0
 18 31  1  0  0  0  0
 19 32  1  0  0  0  0
 20 34  1  0  0  0  0
 21 32  1  0  0  0  0
 21 33  2  0  0  0  0
 21 35  1  0  0  0  0
 22 24  2  0  0  0  0
 22 40  1  0  0  0  0
 23 25  2  0  0  0  0
 23 41  1  0  0  0  0
 24 49  1  0  0  0  0
 25 42  1  0  0  0  0
 26 68  1  0  0  0  0
 27 79  1  0  0  0  0
 28 80  1  0  0  0  0
 29 31  2  0  0  0  0
 29 79  1  0  0  0  0
 30 81  1  0  0  0  0
 31 82  1  0  0  0  0
 32 62  2  0  0  0  0
 33 63  1  0  0  0  0
 33 66  1  0  0  0  0
 34 69  1  0  0  0  0
 34 73  2  0  0  0  0
 35 67  1  0  0  0  0
 35 74  2  0  0  0  0
 36 50  1  0  0  0  0
 36 70  1  0  0  0  0
 36 75  2  0  0  0  0
 37 59  1  0  0  0  0
 37 64  1  0  0  0  0
 37 76  2  0  0  0  0
 38 60  1  0  0  0  0
 38 71  1  0  0  0  0
 38 77  2  0  0  0  0
 39 65  1  0  0  0  0
 39 68  1  0  0  0  0
 39 78  2  0  0  0  0
 40 43  1  0  0  0  0
 41 50  1  0  0  0  0
 42 64  1  0  0  0  0
 43 45  1  0  0  0  0
 44 46  1  0  0  0  0
 44 47  1  0  0  0  0
 45 49  1  0  0  0  0
 46 51  1  0  0  0  0
 47 65  1  0  0  0  0
 48 51  1  0  0  0  0
 48 65  1  0  0  0  0
 49 70  1  0  0  0  0
 50 64  1  0  0  0  0
 51 63  1  0  0  0  0
 52 60  1  0  0  0  0
 53 61  1  0  0  0  0
 54 61  1  0  0  0  0
 55 61  1  0  0  0  0
 56 72  1  0  0  0  0
 57 58  1  0  0  0  0
 57 69  1  0  0  0  0
 58 80  1  0  0  0  0
 59 61  1  0  0  0  0
 59 71  1  0  0  0  0
 60 72  1  0  0  0  0
 62 63  1  0  0  0  0
M  CHG  1  72   1
M  ISO  4  39 100  58 101  68 100  80 101
M  END
> <Batch ID>
0002

> <Smiles>
CNC(C)C(=O)NC(C(=O)N1Cc2cc([101O:1][101CH2:1]CNC(=O)c3cccc([100NH:0][100C:0](=O)N4CCCC(n5nc(-c6ccc(Oc7ccc(F)cc7F)cc6)c(C(N)=O)c5N)C4)c3)ccc2CC1C(=O)NC1CCCc2ccccc21)C(C)(C)C

> <Shape>
0.205

> <Color>
0.100

> <Negative vol penalty>
0.000

$$$$

  -OEChem-04052315183D

 89 96  0     1  0  0  0  0  0999 V2000
  -32.5499  -19.1616   28.4029 C   0  0  0  0  0  0  0  0  0  0  0  0
  -32.7862  -19.2954   27.0385 C   0  0  0  0  0  0  0  0  0  0  0  0
  -23.1925   -9.8189   19.9311 C   0  0  0  0  0  0  0  0  0  0  0  0
  -23.5703   -9.9990   22.3105 C   0  0  0  0  0  0  0  0  0  0  0  0
  -31.8681  -20.1633   29.0927 C   0  0  0  0  0  0  0  0  0  0  0  0
  -32.3399  -20.4307   26.3628 C   0  0  0  0  0  0  0  0  0  0  0  0
  -35.1015  -23.2516   21.6807 C   0  0  0  0  0  0  0  0  0  0  0  0
  -22.4272   -8.6715   20.1394 C   0  0  0  0  0  0  0  0  0  0  0  0
  -22.8049   -8.8517   22.5189 C   0  0  0  0  0  0  0  0  0  0  0  0
  -34.9010  -23.1961   20.3021 C   0  0  0  0  0  0  0  0  0  0  0  0
  -23.2089   -5.5054   22.2542 C   0  0  0  0  0  0  0  0  0  0  0  0
  -23.7080   -4.5443   23.1332 C   0  0  0  0  0  0  0  0  0  0  0  0
  -33.5114  -25.1638   20.4311 C   0  0  0  0  0  0  0  0  0  0  0  0
  -21.7510   -4.8023   24.5264 C   0  0  0  0  0  0  0  0  0  0  0  0
  -23.7641  -10.4826   21.0166 C   0  0  0  0  0  0  0  0  0  0  0  0
  -24.1007  -12.9996   20.7735 C   0  0  0  0  0  0  0  0  0  0  0  0
  -31.4217  -21.3158   28.4270 C   0  0  0  0  0  0  0  0  0  0  0  0
  -34.4986  -24.2589   22.4477 C   0  0  0  0  0  0  0  0  0  0  0  0
  -31.6504  -21.4481   27.0440 C   0  0  0  0  0  0  0  0  0  0  0  0
  -33.7079  -25.2313   21.8189 C   0  0  0  0  0  0  0  0  0  0  0  0
  -22.2334   -8.1879   21.4333 C   0  0  0  0  0  0  0  0  0  0  0  0
  -34.1035  -24.1506   19.6775 C   0  0  0  0  0  0  0  0  0  0  0  0
  -21.9809   -6.1150   22.5112 C   0  0  0  0  0  0  0  0  0  0  0  0
  -22.9791   -4.1927   24.2693 C   0  0  0  0  0  0  0  0  0  0  0  0
  -21.2520   -5.7635   23.6473 C   0  0  0  0  0  0  0  0  0  0  0  0
  -24.5552  -11.6676   20.8020 C   0  0  0  0  0  0  0  0  0  0  0  0
  -25.2312  -13.7433   20.5385 C   0  0  0  0  0  0  0  0  0  0  0  0
  -22.7750  -13.5183   20.9442 C   0  0  0  0  0  0  0  0  0  0  0  0
  -32.3898  -24.3089   24.8255 C   0  0  0  0  0  0  0  0  0  0  0  0
  -33.0753  -27.4794   24.8478 C   0  0  0  0  0  0  0  0  0  0  0  0
  -28.6015  -19.9422   23.8246 C   0  0  0  0  0  0  0  0  0  0  0  0
  -34.2123  -30.2097   23.1451 C   0  0  0  0  0  0  0  0  0  0  0  0
  -31.0468  -12.7581   21.5683 C   0  0  0  0  0  0  0  0  0  0  0  0
  -30.6477  -22.3499   29.2056 C   0  0  0  0  0  0  0  0  0  0  0  0
  -34.7464  -24.3206   23.9300 C   0  0  0  0  0  0  0  0  0  0  0  0
  -33.0546  -26.3451   22.5943 C   0  0  0  0  0  0  0  0  0  0  0  0
  -30.5367  -23.6938   28.4902 C   0  0  0  0  0  0  0  0  0  0  0  0
  -29.5192  -13.4749   18.4331 C   0  0  0  0  0  0  0  0  0  0  0  0
  -30.1426  -23.4906   27.0306 C   0  0  0  0  0  0  0  0  0  0  0  0
  -28.0327  -13.2132   18.6821 C   0  0  0  0  0  0  0  0  0  0  0  0
  -30.4012  -12.4861   19.1922 C   0  0  0  0  0  0  0  0  0  0  0  0
  -28.6478  -12.1414   20.8893 C   0  0  0  0  0  0  0  0  0  0  0  0
  -31.2037  -22.6762   26.2809 C   0  0  1  0  0  0  0  0  0  0  0  0
  -33.6662  -25.0891   24.6850 C   0  0  1  0  0  0  0  0  0  0  0  0
  -27.7195  -13.1486   20.1891 C   0  0  2  0  0  0  0  0  0  0  0  0
  -34.6217  -32.6707   23.4164 C   0  0  0  0  0  0  0  0  0  0  0  0
  -30.0784  -28.0015   24.6114 C   0  0  0  0  0  0  0  0  0  0  0  0
  -30.6118  -30.3533   23.9386 C   0  0  0  0  0  0  0  0  0  0  0  0
  -31.2804  -29.5208   26.1930 C   0  0  0  0  0  0  0  0  0  0  0  0
  -37.1092  -29.9034   22.6223 C   0  0  0  0  0  0  0  0  0  0  0  0
  -29.3753  -20.7568   22.8030 C   0  0  0  0  0  0  0  0  0  0  0  0
  -28.7025  -20.7647   21.4322 C   0  0  0  0  0  0  0  0  0  0  0  0
  -29.4821  -21.6229   20.4338 C   0  0  0  0  0  0  0  0  0  0  0  0
  -28.7847  -21.6593   19.0722 C   0  0  0  0  0  0  0  0  0  0  0  0
  -29.4848  -22.5633   18.0534 C   0  0  0  0  0  0  0  0  0  0  0  0
  -30.9347  -22.1578   17.7745 C   0  0  0  0  0  0  0  0  0  0  0  0
  -30.2940  -16.5212   25.1364 C   0  0  0  0  0  0  0  0  0  0  0  0
  -30.2081  -15.0392   24.7627 C   0  0  0  0  0  0  0  0  0  0  0  0
  -31.5750  -23.0815   16.7348 C   0  0  0  0  0  0  0  0  0  0  0  0
  -28.9159  -17.0834   25.4977 C   0  0  0  0  0  0  0  0  0  0  0  0
  -31.5796  -14.4881   24.3611 C   0  0  0  0  0  0  0  0  0  0  0  0
  -33.0532  -22.7703   16.4755 C   0  0  0  0  0  0  0  0  0  0  0  0
  -28.9639  -18.5634   25.8629 C   0  0  0  0  0  0  0  0  0  0  0  0
  -31.5364  -13.0092   23.9883 C   0  0  0  0  0  0  0  0  0  0  0  0
  -33.9362  -22.8128   17.7184 C   0  0  0  0  0  0  0  0  0  1  0  0
  -32.5213  -28.6979   24.1497 C   0  0  1  0  0  0  0  0  0  0  0  0
  -35.2250  -31.2782   23.5158 C   0  0  2  0  0  0  0  0  0  0  0  0
  -31.1336  -29.1214   24.7085 C   0  0  0  0  0  0  0  0  0  0  0  0
  -25.8719  -11.5677   20.6010 N   0  0  0  0  0  0  0  0  0  0  0  0
  -26.2544  -12.8464   20.4439 N   0  0  0  0  0  0  0  0  0  0  0  0
  -33.3220  -26.3588   24.0420 N   0  0  0  0  0  0  0  0  0  0  0  0
  -30.0545  -12.4743   20.6154 N   0  0  0  0  0  0  0  0  0  0  0  0
  -25.4401  -15.0704   20.4056 N   0  0  0  0  0  0  0  0  0  0  0  0
  -21.7291  -12.6152   21.1779 N   0  0  0  0  0  0  0  0  0  0  0  0
  -32.3404  -23.5090   25.9512 N   0  0  0  0  0  0  0  0  0  0  0  0
  -29.4438  -19.3842   24.7753 N   0  0  0  0  0  0  0  0  0  0  0  0
  -33.5475  -29.7297   24.2536 N   0  0  0  0  0  0  0  0  0  0  0  0
  -30.6324  -12.7321   22.8943 N   0  0  0  0  0  0  0  0  0  0  0  0
  -36.4046  -31.2112   22.6075 N   0  3  0  0  0  0  0  0  0  0  0  0
  -22.5227  -14.7452   20.8748 O   0  0  0  0  0  0  0  0  0  0  0  0
  -31.5139  -24.4253   23.9764 O   0  0  0  0  0  0  0  0  0  0  0  0
  -33.2882  -27.5227   26.0621 O   0  0  0  0  0  0  0  0  0  0  0  0
  -27.3811  -19.8091   23.7944 O   0  0  0  0  0  0  0  0  0  0  0  0
  -34.0268  -29.8407   21.9876 O   0  0  0  0  0  0  0  0  0  0  0  0
  -32.2141  -13.0208   21.2598 O   0  0  0  0  0  0  0  0  0  0  0  0
  -21.4864   -7.0685   21.6371 O   0  0  0  0  0  0  0  0  0  0  0  0
  -33.9042  -24.0980   18.3220 O   0  0  0  0  0  0  0  0  0  1  0  0
  -23.4577   -3.2686   25.1126 F   0  0  0  0  0  0  0  0  0  0  0  0
  -20.0711   -6.3448   23.8989 F   0  0  0  0  0  0  0  0  0  0  0  0
  1  2  1  0  0  0  0
  1  5  2  0  0  0  0
  2  6  2  0  0  0  0
  3  8  2  0  0  0  0
  3 15  1  0  0  0  0
  4  9  1  0  0  0  0
  4 15  2  0  0  0  0
  5 17  1  0  0  0  0
  6 19  1  0  0  0  0
  7 10  2  0  0  0  0
  7 18  1  0  0  0  0
  8 21  1  0  0  0  0
  9 21  2  0  0  0  0
 10 22  1  0  0  0  0
 11 12  2  0  0  0  0
 11 23  1  0  0  0  0
 12 24  1  0  0  0  0
 13 20  1  0  0  0  0
 13 22  2  0  0  0  0
 14 24  2  0  0  0  0
 14 25  1  0  0  0  0
 15 26  1  0  0  0  0
 16 26  1  0  0  0  0
 16 27  2  0  0  0  0
 16 28  1  0  0  0  0
 17 19  2  0  0  0  0
 17 34  1  0  0  0  0
 18 20  2  0  0  0  0
 18 35  1  0  0  0  0
 19 43  1  0  0  0  0
 20 36  1  0  0  0  0
 21 86  1  0  0  0  0
 22 87  1  0  0  0  0
 23 25  2  0  0  0  0
 23 86  1  0  0  0  0
 24 88  1  0  0  0  0
 25 89  1  0  0  0  0
 26 69  2  0  0  0  0
 27 70  1  0  0  0  0
 27 73  1  0  0  0  0
 28 74  1  0  0  0  0
 28 80  2  0  0  0  0
 29 44  1  0  0  0  0
 29 75  1  0  0  0  0
 29 81  2  0  0  0  0
 30 66  1  0  0  0  0
 30 71  1  0  0  0  0
 30 82  2  0  0  0  0
 31 51  1  0  0  0  0
 31 76  1  0  0  0  0
 31 83  2  0  0  0  0
 32 67  1  0  0  0  0
 32 77  1  0  0  0  0
 32 84  2  0  0  0  0
 33 72  1  0  0  0  0
 33 78  1  0  0  0  0
 33 85  2  0  0  0  0
 34 37  1  0  0  0  0
 35 44  1  0  0  0  0
 36 71  1  0  0  0  0
 37 39  1  0  0  0  0
 38 40  1  0  0  0  0
 38 41  1  0  0  0  0
 39 43  1  0  0  0  0
 40 45  1  0  0  0  0
 41 72  1  0  0  0  0
 42 45  1  0  0  0  0
 42 72  1  0  0  0  0
 43 75  1  0  0  0  0
 44 71  1  0  0  0  0
 45 70  1  0  0  0  0
 46 67  1  0  0  0  0
 47 68  1  0  0  0  0
 48 68  1  0  0  0  0
 49 68  1  0  0  0  0
 50 79  1  0  0  0  0
 51 52  1  0  0  0  0
 52 53  1  0  0  0  0
 53 54  1  0  0  0  0
 54 55  1  0  0  0  0
 55 56  1  0  0  0  0
 56 59  1  0  0  0  0
 57 58  1  0  0  0  0
 57 60  1  0  0  0  0
 58 61  1  0  0  0  0
 59 62  1  0  0  0  0
 60 63  1  0  0  0  0
 61 64  1  0  0  0  0
 62 65  1  0  0  0  0
 63 76  1  0  0  0  0
 64 78  1  0  0  0  0
 65 87  1  0  0  0  0
 66 68  1  0  0  0  0
 66 77  1  0  0  0  0
 67 79  1  0  0  0  0
 69 70  1  0  0  0  0
M  CHG  1  79   1
M  ISO  4  33 100  65 101  78 100  87 101
M  END
> <Batch ID>
0002

> <Smiles>
CNC(C)C(=O)NC(C(=O)N1Cc2cc([101O:1][101CH2:1]CCCCCCCCC(=O)NCCCCCC[100NH:0][100C:0](=O)N3CCCC(n4nc(-c5ccc(Oc6ccc(F)cc6F)cc5)c(C(N)=O)c4N)C3)ccc2CC1C(=O)NC1CCCc2ccccc21)C(C)(C)C

> <Shape>
0.169

> <Color>
0.182

> <Negative vol penalty>
0.000

$$$$

  -OEChem-04052315183D

 73 80  0     1  0  0  0  0  0999 V2000
  -28.7807  -11.4027   19.8413 C   0  0  0  0  0  0  0  0  0  0  0  0
  -28.8747  -12.6791   19.2960 C   0  0  0  0  0  0  0  0  0  0  0  0
  -25.9114  -28.9143   20.8188 C   0  0  0  0  0  0  0  0  0  0  0  0
  -25.2447  -26.5922   20.8056 C   0  0  0  0  0  0  0  0  0  0  0  0
  -27.5741  -10.9659   20.3863 C   0  0  0  0  0  0  0  0  0  0  0  0
  -27.7616  -13.5191   19.2943 C   0  0  0  0  0  0  0  0  0  0  0  0
  -28.8908  -18.2435   20.7261 C   0  0  0  0  0  0  0  0  0  0  0  0
  -24.5811  -29.2972   20.6476 C   0  0  0  0  0  0  0  0  0  0  0  0
  -23.9144  -26.9751   20.6344 C   0  0  0  0  0  0  0  0  0  0  0  0
  -29.5037  -19.0657   19.7816 C   0  0  0  0  0  0  0  0  0  0  0  0
  -20.2991  -27.3512   20.5553 C   0  0  0  0  0  0  0  0  0  0  0  0
  -19.3346  -26.7145   21.3363 C   0  0  0  0  0  0  0  0  0  0  0  0
  -27.3782  -20.1087   19.3193 C   0  0  0  0  0  0  0  0  0  0  0  0
  -20.4277  -27.5133   23.3374 C   0  0  0  0  0  0  0  0  0  0  0  0
  -26.2432  -27.5618   20.8978 C   0  0  0  0  0  0  0  0  0  0  0  0
  -28.2943  -26.9641   22.2918 C   0  0  0  0  0  0  0  0  0  0  0  0
  -26.4483  -11.8044   20.4000 C   0  0  0  0  0  0  0  0  0  0  0  0
  -27.5128  -18.3403   20.9669 C   0  0  0  0  0  0  0  0  0  0  0  0
  -26.5384  -13.0925   19.8388 C   0  0  0  0  0  0  0  0  0  0  0  0
  -26.7507  -19.2883   20.2692 C   0  0  0  0  0  0  0  0  0  0  0  0
  -23.5826  -28.3276   20.5554 C   0  0  0  0  0  0  0  0  0  0  0  0
  -28.7469  -19.9965   19.0760 C   0  0  0  0  0  0  0  0  0  0  0  0
  -21.3280  -28.0688   21.1653 C   0  0  0  0  0  0  0  0  0  0  0  0
  -19.3988  -26.7956   22.7274 C   0  0  0  0  0  0  0  0  0  0  0  0
  -21.3923  -28.1499   22.5564 C   0  0  0  0  0  0  0  0  0  0  0  0
  -27.6173  -27.1656   21.0741 C   0  0  0  0  0  0  0  0  0  0  0  0
  -29.5659  -26.6003   21.9215 C   0  0  0  0  0  0  0  0  0  0  0  0
  -27.8165  -27.0941   23.6374 C   0  0  0  0  0  0  0  0  0  0  0  0
  -25.0394  -16.3661   20.6693 C   0  0  0  0  0  0  0  0  0  0  0  0
  -23.4301  -18.7916   22.1009 C   0  0  0  0  0  0  0  0  0  0  0  0
  -23.2352  -22.1273   22.7949 C   0  0  0  0  0  0  0  0  0  0  0  0
  -31.8053  -24.0606   16.9833 C   0  0  0  0  0  0  0  0  0  0  0  0
  -25.1525  -11.2708   20.9575 C   0  0  0  0  0  0  0  0  0  0  0  0
  -26.8716  -17.4645   22.0082 C   0  0  0  0  0  0  0  0  0  0  0  0
  -25.2716  -19.4460   20.5052 C   0  0  0  0  0  0  0  0  0  0  0  0
  -24.1234  -12.3586   21.2544 C   0  0  0  0  0  0  0  0  0  0  0  0
  -32.7528  -27.1859   18.4013 C   0  0  0  0  0  0  0  0  0  0  0  0
  -24.0228  -13.3319   20.0842 C   0  0  0  0  0  0  0  0  0  0  0  0
  -31.6052  -27.5169   19.3570 C   0  0  0  0  0  0  0  0  0  0  0  0
  -32.2517  -26.4924   17.1365 C   0  0  0  0  0  0  0  0  0  0  0  0
  -30.2768  -25.6255   18.3290 C   0  0  0  0  0  0  0  0  0  0  0  0
  -25.3600  -14.0420   19.8407 C   0  0  1  0  0  0  0  0  0  0  0  0
  -25.3693  -17.2948   21.8034 C   0  0  1  0  0  0  0  0  0  0  0  0
  -30.7390  -26.2758   19.6442 C   0  0  2  0  0  0  0  0  0  0  0  0
  -21.7856  -23.8170   23.9528 C   0  0  0  0  0  0  0  0  0  0  0  0
  -21.4554  -18.6861   19.7772 C   0  0  0  0  0  0  0  0  0  0  0  0
  -20.6243  -20.9432   20.4723 C   0  0  0  0  0  0  0  0  0  0  0  0
  -20.4056  -19.0030   22.0249 C   0  0  0  0  0  0  0  0  0  0  0  0
  -25.3980  -22.8660   24.6752 C   0  0  0  0  0  0  0  0  0  0  0  0
  -31.2354  -21.6456   16.9357 C   0  0  0  0  0  0  0  0  0  0  0  0
  -30.7465  -20.6355   17.9583 C   0  0  0  0  0  0  0  0  0  1  0  0
  -22.6870  -20.0136   21.6176 C   0  0  1  0  0  0  0  0  0  0  0  0
  -22.9697  -22.8728   24.0904 C   0  0  2  0  0  0  0  0  0  0  0  0
  -21.3206  -19.6574   20.9669 C   0  0  0  0  0  0  0  0  0  0  0  0
  -28.3944  -26.9480   20.0099 N   0  0  0  0  0  0  0  0  0  0  0  0
  -29.5730  -26.6061   20.5576 N   0  0  0  0  0  0  0  0  0  0  0  0
  -24.6895  -18.5623   21.5289 N   0  0  0  0  0  0  0  0  0  0  0  0
  -31.4385  -25.3228   17.4784 N   0  0  0  0  0  0  0  0  0  0  0  0
  -30.6675  -26.2792   22.6327 N   0  0  0  0  0  0  0  0  0  0  0  0
  -26.4833  -27.4765   23.8389 N   0  0  0  0  0  0  0  0  0  0  0  0
  -25.5584  -15.0937   20.8148 N   0  0  0  0  0  0  0  0  0  0  0  0
  -22.5873  -20.9105   22.7639 N   0  0  0  0  0  0  0  0  0  0  0  0
  -30.9843  -23.0048   17.3602 N   0  0  0  0  0  0  0  0  0  0  0  0
  -24.1650  -23.6719   24.4825 N   0  3  0  0  0  0  0  0  0  0  0  0
  -28.5547  -26.8935   24.6315 O   0  0  0  0  0  0  0  0  0  0  0  0
  -24.3627  -16.7733   19.7323 O   0  0  0  0  0  0  0  0  0  0  0  0
  -22.9152  -18.0710   22.9596 O   0  0  0  0  0  0  0  0  0  0  0  0
  -23.9432  -22.5808   21.8985 O   0  0  0  0  0  0  0  0  0  0  0  0
  -32.7944  -23.8864   16.2633 O   0  0  0  0  0  0  0  0  0  0  0  0
  -22.2844  -28.7009   20.3885 O   0  0  0  0  0  0  0  0  0  0  0  0
  -29.3424  -20.7999   18.1530 O   0  0  0  0  0  0  0  0  0  1  0  0
  -18.4716  -26.1855   23.4772 F   0  0  0  0  0  0  0  0  0  0  0  0
  -22.3777  -28.8388   23.1481 F   0  0  0  0  0  0  0  0  0  0  0  0
  1  2  1  0  0  0  0
  1  5  2  0  0  0  0
  2  6  2  0  0  0  0
  3  8  2  0  0  0  0
  3 15  1  0  0  0  0
  4  9  1  0  0  0  0
  4 15  2  0  0  0  0
  5 17  1  0  0  0  0
  6 19  1  0  0  0  0
  7 10  2  0  0  0  0
  7 18  1  0  0  0  0
  8 21  1  0  0  0  0
  9 21  2  0  0  0  0
 10 22  1  0  0  0  0
 11 12  2  0  0  0  0
 11 23  1  0  0  0  0
 12 24  1  0  0  0  0
 13 20  1  0  0  0  0
 13 22  2  0  0  0  0
 14 24  2  0  0  0  0
 14 25  1  0  0  0  0
 15 26  1  0  0  0  0
 16 26  1  0  0  0  0
 16 27  2  0  0  0  0
 16 28  1  0  0  0  0
 17 19  2  0  0  0  0
 17 33  1  0  0  0  0
 18 20  2  0  0  0  0
 18 34  1  0  0  0  0
 19 42  1  0  0  0  0
 20 35  1  0  0  0  0
 21 70  1  0  0  0  0
 22 71  1  0  0  0  0
 23 25  2  0  0  0  0
 23 70  1  0  0  0  0
 24 72  1  0  0  0  0
 25 73  1  0  0  0  0
 26 55  2  0  0  0  0
 27 56  1  0  0  0  0
 27 59  1  0  0  0  0
 28 60  1  0  0  0  0
 28 65  2  0  0  0  0
 29 43  1  0  0  0  0
 29 61  1  0  0  0  0
 29 66  2  0  0  0  0
 30 52  1  0  0  0  0
 30 57  1  0  0  0  0
 30 67  2  0  0  0  0
 31 53  1  0  0  0  0
 31 62  1  0  0  0  0
 31 68  2  0  0  0  0
 32 58  1  0  0  0  0
 32 63  1  0  0  0  0
 32 69  2  0  0  0  0
 33 36  1  0  0  0  0
 34 43  1  0  0  0  0
 35 57  1  0  0  0  0
 36 38  1  0  0  0  0
 37 39  1  0  0  0  0
 37 40  1  0  0  0  0
 38 42  1  0  0  0  0
 39 44  1  0  0  0  0
 40 58  1  0  0  0  0
 41 44  1  0  0  0  0
 41 58  1  0  0  0  0
 42 61  1  0  0  0  0
 43 57  1  0  0  0  0
 44 56  1  0  0  0  0
 45 53  1  0  0  0  0
 46 54  1  0  0  0  0
 47 54  1  0  0  0  0
 48 54  1  0  0  0  0
 49 64  1  0  0  0  0
 50 51  1  0  0  0  0
 50 63  1  0  0  0  0
 51 71  1  0  0  0  0
 52 54  1  0  0  0  0
 52 62  1  0  0  0  0
 53 64  1  0  0  0  0
 55 56  1  0  0  0  0
M  CHG  1  64   1
M  ISO  4  32 100  51 101  63 100  71 101
M  END
> <Batch ID>
0002

> <Smiles>
CNC(C)C(=O)NC(C(=O)N1Cc2cc([101O:1][101CH2:1]C[100NH:0][100C:0](=O)N3CCCC(n4nc(-c5ccc(Oc6ccc(F)cc6F)cc5)c(C(N)=O)c4N)C3)ccc2CC1C(=O)NC1CCCc2ccccc21)C(C)(C)C

> <Shape>
0.226

> <Color>
0.066

> <Negative vol penalty>
0.000

$$$$

  -OEChem-04052315183D

 81 89  0     1  0  0  0  0  0999 V2000
  -26.0928  -18.9926   19.1871 C   0  0  0  0  0  0  0  0  0  0  0  0
  -25.0997  -19.6659   19.1314 C   0  0  0  0  0  0  0  0  0  0  0  0
  -22.6440  -28.7748   14.9439 C   0  0  0  0  0  0  0  0  0  0  0  0
  -23.0631  -27.6270   15.6090 C   0  0  0  0  0  0  0  0  0  0  0  0
  -29.2396  -17.4564   20.4542 C   0  0  0  0  0  0  0  0  0  0  0  0
  -28.0864  -18.2383   20.3880 C   0  0  0  0  0  0  0  0  0  0  0  0
  -23.2838   -9.8029   19.9036 C   0  0  0  0  0  0  0  0  0  0  0  0
  -23.7188   -9.9314   22.2767 C   0  0  0  0  0  0  0  0  0  0  0  0
  -22.5023  -29.9722   15.6440 C   0  0  0  0  0  0  0  0  0  0  0  0
  -23.3418  -27.6762   16.9744 C   0  0  0  0  0  0  0  0  0  0  0  0
  -21.3712  -23.7553   19.5020 C   0  0  0  0  0  0  0  0  0  0  0  0
  -29.5821  -16.6270   19.3862 C   0  0  0  0  0  0  0  0  0  0  0  0
  -22.5497   -8.6335   20.1015 C   0  0  0  0  0  0  0  0  0  0  0  0
  -22.9847   -8.7620   22.4746 C   0  0  0  0  0  0  0  0  0  0  0  0
  -22.0457  -22.5382   19.4155 C   0  0  0  0  0  0  0  0  0  0  0  0
  -20.9224   -6.0081   23.6499 C   0  0  0  0  0  0  0  0  0  0  0  0
  -20.0133   -5.9834   24.7075 C   0  0  0  0  0  0  0  0  0  0  0  0
  -27.6181  -17.3613   18.1860 C   0  0  0  0  0  0  0  0  0  0  0  0
  -23.0486  -22.9478   21.5709 C   0  0  0  0  0  0  0  0  0  0  0  0
  -18.8206   -7.8410   23.7256 C   0  0  0  0  0  0  0  0  0  0  0  0
  -27.2757  -18.1908   19.2540 C   0  0  0  0  0  0  0  0  0  0  0  0
  -23.8685  -10.4518   20.9912 C   0  0  0  0  0  0  0  0  0  0  0  0
  -24.1429  -12.9812   20.8048 C   0  0  0  0  0  0  0  0  0  0  0  0
  -22.7701  -30.0339   17.0206 C   0  0  0  0  0  0  0  0  0  0  0  0
  -21.5390  -24.5842   20.6205 C   0  0  0  0  0  0  0  0  0  0  0  0
  -23.2048  -28.8759   17.6933 C   0  0  0  0  0  0  0  0  0  0  0  0
  -22.3731  -24.1737   21.6703 C   0  0  0  0  0  0  0  0  0  0  0  0
  -28.7713  -16.5794   18.2522 C   0  0  0  0  0  0  0  0  0  0  0  0
  -22.4001   -8.1130   21.3870 C   0  0  0  0  0  0  0  0  0  0  0  0
  -22.8868  -22.1356   20.4488 C   0  0  0  0  0  0  0  0  0  0  0  0
  -20.7807   -6.9494   22.6302 C   0  0  0  0  0  0  0  0  0  0  0  0
  -18.9624   -6.8998   24.7453 C   0  0  0  0  0  0  0  0  0  0  0  0
  -19.7298   -7.8658   22.6680 C   0  0  0  0  0  0  0  0  0  0  0  0
  -24.6274  -11.6595   20.7874 C   0  0  0  0  0  0  0  0  0  0  0  0
  -25.2503  -13.7561   20.5607 C   0  0  0  0  0  0  0  0  0  0  0  0
  -22.8109  -13.4651   21.0223 C   0  0  0  0  0  0  0  0  0  0  0  0
  -22.6613  -27.5212   21.0877 C   0  0  0  0  0  0  0  0  0  0  0  0
  -21.6254  -27.0145   24.1197 C   0  0  0  0  0  0  0  0  0  0  0  0
  -20.8269  -24.7809   26.5732 C   0  0  0  0  0  0  0  0  0  0  0  0
  -29.8353  -14.5160   17.3028 C   0  0  0  0  0  0  0  0  0  0  0  0
  -22.6481  -31.3618   17.7251 C   0  0  0  0  0  0  0  0  0  0  0  0
  -20.7836  -25.8818   20.7107 C   0  0  0  0  0  0  0  0  0  0  0  0
  -22.5716  -25.0178   22.9018 C   0  0  0  0  0  0  0  0  0  0  0  0
  -22.6030  -31.2424   19.2463 C   0  0  0  0  0  0  0  0  0  0  0  0
  -30.1622  -12.6034   20.4537 C   0  0  0  0  0  0  0  0  0  0  0  0
  -23.6929  -30.2964   19.7401 C   0  0  0  0  0  0  0  0  0  0  0  0
  -28.7168  -12.2258   20.7729 C   0  0  0  0  0  0  0  0  0  0  0  0
  -30.3889  -12.7579   18.9529 C   0  0  0  0  0  0  0  0  0  0  0  0
  -28.0047  -13.3491   18.6252 C   0  0  0  0  0  0  0  0  0  0  0  0
  -23.4929  -28.8834   19.1789 C   0  0  1  0  0  0  0  0  0  0  0  0
  -21.4284  -26.8837   21.6633 C   0  0  1  0  0  0  0  0  0  0  0  0
  -27.7408  -13.2271   20.1334 C   0  0  1  0  0  0  0  0  0  0  0  0
  -20.0482  -24.6670   28.9561 C   0  0  0  0  0  0  0  0  0  0  0  0
  -24.4273  -27.7622   25.0685 C   0  0  0  0  0  0  0  0  0  0  0  0
  -23.8765  -26.7327   27.2832 C   0  0  0  0  0  0  0  0  0  0  0  0
  -22.5710  -28.6932   26.4619 C   0  0  0  0  0  0  0  0  0  0  0  0
  -28.9737  -16.2518   15.7941 C   0  0  0  0  0  0  0  0  0  0  0  0
  -18.3565  -23.3364   25.8186 C   0  0  0  0  0  0  0  0  0  0  0  0
  -23.8905  -20.4853   19.0613 C   0  0  0  0  0  0  0  0  0  1  0  0
  -22.2334  -26.4359   25.3745 C   0  0  1  0  0  0  0  0  0  0  0  0
  -19.6250  -24.6846   27.4955 C   0  0  2  0  0  0  0  0  0  0  0  0
  -23.2750  -27.3908   26.0231 C   0  0  0  0  0  0  0  0  0  0  0  0
  -25.9403  -11.5947   20.5507 N   0  0  0  0  0  0  0  0  0  0  0  0
  -26.2902  -12.8854   20.4171 N   0  0  0  0  0  0  0  0  0  0  0  0
  -21.8160  -26.2808   22.9402 N   0  0  0  0  0  0  0  0  0  0  0  0
  -29.4149  -13.6675   18.3475 N   0  0  0  0  0  0  0  0  0  0  0  0
  -25.4262  -15.0905   20.4569 N   0  0  0  0  0  0  0  0  0  0  0  0
  -21.7916  -12.5327   21.2589 N   0  0  0  0  0  0  0  0  0  0  0  0
  -22.4442  -28.1963   19.9017 N   0  0  0  0  0  0  0  0  0  0  0  0
  -21.1166  -26.0888   26.2466 N   0  0  0  0  0  0  0  0  0  0  0  0
  -29.1266  -15.7225   17.1475 N   0  0  0  0  0  0  0  0  0  0  0  0
  -18.8547  -23.4402   27.2143 N   0  3  0  0  0  0  0  0  0  0  0  0
  -22.5299  -14.6872   20.9910 O   0  0  0  0  0  0  0  0  0  0  0  0
  -23.7301  -27.4102   21.6768 O   0  0  0  0  0  0  0  0  0  0  0  0
  -20.9983  -28.0747   24.1849 O   0  0  0  0  0  0  0  0  0  0  0  0
  -21.4490  -23.7947   26.1846 O   0  0  0  0  0  0  0  0  0  0  0  0
  -30.7434  -14.1966   16.5256 O   0  0  0  0  0  0  0  0  0  0  0  0
  -21.6836   -6.9721   21.5805 O   0  0  0  0  0  0  0  0  0  0  0  0
  -23.5468  -20.9484   20.3666 O   0  0  0  0  0  0  0  0  0  1  0  0
  -18.0885   -6.8750   25.7602 F   0  0  0  0  0  0  0  0  0  0  0  0
  -19.5878   -8.7716   21.6907 F   0  0  0  0  0  0  0  0  0  0  0  0
  1  2  3  0  0  0  0
  1 21  1  0  0  0  0
  2 59  1  0  0  0  0
  3  4  1  0  0  0  0
  3  9  2  0  0  0  0
  4 10  2  0  0  0  0
  5  6  2  0  0  0  0
  5 12  1  0  0  0  0
  6 21  1  0  0  0  0
  7 13  2  0  0  0  0
  7 22  1  0  0  0  0
  8 14  1  0  0  0  0
  8 22  2  0  0  0  0
  9 24  1  0  0  0  0
 10 26  1  0  0  0  0
 11 15  2  0  0  0  0
 11 25  1  0  0  0  0
 12 28  2  0  0  0  0
 13 29  1  0  0  0  0
 14 29  2  0  0  0  0
 15 30  1  0  0  0  0
 16 17  2  0  0  0  0
 16 31  1  0  0  0  0
 17 32  1  0  0  0  0
 18 21  2  0  0  0  0
 18 28  1  0  0  0  0
 19 27  1  0  0  0  0
 19 30  2  0  0  0  0
 20 32  2  0  0  0  0
 20 33  1  0  0  0  0
 22 34  1  0  0  0  0
 23 34  1  0  0  0  0
 23 35  2  0  0  0  0
 23 36  1  0  0  0  0
 24 26  2  0  0  0  0
 24 41  1  0  0  0  0
 25 27  2  0  0  0  0
 25 42  1  0  0  0  0
 26 50  1  0  0  0  0
 27 43  1  0  0  0  0
 28 71  1  0  0  0  0
 29 78  1  0  0  0  0
 30 79  1  0  0  0  0
 31 33  2  0  0  0  0
 31 78  1  0  0  0  0
 32 80  1  0  0  0  0
 33 81  1  0  0  0  0
 34 63  2  0  0  0  0
 35 64  1  0  0  0  0
 35 67  1  0  0  0  0
 36 68  1  0  0  0  0
 36 73  2  0  0  0  0
 37 51  1  0  0  0  0
 37 69  1  0  0  0  0
 37 74  2  0  0  0  0
 38 60  1  0  0  0  0
 38 65  1  0  0  0  0
 38 75  2  0  0  0  0
 39 61  1  0  0  0  0
 39 70  1  0  0  0  0
 39 76  2  0  0  0  0
 40 66  1  0  0  0  0
 40 71  1  0  0  0  0
 40 77  2  0  0  0  0
 41 44  1  0  0  0  0
 42 51  1  0  0  0  0
 43 65  1  0  0  0  0
 44 46  1  0  0  0  0
 45 47  1  0  0  0  0
 45 48  1  0  0  0  0
 46 50  1  0  0  0  0
 47 52  1  0  0  0  0
 48 66  1  0  0  0  0
 49 52  1  0  0  0  0
 49 66  1  0  0  0  0
 50 69  1  0  0  0  0
 51 65  1  0  0  0  0
 52 64  1  0  0  0  0
 53 61  1  0  0  0  0
 54 62  1  0  0  0  0
 55 62  1  0  0  0  0
 56 62  1  0  0  0  0
 57 71  1  0  0  0  0
 58 72  1  0  0  0  0
 59 79  1  0  0  0  0
 60 62  1  0  0  0  0
 60 70  1  0  0  0  0
 61 72  1  0  0  0  0
 63 64  1  0  0  0  0
M  CHG  1  72   1
M  ISO  4  40 100  59 101  71 100  79 101
M  END
> <Batch ID>
0002

> <Smiles>
CNC(C)C(=O)NC(C(=O)N1Cc2cc([101O:1][101CH2:1]C#Cc3cccc([100N:0](C)[100C:0](=O)N4CCCC(n5nc(-c6ccc(Oc7ccc(F)cc7F)cc6)c(C(N)=O)c5N)C4)c3)ccc2CC1C(=O)NC1CCCc2ccccc21)C(C)(C)C

> <Shape>
0.198

> <Color>
0.185

> <Negative vol penalty>
0.000

$$$$

  -OEChem-04052315183D

 84 92  0     1  0  0  0  0  0999 V2000
  -30.8275  -28.3669   18.4800 C   0  0  0  0  0  0  0  0  0  0  0  0
  -31.0018  -27.4922   19.5477 C   0  0  0  0  0  0  0  0  0  0  0  0
  -32.6519  -17.4883   23.4594 C   0  0  0  0  0  0  0  0  0  0  0  0
  -23.0751   -9.8682   19.9394 C   0  0  0  0  0  0  0  0  0  0  0  0
  -23.8348   -9.8732   22.2329 C   0  0  0  0  0  0  0  0  0  0  0  0
  -31.8539  -18.3545   24.2066 C   0  0  0  0  0  0  0  0  0  0  0  0
  -31.9301  -28.7868   17.7372 C   0  0  0  0  0  0  0  0  0  0  0  0
  -32.2789  -27.0360   19.8725 C   0  0  0  0  0  0  0  0  0  0  0  0
  -33.1825  -27.1731   24.8534 C   0  0  0  0  0  0  0  0  0  0  0  0
  -32.0642  -16.6047   22.5540 C   0  0  0  0  0  0  0  0  0  0  0  0
  -22.3308   -8.7151   20.1884 C   0  0  0  0  0  0  0  0  0  0  0  0
  -23.0904   -8.7201   22.4819 C   0  0  0  0  0  0  0  0  0  0  0  0
  -32.6295  -26.1552   25.6291 C   0  0  0  0  0  0  0  0  0  0  0  0
  -19.8620   -7.9229   23.0835 C   0  0  0  0  0  0  0  0  0  0  0  0
  -19.1049   -7.8823   24.2543 C   0  0  0  0  0  0  0  0  0  0  0  0
  -29.8804  -17.4537   23.1433 C   0  0  0  0  0  0  0  0  0  0  0  0
  -34.7587  -25.0215   25.6486 C   0  0  0  0  0  0  0  0  0  0  0  0
  -20.3456   -5.9439   24.9894 C   0  0  0  0  0  0  0  0  0  0  0  0
  -23.8271  -10.4473   20.9616 C   0  0  0  0  0  0  0  0  0  0  0  0
  -30.4682  -18.3372   24.0486 C   0  0  0  0  0  0  0  0  0  0  0  0
  -24.1698  -12.9724   20.8436 C   0  0  0  0  0  0  0  0  0  0  0  0
  -33.2225  -28.3431   18.0590 C   0  0  0  0  0  0  0  0  0  0  0  0
  -34.5273  -27.1173   24.4596 C   0  0  0  0  0  0  0  0  0  0  0  0
  -33.3997  -27.4492   19.1324 C   0  0  0  0  0  0  0  0  0  0  0  0
  -35.3271  -26.0412   24.8701 C   0  0  0  0  0  0  0  0  0  0  0  0
  -30.6784  -16.5874   22.3960 C   0  0  0  0  0  0  0  0  0  0  0  0
  -22.3385   -8.1411   21.4596 C   0  0  0  0  0  0  0  0  0  0  0  0
  -33.4168  -25.0777   26.0244 C   0  0  0  0  0  0  0  0  0  0  0  0
  -20.8608   -6.9739   22.8656 C   0  0  0  0  0  0  0  0  0  0  0  0
  -19.3467   -6.8928   25.2072 C   0  0  0  0  0  0  0  0  0  0  0  0
  -21.1026   -5.9845   23.8185 C   0  0  0  0  0  0  0  0  0  0  0  0
  -24.5966  -11.6381   20.7049 C   0  0  0  0  0  0  0  0  0  0  0  0
  -25.2622  -13.7218   20.4810 C   0  0  0  0  0  0  0  0  0  0  0  0
  -29.6195  -19.2605   24.8451 C   0  0  0  0  0  0  0  0  0  0  0  0
  -22.8994  -13.4883   21.2628 C   0  0  0  0  0  0  0  0  0  0  0  0
  -36.0436  -26.9751   21.6696 C   0  0  0  0  0  0  0  0  0  0  0  0
  -38.6818  -27.2969   23.5294 C   0  0  0  0  0  0  0  0  0  0  0  0
  -40.1284  -26.9153   26.5967 C   0  0  0  0  0  0  0  0  0  0  0  0
  -30.7287  -14.7654   20.6570 C   0  0  0  0  0  0  0  0  0  0  0  0
  -34.3780  -28.7872   17.1975 C   0  0  0  0  0  0  0  0  0  0  0  0
  -35.1157  -28.2367   23.6453 C   0  0  0  0  0  0  0  0  0  0  0  0
  -36.7815  -25.9443   24.4909 C   0  0  0  0  0  0  0  0  0  0  0  0
  -35.7425  -28.5520   17.8402 C   0  0  0  0  0  0  0  0  0  0  0  0
  -29.6138  -12.3538   18.2868 C   0  0  0  0  0  0  0  0  0  0  0  0
  -35.8203  -27.1469   18.4288 C   0  0  0  0  0  0  0  0  0  0  0  0
  -28.1740  -12.0624   18.7160 C   0  0  0  0  0  0  0  0  0  0  0  0
  -30.5288  -12.5814   19.4887 C   0  0  0  0  0  0  0  0  0  0  0  0
  -28.6220  -13.3054   20.8703 C   0  0  0  0  0  0  0  0  0  0  0  0
  -34.7721  -26.9517   19.5310 C   0  0  1  0  0  0  0  0  0  0  0  0
  -36.3621  -27.8205   22.8702 C   0  0  1  0  0  0  0  0  0  0  0  0
  -27.6492  -13.1334   19.6923 C   0  0  2  0  0  0  0  0  0  0  0  0
  -42.3083  -27.2297   27.7995 C   0  0  0  0  0  0  0  0  0  0  0  0
  -39.7835  -24.7903   22.1829 C   0  0  0  0  0  0  0  0  0  0  0  0
  -41.4577  -24.6151   24.0362 C   0  0  0  0  0  0  0  0  0  0  0  0
  -41.4637  -26.6086   22.5367 C   0  0  0  0  0  0  0  0  0  0  0  0
  -38.9369  -28.8520   28.4910 C   0  0  0  0  0  0  0  0  0  0  0  0
  -29.7269  -22.0089   26.7107 C   0  0  0  0  0  0  0  0  0  0  0  0
  -31.2055  -22.3461   26.9054 C   0  0  0  0  0  0  0  0  0  0  0  0
  -29.4252  -20.5353   26.9648 C   0  0  0  0  0  0  0  0  0  0  0  0
  -31.4889  -23.8129   26.6069 C   0  0  0  0  0  0  0  0  0  1  0  0
  -39.6128  -26.3433   24.2384 C   0  0  1  0  0  0  0  0  0  0  0  0
  -40.9713  -27.8574   27.4371 C   0  0  2  0  0  0  0  0  0  0  0  0
  -40.5515  -25.5899   23.2542 C   0  0  0  0  0  0  0  0  0  0  0  0
  -25.8615  -11.5421   20.2866 N   0  0  0  0  0  0  0  0  0  0  0  0
  -26.2388  -12.8257   20.1593 N   0  0  0  0  0  0  0  0  0  0  0  0
  -37.3090  -27.0604   23.6886 N   0  0  0  0  0  0  0  0  0  0  0  0
  -29.9701  -13.6117   20.3668 N   0  0  0  0  0  0  0  0  0  0  0  0
  -25.4731  -15.0532   20.4090 N   0  0  0  0  0  0  0  0  0  0  0  0
  -21.8872  -12.5792   21.5993 N   0  0  0  0  0  0  0  0  0  0  0  0
  -30.0816  -15.6901   21.4761 N   0  0  0  0  0  0  0  0  0  0  0  0
  -30.1371  -19.6642   26.0705 N   0  0  0  0  0  0  0  0  0  0  0  0
  -35.2044  -27.5864   20.7577 N   0  0  0  0  0  0  0  0  0  0  0  0
  -40.3130  -27.1308   25.2473 N   0  0  0  0  0  0  0  0  0  0  0  0
  -40.2580  -28.2050   28.6986 N   0  3  0  0  0  0  0  0  0  0  0  0
  -28.5232  -19.5974   24.4056 O   0  0  0  0  0  0  0  0  0  0  0  0
  -22.6636  -14.7189   21.3210 O   0  0  0  0  0  0  0  0  0  0  0  0
  -36.5248  -25.8519   21.5767 O   0  0  0  0  0  0  0  0  0  0  0  0
  -39.1550  -28.2221   22.8647 O   0  0  0  0  0  0  0  0  0  0  0  0
  -39.3837  -26.0699   27.0880 O   0  0  0  0  0  0  0  0  0  0  0  0
  -31.8579  -14.9341   20.1896 O   0  0  0  0  0  0  0  0  0  0  0  0
  -21.6121   -7.0160   21.7030 O   0  0  0  0  0  0  0  0  0  0  0  0
  -32.8793  -24.0825   26.7810 O   0  0  0  0  0  0  0  0  0  1  0  0
  -18.6206   -6.8549   26.3322 F   0  0  0  0  0  0  0  0  0  0  0  0
  -22.0617   -5.0708   23.6153 F   0  0  0  0  0  0  0  0  0  0  0  0
  1  2  1  0  0  0  0
  1  7  2  0  0  0  0
  2  8  2  0  0  0  0
  3  6  2  0  0  0  0
  3 10  1  0  0  0  0
  4 11  2  0  0  0  0
  4 19  1  0  0  0  0
  5 12  1  0  0  0  0
  5 19  2  0  0  0  0
  6 20  1  0  0  0  0
  7 22  1  0  0  0  0
  8 24  1  0  0  0  0
  9 13  2  0  0  0  0
  9 23  1  0  0  0  0
 10 26  2  0  0  0  0
 11 27  1  0  0  0  0
 12 27  2  0  0  0  0
 13 28  1  0  0  0  0
 14 15  2  0  0  0  0
 14 29  1  0  0  0  0
 15 30  1  0  0  0  0
 16 20  2  0  0  0  0
 16 26  1  0  0  0  0
 17 25  1  0  0  0  0
 17 28  2  0  0  0  0
 18 30  2  0  0  0  0
 18 31  1  0  0  0  0
 19 32  1  0  0  0  0
 20 34  1  0  0  0  0
 21 32  1  0  0  0  0
 21 33  2  0  0  0  0
 21 35  1  0  0  0  0
 22 24  2  0  0  0  0
 22 40  1  0  0  0  0
 23 25  2  0  0  0  0
 23 41  1  0  0  0  0
 24 49  1  0  0  0  0
 25 42  1  0  0  0  0
 26 70  1  0  0  0  0
 27 81  1  0  0  0  0
 28 82  1  0  0  0  0
 29 31  2  0  0  0  0
 29 81  1  0  0  0  0
 30 83  1  0  0  0  0
 31 84  1  0  0  0  0
 32 64  2  0  0  0  0
 33 65  1  0  0  0  0
 33 68  1  0  0  0  0
 34 71  1  0  0  0  0
 34 75  2  0  0  0  0
 35 69  1  0  0  0  0
 35 76  2  0  0  0  0
 36 50  1  0  0  0  0
 36 72  1  0  0  0  0
 36 77  2  0  0  0  0
 37 61  1  0  0  0  0
 37 66  1  0  0  0  0
 37 78  2  0  0  0  0
 38 62  1  0  0  0  0
 38 73  1  0  0  0  0
 38 79  2  0  0  0  0
 39 67  1  0  0  0  0
 39 70  1  0  0  0  0
 39 80  2  0  0  0  0
 40 43  1  0  0  0  0
 41 50  1  0  0  0  0
 42 66  1  0  0  0  0
 43 45  1  0  0  0  0
 44 46  1  0  0  0  0
 44 47  1  0  0  0  0
 45 49  1  0  0  0  0
 46 51  1  0  0  0  0
 47 67  1  0  0  0  0
 48 51  1  0  0  0  0
 48 67  1  0  0  0  0
 49 72  1  0  0  0  0
 50 66  1  0  0  0  0
 51 65  1  0  0  0  0
 52 62  1  0  0  0  0
 53 63  1  0  0  0  0
 54 63  1  0  0  0  0
 55 63  1  0  0  0  0
 56 74  1  0  0  0  0
 57 58  1  0  0  0  0
 57 59  1  0  0  0  0
 58 60  1  0  0  0  0
 59 71  1  0  0  0  0
 60 82  1  0  0  0  0
 61 63  1  0  0  0  0
 61 73  1  0  0  0  0
 62 74  1  0  0  0  0
 64 65  1  0  0  0  0
M  CHG  1  74   1
M  ISO  4  39 100  60 101  70 100  82 101
M  END
> <Batch ID>
0002

> <Smiles>
CNC(C)C(=O)NC(C(=O)N1Cc2cc([101O:1][101CH2:1]CCCNC(=O)c3cccc([100NH:0][100C:0](=O)N4CCCC(n5nc(-c6ccc(Oc7ccc(F)cc7F)cc6)c(C(N)=O)c5N)C4)c3)ccc2CC1C(=O)NC1CCCc2ccccc21)C(C)(C)C

> <Shape>
0.179

> <Color>
0.192

> <Negative vol penalty>
0.000

$$$$

  -OEChem-04052315183D

 75 82  0     1  0  0  0  0  0999 V2000
  -21.6576  -26.0082   22.2550 C   0  0  0  0  0  0  0  0  0  0  0  0
  -22.5356  -24.9529   22.0299 C   0  0  0  0  0  0  0  0  0  0  0  0
  -23.8221  -10.0103   22.1423 C   0  0  0  0  0  0  0  0  0  0  0  0
  -24.3934  -11.4271   24.0141 C   0  0  0  0  0  0  0  0  0  0  0  0
  -22.0394  -27.3110   21.9374 C   0  0  0  0  0  0  0  0  0  0  0  0
  -23.7956  -25.1996   21.4859 C   0  0  0  0  0  0  0  0  0  0  0  0
  -27.4742  -22.6745   23.8810 C   0  0  0  0  0  0  0  0  0  0  0  0
  -23.3018   -9.0598   23.0206 C   0  0  0  0  0  0  0  0  0  0  0  0
  -23.8731  -10.4766   24.8924 C   0  0  0  0  0  0  0  0  0  0  0  0
  -27.6174  -21.3207   23.5801 C   0  0  0  0  0  0  0  0  0  0  0  0
  -24.8491   -7.5351   26.2437 C   0  0  0  0  0  0  0  0  0  0  0  0
  -25.5983   -7.2219   27.3778 C   0  0  0  0  0  0  0  0  0  0  0  0
  -29.4494  -21.8491   22.1024 C   0  0  0  0  0  0  0  0  0  0  0  0
  -23.7739   -7.9504   28.7842 C   0  0  0  0  0  0  0  0  0  0  0  0
  -24.3679  -11.1940   22.6391 C   0  0  0  0  0  0  0  0  0  0  0  0
  -24.2169  -13.2470   21.1323 C   0  0  0  0  0  0  0  0  0  0  0  0
  -23.3083  -27.5750   21.3982 C   0  0  0  0  0  0  0  0  0  0  0  0
  -28.3119  -23.6285   23.2855 C   0  0  0  0  0  0  0  0  0  0  0  0
  -24.1942  -26.5070   21.1594 C   0  0  0  0  0  0  0  0  0  0  0  0
  -29.3165  -23.2141   22.3994 C   0  0  0  0  0  0  0  0  0  0  0  0
  -23.3273   -9.2929   24.3956 C   0  0  0  0  0  0  0  0  0  0  0  0
  -28.6032  -20.9081   22.6885 C   0  0  0  0  0  0  0  0  0  0  0  0
  -23.5623   -8.0560   26.3798 C   0  0  0  0  0  0  0  0  0  0  0  0
  -25.0607   -7.4295   28.6481 C   0  0  0  0  0  0  0  0  0  0  0  0
  -23.0247   -8.2636   27.6500 C   0  0  0  0  0  0  0  0  0  0  0  0
  -24.9060  -12.1760   21.7323 C   0  0  0  0  0  0  0  0  0  0  0  0
  -25.1651  -13.8790   20.3656 C   0  0  0  0  0  0  0  0  0  0  0  0
  -22.8425  -13.6357   21.2570 C   0  0  0  0  0  0  0  0  0  0  0  0
  -27.8632  -26.1195   21.3628 C   0  0  0  0  0  0  0  0  0  0  0  0
  -31.0302  -26.5937   21.8798 C   0  0  0  0  0  0  0  0  0  0  0  0
  -34.0557  -25.2690   22.7393 C   0  0  0  0  0  0  0  0  0  0  0  0
  -31.1355  -14.1863   20.6987 C   0  0  0  0  0  0  0  0  0  0  0  0
  -23.6583  -28.9942   21.0268 C   0  0  0  0  0  0  0  0  0  0  0  0
  -28.1620  -25.0822   23.6411 C   0  0  0  0  0  0  0  0  0  0  0  0
  -30.2547  -24.1964   21.7488 C   0  0  0  0  0  0  0  0  0  0  0  0
  -25.1521  -29.2144   20.8024 C   0  0  0  0  0  0  0  0  0  0  0  0
  -29.2021  -13.0226   17.9448 C   0  0  0  0  0  0  0  0  0  0  0  0
  -25.7287  -28.1085   19.9240 C   0  0  0  0  0  0  0  0  0  0  0  0
  -27.8196  -12.7703   18.5491 C   0  0  0  0  0  0  0  0  0  0  0  0
  -30.3192  -12.6648   18.9225 C   0  0  0  0  0  0  0  0  0  0  0  0
  -28.8331  -13.0581   20.8488 C   0  0  0  0  0  0  0  0  0  0  0  0
  -25.5789  -26.7373   20.5939 C   0  0  1  0  0  0  0  0  0  0  0  0
  -28.7355  -26.0186   22.5820 C   0  0  1  0  0  0  0  0  0  0  0  0
  -27.6733  -13.4569   19.9203 C   0  0  2  0  0  0  0  0  0  0  0  0
  -36.4673  -25.8955   23.0376 C   0  0  0  0  0  0  0  0  0  0  0  0
  -31.3900  -26.6419   18.8502 C   0  0  0  0  0  0  0  0  0  0  0  0
  -33.8462  -26.3127   19.2065 C   0  0  0  0  0  0  0  0  0  0  0  0
  -32.7232  -28.3590   20.0866 C   0  0  0  0  0  0  0  0  0  0  0  0
  -34.0184  -24.5131   25.6005 C   0  0  0  0  0  0  0  0  0  0  0  0
  -31.6127  -17.1488   22.1275 C   0  0  0  0  0  0  0  0  0  0  0  0
  -30.2124  -17.6705   22.4514 C   0  0  0  0  0  0  0  0  0  0  0  0
  -31.8074  -15.6961   22.5503 C   0  0  0  0  0  0  0  0  0  0  0  0
  -30.0554  -19.1337   22.0572 C   0  0  0  0  0  0  0  0  0  1  0  0
  -32.3032  -26.1339   21.2112 C   0  0  1  0  0  0  0  0  0  0  0  0
  -35.1174  -25.7346   23.7193 C   0  0  2  0  0  0  0  0  0  0  0  0
  -32.5469  -26.8433   19.8492 C   0  0  0  0  0  0  0  0  0  0  0  0
  -26.1927  -12.1272   21.3772 N   0  0  0  0  0  0  0  0  0  0  0  0
  -26.3196  -13.1754   20.5457 N   0  0  0  0  0  0  0  0  0  0  0  0
  -30.0641  -25.6073   22.1236 N   0  0  0  0  0  0  0  0  0  0  0  0
  -30.1222  -13.3497   20.2023 N   0  0  0  0  0  0  0  0  0  0  0  0
  -25.1157  -14.9623   19.5616 N   0  0  0  0  0  0  0  0  0  0  0  0
  -22.0059  -12.8763   22.0863 N   0  0  0  0  0  0  0  0  0  0  0  0
  -26.5815  -26.5654   21.6233 N   0  0  0  0  0  0  0  0  0  0  0  0
  -33.3704  -26.3301   22.1864 N   0  0  0  0  0  0  0  0  0  0  0  0
  -30.8653  -14.8020   21.9147 N   0  0  0  0  0  0  0  0  0  0  0  0
  -35.2654  -24.7508   24.8288 N   0  3  0  0  0  0  0  0  0  0  0  0
  -22.3663  -14.6175   20.6382 O   0  0  0  0  0  0  0  0  0  0  0  0
  -28.3196  -25.8167   20.2665 O   0  0  0  0  0  0  0  0  0  0  0  0
  -30.9009  -27.7828   22.1813 O   0  0  0  0  0  0  0  0  0  0  0  0
  -33.8568  -24.0828   22.4866 O   0  0  0  0  0  0  0  0  0  0  0  0
  -32.1998  -14.3751   20.0998 O   0  0  0  0  0  0  0  0  0  0  0  0
  -22.8195   -8.3657   25.2529 O   0  0  0  0  0  0  0  0  0  0  0  0
  -28.7447  -19.5874   22.3925 O   0  0  0  0  0  0  0  0  0  1  0  0
  -25.7797   -7.1273   29.7370 F   0  0  0  0  0  0  0  0  0  0  0  0
  -21.7886   -8.7626   27.7871 F   0  0  0  0  0  0  0  0  0  0  0  0
  1  2  1  0  0  0  0
  1  5  2  0  0  0  0
  2  6  2  0  0  0  0
  3  8  2  0  0  0  0
  3 15  1  0  0  0  0
  4  9  1  0  0  0  0
  4 15  2  0  0  0  0
  5 17  1  0  0  0  0
  6 19  1  0  0  0  0
  7 10  2  0  0  0  0
  7 18  1  0  0  0  0
  8 21  1  0  0  0  0
  9 21  2  0  0  0  0
 10 22  1  0  0  0  0
 11 12  2  0  0  0  0
 11 23  1  0  0  0  0
 12 24  1  0  0  0  0
 13 20  1  0  0  0  0
 13 22  2  0  0  0  0
 14 24  2  0  0  0  0
 14 25  1  0  0  0  0
 15 26  1  0  0  0  0
 16 26  1  0  0  0  0
 16 27  2  0  0  0  0
 16 28  1  0  0  0  0
 17 19  2  0  0  0  0
 17 33  1  0  0  0  0
 18 20  2  0  0  0  0
 18 34  1  0  0  0  0
 19 42  1  0  0  0  0
 20 35  1  0  0  0  0
 21 72  1  0  0  0  0
 22 73  1  0  0  0  0
 23 25  2  0  0  0  0
 23 72  1  0  0  0  0
 24 74  1  0  0  0  0
 25 75  1  0  0  0  0
 26 57  2  0  0  0  0
 27 58  1  0  0  0  0
 27 61  1  0  0  0  0
 28 62  1  0  0  0  0
 28 67  2  0  0  0  0
 29 43  1  0  0  0  0
 29 63  1  0  0  0  0
 29 68  2  0  0  0  0
 30 54  1  0  0  0  0
 30 59  1  0  0  0  0
 30 69  2  0  0  0  0
 31 55  1  0  0  0  0
 31 64  1  0  0  0  0
 31 70  2  0  0  0  0
 32 60  1  0  0  0  0
 32 65  1  0  0  0  0
 32 71  2  0  0  0  0
 33 36  1  0  0  0  0
 34 43  1  0  0  0  0
 35 59  1  0  0  0  0
 36 38  1  0  0  0  0
 37 39  1  0  0  0  0
 37 40  1  0  0  0  0
 38 42  1  0  0  0  0
 39 44  1  0  0  0  0
 40 60  1  0  0  0  0
 41 44  1  0  0  0  0
 41 60  1  0  0  0  0
 42 63  1  0  0  0  0
 43 59  1  0  0  0  0
 44 58  1  0  0  0  0
 45 55  1  0  0  0  0
 46 56  1  0  0  0  0
 47 56  1  0  0  0  0
 48 56  1  0  0  0  0
 49 66  1  0  0  0  0
 50 51  1  0  0  0  0
 50 52  1  0  0  0  0
 51 53  1  0  0  0  0
 52 65  1  0  0  0  0
 53 73  1  0  0  0  0
 54 56  1  0  0  0  0
 54 64  1  0  0  0  0
 55 66  1  0  0  0  0
 57 58  1  0  0  0  0
M  CHG  1  66   1
M  ISO  4  32 100  53 101  65 100  73 101
M  END
> <Batch ID>
0002

> <Smiles>
CNC(C)C(=O)NC(C(=O)N1Cc2cc([101O:1][101CH2:1]CCC[100NH:0][100C:0](=O)N3CCCC(n4nc(-c5ccc(Oc6ccc(F)cc6F)cc5)c(C(N)=O)c4N)C3)ccc2CC1C(=O)NC1CCCc2ccccc21)C(C)(C)C

> <Shape>
0.193

> <Color>
0.131

> <Negative vol penalty>
0.000

$$$$

  -OEChem-04052315183D

 84 92  0     1  0  0  0  0  0999 V2000
  -25.9171  -37.3771   17.7985 C   0  0  0  0  0  0  0  0  0  0  0  0
  -26.6310  -36.1844   17.8551 C   0  0  0  0  0  0  0  0  0  0  0  0
  -24.5964  -10.4893   23.0488 C   0  0  0  0  0  0  0  0  0  0  0  0
  -24.5302  -12.2281   24.7249 C   0  0  0  0  0  0  0  0  0  0  0  0
  -24.9925  -37.6828   18.7963 C   0  0  0  0  0  0  0  0  0  0  0  0
  -26.4215  -35.2971   18.9102 C   0  0  0  0  0  0  0  0  0  0  0  0
  -26.6134  -29.1806   18.6702 C   0  0  0  0  0  0  0  0  0  0  0  0
  -29.6852  -20.5104   20.5071 C   0  0  0  0  0  0  0  0  0  0  0  0
  -24.2110   -9.5514   24.0065 C   0  0  0  0  0  0  0  0  0  0  0  0
  -24.1448  -11.2902   25.6827 C   0  0  0  0  0  0  0  0  0  0  0  0
  -27.6065  -28.2596   19.0009 C   0  0  0  0  0  0  0  0  0  0  0  0
  -29.6616  -21.9037   20.5682 C   0  0  0  0  0  0  0  0  0  0  0  0
  -21.3564   -8.5866   25.5406 C   0  0  0  0  0  0  0  0  0  0  0  0
  -20.3607   -7.6745   25.1908 C   0  0  0  0  0  0  0  0  0  0  0  0
  -26.5988  -27.9615   21.1722 C   0  0  0  0  0  0  0  0  0  0  0  0
  -27.2546  -21.8720   20.3622 C   0  0  0  0  0  0  0  0  0  0  0  0
  -21.8953   -5.8496   25.5809 C   0  0  0  0  0  0  0  0  0  0  0  0
  -24.7561  -11.8277   23.4080 C   0  0  0  0  0  0  0  0  0  0  0  0
  -24.3122  -13.5630   21.5915 C   0  0  0  0  0  0  0  0  0  0  0  0
  -24.7646  -36.7944   19.8591 C   0  0  0  0  0  0  0  0  0  0  0  0
  -25.6101  -29.5076   19.5937 C   0  0  0  0  0  0  0  0  0  0  0  0
  -25.4940  -35.5918   19.9239 C   0  0  0  0  0  0  0  0  0  0  0  0
  -25.5926  -28.8850   20.8499 C   0  0  0  0  0  0  0  0  0  0  0  0
  -27.2782  -20.4787   20.3010 C   0  0  0  0  0  0  0  0  0  0  0  0
  -28.4935  -19.7979   20.3734 C   0  0  0  0  0  0  0  0  0  0  0  0
  -23.9851   -9.9518   25.3235 C   0  0  0  0  0  0  0  0  0  0  0  0
  -27.6010  -27.6521   20.2530 C   0  0  0  0  0  0  0  0  0  0  0  0
  -28.4463  -22.5845   20.4958 C   0  0  0  0  0  0  0  0  0  0  0  0
  -22.6216   -8.1302   25.9105 C   0  0  0  0  0  0  0  0  0  0  0  0
  -20.6301   -6.3061   25.2110 C   0  0  0  0  0  0  0  0  0  0  0  0
  -22.8910   -6.7617   25.9307 C   0  0  0  0  0  0  0  0  0  0  0  0
  -25.1548  -12.7970   22.4192 C   0  0  0  0  0  0  0  0  0  0  0  0
  -25.1714  -14.3240   20.8371 C   0  0  0  0  0  0  0  0  0  0  0  0
  -22.8808  -13.5847   21.5118 C   0  0  0  0  0  0  0  0  0  0  0  0
  -24.7079  -32.1704   21.0767 C   0  0  0  0  0  0  0  0  0  0  0  0
  -22.2758  -30.2982   22.1265 C   0  0  0  0  0  0  0  0  0  0  0  0
  -21.1206  -27.1594   22.8047 C   0  0  0  0  0  0  0  0  0  0  0  0
  -29.6706  -17.5706   20.3683 C   0  0  0  0  0  0  0  0  0  0  0  0
  -23.7895  -37.1899   20.9395 C   0  0  0  0  0  0  0  0  0  0  0  0
  -24.5306  -30.4831   19.2119 C   0  0  0  0  0  0  0  0  0  0  0  0
  -24.5259  -29.1864   21.8696 C   0  0  0  0  0  0  0  0  0  0  0  0
  -23.3545  -36.0242   21.8239 C   0  0  0  0  0  0  0  0  0  0  0  0
  -30.1956  -14.0500   20.2856 C   0  0  0  0  0  0  0  0  0  0  0  0
  -24.5638  -35.1997   22.2534 C   0  0  0  0  0  0  0  0  0  0  0  0
  -28.8616  -13.4732   20.7652 C   0  0  0  0  0  0  0  0  0  0  0  0
  -30.5523  -15.3408   21.0206 C   0  0  0  0  0  0  0  0  0  0  0  0
  -28.1757  -15.7978   21.4811 C   0  0  0  0  0  0  0  0  0  0  0  0
  -25.2768  -34.5924   21.0393 C   0  0  1  0  0  0  0  0  0  0  0  0
  -23.8523  -31.1257   20.4178 C   0  0  1  0  0  0  0  0  0  0  0  0
  -27.7423  -14.5320   20.7238 C   0  0  2  0  0  0  0  0  0  0  0  0
  -19.1076  -25.9494   23.6885 C   0  0  0  0  0  0  0  0  0  0  0  0
  -23.0174  -31.1415   24.9635 C   0  0  0  0  0  0  0  0  0  0  0  0
  -21.6509  -29.2247   25.8159 C   0  0  0  0  0  0  0  0  0  0  0  0
  -20.5594  -31.0495   24.5115 C   0  0  0  0  0  0  0  0  0  0  0  0
  -20.7517  -25.6805   20.2679 C   0  0  0  0  0  0  0  0  0  0  0  0
  -29.1304  -25.9882   19.5125 C   0  0  0  0  0  0  0  0  0  1  0  0
  -29.5619  -24.6362   20.0469 C   0  0  0  0  0  0  0  0  0  0  0  0
  -22.0572  -29.3984   23.3187 C   0  0  1  0  0  0  0  0  0  0  0  0
  -19.8182  -26.4663   22.4473 C   0  0  2  0  0  0  0  0  0  0  0  0
  -25.9862  -19.7418   20.1575 C   0  0  0  0  0  0  0  0  0  0  0  0
  -21.8426  -30.1991   24.6341 C   0  0  0  0  0  0  0  0  0  0  0  0
  -26.4499  -13.0483   22.2103 N   0  0  0  0  0  0  0  0  0  0  0  0
  -26.4275  -13.9807   21.2427 N   0  0  0  0  0  0  0  0  0  0  0  0
  -23.4959  -30.1516   21.4515 N   0  0  0  0  0  0  0  0  0  0  0  0
  -29.4472  -16.2980   20.9353 N   0  0  0  0  0  0  0  0  0  0  0  0
  -24.9674  -15.2466   19.8730 N   0  0  0  0  0  0  0  0  0  0  0  0
  -22.1515  -12.7393   22.3590 N   0  0  0  0  0  0  0  0  0  0  0  0
  -28.5386  -18.3830   20.3110 N   0  0  0  0  0  0  0  0  0  0  0  0
  -24.5512  -33.4390   20.5518 N   0  0  0  0  0  0  0  0  0  0  0  0
  -20.9483  -28.5177   22.9676 N   0  0  0  0  0  0  0  0  0  0  0  0
  -20.0773  -25.3131   21.5395 N   0  3  0  0  0  0  0  0  0  0  0  0
  -22.2671  -14.3198   20.7015 O   0  0  0  0  0  0  0  0  0  0  0  0
  -25.4539  -31.8496   21.9945 O   0  0  0  0  0  0  0  0  0  0  0  0
  -21.3934  -31.0967   21.8017 O   0  0  0  0  0  0  0  0  0  0  0  0
  -22.1837  -26.5556   22.9308 O   0  0  0  0  0  0  0  0  0  0  0  0
  -30.7778  -17.9043   19.9386 O   0  0  0  0  0  0  0  0  0  0  0  0
  -23.6088   -9.0369   26.2583 O   0  0  0  0  0  0  0  0  0  0  0  0
  -28.5695  -26.7533   20.5785 O   0  0  0  0  0  0  0  0  0  1  0  0
  -28.4231  -23.9530   20.5565 O   0  0  0  0  0  0  0  0  0  0  0  0
  -19.6734   -5.4303   24.8765 F   0  0  0  0  0  0  0  0  0  0  0  0
  -24.1041   -6.3172   26.2863 F   0  0  0  0  0  0  0  0  0  0  0  0
  -24.8955  -20.5605   20.1018 F   0  0  0  0  0  0  0  0  0  0  0  0
  -25.9185  -18.9772   19.0291 F   0  0  0  0  0  0  0  0  0  0  0  0
  -25.7536  -18.8884   21.1956 F   0  0  0  0  0  0  0  0  0  0  0  0
  1  2  1  0  0  0  0
  1  5  2  0  0  0  0
  2  6  2  0  0  0  0
  3  9  2  0  0  0  0
  3 18  1  0  0  0  0
  4 10  1  0  0  0  0
  4 18  2  0  0  0  0
  5 20  1  0  0  0  0
  6 22  1  0  0  0  0
  7 11  2  0  0  0  0
  7 21  1  0  0  0  0
  8 12  2  0  0  0  0
  8 25  1  0  0  0  0
  9 26  1  0  0  0  0
 10 26  2  0  0  0  0
 11 27  1  0  0  0  0
 12 28  1  0  0  0  0
 13 14  2  0  0  0  0
 13 29  1  0  0  0  0
 14 30  1  0  0  0  0
 15 23  1  0  0  0  0
 15 27  2  0  0  0  0
 16 24  1  0  0  0  0
 16 28  2  0  0  0  0
 17 30  2  0  0  0  0
 17 31  1  0  0  0  0
 18 32  1  0  0  0  0
 19 32  1  0  0  0  0
 19 33  2  0  0  0  0
 19 34  1  0  0  0  0
 20 22  2  0  0  0  0
 20 39  1  0  0  0  0
 21 23  2  0  0  0  0
 21 40  1  0  0  0  0
 22 48  1  0  0  0  0
 23 41  1  0  0  0  0
 24 25  2  0  0  0  0
 24 60  1  0  0  0  0
 25 68  1  0  0  0  0
 26 77  1  0  0  0  0
 27 78  1  0  0  0  0
 28 79  1  0  0  0  0
 29 31  2  0  0  0  0
 29 77  1  0  0  0  0
 30 80  1  0  0  0  0
 31 81  1  0  0  0  0
 32 62  2  0  0  0  0
 33 63  1  0  0  0  0
 33 66  1  0  0  0  0
 34 67  1  0  0  0  0
 34 72  2  0  0  0  0
 35 49  1  0  0  0  0
 35 69  1  0  0  0  0
 35 73  2  0  0  0  0
 36 58  1  0  0  0  0
 36 64  1  0  0  0  0
 36 74  2  0  0  0  0
 37 59  1  0  0  0  0
 37 70  1  0  0  0  0
 37 75  2  0  0  0  0
 38 65  1  0  0  0  0
 38 68  1  0  0  0  0
 38 76  2  0  0  0  0
 39 42  1  0  0  0  0
 40 49  1  0  0  0  0
 41 64  1  0  0  0  0
 42 44  1  0  0  0  0
 43 45  1  0  0  0  0
 43 46  1  0  0  0  0
 44 48  1  0  0  0  0
 45 50  1  0  0  0  0
 46 65  1  0  0  0  0
 47 50  1  0  0  0  0
 47 65  1  0  0  0  0
 48 69  1  0  0  0  0
 49 64  1  0  0  0  0
 50 63  1  0  0  0  0
 51 59  1  0  0  0  0
 52 61  1  0  0  0  0
 53 61  1  0  0  0  0
 54 61  1  0  0  0  0
 55 71  1  0  0  0  0
 56 57  1  0  0  0  0
 56 78  1  0  0  0  0
 57 79  1  0  0  0  0
 58 61  1  0  0  0  0
 58 70  1  0  0  0  0
 59 71  1  0  0  0  0
 60 82  1  0  0  0  0
 60 83  1  0  0  0  0
 60 84  1  0  0  0  0
 62 63  1  0  0  0  0
M  CHG  1  71   1
M  ISO  4  38 100  56 101  68 100  78 101
M  END
> <Batch ID>
0002

> <Smiles>
CNC(C)C(=O)NC(C(=O)N1Cc2cc([101O:1][101CH2:1]COc3ccc([100NH:0][100C:0](=O)N4CCCC(n5nc(-c6ccc(Oc7ccc(F)cc7F)cc6)c(C(N)=O)c5N)C4)c(C(F)(F)F)c3)ccc2CC1C(=O)NC1CCCc2ccccc21)C(C)(C)C

> <Shape>
0.274

> <Color>
0.132

> <Negative vol penalty>
0.000

$$$$

  -OEChem-04052315183D

 77 85  0     1  0  0  0  0  0999 V2000
  -17.5192  -25.8185   21.4338 C   0  0  0  0  0  0  0  0  0  0  0  0
  -18.7916  -25.7093   20.8820 C   0  0  0  0  0  0  0  0  0  0  0  0
  -26.6261  -12.5770   21.8119 C   0  0  0  0  0  0  0  0  0  0  0  0
  -25.8412  -14.0497   20.0649 C   0  0  0  0  0  0  0  0  0  0  0  0
  -17.0682  -27.0509   21.9045 C   0  0  0  0  0  0  0  0  0  0  0  0
  -19.6134  -26.8328   20.7996 C   0  0  0  0  0  0  0  0  0  0  0  0
  -24.3691  -25.8720   22.2504 C   0  0  0  0  0  0  0  0  0  0  0  0
  -28.1665  -21.8353   19.6877 C   0  0  0  0  0  0  0  0  0  0  0  0
  -28.7648  -22.8992   21.7725 C   0  0  0  0  0  0  0  0  0  0  0  0
  -25.3753  -11.9612   21.8549 C   0  0  0  0  0  0  0  0  0  0  0  0
  -24.5903  -13.4339   20.1079 C   0  0  0  0  0  0  0  0  0  0  0  0
  -25.1919  -25.2122   21.3387 C   0  0  0  0  0  0  0  0  0  0  0  0
  -27.5414  -23.0095   19.2679 C   0  0  0  0  0  0  0  0  0  0  0  0
  -28.1397  -24.0734   21.3528 C   0  0  0  0  0  0  0  0  0  0  0  0
  -23.6696   -9.6584   20.0604 C   0  0  0  0  0  0  0  0  0  0  0  0
  -23.6343   -8.2648   20.1070 C   0  0  0  0  0  0  0  0  0  0  0  0
  -26.1959  -27.3193   20.7291 C   0  0  0  0  0  0  0  0  0  0  0  0
  -22.4632   -8.3651   22.2179 C   0  0  0  0  0  0  0  0  0  0  0  0
  -26.8591  -13.6213   20.9170 C   0  0  0  0  0  0  0  0  0  0  0  0
  -29.2505  -13.8951   20.0721 C   0  0  0  0  0  0  0  0  0  0  0  0
  -17.8885  -28.1881   21.8366 C   0  0  0  0  0  0  0  0  0  0  0  0
  -24.4460  -27.2641   22.4008 C   0  0  0  0  0  0  0  0  0  0  0  0
  -19.1724  -28.0819   21.2686 C   0  0  0  0  0  0  0  0  0  0  0  0
  -25.3747  -27.9940   21.6453 C   0  0  0  0  0  0  0  0  0  0  0  0
  -28.7782  -21.7802   20.9400 C   0  0  0  0  0  0  0  0  0  0  0  0
  -24.3574  -12.3897   21.0029 C   0  0  0  0  0  0  0  0  0  0  0  0
  -27.5280  -24.1286   20.1005 C   0  0  0  0  0  0  0  0  0  1  0  0
  -26.1035  -25.9362   20.5757 C   0  0  0  0  0  0  0  0  0  0  0  0
  -23.1017  -10.4054   21.0925 C   0  0  0  0  0  0  0  0  0  0  0  0
  -23.0311   -7.6181   21.1857 C   0  0  0  0  0  0  0  0  0  0  0  0
  -22.4985   -9.7587   22.1712 C   0  0  0  0  0  0  0  0  0  0  0  0
  -28.1508  -14.2581   20.8725 C   0  0  0  0  0  0  0  0  0  0  0  0
  -30.2274  -14.8038   20.3982 C   0  0  0  0  0  0  0  0  0  0  0  0
  -29.3776  -12.8315   19.1191 C   0  0  0  0  0  0  0  0  0  0  0  0
  -22.4292  -29.6821   21.9655 C   0  0  0  0  0  0  0  0  0  0  0  0
  -24.8421  -31.4181   23.2642 C   0  0  0  0  0  0  0  0  0  0  0  0
  -28.1808  -31.7092   23.9084 C   0  0  0  0  0  0  0  0  0  0  0  0
  -30.0658  -20.3648   22.5786 C   0  0  0  0  0  0  0  0  0  0  0  0
  -17.3394  -29.5088   22.3151 C   0  0  0  0  0  0  0  0  0  0  0  0
  -23.5701  -27.9576   23.4079 C   0  0  0  0  0  0  0  0  0  0  0  0
  -25.5106  -29.4876   21.7837 C   0  0  0  0  0  0  0  0  0  0  0  0
  -18.4132  -30.5717   22.5332 C   0  0  0  0  0  0  0  0  0  0  0  0
  -31.7199  -17.5601   24.0189 C   0  0  0  0  0  0  0  0  0  0  0  0
  -19.3734  -30.6115   21.3486 C   0  0  0  0  0  0  0  0  0  0  0  0
  -31.0968  -16.3624   23.2983 C   0  0  0  0  0  0  0  0  0  0  0  0
  -30.6948  -18.6630   24.2766 C   0  0  0  0  0  0  0  0  0  0  0  0
  -29.3270  -17.9099   22.3711 C   0  0  0  0  0  0  0  0  0  0  0  0
  -20.1026  -29.2726   21.1843 C   0  0  1  0  0  0  0  0  0  0  0  0
  -23.3741  -29.4406   23.1085 C   0  0  1  0  0  0  0  0  0  0  0  0
  -30.3356  -16.8003   22.0317 C   0  0  2  0  0  0  0  0  0  0  0  0
  -29.8580  -33.2567   24.9521 C   0  0  0  0  0  0  0  0  0  0  0  0
  -24.6822  -33.2365   20.8192 C   0  0  0  0  0  0  0  0  0  0  0  0
  -26.9321  -34.1457   21.4350 C   0  0  0  0  0  0  0  0  0  0  0  0
  -25.0038  -34.4343   22.9909 C   0  0  0  0  0  0  0  0  0  0  0  0
  -28.9726  -29.6842   25.9162 C   0  0  0  0  0  0  0  0  0  0  0  0
  -26.0471  -32.1472   22.7209 C   0  0  1  0  0  0  0  0  0  0  0  0
  -28.9344  -32.0694   25.1759 C   0  0  2  0  0  0  0  0  0  0  0  0
  -25.6626  -33.4630   21.9873 C   0  0  0  0  0  0  0  0  0  0  0  0
  -28.4046  -15.3150   21.6488 N   0  0  0  0  0  0  0  0  0  0  0  0
  -29.6751  -15.6238   21.3377 N   0  0  0  0  0  0  0  0  0  0  0  0
  -24.6277  -30.1209   22.7772 N   0  0  0  0  0  0  0  0  0  0  0  0
  -30.0164  -19.0294   23.0314 N   0  0  0  0  0  0  0  0  0  0  0  0
  -31.4964  -14.9735   19.9700 N   0  0  0  0  0  0  0  0  0  0  0  0
  -28.2769  -11.9905   18.9057 N   0  0  0  0  0  0  0  0  0  0  0  0
  -29.4125  -20.5873   21.3668 N   0  0  0  0  0  0  0  0  0  0  0  0
  -21.1668  -29.1539   22.1578 N   0  0  0  0  0  0  0  0  0  0  0  0
  -26.9534  -32.3348   23.8487 N   0  0  0  0  0  0  0  0  0  0  0  0
  -29.7565  -30.9146   25.6357 N   0  3  0  0  0  0  0  0  0  0  0  0
  -30.4412  -12.6227   18.4877 O   0  0  0  0  0  0  0  0  0  0  0  0
  -22.8162  -30.3030   20.9824 O   0  0  0  0  0  0  0  0  0  0  0  0
  -24.1216  -31.9761   24.0956 O   0  0  0  0  0  0  0  0  0  0  0  0
  -28.6369  -30.9518   23.0547 O   0  0  0  0  0  0  0  0  0  0  0  0
  -30.6680  -21.2406   23.2049 O   0  0  0  0  0  0  0  0  0  0  0  0
  -26.9074  -25.2947   19.6846 O   0  0  0  0  0  0  0  0  0  1  0  0
  -23.1368  -11.7889   21.0443 O   0  0  0  0  0  0  0  0  0  0  0  0
  -22.9960   -6.2798   21.2297 F   0  0  0  0  0  0  0  0  0  0  0  0
  -21.9502  -10.4710   23.1651 F   0  0  0  0  0  0  0  0  0  0  0  0
  1  2  1  0  0  0  0
  1  5  2  0  0  0  0
  2  6  2  0  0  0  0
  3 10  2  0  0  0  0
  3 19  1  0  0  0  0
  4 11  1  0  0  0  0
  4 19  2  0  0  0  0
  5 21  1  0  0  0  0
  6 23  1  0  0  0  0
  7 12  2  0  0  0  0
  7 22  1  0  0  0  0
  8 13  2  0  0  0  0
  8 25  1  0  0  0  0
  9 14  1  0  0  0  0
  9 25  2  0  0  0  0
 10 26  1  0  0  0  0
 11 26  2  0  0  0  0
 12 28  1  0  0  0  0
 13 27  1  0  0  0  0
 14 27  2  0  0  0  0
 15 16  2  0  0  0  0
 15 29  1  0  0  0  0
 16 30  1  0  0  0  0
 17 24  1  0  0  0  0
 17 28  2  0  0  0  0
 18 30  2  0  0  0  0
 18 31  1  0  0  0  0
 19 32  1  0  0  0  0
 20 32  1  0  0  0  0
 20 33  2  0  0  0  0
 20 34  1  0  0  0  0
 21 23  2  0  0  0  0
 21 39  1  0  0  0  0
 22 24  2  0  0  0  0
 22 40  1  0  0  0  0
 23 48  1  0  0  0  0
 24 41  1  0  0  0  0
 25 65  1  0  0  0  0
 26 75  1  0  0  0  0
 27 74  1  0  0  0  0
 28 74  1  0  0  0  0
 29 31  2  0  0  0  0
 29 75  1  0  0  0  0
 30 76  1  0  0  0  0
 31 77  1  0  0  0  0
 32 59  2  0  0  0  0
 33 60  1  0  0  0  0
 33 63  1  0  0  0  0
 34 64  1  0  0  0  0
 34 69  2  0  0  0  0
 35 49  1  0  0  0  0
 35 66  1  0  0  0  0
 35 70  2  0  0  0  0
 36 56  1  0  0  0  0
 36 61  1  0  0  0  0
 36 71  2  0  0  0  0
 37 57  1  0  0  0  0
 37 67  1  0  0  0  0
 37 72  2  0  0  0  0
 38 62  1  0  0  0  0
 38 65  1  0  0  0  0
 38 73  2  0  0  0  0
 39 42  1  0  0  0  0
 40 49  1  0  0  0  0
 41 61  1  0  0  0  0
 42 44  1  0  0  0  0
 43 45  1  0  0  0  0
 43 46  1  0  0  0  0
 44 48  1  0  0  0  0
 45 50  1  0  0  0  0
 46 62  1  0  0  0  0
 47 50  1  0  0  0  0
 47 62  1  0  0  0  0
 48 66  1  0  0  0  0
 49 61  1  0  0  0  0
 50 60  1  0  0  0  0
 51 57  1  0  0  0  0
 52 58  1  0  0  0  0
 53 58  1  0  0  0  0
 54 58  1  0  0  0  0
 55 68  1  0  0  0  0
 56 58  1  0  0  0  0
 56 67  1  0  0  0  0
 57 68  1  0  0  0  0
 59 60  1  0  0  0  0
M  CHG  1  68   1
M  ISO  4  27 101  38 100  65 100  74 101
M  END
> <Batch ID>
0002

> <Smiles>
CNC(C)C(=O)NC(C(=O)N1Cc2cc([101O:1][101c:1]3ccc([100NH:0][100C:0](=O)N4CCCC(n5nc(-c6ccc(Oc7ccc(F)cc7F)cc6)c(C(N)=O)c5N)C4)cc3)ccc2CC1C(=O)NC1CCCc2ccccc21)C(C)(C)C

> <Shape>
0.307

> <Color>
0.082

> <Negative vol penalty>
0.000

$$$$

  -OEChem-04052315183D

 78 86  0     1  0  0  0  0  0999 V2000
  -26.7739  -32.6995   28.1675 C   0  0  0  0  0  0  0  0  0  0  0  0
  -27.2042  -31.6974   27.3039 C   0  0  0  0  0  0  0  0  0  0  0  0
  -27.9925  -22.3141   16.9447 C   0  0  0  0  0  0  0  0  0  0  0  0
  -26.5064  -12.7174   21.6170 C   0  0  0  0  0  0  0  0  0  0  0  0
  -26.0125  -13.7464   19.4877 C   0  0  0  0  0  0  0  0  0  0  0  0
  -25.4236  -33.0436   28.2165 C   0  0  0  0  0  0  0  0  0  0  0  0
  -26.2843  -31.0379   26.4894 C   0  0  0  0  0  0  0  0  0  0  0  0
  -27.2352  -28.9309   20.8182 C   0  0  0  0  0  0  0  0  0  0  0  0
  -27.8815  -23.5924   17.4918 C   0  0  0  0  0  0  0  0  0  0  0  0
  -28.5263  -21.2739   17.7054 C   0  0  0  0  0  0  0  0  0  0  0  0
  -25.2502  -12.1112   21.6155 C   0  0  0  0  0  0  0  0  0  0  0  0
  -24.7563  -13.1402   19.4860 C   0  0  0  0  0  0  0  0  0  0  0  0
  -27.5382  -27.6615   20.3277 C   0  0  0  0  0  0  0  0  0  0  0  0
  -23.7752   -9.4401   20.1584 C   0  0  0  0  0  0  0  0  0  0  0  0
  -23.7052   -8.0929   20.5128 C   0  0  0  0  0  0  0  0  0  0  0  0
  -25.1982  -27.2824   19.8806 C   0  0  0  0  0  0  0  0  0  0  0  0
  -28.8381  -22.7902   19.5602 C   0  0  0  0  0  0  0  0  0  0  0  0
  -22.2435   -8.6529   22.3531 C   0  0  0  0  0  0  0  0  0  0  0  0
  -26.8875  -13.5351   20.5531 C   0  0  0  0  0  0  0  0  0  0  0  0
  -29.3811  -13.6417   20.0253 C   0  0  0  0  0  0  0  0  0  0  0  0
  -24.4882  -32.3946   27.3953 C   0  0  0  0  0  0  0  0  0  0  0  0
  -25.9080  -29.3822   20.8538 C   0  0  0  0  0  0  0  0  0  0  0  0
  -24.9201  -31.3726   26.5285 C   0  0  0  0  0  0  0  0  0  0  0  0
  -24.8813  -28.5589   20.3697 C   0  0  0  0  0  0  0  0  0  0  0  0
  -28.3043  -23.8305   18.7995 C   0  0  0  0  0  0  0  0  0  0  0  0
  -28.9491  -21.5119   19.0131 C   0  0  0  0  0  0  0  0  0  0  0  0
  -24.3751  -12.3225   20.5500 C   0  0  0  0  0  0  0  0  0  0  0  0
  -26.5193  -26.8359   19.8615 C   0  0  0  0  0  0  0  0  0  0  0  0
  -23.0795  -10.3938   20.9015 C   0  0  0  0  0  0  0  0  0  0  0  0
  -22.9393   -7.6992   21.6101 C   0  0  0  0  0  0  0  0  0  0  0  0
  -22.3136  -10.0001   21.9988 C   0  0  0  0  0  0  0  0  0  0  0  0
  -28.1848  -14.1621   20.5545 C   0  0  0  0  0  0  0  0  0  0  0  0
  -30.3189  -14.6133   20.2763 C   0  0  0  0  0  0  0  0  0  0  0  0
  -29.6229  -12.3918   19.3657 C   0  0  0  0  0  0  0  0  0  0  0  0
  -23.8999  -30.2656   23.1541 C   0  0  0  0  0  0  0  0  0  0  0  0
  -21.9913  -31.0484   20.6508 C   0  0  0  0  0  0  0  0  0  0  0  0
  -21.1684  -30.5681   17.3737 C   0  0  0  0  0  0  0  0  0  0  0  0
  -29.9572  -20.5208   21.0983 C   0  0  0  0  0  0  0  0  0  0  0  0
  -23.0321  -32.7683   27.5176 C   0  0  0  0  0  0  0  0  0  0  0  0
  -25.6007  -30.7644   21.3612 C   0  0  0  0  0  0  0  0  0  0  0  0
  -23.4424  -29.0040   20.3674 C   0  0  0  0  0  0  0  0  0  0  0  0
  -22.1777  -32.2795   26.3509 C   0  0  0  0  0  0  0  0  0  0  0  0
  -31.3281  -18.1363   23.3592 C   0  0  0  0  0  0  0  0  0  0  0  0
  -22.4919  -30.8209   26.0335 C   0  0  0  0  0  0  0  0  0  0  0  0
  -30.7915  -16.7986   22.8447 C   0  0  0  0  0  0  0  0  0  0  0  0
  -30.2992  -19.2555   23.2095 C   0  0  0  0  0  0  0  0  0  0  0  0
  -29.2062  -18.0732   21.3449 C   0  0  0  0  0  0  0  0  0  0  0  0
  -23.9563  -30.6512   25.6115 C   0  0  1  0  0  0  0  0  0  0  0  0
  -24.1568  -30.9225   21.8274 C   0  0  1  0  0  0  0  0  0  0  0  0
  -30.2305  -16.9288   21.4151 C   0  0  2  0  0  0  0  0  0  0  0  0
  -19.5398  -31.3237   15.6205 C   0  0  0  0  0  0  0  0  0  0  0  0
  -19.8198  -29.3285   21.9301 C   0  0  0  0  0  0  0  0  0  0  0  0
  -18.6126  -29.3443   19.7367 C   0  0  0  0  0  0  0  0  0  0  0  0
  -19.0056  -31.4839   20.9576 C   0  0  0  0  0  0  0  0  0  0  0  0
  -23.3324  -31.6255   15.6538 C   0  0  0  0  0  0  0  0  0  0  0  0
  -28.1847  -25.2057   19.3875 C   0  0  0  0  0  0  0  0  0  1  0  0
  -20.9499  -30.3236   19.8328 C   0  0  1  0  0  0  0  0  0  0  0  0
  -20.9071  -31.5505   16.2463 C   0  0  2  0  0  0  0  0  0  0  0  0
  -19.6238  -30.1106   20.6160 C   0  0  0  0  0  0  0  0  0  0  0  0
  -28.3453  -15.3704   21.1006 N   0  0  0  0  0  0  0  0  0  0  0  0
  -29.6533  -15.6173   20.9160 N   0  0  0  0  0  0  0  0  0  0  0  0
  -23.1921  -30.3615   20.8793 N   0  0  0  0  0  0  0  0  0  0  0  0
  -29.8156  -19.3219   21.8287 N   0  0  0  0  0  0  0  0  0  0  0  0
  -31.6396  -14.6981   20.0102 N   0  0  0  0  0  0  0  0  0  0  0  0
  -28.5477  -11.5102   19.1899 N   0  0  0  0  0  0  0  0  0  0  0  0
  -29.4906  -20.4548   19.7858 N   0  0  0  0  0  0  0  0  0  0  0  0
  -24.1410  -31.0823   24.2423 N   0  0  0  0  0  0  0  0  0  0  0  0
  -20.7987  -31.0848   18.5974 N   0  0  0  0  0  0  0  0  0  0  0  0
  -21.9408  -31.4053   15.1827 N   0  3  0  0  0  0  0  0  0  0  0  0
  -30.7622  -12.0595   18.9593 O   0  0  0  0  0  0  0  0  0  0  0  0
  -23.5105  -29.1042   23.1878 O   0  0  0  0  0  0  0  0  0  0  0  0
  -21.7511  -32.1850   21.0655 O   0  0  0  0  0  0  0  0  0  0  0  0
  -21.6488  -29.4523   17.1870 O   0  0  0  0  0  0  0  0  0  0  0  0
  -30.4803  -21.5233   21.5915 O   0  0  0  0  0  0  0  0  0  0  0  0
  -23.1494  -11.7309   20.5480 O   0  0  0  0  0  0  0  0  0  0  0  0
  -26.8122  -25.5962   19.3828 O   0  0  0  0  0  0  0  0  0  1  0  0
  -22.8709   -6.4052   21.9493 F   0  0  0  0  0  0  0  0  0  0  0  0
  -21.6420  -10.9116   22.7158 F   0  0  0  0  0  0  0  0  0  0  0  0
  1  2  1  0  0  0  0
  1  6  2  0  0  0  0
  2  7  2  0  0  0  0
  3  9  2  0  0  0  0
  3 10  1  0  0  0  0
  4 11  2  0  0  0  0
  4 19  1  0  0  0  0
  5 12  1  0  0  0  0
  5 19  2  0  0  0  0
  6 21  1  0  0  0  0
  7 23  1  0  0  0  0
  8 13  2  0  0  0  0
  8 22  1  0  0  0  0
  9 25  1  0  0  0  0
 10 26  2  0  0  0  0
 11 27  1  0  0  0  0
 12 27  2  0  0  0  0
 13 28  1  0  0  0  0
 14 15  2  0  0  0  0
 14 29  1  0  0  0  0
 15 30  1  0  0  0  0
 16 24  1  0  0  0  0
 16 28  2  0  0  0  0
 17 25  2  0  0  0  0
 17 26  1  0  0  0  0
 18 30  2  0  0  0  0
 18 31  1  0  0  0  0
 19 32  1  0  0  0  0
 20 32  1  0  0  0  0
 20 33  2  0  0  0  0
 20 34  1  0  0  0  0
 21 23  2  0  0  0  0
 21 39  1  0  0  0  0
 22 24  2  0  0  0  0
 22 40  1  0  0  0  0
 23 48  1  0  0  0  0
 24 41  1  0  0  0  0
 25 56  1  0  0  0  0
 26 66  1  0  0  0  0
 27 75  1  0  0  0  0
 28 76  1  0  0  0  0
 29 31  2  0  0  0  0
 29 75  1  0  0  0  0
 30 77  1  0  0  0  0
 31 78  1  0  0  0  0
 32 60  2  0  0  0  0
 33 61  1  0  0  0  0
 33 64  1  0  0  0  0
 34 65  1  0  0  0  0
 34 70  2  0  0  0  0
 35 49  1  0  0  0  0
 35 67  1  0  0  0  0
 35 71  2  0  0  0  0
 36 57  1  0  0  0  0
 36 62  1  0  0  0  0
 36 72  2  0  0  0  0
 37 58  1  0  0  0  0
 37 68  1  0  0  0  0
 37 73  2  0  0  0  0
 38 63  1  0  0  0  0
 38 66  1  0  0  0  0
 38 74  2  0  0  0  0
 39 42  1  0  0  0  0
 40 49  1  0  0  0  0
 41 62  1  0  0  0  0
 42 44  1  0  0  0  0
 43 45  1  0  0  0  0
 43 46  1  0  0  0  0
 44 48  1  0  0  0  0
 45 50  1  0  0  0  0
 46 63  1  0  0  0  0
 47 50  1  0  0  0  0
 47 63  1  0  0  0  0
 48 67  1  0  0  0  0
 49 62  1  0  0  0  0
 50 61  1  0  0  0  0
 51 58  1  0  0  0  0
 52 59  1  0  0  0  0
 53 59  1  0  0  0  0
 54 59  1  0  0  0  0
 55 69  1  0  0  0  0
 56 76  1  0  0  0  0
 57 59  1  0  0  0  0
 57 68  1  0  0  0  0
 58 69  1  0  0  0  0
 60 61  1  0  0  0  0
M  CHG  1  69   1
M  ISO  4  38 100  56 101  66 100  76 101
M  END
> <Batch ID>
0002

> <Smiles>
CNC(C)C(=O)NC(C(=O)N1Cc2cc([101O:1][101CH2:1]c3cccc([100NH:0][100C:0](=O)N4CCCC(n5nc(-c6ccc(Oc7ccc(F)cc7F)cc6)c(C(N)=O)c5N)C4)c3)ccc2CC1C(=O)NC1CCCc2ccccc21)C(C)(C)C

> <Shape>
0.294

> <Color>
0.112

> <Negative vol penalty>
0.000

$$$$

  -OEChem-04052315183D

 81 89  0     1  0  0  0  0  0999 V2000
  -22.4380  -22.2246   18.0145 C   0  0  0  0  0  0  0  0  0  0  0  0
  -23.6970  -21.6621   17.8304 C   0  0  0  0  0  0  0  0  0  0  0  0
  -25.8268  -27.1969   18.7475 C   0  0  0  0  0  0  0  0  0  0  0  0
  -25.7670  -26.5640   21.0784 C   0  0  0  0  0  0  0  0  0  0  0  0
  -21.6839  -21.8901   19.1384 C   0  0  0  0  0  0  0  0  0  0  0  0
  -24.2031  -20.7654   18.7707 C   0  0  0  0  0  0  0  0  0  0  0  0
  -28.3660  -14.9571   19.2704 C   0  0  0  0  0  0  0  0  0  0  0  0
  -24.6402  -27.9116   18.9112 C   0  0  0  0  0  0  0  0  0  0  0  0
  -24.5804  -27.2787   21.2421 C   0  0  0  0  0  0  0  0  0  0  0  0
  -29.4747  -14.4836   19.9706 C   0  0  0  0  0  0  0  0  0  0  0  0
  -21.2952  -26.8393   20.5751 C   0  0  0  0  0  0  0  0  0  0  0  0
  -20.2631  -26.2276   21.2865 C   0  0  0  0  0  0  0  0  0  0  0  0
  -28.0497  -13.9188   21.8333 C   0  0  0  0  0  0  0  0  0  0  0  0
  -20.3107  -28.0247   22.9007 C   0  0  0  0  0  0  0  0  0  0  0  0
  -32.3329  -16.2078   23.8231 C   0  0  0  0  0  0  0  0  0  0  0  0
  -33.4756  -14.9335   22.4349 C   0  0  0  0  0  0  0  0  0  0  0  0
  -26.3902  -26.5230   19.8311 C   0  0  0  0  0  0  0  0  0  0  0  0
  -28.9282  -26.2657   19.8272 C   0  0  0  0  0  0  0  0  0  0  0  0
  -22.1769  -20.9814   20.0881 C   0  0  0  0  0  0  0  0  0  0  0  0
  -27.0902  -14.9249   19.8517 C   0  0  0  0  0  0  0  0  0  0  0  0
  -23.4554  -20.4194   19.9091 C   0  0  0  0  0  0  0  0  0  0  0  0
  -26.9260  -14.3901   21.1374 C   0  0  0  0  0  0  0  0  0  0  0  0
  -24.0170  -27.9526   20.1584 C   0  0  0  0  0  0  0  0  0  0  0  0
  -29.3172  -13.9670   21.2534 C   0  0  0  0  0  0  0  0  0  0  0  0
  -21.8351  -28.0436   21.0264 C   0  0  0  0  0  0  0  0  0  0  0  0
  -19.7708  -26.8203   22.4493 C   0  0  0  0  0  0  0  0  0  0  0  0
  -21.3429  -28.6363   22.1892 C   0  0  0  0  0  0  0  0  0  0  0  0
  -27.6156  -25.7841   19.6626 C   0  0  0  0  0  0  0  0  0  0  0  0
  -33.2190  -16.9470   23.0756 C   0  0  0  0  0  0  0  0  0  0  0  0
  -29.7279  -25.1828   19.5545 C   0  0  0  0  0  0  0  0  0  0  0  0
  -29.3838  -27.5747   20.1939 C   0  0  0  0  0  0  0  0  0  0  0  0
  -24.9383  -17.1198   20.6615 C   0  0  0  0  0  0  0  0  0  0  0  0
  -23.1076  -14.5223   21.3127 C   0  0  0  0  0  0  0  0  0  0  0  0
  -22.9613  -11.2082   22.1140 C   0  0  0  0  0  0  0  0  0  0  0  0
  -29.8587  -19.4365   20.2452 C   0  0  0  0  0  0  0  0  0  0  0  0
  -21.3450  -20.6867   21.3111 C   0  0  0  0  0  0  0  0  0  0  0  0
  -25.9004  -15.4149   19.0728 C   0  0  0  0  0  0  0  0  0  0  0  0
  -25.5747  -14.3145   21.7982 C   0  0  0  0  0  0  0  0  0  0  0  0
  -21.7969  -19.4415   22.0696 C   0  0  0  0  0  0  0  0  0  0  0  0
  -29.1221  -20.9341   17.1001 C   0  0  0  0  0  0  0  0  0  0  0  0
  -23.3116  -19.4464   22.2497 C   0  0  0  0  0  0  0  0  0  0  0  0
  -28.7805  -22.3822   17.4556 C   0  0  0  0  0  0  0  0  0  0  0  0
  -28.6217  -19.9589   18.1635 C   0  0  0  0  0  0  0  0  0  0  0  0
  -28.7190  -21.7112   19.8938 C   0  0  0  0  0  0  0  0  0  0  0  0
  -24.0284  -19.4238   20.8943 C   0  0  1  0  0  0  0  0  0  0  0  0
  -24.7245  -15.8072   19.9621 C   0  0  1  0  0  0  0  0  0  0  0  0
  -29.2524  -22.7365   18.8786 C   0  0  2  0  0  0  0  0  0  0  0  0
  -21.3247   -9.3740   22.6188 C   0  0  0  0  0  0  0  0  0  0  0  0
  -22.6595  -15.6914   24.0952 C   0  0  0  0  0  0  0  0  0  0  0  0
  -21.8530  -13.4397   24.8353 C   0  0  0  0  0  0  0  0  0  0  0  0
  -20.6265  -14.6771   23.0500 C   0  0  0  0  0  0  0  0  0  0  0  0
  -23.8746   -9.5992   19.8039 C   0  0  0  0  0  0  0  0  0  0  0  0
  -33.4538  -18.3984   23.1150 C   0  0  0  0  0  0  0  0  0  0  0  0
  -32.5735  -19.2345   22.1512 C   0  0  0  0  0  0  0  0  0  0  0  0
  -31.7753  -13.7038   23.9127 C   0  0  0  0  0  0  0  0  0  0  0  0
  -31.0725  -19.0674   22.3781 C   0  0  0  0  0  0  0  0  0  0  0  0
  -30.3567  -13.6077   23.3619 C   0  0  0  0  0  0  0  0  0  1  0  0
  -22.8778  -13.6532   22.5255 C   0  0  1  0  0  0  0  0  0  0  0  0
  -22.1401  -10.0682   21.5390 C   0  0  2  0  0  0  0  0  0  0  0  0
  -22.0301  -14.3684   23.6151 C   0  0  0  0  0  0  0  0  0  0  0  0
  -33.9271  -16.1480   22.2132 N   0  0  0  0  0  0  0  0  0  0  0  0
  -27.5792  -24.4957   19.3123 N   0  0  0  0  0  0  0  0  0  0  0  0
  -32.5085  -14.9200   23.4012 N   0  0  0  0  0  0  0  0  0  0  0  0
  -28.8788  -24.1585   19.2545 N   0  0  0  0  0  0  0  0  0  0  0  0
  -24.4430  -14.8119   20.9986 N   0  0  0  0  0  0  0  0  0  0  0  0
  -29.1058  -20.3504   19.4895 N   0  0  0  0  0  0  0  0  0  0  0  0
  -31.0675  -25.0165   19.5444 N   0  0  0  0  0  0  0  0  0  0  0  0
  -28.4283  -28.5704   20.4390 N   0  0  0  0  0  0  0  0  0  0  0  0
  -24.0095  -18.0893   20.3348 N   0  0  0  0  0  0  0  0  0  0  0  0
  -22.2923  -12.4112   22.0326 N   0  0  0  0  0  0  0  0  0  0  0  0
  -30.2838  -19.8898   21.4880 N   0  0  0  0  0  0  0  0  0  0  0  0
  -23.0312   -9.0584   20.9008 N   0  3  0  0  0  0  0  0  0  0  0  0
  -30.6025  -27.8576   20.2850 O   0  0  0  0  0  0  0  0  0  0  0  0
  -25.8757  -17.2433   21.4411 O   0  0  0  0  0  0  0  0  0  0  0  0
  -22.1383  -14.9233   20.6637 O   0  0  0  0  0  0  0  0  0  0  0  0
  -24.0823  -11.0470   22.5912 O   0  0  0  0  0  0  0  0  0  0  0  0
  -30.1364  -18.3027   19.8399 O   0  0  0  0  0  0  0  0  0  0  0  0
  -22.8593  -28.6501   20.3186 O   0  0  0  0  0  0  0  0  0  0  0  0
  -30.3978  -13.5048   21.9392 O   0  0  0  0  0  0  0  0  0  1  0  0
  -18.7786  -26.2336   23.1316 F   0  0  0  0  0  0  0  0  0  0  0  0
  -21.8568  -29.7939   22.6271 F   0  0  0  0  0  0  0  0  0  0  0  0
  1  2  1  0  0  0  0
  1  5  2  0  0  0  0
  2  6  2  0  0  0  0
  3  8  2  0  0  0  0
  3 17  1  0  0  0  0
  4  9  1  0  0  0  0
  4 17  2  0  0  0  0
  5 19  1  0  0  0  0
  6 21  1  0  0  0  0
  7 10  2  0  0  0  0
  7 20  1  0  0  0  0
  8 23  1  0  0  0  0
  9 23  2  0  0  0  0
 10 24  1  0  0  0  0
 11 12  2  0  0  0  0
 11 25  1  0  0  0  0
 12 26  1  0  0  0  0
 13 22  1  0  0  0  0
 13 24  2  0  0  0  0
 14 26  2  0  0  0  0
 14 27  1  0  0  0  0
 15 29  2  0  0  0  0
 15 63  1  0  0  0  0
 16 61  2  0  0  0  0
 16 63  1  0  0  0  0
 17 28  1  0  0  0  0
 18 28  1  0  0  0  0
 18 30  2  0  0  0  0
 18 31  1  0  0  0  0
 19 21  2  0  0  0  0
 19 36  1  0  0  0  0
 20 22  2  0  0  0  0
 20 37  1  0  0  0  0
 21 45  1  0  0  0  0
 22 38  1  0  0  0  0
 23 78  1  0  0  0  0
 24 79  1  0  0  0  0
 25 27  2  0  0  0  0
 25 78  1  0  0  0  0
 26 80  1  0  0  0  0
 27 81  1  0  0  0  0
 28 62  2  0  0  0  0
 29 53  1  0  0  0  0
 29 61  1  0  0  0  0
 30 64  1  0  0  0  0
 30 67  1  0  0  0  0
 31 68  1  0  0  0  0
 31 73  2  0  0  0  0
 32 46  1  0  0  0  0
 32 69  1  0  0  0  0
 32 74  2  0  0  0  0
 33 58  1  0  0  0  0
 33 65  1  0  0  0  0
 33 75  2  0  0  0  0
 34 59  1  0  0  0  0
 34 70  1  0  0  0  0
 34 76  2  0  0  0  0
 35 66  1  0  0  0  0
 35 71  1  0  0  0  0
 35 77  2  0  0  0  0
 36 39  1  0  0  0  0
 37 46  1  0  0  0  0
 38 65  1  0  0  0  0
 39 41  1  0  0  0  0
 40 42  1  0  0  0  0
 40 43  1  0  0  0  0
 41 45  1  0  0  0  0
 42 47  1  0  0  0  0
 43 66  1  0  0  0  0
 44 47  1  0  0  0  0
 44 66  1  0  0  0  0
 45 69  1  0  0  0  0
 46 65  1  0  0  0  0
 47 64  1  0  0  0  0
 48 59  1  0  0  0  0
 49 60  1  0  0  0  0
 50 60  1  0  0  0  0
 51 60  1  0  0  0  0
 52 72  1  0  0  0  0
 53 54  1  0  0  0  0
 54 56  1  0  0  0  0
 55 57  1  0  0  0  0
 55 63  1  0  0  0  0
 56 71  1  0  0  0  0
 57 79  1  0  0  0  0
 58 60  1  0  0  0  0
 58 70  1  0  0  0  0
 59 72  1  0  0  0  0
 62 64  1  0  0  0  0
M  CHG  1  72   1
M  ISO  4  35 100  57 101  71 100  79 101
M  END
> <Batch ID>
0002

> <Smiles>
CNC(C)C(=O)NC(C(=O)N1Cc2cc([101O:1][101CH2:1]Cn3cnc(CCC[100NH:0][100C:0](=O)N4CCCC(n5nc(-c6ccc(Oc7ccc(F)cc7F)cc6)c(C(N)=O)c5N)C4)c3)ccc2CC1C(=O)NC1CCCc2ccccc21)C(C)(C)C

> <Shape>
0.239

> <Color>
0.065

> <Negative vol penalty>
0.000

$$$$

  -OEChem-04052315183D

 78 86  0     1  0  0  0  0  0999 V2000
  -26.7739  -32.6995   28.1675 C   0  0  0  0  0  0  0  0  0  0  0  0
  -27.2042  -31.6974   27.3039 C   0  0  0  0  0  0  0  0  0  0  0  0
  -27.9925  -22.3141   16.9447 C   0  0  0  0  0  0  0  0  0  0  0  0
  -26.5064  -12.7174   21.6170 C   0  0  0  0  0  0  0  0  0  0  0  0
  -26.0125  -13.7464   19.4877 C   0  0  0  0  0  0  0  0  0  0  0  0
  -25.4236  -33.0436   28.2165 C   0  0  0  0  0  0  0  0  0  0  0  0
  -26.2843  -31.0379   26.4894 C   0  0  0  0  0  0  0  0  0  0  0  0
  -27.2352  -28.9309   20.8182 C   0  0  0  0  0  0  0  0  0  0  0  0
  -27.8815  -23.5924   17.4918 C   0  0  0  0  0  0  0  0  0  0  0  0
  -28.5263  -21.2739   17.7054 C   0  0  0  0  0  0  0  0  0  0  0  0
  -25.2502  -12.1112   21.6155 C   0  0  0  0  0  0  0  0  0  0  0  0
  -24.7563  -13.1402   19.4860 C   0  0  0  0  0  0  0  0  0  0  0  0
  -27.5382  -27.6615   20.3277 C   0  0  0  0  0  0  0  0  0  0  0  0
  -23.7752   -9.4401   20.1584 C   0  0  0  0  0  0  0  0  0  0  0  0
  -23.7052   -8.0929   20.5128 C   0  0  0  0  0  0  0  0  0  0  0  0
  -25.1982  -27.2824   19.8806 C   0  0  0  0  0  0  0  0  0  0  0  0
  -28.8381  -22.7902   19.5602 C   0  0  0  0  0  0  0  0  0  0  0  0
  -22.2435   -8.6529   22.3531 C   0  0  0  0  0  0  0  0  0  0  0  0
  -26.8875  -13.5351   20.5531 C   0  0  0  0  0  0  0  0  0  0  0  0
  -29.3811  -13.6417   20.0253 C   0  0  0  0  0  0  0  0  0  0  0  0
  -24.4882  -32.3946   27.3953 C   0  0  0  0  0  0  0  0  0  0  0  0
  -25.9080  -29.3822   20.8538 C   0  0  0  0  0  0  0  0  0  0  0  0
  -24.9201  -31.3726   26.5285 C   0  0  0  0  0  0  0  0  0  0  0  0
  -24.8813  -28.5589   20.3697 C   0  0  0  0  0  0  0  0  0  0  0  0
  -28.3043  -23.8305   18.7995 C   0  0  0  0  0  0  0  0  0  0  0  0
  -28.9491  -21.5119   19.0131 C   0  0  0  0  0  0  0  0  0  0  0  0
  -24.3751  -12.3225   20.5500 C   0  0  0  0  0  0  0  0  0  0  0  0
  -26.5193  -26.8359   19.8615 C   0  0  0  0  0  0  0  0  0  0  0  0
  -23.0795  -10.3938   20.9015 C   0  0  0  0  0  0  0  0  0  0  0  0
  -22.9393   -7.6992   21.6101 C   0  0  0  0  0  0  0  0  0  0  0  0
  -22.3136  -10.0001   21.9988 C   0  0  0  0  0  0  0  0  0  0  0  0
  -28.1848  -14.1621   20.5545 C   0  0  0  0  0  0  0  0  0  0  0  0
  -30.3189  -14.6133   20.2763 C   0  0  0  0  0  0  0  0  0  0  0  0
  -29.6229  -12.3918   19.3657 C   0  0  0  0  0  0  0  0  0  0  0  0
  -23.8999  -30.2656   23.1541 C   0  0  0  0  0  0  0  0  0  0  0  0
  -21.9913  -31.0484   20.6508 C   0  0  0  0  0  0  0  0  0  0  0  0
  -21.1684  -30.5681   17.3737 C   0  0  0  0  0  0  0  0  0  0  0  0
  -29.9572  -20.5208   21.0983 C   0  0  0  0  0  0  0  0  0  0  0  0
  -23.0321  -32.7683   27.5176 C   0  0  0  0  0  0  0  0  0  0  0  0
  -25.6007  -30.7644   21.3612 C   0  0  0  0  0  0  0  0  0  0  0  0
  -23.4424  -29.0040   20.3674 C   0  0  0  0  0  0  0  0  0  0  0  0
  -22.1777  -32.2795   26.3509 C   0  0  0  0  0  0  0  0  0  0  0  0
  -31.3281  -18.1363   23.3592 C   0  0  0  0  0  0  0  0  0  0  0  0
  -22.4919  -30.8209   26.0335 C   0  0  0  0  0  0  0  0  0  0  0  0
  -30.7915  -16.7986   22.8447 C   0  0  0  0  0  0  0  0  0  0  0  0
  -30.2992  -19.2555   23.2095 C   0  0  0  0  0  0  0  0  0  0  0  0
  -29.2062  -18.0732   21.3449 C   0  0  0  0  0  0  0  0  0  0  0  0
  -23.9563  -30.6512   25.6115 C   0  0  1  0  0  0  0  0  0  0  0  0
  -24.1568  -30.9225   21.8274 C   0  0  1  0  0  0  0  0  0  0  0  0
  -30.2305  -16.9288   21.4151 C   0  0  2  0  0  0  0  0  0  0  0  0
  -19.5398  -31.3237   15.6205 C   0  0  0  0  0  0  0  0  0  0  0  0
  -19.8198  -29.3285   21.9301 C   0  0  0  0  0  0  0  0  0  0  0  0
  -18.6126  -29.3443   19.7367 C   0  0  0  0  0  0  0  0  0  0  0  0
  -19.0056  -31.4839   20.9576 C   0  0  0  0  0  0  0  0  0  0  0  0
  -23.3324  -31.6255   15.6538 C   0  0  0  0  0  0  0  0  0  0  0  0
  -28.1847  -25.2057   19.3875 C   0  0  0  0  0  0  0  0  0  1  0  0
  -20.9499  -30.3236   19.8328 C   0  0  1  0  0  0  0  0  0  0  0  0
  -20.9071  -31.5505   16.2463 C   0  0  2  0  0  0  0  0  0  0  0  0
  -19.6238  -30.1106   20.6160 C   0  0  0  0  0  0  0  0  0  0  0  0
  -28.3453  -15.3704   21.1006 N   0  0  0  0  0  0  0  0  0  0  0  0
  -29.6533  -15.6173   20.9160 N   0  0  0  0  0  0  0  0  0  0  0  0
  -23.1921  -30.3615   20.8793 N   0  0  0  0  0  0  0  0  0  0  0  0
  -29.8156  -19.3219   21.8287 N   0  0  0  0  0  0  0  0  0  0  0  0
  -31.6396  -14.6981   20.0102 N   0  0  0  0  0  0  0  0  0  0  0  0
  -28.5477  -11.5102   19.1899 N   0  0  0  0  0  0  0  0  0  0  0  0
  -29.4906  -20.4548   19.7858 N   0  0  0  0  0  0  0  0  0  0  0  0
  -24.1410  -31.0823   24.2423 N   0  0  0  0  0  0  0  0  0  0  0  0
  -20.7987  -31.0848   18.5974 N   0  0  0  0  0  0  0  0  0  0  0  0
  -21.9408  -31.4053   15.1827 N   0  3  0  0  0  0  0  0  0  0  0  0
  -30.7622  -12.0595   18.9593 O   0  0  0  0  0  0  0  0  0  0  0  0
  -23.5105  -29.1042   23.1878 O   0  0  0  0  0  0  0  0  0  0  0  0
  -21.7511  -32.1850   21.0655 O   0  0  0  0  0  0  0  0  0  0  0  0
  -21.6488  -29.4523   17.1870 O   0  0  0  0  0  0  0  0  0  0  0  0
  -30.4803  -21.5233   21.5915 O   0  0  0  0  0  0  0  0  0  0  0  0
  -23.1494  -11.7309   20.5480 O   0  0  0  0  0  0  0  0  0  0  0  0
  -26.8122  -25.5962   19.3828 O   0  0  0  0  0  0  0  0  0  1  0  0
  -22.8709   -6.4052   21.9493 F   0  0  0  0  0  0  0  0  0  0  0  0
  -21.6420  -10.9116   22.7158 F   0  0  0  0  0  0  0  0  0  0  0  0
  1  2  1  0  0  0  0
  1  6  2  0  0  0  0
  2  7  2  0  0  0  0
  3  9  2  0  0  0  0
  3 10  1  0  0  0  0
  4 11  2  0  0  0  0
  4 19  1  0  0  0  0
  5 12  1  0  0  0  0
  5 19  2  0  0  0  0
  6 21  1  0  0  0  0
  7 23  1  0  0  0  0
  8 13  2  0  0  0  0
  8 22  1  0  0  0  0
  9 25  1  0  0  0  0
 10 26  2  0  0  0  0
 11 27  1  0  0  0  0
 12 27  2  0  0  0  0
 13 28  1  0  0  0  0
 14 15  2  0  0  0  0
 14 29  1  0  0  0  0
 15 30  1  0  0  0  0
 16 24  1  0  0  0  0
 16 28  2  0  0  0  0
 17 25  2  0  0  0  0
 17 26  1  0  0  0  0
 18 30  2  0  0  0  0
 18 31  1  0  0  0  0
 19 32  1  0  0  0  0
 20 32  1  0  0  0  0
 20 33  2  0  0  0  0
 20 34  1  0  0  0  0
 21 23  2  0  0  0  0
 21 39  1  0  0  0  0
 22 24  2  0  0  0  0
 22 40  1  0  0  0  0
 23 48  1  0  0  0  0
 24 41  1  0  0  0  0
 25 56  1  0  0  0  0
 26 66  1  0  0  0  0
 27 75  1  0  0  0  0
 28 76  1  0  0  0  0
 29 31  2  0  0  0  0
 29 75  1  0  0  0  0
 30 77  1  0  0  0  0
 31 78  1  0  0  0  0
 32 60  2  0  0  0  0
 33 61  1  0  0  0  0
 33 64  1  0  0  0  0
 34 65  1  0  0  0  0
 34 70  2  0  0  0  0
 35 49  1  0  0  0  0
 35 67  1  0  0  0  0
 35 71  2  0  0  0  0
 36 57  1  0  0  0  0
 36 62  1  0  0  0  0
 36 72  2  0  0  0  0
 37 58  1  0  0  0  0
 37 68  1  0  0  0  0
 37 73  2  0  0  0  0
 38 63  1  0  0  0  0
 38 66  1  0  0  0  0
 38 74  2  0  0  0  0
 39 42  1  0  0  0  0
 40 49  1  0  0  0  0
 41 62  1  0  0  0  0
 42 44  1  0  0  0  0
 43 45  1  0  0  0  0
 43 46  1  0  0  0  0
 44 48  1  0  0  0  0
 45 50  1  0  0  0  0
 46 63  1  0  0  0  0
 47 50  1  0  0  0  0
 47 63  1  0  0  0  0
 48 67  1  0  0  0  0
 49 62  1  0  0  0  0
 50 61  1  0  0  0  0
 51 58  1  0  0  0  0
 52 59  1  0  0  0  0
 53 59  1  0  0  0  0
 54 59  1  0  0  0  0
 55 69  1  0  0  0  0
 56 76  1  0  0  0  0
 57 59  1  0  0  0  0
 57 68  1  0  0  0  0
 58 69  1  0  0  0  0
 60 61  1  0  0  0  0
M  CHG  1  69   1
M  ISO  4  38 100  56 101  66 100  76 101
M  END
> <Batch ID>
0002

> <Smiles>
CNC(C)C(=O)NC(C(=O)N1Cc2cc([101O:1][101CH2:1]c3cccc([100NH:0][100C:0](=O)N4CCCC(n5nc(-c6ccc(Oc7ccc(F)cc7F)cc6)c(C(N)=O)c5N)C4)c3)ccc2CC1C(=O)NC1CCCc2ccccc21)C(C)(C)C

> <Shape>
0.294

> <Color>
0.112

> <Negative vol penalty>
0.000

$$$$

  -OEChem-04052315183D

 81 89  0     1  0  0  0  0  0999 V2000
  -36.1106  -25.7475   28.7235 C   0  0  0  0  0  0  0  0  0  0  0  0
  -35.7987  -24.6666   27.9051 C   0  0  0  0  0  0  0  0  0  0  0  0
  -30.5263  -18.4074   23.7661 C   0  0  0  0  0  0  0  0  0  0  0  0
  -23.0567   -9.8338   20.0322 C   0  0  0  0  0  0  0  0  0  0  0  0
  -23.7770   -9.9626   22.3348 C   0  0  0  0  0  0  0  0  0  0  0  0
  -35.1319  -26.6909   29.0336 C   0  0  0  0  0  0  0  0  0  0  0  0
  -34.5075  -24.5279   27.3970 C   0  0  0  0  0  0  0  0  0  0  0  0
  -34.4744  -23.3034   22.4833 C   0  0  0  0  0  0  0  0  0  0  0  0
  -29.9392  -17.4812   22.9040 C   0  0  0  0  0  0  0  0  0  0  0  0
  -31.9093  -18.4117   23.9481 C   0  0  0  0  0  0  0  0  0  0  0  0
  -22.2879   -8.7102   20.3356 C   0  0  0  0  0  0  0  0  0  0  0  0
  -23.0082   -8.8390   22.6381 C   0  0  0  0  0  0  0  0  0  0  0  0
  -34.7379  -21.9739   22.1567 C   0  0  0  0  0  0  0  0  0  0  0  0
  -19.7562   -8.1331   23.2272 C   0  0  0  0  0  0  0  0  0  0  0  0
  -18.9786   -8.1750   24.3844 C   0  0  0  0  0  0  0  0  0  0  0  0
  -32.3734  -21.5765   21.8919 C   0  0  0  0  0  0  0  0  0  0  0  0
  -32.1180  -16.5636   22.4060 C   0  0  0  0  0  0  0  0  0  0  0  0
  -20.1719   -6.2633   25.2555 C   0  0  0  0  0  0  0  0  0  0  0  0
  -23.8013  -10.4600   21.0318 C   0  0  0  0  0  0  0  0  0  0  0  0
  -24.1908  -12.9675   20.7706 C   0  0  0  0  0  0  0  0  0  0  0  0
  -33.8306  -26.5689   28.5212 C   0  0  0  0  0  0  0  0  0  0  0  0
  -33.1554  -23.7775   22.5274 C   0  0  0  0  0  0  0  0  0  0  0  0
  -33.5102  -25.4699   27.7016 C   0  0  0  0  0  0  0  0  0  0  0  0
  -32.0959  -22.9131   22.2169 C   0  0  0  0  0  0  0  0  0  0  0  0
  -30.7350  -16.5593   22.2240 C   0  0  0  0  0  0  0  0  0  0  0  0
  -22.2636   -8.2128   21.6385 C   0  0  0  0  0  0  0  0  0  0  0  0
  -33.6872  -21.1095   21.8637 C   0  0  0  0  0  0  0  0  0  0  0  0
  -32.7051  -17.4898   23.2681 C   0  0  0  0  0  0  0  0  0  0  0  0
  -20.7416   -7.1563   23.0841 C   0  0  0  0  0  0  0  0  0  0  0  0
  -19.1865   -7.2401   25.3986 C   0  0  0  0  0  0  0  0  0  0  0  0
  -20.9495   -6.2214   24.0982 C   0  0  0  0  0  0  0  0  0  0  0  0
  -24.5961  -11.6204   20.7190 C   0  0  0  0  0  0  0  0  0  0  0  0
  -25.3024  -13.6756   20.3842 C   0  0  0  0  0  0  0  0  0  0  0  0
  -22.9228  -13.5287   21.1354 C   0  0  0  0  0  0  0  0  0  0  0  0
  -31.2861  -25.0011   24.7884 C   0  0  0  0  0  0  0  0  0  0  0  0
  -29.2492  -25.4658   22.3070 C   0  0  0  0  0  0  0  0  0  0  0  0
  -28.2418  -24.5553   19.1760 C   0  0  0  0  0  0  0  0  0  0  0  0
  -30.7827  -14.6364   20.5972 C   0  0  0  0  0  0  0  0  0  0  0  0
  -32.7940  -27.5882   28.9225 C   0  0  0  0  0  0  0  0  0  0  0  0
  -32.8896  -25.2212   22.8555 C   0  0  0  0  0  0  0  0  0  0  0  0
  -30.6633  -23.3778   22.2304 C   0  0  0  0  0  0  0  0  0  0  0  0
  -31.5490  -27.5709   28.0394 C   0  0  0  0  0  0  0  0  0  0  0  0
  -29.6659  -12.1069   18.3542 C   0  0  0  0  0  0  0  0  0  0  0  0
  -31.0646  -26.1401   27.8275 C   0  0  0  0  0  0  0  0  0  0  0  0
  -28.2140  -11.8656   18.7737 C   0  0  0  0  0  0  0  0  0  0  0  0
  -30.5641  -12.3903   19.5569 C   0  0  0  0  0  0  0  0  0  0  0  0
  -28.6471  -13.2271   20.8584 C   0  0  0  0  0  0  0  0  0  0  0  0
  -32.1274  -25.2983   27.1110 C   0  0  1  0  0  0  0  0  0  0  0  0
  -31.4752  -25.4659   23.3721 C   0  0  1  0  0  0  0  0  0  0  0  0
  -27.6917  -13.0015   19.6751 C   0  0  2  0  0  0  0  0  0  0  0  0
  -26.5258  -25.0910   17.4251 C   0  0  0  0  0  0  0  0  0  0  0  0
  -36.1619  -16.9573   22.4571 C   0  0  0  0  0  0  0  0  0  0  0  0
  -27.1359  -23.9741   23.9252 C   0  0  0  0  0  0  0  0  0  0  0  0
  -25.8094  -23.7097   21.8184 C   0  0  0  0  0  0  0  0  0  0  0  0
  -26.2892  -25.9894   22.7103 C   0  0  0  0  0  0  0  0  0  0  0  0
  -30.3171  -25.3307   17.2136 C   0  0  0  0  0  0  0  0  0  0  0  0
  -35.1010  -19.2152   22.1257 C   0  0  0  0  0  0  0  0  0  1  0  0
  -28.1574  -24.6534   21.6534 C   0  0  1  0  0  0  0  0  0  0  0  0
  -27.9277  -25.3784   17.9398 C   0  0  2  0  0  0  0  0  0  0  0  0
  -34.8583  -17.7194   22.2848 C   0  0  2  0  0  0  0  0  0  0  0  0
  -26.8748  -24.5721   22.5284 C   0  0  0  0  0  0  0  0  0  0  0  0
  -25.8661  -11.4786   20.3302 N   0  0  0  0  0  0  0  0  0  0  0  0
  -26.2683  -12.7458   20.1339 N   0  0  0  0  0  0  0  0  0  0  0  0
  -30.4543  -24.7967   22.5632 N   0  0  0  0  0  0  0  0  0  0  0  0
  -30.0088  -13.4803   20.3621 N   0  0  0  0  0  0  0  0  0  0  0  0
  -25.5380  -14.9967   20.2373 N   0  0  0  0  0  0  0  0  0  0  0  0
  -21.8889  -12.6583   21.5067 N   0  0  0  0  0  0  0  0  0  0  0  0
  -30.1382  -15.6189   21.3482 N   0  0  0  0  0  0  0  0  0  0  0  0
  -32.1403  -25.5987   25.6954 N   0  0  0  0  0  0  0  0  0  0  0  0
  -27.9451  -25.2408   20.3350 N   0  0  0  0  0  0  0  0  0  0  0  0
  -28.8995  -25.0715   16.8524 N   0  3  0  0  0  0  0  0  0  0  0  0
  -22.7078  -14.7644   21.1164 O   0  0  0  0  0  0  0  0  0  0  0  0
  -30.4276  -24.1636   25.0399 O   0  0  0  0  0  0  0  0  0  0  0  0
  -29.0428  -26.6524   22.5736 O   0  0  0  0  0  0  0  0  0  0  0  0
  -28.7007  -23.4166   19.1192 O   0  0  0  0  0  0  0  0  0  0  0  0
  -31.9226  -14.7581   20.1412 O   0  0  0  0  0  0  0  0  0  0  0  0
  -21.5133   -7.1165   21.9349 O   0  0  0  0  0  0  0  0  0  0  0  0
  -33.9416  -19.8111   21.5452 O   0  0  0  0  0  0  0  0  0  1  0  0
  -34.0615  -17.4938   23.4467 O   0  0  0  0  0  0  0  0  0  0  0  0
  -18.4407   -7.2814   26.5105 F   0  0  0  0  0  0  0  0  0  0  0  0
  -21.8955   -5.2814   23.9669 F   0  0  0  0  0  0  0  0  0  0  0  0
  1  2  1  0  0  0  0
  1  6  2  0  0  0  0
  2  7  2  0  0  0  0
  3  9  1  0  0  0  0
  3 10  2  0  0  0  0
  4 11  2  0  0  0  0
  4 19  1  0  0  0  0
  5 12  1  0  0  0  0
  5 19  2  0  0  0  0
  6 21  1  0  0  0  0
  7 23  1  0  0  0  0
  8 13  2  0  0  0  0
  8 22  1  0  0  0  0
  9 25  2  0  0  0  0
 10 28  1  0  0  0  0
 11 26  1  0  0  0  0
 12 26  2  0  0  0  0
 13 27  1  0  0  0  0
 14 15  2  0  0  0  0
 14 29  1  0  0  0  0
 15 30  1  0  0  0  0
 16 24  1  0  0  0  0
 16 27  2  0  0  0  0
 17 25  1  0  0  0  0
 17 28  2  0  0  0  0
 18 30  2  0  0  0  0
 18 31  1  0  0  0  0
 19 32  1  0  0  0  0
 20 32  1  0  0  0  0
 20 33  2  0  0  0  0
 20 34  1  0  0  0  0
 21 23  2  0  0  0  0
 21 39  1  0  0  0  0
 22 24  2  0  0  0  0
 22 40  1  0  0  0  0
 23 48  1  0  0  0  0
 24 41  1  0  0  0  0
 25 68  1  0  0  0  0
 26 77  1  0  0  0  0
 27 78  1  0  0  0  0
 28 79  1  0  0  0  0
 29 31  2  0  0  0  0
 29 77  1  0  0  0  0
 30 80  1  0  0  0  0
 31 81  1  0  0  0  0
 32 62  2  0  0  0  0
 33 63  1  0  0  0  0
 33 66  1  0  0  0  0
 34 67  1  0  0  0  0
 34 72  2  0  0  0  0
 35 49  1  0  0  0  0
 35 69  1  0  0  0  0
 35 73  2  0  0  0  0
 36 58  1  0  0  0  0
 36 64  1  0  0  0  0
 36 74  2  0  0  0  0
 37 59  1  0  0  0  0
 37 70  1  0  0  0  0
 37 75  2  0  0  0  0
 38 65  1  0  0  0  0
 38 68  1  0  0  0  0
 38 76  2  0  0  0  0
 39 42  1  0  0  0  0
 40 49  1  0  0  0  0
 41 64  1  0  0  0  0
 42 44  1  0  0  0  0
 43 45  1  0  0  0  0
 43 46  1  0  0  0  0
 44 48  1  0  0  0  0
 45 50  1  0  0  0  0
 46 65  1  0  0  0  0
 47 50  1  0  0  0  0
 47 65  1  0  0  0  0
 48 69  1  0  0  0  0
 49 64  1  0  0  0  0
 50 63  1  0  0  0  0
 51 59  1  0  0  0  0
 52 60  1  0  0  0  0
 53 61  1  0  0  0  0
 54 61  1  0  0  0  0
 55 61  1  0  0  0  0
 56 71  1  0  0  0  0
 57 60  1  0  0  0  0
 57 78  1  0  0  0  0
 58 61  1  0  0  0  0
 58 70  1  0  0  0  0
 59 71  1  0  0  0  0
 60 79  1  0  0  0  0
 62 63  1  0  0  0  0
M  CHG  1  71   1
M  ISO  4  38 100  57 101  68 100  78 101
M  END
> <Batch ID>
0002

> <Smiles>
CNC(C)C(=O)NC(C(=O)N1Cc2cc([101O:1][101CH2:1]C(C)Oc3cccc([100NH:0][100C:0](=O)N4CCCC(n5nc(-c6ccc(Oc7ccc(F)cc7F)cc6)c(C(N)=O)c5N)C4)c3)ccc2CC1C(=O)NC1CCCc2ccccc21)C(C)(C)C

> <Shape>
0.196

> <Color>
0.209

> <Negative vol penalty>
0.000

$$$$

  -OEChem-04052315183D

 79 86  0     1  0  0  0  0  0999 V2000
  -24.1488  -21.5364   17.0982 C   0  0  0  0  0  0  0  0  0  0  0  0
  -25.2246  -20.6811   16.8822 C   0  0  0  0  0  0  0  0  0  0  0  0
  -27.9659  -23.3978   17.2597 C   0  0  0  0  0  0  0  0  0  0  0  0
  -29.4539  -24.6259   18.7138 C   0  0  0  0  0  0  0  0  0  0  0  0
  -23.4472  -21.4819   18.3019 C   0  0  0  0  0  0  0  0  0  0  0  0
  -25.6000  -19.7715   17.8701 C   0  0  0  0  0  0  0  0  0  0  0  0
  -28.3657  -13.2105   18.6580 C   0  0  0  0  0  0  0  0  0  0  0  0
  -27.1215  -24.5056   17.1879 C   0  0  0  0  0  0  0  0  0  0  0  0
  -28.6095  -25.7339   18.6420 C   0  0  0  0  0  0  0  0  0  0  0  0
  -29.3989  -12.5497   19.3211 C   0  0  0  0  0  0  0  0  0  0  0  0
  -25.6958  -26.7397   20.0310 C   0  0  0  0  0  0  0  0  0  0  0  0
  -25.3996  -27.4069   21.2196 C   0  0  0  0  0  0  0  0  0  0  0  0
  -28.0640  -12.4905   21.3295 C   0  0  0  0  0  0  0  0  0  0  0  0
  -26.3659  -29.4320   20.3237 C   0  0  0  0  0  0  0  0  0  0  0  0
  -29.1321  -23.4578   18.0227 C   0  0  0  0  0  0  0  0  0  0  0  0
  -31.0851  -22.0112   17.2476 C   0  0  0  0  0  0  0  0  0  0  0  0
  -23.8082  -20.5645   19.3012 C   0  0  0  0  0  0  0  0  0  0  0  0
  -27.1762  -13.5265   19.3300 C   0  0  0  0  0  0  0  0  0  0  0  0
  -24.9034  -19.7056   19.0888 C   0  0  0  0  0  0  0  0  0  0  0  0
  -27.0163  -13.1531   20.6720 C   0  0  0  0  0  0  0  0  0  0  0  0
  -27.4433  -25.6737   17.8791 C   0  0  0  0  0  0  0  0  0  0  0  0
  -29.2493  -12.1921   20.6578 C   0  0  0  0  0  0  0  0  0  0  0  0
  -26.3271  -27.4186   18.9888 C   0  0  0  0  0  0  0  0  0  0  0  0
  -25.7346  -28.7530   21.3659 C   0  0  0  0  0  0  0  0  0  0  0  0
  -26.6621  -28.7648   19.1351 C   0  0  0  0  0  0  0  0  0  0  0  0
  -30.0044  -22.3135   18.0977 C   0  0  0  0  0  0  0  0  0  0  0  0
  -31.5855  -20.8289   17.7355 C   0  0  0  0  0  0  0  0  0  0  0  0
  -31.5913  -22.7346   16.1179 C   0  0  0  0  0  0  0  0  0  0  0  0
  -25.6635  -16.2239   20.0648 C   0  0  0  0  0  0  0  0  0  0  0  0
  -23.3609  -14.1909   21.1077 C   0  0  0  0  0  0  0  0  0  0  0  0
  -22.5428  -11.0812   22.2511 C   0  0  0  0  0  0  0  0  0  0  0  0
  -31.4488  -18.4269   23.1270 C   0  0  0  0  0  0  0  0  0  0  0  0
  -23.0495  -20.5751   20.6047 C   0  0  0  0  0  0  0  0  0  0  0  0
  -26.0608  -14.2159   18.5930 C   0  0  0  0  0  0  0  0  0  0  0  0
  -25.7510  -13.4512   21.4328 C   0  0  0  0  0  0  0  0  0  0  0  0
  -23.2764  -19.3255   21.4516 C   0  0  0  0  0  0  0  0  0  0  0  0
  -30.2441  -16.8806   20.0848 C   0  0  0  0  0  0  0  0  0  0  0  0
  -24.7628  -18.9900   21.5206 C   0  0  0  0  0  0  0  0  0  0  0  0
  -30.1510  -18.0857   19.1472 C   0  0  0  0  0  0  0  0  0  0  0  0
  -29.8381  -17.2542   21.5074 C   0  0  0  0  0  0  0  0  0  0  0  0
  -30.5135  -19.5977   21.1529 C   0  0  0  0  0  0  0  0  0  0  0  0
  -25.3256  -18.6882   20.1264 C   0  0  1  0  0  0  0  0  0  0  0  0
  -25.0931  -14.9450   19.5201 C   0  0  1  0  0  0  0  0  0  0  0  0
  -30.9328  -19.2904   19.7038 C   0  0  2  0  0  0  0  0  0  0  0  0
  -20.5878   -9.7300   23.0570 C   0  0  0  0  0  0  0  0  0  0  0  0
  -23.4523  -15.6580   23.7815 C   0  0  0  0  0  0  0  0  0  0  0  0
  -22.2294  -13.7271   24.8035 C   0  0  0  0  0  0  0  0  0  0  0  0
  -21.1535  -15.0660   22.9944 C   0  0  0  0  0  0  0  0  0  0  0  0
  -22.8469   -9.1181   20.0574 C   0  0  0  0  0  0  0  0  0  0  0  0
  -32.3027  -17.1272   25.0605 C   0  0  0  0  0  0  0  0  0  0  0  0
  -32.1882  -15.7446   25.6773 C   0  0  0  0  0  0  0  0  0  0  0  0
  -31.5886  -11.8245   20.8775 C   0  0  0  0  0  0  0  0  0  1  0  0
  -32.5314  -11.6696   22.0552 C   0  0  0  0  0  0  0  0  0  0  0  0
  -32.5348  -13.4559   25.2720 C   0  0  0  0  0  0  0  0  0  0  0  0
  -32.9891  -12.4631   24.2193 C   0  0  0  0  0  0  0  0  0  0  0  0
  -23.0548  -13.5030   22.4161 C   0  0  1  0  0  0  0  0  0  0  0  0
  -21.4344  -10.1222   21.8561 C   0  0  2  0  0  0  0  0  0  0  0  0
  -22.4972  -14.4845   23.4854 C   0  0  0  0  0  0  0  0  0  0  0  0
  -29.8279  -21.3970   19.0531 N   0  0  0  0  0  0  0  0  0  0  0  0
  -30.8043  -20.5072   18.8063 N   0  0  0  0  0  0  0  0  0  0  0  0
  -24.6917  -14.1324   20.6703 N   0  0  0  0  0  0  0  0  0  0  0  0
  -30.6323  -18.3952   21.9843 N   0  0  0  0  0  0  0  0  0  0  0  0
  -32.6130  -20.0433   17.3488 N   0  0  0  0  0  0  0  0  0  0  0  0
  -30.9593  -23.9311   15.7528 N   0  0  0  0  0  0  0  0  0  0  0  0
  -24.9522  -17.3538   19.7087 N   0  0  0  0  0  0  0  0  0  0  0  0
  -22.1594  -12.3966   22.0959 N   0  0  0  0  0  0  0  0  0  0  0  0
  -31.5012  -17.2497   23.8632 N   0  0  0  0  0  0  0  0  0  0  0  0
  -22.0095   -8.8825   21.2616 N   0  3  0  0  0  0  0  0  0  0  0  0
  -32.5648  -22.3234   15.4420 O   0  0  0  0  0  0  0  0  0  0  0  0
  -26.6733  -16.1880   20.7581 O   0  0  0  0  0  0  0  0  0  0  0  0
  -22.4513  -14.7531   20.4927 O   0  0  0  0  0  0  0  0  0  0  0  0
  -23.6378  -10.7016   22.6602 O   0  0  0  0  0  0  0  0  0  0  0  0
  -32.0886  -19.4291   23.4636 O   0  0  0  0  0  0  0  0  0  0  0  0
  -26.6198  -26.7551   17.8091 O   0  0  0  0  0  0  0  0  0  0  0  0
  -30.2564  -11.5476   21.3076 O   0  0  0  0  0  0  0  0  0  1  0  0
  -32.6238  -14.7714   24.7383 O   0  0  0  0  0  0  0  0  0  0  0  0
  -32.1372  -12.5659   23.0870 O   0  0  0  0  0  0  0  0  0  0  0  0
  -25.4487  -29.3940   22.5068 F   0  0  0  0  0  0  0  0  0  0  0  0
  -27.2676  -29.4226   18.1369 F   0  0  0  0  0  0  0  0  0  0  0  0
  1  2  1  0  0  0  0
  1  5  2  0  0  0  0
  2  6  2  0  0  0  0
  3  8  2  0  0  0  0
  3 15  1  0  0  0  0
  4  9  1  0  0  0  0
  4 15  2  0  0  0  0
  5 17  1  0  0  0  0
  6 19  1  0  0  0  0
  7 10  2  0  0  0  0
  7 18  1  0  0  0  0
  8 21  1  0  0  0  0
  9 21  2  0  0  0  0
 10 22  1  0  0  0  0
 11 12  2  0  0  0  0
 11 23  1  0  0  0  0
 12 24  1  0  0  0  0
 13 20  1  0  0  0  0
 13 22  2  0  0  0  0
 14 24  2  0  0  0  0
 14 25  1  0  0  0  0
 15 26  1  0  0  0  0
 16 26  1  0  0  0  0
 16 27  2  0  0  0  0
 16 28  1  0  0  0  0
 17 19  2  0  0  0  0
 17 33  1  0  0  0  0
 18 20  2  0  0  0  0
 18 34  1  0  0  0  0
 19 42  1  0  0  0  0
 20 35  1  0  0  0  0
 21 74  1  0  0  0  0
 22 75  1  0  0  0  0
 23 25  2  0  0  0  0
 23 74  1  0  0  0  0
 24 78  1  0  0  0  0
 25 79  1  0  0  0  0
 26 59  2  0  0  0  0
 27 60  1  0  0  0  0
 27 63  1  0  0  0  0
 28 64  1  0  0  0  0
 28 69  2  0  0  0  0
 29 43  1  0  0  0  0
 29 65  1  0  0  0  0
 29 70  2  0  0  0  0
 30 56  1  0  0  0  0
 30 61  1  0  0  0  0
 30 71  2  0  0  0  0
 31 57  1  0  0  0  0
 31 66  1  0  0  0  0
 31 72  2  0  0  0  0
 32 62  1  0  0  0  0
 32 67  1  0  0  0  0
 32 73  2  0  0  0  0
 33 36  1  0  0  0  0
 34 43  1  0  0  0  0
 35 61  1  0  0  0  0
 36 38  1  0  0  0  0
 37 39  1  0  0  0  0
 37 40  1  0  0  0  0
 38 42  1  0  0  0  0
 39 44  1  0  0  0  0
 40 62  1  0  0  0  0
 41 44  1  0  0  0  0
 41 62  1  0  0  0  0
 42 65  1  0  0  0  0
 43 61  1  0  0  0  0
 44 60  1  0  0  0  0
 45 57  1  0  0  0  0
 46 58  1  0  0  0  0
 47 58  1  0  0  0  0
 48 58  1  0  0  0  0
 49 68  1  0  0  0  0
 50 51  1  0  0  0  0
 50 67  1  0  0  0  0
 51 76  1  0  0  0  0
 52 53  1  0  0  0  0
 52 75  1  0  0  0  0
 53 77  1  0  0  0  0
 54 55  1  0  0  0  0
 54 76  1  0  0  0  0
 55 77  1  0  0  0  0
 56 58  1  0  0  0  0
 56 66  1  0  0  0  0
 57 68  1  0  0  0  0
 59 60  1  0  0  0  0
M  CHG  1  68   1
M  ISO  4  32 100  52 101  67 100  75 101
M  END
> <Batch ID>
0002

> <Smiles>
CNC(C)C(=O)NC(C(=O)N1Cc2cc([101O:1][101CH2:1]COCCOCC[100NH:0][100C:0](=O)N3CCCC(n4nc(-c5ccc(Oc6ccc(F)cc6F)cc5)c(C(N)=O)c4N)C3)ccc2CC1C(=O)NC1CCCc2ccccc21)C(C)(C)C

> <Shape>
0.193

> <Color>
0.068

> <Negative vol penalty>
0.000

$$$$

  -OEChem-04052315183D

 88 96  0     1  0  0  0  0  0999 V2000
  -33.5922  -12.9797   13.9541 C   0  0  0  0  0  0  0  0  0  0  0  0
  -32.7711  -12.2452   14.8035 C   0  0  0  0  0  0  0  0  0  0  0  0
  -25.1513  -30.9503   21.2271 C   0  0  0  0  0  0  0  0  0  0  0  0
  -24.5838  -29.1598   22.7466 C   0  0  0  0  0  0  0  0  0  0  0  0
  -34.1504  -14.1800   14.3918 C   0  0  0  0  0  0  0  0  0  0  0  0
  -32.5085  -12.7101   16.0917 C   0  0  0  0  0  0  0  0  0  0  0  0
  -25.7621  -13.9885   18.2695 C   0  0  0  0  0  0  0  0  0  0  0  0
  -23.0103  -21.6394   20.0760 C   0  0  0  0  0  0  0  0  0  0  0  0
  -22.1318  -21.4369   17.8345 C   0  0  0  0  0  0  0  0  0  0  0  0
  -24.4306  -31.8476   22.0151 C   0  0  0  0  0  0  0  0  0  0  0  0
  -23.8631  -30.0571   23.5347 C   0  0  0  0  0  0  0  0  0  0  0  0
  -24.4862  -14.0558   18.8297 C   0  0  0  0  0  0  0  0  0  0  0  0
  -22.1559  -20.6229   20.5028 C   0  0  0  0  0  0  0  0  0  0  0  0
  -21.2773  -20.4203   18.2613 C   0  0  0  0  0  0  0  0  0  0  0  0
  -23.0405  -34.6796   23.8214 C   0  0  0  0  0  0  0  0  0  0  0  0
  -23.6289  -35.9124   24.1036 C   0  0  0  0  0  0  0  0  0  0  0  0
  -25.4309  -14.8378   20.9139 C   0  0  0  0  0  0  0  0  0  0  0  0
  -25.4732  -34.7851   25.1829 C   0  0  0  0  0  0  0  0  0  0  0  0
  -25.2279  -29.6064   21.5927 C   0  0  0  0  0  0  0  0  0  0  0  0
  -27.3347  -28.3473   20.8973 C   0  0  0  0  0  0  0  0  0  0  0  0
  -33.8868  -14.6647   15.6826 C   0  0  0  0  0  0  0  0  0  0  0  0
  -26.8772  -14.3608   19.0254 C   0  0  0  0  0  0  0  0  0  0  0  0
  -33.0648  -13.9173   16.5476 C   0  0  0  0  0  0  0  0  0  0  0  0
  -26.7102  -14.7844   20.3541 C   0  0  0  0  0  0  0  0  0  0  0  0
  -22.9982  -22.0465   18.7418 C   0  0  0  0  0  0  0  0  0  0  0  0
  -23.7866  -31.4010   23.1690 C   0  0  0  0  0  0  0  0  0  0  0  0
  -21.2894  -20.0133   19.5954 C   0  0  0  0  0  0  0  0  0  0  0  0
  -24.3211  -14.4791   20.1487 C   0  0  0  0  0  0  0  0  0  0  0  0
  -23.6684  -33.4995   24.2200 C   0  0  0  0  0  0  0  0  0  0  0  0
  -24.8452  -35.9651   24.7843 C   0  0  0  0  0  0  0  0  0  0  0  0
  -24.8848  -33.5523   24.9007 C   0  0  0  0  0  0  0  0  0  0  0  0
  -25.9717  -28.6789   20.7787 C   0  0  0  0  0  0  0  0  0  0  0  0
  -27.5529  -27.4297   19.8989 C   0  0  0  0  0  0  0  0  0  0  0  0
  -28.3158  -28.8259   21.8269 C   0  0  0  0  0  0  0  0  0  0  0  0
  -30.6003  -14.8057   19.1533 C   0  0  0  0  0  0  0  0  0  0  0  0
  -29.3666  -17.1870   20.6426 C   0  0  0  0  0  0  0  0  0  0  0  0
  -18.9344  -17.7417   23.8985 C   0  0  0  0  0  0  0  0  0  0  0  0
  -27.6870  -19.7815   21.2342 C   0  0  0  0  0  0  0  0  0  0  0  0
  -23.9800  -23.6018   17.0203 C   0  0  0  0  0  0  0  0  0  0  0  0
  -34.5509  -15.9436   16.1275 C   0  0  0  0  0  0  0  0  0  0  0  0
  -28.2758  -14.2455   18.4828 C   0  0  0  0  0  0  0  0  0  0  0  0
  -27.9417  -15.1420   21.1406 C   0  0  0  0  0  0  0  0  0  0  0  0
  -33.9212  -16.5543   17.3768 C   0  0  0  0  0  0  0  0  0  0  0  0
  -25.9676  -26.1692   15.5593 C   0  0  0  0  0  0  0  0  0  0  0  0
  -33.7011  -15.4841   18.4413 C   0  0  0  0  0  0  0  0  0  0  0  0
  -26.3233  -27.0707   16.7438 C   0  0  0  0  0  0  0  0  0  0  0  0
  -24.5498  -25.6125   15.6760 C   0  0  0  0  0  0  0  0  0  0  0  0
  -24.6070  -25.8365   18.1287 C   0  0  0  0  0  0  0  0  0  0  0  0
  -32.7364  -14.4010   17.9434 C   0  0  1  0  0  0  0  0  0  0  0  0
  -29.2135  -15.3553   18.9909 C   0  0  1  0  0  0  0  0  0  0  0  0
  -26.0487  -26.3690   18.0884 C   0  0  2  0  0  0  0  0  0  0  0  0
  -27.2538  -21.9767   22.3704 C   0  0  0  0  0  0  0  0  0  0  0  0
  -29.9857  -15.8196   23.2979 C   0  0  0  0  0  0  0  0  0  0  0  0
  -29.3521  -17.9452   24.4591 C   0  0  0  0  0  0  0  0  0  0  0  0
  -31.2809  -17.9172   22.8774 C   0  0  0  0  0  0  0  0  0  0  0  0
  -27.5588  -21.2242   18.6533 C   0  0  0  0  0  0  0  0  0  0  0  0
  -18.0661  -18.4562   22.8766 C   0  0  0  0  0  0  0  0  0  0  0  0
  -18.6339  -18.4255   21.4611 C   0  0  0  0  0  0  0  0  0  0  0  0
  -21.3616  -15.4652   23.9240 C   0  0  0  0  0  0  0  0  0  0  0  0
  -21.5152  -14.9790   22.4825 C   0  0  0  0  0  0  0  0  0  0  0  0
  -19.9051  -15.5039   24.3756 C   0  0  0  0  0  0  0  0  0  0  0  0
  -20.0115  -19.0706   21.3658 C   0  0  0  0  0  0  0  0  0  0  0  0
  -22.9735  -14.9875   22.0415 C   0  0  0  0  0  0  0  0  0  1  0  0
  -28.9279  -17.7618   21.9657 C   0  0  1  0  0  0  0  0  0  0  0  0
  -27.8192  -21.2906   21.1366 C   0  0  2  0  0  0  0  0  0  0  0  0
  -29.8683  -17.3479   23.1326 C   0  0  0  0  0  0  0  0  0  0  0  0
  -25.3667  -28.0253   19.7834 N   0  0  0  0  0  0  0  0  0  0  0  0
  -26.3542  -27.2738   19.2674 N   0  0  0  0  0  0  0  0  0  0  0  0
  -28.8629  -15.9255   20.3028 N   0  0  0  0  0  0  0  0  0  0  0  0
  -24.3642  -24.9586   16.9732 N   0  0  0  0  0  0  0  0  0  0  0  0
  -28.6514  -26.7491   19.5083 N   0  0  0  0  0  0  0  0  0  0  0  0
  -27.9224  -29.7672   22.7880 N   0  0  0  0  0  0  0  0  0  0  0  0
  -23.8661  -23.0792   18.3082 N   0  0  0  0  0  0  0  0  0  0  0  0
  -31.3699  -14.8730   18.0076 N   0  0  0  0  0  0  0  0  0  0  0  0
  -19.1054  -16.3975   23.5834 N   0  0  0  0  0  0  0  0  0  0  0  0
  -28.8189  -19.2032   21.7686 N   0  0  0  0  0  0  0  0  0  0  0  0
  -27.0893  -21.7983   19.9405 N   0  3  0  0  0  0  0  0  0  0  0  0
  -29.5098  -28.4428   21.7955 O   0  0  0  0  0  0  0  0  0  0  0  0
  -30.9483  -14.3549   20.2383 O   0  0  0  0  0  0  0  0  0  0  0  0
  -30.1393  -17.8342   19.9303 O   0  0  0  0  0  0  0  0  0  0  0  0
  -19.4365  -18.3042   24.8678 O   0  0  0  0  0  0  0  0  0  0  0  0
  -26.6788  -19.1767   20.8761 O   0  0  0  0  0  0  0  0  0  0  0  0
  -23.7941  -22.9439   15.9934 O   0  0  0  0  0  0  0  0  0  0  0  0
  -23.0835  -32.2764   23.9384 O   0  0  0  0  0  0  0  0  0  0  0  0
  -20.4499  -19.0145   20.0147 O   0  0  0  0  0  0  0  0  0  0  0  0
  -23.0724  -14.5467   20.6879 O   0  0  0  0  0  0  0  0  0  1  0  0
  -25.4108  -37.1490   25.0539 F   0  0  0  0  0  0  0  0  0  0  0  0
  -25.4934  -32.4220   25.2852 F   0  0  0  0  0  0  0  0  0  0  0  0
  1  2  1  0  0  0  0
  1  5  2  0  0  0  0
  2  6  2  0  0  0  0
  3 10  2  0  0  0  0
  3 19  1  0  0  0  0
  4 11  1  0  0  0  0
  4 19  2  0  0  0  0
  5 21  1  0  0  0  0
  6 23  1  0  0  0  0
  7 12  2  0  0  0  0
  7 22  1  0  0  0  0
  8 13  2  0  0  0  0
  8 25  1  0  0  0  0
  9 14  1  0  0  0  0
  9 25  2  0  0  0  0
 10 26  1  0  0  0  0
 11 26  2  0  0  0  0
 12 28  1  0  0  0  0
 13 27  1  0  0  0  0
 14 27  2  0  0  0  0
 15 16  2  0  0  0  0
 15 29  1  0  0  0  0
 16 30  1  0  0  0  0
 17 24  1  0  0  0  0
 17 28  2  0  0  0  0
 18 30  2  0  0  0  0
 18 31  1  0  0  0  0
 19 32  1  0  0  0  0
 20 32  1  0  0  0  0
 20 33  2  0  0  0  0
 20 34  1  0  0  0  0
 21 23  2  0  0  0  0
 21 40  1  0  0  0  0
 22 24  2  0  0  0  0
 22 41  1  0  0  0  0
 23 49  1  0  0  0  0
 24 42  1  0  0  0  0
 25 73  1  0  0  0  0
 26 84  1  0  0  0  0
 27 85  1  0  0  0  0
 28 86  1  0  0  0  0
 29 31  2  0  0  0  0
 29 84  1  0  0  0  0
 30 87  1  0  0  0  0
 31 88  1  0  0  0  0
 32 67  2  0  0  0  0
 33 68  1  0  0  0  0
 33 71  1  0  0  0  0
 34 72  1  0  0  0  0
 34 78  2  0  0  0  0
 35 50  1  0  0  0  0
 35 74  1  0  0  0  0
 35 79  2  0  0  0  0
 36 64  1  0  0  0  0
 36 69  1  0  0  0  0
 36 80  2  0  0  0  0
 37 57  1  0  0  0  0
 37 75  1  0  0  0  0
 37 81  2  0  0  0  0
 38 65  1  0  0  0  0
 38 76  1  0  0  0  0
 38 82  2  0  0  0  0
 39 70  1  0  0  0  0
 39 73  1  0  0  0  0
 39 83  2  0  0  0  0
 40 43  1  0  0  0  0
 41 50  1  0  0  0  0
 42 69  1  0  0  0  0
 43 45  1  0  0  0  0
 44 46  1  0  0  0  0
 44 47  1  0  0  0  0
 45 49  1  0  0  0  0
 46 51  1  0  0  0  0
 47 70  1  0  0  0  0
 48 51  1  0  0  0  0
 48 70  1  0  0  0  0
 49 74  1  0  0  0  0
 50 69  1  0  0  0  0
 51 68  1  0  0  0  0
 52 65  1  0  0  0  0
 53 66  1  0  0  0  0
 54 66  1  0  0  0  0
 55 66  1  0  0  0  0
 56 77  1  0  0  0  0
 57 58  1  0  0  0  0
 58 62  1  0  0  0  0
 59 60  1  0  0  0  0
 59 61  1  0  0  0  0
 60 63  1  0  0  0  0
 61 75  1  0  0  0  0
 62 85  1  0  0  0  0
 63 86  1  0  0  0  0
 64 66  1  0  0  0  0
 64 76  1  0  0  0  0
 65 77  1  0  0  0  0
 67 68  1  0  0  0  0
M  CHG  1  77   1
M  ISO  4  39 100  63 101  73 100  86 101
M  END
> <Batch ID>
0002

> <Smiles>
CNC(C)C(=O)NC(C(=O)N1Cc2cc([101O:1][101CH2:1]CCCNC(=O)CCCOc3ccc([100NH:0][100C:0](=O)N4CCCC(n5nc(-c6ccc(Oc7ccc(F)cc7F)cc6)c(C(N)=O)c5N)C4)cc3)ccc2CC1C(=O)NC1CCCc2ccccc21)C(C)(C)C

> <Shape>
0.199

> <Color>
0.083

> <Negative vol penalty>
0.000

$$$$

  -OEChem-04052315183D

 80 88  0     1  0  0  0  0  0999 V2000
  -23.6037  -32.7327   26.6389 C   0  0  0  0  0  0  0  0  0  0  0  0
  -24.8776  -32.2842   26.3049 C   0  0  0  0  0  0  0  0  0  0  0  0
  -24.0384   -9.7255   21.7182 C   0  0  0  0  0  0  0  0  0  0  0  0
  -24.6425  -10.9968   23.6819 C   0  0  0  0  0  0  0  0  0  0  0  0
  -22.4822  -32.0179   26.2204 C   0  0  0  0  0  0  0  0  0  0  0  0
  -25.0306  -31.1199   25.5529 C   0  0  0  0  0  0  0  0  0  0  0  0
  -29.3094  -28.1866   20.6129 C   0  0  0  0  0  0  0  0  0  0  0  0
  -28.4287  -19.3882   20.5060 C   0  0  0  0  0  0  0  0  0  0  0  0
  -30.7877  -18.9562   20.2141 C   0  0  0  0  0  0  0  0  0  0  0  0
  -23.6100   -8.6752   22.5300 C   0  0  0  0  0  0  0  0  0  0  0  0
  -24.2141   -9.9465   24.4937 C   0  0  0  0  0  0  0  0  0  0  0  0
  -30.0416  -27.0241   20.3755 C   0  0  0  0  0  0  0  0  0  0  0  0
  -28.7132  -20.7096   20.8503 C   0  0  0  0  0  0  0  0  0  0  0  0
  -31.0723  -20.2777   20.5583 C   0  0  0  0  0  0  0  0  0  0  0  0
  -20.8982   -7.9212   24.4037 C   0  0  0  0  0  0  0  0  0  0  0  0
  -19.6779   -7.3201   24.0957 C   0  0  0  0  0  0  0  0  0  0  0  0
  -28.0298  -25.9145   19.6402 C   0  0  0  0  0  0  0  0  0  0  0  0
  -20.7990   -5.2023   23.7872 C   0  0  0  0  0  0  0  0  0  0  0  0
  -24.5547  -10.8863   22.2942 C   0  0  0  0  0  0  0  0  0  0  0  0
  -24.2291  -13.0552   20.9913 C   0  0  0  0  0  0  0  0  0  0  0  0
  -22.6213  -30.8496   25.4547 C   0  0  0  0  0  0  0  0  0  0  0  0
  -27.9277  -28.2185   20.3757 C   0  0  0  0  0  0  0  0  0  0  0  0
  -23.9099  -30.3881   25.1249 C   0  0  0  0  0  0  0  0  0  0  0  0
  -27.2828  -27.0794   19.8730 C   0  0  0  0  0  0  0  0  0  0  0  0
  -29.4659  -18.5115   20.1880 C   0  0  0  0  0  0  0  0  0  0  0  0
  -23.6979   -8.7857   23.9177 C   0  0  0  0  0  0  0  0  0  0  0  0
  -30.0350  -21.1544   20.8764 C   0  0  0  0  0  0  0  0  0  0  0  0
  -29.4013  -25.8869   19.8918 C   0  0  0  0  0  0  0  0  0  0  0  0
  -22.0690   -7.1629   24.4033 C   0  0  0  0  0  0  0  0  0  0  0  0
  -19.6282   -5.9606   23.7875 C   0  0  0  0  0  0  0  0  0  0  0  0
  -22.0194   -5.8035   24.0952 C   0  0  0  0  0  0  0  0  0  0  0  0
  -24.9979  -11.9714   21.4562 C   0  0  0  0  0  0  0  0  0  0  0  0
  -25.1050  -13.8005   20.2404 C   0  0  0  0  0  0  0  0  0  0  0  0
  -22.8468  -13.3610   21.2181 C   0  0  0  0  0  0  0  0  0  0  0  0
  -25.3524  -28.6868   22.1791 C   0  0  0  0  0  0  0  0  0  0  0  0
  -23.8160  -28.5983   19.3236 C   0  0  0  0  0  0  0  0  0  0  0  0
  -23.8009  -27.5601   16.0727 C   0  0  0  0  0  0  0  0  0  0  0  0
  -30.0881  -16.1705   19.4959 C   0  0  0  0  0  0  0  0  0  0  0  0
  -21.3810  -30.0848   25.0655 C   0  0  0  0  0  0  0  0  0  0  0  0
  -27.1569  -29.4884   20.6116 C   0  0  0  0  0  0  0  0  0  0  0  0
  -25.8050  -27.0680   19.5827 C   0  0  0  0  0  0  0  0  0  0  0  0
  -21.6176  -29.0659   23.9537 C   0  0  0  0  0  0  0  0  0  0  0  0
  -29.7771  -12.7363   18.6092 C   0  0  0  0  0  0  0  0  0  0  0  0
  -22.8728  -28.2471   24.2383 C   0  0  0  0  0  0  0  0  0  0  0  0
  -28.4427  -12.3203   19.2326 C   0  0  0  0  0  0  0  0  0  0  0  0
  -30.5327  -13.7256   19.4945 C   0  0  0  0  0  0  0  0  0  0  0  0
  -28.4296  -14.4937   20.5222 C   0  0  0  0  0  0  0  0  0  0  0  0
  -24.1161  -29.1431   24.2896 C   0  0  1  0  0  0  0  0  0  0  0  0
  -25.6647  -29.2513   20.8221 C   0  0  1  0  0  0  0  0  0  0  0  0
  -27.6025  -13.5476   19.6365 C   0  0  2  0  0  0  0  0  0  0  0  0
  -22.3923  -27.6068   13.9963 C   0  0  0  0  0  0  0  0  0  0  0  0
  -22.0062  -26.4448   20.5056 C   0  0  0  0  0  0  0  0  0  0  0  0
  -21.2844  -25.8720   18.1778 C   0  0  0  0  0  0  0  0  0  0  0  0
  -20.8257  -28.1437   19.1006 C   0  0  0  0  0  0  0  0  0  0  0  0
  -25.8720  -29.0381   14.5612 C   0  0  0  0  0  0  0  0  0  0  0  0
  -31.4746  -23.0311   20.6290 C   0  0  0  0  0  0  0  0  0  0  0  0
  -31.2605  -24.5247   20.4780 C   0  0  0  0  0  0  0  0  0  1  0  0
  -23.1936  -27.5139   18.4776 C   0  0  1  0  0  0  0  0  0  0  0  0
  -23.4968  -28.2975   14.7811 C   0  0  2  0  0  0  0  0  0  0  0  0
  -21.8550  -26.9929   19.0726 C   0  0  0  0  0  0  0  0  0  0  0  0
  -26.2647  -12.0199   21.0356 N   0  0  0  0  0  0  0  0  0  0  0  0
  -26.2986  -13.1431   20.2986 N   0  0  0  0  0  0  0  0  0  0  0  0
  -25.0938  -28.3320   19.8355 N   0  0  0  0  0  0  0  0  0  0  0  0
  -29.6758  -14.8640   19.8332 N   0  0  0  0  0  0  0  0  0  0  0  0
  -24.9629  -14.9473   19.5425 N   0  0  0  0  0  0  0  0  0  0  0  0
  -22.0914  -12.4891   22.0140 N   0  0  0  0  0  0  0  0  0  0  0  0
  -29.1770  -17.1691   19.8384 N   0  0  0  0  0  0  0  0  0  0  0  0
  -24.5408  -29.4954   22.9517 N   0  0  0  0  0  0  0  0  0  0  0  0
  -23.0753  -28.0638   17.1314 N   0  0  0  0  0  0  0  0  0  0  0  0
  -24.7133  -28.3622   13.9228 N   0  3  0  0  0  0  0  0  0  0  0  0
  -22.2936  -14.3687   20.7159 O   0  0  0  0  0  0  0  0  0  0  0  0
  -25.8125  -27.5975   22.5008 O   0  0  0  0  0  0  0  0  0  0  0  0
  -23.1943  -29.6461   19.5170 O   0  0  0  0  0  0  0  0  0  0  0  0
  -24.5992  -26.6277   16.1352 O   0  0  0  0  0  0  0  0  0  0  0  0
  -31.1575  -16.3850   18.9194 O   0  0  0  0  0  0  0  0  0  0  0  0
  -23.2797   -7.7611   24.7101 O   0  0  0  0  0  0  0  0  0  0  0  0
  -30.3146  -22.4523   21.2145 O   0  0  0  0  0  0  0  0  0  0  0  0
  -30.1134  -24.7508   19.6598 O   0  0  0  0  0  0  0  0  0  1  0  0
  -18.4560   -5.3831   23.4933 F   0  0  0  0  0  0  0  0  0  0  0  0
  -23.1406   -5.0696   24.0944 F   0  0  0  0  0  0  0  0  0  0  0  0
  1  2  1  0  0  0  0
  1  5  2  0  0  0  0
  2  6  2  0  0  0  0
  3 10  2  0  0  0  0
  3 19  1  0  0  0  0
  4 11  1  0  0  0  0
  4 19  2  0  0  0  0
  5 21  1  0  0  0  0
  6 23  1  0  0  0  0
  7 12  2  0  0  0  0
  7 22  1  0  0  0  0
  8 13  2  0  0  0  0
  8 25  1  0  0  0  0
  9 14  1  0  0  0  0
  9 25  2  0  0  0  0
 10 26  1  0  0  0  0
 11 26  2  0  0  0  0
 12 28  1  0  0  0  0
 13 27  1  0  0  0  0
 14 27  2  0  0  0  0
 15 16  2  0  0  0  0
 15 29  1  0  0  0  0
 16 30  1  0  0  0  0
 17 24  1  0  0  0  0
 17 28  2  0  0  0  0
 18 30  2  0  0  0  0
 18 31  1  0  0  0  0
 19 32  1  0  0  0  0
 20 32  1  0  0  0  0
 20 33  2  0  0  0  0
 20 34  1  0  0  0  0
 21 23  2  0  0  0  0
 21 39  1  0  0  0  0
 22 24  2  0  0  0  0
 22 40  1  0  0  0  0
 23 48  1  0  0  0  0
 24 41  1  0  0  0  0
 25 67  1  0  0  0  0
 26 76  1  0  0  0  0
 27 77  1  0  0  0  0
 28 78  1  0  0  0  0
 29 31  2  0  0  0  0
 29 76  1  0  0  0  0
 30 79  1  0  0  0  0
 31 80  1  0  0  0  0
 32 61  2  0  0  0  0
 33 62  1  0  0  0  0
 33 65  1  0  0  0  0
 34 66  1  0  0  0  0
 34 71  2  0  0  0  0
 35 49  1  0  0  0  0
 35 68  1  0  0  0  0
 35 72  2  0  0  0  0
 36 58  1  0  0  0  0
 36 63  1  0  0  0  0
 36 73  2  0  0  0  0
 37 59  1  0  0  0  0
 37 69  1  0  0  0  0
 37 74  2  0  0  0  0
 38 64  1  0  0  0  0
 38 67  1  0  0  0  0
 38 75  2  0  0  0  0
 39 42  1  0  0  0  0
 40 49  1  0  0  0  0
 41 63  1  0  0  0  0
 42 44  1  0  0  0  0
 43 45  1  0  0  0  0
 43 46  1  0  0  0  0
 44 48  1  0  0  0  0
 45 50  1  0  0  0  0
 46 64  1  0  0  0  0
 47 50  1  0  0  0  0
 47 64  1  0  0  0  0
 48 68  1  0  0  0  0
 49 63  1  0  0  0  0
 50 62  1  0  0  0  0
 51 59  1  0  0  0  0
 52 60  1  0  0  0  0
 53 60  1  0  0  0  0
 54 60  1  0  0  0  0
 55 70  1  0  0  0  0
 56 57  1  0  0  0  0
 56 77  1  0  0  0  0
 57 78  1  0  0  0  0
 58 60  1  0  0  0  0
 58 69  1  0  0  0  0
 59 70  1  0  0  0  0
 61 62  1  0  0  0  0
M  CHG  1  70   1
M  ISO  4  38 100  57 101  67 100  78 101
M  END
> <Batch ID>
0002

> <Smiles>
CNC(C)C(=O)NC(C(=O)N1Cc2cc([101O:1][101CH2:1]COc3ccc([100NH:0][100C:0](=O)N4CCCC(n5nc(-c6ccc(Oc7ccc(F)cc7F)cc6)c(C(N)=O)c5N)C4)cc3)ccc2CC1C(=O)NC1CCCc2ccccc21)C(C)(C)C

> <Shape>
0.290

> <Color>
0.124

> <Negative vol penalty>
0.000

$$$$

  -OEChem-04052315183D

 85 93  0     1  0  0  0  0  0999 V2000
  -20.5537  -26.3525   27.9197 C   0  0  0  0  0  0  0  0  0  0  0  0
  -32.2860  -14.2017   21.5072 C   0  0  0  0  0  0  0  0  0  0  0  0
  -31.4373  -15.3021   21.5720 C   0  0  0  0  0  0  0  0  0  0  0  0
  -21.5105  -27.1542   28.5421 C   0  0  0  0  0  0  0  0  0  0  0  0
  -28.5350  -26.5320   19.3251 C   0  0  0  0  0  0  0  0  0  0  0  0
  -26.4218  -25.3885   19.5781 C   0  0  0  0  0  0  0  0  0  0  0  0
  -20.4828  -26.3044   26.5275 C   0  0  0  0  0  0  0  0  0  0  0  0
  -31.8331  -13.0052   20.9529 C   0  0  0  0  0  0  0  0  0  0  0  0
  -30.1355  -15.2070   21.0815 C   0  0  0  0  0  0  0  0  0  0  0  0
  -25.1481  -17.9705   23.3165 C   0  0  0  0  0  0  0  0  0  0  0  0
  -22.3964  -27.9079   27.7722 C   0  0  0  0  0  0  0  0  0  0  0  0
  -29.1207  -25.3495   18.8732 C   0  0  0  0  0  0  0  0  0  0  0  0
  -27.0075  -24.2060   19.1261 C   0  0  0  0  0  0  0  0  0  0  0  0
  -24.4694  -19.1287   22.9402 C   0  0  0  0  0  0  0  0  0  0  0  0
  -28.0325  -20.7996   18.3810 C   0  0  0  0  0  0  0  0  0  0  0  0
  -27.7509  -19.6272   19.0823 C   0  0  0  0  0  0  0  0  0  0  0  0
  -22.9294  -17.7982   21.6450 C   0  0  0  0  0  0  0  0  0  0  0  0
  -28.7038  -20.5938   21.0810 C   0  0  0  0  0  0  0  0  0  0  0  0
  -27.1855  -26.5515   19.6777 C   0  0  0  0  0  0  0  0  0  0  0  0
  -21.3687  -27.0581   25.7576 C   0  0  0  0  0  0  0  0  0  0  0  0
  -25.9510  -28.7621   19.3662 C   0  0  0  0  0  0  0  0  0  0  0  0
  -30.5220  -12.8925   20.4641 C   0  0  0  0  0  0  0  0  0  0  0  0
  -24.7284  -16.7163   22.8504 C   0  0  0  0  0  0  0  0  0  0  0  0
  -29.6650  -14.0083   20.5189 C   0  0  0  0  0  0  0  0  0  0  0  0
  -23.6029  -16.6254   22.0190 C   0  0  0  0  0  0  0  0  0  0  0  0
  -22.3255  -27.8599   26.3800 C   0  0  0  0  0  0  0  0  0  0  0  0
  -28.3570  -24.1866   18.7736 C   0  0  0  0  0  0  0  0  0  0  0  0
  -23.3616  -19.0430   22.1020 C   0  0  0  0  0  0  0  0  0  0  0  0
  -28.6499  -21.8691   19.0297 C   0  0  0  0  0  0  0  0  0  0  0  0
  -28.0865  -19.5243   20.4322 C   0  0  0  0  0  0  0  0  0  0  0  0
  -28.9855  -21.7662   20.3797 C   0  0  0  0  0  0  0  0  0  0  0  0
  -26.5800  -27.7725   20.1452 C   0  0  0  0  0  0  0  0  0  0  0  0
  -25.5465  -29.7090   20.2751 C   0  0  0  0  0  0  0  0  0  0  0  0
  -21.2659  -26.9838   24.2774 C   0  0  0  0  0  0  0  0  0  0  0  0
  -25.7503  -28.8201   17.9477 C   0  0  0  0  0  0  0  0  0  0  0  0
  -26.0355  -14.4344   21.0648 C   0  0  0  0  0  0  0  0  0  0  0  0
  -23.3388  -12.8134   21.8534 C   0  0  0  0  0  0  0  0  0  0  0  0
  -20.0783  -12.9272   22.8548 C   0  0  0  0  0  0  0  0  0  0  0  0
  -24.2356  -29.4785   26.1003 C   0  0  0  0  0  0  0  0  0  0  0  0
  -30.0926  -11.5928   19.8307 C   0  0  0  0  0  0  0  0  0  0  0  0
  -25.4552  -15.4739   23.2871 C   0  0  0  0  0  0  0  0  0  0  0  0
  -23.0997  -15.3011   21.5076 C   0  0  0  0  0  0  0  0  0  0  0  0
  -28.5798  -11.4619   19.6745 C   0  0  0  0  0  0  0  0  0  0  0  0
  -26.7007  -31.5285   24.5519 C   0  0  0  0  0  0  0  0  0  0  0  0
  -27.9906  -12.7422   19.0909 C   0  0  0  0  0  0  0  0  0  0  0  0
  -26.8878  -30.8916   23.1730 C   0  0  0  0  0  0  0  0  0  0  0  0
  -26.4628  -30.4773   25.6346 C   0  0  0  0  0  0  0  0  0  0  0  0
  -25.5615  -28.8954   23.9749 C   0  0  0  0  0  0  0  0  0  0  0  0
  -28.2381  -13.9369   20.0199 C   0  0  1  0  0  0  0  0  0  0  0  0
  -25.2501  -14.2970   22.3383 C   0  0  1  0  0  0  0  0  0  0  0  0
  -25.7396  -29.9185   22.8412 C   0  0  2  0  0  0  0  0  0  0  0  0
  -18.1251  -11.4409   23.3776 C   0  0  0  0  0  0  0  0  0  0  0  0
  -22.8909  -12.3567   18.8699 C   0  0  0  0  0  0  0  0  0  0  0  0
  -20.5226  -11.7343   19.3917 C   0  0  0  0  0  0  0  0  0  0  0  0
  -22.3998  -10.3747   20.3140 C   0  0  0  0  0  0  0  0  0  0  0  0
  -19.9436  -13.8920   25.6495 C   0  0  0  0  0  0  0  0  0  0  0  0
  -22.8257  -23.9081   22.2437 C   0  0  0  0  0  0  0  0  0  0  0  0
  -21.9966  -25.0610   21.6701 C   0  0  0  0  0  0  0  0  0  0  0  0
  -22.3455  -22.5605   21.7081 C   0  0  0  0  0  0  0  0  0  0  0  0
  -22.4591  -26.4236   22.1754 C   0  0  0  0  0  0  0  0  0  0  0  0
  -23.1907  -21.4110   22.2407 C   0  0  0  0  0  0  0  0  0  1  0  0
  -21.9589  -12.6791   21.2560 C   0  0  1  0  0  0  0  0  0  0  0  0
  -19.3315  -12.1752   23.9417 C   0  0  2  0  0  0  0  0  0  0  0  0
  -21.9534  -11.8115   19.9658 C   0  0  0  0  0  0  0  0  0  0  0  0
  -26.5778  -28.0638   21.4487 N   0  0  0  0  0  0  0  0  0  0  0  0
  -25.9426  -29.2472   21.4957 N   0  0  0  0  0  0  0  0  0  0  0  0
  -23.8478  -14.1156   21.9576 N   0  0  0  0  0  0  0  0  0  0  0  0
  -25.3583  -29.5943   25.2536 N   0  0  0  0  0  0  0  0  0  0  0  0
  -24.8942  -30.8833   20.1412 N   0  0  0  0  0  0  0  0  0  0  0  0
  -26.2289  -27.7632   17.1614 N   0  0  0  0  0  0  0  0  0  0  0  0
  -23.2346  -28.6356   25.6186 N   0  0  0  0  0  0  0  0  0  0  0  0
  -22.3955  -26.5281   23.6068 N   0  0  0  0  0  0  0  0  0  0  0  0
  -27.3130  -13.9121   21.1326 N   0  0  0  0  0  0  0  0  0  0  0  0
  -21.1006  -12.1716   22.3210 N   0  0  0  0  0  0  0  0  0  0  0  0
  -18.8578  -13.1193   24.9930 N   0  3  0  0  0  0  0  0  0  0  0  0
  -20.2250  -27.3378   23.7298 O   0  0  0  0  0  0  0  0  0  0  0  0
  -25.1784  -29.7885   17.3922 O   0  0  0  0  0  0  0  0  0  0  0  0
  -25.5202  -14.9731   20.0922 O   0  0  0  0  0  0  0  0  0  0  0  0
  -23.9398  -11.8008   22.2207 O   0  0  0  0  0  0  0  0  0  0  0  0
  -19.7817  -14.0693   22.5110 O   0  0  0  0  0  0  0  0  0  0  0  0
  -24.1553  -30.1038   27.1608 O   0  0  0  0  0  0  0  0  0  0  0  0
  -28.9282  -23.0326   18.3323 O   0  0  0  0  0  0  0  0  0  0  0  0
  -22.6978  -20.1720   21.7326 O   0  0  0  0  0  0  0  0  0  1  0  0
  -27.8145  -18.3990   21.1059 F   0  0  0  0  0  0  0  0  0  0  0  0
  -29.5776  -22.7907   21.0086 F   0  0  0  0  0  0  0  0  0  0  0  0
  1  4  1  0  0  0  0
  1  7  2  0  0  0  0
  2  3  1  0  0  0  0
  2  8  2  0  0  0  0
  3  9  2  0  0  0  0
  4 11  2  0  0  0  0
  5 12  2  0  0  0  0
  5 19  1  0  0  0  0
  6 13  1  0  0  0  0
  6 19  2  0  0  0  0
  7 20  1  0  0  0  0
  8 22  1  0  0  0  0
  9 24  1  0  0  0  0
 10 14  2  0  0  0  0
 10 23  1  0  0  0  0
 11 26  1  0  0  0  0
 12 27  1  0  0  0  0
 13 27  2  0  0  0  0
 14 28  1  0  0  0  0
 15 16  2  0  0  0  0
 15 29  1  0  0  0  0
 16 30  1  0  0  0  0
 17 25  1  0  0  0  0
 17 28  2  0  0  0  0
 18 30  2  0  0  0  0
 18 31  1  0  0  0  0
 19 32  1  0  0  0  0
 20 26  2  0  0  0  0
 20 34  1  0  0  0  0
 21 32  1  0  0  0  0
 21 33  2  0  0  0  0
 21 35  1  0  0  0  0
 22 24  2  0  0  0  0
 22 40  1  0  0  0  0
 23 25  2  0  0  0  0
 23 41  1  0  0  0  0
 24 49  1  0  0  0  0
 25 42  1  0  0  0  0
 26 71  1  0  0  0  0
 27 82  1  0  0  0  0
 28 83  1  0  0  0  0
 29 31  2  0  0  0  0
 29 82  1  0  0  0  0
 30 84  1  0  0  0  0
 31 85  1  0  0  0  0
 32 65  2  0  0  0  0
 33 66  1  0  0  0  0
 33 69  1  0  0  0  0
 34 72  1  0  0  0  0
 34 76  2  0  0  0  0
 35 70  1  0  0  0  0
 35 77  2  0  0  0  0
 36 50  1  0  0  0  0
 36 73  1  0  0  0  0
 36 78  2  0  0  0  0
 37 62  1  0  0  0  0
 37 67  1  0  0  0  0
 37 79  2  0  0  0  0
 38 63  1  0  0  0  0
 38 74  1  0  0  0  0
 38 80  2  0  0  0  0
 39 68  1  0  0  0  0
 39 71  1  0  0  0  0
 39 81  2  0  0  0  0
 40 43  1  0  0  0  0
 41 50  1  0  0  0  0
 42 67  1  0  0  0  0
 43 45  1  0  0  0  0
 44 46  1  0  0  0  0
 44 47  1  0  0  0  0
 45 49  1  0  0  0  0
 46 51  1  0  0  0  0
 47 68  1  0  0  0  0
 48 51  1  0  0  0  0
 48 68  1  0  0  0  0
 49 73  1  0  0  0  0
 50 67  1  0  0  0  0
 51 66  1  0  0  0  0
 52 63  1  0  0  0  0
 53 64  1  0  0  0  0
 54 64  1  0  0  0  0
 55 64  1  0  0  0  0
 56 75  1  0  0  0  0
 57 58  1  0  0  0  0
 57 59  1  0  0  0  0
 58 60  1  0  0  0  0
 59 61  1  0  0  0  0
 60 72  1  0  0  0  0
 61 83  1  0  0  0  0
 62 64  1  0  0  0  0
 62 74  1  0  0  0  0
 63 75  1  0  0  0  0
 65 66  1  0  0  0  0
M  CHG  1  75   1
M  ISO  4  39 100  61 101  71 100  83 101
M  END
> <Batch ID>
0002

> <Smiles>
CNC(C)C(=O)NC(C(=O)N1Cc2cc([101O:1][101CH2:1]CCCCNC(=O)c3ccccc3[100NH:0][100C:0](=O)N3CCCC(n4nc(-c5ccc(Oc6ccc(F)cc6F)cc5)c(C(N)=O)c4N)C3)ccc2CC1C(=O)NC1CCCc2ccccc21)C(C)(C)C

> <Shape>
0.249

> <Color>
0.065

> <Negative vol penalty>
0.000

$$$$

  -OEChem-04052315183D

 77 85  0     1  0  0  0  0  0999 V2000
  -17.5192  -25.8185   21.4338 C   0  0  0  0  0  0  0  0  0  0  0  0
  -18.7916  -25.7093   20.8820 C   0  0  0  0  0  0  0  0  0  0  0  0
  -26.6261  -12.5770   21.8119 C   0  0  0  0  0  0  0  0  0  0  0  0
  -25.8412  -14.0497   20.0649 C   0  0  0  0  0  0  0  0  0  0  0  0
  -17.0682  -27.0509   21.9045 C   0  0  0  0  0  0  0  0  0  0  0  0
  -19.6134  -26.8328   20.7996 C   0  0  0  0  0  0  0  0  0  0  0  0
  -24.3691  -25.8720   22.2504 C   0  0  0  0  0  0  0  0  0  0  0  0
  -28.1665  -21.8353   19.6877 C   0  0  0  0  0  0  0  0  0  0  0  0
  -28.7648  -22.8992   21.7725 C   0  0  0  0  0  0  0  0  0  0  0  0
  -25.3753  -11.9612   21.8549 C   0  0  0  0  0  0  0  0  0  0  0  0
  -24.5903  -13.4339   20.1079 C   0  0  0  0  0  0  0  0  0  0  0  0
  -25.1919  -25.2122   21.3387 C   0  0  0  0  0  0  0  0  0  0  0  0
  -27.5414  -23.0095   19.2679 C   0  0  0  0  0  0  0  0  0  0  0  0
  -28.1397  -24.0734   21.3528 C   0  0  0  0  0  0  0  0  0  0  0  0
  -23.6696   -9.6584   20.0604 C   0  0  0  0  0  0  0  0  0  0  0  0
  -23.6343   -8.2648   20.1070 C   0  0  0  0  0  0  0  0  0  0  0  0
  -26.1959  -27.3193   20.7291 C   0  0  0  0  0  0  0  0  0  0  0  0
  -22.4632   -8.3651   22.2179 C   0  0  0  0  0  0  0  0  0  0  0  0
  -26.8591  -13.6213   20.9170 C   0  0  0  0  0  0  0  0  0  0  0  0
  -29.2505  -13.8951   20.0721 C   0  0  0  0  0  0  0  0  0  0  0  0
  -17.8885  -28.1881   21.8366 C   0  0  0  0  0  0  0  0  0  0  0  0
  -24.4460  -27.2641   22.4008 C   0  0  0  0  0  0  0  0  0  0  0  0
  -19.1724  -28.0819   21.2686 C   0  0  0  0  0  0  0  0  0  0  0  0
  -25.3747  -27.9940   21.6453 C   0  0  0  0  0  0  0  0  0  0  0  0
  -28.7782  -21.7802   20.9400 C   0  0  0  0  0  0  0  0  0  0  0  0
  -24.3574  -12.3897   21.0029 C   0  0  0  0  0  0  0  0  0  0  0  0
  -27.5280  -24.1286   20.1005 C   0  0  0  0  0  0  0  0  0  1  0  0
  -26.1035  -25.9362   20.5757 C   0  0  0  0  0  0  0  0  0  0  0  0
  -23.1017  -10.4054   21.0925 C   0  0  0  0  0  0  0  0  0  0  0  0
  -23.0311   -7.6181   21.1857 C   0  0  0  0  0  0  0  0  0  0  0  0
  -22.4985   -9.7587   22.1712 C   0  0  0  0  0  0  0  0  0  0  0  0
  -28.1508  -14.2581   20.8725 C   0  0  0  0  0  0  0  0  0  0  0  0
  -30.2274  -14.8038   20.3982 C   0  0  0  0  0  0  0  0  0  0  0  0
  -29.3776  -12.8315   19.1191 C   0  0  0  0  0  0  0  0  0  0  0  0
  -22.4292  -29.6821   21.9655 C   0  0  0  0  0  0  0  0  0  0  0  0
  -24.8421  -31.4181   23.2642 C   0  0  0  0  0  0  0  0  0  0  0  0
  -28.1808  -31.7092   23.9084 C   0  0  0  0  0  0  0  0  0  0  0  0
  -30.0658  -20.3648   22.5786 C   0  0  0  0  0  0  0  0  0  0  0  0
  -17.3394  -29.5088   22.3151 C   0  0  0  0  0  0  0  0  0  0  0  0
  -23.5701  -27.9576   23.4079 C   0  0  0  0  0  0  0  0  0  0  0  0
  -25.5106  -29.4876   21.7837 C   0  0  0  0  0  0  0  0  0  0  0  0
  -18.4132  -30.5717   22.5332 C   0  0  0  0  0  0  0  0  0  0  0  0
  -31.7199  -17.5601   24.0189 C   0  0  0  0  0  0  0  0  0  0  0  0
  -19.3734  -30.6115   21.3486 C   0  0  0  0  0  0  0  0  0  0  0  0
  -31.0968  -16.3624   23.2983 C   0  0  0  0  0  0  0  0  0  0  0  0
  -30.6948  -18.6630   24.2766 C   0  0  0  0  0  0  0  0  0  0  0  0
  -29.3270  -17.9099   22.3711 C   0  0  0  0  0  0  0  0  0  0  0  0
  -20.1026  -29.2726   21.1843 C   0  0  1  0  0  0  0  0  0  0  0  0
  -23.3741  -29.4406   23.1085 C   0  0  1  0  0  0  0  0  0  0  0  0
  -30.3356  -16.8003   22.0317 C   0  0  2  0  0  0  0  0  0  0  0  0
  -29.8580  -33.2567   24.9521 C   0  0  0  0  0  0  0  0  0  0  0  0
  -24.6822  -33.2365   20.8192 C   0  0  0  0  0  0  0  0  0  0  0  0
  -26.9321  -34.1457   21.4350 C   0  0  0  0  0  0  0  0  0  0  0  0
  -25.0038  -34.4343   22.9909 C   0  0  0  0  0  0  0  0  0  0  0  0
  -28.9726  -29.6842   25.9162 C   0  0  0  0  0  0  0  0  0  0  0  0
  -26.0471  -32.1472   22.7209 C   0  0  1  0  0  0  0  0  0  0  0  0
  -28.9344  -32.0694   25.1759 C   0  0  2  0  0  0  0  0  0  0  0  0
  -25.6626  -33.4630   21.9873 C   0  0  0  0  0  0  0  0  0  0  0  0
  -28.4046  -15.3150   21.6488 N   0  0  0  0  0  0  0  0  0  0  0  0
  -29.6751  -15.6238   21.3377 N   0  0  0  0  0  0  0  0  0  0  0  0
  -24.6277  -30.1209   22.7772 N   0  0  0  0  0  0  0  0  0  0  0  0
  -30.0164  -19.0294   23.0314 N   0  0  0  0  0  0  0  0  0  0  0  0
  -31.4964  -14.9735   19.9700 N   0  0  0  0  0  0  0  0  0  0  0  0
  -28.2769  -11.9905   18.9057 N   0  0  0  0  0  0  0  0  0  0  0  0
  -29.4125  -20.5873   21.3668 N   0  0  0  0  0  0  0  0  0  0  0  0
  -21.1668  -29.1539   22.1578 N   0  0  0  0  0  0  0  0  0  0  0  0
  -26.9534  -32.3348   23.8487 N   0  0  0  0  0  0  0  0  0  0  0  0
  -29.7565  -30.9146   25.6357 N   0  3  0  0  0  0  0  0  0  0  0  0
  -30.4412  -12.6227   18.4877 O   0  0  0  0  0  0  0  0  0  0  0  0
  -22.8162  -30.3030   20.9824 O   0  0  0  0  0  0  0  0  0  0  0  0
  -24.1216  -31.9761   24.0956 O   0  0  0  0  0  0  0  0  0  0  0  0
  -28.6369  -30.9518   23.0547 O   0  0  0  0  0  0  0  0  0  0  0  0
  -30.6680  -21.2406   23.2049 O   0  0  0  0  0  0  0  0  0  0  0  0
  -26.9074  -25.2947   19.6846 O   0  0  0  0  0  0  0  0  0  1  0  0
  -23.1368  -11.7889   21.0443 O   0  0  0  0  0  0  0  0  0  0  0  0
  -22.9960   -6.2798   21.2297 F   0  0  0  0  0  0  0  0  0  0  0  0
  -21.9502  -10.4710   23.1651 F   0  0  0  0  0  0  0  0  0  0  0  0
  1  2  1  0  0  0  0
  1  5  2  0  0  0  0
  2  6  2  0  0  0  0
  3 10  2  0  0  0  0
  3 19  1  0  0  0  0
  4 11  1  0  0  0  0
  4 19  2  0  0  0  0
  5 21  1  0  0  0  0
  6 23  1  0  0  0  0
  7 12  2  0  0  0  0
  7 22  1  0  0  0  0
  8 13  2  0  0  0  0
  8 25  1  0  0  0  0
  9 14  1  0  0  0  0
  9 25  2  0  0  0  0
 10 26  1  0  0  0  0
 11 26  2  0  0  0  0
 12 28  1  0  0  0  0
 13 27  1  0  0  0  0
 14 27  2  0  0  0  0
 15 16  2  0  0  0  0
 15 29  1  0  0  0  0
 16 30  1  0  0  0  0
 17 24  1  0  0  0  0
 17 28  2  0  0  0  0
 18 30  2  0  0  0  0
 18 31  1  0  0  0  0
 19 32  1  0  0  0  0
 20 32  1  0  0  0  0
 20 33  2  0  0  0  0
 20 34  1  0  0  0  0
 21 23  2  0  0  0  0
 21 39  1  0  0  0  0
 22 24  2  0  0  0  0
 22 40  1  0  0  0  0
 23 48  1  0  0  0  0
 24 41  1  0  0  0  0
 25 65  1  0  0  0  0
 26 75  1  0  0  0  0
 27 74  1  0  0  0  0
 28 74  1  0  0  0  0
 29 31  2  0  0  0  0
 29 75  1  0  0  0  0
 30 76  1  0  0  0  0
 31 77  1  0  0  0  0
 32 59  2  0  0  0  0
 33 60  1  0  0  0  0
 33 63  1  0  0  0  0
 34 64  1  0  0  0  0
 34 69  2  0  0  0  0
 35 49  1  0  0  0  0
 35 66  1  0  0  0  0
 35 70  2  0  0  0  0
 36 56  1  0  0  0  0
 36 61  1  0  0  0  0
 36 71  2  0  0  0  0
 37 57  1  0  0  0  0
 37 67  1  0  0  0  0
 37 72  2  0  0  0  0
 38 62  1  0  0  0  0
 38 65  1  0  0  0  0
 38 73  2  0  0  0  0
 39 42  1  0  0  0  0
 40 49  1  0  0  0  0
 41 61  1  0  0  0  0
 42 44  1  0  0  0  0
 43 45  1  0  0  0  0
 43 46  1  0  0  0  0
 44 48  1  0  0  0  0
 45 50  1  0  0  0  0
 46 62  1  0  0  0  0
 47 50  1  0  0  0  0
 47 62  1  0  0  0  0
 48 66  1  0  0  0  0
 49 61  1  0  0  0  0
 50 60  1  0  0  0  0
 51 57  1  0  0  0  0
 52 58  1  0  0  0  0
 53 58  1  0  0  0  0
 54 58  1  0  0  0  0
 55 68  1  0  0  0  0
 56 58  1  0  0  0  0
 56 67  1  0  0  0  0
 57 68  1  0  0  0  0
 59 60  1  0  0  0  0
M  CHG  1  68   1
M  ISO  4  27 101  38 100  65 100  74 101
M  END
> <Batch ID>
0002

> <Smiles>
CNC(C)C(=O)NC(C(=O)N1Cc2cc([101O:1][101c:1]3ccc([100NH:0][100C:0](=O)N4CCCC(n5nc(-c6ccc(Oc7ccc(F)cc7F)cc6)c(C(N)=O)c5N)C4)cc3)ccc2CC1C(=O)NC1CCCc2ccccc21)C(C)(C)C

> <Shape>
0.307

> <Color>
0.082

> <Negative vol penalty>
0.000

$$$$

  -OEChem-04052315183D

 84 92  0     1  0  0  0  0  0999 V2000
  -30.8550  -37.2270   27.6564 C   0  0  0  0  0  0  0  0  0  0  0  0
  -30.8921  -35.8391   27.5688 C   0  0  0  0  0  0  0  0  0  0  0  0
  -23.0660   -9.8748   19.9467 C   0  0  0  0  0  0  0  0  0  0  0  0
  -23.8402   -9.8752   22.2353 C   0  0  0  0  0  0  0  0  0  0  0  0
  -30.0571  -37.9587   26.7779 C   0  0  0  0  0  0  0  0  0  0  0  0
  -30.1302  -35.1819   26.6033 C   0  0  0  0  0  0  0  0  0  0  0  0
  -31.6274  -30.0673   23.5859 C   0  0  0  0  0  0  0  0  0  0  0  0
  -31.3266  -19.0758   20.5815 C   0  0  0  0  0  0  0  0  0  0  0  0
  -29.7068  -19.2618   22.3645 C   0  0  0  0  0  0  0  0  0  0  0  0
  -31.1567  -17.6914   20.5716 C   0  0  0  0  0  0  0  0  0  0  0  0
  -29.5369  -17.8773   22.3545 C   0  0  0  0  0  0  0  0  0  0  0  0
  -22.3219   -8.7222   20.1986 C   0  0  0  0  0  0  0  0  0  0  0  0
  -23.0961   -8.7226   22.4873 C   0  0  0  0  0  0  0  0  0  0  0  0
  -31.2814  -28.7303   23.7767 C   0  0  0  0  0  0  0  0  0  0  0  0
  -19.8706   -7.9283   23.1081 C   0  0  0  0  0  0  0  0  0  0  0  0
  -19.1209   -7.8868   24.2836 C   0  0  0  0  0  0  0  0  0  0  0  0
  -29.5191  -28.9598   22.1455 C   0  0  0  0  0  0  0  0  0  0  0  0
  -20.3639   -5.9457   25.0077 C   0  0  0  0  0  0  0  0  0  0  0  0
  -23.8252  -10.4513   20.9651 C   0  0  0  0  0  0  0  0  0  0  0  0
  -24.1702  -12.9762   20.8489 C   0  0  0  0  0  0  0  0  0  0  0  0
  -29.2925  -37.3108   25.7949 C   0  0  0  0  0  0  0  0  0  0  0  0
  -30.9137  -30.8649   22.6799 C   0  0  0  0  0  0  0  0  0  0  0  0
  -29.3202  -35.9056   25.7117 C   0  0  0  0  0  0  0  0  0  0  0  0
  -29.8597  -30.3060   21.9431 C   0  0  0  0  0  0  0  0  0  0  0  0
  -30.6017  -19.8610   21.4780 C   0  0  0  0  0  0  0  0  0  0  0  0
  -30.2619  -17.0922   21.4580 C   0  0  0  0  0  0  0  0  0  0  0  0
  -22.3370   -8.1461   21.4689 C   0  0  0  0  0  0  0  0  0  0  0  0
  -30.2252  -28.1771   23.0586 C   0  0  0  0  0  0  0  0  0  0  0  0
  -20.8669   -6.9785   22.8823 C   0  0  0  0  0  0  0  0  0  0  0  0
  -19.3676   -6.8955   25.2334 C   0  0  0  0  0  0  0  0  0  0  0  0
  -21.1136   -5.9872   23.8321 C   0  0  0  0  0  0  0  0  0  0  0  0
  -24.5945  -11.6416   20.7054 C   0  0  0  0  0  0  0  0  0  0  0  0
  -25.2612  -13.7249   20.4806 C   0  0  0  0  0  0  0  0  0  0  0  0
  -30.5935  -23.5783   22.0099 C   0  0  0  0  0  0  0  0  0  0  0  0
  -30.0905  -24.6089   22.7004 C   0  0  0  0  0  0  0  0  0  0  0  0
  -22.9031  -13.4930   21.2770 C   0  0  0  0  0  0  0  0  0  0  0  0
  -30.1366  -22.1876   22.3098 C   0  0  0  0  0  0  0  0  0  0  0  0
  -30.5524  -25.9823   22.3933 C   0  0  0  0  0  0  0  0  0  1  0  0
  -29.1438  -33.4945   22.9173 C   0  0  0  0  0  0  0  0  0  0  0  0
  -29.1140  -33.2975   19.6796 C   0  0  0  0  0  0  0  0  0  0  0  0
  -29.4127  -31.3505   16.8927 C   0  0  0  0  0  0  0  0  0  0  0  0
  -30.7300  -14.7617   20.6236 C   0  0  0  0  0  0  0  0  0  0  0  0
  -28.4086  -38.1413   24.8984 C   0  0  0  0  0  0  0  0  0  0  0  0
  -31.3166  -32.2982   22.4659 C   0  0  0  0  0  0  0  0  0  0  0  0
  -29.0749  -31.1142   20.9435 C   0  0  0  0  0  0  0  0  0  0  0  0
  -27.9208  -37.3924   23.6608 C   0  0  0  0  0  0  0  0  0  0  0  0
  -29.5971  -12.3552   18.2566 C   0  0  0  0  0  0  0  0  0  0  0  0
  -27.4101  -36.0066   24.0423 C   0  0  0  0  0  0  0  0  0  0  0  0
  -28.1597  -12.0648   18.6945 C   0  0  0  0  0  0  0  0  0  0  0  0
  -30.5200  -12.5798   19.4531 C   0  0  0  0  0  0  0  0  0  0  0  0
  -28.6229  -13.3039   20.8479 C   0  0  0  0  0  0  0  0  0  0  0  0
  -28.5271  -35.1581   24.6618 C   0  0  1  0  0  0  0  0  0  0  0  0
  -30.1918  -33.1562   21.8951 C   0  0  1  0  0  0  0  0  0  0  0  0
  -27.6424  -13.1349   19.6758 C   0  0  2  0  0  0  0  0  0  0  0  0
  -29.3010  -31.4653   14.3884 C   0  0  0  0  0  0  0  0  0  0  0  0
  -26.0693  -33.4346   19.8242 C   0  0  0  0  0  0  0  0  0  0  0  0
  -25.9893  -32.6024   17.4643 C   0  0  0  0  0  0  0  0  0  0  0  0
  -27.0879  -34.7819   17.9798 C   0  0  0  0  0  0  0  0  0  0  0  0
  -32.2228  -30.4656   16.6109 C   0  0  0  0  0  0  0  0  0  0  0  0
  -28.2269  -32.6289   18.6574 C   0  0  1  0  0  0  0  0  0  0  0  0
  -30.2028  -31.5414   15.6106 C   0  0  2  0  0  0  0  0  0  0  0  0
  -26.8567  -33.3470   18.5016 C   0  0  0  0  0  0  0  0  0  0  0  0
  -25.8566  -11.5448   20.2789 N   0  0  0  0  0  0  0  0  0  0  0  0
  -26.2346  -12.8281   20.1513 N   0  0  0  0  0  0  0  0  0  0  0  0
  -29.5030  -32.5127   20.7745 N   0  0  0  0  0  0  0  0  0  0  0  0
  -29.9681  -13.6094   20.3363 N   0  0  0  0  0  0  0  0  0  0  0  0
  -25.4732  -15.0562   20.4094 N   0  0  0  0  0  0  0  0  0  0  0  0
  -21.8919  -12.5846   21.6184 N   0  0  0  0  0  0  0  0  0  0  0  0
  -30.7743  -21.2670   21.4886 N   0  0  0  0  0  0  0  0  0  0  0  0
  -30.0891  -15.6858   21.4482 N   0  0  0  0  0  0  0  0  0  0  0  0
  -29.4057  -34.6486   23.6307 N   0  0  0  0  0  0  0  0  0  0  0  0
  -29.0063  -32.5553   17.4263 N   0  0  0  0  0  0  0  0  0  0  0  0
  -31.2516  -30.4900   15.4870 N   0  3  0  0  0  0  0  0  0  0  0  0
  -22.6691  -14.7238   21.3387 O   0  0  0  0  0  0  0  0  0  0  0  0
  -29.3045  -21.9653   23.1815 O   0  0  0  0  0  0  0  0  0  0  0  0
  -31.3764  -26.2787   21.5419 O   0  0  0  0  0  0  0  0  0  0  0  0
  -28.1691  -32.7635   23.0481 O   0  0  0  0  0  0  0  0  0  0  0  0
  -29.4553  -34.4706   19.5093 O   0  0  0  0  0  0  0  0  0  0  0  0
  -29.1764  -30.2433   17.3709 O   0  0  0  0  0  0  0  0  0  0  0  0
  -31.8564  -14.9298   20.1493 O   0  0  0  0  0  0  0  0  0  0  0  0
  -21.6108   -7.0216   21.7151 O   0  0  0  0  0  0  0  0  0  0  0  0
  -29.8850  -26.8726   23.2435 O   0  0  0  0  0  0  0  0  0  1  0  0
  -18.6486   -6.8566   26.3629 F   0  0  0  0  0  0  0  0  0  0  0  0
  -22.0702   -5.0727   23.6213 F   0  0  0  0  0  0  0  0  0  0  0  0
  1  2  1  0  0  0  0
  1  5  2  0  0  0  0
  2  6  2  0  0  0  0
  3 12  2  0  0  0  0
  3 19  1  0  0  0  0
  4 13  1  0  0  0  0
  4 19  2  0  0  0  0
  5 21  1  0  0  0  0
  6 23  1  0  0  0  0
  7 14  2  0  0  0  0
  7 22  1  0  0  0  0
  8 10  2  0  0  0  0
  8 25  1  0  0  0  0
  9 11  1  0  0  0  0
  9 25  2  0  0  0  0
 10 26  1  0  0  0  0
 11 26  2  0  0  0  0
 12 27  1  0  0  0  0
 13 27  2  0  0  0  0
 14 28  1  0  0  0  0
 15 16  2  0  0  0  0
 15 29  1  0  0  0  0
 16 30  1  0  0  0  0
 17 24  1  0  0  0  0
 17 28  2  0  0  0  0
 18 30  2  0  0  0  0
 18 31  1  0  0  0  0
 19 32  1  0  0  0  0
 20 32  1  0  0  0  0
 20 33  2  0  0  0  0
 20 36  1  0  0  0  0
 21 23  2  0  0  0  0
 21 43  1  0  0  0  0
 22 24  2  0  0  0  0
 22 44  1  0  0  0  0
 23 52  1  0  0  0  0
 24 45  1  0  0  0  0
 25 69  1  0  0  0  0
 26 70  1  0  0  0  0
 27 81  1  0  0  0  0
 28 82  1  0  0  0  0
 29 31  2  0  0  0  0
 29 81  1  0  0  0  0
 30 83  1  0  0  0  0
 31 84  1  0  0  0  0
 32 63  2  0  0  0  0
 33 64  1  0  0  0  0
 33 67  1  0  0  0  0
 34 35  2  0  0  0  0
 34 37  1  0  0  0  0
 35 38  1  0  0  0  0
 36 68  1  0  0  0  0
 36 74  2  0  0  0  0
 37 69  1  0  0  0  0
 37 75  2  0  0  0  0
 38 76  2  0  0  0  0
 38 82  1  0  0  0  0
 39 53  1  0  0  0  0
 39 71  1  0  0  0  0
 39 77  2  0  0  0  0
 40 60  1  0  0  0  0
 40 65  1  0  0  0  0
 40 78  2  0  0  0  0
 41 61  1  0  0  0  0
 41 72  1  0  0  0  0
 41 79  2  0  0  0  0
 42 66  1  0  0  0  0
 42 70  1  0  0  0  0
 42 80  2  0  0  0  0
 43 46  1  0  0  0  0
 44 53  1  0  0  0  0
 45 65  1  0  0  0  0
 46 48  1  0  0  0  0
 47 49  1  0  0  0  0
 47 50  1  0  0  0  0
 48 52  1  0  0  0  0
 49 54  1  0  0  0  0
 50 66  1  0  0  0  0
 51 54  1  0  0  0  0
 51 66  1  0  0  0  0
 52 71  1  0  0  0  0
 53 65  1  0  0  0  0
 54 64  1  0  0  0  0
 55 61  1  0  0  0  0
 56 62  1  0  0  0  0
 57 62  1  0  0  0  0
 58 62  1  0  0  0  0
 59 73  1  0  0  0  0
 60 62  1  0  0  0  0
 60 72  1  0  0  0  0
 61 73  1  0  0  0  0
 63 64  1  0  0  0  0
M  CHG  1  73   1
M  ISO  4  38 101  42 100  70 100  82 101
M  END
> <Batch ID>
0002

> <Smiles>
CNC(C)C(=O)NC(C(=O)N1Cc2cc([101O:1][101C:1](=O)C=CC(=O)Nc3ccc([100NH:0][100C:0](=O)N4CCCC(n5nc(-c6ccc(Oc7ccc(F)cc7F)cc6)c(C(N)=O)c5N)C4)cc3)ccc2CC1C(=O)NC1CCCc2ccccc21)C(C)(C)C

> <Shape>
0.216

> <Color>
0.192

> <Negative vol penalty>
0.000

$$$$

  -OEChem-04052315183D

 90 98  0     1  0  0  0  0  0999 V2000
  -27.4957  -37.0231   23.0214 C   0  0  0  0  0  0  0  0  0  0  0  0
  -27.8466  -35.7119   23.3265 C   0  0  0  0  0  0  0  0  0  0  0  0
  -25.1539  -19.3800   25.2144 C   0  0  0  0  0  0  0  0  0  0  0  0
  -24.5139  -10.2756   22.3930 C   0  0  0  0  0  0  0  0  0  0  0  0
  -24.5912  -11.7604   24.2973 C   0  0  0  0  0  0  0  0  0  0  0  0
  -26.1589  -37.3526   22.8014 C   0  0  0  0  0  0  0  0  0  0  0  0
  -26.8607  -34.7296   23.4129 C   0  0  0  0  0  0  0  0  0  0  0  0
  -27.3822  -28.8399   21.8174 C   0  0  0  0  0  0  0  0  0  0  0  0
  -24.9049  -18.0516   24.8698 C   0  0  0  0  0  0  0  0  0  0  0  0
  -26.4647  -19.8166   25.4071 C   0  0  0  0  0  0  0  0  0  0  0  0
  -24.1176   -9.2288   23.2253 C   0  0  0  0  0  0  0  0  0  0  0  0
  -24.1949  -10.7136   25.1296 C   0  0  0  0  0  0  0  0  0  0  0  0
  -27.6261  -27.6852   22.5595 C   0  0  0  0  0  0  0  0  0  0  0  0
  -21.2757   -8.1796   24.7271 C   0  0  0  0  0  0  0  0  0  0  0  0
  -20.2253   -7.3700   24.2950 C   0  0  0  0  0  0  0  0  0  0  0  0
  -25.2542  -27.2585   22.6641 C   0  0  0  0  0  0  0  0  0  0  0  0
  -27.2772  -17.5962   24.9107 C   0  0  0  0  0  0  0  0  0  0  0  0
  -21.6826   -5.4441   24.3613 C   0  0  0  0  0  0  0  0  0  0  0  0
  -24.7508  -11.5414   22.9291 C   0  0  0  0  0  0  0  0  0  0  0  0
  -24.3275  -13.5341   21.3936 C   0  0  0  0  0  0  0  0  0  0  0  0
  -25.1572  -36.3719   22.8757 C   0  0  0  0  0  0  0  0  0  0  0  0
  -26.0695  -29.2191   21.5018 C   0  0  0  0  0  0  0  0  0  0  0  0
  -25.5091  -35.0465   23.1951 C   0  0  0  0  0  0  0  0  0  0  0  0
  -24.9964  -28.4171   21.9157 C   0  0  0  0  0  0  0  0  0  0  0  0
  -25.9665  -17.1596   24.7179 C   0  0  0  0  0  0  0  0  0  0  0  0
  -27.5263  -18.9246   25.2553 C   0  0  0  0  0  0  0  0  0  0  0  0
  -23.9581   -9.4478   24.5936 C   0  0  0  0  0  0  0  0  0  0  0  0
  -26.5619  -26.8958   22.9855 C   0  0  0  0  0  0  0  0  0  0  0  0
  -22.5296   -7.6215   24.9763 C   0  0  0  0  0  0  0  0  0  0  0  0
  -20.4287   -6.0022   24.1121 C   0  0  0  0  0  0  0  0  0  0  0  0
  -22.7330   -6.2538   24.7934 C   0  0  0  0  0  0  0  0  0  0  0  0
  -25.1607  -12.6231   22.0699 C   0  0  0  0  0  0  0  0  0  0  0  0
  -25.1953  -14.3569   20.7180 C   0  0  0  0  0  0  0  0  0  0  0  0
  -22.8969  -13.6284   21.3777 C   0  0  0  0  0  0  0  0  0  0  0  0
  -24.2403  -31.7330   22.1637 C   0  0  0  0  0  0  0  0  0  0  0  0
  -22.1815  -30.2823   20.1194 C   0  0  0  0  0  0  0  0  0  0  0  0
  -21.1284  -27.3982   18.6295 C   0  0  0  0  0  0  0  0  0  0  0  0
  -29.1581  -20.9096   25.1108 C   0  0  0  0  0  0  0  0  0  0  0  0
  -29.8474  -17.4349   20.5480 C   0  0  0  0  0  0  0  0  0  0  0  0
  -23.7205  -36.7852   22.6766 C   0  0  0  0  0  0  0  0  0  0  0  0
  -25.8247  -30.4533   20.6777 C   0  0  0  0  0  0  0  0  0  0  0  0
  -23.5697  -28.7695   21.5857 C   0  0  0  0  0  0  0  0  0  0  0  0
  -22.7793  -35.6115   22.4182 C   0  0  0  0  0  0  0  0  0  0  0  0
  -30.1730  -13.9457   19.9182 C   0  0  0  0  0  0  0  0  0  0  0  0
  -23.0425  -34.4868   23.4144 C   0  0  0  0  0  0  0  0  0  0  0  0
  -28.8323  -13.3655   20.3717 C   0  0  0  0  0  0  0  0  0  0  0  0
  -30.6221  -15.0971   20.8152 C   0  0  0  0  0  0  0  0  0  0  0  0
  -28.2894  -15.5957   21.4349 C   0  0  0  0  0  0  0  0  0  0  0  0
  -24.4712  -33.9480   23.2734 C   0  0  1  0  0  0  0  0  0  0  0  0
  -24.4191  -31.0199   20.8533 C   0  0  1  0  0  0  0  0  0  0  0  0
  -27.7679  -14.4683   20.5275 C   0  0  2  0  0  0  0  0  0  0  0  0
  -25.6994  -15.7397   24.3480 C   0  0  0  0  0  0  0  0  0  0  0  0
  -19.3994  -26.5219   17.0358 C   0  0  0  0  0  0  0  0  0  0  0  0
  -29.2458  -19.2235   26.9876 C   0  0  0  0  0  0  0  0  0  0  0  0
  -30.0648  -18.5899   24.7434 C   0  0  0  0  0  0  0  0  0  0  0  0
  -20.0688  -30.4682   22.3130 C   0  0  0  0  0  0  0  0  0  0  0  0
  -18.7158  -28.7773   21.0566 C   0  0  0  0  0  0  0  0  0  0  0  0
  -19.2327  -30.9833   20.0130 C   0  0  0  0  0  0  0  0  0  0  0  0
  -23.1907  -26.4708   16.7201 C   0  0  0  0  0  0  0  0  0  0  0  0
  -29.3769  -20.5854   21.5004 C   0  0  0  0  0  0  0  0  0  0  0  0
  -27.8299  -23.6029   23.7571 C   0  0  0  0  0  0  0  0  0  0  0  0
  -28.9218  -19.7265   20.3225 C   0  0  0  0  0  0  0  0  0  0  0  0
  -28.4102  -20.5774   22.6823 C   0  0  0  0  0  0  0  0  0  0  0  0
  -29.0871  -22.7795   23.5117 C   0  0  0  0  0  0  0  0  0  0  0  0
  -28.0273  -25.0864   23.4698 C   0  0  0  0  0  0  0  0  0  1  0  0
  -21.0729  -29.2673   20.2598 C   0  0  1  0  0  0  0  0  0  0  0  0
  -20.8104  -27.0703   17.1819 C   0  0  2  0  0  0  0  0  0  0  0  0
  -28.9681  -19.4048   25.4680 C   0  0  0  0  0  0  0  0  0  0  0  0
  -19.7992  -29.8681   20.9187 C   0  0  0  0  0  0  0  0  0  0  0  0
  -26.4583  -12.8456   21.8443 N   0  0  0  0  0  0  0  0  0  0  0  0
  -26.4468  -13.9059   21.0187 N   0  0  0  0  0  0  0  0  0  0  0  0
  -23.3814  -29.9892   20.7830 N   0  0  0  0  0  0  0  0  0  0  0  0
  -29.5683  -16.1094   20.9198 N   0  0  0  0  0  0  0  0  0  0  0  0
  -25.0022  -15.4148   19.9019 N   0  0  0  0  0  0  0  0  0  0  0  0
  -22.1580  -12.7035   22.1279 N   0  0  0  0  0  0  0  0  0  0  0  0
  -24.5708  -33.0742   22.1241 N   0  0  0  0  0  0  0  0  0  0  0  0
  -20.8529  -28.7161   18.9271 N   0  0  0  0  0  0  0  0  0  0  0  0
  -28.7914  -18.3294   20.6718 N   0  0  0  0  0  0  0  0  0  0  0  0
  -28.8954  -21.3870   23.8091 N   0  0  0  0  0  0  0  0  0  0  0  0
  -21.7663  -26.0535   16.6590 N   0  3  0  0  0  0  0  0  0  0  0  0
  -22.2913  -14.4966   20.7046 O   0  0  0  0  0  0  0  0  0  0  0  0
  -23.8314  -31.1128   23.1382 O   0  0  0  0  0  0  0  0  0  0  0  0
  -21.9924  -31.2943   19.4400 O   0  0  0  0  0  0  0  0  0  0  0  0
  -21.5731  -26.5673   19.4185 O   0  0  0  0  0  0  0  0  0  0  0  0
  -29.5664  -21.6821   25.9898 O   0  0  0  0  0  0  0  0  0  0  0  0
  -30.9541  -17.7933   20.1312 O   0  0  0  0  0  0  0  0  0  0  0  0
  -23.5712   -8.4266   25.4060 O   0  0  0  0  0  0  0  0  0  0  0  0
  -26.7972  -25.7685   23.7105 O   0  0  0  0  0  0  0  0  0  1  0  0
  -19.4195   -5.2245   23.6986 F   0  0  0  0  0  0  0  0  0  0  0  0
  -23.9350   -5.7117   25.0323 F   0  0  0  0  0  0  0  0  0  0  0  0
  1  2  1  0  0  0  0
  1  6  2  0  0  0  0
  2  7  2  0  0  0  0
  3  9  1  0  0  0  0
  3 10  2  0  0  0  0
  4 11  2  0  0  0  0
  4 19  1  0  0  0  0
  5 12  1  0  0  0  0
  5 19  2  0  0  0  0
  6 21  1  0  0  0  0
  7 23  1  0  0  0  0
  8 13  2  0  0  0  0
  8 22  1  0  0  0  0
  9 25  2  0  0  0  0
 10 26  1  0  0  0  0
 11 27  1  0  0  0  0
 12 27  2  0  0  0  0
 13 28  1  0  0  0  0
 14 15  2  0  0  0  0
 14 29  1  0  0  0  0
 15 30  1  0  0  0  0
 16 24  1  0  0  0  0
 16 28  2  0  0  0  0
 17 25  1  0  0  0  0
 17 26  2  0  0  0  0
 18 30  2  0  0  0  0
 18 31  1  0  0  0  0
 19 32  1  0  0  0  0
 20 32  1  0  0  0  0
 20 33  2  0  0  0  0
 20 34  1  0  0  0  0
 21 23  2  0  0  0  0
 21 40  1  0  0  0  0
 22 24  2  0  0  0  0
 22 41  1  0  0  0  0
 23 49  1  0  0  0  0
 24 42  1  0  0  0  0
 25 52  1  0  0  0  0
 26 68  1  0  0  0  0
 27 87  1  0  0  0  0
 28 88  1  0  0  0  0
 29 31  2  0  0  0  0
 29 87  1  0  0  0  0
 30 89  1  0  0  0  0
 31 90  1  0  0  0  0
 32 70  2  0  0  0  0
 33 71  1  0  0  0  0
 33 74  1  0  0  0  0
 34 75  1  0  0  0  0
 34 81  2  0  0  0  0
 35 50  1  0  0  0  0
 35 76  1  0  0  0  0
 35 82  2  0  0  0  0
 36 66  1  0  0  0  0
 36 72  1  0  0  0  0
 36 83  2  0  0  0  0
 37 67  1  0  0  0  0
 37 77  1  0  0  0  0
 37 84  2  0  0  0  0
 38 68  1  0  0  0  0
 38 79  1  0  0  0  0
 38 85  2  0  0  0  0
 39 73  1  0  0  0  0
 39 78  1  0  0  0  0
 39 86  2  0  0  0  0
 40 43  1  0  0  0  0
 41 50  1  0  0  0  0
 42 72  1  0  0  0  0
 43 45  1  0  0  0  0
 44 46  1  0  0  0  0
 44 47  1  0  0  0  0
 45 49  1  0  0  0  0
 46 51  1  0  0  0  0
 47 73  1  0  0  0  0
 48 51  1  0  0  0  0
 48 73  1  0  0  0  0
 49 76  1  0  0  0  0
 50 72  1  0  0  0  0
 51 71  1  0  0  0  0
 53 67  1  0  0  0  0
 54 68  1  0  0  0  0
 55 68  1  0  0  0  0
 56 69  1  0  0  0  0
 57 69  1  0  0  0  0
 58 69  1  0  0  0  0
 59 80  1  0  0  0  0
 60 62  1  0  0  0  0
 60 63  1  0  0  0  0
 61 64  1  0  0  0  0
 61 65  1  0  0  0  0
 62 78  1  0  0  0  0
 63 79  1  0  0  0  0
 64 79  1  0  0  0  0
 65 88  1  0  0  0  0
 66 69  1  0  0  0  0
 66 77  1  0  0  0  0
 67 80  1  0  0  0  0
 70 71  1  0  0  0  0
M  CHG  1  80   1
M  ISO  4  39 100  65 101  78 100  88 101
M  END
> <Batch ID>
0002

> <Smiles>
CNC(C)C(=O)NC(C(=O)N1Cc2cc([101O:1][101CH2:1]CCN(CCC[100NH:0][100C:0](=O)N3CCCC(n4nc(-c5ccc(Oc6ccc(F)cc6F)cc5)c(C(N)=O)c4N)C3)C(=O)C(C)(C)c3cccc(C)c3)ccc2CC1C(=O)NC1CCCc2ccccc21)C(C)(C)C

> <Shape>
0.231

> <Color>
0.102

> <Negative vol penalty>
0.000

$$$$

  -OEChem-04052315183D

 87 95  0     1  0  0  0  0  0999 V2000
  -28.5890  -33.1324   25.0372 C   0  0  0  0  0  0  0  0  0  0  0  0
  -28.8020  -31.7946   24.7203 C   0  0  0  0  0  0  0  0  0  0  0  0
  -22.7806  -11.4099   24.0736 C   0  0  0  0  0  0  0  0  0  0  0  0
  -22.0253  -10.5762   21.9355 C   0  0  0  0  0  0  0  0  0  0  0  0
  -27.3021  -33.6654   24.9773 C   0  0  0  0  0  0  0  0  0  0  0  0
  -27.7279  -30.9887   24.3445 C   0  0  0  0  0  0  0  0  0  0  0  0
  -28.7780  -28.1069   20.3149 C   0  0  0  0  0  0  0  0  0  0  0  0
  -31.0240  -19.0886   19.4322 C   0  0  0  0  0  0  0  0  0  0  0  0
  -22.3492  -10.2328   24.6850 C   0  0  0  0  0  0  0  0  0  0  0  0
  -21.5940   -9.3990   22.5469 C   0  0  0  0  0  0  0  0  0  0  0  0
  -29.5490  -26.9657   20.5318 C   0  0  0  0  0  0  0  0  0  0  0  0
  -31.2677  -20.4620   19.4293 C   0  0  0  0  0  0  0  0  0  0  0  0
  -20.6210   -6.0245   23.4872 C   0  0  0  0  0  0  0  0  0  0  0  0
  -20.9303   -4.8168   22.8615 C   0  0  0  0  0  0  0  0  0  0  0  0
  -27.5486  -25.6178   20.5115 C   0  0  0  0  0  0  0  0  0  0  0  0
  -29.0594  -20.8520   18.5301 C   0  0  0  0  0  0  0  0  0  0  0  0
  -23.2854   -5.3204   23.0539 C   0  0  0  0  0  0  0  0  0  0  0  0
  -22.6186  -11.5817   22.6989 C   0  0  0  0  0  0  0  0  0  0  0  0
  -24.3339  -13.0547   21.5176 C   0  0  0  0  0  0  0  0  0  0  0  0
  -26.2131  -32.8681   24.5912 C   0  0  0  0  0  0  0  0  0  0  0  0
  -27.3832  -28.0133   20.2054 C   0  0  0  0  0  0  0  0  0  0  0  0
  -26.4250  -31.5113   24.2807 C   0  0  0  0  0  0  0  0  0  0  0  0
  -26.7624  -26.7589   20.2907 C   0  0  0  0  0  0  0  0  0  0  0  0
  -29.7981  -18.5969   18.9839 C   0  0  0  0  0  0  0  0  0  0  0  0
  -28.8158  -19.4785   18.5329 C   0  0  0  0  0  0  0  0  0  0  0  0
  -21.7560   -9.2273   23.9217 C   0  0  0  0  0  0  0  0  0  0  0  0
  -28.9340  -25.7213   20.6330 C   0  0  0  0  0  0  0  0  0  0  0  0
  -30.2854  -21.3437   18.9783 C   0  0  0  0  0  0  0  0  0  0  0  0
  -21.6439   -6.8801   23.8962 C   0  0  0  0  0  0  0  0  0  0  0  0
  -22.2625   -4.4648   22.6448 C   0  0  0  0  0  0  0  0  0  0  0  0
  -22.9761   -6.5281   23.6796 C   0  0  0  0  0  0  0  0  0  0  0  0
  -23.0634  -12.7977   22.0668 C   0  0  0  0  0  0  0  0  0  0  0  0
  -24.2496  -14.3414   21.0447 C   0  0  0  0  0  0  0  0  0  0  0  0
  -25.4871  -12.2062   21.4416 C   0  0  0  0  0  0  0  0  0  0  0  0
  -24.9214  -29.1675   21.8519 C   0  0  0  0  0  0  0  0  0  0  0  0
  -23.1935  -27.8446   19.4464 C   0  0  0  0  0  0  0  0  0  0  0  0
  -26.4944  -19.7470   17.5936 C   0  0  0  0  0  0  0  0  0  0  0  0
  -23.0011  -25.5172   16.9577 C   0  0  0  0  0  0  0  0  0  0  0  0
  -21.4992  -18.3473   18.2999 C   0  0  0  0  0  0  0  0  0  0  0  0
  -24.8332  -33.4768   24.5868 C   0  0  0  0  0  0  0  0  0  0  0  0
  -26.5682  -29.2504   19.9448 C   0  0  0  0  0  0  0  0  0  0  0  0
  -25.2702  -26.6021   20.1598 C   0  0  0  0  0  0  0  0  0  0  0  0
  -23.8056  -32.6509   23.8173 C   0  0  0  0  0  0  0  0  0  0  0  0
  -20.6998  -17.8777   21.7375 C   0  0  0  0  0  0  0  0  0  0  0  0
  -23.9094  -31.1781   24.2004 C   0  0  0  0  0  0  0  0  0  0  0  0
  -21.3427  -16.5332   22.0822 C   0  0  0  0  0  0  0  0  0  0  0  0
  -20.1378  -17.8871   20.3176 C   0  0  0  0  0  0  0  0  0  0  0  0
  -21.7416  -16.1535   19.6133 C   0  0  0  0  0  0  0  0  0  0  0  0
  -25.2891  -30.6114   23.8446 C   0  0  1  0  0  0  0  0  0  0  0  0
  -25.1083  -29.1031   20.3624 C   0  0  1  0  0  0  0  0  0  0  0  0
  -22.3724  -16.1142   21.0158 C   0  0  2  0  0  0  0  0  0  0  0  0
  -29.5648  -17.1210   18.9983 C   0  0  0  0  0  0  0  0  0  0  0  0
  -21.4489  -24.6512   15.1862 C   0  0  0  0  0  0  0  0  0  0  0  0
  -21.5822  -26.3748   21.5802 C   0  0  0  0  0  0  0  0  0  0  0  0
  -20.7274  -24.8517   19.7863 C   0  0  0  0  0  0  0  0  0  0  0  0
  -20.2215  -27.2926   19.6932 C   0  0  0  0  0  0  0  0  0  0  0  0
  -24.8836  -26.2397   14.7913 C   0  0  0  0  0  0  0  0  0  0  0  0
  -25.3368  -18.8356   17.2044 C   0  0  0  0  0  0  0  0  0  0  0  0
  -24.1148  -19.5813   16.6641 C   0  0  0  0  0  0  0  0  0  0  0  0
  -22.9432  -18.6689   16.3073 C   0  0  0  0  0  0  0  0  0  0  0  0
  -31.0133  -24.6084   20.3260 C   0  0  0  0  0  0  0  0  0  1  0  0
  -31.4099  -23.1879   19.9733 C   0  0  0  0  0  0  0  0  0  0  0  0
  -22.5682  -26.4933   19.1970 C   0  0  1  0  0  0  0  0  0  0  0  0
  -22.5699  -25.6277   15.5064 C   0  0  2  0  0  0  0  0  0  0  0  0
  -21.3028  -26.2560   20.0686 C   0  0  0  0  0  0  0  0  0  0  0  0
  -22.2330  -13.8377   21.9541 N   0  0  0  0  0  0  0  0  0  0  0  0
  -22.9832  -14.7607   21.3286 N   0  0  0  0  0  0  0  0  0  0  0  0
  -24.5160  -27.8420   19.9119 N   0  0  0  0  0  0  0  0  0  0  0  0
  -21.1648  -17.4821   19.3548 N   0  0  0  0  0  0  0  0  0  0  0  0
  -25.1360  -15.1439   20.4179 N   0  0  0  0  0  0  0  0  0  0  0  0
  -25.4019  -10.9135   21.9766 N   0  0  0  0  0  0  0  0  0  0  0  0
  -27.5816  -19.0053   18.0802 N   0  0  0  0  0  0  0  0  0  0  0  0
  -25.3736  -30.3405   22.4255 N   0  0  0  0  0  0  0  0  0  0  0  0
  -22.3277  -26.4138   17.7602 N   0  0  0  0  0  0  0  0  0  0  0  0
  -22.4867  -17.8893   17.4364 N   0  0  0  0  0  0  0  0  0  0  0  0
  -23.7181  -25.3383   14.6015 N   0  3  0  0  0  0  0  0  0  0  0  0
  -26.5665  -12.5888   20.9296 O   0  0  0  0  0  0  0  0  0  0  0  0
  -24.4037  -28.2235   22.4372 O   0  0  0  0  0  0  0  0  0  0  0  0
  -22.5353  -28.8649   19.2291 O   0  0  0  0  0  0  0  0  0  0  0  0
  -26.4402  -20.9645   17.4558 O   0  0  0  0  0  0  0  0  0  0  0  0
  -23.8477  -24.7133   17.3417 O   0  0  0  0  0  0  0  0  0  0  0  0
  -20.9615  -19.4487   18.1426 O   0  0  0  0  0  0  0  0  0  0  0  0
  -21.3351   -8.0784   24.5179 O   0  0  0  0  0  0  0  0  0  0  0  0
  -29.6841  -24.6059   20.8453 O   0  0  0  0  0  0  0  0  0  1  0  0
  -30.5252  -22.6926   18.9757 O   0  0  0  0  0  0  0  0  0  0  0  0
  -22.5595   -3.3043   22.0454 F   0  0  0  0  0  0  0  0  0  0  0  0
  -23.9631   -7.3455   24.0714 F   0  0  0  0  0  0  0  0  0  0  0  0
  1  2  1  0  0  0  0
  1  5  2  0  0  0  0
  2  6  2  0  0  0  0
  3  9  2  0  0  0  0
  3 18  1  0  0  0  0
  4 10  1  0  0  0  0
  4 18  2  0  0  0  0
  5 20  1  0  0  0  0
  6 22  1  0  0  0  0
  7 11  2  0  0  0  0
  7 21  1  0  0  0  0
  8 12  2  0  0  0  0
  8 24  1  0  0  0  0
  9 26  1  0  0  0  0
 10 26  2  0  0  0  0
 11 27  1  0  0  0  0
 12 28  1  0  0  0  0
 13 14  2  0  0  0  0
 13 29  1  0  0  0  0
 14 30  1  0  0  0  0
 15 23  1  0  0  0  0
 15 27  2  0  0  0  0
 16 25  1  0  0  0  0
 16 28  2  0  0  0  0
 17 30  2  0  0  0  0
 17 31  1  0  0  0  0
 18 32  1  0  0  0  0
 19 32  1  0  0  0  0
 19 33  2  0  0  0  0
 19 34  1  0  0  0  0
 20 22  2  0  0  0  0
 20 40  1  0  0  0  0
 21 23  2  0  0  0  0
 21 41  1  0  0  0  0
 22 49  1  0  0  0  0
 23 42  1  0  0  0  0
 24 25  2  0  0  0  0
 24 52  1  0  0  0  0
 25 72  1  0  0  0  0
 26 83  1  0  0  0  0
 27 84  1  0  0  0  0
 28 85  1  0  0  0  0
 29 31  2  0  0  0  0
 29 83  1  0  0  0  0
 30 86  1  0  0  0  0
 31 87  1  0  0  0  0
 32 66  2  0  0  0  0
 33 67  1  0  0  0  0
 33 70  1  0  0  0  0
 34 71  1  0  0  0  0
 34 77  2  0  0  0  0
 35 50  1  0  0  0  0
 35 73  1  0  0  0  0
 35 78  2  0  0  0  0
 36 63  1  0  0  0  0
 36 68  1  0  0  0  0
 36 79  2  0  0  0  0
 37 58  1  0  0  0  0
 37 72  1  0  0  0  0
 37 80  2  0  0  0  0
 38 64  1  0  0  0  0
 38 74  1  0  0  0  0
 38 81  2  0  0  0  0
 39 69  1  0  0  0  0
 39 75  1  0  0  0  0
 39 82  2  0  0  0  0
 40 43  1  0  0  0  0
 41 50  1  0  0  0  0
 42 68  1  0  0  0  0
 43 45  1  0  0  0  0
 44 46  1  0  0  0  0
 44 47  1  0  0  0  0
 45 49  1  0  0  0  0
 46 51  1  0  0  0  0
 47 69  1  0  0  0  0
 48 51  1  0  0  0  0
 48 69  1  0  0  0  0
 49 73  1  0  0  0  0
 50 68  1  0  0  0  0
 51 67  1  0  0  0  0
 53 64  1  0  0  0  0
 54 65  1  0  0  0  0
 55 65  1  0  0  0  0
 56 65  1  0  0  0  0
 57 76  1  0  0  0  0
 58 59  1  0  0  0  0
 59 60  1  0  0  0  0
 60 75  1  0  0  0  0
 61 62  1  0  0  0  0
 61 84  1  0  0  0  0
 62 85  1  0  0  0  0
 63 65  1  0  0  0  0
 63 74  1  0  0  0  0
 64 76  1  0  0  0  0
 66 67  1  0  0  0  0
M  CHG  1  76   1
M  ISO  4  39 100  61 101  75 100  84 101
M  END
> <Batch ID>
0002

> <Smiles>
CNC(C)C(=O)NC(C(=O)N1Cc2cc([101O:1][101CH2:1]COc3ccc(C)c(NC(=O)CCC[100NH:0][100C:0](=O)N4CCCC(n5nc(-c6ccc(Oc7ccc(F)cc7F)cc6)c(C(N)=O)c5N)C4)c3)ccc2CC1C(=O)NC1CCCc2ccccc21)C(C)(C)C

> <Shape>
0.253

> <Color>
0.075

> <Negative vol penalty>
0.000

$$$$

  -OEChem-04052315183D

 73 80  0     1  0  0  0  0  0999 V2000
  -28.7807  -11.4027   19.8413 C   0  0  0  0  0  0  0  0  0  0  0  0
  -28.8747  -12.6791   19.2960 C   0  0  0  0  0  0  0  0  0  0  0  0
  -25.9114  -28.9143   20.8188 C   0  0  0  0  0  0  0  0  0  0  0  0
  -25.2447  -26.5922   20.8056 C   0  0  0  0  0  0  0  0  0  0  0  0
  -27.5741  -10.9659   20.3863 C   0  0  0  0  0  0  0  0  0  0  0  0
  -27.7616  -13.5191   19.2943 C   0  0  0  0  0  0  0  0  0  0  0  0
  -28.8908  -18.2435   20.7261 C   0  0  0  0  0  0  0  0  0  0  0  0
  -24.5811  -29.2972   20.6476 C   0  0  0  0  0  0  0  0  0  0  0  0
  -23.9144  -26.9751   20.6344 C   0  0  0  0  0  0  0  0  0  0  0  0
  -29.5037  -19.0657   19.7816 C   0  0  0  0  0  0  0  0  0  0  0  0
  -20.2991  -27.3512   20.5553 C   0  0  0  0  0  0  0  0  0  0  0  0
  -19.3346  -26.7145   21.3363 C   0  0  0  0  0  0  0  0  0  0  0  0
  -27.3782  -20.1087   19.3193 C   0  0  0  0  0  0  0  0  0  0  0  0
  -20.4277  -27.5133   23.3374 C   0  0  0  0  0  0  0  0  0  0  0  0
  -26.2432  -27.5618   20.8978 C   0  0  0  0  0  0  0  0  0  0  0  0
  -28.2943  -26.9641   22.2918 C   0  0  0  0  0  0  0  0  0  0  0  0
  -26.4483  -11.8044   20.4000 C   0  0  0  0  0  0  0  0  0  0  0  0
  -27.5128  -18.3403   20.9669 C   0  0  0  0  0  0  0  0  0  0  0  0
  -26.5384  -13.0925   19.8388 C   0  0  0  0  0  0  0  0  0  0  0  0
  -26.7507  -19.2883   20.2692 C   0  0  0  0  0  0  0  0  0  0  0  0
  -23.5826  -28.3276   20.5554 C   0  0  0  0  0  0  0  0  0  0  0  0
  -28.7469  -19.9965   19.0760 C   0  0  0  0  0  0  0  0  0  0  0  0
  -21.3280  -28.0688   21.1653 C   0  0  0  0  0  0  0  0  0  0  0  0
  -19.3988  -26.7956   22.7274 C   0  0  0  0  0  0  0  0  0  0  0  0
  -21.3923  -28.1499   22.5564 C   0  0  0  0  0  0  0  0  0  0  0  0
  -27.6173  -27.1656   21.0741 C   0  0  0  0  0  0  0  0  0  0  0  0
  -29.5659  -26.6003   21.9215 C   0  0  0  0  0  0  0  0  0  0  0  0
  -27.8165  -27.0941   23.6374 C   0  0  0  0  0  0  0  0  0  0  0  0
  -25.0394  -16.3661   20.6693 C   0  0  0  0  0  0  0  0  0  0  0  0
  -23.4301  -18.7916   22.1009 C   0  0  0  0  0  0  0  0  0  0  0  0
  -23.2352  -22.1273   22.7949 C   0  0  0  0  0  0  0  0  0  0  0  0
  -31.8053  -24.0606   16.9833 C   0  0  0  0  0  0  0  0  0  0  0  0
  -25.1525  -11.2708   20.9575 C   0  0  0  0  0  0  0  0  0  0  0  0
  -26.8716  -17.4645   22.0082 C   0  0  0  0  0  0  0  0  0  0  0  0
  -25.2716  -19.4460   20.5052 C   0  0  0  0  0  0  0  0  0  0  0  0
  -24.1234  -12.3586   21.2544 C   0  0  0  0  0  0  0  0  0  0  0  0
  -32.7528  -27.1859   18.4013 C   0  0  0  0  0  0  0  0  0  0  0  0
  -24.0228  -13.3319   20.0842 C   0  0  0  0  0  0  0  0  0  0  0  0
  -31.6052  -27.5169   19.3570 C   0  0  0  0  0  0  0  0  0  0  0  0
  -32.2517  -26.4924   17.1365 C   0  0  0  0  0  0  0  0  0  0  0  0
  -30.2768  -25.6255   18.3290 C   0  0  0  0  0  0  0  0  0  0  0  0
  -25.3600  -14.0420   19.8407 C   0  0  1  0  0  0  0  0  0  0  0  0
  -25.3693  -17.2948   21.8034 C   0  0  1  0  0  0  0  0  0  0  0  0
  -30.7390  -26.2758   19.6442 C   0  0  2  0  0  0  0  0  0  0  0  0
  -21.7856  -23.8170   23.9528 C   0  0  0  0  0  0  0  0  0  0  0  0
  -21.4554  -18.6861   19.7772 C   0  0  0  0  0  0  0  0  0  0  0  0
  -20.6243  -20.9432   20.4723 C   0  0  0  0  0  0  0  0  0  0  0  0
  -20.4056  -19.0030   22.0249 C   0  0  0  0  0  0  0  0  0  0  0  0
  -25.3980  -22.8660   24.6752 C   0  0  0  0  0  0  0  0  0  0  0  0
  -31.2354  -21.6456   16.9357 C   0  0  0  0  0  0  0  0  0  0  0  0
  -30.7465  -20.6355   17.9583 C   0  0  0  0  0  0  0  0  0  1  0  0
  -22.6870  -20.0136   21.6176 C   0  0  1  0  0  0  0  0  0  0  0  0
  -22.9697  -22.8728   24.0904 C   0  0  2  0  0  0  0  0  0  0  0  0
  -21.3206  -19.6574   20.9669 C   0  0  0  0  0  0  0  0  0  0  0  0
  -28.3944  -26.9480   20.0099 N   0  0  0  0  0  0  0  0  0  0  0  0
  -29.5730  -26.6061   20.5576 N   0  0  0  0  0  0  0  0  0  0  0  0
  -24.6895  -18.5623   21.5289 N   0  0  0  0  0  0  0  0  0  0  0  0
  -31.4385  -25.3228   17.4784 N   0  0  0  0  0  0  0  0  0  0  0  0
  -30.6675  -26.2792   22.6327 N   0  0  0  0  0  0  0  0  0  0  0  0
  -26.4833  -27.4765   23.8389 N   0  0  0  0  0  0  0  0  0  0  0  0
  -25.5584  -15.0937   20.8148 N   0  0  0  0  0  0  0  0  0  0  0  0
  -22.5873  -20.9105   22.7639 N   0  0  0  0  0  0  0  0  0  0  0  0
  -30.9843  -23.0048   17.3602 N   0  0  0  0  0  0  0  0  0  0  0  0
  -24.1650  -23.6719   24.4825 N   0  3  0  0  0  0  0  0  0  0  0  0
  -28.5547  -26.8935   24.6315 O   0  0  0  0  0  0  0  0  0  0  0  0
  -24.3627  -16.7733   19.7323 O   0  0  0  0  0  0  0  0  0  0  0  0
  -22.9152  -18.0710   22.9596 O   0  0  0  0  0  0  0  0  0  0  0  0
  -23.9432  -22.5808   21.8985 O   0  0  0  0  0  0  0  0  0  0  0  0
  -32.7944  -23.8864   16.2633 O   0  0  0  0  0  0  0  0  0  0  0  0
  -22.2844  -28.7009   20.3885 O   0  0  0  0  0  0  0  0  0  0  0  0
  -29.3424  -20.7999   18.1530 O   0  0  0  0  0  0  0  0  0  1  0  0
  -18.4716  -26.1855   23.4772 F   0  0  0  0  0  0  0  0  0  0  0  0
  -22.3777  -28.8388   23.1481 F   0  0  0  0  0  0  0  0  0  0  0  0
  1  2  1  0  0  0  0
  1  5  2  0  0  0  0
  2  6  2  0  0  0  0
  3  8  2  0  0  0  0
  3 15  1  0  0  0  0
  4  9  1  0  0  0  0
  4 15  2  0  0  0  0
  5 17  1  0  0  0  0
  6 19  1  0  0  0  0
  7 10  2  0  0  0  0
  7 18  1  0  0  0  0
  8 21  1  0  0  0  0
  9 21  2  0  0  0  0
 10 22  1  0  0  0  0
 11 12  2  0  0  0  0
 11 23  1  0  0  0  0
 12 24  1  0  0  0  0
 13 20  1  0  0  0  0
 13 22  2  0  0  0  0
 14 24  2  0  0  0  0
 14 25  1  0  0  0  0
 15 26  1  0  0  0  0
 16 26  1  0  0  0  0
 16 27  2  0  0  0  0
 16 28  1  0  0  0  0
 17 19  2  0  0  0  0
 17 33  1  0  0  0  0
 18 20  2  0  0  0  0
 18 34  1  0  0  0  0
 19 42  1  0  0  0  0
 20 35  1  0  0  0  0
 21 70  1  0  0  0  0
 22 71  1  0  0  0  0
 23 25  2  0  0  0  0
 23 70  1  0  0  0  0
 24 72  1  0  0  0  0
 25 73  1  0  0  0  0
 26 55  2  0  0  0  0
 27 56  1  0  0  0  0
 27 59  1  0  0  0  0
 28 60  1  0  0  0  0
 28 65  2  0  0  0  0
 29 43  1  0  0  0  0
 29 61  1  0  0  0  0
 29 66  2  0  0  0  0
 30 52  1  0  0  0  0
 30 57  1  0  0  0  0
 30 67  2  0  0  0  0
 31 53  1  0  0  0  0
 31 62  1  0  0  0  0
 31 68  2  0  0  0  0
 32 58  1  0  0  0  0
 32 63  1  0  0  0  0
 32 69  2  0  0  0  0
 33 36  1  0  0  0  0
 34 43  1  0  0  0  0
 35 57  1  0  0  0  0
 36 38  1  0  0  0  0
 37 39  1  0  0  0  0
 37 40  1  0  0  0  0
 38 42  1  0  0  0  0
 39 44  1  0  0  0  0
 40 58  1  0  0  0  0
 41 44  1  0  0  0  0
 41 58  1  0  0  0  0
 42 61  1  0  0  0  0
 43 57  1  0  0  0  0
 44 56  1  0  0  0  0
 45 53  1  0  0  0  0
 46 54  1  0  0  0  0
 47 54  1  0  0  0  0
 48 54  1  0  0  0  0
 49 64  1  0  0  0  0
 50 51  1  0  0  0  0
 50 63  1  0  0  0  0
 51 71  1  0  0  0  0
 52 54  1  0  0  0  0
 52 62  1  0  0  0  0
 53 64  1  0  0  0  0
 55 56  1  0  0  0  0
M  CHG  1  64   1
M  ISO  4  32 100  51 101  63 100  71 101
M  END
> <Batch ID>
0002

> <Smiles>
CNC(C)C(=O)NC(C(=O)N1Cc2cc([101O:1][101CH2:1]C[100NH:0][100C:0](=O)N3CCCC(n4nc(-c5ccc(Oc6ccc(F)cc6F)cc5)c(C(N)=O)c4N)C3)ccc2CC1C(=O)NC1CCCc2ccccc21)C(C)(C)C

> <Shape>
0.226

> <Color>
0.066

> <Negative vol penalty>
0.000

$$$$

  -OEChem-04052315183D

 79 87  0     1  0  0  0  0  0999 V2000
  -31.2636  -25.5411   14.0011 C   0  0  0  0  0  0  0  0  0  0  0  0
  -30.8732  -24.7725   15.0929 C   0  0  0  0  0  0  0  0  0  0  0  0
  -27.7065  -24.2969   29.5194 C   0  0  0  0  0  0  0  0  0  0  0  0
  -29.0967  -24.2600   29.6274 C   0  0  0  0  0  0  0  0  0  0  0  0
  -29.8456  -17.6524   19.5326 C   0  0  0  0  0  0  0  0  0  0  0  0
  -27.7915  -18.2788   20.6395 C   0  0  0  0  0  0  0  0  0  0  0  0
  -31.3326  -26.9289   14.1159 C   0  0  0  0  0  0  0  0  0  0  0  0
  -30.5524  -25.3912   16.3007 C   0  0  0  0  0  0  0  0  0  0  0  0
  -26.2884  -23.6222   20.3249 C   0  0  0  0  0  0  0  0  0  0  0  0
  -27.0785  -23.7403   28.4052 C   0  0  0  0  0  0  0  0  0  0  0  0
  -29.8588  -23.6665   28.6212 C   0  0  0  0  0  0  0  0  0  0  0  0
  -29.2880  -16.4189   19.1959 C   0  0  0  0  0  0  0  0  0  0  0  0
  -27.2339  -17.0454   20.3027 C   0  0  0  0  0  0  0  0  0  0  0  0
  -26.3631  -22.8936   21.5112 C   0  0  0  0  0  0  0  0  0  0  0  0
  -28.6805  -13.4622   20.7167 C   0  0  0  0  0  0  0  0  0  0  0  0
  -29.4634  -12.3238   20.9086 C   0  0  0  0  0  0  0  0  0  0  0  0
  -26.4317  -24.9533   22.7650 C   0  0  0  0  0  0  0  0  0  0  0  0
  -29.3139  -11.8235   18.5497 C   0  0  0  0  0  0  0  0  0  0  0  0
  -29.0973  -18.5823   20.2544 C   0  0  0  0  0  0  0  0  0  0  0  0
  -29.6285  -21.0442   19.8488 C   0  0  0  0  0  0  0  0  0  0  0  0
  -31.0032  -27.5656   15.3229 C   0  0  0  0  0  0  0  0  0  0  0  0
  -26.2958  -25.0243   20.3491 C   0  0  0  0  0  0  0  0  0  0  0  0
  -30.6183  -26.7887   16.4322 C   0  0  0  0  0  0  0  0  0  0  0  0
  -26.3544  -25.6974   21.5778 C   0  0  0  0  0  0  0  0  0  0  0  0
  -27.8406  -23.1468   27.3990 C   0  0  0  0  0  0  0  0  0  0  0  0
  -29.2308  -23.1099   27.5069 C   0  0  0  0  0  0  0  0  0  0  0  0
  -27.9822  -16.1155   19.5810 C   0  0  0  0  0  0  0  0  0  0  0  0
  -26.4376  -23.5591   22.7313 C   0  0  0  0  0  0  0  0  0  0  0  0
  -28.2142  -13.7812   19.4414 C   0  0  0  0  0  0  0  0  0  0  0  0
  -29.7802  -11.5045   19.8251 C   0  0  0  0  0  0  0  0  0  0  0  0
  -28.5310  -12.9618   18.3578 C   0  0  0  0  0  0  0  0  0  0  0  0
  -29.6729  -19.8564   20.6030 C   0  0  0  0  0  0  0  0  0  0  0  0
  -30.3159  -21.9592   20.6083 C   0  0  0  0  0  0  0  0  0  0  0  0
  -29.0203  -21.2979   18.5754 C   0  0  0  0  0  0  0  0  0  0  0  0
  -28.2226  -27.2774   19.2025 C   0  0  0  0  0  0  0  0  0  0  0  0
  -25.8979  -29.2663   20.2805 C   0  0  0  0  0  0  0  0  0  0  0  0
  -23.2913  -29.7844   22.4216 C   0  0  0  0  0  0  0  0  0  0  0  0
  -31.4124  -22.4010   26.4656 C   0  0  0  0  0  0  0  0  0  0  0  0
  -31.1383  -29.0651   15.4130 C   0  0  0  0  0  0  0  0  0  0  0  0
  -26.1877  -25.7957   19.0624 C   0  0  0  0  0  0  0  0  0  0  0  0
  -26.3452  -27.2013   21.6593 C   0  0  0  0  0  0  0  0  0  0  0  0
  -30.4209  -29.6700   16.6170 C   0  0  0  0  0  0  0  0  0  0  0  0
  -33.8264  -22.2501   23.8527 C   0  0  0  0  0  0  0  0  0  0  0  0
  -30.7305  -28.8717   17.8794 C   0  0  0  0  0  0  0  0  0  0  0  0
  -33.0298  -21.7330   22.6526 C   0  0  0  0  0  0  0  0  0  0  0  0
  -33.3691  -21.6024   25.1585 C   0  0  0  0  0  0  0  0  0  0  0  0
  -31.1308  -21.1728   24.2233 C   0  0  0  0  0  0  0  0  0  0  0  0
  -30.2386  -27.4249   17.7518 C   0  0  1  0  0  0  0  0  0  0  0  0
  -26.7214  -27.2205   19.1733 C   0  0  1  0  0  0  0  0  0  0  0  0
  -31.5116  -21.8443   22.8937 C   0  0  2  0  0  0  0  0  0  0  0  0
  -21.6108  -31.5221   23.0952 C   0  0  0  0  0  0  0  0  0  0  0  0
  -28.0659  -30.7628   21.8201 C   0  0  0  0  0  0  0  0  0  0  0  0
  -26.2598  -31.8411   23.1778 C   0  0  0  0  0  0  0  0  0  0  0  0
  -26.3684  -32.2306   20.7163 C   0  0  0  0  0  0  0  0  0  0  0  0
  -21.0191  -28.0582   21.6367 C   0  0  0  0  0  0  0  0  0  0  0  0
  -27.1339  -22.5527   26.2049 C   0  0  0  0  0  0  0  0  0  0  0  0
  -27.2142  -23.4527   24.9766 C   0  0  0  0  0  0  0  0  0  1  0  0
  -25.6180  -29.9771   21.5826 C   0  0  1  0  0  0  0  0  0  0  0  0
  -21.8935  -30.3307   22.1933 C   0  0  2  0  0  0  0  0  0  0  0  0
  -26.5802  -31.1745   21.8229 C   0  0  0  0  0  0  0  0  0  0  0  0
  -30.3362  -20.0006   21.7534 N   0  0  0  0  0  0  0  0  0  0  0  0
  -30.7149  -21.2897   21.7276 N   0  0  0  0  0  0  0  0  0  0  0  0
  -26.2445  -27.9109   20.3733 N   0  0  0  0  0  0  0  0  0  0  0  0
  -31.9213  -21.7508   25.3214 N   0  0  0  0  0  0  0  0  0  0  0  0
  -30.6119  -23.2629   20.4212 N   0  0  0  0  0  0  0  0  0  0  0  0
  -28.3537  -20.2462   17.9320 N   0  0  0  0  0  0  0  0  0  0  0  0
  -30.0226  -22.5118   26.4955 N   0  0  0  0  0  0  0  0  0  0  0  0
  -28.8070  -27.3582   17.9530 N   0  0  0  0  0  0  0  0  0  0  0  0
  -24.2057  -30.3419   21.5532 N   0  0  0  0  0  0  0  0  0  0  0  0
  -20.8747  -29.2790   22.4707 N   0  3  0  0  0  0  0  0  0  0  0  0
  -29.0806  -22.4195   18.0169 O   0  0  0  0  0  0  0  0  0  0  0  0
  -28.8073  -27.2515   20.2792 O   0  0  0  0  0  0  0  0  0  0  0  0
  -25.8051  -29.8889   19.2196 O   0  0  0  0  0  0  0  0  0  0  0  0
  -23.5472  -28.9495   23.2866 O   0  0  0  0  0  0  0  0  0  0  0  0
  -32.1562  -22.8521   27.3403 O   0  0  0  0  0  0  0  0  0  0  0  0
  -27.4377  -14.9121   19.2524 O   0  0  0  0  0  0  0  0  0  0  0  0
  -26.5113  -22.8503   23.8906 O   0  0  0  0  0  0  0  0  0  1  0  0
  -30.5333  -10.4122   20.0092 F   0  0  0  0  0  0  0  0  0  0  0  0
  -28.0869  -13.2638   17.1301 F   0  0  0  0  0  0  0  0  0  0  0  0
  1  2  1  0  0  0  0
  1  7  2  0  0  0  0
  2  8  2  0  0  0  0
  3  4  1  0  0  0  0
  3 10  2  0  0  0  0
  4 11  2  0  0  0  0
  5 12  2  0  0  0  0
  5 19  1  0  0  0  0
  6 13  1  0  0  0  0
  6 19  2  0  0  0  0
  7 21  1  0  0  0  0
  8 23  1  0  0  0  0
  9 14  2  0  0  0  0
  9 22  1  0  0  0  0
 10 25  1  0  0  0  0
 11 26  1  0  0  0  0
 12 27  1  0  0  0  0
 13 27  2  0  0  0  0
 14 28  1  0  0  0  0
 15 16  2  0  0  0  0
 15 29  1  0  0  0  0
 16 30  1  0  0  0  0
 17 24  1  0  0  0  0
 17 28  2  0  0  0  0
 18 30  2  0  0  0  0
 18 31  1  0  0  0  0
 19 32  1  0  0  0  0
 20 32  1  0  0  0  0
 20 33  2  0  0  0  0
 20 34  1  0  0  0  0
 21 23  2  0  0  0  0
 21 39  1  0  0  0  0
 22 24  2  0  0  0  0
 22 40  1  0  0  0  0
 23 48  1  0  0  0  0
 24 41  1  0  0  0  0
 25 26  2  0  0  0  0
 25 56  1  0  0  0  0
 26 67  1  0  0  0  0
 27 76  1  0  0  0  0
 28 77  1  0  0  0  0
 29 31  2  0  0  0  0
 29 76  1  0  0  0  0
 30 78  1  0  0  0  0
 31 79  1  0  0  0  0
 32 61  2  0  0  0  0
 33 62  1  0  0  0  0
 33 65  1  0  0  0  0
 34 66  1  0  0  0  0
 34 71  2  0  0  0  0
 35 49  1  0  0  0  0
 35 68  1  0  0  0  0
 35 72  2  0  0  0  0
 36 58  1  0  0  0  0
 36 63  1  0  0  0  0
 36 73  2  0  0  0  0
 37 59  1  0  0  0  0
 37 69  1  0  0  0  0
 37 74  2  0  0  0  0
 38 64  1  0  0  0  0
 38 67  1  0  0  0  0
 38 75  2  0  0  0  0
 39 42  1  0  0  0  0
 40 49  1  0  0  0  0
 41 63  1  0  0  0  0
 42 44  1  0  0  0  0
 43 45  1  0  0  0  0
 43 46  1  0  0  0  0
 44 48  1  0  0  0  0
 45 50  1  0  0  0  0
 46 64  1  0  0  0  0
 47 50  1  0  0  0  0
 47 64  1  0  0  0  0
 48 68  1  0  0  0  0
 49 63  1  0  0  0  0
 50 62  1  0  0  0  0
 51 59  1  0  0  0  0
 52 60  1  0  0  0  0
 53 60  1  0  0  0  0
 54 60  1  0  0  0  0
 55 70  1  0  0  0  0
 56 57  1  0  0  0  0
 57 77  1  0  0  0  0
 58 60  1  0  0  0  0
 58 69  1  0  0  0  0
 59 70  1  0  0  0  0
 61 62  1  0  0  0  0
M  CHG  1  70   1
M  ISO  4  38 100  57 101  67 100  77 101
M  END
> <Batch ID>
0002

> <Smiles>
CNC(C)C(=O)NC(C(=O)N1Cc2cc([101O:1][101CH2:1]Cc3ccccc3[100NH:0][100C:0](=O)N3CCCC(n4nc(-c5ccc(Oc6ccc(F)cc6F)cc5)c(C(N)=O)c4N)C3)ccc2CC1C(=O)NC1CCCc2ccccc21)C(C)(C)C

> <Shape>
0.203

> <Color>
0.074

> <Negative vol penalty>
0.000

$$$$

  -OEChem-04052315183D

 75 82  0     1  0  0  0  0  0999 V2000
  -21.6576  -26.0082   22.2550 C   0  0  0  0  0  0  0  0  0  0  0  0
  -22.5356  -24.9529   22.0299 C   0  0  0  0  0  0  0  0  0  0  0  0
  -23.8221  -10.0103   22.1423 C   0  0  0  0  0  0  0  0  0  0  0  0
  -24.3934  -11.4271   24.0141 C   0  0  0  0  0  0  0  0  0  0  0  0
  -22.0394  -27.3110   21.9374 C   0  0  0  0  0  0  0  0  0  0  0  0
  -23.7956  -25.1996   21.4859 C   0  0  0  0  0  0  0  0  0  0  0  0
  -27.4742  -22.6745   23.8810 C   0  0  0  0  0  0  0  0  0  0  0  0
  -23.3018   -9.0598   23.0206 C   0  0  0  0  0  0  0  0  0  0  0  0
  -23.8731  -10.4766   24.8924 C   0  0  0  0  0  0  0  0  0  0  0  0
  -27.6174  -21.3207   23.5801 C   0  0  0  0  0  0  0  0  0  0  0  0
  -24.8491   -7.5351   26.2437 C   0  0  0  0  0  0  0  0  0  0  0  0
  -25.5983   -7.2219   27.3778 C   0  0  0  0  0  0  0  0  0  0  0  0
  -29.4494  -21.8491   22.1024 C   0  0  0  0  0  0  0  0  0  0  0  0
  -23.7739   -7.9504   28.7842 C   0  0  0  0  0  0  0  0  0  0  0  0
  -24.3679  -11.1940   22.6391 C   0  0  0  0  0  0  0  0  0  0  0  0
  -24.2169  -13.2470   21.1323 C   0  0  0  0  0  0  0  0  0  0  0  0
  -23.3083  -27.5750   21.3982 C   0  0  0  0  0  0  0  0  0  0  0  0
  -28.3119  -23.6285   23.2855 C   0  0  0  0  0  0  0  0  0  0  0  0
  -24.1942  -26.5070   21.1594 C   0  0  0  0  0  0  0  0  0  0  0  0
  -29.3165  -23.2141   22.3994 C   0  0  0  0  0  0  0  0  0  0  0  0
  -23.3273   -9.2929   24.3956 C   0  0  0  0  0  0  0  0  0  0  0  0
  -28.6032  -20.9081   22.6885 C   0  0  0  0  0  0  0  0  0  0  0  0
  -23.5623   -8.0560   26.3798 C   0  0  0  0  0  0  0  0  0  0  0  0
  -25.0607   -7.4295   28.6481 C   0  0  0  0  0  0  0  0  0  0  0  0
  -23.0247   -8.2636   27.6500 C   0  0  0  0  0  0  0  0  0  0  0  0
  -24.9060  -12.1760   21.7323 C   0  0  0  0  0  0  0  0  0  0  0  0
  -25.1651  -13.8790   20.3656 C   0  0  0  0  0  0  0  0  0  0  0  0
  -22.8425  -13.6357   21.2570 C   0  0  0  0  0  0  0  0  0  0  0  0
  -27.8632  -26.1195   21.3628 C   0  0  0  0  0  0  0  0  0  0  0  0
  -31.0302  -26.5937   21.8798 C   0  0  0  0  0  0  0  0  0  0  0  0
  -34.0557  -25.2690   22.7393 C   0  0  0  0  0  0  0  0  0  0  0  0
  -31.1355  -14.1863   20.6987 C   0  0  0  0  0  0  0  0  0  0  0  0
  -23.6583  -28.9942   21.0268 C   0  0  0  0  0  0  0  0  0  0  0  0
  -28.1620  -25.0822   23.6411 C   0  0  0  0  0  0  0  0  0  0  0  0
  -30.2547  -24.1964   21.7488 C   0  0  0  0  0  0  0  0  0  0  0  0
  -25.1521  -29.2144   20.8024 C   0  0  0  0  0  0  0  0  0  0  0  0
  -29.2021  -13.0226   17.9448 C   0  0  0  0  0  0  0  0  0  0  0  0
  -25.7287  -28.1085   19.9240 C   0  0  0  0  0  0  0  0  0  0  0  0
  -27.8196  -12.7703   18.5491 C   0  0  0  0  0  0  0  0  0  0  0  0
  -30.3192  -12.6648   18.9225 C   0  0  0  0  0  0  0  0  0  0  0  0
  -28.8331  -13.0581   20.8488 C   0  0  0  0  0  0  0  0  0  0  0  0
  -25.5789  -26.7373   20.5939 C   0  0  1  0  0  0  0  0  0  0  0  0
  -28.7355  -26.0186   22.5820 C   0  0  1  0  0  0  0  0  0  0  0  0
  -27.6733  -13.4569   19.9203 C   0  0  2  0  0  0  0  0  0  0  0  0
  -36.4673  -25.8955   23.0376 C   0  0  0  0  0  0  0  0  0  0  0  0
  -31.3900  -26.6419   18.8502 C   0  0  0  0  0  0  0  0  0  0  0  0
  -33.8462  -26.3127   19.2065 C   0  0  0  0  0  0  0  0  0  0  0  0
  -32.7232  -28.3590   20.0866 C   0  0  0  0  0  0  0  0  0  0  0  0
  -34.0184  -24.5131   25.6005 C   0  0  0  0  0  0  0  0  0  0  0  0
  -31.6127  -17.1488   22.1275 C   0  0  0  0  0  0  0  0  0  0  0  0
  -30.2124  -17.6705   22.4514 C   0  0  0  0  0  0  0  0  0  0  0  0
  -31.8074  -15.6961   22.5503 C   0  0  0  0  0  0  0  0  0  0  0  0
  -30.0554  -19.1337   22.0572 C   0  0  0  0  0  0  0  0  0  1  0  0
  -32.3032  -26.1339   21.2112 C   0  0  1  0  0  0  0  0  0  0  0  0
  -35.1174  -25.7346   23.7193 C   0  0  2  0  0  0  0  0  0  0  0  0
  -32.5469  -26.8433   19.8492 C   0  0  0  0  0  0  0  0  0  0  0  0
  -26.1927  -12.1272   21.3772 N   0  0  0  0  0  0  0  0  0  0  0  0
  -26.3196  -13.1754   20.5457 N   0  0  0  0  0  0  0  0  0  0  0  0
  -30.0641  -25.6073   22.1236 N   0  0  0  0  0  0  0  0  0  0  0  0
  -30.1222  -13.3497   20.2023 N   0  0  0  0  0  0  0  0  0  0  0  0
  -25.1157  -14.9623   19.5616 N   0  0  0  0  0  0  0  0  0  0  0  0
  -22.0059  -12.8763   22.0863 N   0  0  0  0  0  0  0  0  0  0  0  0
  -26.5815  -26.5654   21.6233 N   0  0  0  0  0  0  0  0  0  0  0  0
  -33.3704  -26.3301   22.1864 N   0  0  0  0  0  0  0  0  0  0  0  0
  -30.8653  -14.8020   21.9147 N   0  0  0  0  0  0  0  0  0  0  0  0
  -35.2654  -24.7508   24.8288 N   0  3  0  0  0  0  0  0  0  0  0  0
  -22.3663  -14.6175   20.6382 O   0  0  0  0  0  0  0  0  0  0  0  0
  -28.3196  -25.8167   20.2665 O   0  0  0  0  0  0  0  0  0  0  0  0
  -30.9009  -27.7828   22.1813 O   0  0  0  0  0  0  0  0  0  0  0  0
  -33.8568  -24.0828   22.4866 O   0  0  0  0  0  0  0  0  0  0  0  0
  -32.1998  -14.3751   20.0998 O   0  0  0  0  0  0  0  0  0  0  0  0
  -22.8195   -8.3657   25.2529 O   0  0  0  0  0  0  0  0  0  0  0  0
  -28.7447  -19.5874   22.3925 O   0  0  0  0  0  0  0  0  0  1  0  0
  -25.7797   -7.1273   29.7370 F   0  0  0  0  0  0  0  0  0  0  0  0
  -21.7886   -8.7626   27.7871 F   0  0  0  0  0  0  0  0  0  0  0  0
  1  2  1  0  0  0  0
  1  5  2  0  0  0  0
  2  6  2  0  0  0  0
  3  8  2  0  0  0  0
  3 15  1  0  0  0  0
  4  9  1  0  0  0  0
  4 15  2  0  0  0  0
  5 17  1  0  0  0  0
  6 19  1  0  0  0  0
  7 10  2  0  0  0  0
  7 18  1  0  0  0  0
  8 21  1  0  0  0  0
  9 21  2  0  0  0  0
 10 22  1  0  0  0  0
 11 12  2  0  0  0  0
 11 23  1  0  0  0  0
 12 24  1  0  0  0  0
 13 20  1  0  0  0  0
 13 22  2  0  0  0  0
 14 24  2  0  0  0  0
 14 25  1  0  0  0  0
 15 26  1  0  0  0  0
 16 26  1  0  0  0  0
 16 27  2  0  0  0  0
 16 28  1  0  0  0  0
 17 19  2  0  0  0  0
 17 33  1  0  0  0  0
 18 20  2  0  0  0  0
 18 34  1  0  0  0  0
 19 42  1  0  0  0  0
 20 35  1  0  0  0  0
 21 72  1  0  0  0  0
 22 73  1  0  0  0  0
 23 25  2  0  0  0  0
 23 72  1  0  0  0  0
 24 74  1  0  0  0  0
 25 75  1  0  0  0  0
 26 57  2  0  0  0  0
 27 58  1  0  0  0  0
 27 61  1  0  0  0  0
 28 62  1  0  0  0  0
 28 67  2  0  0  0  0
 29 43  1  0  0  0  0
 29 63  1  0  0  0  0
 29 68  2  0  0  0  0
 30 54  1  0  0  0  0
 30 59  1  0  0  0  0
 30 69  2  0  0  0  0
 31 55  1  0  0  0  0
 31 64  1  0  0  0  0
 31 70  2  0  0  0  0
 32 60  1  0  0  0  0
 32 65  1  0  0  0  0
 32 71  2  0  0  0  0
 33 36  1  0  0  0  0
 34 43  1  0  0  0  0
 35 59  1  0  0  0  0
 36 38  1  0  0  0  0
 37 39  1  0  0  0  0
 37 40  1  0  0  0  0
 38 42  1  0  0  0  0
 39 44  1  0  0  0  0
 40 60  1  0  0  0  0
 41 44  1  0  0  0  0
 41 60  1  0  0  0  0
 42 63  1  0  0  0  0
 43 59  1  0  0  0  0
 44 58  1  0  0  0  0
 45 55  1  0  0  0  0
 46 56  1  0  0  0  0
 47 56  1  0  0  0  0
 48 56  1  0  0  0  0
 49 66  1  0  0  0  0
 50 51  1  0  0  0  0
 50 52  1  0  0  0  0
 51 53  1  0  0  0  0
 52 65  1  0  0  0  0
 53 73  1  0  0  0  0
 54 56  1  0  0  0  0
 54 64  1  0  0  0  0
 55 66  1  0  0  0  0
 57 58  1  0  0  0  0
M  CHG  1  66   1
M  ISO  4  32 100  53 101  65 100  73 101
M  END
> <Batch ID>
0002

> <Smiles>
CNC(C)C(=O)NC(C(=O)N1Cc2cc([101O:1][101CH2:1]CCC[100NH:0][100C:0](=O)N3CCCC(n4nc(-c5ccc(Oc6ccc(F)cc6F)cc5)c(C(N)=O)c4N)C3)ccc2CC1C(=O)NC1CCCc2ccccc21)C(C)(C)C

> <Shape>
0.193

> <Color>
0.131

> <Negative vol penalty>
0.000

$$$$

  -OEChem-04052315183D

 76 83  0     1  0  0  0  0  0999 V2000
  -23.6992   -8.5157   21.8889 C   0  0  0  0  0  0  0  0  0  0  0  0
  -24.8792   -9.1930   21.5987 C   0  0  0  0  0  0  0  0  0  0  0  0
  -26.2545  -27.9989   21.3502 C   0  0  0  0  0  0  0  0  0  0  0  0
  -25.9997  -28.1355   18.9515 C   0  0  0  0  0  0  0  0  0  0  0  0
  -22.4695   -9.1374   21.6762 C   0  0  0  0  0  0  0  0  0  0  0  0
  -24.8301  -10.4921   21.0945 C   0  0  0  0  0  0  0  0  0  0  0  0
  -28.7890  -15.0282   22.2155 C   0  0  0  0  0  0  0  0  0  0  0  0
  -25.4349  -29.1174   21.5010 C   0  0  0  0  0  0  0  0  0  0  0  0
  -25.1800  -29.2540   19.1023 C   0  0  0  0  0  0  0  0  0  0  0  0
  -29.8731  -15.5267   21.4943 C   0  0  0  0  0  0  0  0  0  0  0  0
  -25.7223  -32.4727   21.2118 C   0  0  0  0  0  0  0  0  0  0  0  0
  -26.1354  -33.4625   22.1035 C   0  0  0  0  0  0  0  0  0  0  0  0
  -28.4555  -17.2397   20.5588 C   0  0  0  0  0  0  0  0  0  0  0  0
  -24.1159  -33.1453   23.3912 C   0  0  0  0  0  0  0  0  0  0  0  0
  -26.5370  -27.5080   20.0754 C   0  0  0  0  0  0  0  0  0  0  0  0
  -26.9840  -25.0037   19.8844 C   0  0  0  0  0  0  0  0  0  0  0  0
  -22.4056  -10.4483   21.1782 C   0  0  0  0  0  0  0  0  0  0  0  0
  -27.5254  -15.6261   22.1051 C   0  0  0  0  0  0  0  0  0  0  0  0
  -23.5984  -11.1315   20.8736 C   0  0  0  0  0  0  0  0  0  0  0  0
  -27.3576  -16.7485   21.2815 C   0  0  0  0  0  0  0  0  0  0  0  0
  -24.8976  -29.7449   20.3771 C   0  0  0  0  0  0  0  0  0  0  0  0
  -29.7058  -16.6308   20.6636 C   0  0  0  0  0  0  0  0  0  0  0  0
  -24.5059  -31.8192   21.4097 C   0  0  0  0  0  0  0  0  0  0  0  0
  -25.3323  -33.7988   23.1932 C   0  0  0  0  0  0  0  0  0  0  0  0
  -23.7028  -32.1555   22.4994 C   0  0  0  0  0  0  0  0  0  0  0  0
  -27.3841  -26.3530   19.9189 C   0  0  0  0  0  0  0  0  0  0  0  0
  -28.1536  -24.3029   19.7194 C   0  0  0  0  0  0  0  0  0  0  0  0
  -25.6723  -24.4348   19.9918 C   0  0  0  0  0  0  0  0  0  0  0  0
  -24.6670  -14.6611   21.1042 C   0  0  0  0  0  0  0  0  0  0  0  0
  -23.7352  -17.5715   22.1921 C   0  0  0  0  0  0  0  0  0  0  0  0
  -24.5873  -20.7845   22.9650 C   0  0  0  0  0  0  0  0  0  0  0  0
  -33.1018  -23.6086   17.2337 C   0  0  0  0  0  0  0  0  0  0  0  0
  -21.0521  -11.0616   20.9201 C   0  0  0  0  0  0  0  0  0  0  0  0
  -26.3722  -15.0928   22.9102 C   0  0  0  0  0  0  0  0  0  0  0  0
  -26.0262  -17.4391   21.1438 C   0  0  0  0  0  0  0  0  0  0  0  0
  -21.0948  -12.5764   20.7362 C   0  0  0  0  0  0  0  0  0  0  0  0
  -32.9702  -25.8176   20.0229 C   0  0  0  0  0  0  0  0  0  0  0  0
  -22.2224  -12.9672   19.7862 C   0  0  0  0  0  0  0  0  0  0  0  0
  -31.4731  -26.0472   20.2374 C   0  0  0  0  0  0  0  0  0  0  0  0
  -33.3168  -25.7023   18.5401 C   0  0  0  0  0  0  0  0  0  0  0  0
  -31.0384  -24.9247   18.0125 C   0  0  0  0  0  0  0  0  0  0  0  0
  -23.5869  -12.5508   20.3486 C   0  0  1  0  0  0  0  0  0  0  0  0
  -25.0129  -15.4646   22.3258 C   0  0  1  0  0  0  0  0  0  0  0  0
  -30.6319  -24.9917   19.4946 C   0  0  2  0  0  0  0  0  0  0  0  0
  -23.6027  -22.9382   23.7953 C   0  0  0  0  0  0  0  0  0  0  0  0
  -22.5070  -18.0669   19.4432 C   0  0  0  0  0  0  0  0  0  0  0  0
  -22.3988  -20.5036   20.0078 C   0  0  0  0  0  0  0  0  0  0  0  0
  -21.1133  -18.8523   21.3654 C   0  0  0  0  0  0  0  0  0  0  0  0
  -26.3240  -20.7893   25.3615 C   0  0  0  0  0  0  0  0  0  0  0  0
  -31.5932  -19.8735   17.5173 C   0  0  0  0  0  0  0  0  0  0  0  0
  -32.9044  -20.3146   16.8603 C   0  0  0  0  0  0  0  0  0  0  0  0
  -31.8105  -18.6727   18.4361 C   0  0  0  0  0  0  0  0  0  0  0  0
  -32.7247  -21.5213   15.9452 C   0  0  0  0  0  0  0  0  0  0  0  0
  -30.5194  -18.2527   19.1263 C   0  0  0  0  0  0  0  0  0  1  0  0
  -23.6292  -18.9531   21.5930 C   0  0  1  0  0  0  0  0  0  0  0  0
  -24.2918  -21.6395   24.1841 C   0  0  2  0  0  0  0  0  0  0  0  0
  -22.4369  -19.0800   20.6032 C   0  0  0  0  0  0  0  0  0  0  0  0
  -28.7047  -26.5027   19.7867 N   0  0  0  0  0  0  0  0  0  0  0  0
  -29.1446  -25.2385   19.6675 N   0  0  0  0  0  0  0  0  0  0  0  0
  -24.9278  -16.8764   21.9465 N   0  0  0  0  0  0  0  0  0  0  0  0
  -32.4851  -24.6836   17.8948 N   0  0  0  0  0  0  0  0  0  0  0  0
  -28.4207  -22.9837   19.6151 N   0  0  0  0  0  0  0  0  0  0  0  0
  -24.5810  -25.2984   20.1577 N   0  0  0  0  0  0  0  0  0  0  0  0
  -24.0128  -13.4750   21.3776 N   0  0  0  0  0  0  0  0  0  0  0  0
  -23.5747  -19.8821   22.7165 N   0  0  0  0  0  0  0  0  0  0  0  0
  -32.2406  -22.6846   16.6546 N   0  0  0  0  0  0  0  0  0  0  0  0
  -25.5549  -21.9739   24.9007 N   0  3  0  0  0  0  0  0  0  0  0  0
  -25.4757  -23.1963   19.9587 O   0  0  0  0  0  0  0  0  0  0  0  0
  -24.9697  -15.0864   19.9955 O   0  0  0  0  0  0  0  0  0  0  0  0
  -22.7973  -17.1283   22.8596 O   0  0  0  0  0  0  0  0  0  0  0  0
  -25.6120  -20.9075   22.2977 O   0  0  0  0  0  0  0  0  0  0  0  0
  -34.3290  -23.4788   17.1693 O   0  0  0  0  0  0  0  0  0  0  0  0
  -24.0975  -30.8362   20.5239 O   0  0  0  0  0  0  0  0  0  0  0  0
  -30.7622  -17.1189   19.9581 O   0  0  0  0  0  0  0  0  0  1  0  0
  -25.7299  -34.7482   24.0503 F   0  0  0  0  0  0  0  0  0  0  0  0
  -22.5338  -31.5303   22.6954 F   0  0  0  0  0  0  0  0  0  0  0  0
  1  2  1  0  0  0  0
  1  5  2  0  0  0  0
  2  6  2  0  0  0  0
  3  8  2  0  0  0  0
  3 15  1  0  0  0  0
  4  9  1  0  0  0  0
  4 15  2  0  0  0  0
  5 17  1  0  0  0  0
  6 19  1  0  0  0  0
  7 10  2  0  0  0  0
  7 18  1  0  0  0  0
  8 21  1  0  0  0  0
  9 21  2  0  0  0  0
 10 22  1  0  0  0  0
 11 12  2  0  0  0  0
 11 23  1  0  0  0  0
 12 24  1  0  0  0  0
 13 20  1  0  0  0  0
 13 22  2  0  0  0  0
 14 24  2  0  0  0  0
 14 25  1  0  0  0  0
 15 26  1  0  0  0  0
 16 26  1  0  0  0  0
 16 27  2  0  0  0  0
 16 28  1  0  0  0  0
 17 19  2  0  0  0  0
 17 33  1  0  0  0  0
 18 20  2  0  0  0  0
 18 34  1  0  0  0  0
 19 42  1  0  0  0  0
 20 35  1  0  0  0  0
 21 73  1  0  0  0  0
 22 74  1  0  0  0  0
 23 25  2  0  0  0  0
 23 73  1  0  0  0  0
 24 75  1  0  0  0  0
 25 76  1  0  0  0  0
 26 58  2  0  0  0  0
 27 59  1  0  0  0  0
 27 62  1  0  0  0  0
 28 63  1  0  0  0  0
 28 68  2  0  0  0  0
 29 43  1  0  0  0  0
 29 64  1  0  0  0  0
 29 69  2  0  0  0  0
 30 55  1  0  0  0  0
 30 60  1  0  0  0  0
 30 70  2  0  0  0  0
 31 56  1  0  0  0  0
 31 65  1  0  0  0  0
 31 71  2  0  0  0  0
 32 61  1  0  0  0  0
 32 66  1  0  0  0  0
 32 72  2  0  0  0  0
 33 36  1  0  0  0  0
 34 43  1  0  0  0  0
 35 60  1  0  0  0  0
 36 38  1  0  0  0  0
 37 39  1  0  0  0  0
 37 40  1  0  0  0  0
 38 42  1  0  0  0  0
 39 44  1  0  0  0  0
 40 61  1  0  0  0  0
 41 44  1  0  0  0  0
 41 61  1  0  0  0  0
 42 64  1  0  0  0  0
 43 60  1  0  0  0  0
 44 59  1  0  0  0  0
 45 56  1  0  0  0  0
 46 57  1  0  0  0  0
 47 57  1  0  0  0  0
 48 57  1  0  0  0  0
 49 67  1  0  0  0  0
 50 51  1  0  0  0  0
 50 52  1  0  0  0  0
 51 53  1  0  0  0  0
 52 54  1  0  0  0  0
 53 66  1  0  0  0  0
 54 74  1  0  0  0  0
 55 57  1  0  0  0  0
 55 65  1  0  0  0  0
 56 67  1  0  0  0  0
 58 59  1  0  0  0  0
M  CHG  1  67   1
M  ISO  4  32 100  54 101  66 100  74 101
M  END
> <Batch ID>
0002

> <Smiles>
CNC(C)C(=O)NC(C(=O)N1Cc2cc([101O:1][101CH2:1]CCCC[100NH:0][100C:0](=O)N3CCCC(n4nc(-c5ccc(Oc6ccc(F)cc6F)cc5)c(C(N)=O)c4N)C3)ccc2CC1C(=O)NC1CCCc2ccccc21)C(C)(C)C

> <Shape>
0.204

> <Color>
0.079

> <Negative vol penalty>
0.000

$$$$

  -OEChem-04052315183D

 81 89  0     1  0  0  0  0  0999 V2000
  -16.6897  -29.4611   23.1319 C   0  0  0  0  0  0  0  0  0  0  0  0
  -17.6537  -29.5874   22.1369 C   0  0  0  0  0  0  0  0  0  0  0  0
  -26.5850  -12.6865   21.9931 C   0  0  0  0  0  0  0  0  0  0  0  0
  -25.7693  -14.3575   20.4506 C   0  0  0  0  0  0  0  0  0  0  0  0
  -17.0736  -29.1677   24.4398 C   0  0  0  0  0  0  0  0  0  0  0  0
  -19.0025  -29.4214   22.4495 C   0  0  0  0  0  0  0  0  0  0  0  0
  -25.1332  -27.0212   19.6262 C   0  0  0  0  0  0  0  0  0  0  0  0
  -28.8220  -22.0323   20.5317 C   0  0  0  0  0  0  0  0  0  0  0  0
  -30.6671  -22.6487   21.9643 C   0  0  0  0  0  0  0  0  0  0  0  0
  -25.3403  -12.0575   21.9700 C   0  0  0  0  0  0  0  0  0  0  0  0
  -24.5245  -13.7284   20.4274 C   0  0  0  0  0  0  0  0  0  0  0  0
  -26.4510  -27.4234   19.4131 C   0  0  0  0  0  0  0  0  0  0  0  0
  -29.1192  -23.1028   19.6883 C   0  0  0  0  0  0  0  0  0  0  0  0
  -30.9644  -23.7192   21.1209 C   0  0  0  0  0  0  0  0  0  0  0  0
  -22.4870   -9.8060   22.0365 C   0  0  0  0  0  0  0  0  0  0  0  0
  -22.4646   -8.4169   21.9129 C   0  0  0  0  0  0  0  0  0  0  0  0
  -26.9909  -26.8404   21.6907 C   0  0  0  0  0  0  0  0  0  0  0  0
  -23.6152   -8.5868   19.7952 C   0  0  0  0  0  0  0  0  0  0  0  0
  -26.7995  -13.8366   21.2335 C   0  0  0  0  0  0  0  0  0  0  0  0
  -29.1797  -14.2381   20.4083 C   0  0  0  0  0  0  0  0  0  0  0  0
  -18.4270  -28.9886   24.7666 C   0  0  0  0  0  0  0  0  0  0  0  0
  -24.7311  -26.5350   20.8786 C   0  0  0  0  0  0  0  0  0  0  0  0
  -19.4050  -29.1267   23.7632 C   0  0  0  0  0  0  0  0  0  0  0  0
  -25.6680  -26.4303   21.9165 C   0  0  0  0  0  0  0  0  0  0  0  0
  -29.5959  -21.8053   21.6698 C   0  0  0  0  0  0  0  0  0  0  0  0
  -24.3101  -12.5784   21.1871 C   0  0  0  0  0  0  0  0  0  0  0  0
  -30.1904  -23.9462   19.9829 C   0  0  0  0  0  0  0  0  0  0  0  0
  -27.3794  -27.3357   20.4462 C   0  0  0  0  0  0  0  0  0  0  0  0
  -23.0734  -10.5856   21.0395 C   0  0  0  0  0  0  0  0  0  0  0  0
  -23.0288   -7.8072   20.7923 C   0  0  0  0  0  0  0  0  0  0  0  0
  -23.6375   -9.9760   19.9189 C   0  0  0  0  0  0  0  0  0  0  0  0
  -28.0849  -14.4872   21.2574 C   0  0  0  0  0  0  0  0  0  0  0  0
  -30.1515  -15.1091   20.8365 C   0  0  0  0  0  0  0  0  0  0  0  0
  -29.3069  -13.3031   19.3288 C   0  0  0  0  0  0  0  0  0  0  0  0
  -22.6340  -27.4660   23.0784 C   0  0  0  0  0  0  0  0  0  0  0  0
  -23.4563  -24.6625   24.4878 C   0  0  0  0  0  0  0  0  0  0  0  0
  -25.7688  -22.1825   24.8734 C   0  0  0  0  0  0  0  0  0  0  0  0
  -29.9615  -20.3528   23.6953 C   0  0  0  0  0  0  0  0  0  0  0  0
  -18.7973  -28.7192   26.2036 C   0  0  0  0  0  0  0  0  0  0  0  0
  -23.3122  -26.0803   21.0845 C   0  0  0  0  0  0  0  0  0  0  0  0
  -25.2918  -25.8963   23.2735 C   0  0  0  0  0  0  0  0  0  0  0  0
  -20.2180  -28.1885   26.3773 C   0  0  0  0  0  0  0  0  0  0  0  0
  -31.6554  -17.4075   24.7596 C   0  0  0  0  0  0  0  0  0  0  0  0
  -21.2010  -29.0149   25.5542 C   0  0  0  0  0  0  0  0  0  0  0  0
  -31.0359  -16.3026   23.9007 C   0  0  0  0  0  0  0  0  0  0  0  0
  -30.6229  -18.4591   25.1620 C   0  0  0  0  0  0  0  0  0  0  0  0
  -29.2429  -17.9355   23.1896 C   0  0  0  0  0  0  0  0  0  0  0  0
  -20.8762  -28.9294   24.0580 C   0  0  1  0  0  0  0  0  0  0  0  0
  -22.8907  -26.0828   22.5507 C   0  0  1  0  0  0  0  0  0  0  0  0
  -30.2581  -16.8873   22.7054 C   0  0  2  0  0  0  0  0  0  0  0  0
  -26.7383  -20.0040   25.6554 C   0  0  0  0  0  0  0  0  0  0  0  0
  -24.0606  -26.2563   27.0185 C   0  0  0  0  0  0  0  0  0  0  0  0
  -25.3278  -24.2761   27.8794 C   0  0  0  0  0  0  0  0  0  0  0  0
  -22.8855  -24.0837   27.4097 C   0  0  0  0  0  0  0  0  0  0  0  0
  -24.6824  -20.7270   22.5367 C   0  0  0  0  0  0  0  0  0  0  0  0
  -30.6908  -27.3904   18.9728 C   0  0  0  0  0  0  0  0  0  0  0  0
  -31.0716  -26.1434   19.7552 C   0  0  0  0  0  0  0  0  0  0  0  0
  -29.1843  -27.5901   18.9186 C   0  0  0  0  0  0  0  0  0  1  0  0
  -24.5109  -24.2332   25.4790 C   0  0  1  0  0  0  0  0  0  0  0  0
  -25.6386  -20.6703   24.8434 C   0  0  2  0  0  0  0  0  0  0  0  0
  -24.2031  -24.7242   26.9218 C   0  0  0  0  0  0  0  0  0  0  0  0
  -28.3369  -15.4416   22.1572 N   0  0  0  0  0  0  0  0  0  0  0  0
  -29.6013  -15.7998   21.8759 N   0  0  0  0  0  0  0  0  0  0  0  0
  -23.8910  -25.4702   23.4273 N   0  0  0  0  0  0  0  0  0  0  0  0
  -29.9288  -18.9709   23.9784 N   0  0  0  0  0  0  0  0  0  0  0  0
  -31.4146  -15.3439   20.4217 N   0  0  0  0  0  0  0  0  0  0  0  0
  -28.2117  -12.4841   19.0219 N   0  0  0  0  0  0  0  0  0  0  0  0
  -29.2941  -20.7179   22.5266 N   0  0  0  0  0  0  0  0  0  0  0  0
  -21.3380  -27.6713   23.5117 N   0  0  0  0  0  0  0  0  0  0  0  0
  -24.6244  -22.7842   25.3524 N   0  0  0  0  0  0  0  0  0  0  0  0
  -25.7210  -20.1710   23.4417 N   0  3  0  0  0  0  0  0  0  0  0  0
  -30.3659  -13.1856   18.6670 O   0  0  0  0  0  0  0  0  0  0  0  0
  -23.5446  -28.2859   23.0928 O   0  0  0  0  0  0  0  0  0  0  0  0
  -22.2912  -24.2890   24.6446 O   0  0  0  0  0  0  0  0  0  0  0  0
  -26.7855  -22.7708   24.5118 O   0  0  0  0  0  0  0  0  0  0  0  0
  -30.5621  -21.1498   24.4207 O   0  0  0  0  0  0  0  0  0  0  0  0
  -23.0954  -11.9646   21.1640 O   0  0  0  0  0  0  0  0  0  0  0  0
  -30.4825  -24.9982   19.1542 O   0  0  0  0  0  0  0  0  0  0  0  0
  -28.6662  -27.7281   20.2411 O   0  0  0  0  0  0  0  0  0  1  0  0
  -23.0086   -6.4731   20.6744 F   0  0  0  0  0  0  0  0  0  0  0  0
  -24.2034  -10.7197   18.9583 F   0  0  0  0  0  0  0  0  0  0  0  0
  1  2  1  0  0  0  0
  1  5  2  0  0  0  0
  2  6  2  0  0  0  0
  3 10  2  0  0  0  0
  3 19  1  0  0  0  0
  4 11  1  0  0  0  0
  4 19  2  0  0  0  0
  5 21  1  0  0  0  0
  6 23  1  0  0  0  0
  7 12  2  0  0  0  0
  7 22  1  0  0  0  0
  8 13  2  0  0  0  0
  8 25  1  0  0  0  0
  9 14  1  0  0  0  0
  9 25  2  0  0  0  0
 10 26  1  0  0  0  0
 11 26  2  0  0  0  0
 12 28  1  0  0  0  0
 13 27  1  0  0  0  0
 14 27  2  0  0  0  0
 15 16  2  0  0  0  0
 15 29  1  0  0  0  0
 16 30  1  0  0  0  0
 17 24  1  0  0  0  0
 17 28  2  0  0  0  0
 18 30  2  0  0  0  0
 18 31  1  0  0  0  0
 19 32  1  0  0  0  0
 20 32  1  0  0  0  0
 20 33  2  0  0  0  0
 20 34  1  0  0  0  0
 21 23  2  0  0  0  0
 21 39  1  0  0  0  0
 22 24  2  0  0  0  0
 22 40  1  0  0  0  0
 23 48  1  0  0  0  0
 24 41  1  0  0  0  0
 25 68  1  0  0  0  0
 26 77  1  0  0  0  0
 27 78  1  0  0  0  0
 28 79  1  0  0  0  0
 29 31  2  0  0  0  0
 29 77  1  0  0  0  0
 30 80  1  0  0  0  0
 31 81  1  0  0  0  0
 32 62  2  0  0  0  0
 33 63  1  0  0  0  0
 33 66  1  0  0  0  0
 34 67  1  0  0  0  0
 34 72  2  0  0  0  0
 35 49  1  0  0  0  0
 35 69  1  0  0  0  0
 35 73  2  0  0  0  0
 36 59  1  0  0  0  0
 36 64  1  0  0  0  0
 36 74  2  0  0  0  0
 37 60  1  0  0  0  0
 37 70  1  0  0  0  0
 37 75  2  0  0  0  0
 38 65  1  0  0  0  0
 38 68  1  0  0  0  0
 38 76  2  0  0  0  0
 39 42  1  0  0  0  0
 40 49  1  0  0  0  0
 41 64  1  0  0  0  0
 42 44  1  0  0  0  0
 43 45  1  0  0  0  0
 43 46  1  0  0  0  0
 44 48  1  0  0  0  0
 45 50  1  0  0  0  0
 46 65  1  0  0  0  0
 47 50  1  0  0  0  0
 47 65  1  0  0  0  0
 48 69  1  0  0  0  0
 49 64  1  0  0  0  0
 50 63  1  0  0  0  0
 51 60  1  0  0  0  0
 52 61  1  0  0  0  0
 53 61  1  0  0  0  0
 54 61  1  0  0  0  0
 55 71  1  0  0  0  0
 56 57  1  0  0  0  0
 56 58  1  0  0  0  0
 57 78  1  0  0  0  0
 58 79  1  0  0  0  0
 59 61  1  0  0  0  0
 59 70  1  0  0  0  0
 60 71  1  0  0  0  0
 62 63  1  0  0  0  0
M  CHG  1  71   1
M  ISO  4  38 100  58 101  68 100  79 101
M  END
> <Batch ID>
0002

> <Smiles>
CNC(C)C(=O)NC(C(=O)N1Cc2cc([101O:1][101CH2:1]CCOc3ccc([100NH:0][100C:0](=O)N4CCCC(n5nc(-c6ccc(Oc7ccc(F)cc7F)cc6)c(C(N)=O)c5N)C4)cc3)ccc2CC1C(=O)NC1CCCc2ccccc21)C(C)(C)C

> <Shape>
0.239

> <Color>
0.096

> <Negative vol penalty>
0.000

$$$$

  -OEChem-04052315183D

 92 99  0     1  0  0  0  0  0999 V2000
  -30.8737  -25.3120   18.0749 C   0  0  0  0  0  0  0  0  0  0  0  0
  -29.4947  -25.1879   18.2104 C   0  0  0  0  0  0  0  0  0  0  0  0
  -26.4322  -12.9105   21.1205 C   0  0  0  0  0  0  0  0  0  0  0  0
  -24.8341  -13.1212   19.3209 C   0  0  0  0  0  0  0  0  0  0  0  0
  -31.6104  -25.9876   19.0469 C   0  0  0  0  0  0  0  0  0  0  0  0
  -28.8517  -25.7384   19.3185 C   0  0  0  0  0  0  0  0  0  0  0  0
  -23.2619  -28.2360   19.4673 C   0  0  0  0  0  0  0  0  0  0  0  0
  -25.5588  -12.0586   21.7964 C   0  0  0  0  0  0  0  0  0  0  0  0
  -23.9606  -12.2693   19.9968 C   0  0  0  0  0  0  0  0  0  0  0  0
  -22.0213  -27.7359   19.8604 C   0  0  0  0  0  0  0  0  0  0  0  0
  -21.7713  -12.4727   22.5652 C   0  0  0  0  0  0  0  0  0  0  0  0
  -20.4277  -12.8413   22.6307 C   0  0  0  0  0  0  0  0  0  0  0  0
  -22.3215  -28.7220   22.0413 C   0  0  0  0  0  0  0  0  0  0  0  0
  -19.8136  -10.8071   21.4808 C   0  0  0  0  0  0  0  0  0  0  0  0
  -26.0699  -13.4419   19.8827 C   0  0  0  0  0  0  0  0  0  0  0  0
  -27.9669  -13.9591   18.2574 C   0  0  0  0  0  0  0  0  0  0  0  0
  -30.9750  -26.5549   20.1627 C   0  0  0  0  0  0  0  0  0  0  0  0
  -24.0478  -28.9748   20.3633 C   0  0  0  0  0  0  0  0  0  0  0  0
  -29.5809  -26.4210   20.3071 C   0  0  0  0  0  0  0  0  0  0  0  0
  -23.5706  -29.2326   21.6564 C   0  0  0  0  0  0  0  0  0  0  0  0
  -24.3230  -11.7379   21.2346 C   0  0  0  0  0  0  0  0  0  0  0  0
  -21.5522  -27.9764   21.1485 C   0  0  0  0  0  0  0  0  0  0  0  0
  -22.1362  -11.2714   21.9574 C   0  0  0  0  0  0  0  0  0  0  0  0
  -19.4488  -12.0085   22.0886 C   0  0  0  0  0  0  0  0  0  0  0  0
  -21.1573  -10.4386   21.4152 C   0  0  0  0  0  0  0  0  0  0  0  0
  -26.9715  -14.3224   19.1842 C   0  0  0  0  0  0  0  0  0  0  0  0
  -28.5412  -15.1501   17.8858 C   0  0  0  0  0  0  0  0  0  0  0  0
  -28.3390  -12.6610   17.7755 C   0  0  0  0  0  0  0  0  0  0  0  0
  -26.9199  -28.5920   21.6704 C   0  0  0  0  0  0  0  0  0  0  0  0
  -26.3620  -31.5717   22.8248 C   0  0  0  0  0  0  0  0  0  0  0  0
  -18.6053  -17.2039   21.6251 C   0  0  0  0  0  0  0  0  0  0  0  0
  -18.6965  -23.5835   22.4361 C   0  0  0  0  0  0  0  0  0  0  0  0
  -20.3790  -22.2405   21.1962 C   0  0  0  0  0  0  0  0  0  0  0  0
  -24.0877  -33.9628   23.6949 C   0  0  0  0  0  0  0  0  0  0  0  0
  -26.2899  -20.7310   18.0841 C   0  0  0  0  0  0  0  0  0  0  0  0
  -31.8194  -27.2349   21.2111 C   0  0  0  0  0  0  0  0  0  0  0  0
  -25.3720  -29.5301   19.9154 C   0  0  0  0  0  0  0  0  0  0  0  0
  -24.3668  -30.0374   22.6498 C   0  0  0  0  0  0  0  0  0  0  0  0
  -31.0148  -28.1136   22.1655 C   0  0  0  0  0  0  0  0  0  0  0  0
  -28.6997  -19.0585   20.5690 C   0  0  0  0  0  0  0  0  0  0  0  0
  -29.7723  -27.3746   22.6522 C   0  0  0  0  0  0  0  0  0  0  0  0
  -29.2191  -18.0603   19.5386 C   0  0  0  0  0  0  0  0  0  0  0  0
  -28.0035  -20.2331   19.8886 C   0  0  0  0  0  0  0  0  0  0  0  0
  -26.8075  -18.3863   18.7133 C   0  0  0  0  0  0  0  0  0  0  0  0
  -28.8441  -27.0259   21.4824 C   0  0  1  0  0  0  0  0  0  0  0  0
  -26.3162  -29.8324   21.0749 C   0  0  1  0  0  0  0  0  0  0  0  0
  -28.1280  -17.6151   18.5405 C   0  0  2  0  0  0  0  0  0  0  0  0
  -18.6378  -16.5115   20.3031 C   0  0  0  0  0  0  0  0  0  0  0  0
  -23.9317  -36.2807   24.6438 C   0  0  0  0  0  0  0  0  0  0  0  0
  -26.9632  -30.4709   25.6063 C   0  0  0  0  0  0  0  0  0  0  0  0
  -25.8886  -32.5157   26.5718 C   0  0  0  0  0  0  0  0  0  0  0  0
  -27.9262  -32.7332   25.1492 C   0  0  0  0  0  0  0  0  0  0  0  0
  -22.7708  -34.9981   21.2550 C   0  0  0  0  0  0  0  0  0  0  0  0
  -19.6968  -24.7371   22.3668 C   0  0  0  0  0  0  0  0  0  0  0  0
  -21.2821  -23.4540   21.2567 C   0  0  0  0  0  0  0  0  0  0  0  0
  -19.2082  -26.0051   23.0661 C   0  0  0  0  0  0  0  0  0  0  0  0
  -24.5495  -23.5495   18.3474 C   0  0  0  0  0  0  0  0  0  0  0  0
  -24.7750  -24.0264   19.7870 C   0  0  0  0  0  0  0  0  0  0  0  0
  -18.4116  -20.2676   22.9183 C   0  0  0  0  0  0  0  0  0  0  0  0
  -25.8480  -23.1383   17.6593 C   0  0  0  0  0  0  0  0  0  0  0  0
  -17.4997  -19.0430   22.8813 C   0  0  0  0  0  0  0  0  0  0  0  0
  -18.2326  -21.2057   21.7266 C   0  0  0  0  0  0  0  0  0  0  0  0
  -23.4833  -24.3745   20.5175 C   0  0  0  0  0  0  0  0  0  0  0  0
  -20.1812  -27.1701   22.9165 C   0  0  0  0  0  0  0  0  0  1  0  0
  -25.7198  -32.1326   24.0706 C   0  0  1  0  0  0  0  0  0  0  0  0
  -24.0124  -35.4450   23.3758 C   0  0  2  0  0  0  0  0  0  0  0  0
  -26.6101  -31.9463   25.3316 C   0  0  0  0  0  0  0  0  0  0  0  0
  -26.9141  -15.6411   19.3889 N   0  0  0  0  0  0  0  0  0  0  0  0
  -27.8808  -16.1167   18.5856 N   0  0  0  0  0  0  0  0  0  0  0  0
  -25.6582  -30.5534   22.1664 N   0  0  0  0  0  0  0  0  0  0  0  0
  -27.0369  -19.8246   18.8613 N   0  0  0  0  0  0  0  0  0  0  0  0
  -29.5416  -15.4543   17.0320 N   0  0  0  0  0  0  0  0  0  0  0  0
  -27.6459  -11.5439   18.2612 N   0  0  0  0  0  0  0  0  0  0  0  0
  -28.0963  -28.1926   21.0654 N   0  0  0  0  0  0  0  0  0  0  0  0
  -17.6940  -18.2457   21.7013 N   0  0  0  0  0  0  0  0  0  0  0  0
  -25.3921  -33.5222   23.7706 N   0  0  0  0  0  0  0  0  0  0  0  0
  -26.5299  -22.0745   18.3606 N   0  0  0  0  0  0  0  0  0  0  0  0
  -19.1026  -22.3825   21.8014 N   0  0  0  0  0  0  0  0  0  0  0  0
  -22.8103  -35.7354   22.5442 N   0  3  0  0  0  0  0  0  0  0  0  0
  -22.5654  -23.2047   20.5492 N   0  3  0  0  0  0  0  0  0  0  0  0
  -29.2700  -12.4952   16.9512 O   0  0  0  0  0  0  0  0  0  0  0  0
  -26.3607  -28.0392   22.6102 O   0  0  0  0  0  0  0  0  0  0  0  0
  -27.4446  -32.0254   22.4458 O   0  0  0  0  0  0  0  0  0  0  0  0
  -19.3495  -16.8272   22.5228 O   0  0  0  0  0  0  0  0  0  0  0  0
  -17.5993  -23.7486   22.9727 O   0  0  0  0  0  0  0  0  0  0  0  0
  -20.7617  -21.2093   20.6366 O   0  0  0  0  0  0  0  0  0  0  0  0
  -23.0893  -33.2663   23.8641 O   0  0  0  0  0  0  0  0  0  0  0  0
  -25.4801  -20.3740   17.2232 O   0  0  0  0  0  0  0  0  0  0  0  0
  -23.4705  -10.9065   21.8938 O   0  0  0  0  0  0  0  0  0  0  0  0
  -20.3419  -27.4889   21.5349 O   0  0  0  0  0  0  0  0  0  1  0  0
  -18.1584  -12.3618   22.1530 F   0  0  0  0  0  0  0  0  0  0  0  0
  -21.5016   -9.2827   20.8311 F   0  0  0  0  0  0  0  0  0  0  0  0
  1  2  1  0  0  0  0
  1  5  2  0  0  0  0
  2  6  2  0  0  0  0
  3  8  2  0  0  0  0
  3 15  1  0  0  0  0
  4  9  1  0  0  0  0
  4 15  2  0  0  0  0
  5 17  1  0  0  0  0
  6 19  1  0  0  0  0
  7 10  2  0  0  0  0
  7 18  1  0  0  0  0
  8 21  1  0  0  0  0
  9 21  2  0  0  0  0
 10 22  1  0  0  0  0
 11 12  2  0  0  0  0
 11 23  1  0  0  0  0
 12 24  1  0  0  0  0
 13 20  1  0  0  0  0
 13 22  2  0  0  0  0
 14 24  2  0  0  0  0
 14 25  1  0  0  0  0
 15 26  1  0  0  0  0
 16 26  1  0  0  0  0
 16 27  2  0  0  0  0
 16 28  1  0  0  0  0
 17 19  2  0  0  0  0
 17 36  1  0  0  0  0
 18 20  2  0  0  0  0
 18 37  1  0  0  0  0
 19 45  1  0  0  0  0
 20 38  1  0  0  0  0
 21 89  1  0  0  0  0
 22 90  1  0  0  0  0
 23 25  2  0  0  0  0
 23 89  1  0  0  0  0
 24 91  1  0  0  0  0
 25 92  1  0  0  0  0
 26 68  2  0  0  0  0
 27 69  1  0  0  0  0
 27 72  1  0  0  0  0
 28 73  1  0  0  0  0
 28 81  2  0  0  0  0
 29 46  1  0  0  0  0
 29 74  1  0  0  0  0
 29 82  2  0  0  0  0
 30 65  1  0  0  0  0
 30 70  1  0  0  0  0
 30 83  2  0  0  0  0
 31 48  1  0  0  0  0
 31 75  1  0  0  0  0
 31 84  2  0  0  0  0
 32 54  1  0  0  0  0
 32 78  1  0  0  0  0
 32 85  2  0  0  0  0
 33 55  1  0  0  0  0
 33 78  1  0  0  0  0
 33 86  2  0  0  0  0
 34 66  1  0  0  0  0
 34 76  1  0  0  0  0
 34 87  2  0  0  0  0
 35 71  1  0  0  0  0
 35 77  1  0  0  0  0
 35 88  2  0  0  0  0
 36 39  1  0  0  0  0
 37 46  1  0  0  0  0
 38 70  1  0  0  0  0
 39 41  1  0  0  0  0
 40 42  1  0  0  0  0
 40 43  1  0  0  0  0
 41 45  1  0  0  0  0
 42 47  1  0  0  0  0
 43 71  1  0  0  0  0
 44 47  1  0  0  0  0
 44 71  1  0  0  0  0
 45 74  1  0  0  0  0
 46 70  1  0  0  0  0
 47 69  1  0  0  0  0
 49 66  1  0  0  0  0
 50 67  1  0  0  0  0
 51 67  1  0  0  0  0
 52 67  1  0  0  0  0
 53 79  1  0  0  0  0
 54 56  1  0  0  0  0
 55 80  1  0  0  0  0
 56 64  1  0  0  0  0
 57 58  1  0  0  0  0
 57 60  1  0  0  0  0
 58 63  1  0  0  0  0
 59 61  1  0  0  0  0
 59 62  1  0  0  0  0
 60 77  1  0  0  0  0
 61 75  1  0  0  0  0
 62 78  1  0  0  0  0
 63 80  1  0  0  0  0
 64 90  1  0  0  0  0
 65 67  1  0  0  0  0
 65 76  1  0  0  0  0
 66 79  1  0  0  0  0
 68 69  1  0  0  0  0
M  CHG  2  79   1  80   1
M  ISO  4  35 100  64 101  77 100  90 101
M  END
> <Batch ID>
0002

> <Smiles>
CNC(C)C(=O)NC(C(=O)N1Cc2cc([101O:1][101CH2:1]CCC(=O)N(CCCNC(C)=O)C(=O)CNCCCC[100NH:0][100C:0](=O)N3CCCC(n4nc(-c5ccc(Oc6ccc(F)cc6F)cc5)c(C(N)=O)c4N)C3)ccc2CC1C(=O)NC1CCCc2ccccc21)C(C)(C)C

> <Shape>
0.302

> <Color>
0.061

> <Negative vol penalty>
0.000

$$$$

  -OEChem-04052315183D

 80 88  0     1  0  0  0  0  0999 V2000
  -19.4636  -33.5002   16.0796 C   0  0  0  0  0  0  0  0  0  0  0  0
  -20.0329  -32.2439   16.2617 C   0  0  0  0  0  0  0  0  0  0  0  0
  -27.9364  -22.3148   16.7328 C   0  0  0  0  0  0  0  0  0  0  0  0
  -26.4809  -12.8129   21.6065 C   0  0  0  0  0  0  0  0  0  0  0  0
  -26.0190  -13.7829   19.4425 C   0  0  0  0  0  0  0  0  0  0  0  0
  -20.2184  -34.6477   16.3193 C   0  0  0  0  0  0  0  0  0  0  0  0
  -21.3578  -32.1345   16.6825 C   0  0  0  0  0  0  0  0  0  0  0  0
  -23.7136  -27.8275   20.3439 C   0  0  0  0  0  0  0  0  0  0  0  0
  -28.4670  -21.3005   17.5299 C   0  0  0  0  0  0  0  0  0  0  0  0
  -25.2335  -12.1890   21.5931 C   0  0  0  0  0  0  0  0  0  0  0  0
  -24.7716  -13.1589   19.4290 C   0  0  0  0  0  0  0  0  0  0  0  0
  -24.4241  -26.6574   20.0793 C   0  0  0  0  0  0  0  0  0  0  0  0
  -23.8271   -9.4627   20.1710 C   0  0  0  0  0  0  0  0  0  0  0  0
  -23.7680   -8.1235   20.5567 C   0  0  0  0  0  0  0  0  0  0  0  0
  -27.7974  -23.6044   17.2460 C   0  0  0  0  0  0  0  0  0  0  0  0
  -26.4951  -27.8403   20.4411 C   0  0  0  0  0  0  0  0  0  0  0  0
  -28.7192  -22.8653   19.3533 C   0  0  0  0  0  0  0  0  0  0  0  0
  -22.2593   -8.7071   22.3513 C   0  0  0  0  0  0  0  0  0  0  0  0
  -26.8737  -13.6100   20.5312 C   0  0  0  0  0  0  0  0  0  0  0  0
  -29.3763  -13.7393   20.0540 C   0  0  0  0  0  0  0  0  0  0  0  0
  -21.5502  -34.5523   16.7526 C   0  0  0  0  0  0  0  0  0  0  0  0
  -24.3901  -29.0173   20.6489 C   0  0  0  0  0  0  0  0  0  0  0  0
  -22.1315  -33.2818   16.9270 C   0  0  0  0  0  0  0  0  0  0  0  0
  -25.7908  -29.0234   20.7117 C   0  0  0  0  0  0  0  0  0  0  0  0
  -28.8583  -21.5757   18.8401 C   0  0  0  0  0  0  0  0  0  0  0  0
  -24.3788  -12.3620   20.5044 C   0  0  0  0  0  0  0  0  0  0  0  0
  -25.8151  -26.6644   20.1250 C   0  0  0  0  0  0  0  0  0  0  0  0
  -23.1024  -10.4241   20.8755 C   0  0  0  0  0  0  0  0  0  0  0  0
  -22.9841   -7.7457   21.6468 C   0  0  0  0  0  0  0  0  0  0  0  0
  -22.3185  -10.0463   21.9656 C   0  0  0  0  0  0  0  0  0  0  0  0
  -28.1887  -23.8796   18.5562 C   0  0  0  0  0  0  0  0  0  0  0  0
  -28.1619  -14.2552   20.5447 C   0  0  0  0  0  0  0  0  0  0  0  0
  -30.2950  -14.7299   20.3010 C   0  0  0  0  0  0  0  0  0  0  0  0
  -29.6495  -12.4774   19.4305 C   0  0  0  0  0  0  0  0  0  0  0  0
  -24.5956  -31.8893   19.3023 C   0  0  0  0  0  0  0  0  0  0  0  0
  -26.2762  -32.5972   21.9849 C   0  0  0  0  0  0  0  0  0  0  0  0
  -28.1823  -31.4841   24.5878 C   0  0  0  0  0  0  0  0  0  0  0  0
  -29.8346  -20.6499   20.9699 C   0  0  0  0  0  0  0  0  0  0  0  0
  -22.3409  -35.8208   16.9533 C   0  0  0  0  0  0  0  0  0  0  0  0
  -23.6083  -30.2646   20.9580 C   0  0  0  0  0  0  0  0  0  0  0  0
  -26.5639  -30.2698   21.0543 C   0  0  0  0  0  0  0  0  0  0  0  0
  -23.6225  -35.6188   17.7577 C   0  0  0  0  0  0  0  0  0  0  0  0
  -31.1891  -18.3406   23.3172 C   0  0  0  0  0  0  0  0  0  0  0  0
  -24.3873  -34.4019   17.2467 C   0  0  0  0  0  0  0  0  0  0  0  0
  -30.6820  -16.9833   22.8245 C   0  0  0  0  0  0  0  0  0  0  0  0
  -30.1484  -19.4411   23.1183 C   0  0  0  0  0  0  0  0  0  0  0  0
  -29.1122  -18.1985   21.2605 C   0  0  0  0  0  0  0  0  0  0  0  0
  -23.5580  -33.1220   17.4064 C   0  0  1  0  0  0  0  0  0  0  0  0
  -24.4162  -31.5424   20.7532 C   0  0  1  0  0  0  0  0  0  0  0  0
  -30.1503  -17.0708   21.3805 C   0  0  2  0  0  0  0  0  0  0  0  0
  -29.4442  -32.3025   26.5965 C   0  0  0  0  0  0  0  0  0  0  0  0
  -28.5135  -33.5991   20.1682 C   0  0  0  0  0  0  0  0  0  0  0  0
  -30.0593  -33.5031   22.1354 C   0  0  0  0  0  0  0  0  0  0  0  0
  -28.0834  -35.0252   22.1771 C   0  0  0  0  0  0  0  0  0  0  0  0
  -26.4932  -29.9063   26.4361 C   0  0  0  0  0  0  0  0  0  0  0  0
  -27.7306  -32.5303   22.3842 C   0  0  1  0  0  0  0  0  0  0  0  0
  -28.1180  -31.7691   26.0774 C   0  0  2  0  0  0  0  0  0  0  0  0
  -28.5825  -33.6412   21.7078 C   0  0  0  0  0  0  0  0  0  0  0  0
  -28.2939  -15.4786   21.0643 N   0  0  0  0  0  0  0  0  0  0  0  0
  -29.6021  -15.7396   20.9016 N   0  0  0  0  0  0  0  0  0  0  0  0
  -25.7545  -31.4654   21.3424 N   0  0  0  0  0  0  0  0  0  0  0  0
  -29.6938  -19.4671   21.7263 N   0  0  0  0  0  0  0  0  0  0  0  0
  -31.6199  -14.8271   20.0610 N   0  0  0  0  0  0  0  0  0  0  0  0
  -28.5905  -11.5764   19.2536 N   0  0  0  0  0  0  0  0  0  0  0  0
  -29.3975  -20.5455   19.6498 N   0  0  0  0  0  0  0  0  0  0  0  0
  -23.5828  -32.6720   18.7816 N   0  0  0  0  0  0  0  0  0  0  0  0
  -27.7554  -32.5628   23.8425 N   0  0  0  0  0  0  0  0  0  0  0  0
  -27.7851  -30.5259   26.8288 N   0  3  0  0  0  0  0  0  0  0  0  0
  -30.8017  -12.1515   19.0568 O   0  0  0  0  0  0  0  0  0  0  0  0
  -25.5807  -31.4786   18.7002 O   0  0  0  0  0  0  0  0  0  0  0  0
  -25.6251  -33.6133   22.2404 O   0  0  0  0  0  0  0  0  0  0  0  0
  -28.5756  -30.4131   24.1309 O   0  0  0  0  0  0  0  0  0  0  0  0
  -30.3332  -21.6714   21.4494 O   0  0  0  0  0  0  0  0  0  0  0  0
  -28.0090  -26.4142   18.0685 O   0  0  0  0  0  0  0  0  0  0  0  0
  -28.9991  -25.6208   20.2627 O   0  0  0  0  0  0  0  0  0  0  0  0
  -23.1616  -11.7531   20.4908 O   0  0  0  0  0  0  0  0  0  0  0  0
  -26.5110  -25.5239   19.8665 O   0  0  0  0  0  0  0  0  0  1  0  0
  -22.9261   -6.4595   22.0161 F   0  0  0  0  0  0  0  0  0  0  0  0
  -21.6192  -10.9652   22.6456 F   0  0  0  0  0  0  0  0  0  0  0  0
  -28.0114  -25.5133   19.2061 S   0  0  0  0  0  0  0  0  0  1  0  0
  1  2  1  0  0  0  0
  1  6  2  0  0  0  0
  2  7  2  0  0  0  0
  3  9  1  0  0  0  0
  3 15  2  0  0  0  0
  4 10  2  0  0  0  0
  4 19  1  0  0  0  0
  5 11  1  0  0  0  0
  5 19  2  0  0  0  0
  6 21  1  0  0  0  0
  7 23  1  0  0  0  0
  8 12  2  0  0  0  0
  8 22  1  0  0  0  0
  9 25  2  0  0  0  0
 10 26  1  0  0  0  0
 11 26  2  0  0  0  0
 12 27  1  0  0  0  0
 13 14  2  0  0  0  0
 13 28  1  0  0  0  0
 14 29  1  0  0  0  0
 15 31  1  0  0  0  0
 16 24  1  0  0  0  0
 16 27  2  0  0  0  0
 17 25  1  0  0  0  0
 17 31  2  0  0  0  0
 18 29  2  0  0  0  0
 18 30  1  0  0  0  0
 19 32  1  0  0  0  0
 20 32  1  0  0  0  0
 20 33  2  0  0  0  0
 20 34  1  0  0  0  0
 21 23  2  0  0  0  0
 21 39  1  0  0  0  0
 22 24  2  0  0  0  0
 22 40  1  0  0  0  0
 23 48  1  0  0  0  0
 24 41  1  0  0  0  0
 25 65  1  0  0  0  0
 26 76  1  0  0  0  0
 27 77  1  0  0  0  0
 28 30  2  0  0  0  0
 28 76  1  0  0  0  0
 29 78  1  0  0  0  0
 30 79  1  0  0  0  0
 31 80  1  0  0  0  0
 32 59  2  0  0  0  0
 33 60  1  0  0  0  0
 33 63  1  0  0  0  0
 34 64  1  0  0  0  0
 34 69  2  0  0  0  0
 35 49  1  0  0  0  0
 35 66  1  0  0  0  0
 35 70  2  0  0  0  0
 36 56  1  0  0  0  0
 36 61  1  0  0  0  0
 36 71  2  0  0  0  0
 37 57  1  0  0  0  0
 37 67  1  0  0  0  0
 37 72  2  0  0  0  0
 38 62  1  0  0  0  0
 38 65  1  0  0  0  0
 38 73  2  0  0  0  0
 39 42  1  0  0  0  0
 40 49  1  0  0  0  0
 41 61  1  0  0  0  0
 42 44  1  0  0  0  0
 43 45  1  0  0  0  0
 43 46  1  0  0  0  0
 44 48  1  0  0  0  0
 45 50  1  0  0  0  0
 46 62  1  0  0  0  0
 47 50  1  0  0  0  0
 47 62  1  0  0  0  0
 48 66  1  0  0  0  0
 49 61  1  0  0  0  0
 50 60  1  0  0  0  0
 51 57  1  0  0  0  0
 52 58  1  0  0  0  0
 53 58  1  0  0  0  0
 54 58  1  0  0  0  0
 55 68  1  0  0  0  0
 56 58  1  0  0  0  0
 56 67  1  0  0  0  0
 57 68  1  0  0  0  0
 59 60  1  0  0  0  0
 74 80  2  0  0  0  0
 75 80  2  0  0  0  0
 77 80  1  0  0  0  0
M  CHG  1  68   1
M  ISO  4  38 100  65 100  77 101  80 101
M  END
> <Batch ID>
0002

> <Smiles>
CNC(C)C(=O)NC(C(=O)N1Cc2cc([101O:1][101S:1](=O)(=O)c3cccc([100NH:0][100C:0](=O)N4CCCC(n5nc(-c6ccc(Oc7ccc(F)cc7F)cc6)c(C(N)=O)c5N)C4)c3)ccc2CC1C(=O)NC1CCCc2ccccc21)C(C)(C)C

> <Shape>
0.276

> <Color>
0.082

> <Negative vol penalty>
0.000

$$$$
