
  -OEChem-04052315213D

 83 90  0     1  0  0  0  0  0999 V2000
  -21.9545  -11.7782   19.5787 C   0  0  0  0  0  0  0  0  0  0  0  0
  -21.7216  -13.1363   19.3869 C   0  0  0  0  0  0  0  0  0  0  0  0
  -29.6256  -27.6166   19.5209 C   0  0  0  0  0  0  0  0  0  0  0  0
  -28.4074  -25.5878   20.0080 C   0  0  0  0  0  0  0  0  0  0  0  0
  -23.0540  -11.3594   20.3268 C   0  0  0  0  0  0  0  0  0  0  0  0
  -22.5877  -14.0765   19.9440 C   0  0  0  0  0  0  0  0  0  0  0  0
  -24.1975  -19.4759   17.5439 C   0  0  0  0  0  0  0  0  0  0  0  0
  -30.8133  -26.8881   19.4568 C   0  0  0  0  0  0  0  0  0  0  0  0
  -29.5952  -24.8593   19.9439 C   0  0  0  0  0  0  0  0  0  0  0  0
  -23.7465  -20.7754   17.7714 C   0  0  0  0  0  0  0  0  0  0  0  0
  -32.3860  -24.8778   17.2391 C   0  0  0  0  0  0  0  0  0  0  0  0
  -33.2517  -25.1414   16.1776 C   0  0  0  0  0  0  0  0  0  0  0  0
  -25.5621  -21.1280   19.3201 C   0  0  0  0  0  0  0  0  0  0  0  0
  -34.9801  -25.7713   17.7437 C   0  0  0  0  0  0  0  0  0  0  0  0
  -28.4226  -26.9665   19.7965 C   0  0  0  0  0  0  0  0  0  0  0  0
  -26.3097  -27.9960   18.8049 C   0  0  0  0  0  0  0  0  0  0  0  0
  -23.9393  -12.2948   20.8853 C   0  0  0  0  0  0  0  0  0  0  0  0
  -25.3297  -18.9883   18.2122 C   0  0  0  0  0  0  0  0  0  0  0  0
  -23.6993  -13.6699   20.7015 C   0  0  0  0  0  0  0  0  0  0  0  0
  -26.0269  -19.8228   19.0974 C   0  0  0  0  0  0  0  0  0  0  0  0
  -30.7982  -25.5094   19.6683 C   0  0  0  0  0  0  0  0  0  0  0  0
  -24.4271  -21.6007   18.6618 C   0  0  0  0  0  0  0  0  0  0  0  0
  -32.8173  -25.0611   18.5529 C   0  0  0  0  0  0  0  0  0  0  0  0
  -34.5488  -25.5881   16.4299 C   0  0  0  0  0  0  0  0  0  0  0  0
  -34.1144  -25.5078   18.8052 C   0  0  0  0  0  0  0  0  0  0  0  0
  -27.1954  -27.7185   19.8634 C   0  0  0  0  0  0  0  0  0  0  0  0
  -25.3065  -28.7359   19.3817 C   0  0  0  0  0  0  0  0  0  0  0  0
  -22.2359  -24.2493   19.6610 C   0  0  0  0  0  0  0  0  0  0  0  0
  -26.3868  -27.6187   17.4239 C   0  0  0  0  0  0  0  0  0  0  0  0
  -25.8789  -16.6208   20.2609 C   0  0  0  0  0  0  0  0  0  0  0  0
  -19.4859  -26.5929   22.7655 C   0  0  0  0  0  0  0  0  0  0  0  0
  -28.9732  -17.5023   19.8476 C   0  0  0  0  0  0  0  0  0  0  0  0
  -31.2010  -19.9403   18.9878 C   0  0  0  0  0  0  0  0  0  0  0  0
  -21.6913  -29.5165   23.6228 C   0  0  0  0  0  0  0  0  0  0  0  0
  -25.0876  -11.7954   21.7260 C   0  0  0  0  0  0  0  0  0  0  0  0
  -25.8190  -17.5931   17.9356 C   0  0  0  0  0  0  0  0  0  0  0  0
  -27.2596  -19.3539   19.8247 C   0  0  0  0  0  0  0  0  0  0  0  0
  -26.1677  -12.8466   21.9679 C   0  0  0  0  0  0  0  0  0  0  0  0
  -24.9948  -30.8923   23.9332 C   0  0  0  0  0  0  0  0  0  0  0  0
  -25.5382  -14.1743   22.3777 C   0  0  0  0  0  0  0  0  0  0  0  0
  -25.7961  -30.1887   22.8402 C   0  0  0  0  0  0  0  0  0  0  0  0
  -23.9493  -29.9625   24.5390 C   0  0  0  0  0  0  0  0  0  0  0  0
  -23.8023  -28.6700   22.4340 C   0  0  0  0  0  0  0  0  0  0  0  0
  -24.6299  -14.7196   21.2690 C   0  0  1  0  0  0  0  0  0  0  0  0
  -26.6832  -17.0292   19.0593 C   0  0  1  0  0  0  0  0  0  0  0  0
  -24.8621  -29.5782   21.7822 C   0  0  2  0  0  0  0  0  0  0  0  0
  -17.4925  -27.9472   22.0624 C   0  0  0  0  0  0  0  0  0  0  0  0
  -33.6641  -20.3749   18.7832 C   0  0  0  0  0  0  0  0  0  0  0  0
  -19.4632  -24.1054   22.7851 C   0  0  0  0  0  0  0  0  0  0  0  0
  -29.1819  -17.7343   22.8829 C   0  0  0  0  0  0  0  0  0  0  0  0
  -31.2876  -19.0513   22.5677 C   0  0  0  0  0  0  0  0  0  0  0  0
  -31.1665  -16.6883   21.7777 C   0  0  0  0  0  0  0  0  0  0  0  0
  -30.9807  -20.4922   16.0885 C   0  0  0  0  0  0  0  0  0  0  0  0
  -22.5867  -23.1038   18.7597 C   0  0  0  0  0  0  0  0  0  1  0  0
  -21.1491  -25.3234   21.3695 C   0  0  0  0  0  0  0  0  0  0  0  0
  -19.0070  -27.8365   22.0353 C   0  0  1  0  0  0  0  0  0  0  0  0
  -29.9047  -18.4820   20.5197 C   0  0  1  0  0  0  0  0  0  0  0  0
  -32.4035  -19.9248   18.0614 C   0  0  2  0  0  0  0  0  0  0  0  0
  -19.7268  -25.3384   21.9274 C   0  0  2  0  0  0  0  0  0  0  0  0
  -30.3608  -17.9975   21.9249 C   0  0  0  0  0  0  0  0  0  0  0  0
  -26.7906  -28.2398   21.0246 N   0  0  0  0  0  0  0  0  0  0  0  0
  -21.3555  -24.1065   20.5896 N   0  0  0  0  0  0  0  0  0  0  0  0
  -25.6395  -28.8523   20.6992 N   0  0  0  0  0  0  0  0  0  0  0  0
  -27.6949  -17.9797   19.5255 N   0  0  0  0  0  0  0  0  0  0  0  0
  -23.0869  -29.3830   23.5053 N   0  0  0  0  0  0  0  0  0  0  0  0
  -24.1808  -29.2917   18.8854 N   0  0  0  0  0  0  0  0  0  0  0  0
  -27.4850  -26.8583   16.9993 N   0  0  0  0  0  0  0  0  0  0  0  0
  -25.4216  -15.3176   20.2155 N   0  0  0  0  0  0  0  0  0  0  0  0
  -30.9990  -18.7131   19.5830 N   0  0  0  0  0  0  0  0  0  0  0  0
  -20.9494  -28.9432   22.6006 N   0  0  0  0  0  0  0  0  0  0  0  0
  -32.1761  -20.8332   16.9020 N   0  3  0  0  0  0  0  0  0  0  0  0
  -19.5716  -29.0516   22.6691 N   0  3  0  0  0  0  0  0  0  0  0  0
  -25.5164  -27.9600   16.5876 O   0  0  0  0  0  0  0  0  0  0  0  0
  -25.6887  -17.4278   21.1633 O   0  0  0  0  0  0  0  0  0  0  0  0
  -19.6685  -26.5864   23.9845 O   0  0  0  0  0  0  0  0  0  0  0  0
  -29.3678  -16.3579   19.6106 O   0  0  0  0  0  0  0  0  0  0  0  0
  -30.5123  -20.9421   19.1684 O   0  0  0  0  0  0  0  0  0  0  0  0
  -21.1555  -30.1063   24.5678 O   0  0  0  0  0  0  0  0  0  0  0  0
  -31.9569  -24.7982   19.6056 O   0  0  0  0  0  0  0  0  0  0  0  0
  -23.9886  -22.8692   18.8861 O   0  0  0  0  0  0  0  0  0  1  0  0
  -35.3805  -25.8397   15.4106 F   0  0  0  0  0  0  0  0  0  0  0  0
  -34.5349  -25.6845   20.0653 F   0  0  0  0  0  0  0  0  0  0  0  0
  -18.8660  -25.2798   20.8676 F   0  0  0  0  0  0  0  0  0  0  0  0
  1  2  1  0  0  0  0
  1  5  2  0  0  0  0
  2  6  2  0  0  0  0
  3  8  2  0  0  0  0
  3 15  1  0  0  0  0
  4  9  1  0  0  0  0
  4 15  2  0  0  0  0
  5 17  1  0  0  0  0
  6 19  1  0  0  0  0
  7 10  2  0  0  0  0
  7 18  1  0  0  0  0
  8 21  1  0  0  0  0
  9 21  2  0  0  0  0
 10 22  1  0  0  0  0
 11 12  2  0  0  0  0
 11 23  1  0  0  0  0
 12 24  1  0  0  0  0
 13 20  1  0  0  0  0
 13 22  2  0  0  0  0
 14 24  2  0  0  0  0
 14 25  1  0  0  0  0
 15 26  1  0  0  0  0
 16 26  1  0  0  0  0
 16 27  2  0  0  0  0
 16 29  1  0  0  0  0
 17 19  2  0  0  0  0
 17 35  1  0  0  0  0
 18 20  2  0  0  0  0
 18 36  1  0  0  0  0
 19 44  1  0  0  0  0
 20 37  1  0  0  0  0
 21 79  1  0  0  0  0
 22 80  1  0  0  0  0
 23 25  2  0  0  0  0
 23 79  1  0  0  0  0
 24 81  1  0  0  0  0
 25 82  1  0  0  0  0
 26 61  2  0  0  0  0
 27 63  1  0  0  0  0
 27 66  1  0  0  0  0
 28 54  1  0  0  0  0
 28 62  2  0  0  0  0
 29 67  1  0  0  0  0
 29 73  2  0  0  0  0
 30 45  1  0  0  0  0
 30 68  1  0  0  0  0
 30 74  2  0  0  0  0
 31 56  1  0  0  0  0
 31 59  1  0  0  0  0
 31 75  2  0  0  0  0
 32 57  1  0  0  0  0
 32 64  1  0  0  0  0
 32 76  2  0  0  0  0
 33 58  1  0  0  0  0
 33 69  1  0  0  0  0
 33 77  2  0  0  0  0
 34 65  1  0  0  0  0
 34 70  1  0  0  0  0
 34 78  2  0  0  0  0
 35 38  1  0  0  0  0
 36 45  1  0  0  0  0
 37 64  1  0  0  0  0
 38 40  1  0  0  0  0
 39 41  1  0  0  0  0
 39 42  1  0  0  0  0
 40 44  1  0  0  0  0
 41 46  1  0  0  0  0
 42 65  1  0  0  0  0
 43 46  1  0  0  0  0
 43 65  1  0  0  0  0
 44 68  1  0  0  0  0
 45 64  1  0  0  0  0
 46 63  1  0  0  0  0
 47 56  1  0  0  0  0
 48 58  1  0  0  0  0
 49 59  1  0  0  0  0
 50 60  1  0  0  0  0
 51 60  1  0  0  0  0
 52 60  1  0  0  0  0
 53 71  1  0  0  0  0
 54 80  1  0  0  0  0
 55 59  1  0  0  0  0
 55 62  1  0  0  0  0
 56 72  1  0  0  0  0
 57 60  1  0  0  0  0
 57 69  1  0  0  0  0
 58 71  1  0  0  0  0
 59 83  1  0  0  0  0
 61 63  1  0  0  0  0
 70 72  1  0  0  0  0
M  CHG  2  71   1  72   1
M  ISO  4  34 100  54 101  70 100  80 101
M  END
> <Batch ID>
0003

> <Smiles>
CNC(C)C(=O)NC(C(=O)N1Cc2cc([101O:1][101CH2:1]C=NCC(C)(F)C(=O)C(C)N[100NH:0][100C:0](=O)N3CCCC(n4nc(-c5ccc(Oc6ccc(F)cc6F)cc5)c(C(N)=O)c4N)C3)ccc2CC1C(=O)NC1CCCc2ccccc21)C(C)(C)C

> <Shape>
0.232

> <Color>
0.061

> <Negative vol penalty>
0.000

$$$$

  -OEChem-04052315213D

 90 97  0     1  0  0  0  0  0999 V2000
  -27.0397  -17.4688   22.2446 C   0  0  0  0  0  0  0  0  0  0  0  0
  -27.1828  -18.4983   23.1692 C   0  0  0  0  0  0  0  0  0  0  0  0
  -23.1021   -9.8213   21.5275 C   0  0  0  0  0  0  0  0  0  0  0  0
  -23.7656  -10.8992   23.5855 C   0  0  0  0  0  0  0  0  0  0  0  0
  -26.9523  -17.7622   20.8843 C   0  0  0  0  0  0  0  0  0  0  0  0
  -27.2398  -19.8219   22.7340 C   0  0  0  0  0  0  0  0  0  0  0  0
  -24.3631  -22.9120   25.5306 C   0  0  0  0  0  0  0  0  0  0  0  0
  -22.3534   -8.8954   22.2538 C   0  0  0  0  0  0  0  0  0  0  0  0
  -23.0168   -9.9732   24.3118 C   0  0  0  0  0  0  0  0  0  0  0  0
  -24.8685  -23.3050   26.7691 C   0  0  0  0  0  0  0  0  0  0  0  0
  -20.5566   -6.0294   23.5885 C   0  0  0  0  0  0  0  0  0  0  0  0
  -20.6633   -4.6849   23.2329 C   0  0  0  0  0  0  0  0  0  0  0  0
  -25.5541  -25.4115   25.8140 C   0  0  0  0  0  0  0  0  0  0  0  0
  -23.0322   -4.7485   23.7034 C   0  0  0  0  0  0  0  0  0  0  0  0
  -23.8083  -10.8232   22.1933 C   0  0  0  0  0  0  0  0  0  0  0  0
  -24.1442  -13.0177   20.9368 C   0  0  0  0  0  0  0  0  0  0  0  0
  -26.9985  -19.0906   20.4330 C   0  0  0  0  0  0  0  0  0  0  0  0
  -24.4593  -23.7628   24.4201 C   0  0  0  0  0  0  0  0  0  0  0  0
  -27.1543  -20.1332   21.3663 C   0  0  0  0  0  0  0  0  0  0  0  0
  -25.0468  -25.0279   24.5632 C   0  0  0  0  0  0  0  0  0  0  0  0
  -22.3107   -8.9713   23.6460 C   0  0  0  0  0  0  0  0  0  0  0  0
  -25.4667  -24.5538   26.9103 C   0  0  0  0  0  0  0  0  0  0  0  0
  -21.6877   -6.7335   24.0015 C   0  0  0  0  0  0  0  0  0  0  0  0
  -21.9011   -4.0444   23.2903 C   0  0  0  0  0  0  0  0  0  0  0  0
  -22.9255   -6.0931   24.0590 C   0  0  0  0  0  0  0  0  0  0  0  0
  -24.5824  -11.7797   21.4436 C   0  0  0  0  0  0  0  0  0  0  0  0
  -25.2473  -13.5412   20.3079 C   0  0  0  0  0  0  0  0  0  0  0  0
  -22.8551  -13.6390   21.0264 C   0  0  0  0  0  0  0  0  0  0  0  0
  -25.8844  -23.5963   21.5837 C   0  0  0  0  0  0  0  0  0  0  0  0
  -24.3093  -26.3840   21.0638 C   0  0  0  0  0  0  0  0  0  0  0  0
  -33.7782  -24.2582   25.7959 C   0  0  0  0  0  0  0  0  0  0  0  0
  -31.0630  -25.3401   28.3816 C   0  0  0  0  0  0  0  0  0  0  0  0
  -22.8222  -29.1602   22.3785 C   0  0  0  0  0  0  0  0  0  0  0  0
  -30.7141  -14.6584   20.1986 C   0  0  0  0  0  0  0  0  0  0  0  0
  -26.9477  -19.3553   18.9491 C   0  0  0  0  0  0  0  0  0  0  0  0
  -23.8853  -23.3347   23.0973 C   0  0  0  0  0  0  0  0  0  0  0  0
  -25.1567  -25.9866   23.4068 C   0  0  0  0  0  0  0  0  0  0  0  0
  -26.6397  -20.8091   18.5999 C   0  0  0  0  0  0  0  0  0  0  0  0
  -29.6872  -11.4182   19.1387 C   0  0  0  0  0  0  0  0  0  0  0  0
  -27.4939  -21.7526   19.4407 C   0  0  0  0  0  0  0  0  0  0  0  0
  -28.2342  -11.3235   19.6074 C   0  0  0  0  0  0  0  0  0  0  0  0
  -30.5525  -12.1873   20.1346 C   0  0  0  0  0  0  0  0  0  0  0  0
  -28.5914  -13.4301   20.9614 C   0  0  0  0  0  0  0  0  0  0  0  0
  -27.1951  -21.5832   20.9352 C   0  0  1  0  0  0  0  0  0  0  0  0
  -24.4984  -24.0745   21.9124 C   0  0  1  0  0  0  0  0  0  0  0  0
  -27.6680  -12.7114   19.9629 C   0  0  2  0  0  0  0  0  0  0  0  0
  -21.6581  -31.2781   21.7028 C   0  0  0  0  0  0  0  0  0  0  0  0
  -26.9954  -27.6146   20.3021 C   0  0  0  0  0  0  0  0  0  0  0  0
  -25.9551  -29.8766   20.5659 C   0  0  0  0  0  0  0  0  0  0  0  0
  -25.0833  -28.2981   18.8422 C   0  0  0  0  0  0  0  0  0  0  0  0
  -20.3324  -28.3728   23.7711 C   0  0  0  0  0  0  0  0  0  0  0  0
  -32.9991  -24.3029   27.1011 C   0  0  0  0  0  0  0  0  0  0  0  0
  -31.8594  -25.3165   27.0871 C   0  0  0  0  0  0  0  0  0  0  0  0
  -33.5315  -20.7731   22.4461 C   0  0  0  0  0  0  0  0  0  0  0  0
  -32.8469  -19.4187   22.6423 C   0  0  0  0  0  0  0  0  0  0  0  0
  -34.2287  -21.2908   23.7079 C   0  0  0  0  0  0  0  0  0  0  0  0
  -32.1414  -18.9640   21.3618 C   0  0  0  0  0  0  0  0  0  0  0  0
  -34.9801  -22.6082   23.4892 C   0  0  0  0  0  0  0  0  0  0  0  0
  -31.4820  -17.5941   21.5477 C   0  0  0  0  0  0  0  0  0  0  0  0
  -27.9098  -25.5949   29.3631 C   0  0  0  0  0  0  0  0  0  0  0  0
  -35.7063  -23.0785   24.7466 C   0  0  0  0  0  0  0  0  0  0  0  0
  -30.7191  -17.1378   20.3084 C   0  0  0  0  0  0  0  0  0  0  0  0
  -29.1397  -26.4900   29.4323 C   0  0  0  0  0  0  0  0  0  0  0  0
  -27.0749  -25.8304   28.1102 C   0  0  0  0  0  0  0  0  0  1  0  0
  -24.6195  -27.8447   21.2859 C   0  0  1  0  0  0  0  0  0  0  0  0
  -21.4846  -29.8180   22.0911 C   0  0  2  0  0  0  0  0  0  0  0  0
  -25.6632  -28.3899   20.2705 C   0  0  0  0  0  0  0  0  0  0  0  0
  -25.8640  -11.5314   21.1611 N   0  0  0  0  0  0  0  0  0  0  0  0
  -26.2405  -12.6206   20.4698 N   0  0  0  0  0  0  0  0  0  0  0  0
  -24.5863  -25.5195   22.1324 N   0  0  0  0  0  0  0  0  0  0  0  0
  -29.9611  -13.4951   20.4279 N   0  0  0  0  0  0  0  0  0  0  0  0
  -25.4550  -14.6945   19.6378 N   0  0  0  0  0  0  0  0  0  0  0  0
  -21.8339  -12.9637   21.7085 N   0  0  0  0  0  0  0  0  0  0  0  0
  -25.9582  -22.2498   21.2820 N   0  0  0  0  0  0  0  0  0  0  0  0
  -34.8094  -23.3245   25.8423 N   0  0  0  0  0  0  0  0  0  0  0  0
  -30.0359  -26.2724   28.3330 N   0  0  0  0  0  0  0  0  0  0  0  0
  -23.3386  -28.5426   21.2590 N   0  0  0  0  0  0  0  0  0  0  0  0
  -30.0764  -15.8563   20.4971 N   0  0  0  0  0  0  0  0  0  0  0  0
  -20.6063  -29.7526   23.2933 N   0  3  0  0  0  0  0  0  0  0  0  0
  -22.6115  -14.7525   20.5026 O   0  0  0  0  0  0  0  0  0  0  0  0
  -26.8175  -24.3905   21.6009 O   0  0  0  0  0  0  0  0  0  0  0  0
  -23.8320  -26.0244   19.9847 O   0  0  0  0  0  0  0  0  0  0  0  0
  -33.5165  -24.9705   24.8305 O   0  0  0  0  0  0  0  0  0  0  0  0
  -31.3119  -24.6182   29.3434 O   0  0  0  0  0  0  0  0  0  0  0  0
  -23.3574  -29.1942   23.4843 O   0  0  0  0  0  0  0  0  0  0  0  0
  -31.8672  -14.6318   19.7553 O   0  0  0  0  0  0  0  0  0  0  0  0
  -21.5799   -8.0681   24.3550 O   0  0  0  0  0  0  0  0  0  0  0  0
  -25.9649  -24.9424   28.1265 O   0  0  0  0  0  0  0  0  0  1  0  0
  -22.0032   -2.7529   22.9503 F   0  0  0  0  0  0  0  0  0  0  0  0
  -24.0154   -6.7640   24.4562 F   0  0  0  0  0  0  0  0  0  0  0  0
  1  2  1  0  0  0  0
  1  5  2  0  0  0  0
  2  6  2  0  0  0  0
  3  8  2  0  0  0  0
  3 15  1  0  0  0  0
  4  9  1  0  0  0  0
  4 15  2  0  0  0  0
  5 17  1  0  0  0  0
  6 19  1  0  0  0  0
  7 10  2  0  0  0  0
  7 18  1  0  0  0  0
  8 21  1  0  0  0  0
  9 21  2  0  0  0  0
 10 22  1  0  0  0  0
 11 12  2  0  0  0  0
 11 23  1  0  0  0  0
 12 24  1  0  0  0  0
 13 20  1  0  0  0  0
 13 22  2  0  0  0  0
 14 24  2  0  0  0  0
 14 25  1  0  0  0  0
 15 26  1  0  0  0  0
 16 26  1  0  0  0  0
 16 27  2  0  0  0  0
 16 28  1  0  0  0  0
 17 19  2  0  0  0  0
 17 35  1  0  0  0  0
 18 20  2  0  0  0  0
 18 36  1  0  0  0  0
 19 44  1  0  0  0  0
 20 37  1  0  0  0  0
 21 87  1  0  0  0  0
 22 88  1  0  0  0  0
 23 25  2  0  0  0  0
 23 87  1  0  0  0  0
 24 89  1  0  0  0  0
 25 90  1  0  0  0  0
 26 68  2  0  0  0  0
 27 69  1  0  0  0  0
 27 72  1  0  0  0  0
 28 73  1  0  0  0  0
 28 80  2  0  0  0  0
 29 45  1  0  0  0  0
 29 74  1  0  0  0  0
 29 81  2  0  0  0  0
 30 65  1  0  0  0  0
 30 70  1  0  0  0  0
 30 82  2  0  0  0  0
 31 52  1  0  0  0  0
 31 75  1  0  0  0  0
 31 83  2  0  0  0  0
 32 53  1  0  0  0  0
 32 76  1  0  0  0  0
 32 84  2  0  0  0  0
 33 66  1  0  0  0  0
 33 77  1  0  0  0  0
 33 85  2  0  0  0  0
 34 71  1  0  0  0  0
 34 78  1  0  0  0  0
 34 86  2  0  0  0  0
 35 38  1  0  0  0  0
 36 45  1  0  0  0  0
 37 70  1  0  0  0  0
 38 40  1  0  0  0  0
 39 41  1  0  0  0  0
 39 42  1  0  0  0  0
 40 44  1  0  0  0  0
 41 46  1  0  0  0  0
 42 71  1  0  0  0  0
 43 46  1  0  0  0  0
 43 71  1  0  0  0  0
 44 74  1  0  0  0  0
 45 70  1  0  0  0  0
 46 69  1  0  0  0  0
 47 66  1  0  0  0  0
 48 67  1  0  0  0  0
 49 67  1  0  0  0  0
 50 67  1  0  0  0  0
 51 79  1  0  0  0  0
 52 53  1  0  0  0  0
 54 55  1  0  0  0  0
 54 56  1  0  0  0  0
 55 57  1  0  0  0  0
 56 58  1  0  0  0  0
 57 59  1  0  0  0  0
 58 61  1  0  0  0  0
 59 62  1  0  0  0  0
 60 63  1  0  0  0  0
 60 64  1  0  0  0  0
 61 75  1  0  0  0  0
 62 78  1  0  0  0  0
 63 76  1  0  0  0  0
 64 88  1  0  0  0  0
 65 67  1  0  0  0  0
 65 77  1  0  0  0  0
 66 79  1  0  0  0  0
 68 69  1  0  0  0  0
M  CHG  1  79   1
M  ISO  4  34 100  64 101  78 100  88 101
M  END
> <Batch ID>
0003

> <Smiles>
CNC(C)C(=O)NC(C(=O)N1Cc2cc([101O:1][101CH2:1]CCNC(=O)CCC(=O)NCCCCCCCC[100NH:0][100C:0](=O)N3CCCC(n4nc(-c5ccc(Oc6ccc(F)cc6F)cc5)c(C(N)=O)c4N)C3)ccc2CC1C(=O)NC1CCCc2ccccc21)C(C)(C)C

> <Shape>
0.227

> <Color>
0.154

> <Negative vol penalty>
0.000

$$$$

  -OEChem-04052315213D

 95103  0     1  0  0  0  0  0999 V2000
  -35.7655  -30.8715   23.3456 C   0  0  0  0  0  0  0  0  0  0  0  0
  -35.3692  -29.6400   22.8340 C   0  0  0  0  0  0  0  0  0  0  0  0
  -23.0753   -9.8688   19.9404 C   0  0  0  0  0  0  0  0  0  0  0  0
  -23.8347   -9.8753   22.2339 C   0  0  0  0  0  0  0  0  0  0  0  0
  -36.5727  -30.9262   24.4811 C   0  0  0  0  0  0  0  0  0  0  0  0
  -35.7809  -28.4624   23.4569 C   0  0  0  0  0  0  0  0  0  0  0  0
  -32.0156  -25.1143   23.9646 C   0  0  0  0  0  0  0  0  0  0  0  0
  -22.3309   -8.7159   20.1901 C   0  0  0  0  0  0  0  0  0  0  0  0
  -23.0902   -8.7224   22.4837 C   0  0  0  0  0  0  0  0  0  0  0  0
  -31.6577  -24.3822   22.8333 C   0  0  0  0  0  0  0  0  0  0  0  0
  -19.8616   -7.9259   23.0854 C   0  0  0  0  0  0  0  0  0  0  0  0
  -19.1044   -7.8862   24.2561 C   0  0  0  0  0  0  0  0  0  0  0  0
  -31.8548  -18.3561   24.2036 C   0  0  0  0  0  0  0  0  0  0  0  0
  -29.8811  -17.4558   23.1402 C   0  0  0  0  0  0  0  0  0  0  0  0
  -32.9388  -22.5078   23.6484 C   0  0  0  0  0  0  0  0  0  0  0  0
  -32.0646  -16.6059   22.5515 C   0  0  0  0  0  0  0  0  0  0  0  0
  -20.3448   -5.9482   24.9927 C   0  0  0  0  0  0  0  0  0  0  0  0
  -23.8273  -10.4484   20.9623 C   0  0  0  0  0  0  0  0  0  0  0  0
  -30.4690  -18.3394   24.0454 C   0  0  0  0  0  0  0  0  0  0  0  0
  -24.1702  -12.9734   20.8425 C   0  0  0  0  0  0  0  0  0  0  0  0
  -36.9866  -29.7489   25.1239 C   0  0  0  0  0  0  0  0  0  0  0  0
  -32.8481  -24.5514   24.9426 C   0  0  0  0  0  0  0  0  0  0  0  0
  -36.5956  -28.5013   24.6013 C   0  0  0  0  0  0  0  0  0  0  0  0
  -33.3037  -23.2339   24.7924 C   0  0  0  0  0  0  0  0  0  0  0  0
  -32.6526  -17.4894   23.4566 C   0  0  0  0  0  0  0  0  0  0  0  0
  -30.6789  -16.5891   22.3932 C   0  0  0  0  0  0  0  0  0  0  0  0
  -22.3383   -8.1427   21.4617 C   0  0  0  0  0  0  0  0  0  0  0  0
  -32.1217  -23.0798   22.6737 C   0  0  0  0  0  0  0  0  0  0  0  0
  -20.8604   -6.9767   22.8682 C   0  0  0  0  0  0  0  0  0  0  0  0
  -19.3460   -6.8974   25.2098 C   0  0  0  0  0  0  0  0  0  0  0  0
  -21.1020   -5.9879   23.8219 C   0  0  0  0  0  0  0  0  0  0  0  0
  -24.5969  -11.6390   20.7048 C   0  0  0  0  0  0  0  0  0  0  0  0
  -25.2627  -13.7225   20.4795 C   0  0  0  0  0  0  0  0  0  0  0  0
  -29.6194  -19.2626   24.8410 C   0  0  0  0  0  0  0  0  0  0  0  0
  -22.8998  -13.4898   21.2612 C   0  0  0  0  0  0  0  0  0  0  0  0
  -35.7217  -25.2443   26.1116 C   0  0  0  0  0  0  0  0  0  0  0  0
  -35.0259  -22.8493   28.1857 C   0  0  0  0  0  0  0  0  0  0  0  0
  -26.8237  -21.0466   21.2732 C   0  0  0  0  0  0  0  0  0  0  0  0
  -33.2458  -20.0132   28.8448 C   0  0  0  0  0  0  0  0  0  0  0  0
  -30.7293  -14.7658   20.6555 C   0  0  0  0  0  0  0  0  0  0  0  0
  -37.8978  -29.8572   26.3209 C   0  0  0  0  0  0  0  0  0  0  0  0
  -33.2032  -25.3450   26.1701 C   0  0  0  0  0  0  0  0  0  0  0  0
  -34.1833  -22.5766   25.8233 C   0  0  0  0  0  0  0  0  0  0  0  0
  -37.9819  -28.5721   27.1406 C   0  0  0  0  0  0  0  0  0  0  0  0
  -29.6144  -12.3526   18.2868 C   0  0  0  0  0  0  0  0  0  0  0  0
  -38.1832  -27.3679   26.2262 C   0  0  0  0  0  0  0  0  0  0  0  0
  -28.1746  -12.0616   18.7161 C   0  0  0  0  0  0  0  0  0  0  0  0
  -30.5294  -12.5810   19.4887 C   0  0  0  0  0  0  0  0  0  0  0  0
  -28.6224  -13.3061   20.8696 C   0  0  0  0  0  0  0  0  0  0  0  0
  -37.0012  -27.2024   25.2634 C   0  0  1  0  0  0  0  0  0  0  0  0
  -34.4751  -24.8518   26.8531 C   0  0  1  0  0  0  0  0  0  0  0  0
  -27.6498  -13.1334   19.6915 C   0  0  2  0  0  0  0  0  0  0  0  0
  -32.9186  -18.2579   30.6081 C   0  0  0  0  0  0  0  0  0  0  0  0
  -37.6738  -21.5591   27.3892 C   0  0  0  0  0  0  0  0  0  0  0  0
  -36.8630  -19.4249   28.4169 C   0  0  0  0  0  0  0  0  0  0  0  0
  -37.1571  -21.4566   29.8340 C   0  0  0  0  0  0  0  0  0  0  0  0
  -30.3855  -20.7025   29.1648 C   0  0  0  0  0  0  0  0  0  0  0  0
  -25.8262  -21.6901   22.2162 C   0  0  0  0  0  0  0  0  0  0  0  0
  -24.9677  -20.6632   22.9526 C   0  0  0  0  0  0  0  0  0  0  0  0
  -25.7977  -19.7435   23.8528 C   0  0  0  0  0  0  0  0  0  0  0  0
  -26.5731  -20.5452   24.8991 C   0  0  0  0  0  0  0  0  0  0  0  0
  -29.9836  -21.3973   20.2979 C   0  0  0  0  0  0  0  0  0  0  0  0
  -27.3699  -19.6301   25.8212 C   0  0  0  0  0  0  0  0  0  0  0  0
  -28.6225  -21.6008   19.6463 C   0  0  0  0  0  0  0  0  0  0  0  0
  -30.5098  -22.6558   20.9772 C   0  0  0  0  0  0  0  0  0  1  0  0
  -35.2310  -21.3537   28.1996 C   0  0  1  0  0  0  0  0  0  0  0  0
  -32.4363  -19.5910   30.0576 C   0  0  2  0  0  0  0  0  0  0  0  0
  -34.1345  -17.5073   23.6255 C   0  0  0  0  0  0  0  0  0  0  0  0
  -36.7162  -20.9614   28.4394 C   0  0  0  0  0  0  0  0  0  0  0  0
  -25.8618  -11.5427   20.2868 N   0  0  0  0  0  0  0  0  0  0  0  0
  -26.2393  -12.8261   20.1586 N   0  0  0  0  0  0  0  0  0  0  0  0
  -34.5081  -23.3956   27.0028 N   0  0  0  0  0  0  0  0  0  0  0  0
  -29.9706  -13.6120   20.3660 N   0  0  0  0  0  0  0  0  0  0  0  0
  -25.4737  -15.0539   20.4066 N   0  0  0  0  0  0  0  0  0  0  0  0
  -21.8874  -12.5810   21.5981 N   0  0  0  0  0  0  0  0  0  0  0  0
  -30.0821  -15.6911   21.4739 N   0  0  0  0  0  0  0  0  0  0  0  0
  -28.3190  -18.8380   25.0877 N   0  0  0  0  0  0  0  0  0  0  0  0
  -35.8723  -26.6080   25.9466 N   0  0  0  0  0  0  0  0  0  0  0  0
  -27.6108  -21.9701   20.5972 N   0  0  0  0  0  0  0  0  0  0  0  0
  -34.3048  -20.8239   29.1945 N   0  0  0  0  0  0  0  0  0  0  0  0
  -30.9961  -19.4578   29.6985 N   0  3  0  0  0  0  0  0  0  0  0  0
  -30.0861  -20.3354   25.2148 O   0  0  0  0  0  0  0  0  0  0  0  0
  -22.6640  -14.7205   21.3185 O   0  0  0  0  0  0  0  0  0  0  0  0
  -36.4906  -24.3744   25.7195 O   0  0  0  0  0  0  0  0  0  0  0  0
  -35.3079  -23.5077   29.1901 O   0  0  0  0  0  0  0  0  0  0  0  0
  -26.8926  -19.8261   21.1455 O   0  0  0  0  0  0  0  0  0  0  0  0
  -32.9686  -19.6562   27.7018 O   0  0  0  0  0  0  0  0  0  0  0  0
  -31.8586  -14.9341   20.1882 O   0  0  0  0  0  0  0  0  0  0  0  0
  -21.6119   -7.0179   21.7058 O   0  0  0  0  0  0  0  0  0  0  0  0
  -31.7744  -22.3632   21.5702 O   0  0  0  0  0  0  0  0  0  1  0  0
  -18.6198   -6.8603   26.3347 F   0  0  0  0  0  0  0  0  0  0  0  0
  -22.0610   -5.0740   23.6195 F   0  0  0  0  0  0  0  0  0  0  0  0
  -34.5698  -18.4204   24.5433 F   0  0  0  0  0  0  0  0  0  0  0  0
  -34.6519  -16.3127   24.0387 F   0  0  0  0  0  0  0  0  0  0  0  0
  -34.7911  -17.8101   22.4680 F   0  0  0  0  0  0  0  0  0  0  0  0
  1  2  1  0  0  0  0
  1  5  2  0  0  0  0
  2  6  2  0  0  0  0
  3  8  2  0  0  0  0
  3 18  1  0  0  0  0
  4  9  1  0  0  0  0
  4 18  2  0  0  0  0
  5 21  1  0  0  0  0
  6 23  1  0  0  0  0
  7 10  2  0  0  0  0
  7 22  1  0  0  0  0
  8 27  1  0  0  0  0
  9 27  2  0  0  0  0
 10 28  1  0  0  0  0
 11 12  2  0  0  0  0
 11 29  1  0  0  0  0
 12 30  1  0  0  0  0
 13 19  2  0  0  0  0
 13 25  1  0  0  0  0
 14 19  1  0  0  0  0
 14 26  2  0  0  0  0
 15 24  1  0  0  0  0
 15 28  2  0  0  0  0
 16 25  2  0  0  0  0
 16 26  1  0  0  0  0
 17 30  2  0  0  0  0
 17 31  1  0  0  0  0
 18 32  1  0  0  0  0
 19 34  1  0  0  0  0
 20 32  1  0  0  0  0
 20 33  2  0  0  0  0
 20 35  1  0  0  0  0
 21 23  2  0  0  0  0
 21 41  1  0  0  0  0
 22 24  2  0  0  0  0
 22 42  1  0  0  0  0
 23 50  1  0  0  0  0
 24 43  1  0  0  0  0
 25 68  1  0  0  0  0
 26 76  1  0  0  0  0
 27 89  1  0  0  0  0
 28 90  1  0  0  0  0
 29 31  2  0  0  0  0
 29 89  1  0  0  0  0
 30 91  1  0  0  0  0
 31 92  1  0  0  0  0
 32 70  2  0  0  0  0
 33 71  1  0  0  0  0
 33 74  1  0  0  0  0
 34 77  1  0  0  0  0
 34 82  2  0  0  0  0
 35 75  1  0  0  0  0
 35 83  2  0  0  0  0
 36 51  1  0  0  0  0
 36 78  1  0  0  0  0
 36 84  2  0  0  0  0
 37 66  1  0  0  0  0
 37 72  1  0  0  0  0
 37 85  2  0  0  0  0
 38 58  1  0  0  0  0
 38 79  1  0  0  0  0
 38 86  2  0  0  0  0
 39 67  1  0  0  0  0
 39 80  1  0  0  0  0
 39 87  2  0  0  0  0
 40 73  1  0  0  0  0
 40 76  1  0  0  0  0
 40 88  2  0  0  0  0
 41 44  1  0  0  0  0
 42 51  1  0  0  0  0
 43 72  1  0  0  0  0
 44 46  1  0  0  0  0
 45 47  1  0  0  0  0
 45 48  1  0  0  0  0
 46 50  1  0  0  0  0
 47 52  1  0  0  0  0
 48 73  1  0  0  0  0
 49 52  1  0  0  0  0
 49 73  1  0  0  0  0
 50 78  1  0  0  0  0
 51 72  1  0  0  0  0
 52 71  1  0  0  0  0
 53 67  1  0  0  0  0
 54 69  1  0  0  0  0
 55 69  1  0  0  0  0
 56 69  1  0  0  0  0
 57 81  1  0  0  0  0
 58 59  1  0  0  0  0
 59 60  1  0  0  0  0
 60 61  1  0  0  0  0
 61 63  1  0  0  0  0
 62 64  1  0  0  0  0
 62 65  1  0  0  0  0
 63 77  1  0  0  0  0
 64 79  1  0  0  0  0
 65 90  1  0  0  0  0
 66 69  1  0  0  0  0
 66 80  1  0  0  0  0
 67 81  1  0  0  0  0
 68 93  1  0  0  0  0
 68 94  1  0  0  0  0
 68 95  1  0  0  0  0
 70 71  1  0  0  0  0
M  CHG  1  81   1
M  ISO  4  40 100  65 101  76 100  90 101
M  END
> <Batch ID>
0003

> <Smiles>
CNC(C)C(=O)NC(C(=O)N1Cc2cc([101O:1][101CH2:1]CCNC(=O)CCCCCNC(=O)c3cc([100NH:0][100C:0](=O)N4CCCC(n5nc(-c6ccc(Oc7ccc(F)cc7F)cc6)c(C(N)=O)c5N)C4)cc(C(F)(F)F)c3)ccc2CC1C(=O)NC1CCCc2ccccc21)C(C)(C)C

> <Shape>
0.184

> <Color>
0.180

> <Negative vol penalty>
0.000

$$$$

  -OEChem-04052315213D

 82 90  0     1  0  0  0  0  0999 V2000
  -28.7029  -10.8740   16.3755 C   0  0  0  0  0  0  0  0  0  0  0  0
  -28.0552  -12.0438   15.9917 C   0  0  0  0  0  0  0  0  0  0  0  0
  -24.4872  -18.5471   18.3908 C   0  0  0  0  0  0  0  0  0  0  0  0
  -24.8518  -30.2021   19.8386 C   0  0  0  0  0  0  0  0  0  0  0  0
  -24.3660  -29.0445   21.9029 C   0  0  0  0  0  0  0  0  0  0  0  0
  -29.2068  -10.7499   17.6696 C   0  0  0  0  0  0  0  0  0  0  0  0
  -27.9101  -13.0900   16.9021 C   0  0  0  0  0  0  0  0  0  0  0  0
  -28.9921  -17.5997   14.8682 C   0  0  0  0  0  0  0  0  0  0  0  0
  -23.9929  -17.8938   17.2619 C   0  0  0  0  0  0  0  0  0  0  0  0
  -23.8858  -19.7251   18.8341 C   0  0  0  0  0  0  0  0  0  0  0  0
  -24.8760  -31.4161   20.5250 C   0  0  0  0  0  0  0  0  0  0  0  0
  -24.3903  -30.2586   22.5893 C   0  0  0  0  0  0  0  0  0  0  0  0
  -28.0200  -18.1815   14.0557 C   0  0  0  0  0  0  0  0  0  0  0  0
  -26.7189  -32.3833   23.8072 C   0  0  0  0  0  0  0  0  0  0  0  0
  -27.4112  -32.4281   25.0173 C   0  0  0  0  0  0  0  0  0  0  0  0
  -27.3353  -19.5878   15.8922 C   0  0  0  0  0  0  0  0  0  0  0  0
  -22.2960  -19.5965   17.0195 C   0  0  0  0  0  0  0  0  0  0  0  0
  -25.3759  -33.0549   26.1584 C   0  0  0  0  0  0  0  0  0  0  0  0
  -24.5967  -29.0163   20.5275 C   0  0  0  0  0  0  0  0  0  0  0  0
  -25.6548  -26.8939   19.5874 C   0  0  0  0  0  0  0  0  0  0  0  0
  -29.0763  -11.7988   18.5934 C   0  0  0  0  0  0  0  0  0  0  0  0
  -29.1362  -18.0005   16.2042 C   0  0  0  0  0  0  0  0  0  0  0  0
  -28.4115  -12.9793   18.2102 C   0  0  0  0  0  0  0  0  0  0  0  0
  -28.3118  -19.0113   16.7189 C   0  0  0  0  0  0  0  0  0  0  0  0
  -22.8974  -18.4185   16.5762 C   0  0  0  0  0  0  0  0  0  0  0  0
  -22.7903  -20.2497   18.1484 C   0  0  0  0  0  0  0  0  0  0  0  0
  -24.6453  -31.4443   21.9004 C   0  0  0  0  0  0  0  0  0  0  0  0
  -27.1895  -19.1736   14.5685 C   0  0  0  0  0  0  0  0  0  0  0  0
  -25.3552  -32.6744   23.7726 C   0  0  0  0  0  0  0  0  0  0  0  0
  -26.7397  -32.7638   26.1929 C   0  0  0  0  0  0  0  0  0  0  0  0
  -24.6837  -33.0101   24.9482 C   0  0  0  0  0  0  0  0  0  0  0  0
  -24.5710  -27.7620   19.8189 C   0  0  0  0  0  0  0  0  0  0  0  0
  -25.1136  -25.8510   18.8762 C   0  0  0  0  0  0  0  0  0  0  0  0
  -27.0280  -27.0192   19.9803 C   0  0  0  0  0  0  0  0  0  0  0  0
  -28.8568  -16.5564   19.0221 C   0  0  0  0  0  0  0  0  0  0  0  0
  -29.9668  -19.3895   20.1462 C   0  0  0  0  0  0  0  0  0  0  0  0
  -30.3532  -22.7461   19.6654 C   0  0  0  0  0  0  0  0  0  0  0  0
  -21.0850  -22.1006   18.0349 C   0  0  0  0  0  0  0  0  0  0  0  0
  -29.5954  -11.6001   19.9954 C   0  0  0  0  0  0  0  0  0  0  0  0
  -30.2075  -17.3819   17.0599 C   0  0  0  0  0  0  0  0  0  0  0  0
  -28.4394  -19.4916   18.1407 C   0  0  0  0  0  0  0  0  0  0  0  0
  -29.7307  -12.8997   20.7847 C   0  0  0  0  0  0  0  0  0  0  0  0
  -20.5741  -25.3582   16.6919 C   0  0  0  0  0  0  0  0  0  0  0  0
  -28.4760  -13.7529   20.6275 C   0  0  0  0  0  0  0  0  0  0  0  0
  -21.6575  -26.2026   17.3666 C   0  0  0  0  0  0  0  0  0  0  0  0
  -20.0051  -24.3033   17.6391 C   0  0  0  0  0  0  0  0  0  0  0  0
  -22.0888  -24.2833   18.9533 C   0  0  0  0  0  0  0  0  0  0  0  0
  -28.2562  -14.1459   19.1616 C   0  0  1  0  0  0  0  0  0  0  0  0
  -29.9240  -17.5048   18.5539 C   0  0  1  0  0  0  0  0  0  0  0  0
  -22.7377  -25.3171   18.0185 C   0  0  2  0  0  0  0  0  0  0  0  0
  -31.2654  -24.8030   20.7763 C   0  0  0  0  0  0  0  0  0  0  0  0
  -27.5413  -19.4632   21.9959 C   0  0  0  0  0  0  0  0  0  0  0  0
  -27.9828  -21.9000   22.3633 C   0  0  0  0  0  0  0  0  0  0  0  0
  -29.6820  -20.2087   23.0524 C   0  0  0  0  0  0  0  0  0  0  0  0
  -32.2944  -23.2068   17.4794 C   0  0  0  0  0  0  0  0  0  0  0  0
  -22.3661  -17.7154   15.3619 C   0  0  0  0  0  0  0  0  0  0  0  0
  -24.2533  -19.3877   12.4805 C   0  0  0  0  0  0  0  0  0  0  0  0
  -23.3479  -19.3003   13.6998 C   0  0  0  0  0  0  0  0  0  0  0  0
  -25.6829  -18.9310   12.7444 C   0  0  0  0  0  0  0  0  0  1  0  0
  -29.3328  -20.6843   20.5940 C   0  0  1  0  0  0  0  0  0  0  0  0
  -31.5593  -23.6541   19.8242 C   0  0  2  0  0  0  0  0  0  0  0  0
  -28.6308  -20.5539   21.9751 C   0  0  0  0  0  0  0  0  0  0  0  0
  -23.4277  -27.3098   19.2969 N   0  0  0  0  0  0  0  0  0  0  0  0
  -23.7901  -26.1464   18.7303 N   0  0  0  0  0  0  0  0  0  0  0  0
  -29.4976  -18.8515   18.9394 N   0  0  0  0  0  0  0  0  0  0  0  0
  -21.0856  -23.4999   18.2154 N   0  0  0  0  0  0  0  0  0  0  0  0
  -25.6455  -24.7192   18.3676 N   0  0  0  0  0  0  0  0  0  0  0  0
  -27.4144  -28.1539   20.7066 N   0  0  0  0  0  0  0  0  0  0  0  0
  -22.1793  -21.4460   18.5995 N   0  0  0  0  0  0  0  0  0  0  0  0
  -29.1453  -15.2253   18.7890 N   0  0  0  0  0  0  0  0  0  0  0  0
  -30.3878  -21.6911   20.5526 N   0  0  0  0  0  0  0  0  0  0  0  0
  -31.9547  -24.2256   18.5059 N   0  3  0  0  0  0  0  0  0  0  0  0
  -23.2257  -17.8971   14.1597 N   0  3  0  0  0  0  0  0  0  0  0  0
  -27.8903  -26.1585   19.6815 O   0  0  0  0  0  0  0  0  0  0  0  0
  -27.8470  -16.9994   19.5566 O   0  0  0  0  0  0  0  0  0  0  0  0
  -30.8509  -18.8782   20.8378 O   0  0  0  0  0  0  0  0  0  0  0  0
  -29.4671  -22.9540   18.8395 O   0  0  0  0  0  0  0  0  0  0  0  0
  -20.1946  -21.5283   17.4012 O   0  0  0  0  0  0  0  0  0  0  0  0
  -24.6691  -32.6287   22.5706 O   0  0  0  0  0  0  0  0  0  0  0  0
  -26.2393  -19.7427   13.7778 O   0  0  0  0  0  0  0  0  0  1  0  0
  -27.4043  -32.8053   27.3551 F   0  0  0  0  0  0  0  0  0  0  0  0
  -23.3733  -33.2896   24.9215 F   0  0  0  0  0  0  0  0  0  0  0  0
  1  2  1  0  0  0  0
  1  6  2  0  0  0  0
  2  7  2  0  0  0  0
  3  9  2  0  0  0  0
  3 10  1  0  0  0  0
  4 11  2  0  0  0  0
  4 19  1  0  0  0  0
  5 12  1  0  0  0  0
  5 19  2  0  0  0  0
  6 21  1  0  0  0  0
  7 23  1  0  0  0  0
  8 13  2  0  0  0  0
  8 22  1  0  0  0  0
  9 25  1  0  0  0  0
 10 26  2  0  0  0  0
 11 27  1  0  0  0  0
 12 27  2  0  0  0  0
 13 28  1  0  0  0  0
 14 15  2  0  0  0  0
 14 29  1  0  0  0  0
 15 30  1  0  0  0  0
 16 24  1  0  0  0  0
 16 28  2  0  0  0  0
 17 25  2  0  0  0  0
 17 26  1  0  0  0  0
 18 30  2  0  0  0  0
 18 31  1  0  0  0  0
 19 32  1  0  0  0  0
 20 32  1  0  0  0  0
 20 33  2  0  0  0  0
 20 34  1  0  0  0  0
 21 23  2  0  0  0  0
 21 39  1  0  0  0  0
 22 24  2  0  0  0  0
 22 40  1  0  0  0  0
 23 48  1  0  0  0  0
 24 41  1  0  0  0  0
 25 56  1  0  0  0  0
 26 69  1  0  0  0  0
 27 79  1  0  0  0  0
 28 80  1  0  0  0  0
 29 31  2  0  0  0  0
 29 79  1  0  0  0  0
 30 81  1  0  0  0  0
 31 82  1  0  0  0  0
 32 63  2  0  0  0  0
 33 64  1  0  0  0  0
 33 67  1  0  0  0  0
 34 68  1  0  0  0  0
 34 74  2  0  0  0  0
 35 49  1  0  0  0  0
 35 70  1  0  0  0  0
 35 75  2  0  0  0  0
 36 60  1  0  0  0  0
 36 65  1  0  0  0  0
 36 76  2  0  0  0  0
 37 61  1  0  0  0  0
 37 71  1  0  0  0  0
 37 77  2  0  0  0  0
 38 66  1  0  0  0  0
 38 69  1  0  0  0  0
 38 78  2  0  0  0  0
 39 42  1  0  0  0  0
 40 49  1  0  0  0  0
 41 65  1  0  0  0  0
 42 44  1  0  0  0  0
 43 45  1  0  0  0  0
 43 46  1  0  0  0  0
 44 48  1  0  0  0  0
 45 50  1  0  0  0  0
 46 66  1  0  0  0  0
 47 50  1  0  0  0  0
 47 66  1  0  0  0  0
 48 70  1  0  0  0  0
 49 65  1  0  0  0  0
 50 64  1  0  0  0  0
 51 61  1  0  0  0  0
 52 62  1  0  0  0  0
 53 62  1  0  0  0  0
 54 62  1  0  0  0  0
 55 72  1  0  0  0  0
 56 73  1  0  0  0  0
 57 58  1  0  0  0  0
 57 59  1  0  0  0  0
 58 73  1  0  0  0  0
 59 80  1  0  0  0  0
 60 62  1  0  0  0  0
 60 71  1  0  0  0  0
 61 72  1  0  0  0  0
 63 64  1  0  0  0  0
M  CHG  2  72   1  73   1
M  ISO  4  38 100  59 101  69 100  80 101
M  END
> <Batch ID>
0003

> <Smiles>
CNC(C)C(=O)NC(C(=O)N1Cc2cc([101O:1][101CH2:1]CCNCc3cccc([100NH:0][100C:0](=O)N4CCCC(n5nc(-c6ccc(Oc7ccc(F)cc7F)cc6)c(C(N)=O)c5N)C4)c3)ccc2CC1C(=O)NC1CCCc2ccccc21)C(C)(C)C

> <Shape>
0.222

> <Color>
0.064

> <Negative vol penalty>
0.000

$$$$

  -OEChem-04052315213D

 89 97  0     1  0  0  0  0  0999 V2000
  -16.2866  -25.9274   23.3205 C   0  0  0  0  0  0  0  0  0  0  0  0
  -17.0767  -25.0279   22.6119 C   0  0  0  0  0  0  0  0  0  0  0  0
  -25.8341  -13.8923   21.6409 C   0  0  0  0  0  0  0  0  0  0  0  0
  -24.9338  -14.8095   19.5952 C   0  0  0  0  0  0  0  0  0  0  0  0
  -31.0122  -23.1830   16.1552 C   0  0  0  0  0  0  0  0  0  0  0  0
  -30.0507  -25.0908   17.2835 C   0  0  0  0  0  0  0  0  0  0  0  0
  -16.5650  -27.2924   23.2646 C   0  0  0  0  0  0  0  0  0  0  0  0
  -18.1452  -25.4931   21.8462 C   0  0  0  0  0  0  0  0  0  0  0  0
  -24.7091  -23.6011   19.6895 C   0  0  0  0  0  0  0  0  0  0  0  0
  -30.6012  -22.3571   17.2014 C   0  0  0  0  0  0  0  0  0  0  0  0
  -29.6397  -24.2649   18.3297 C   0  0  0  0  0  0  0  0  0  0  0  0
  -24.8110  -12.9446   21.6664 C   0  0  0  0  0  0  0  0  0  0  0  0
  -23.9106  -13.8618   19.6206 C   0  0  0  0  0  0  0  0  0  0  0  0
  -25.4670  -23.4789   18.5256 C   0  0  0  0  0  0  0  0  0  0  0  0
  -24.0913  -10.0144   20.1403 C   0  0  0  0  0  0  0  0  0  0  0  0
  -24.4379   -8.6937   20.4252 C   0  0  0  0  0  0  0  0  0  0  0  0
  -25.9022  -25.8513   18.5671 C   0  0  0  0  0  0  0  0  0  0  0  0
  -22.9911   -8.7313   22.3598 C   0  0  0  0  0  0  0  0  0  0  0  0
  -25.8955  -14.8248   20.6053 C   0  0  0  0  0  0  0  0  0  0  0  0
  -30.7370  -24.5499   16.1963 C   0  0  0  0  0  0  0  0  0  0  0  0
  -28.2132  -15.6779   19.9667 C   0  0  0  0  0  0  0  0  0  0  0  0
  -17.6433  -27.7737   22.5055 C   0  0  0  0  0  0  0  0  0  0  0  0
  -24.5328  -24.8532   20.2958 C   0  0  0  0  0  0  0  0  0  0  0  0
  -18.4375  -26.8660   21.7790 C   0  0  0  0  0  0  0  0  0  0  0  0
  -25.1438  -25.9863   19.7400 C   0  0  0  0  0  0  0  0  0  0  0  0
  -29.9150  -22.8980   18.2887 C   0  0  0  0  0  0  0  0  0  0  0  0
  -23.8492  -12.9293   20.6562 C   0  0  0  0  0  0  0  0  0  0  0  0
  -26.0612  -24.6045   17.9626 C   0  0  0  0  0  0  0  0  0  0  0  0
  -23.1946  -10.6936   20.9652 C   0  0  0  0  0  0  0  0  0  0  0  0
  -23.8878   -8.0522   21.5350 C   0  0  0  0  0  0  0  0  0  0  0  0
  -22.6445  -10.0521   22.0749 C   0  0  0  0  0  0  0  0  0  0  0  0
  -26.9518  -15.8044   20.5788 C   0  0  0  0  0  0  0  0  0  0  0  0
  -28.8412  -16.8719   20.2247 C   0  0  0  0  0  0  0  0  0  0  0  0
  -31.1749  -25.4296   15.0821 C   0  0  0  0  0  0  0  0  0  0  0  0
  -28.7677  -14.5795   19.2308 C   0  0  0  0  0  0  0  0  0  0  0  0
  -22.0293  -26.7074   20.9267 C   0  0  0  0  0  0  0  0  0  0  0  0
  -24.2427  -28.5036   22.4749 C   0  0  0  0  0  0  0  0  0  0  0  0
  -28.4347  -27.1269   12.7787 C   0  0  0  0  0  0  0  0  0  0  0  0
  -27.5166  -29.4029   22.8213 C   0  0  0  0  0  0  0  0  0  0  0  0
  -28.8072  -22.4329   20.5029 C   0  0  0  0  0  0  0  0  0  0  0  0
  -17.8764  -29.2622   22.4378 C   0  0  0  0  0  0  0  0  0  0  0  0
  -23.7346  -24.9640   21.5658 C   0  0  0  0  0  0  0  0  0  0  0  0
  -25.0019  -27.3500   20.3635 C   0  0  0  0  0  0  0  0  0  0  0  0
  -19.2555  -29.6391   21.9028 C   0  0  0  0  0  0  0  0  0  0  0  0
  -27.5674  -20.6601   23.3309 C   0  0  0  0  0  0  0  0  0  0  0  0
  -19.5812  -28.8317   20.6503 C   0  0  0  0  0  0  0  0  0  0  0  0
  -27.4005  -19.2284   22.8167 C   0  0  0  0  0  0  0  0  0  0  0  0
  -27.2148  -21.6918   22.2608 C   0  0  0  0  0  0  0  0  0  0  0  0
  -27.7465  -20.0900   20.4661 C   0  0  0  0  0  0  0  0  0  0  0  0
  -19.6205  -27.3297   20.9570 C   0  0  1  0  0  0  0  0  0  0  0  0
  -23.1955  -26.3697   21.8120 C   0  0  1  0  0  0  0  0  0  0  0  0
  -28.1523  -19.0155   21.4881 C   0  0  2  0  0  0  0  0  0  0  0  0
  -29.0129  -30.9213   24.1453 C   0  0  0  0  0  0  0  0  0  0  0  0
  -23.2807  -30.8845   20.8270 C   0  0  0  0  0  0  0  0  0  0  0  0
  -25.3777  -32.0900   21.4729 C   0  0  0  0  0  0  0  0  0  0  0  0
  -23.7470  -31.3989   23.2296 C   0  0  0  0  0  0  0  0  0  0  0  0
  -29.0487  -27.1232   23.9235 C   0  0  0  0  0  0  0  0  0  0  0  0
  -29.9381  -27.1254   12.5675 C   0  0  0  0  0  0  0  0  0  0  0  0
  -26.0930  -25.1488   14.0822 C   0  0  0  0  0  0  0  0  0  0  0  0
  -26.8001  -23.8575   14.4951 C   0  0  0  0  0  0  0  0  0  0  0  0
  -30.7037  -27.5157   13.8243 C   0  0  0  0  0  0  0  0  0  0  0  0
  -26.4732  -25.5990   12.6752 C   0  0  0  0  0  0  0  0  0  0  0  0
  -26.4360  -23.4503   15.9173 C   0  0  0  0  0  0  0  0  0  1  0  0
  -25.1586  -29.6395   22.0877 C   0  0  1  0  0  0  0  0  0  0  0  0
  -28.4012  -29.5323   24.0482 C   0  0  2  0  0  0  0  0  0  0  0  0
  -24.3923  -30.9780   21.8912 C   0  0  0  0  0  0  0  0  0  0  0  0
  -26.7866  -16.9854   21.1804 N   0  0  0  0  0  0  0  0  0  0  0  0
  -27.9525  -17.6120   20.9477 N   0  0  0  0  0  0  0  0  0  0  0  0
  -24.2065  -27.4078   21.6009 N   0  0  0  0  0  0  0  0  0  0  0  0
  -27.9680  -21.4298   21.0324 N   0  0  0  0  0  0  0  0  0  0  0  0
  -30.0614  -17.3504   19.9013 N   0  0  0  0  0  0  0  0  0  0  0  0
  -27.9869  -13.4283   19.0592 N   0  0  0  0  0  0  0  0  0  0  0  0
  -29.4977  -22.0581   19.3509 N   0  0  0  0  0  0  0  0  0  0  0  0
  -30.4194  -26.5755   14.8808 N   0  0  0  0  0  0  0  0  0  0  0  0
  -20.8618  -26.9802   21.6137 N   0  0  0  0  0  0  0  0  0  0  0  0
  -27.8779  -25.8736   12.5444 N   0  0  0  0  0  0  0  0  0  0  0  0
  -26.1992  -29.6911   23.1089 N   0  0  0  0  0  0  0  0  0  0  0  0
  -29.5069  -28.5344   23.9971 N   0  3  0  0  0  0  0  0  0  0  0  0
  -32.1422  -25.0990   14.4012 O   0  0  0  0  0  0  0  0  0  0  0  0
  -29.9275  -14.6114   18.7539 O   0  0  0  0  0  0  0  0  0  0  0  0
  -22.1782  -26.7210   19.7104 O   0  0  0  0  0  0  0  0  0  0  0  0
  -23.5892  -28.5824   23.5181 O   0  0  0  0  0  0  0  0  0  0  0  0
  -27.8045  -28.1249   13.1177 O   0  0  0  0  0  0  0  0  0  0  0  0
  -27.9514  -29.0820   21.7175 O   0  0  0  0  0  0  0  0  0  0  0  0
  -28.9269  -23.5332   21.0478 O   0  0  0  0  0  0  0  0  0  0  0  0
  -22.8509  -12.0045   20.6806 O   0  0  0  0  0  0  0  0  0  0  0  0
  -26.8009  -24.4881   16.8263 O   0  0  0  0  0  0  0  0  0  1  0  0
  -24.2196   -6.7834   21.8076 F   0  0  0  0  0  0  0  0  0  0  0  0
  -21.7817  -10.6991   22.8704 F   0  0  0  0  0  0  0  0  0  0  0  0
  1  2  1  0  0  0  0
  1  7  2  0  0  0  0
  2  8  2  0  0  0  0
  3 12  2  0  0  0  0
  3 19  1  0  0  0  0
  4 13  1  0  0  0  0
  4 19  2  0  0  0  0
  5 10  2  0  0  0  0
  5 20  1  0  0  0  0
  6 11  1  0  0  0  0
  6 20  2  0  0  0  0
  7 22  1  0  0  0  0
  8 24  1  0  0  0  0
  9 14  2  0  0  0  0
  9 23  1  0  0  0  0
 10 26  1  0  0  0  0
 11 26  2  0  0  0  0
 12 27  1  0  0  0  0
 13 27  2  0  0  0  0
 14 28  1  0  0  0  0
 15 16  2  0  0  0  0
 15 29  1  0  0  0  0
 16 30  1  0  0  0  0
 17 25  1  0  0  0  0
 17 28  2  0  0  0  0
 18 30  2  0  0  0  0
 18 31  1  0  0  0  0
 19 32  1  0  0  0  0
 20 34  1  0  0  0  0
 21 32  1  0  0  0  0
 21 33  2  0  0  0  0
 21 35  1  0  0  0  0
 22 24  2  0  0  0  0
 22 41  1  0  0  0  0
 23 25  2  0  0  0  0
 23 42  1  0  0  0  0
 24 50  1  0  0  0  0
 25 43  1  0  0  0  0
 26 73  1  0  0  0  0
 27 86  1  0  0  0  0
 28 87  1  0  0  0  0
 29 31  2  0  0  0  0
 29 86  1  0  0  0  0
 30 88  1  0  0  0  0
 31 89  1  0  0  0  0
 32 67  2  0  0  0  0
 33 68  1  0  0  0  0
 33 71  1  0  0  0  0
 34 74  1  0  0  0  0
 34 79  2  0  0  0  0
 35 72  1  0  0  0  0
 35 80  2  0  0  0  0
 36 51  1  0  0  0  0
 36 75  1  0  0  0  0
 36 81  2  0  0  0  0
 37 64  1  0  0  0  0
 37 69  1  0  0  0  0
 37 82  2  0  0  0  0
 38 58  1  0  0  0  0
 38 76  1  0  0  0  0
 38 83  2  0  0  0  0
 39 65  1  0  0  0  0
 39 77  1  0  0  0  0
 39 84  2  0  0  0  0
 40 70  1  0  0  0  0
 40 73  1  0  0  0  0
 40 85  2  0  0  0  0
 41 44  1  0  0  0  0
 42 51  1  0  0  0  0
 43 69  1  0  0  0  0
 44 46  1  0  0  0  0
 45 47  1  0  0  0  0
 45 48  1  0  0  0  0
 46 50  1  0  0  0  0
 47 52  1  0  0  0  0
 48 70  1  0  0  0  0
 49 52  1  0  0  0  0
 49 70  1  0  0  0  0
 50 75  1  0  0  0  0
 51 69  1  0  0  0  0
 52 68  1  0  0  0  0
 53 65  1  0  0  0  0
 54 66  1  0  0  0  0
 55 66  1  0  0  0  0
 56 66  1  0  0  0  0
 57 78  1  0  0  0  0
 58 61  1  0  0  0  0
 59 60  1  0  0  0  0
 59 62  1  0  0  0  0
 60 63  1  0  0  0  0
 61 74  1  0  0  0  0
 62 76  1  0  0  0  0
 63 87  1  0  0  0  0
 64 66  1  0  0  0  0
 64 77  1  0  0  0  0
 65 78  1  0  0  0  0
 67 68  1  0  0  0  0
M  CHG  1  78   1
M  ISO  4  40 100  63 101  73 100  87 101
M  END
> <Batch ID>
0003

> <Smiles>
CNC(C)C(=O)NC(C(=O)N1Cc2cc([101O:1][101CH2:1]CCCNC(=O)CCNC(=O)c3ccc([100NH:0][100C:0](=O)N4CCCC(n5nc(-c6ccc(Oc7ccc(F)cc7F)cc6)c(C(N)=O)c5N)C4)cc3)ccc2CC1C(=O)NC1CCCc2ccccc21)C(C)(C)C

> <Shape>
0.263

> <Color>
0.054

> <Negative vol penalty>
0.000

$$$$

  -OEChem-04052315213D

 84 92  0     1  0  0  0  0  0999 V2000
  -29.6029  -21.5368   19.5543 C   0  0  0  0  0  0  0  0  0  0  0  0
  -28.5961  -22.4280   19.2009 C   0  0  0  0  0  0  0  0  0  0  0  0
  -26.9330  -13.5165   20.7207 C   0  0  0  0  0  0  0  0  0  0  0  0
  -24.6018  -13.9201   20.2309 C   0  0  0  0  0  0  0  0  0  0  0  0
  -30.3024  -21.7181   20.7455 C   0  0  0  0  0  0  0  0  0  0  0  0
  -28.2965  -23.5075   20.0326 C   0  0  0  0  0  0  0  0  0  0  0  0
  -25.0723  -26.8116   18.3323 C   0  0  0  0  0  0  0  0  0  0  0  0
  -20.7112  -20.5117   23.3362 C   0  0  0  0  0  0  0  0  0  0  0  0
  -21.8847  -22.1911   24.6166 C   0  0  0  0  0  0  0  0  0  0  0  0
  -26.7224  -12.1437   20.5918 C   0  0  0  0  0  0  0  0  0  0  0  0
  -24.3912  -12.5473   20.1020 C   0  0  0  0  0  0  0  0  0  0  0  0
  -23.7083  -26.5454   18.2206 C   0  0  0  0  0  0  0  0  0  0  0  0
  -19.7137  -21.4388   23.0344 C   0  0  0  0  0  0  0  0  0  0  0  0
  -20.8873  -23.1182   24.3147 C   0  0  0  0  0  0  0  0  0  0  0  0
  -23.1604   -9.1291   19.9981 C   0  0  0  0  0  0  0  0  0  0  0  0
  -22.0311   -8.5861   20.6109 C   0  0  0  0  0  0  0  0  0  0  0  0
  -23.2962  -27.8570   20.2028 C   0  0  0  0  0  0  0  0  0  0  0  0
  -22.8320   -9.3456   22.7600 C   0  0  0  0  0  0  0  0  0  0  0  0
  -25.8727  -14.4048   20.5402 C   0  0  0  0  0  0  0  0  0  0  0  0
  -26.4588  -16.7258   19.6587 C   0  0  0  0  0  0  0  0  0  0  0  0
  -30.0022  -22.7935   21.5978 C   0  0  0  0  0  0  0  0  0  0  0  0
  -25.5605  -27.5948   19.3880 C   0  0  0  0  0  0  0  0  0  0  0  0
  -29.0074  -23.7212   21.2274 C   0  0  0  0  0  0  0  0  0  0  0  0
  -24.6665  -28.1338   20.3241 C   0  0  0  0  0  0  0  0  0  0  0  0
  -21.7967  -20.8878   24.1273 C   0  0  0  0  0  0  0  0  0  0  0  0
  -25.4516  -11.6591   20.2825 C   0  0  0  0  0  0  0  0  0  0  0  0
  -19.8017  -22.7420   23.5236 C   0  0  0  0  0  0  0  0  0  0  0  0
  -22.8203  -27.0657   19.1576 C   0  0  0  0  0  0  0  0  0  0  0  0
  -24.1255   -9.7803   20.7663 C   0  0  0  0  0  0  0  0  0  0  0  0
  -21.8669   -8.6943   21.9918 C   0  0  0  0  0  0  0  0  0  0  0  0
  -23.9614   -9.8886   22.1473 C   0  0  0  0  0  0  0  0  0  0  0  0
  -26.0895  -15.8230   20.6738 C   0  0  0  0  0  0  0  0  0  0  0  0
  -26.5355  -17.9420   20.2922 C   0  0  0  0  0  0  0  0  0  0  0  0
  -26.7101  -16.4864   18.2676 C   0  0  0  0  0  0  0  0  0  0  0  0
  -27.5542  -27.0987   21.8135 C   0  0  0  0  0  0  0  0  0  0  0  0
  -27.1462  -30.2812   22.2909 C   0  0  0  0  0  0  0  0  0  0  0  0
  -19.5879  -25.7820   20.1427 C   0  0  0  0  0  0  0  0  0  0  0  0
  -25.1987  -33.0498   21.8564 C   0  0  0  0  0  0  0  0  0  0  0  0
  -23.9530  -20.1559   25.2049 C   0  0  0  0  0  0  0  0  0  0  0  0
  -30.7960  -22.9468   22.8712 C   0  0  0  0  0  0  0  0  0  0  0  0
  -27.0316  -27.8949   19.4792 C   0  0  0  0  0  0  0  0  0  0  0  0
  -25.1376  -28.9974   21.4647 C   0  0  0  0  0  0  0  0  0  0  0  0
  -30.1135  -23.8517   23.8919 C   0  0  0  0  0  0  0  0  0  0  0  0
  -27.4465  -19.8833   24.5742 C   0  0  0  0  0  0  0  0  0  0  0  0
  -29.6822  -25.1509   23.2283 C   0  0  0  0  0  0  0  0  0  0  0  0
  -27.5283  -18.8980   23.4061 C   0  0  0  0  0  0  0  0  0  0  0  0
  -26.3293  -19.5158   25.5491 C   0  0  0  0  0  0  0  0  0  0  0  0
  -25.0883  -18.3487   23.7694 C   0  0  0  0  0  0  0  0  0  0  0  0
  -28.6434  -24.8853   22.1313 C   0  0  1  0  0  0  0  0  0  0  0  0
  -27.4769  -28.2790   20.8869 C   0  0  1  0  0  0  0  0  0  0  0  0
  -26.1571  -18.7146   22.7265 C   0  0  2  0  0  0  0  0  0  0  0  0
  -25.1112  -35.5002   22.3903 C   0  0  0  0  0  0  0  0  0  0  0  0
  -26.3805  -29.6240   25.1705 C   0  0  0  0  0  0  0  0  0  0  0  0
  -25.4099  -31.9237   25.3637 C   0  0  0  0  0  0  0  0  0  0  0  0
  -27.8463  -31.6339   24.9136 C   0  0  0  0  0  0  0  0  0  0  0  0
  -25.1734  -33.7915   18.9914 C   0  0  0  0  0  0  0  0  0  0  0  0
  -20.7374  -26.7595   20.2636 C   0  0  0  0  0  0  0  0  0  1  0  0
  -17.7045  -24.8450   21.4695 C   0  0  0  0  0  0  0  0  0  0  0  0
  -18.1486  -23.4885   21.9855 C   0  0  0  0  0  0  0  0  0  0  0  0
  -26.1787  -31.1282   23.0818 C   0  0  1  0  0  0  0  0  0  0  0  0
  -25.5319  -34.4500   21.3740 C   0  0  2  0  0  0  0  0  0  0  0  0
  -26.4449  -31.0596   24.6121 C   0  0  0  0  0  0  0  0  0  0  0  0
  -25.9419  -16.4151   21.8619 N   0  0  0  0  0  0  0  0  0  0  0  0
  -26.2200  -17.7031   21.5974 N   0  0  0  0  0  0  0  0  0  0  0  0
  -26.5859  -29.2570   21.5145 N   0  0  0  0  0  0  0  0  0  0  0  0
  -25.0597  -19.3627   24.8351 N   0  0  0  0  0  0  0  0  0  0  0  0
  -26.8413  -19.1819   19.8545 N   0  0  0  0  0  0  0  0  0  0  0  0
  -26.5864  -15.1775   17.7819 N   0  0  0  0  0  0  0  0  0  0  0  0
  -22.8100  -19.9461   24.4340 N   0  0  0  0  0  0  0  0  0  0  0  0
  -28.4172  -26.1062   21.3897 N   0  0  0  0  0  0  0  0  0  0  0  0
  -18.8547  -25.7056   21.3165 N   0  0  0  0  0  0  0  0  0  0  0  0
  -26.2601  -32.4725   22.5208 N   0  0  0  0  0  0  0  0  0  0  0  0
  -24.8343  -34.7345   20.0881 N   0  3  0  0  0  0  0  0  0  0  0  0
  -27.0508  -17.4031   17.4820 O   0  0  0  0  0  0  0  0  0  0  0  0
  -26.8818  -27.0898   22.8380 O   0  0  0  0  0  0  0  0  0  0  0  0
  -28.3540  -30.5240   22.3540 O   0  0  0  0  0  0  0  0  0  0  0  0
  -19.3602  -25.1479   19.1160 O   0  0  0  0  0  0  0  0  0  0  0  0
  -24.1050  -32.5224   21.6664 O   0  0  0  0  0  0  0  0  0  0  0  0
  -24.0227  -20.9814   26.1191 O   0  0  0  0  0  0  0  0  0  0  0  0
  -25.2458  -10.3196   20.1564 O   0  0  0  0  0  0  0  0  0  0  0  0
  -21.4886  -26.8069   19.0513 O   0  0  0  0  0  0  0  0  0  1  0  0
  -18.8219  -23.6529   23.2271 O   0  0  0  0  0  0  0  0  0  0  0  0
  -20.7817   -8.1742   22.5799 F   0  0  0  0  0  0  0  0  0  0  0  0
  -24.8846  -10.5141   22.8903 F   0  0  0  0  0  0  0  0  0  0  0  0
  1  2  1  0  0  0  0
  1  5  2  0  0  0  0
  2  6  2  0  0  0  0
  3 10  2  0  0  0  0
  3 19  1  0  0  0  0
  4 11  1  0  0  0  0
  4 19  2  0  0  0  0
  5 21  1  0  0  0  0
  6 23  1  0  0  0  0
  7 12  2  0  0  0  0
  7 22  1  0  0  0  0
  8 13  2  0  0  0  0
  8 25  1  0  0  0  0
  9 14  1  0  0  0  0
  9 25  2  0  0  0  0
 10 26  1  0  0  0  0
 11 26  2  0  0  0  0
 12 28  1  0  0  0  0
 13 27  1  0  0  0  0
 14 27  2  0  0  0  0
 15 16  2  0  0  0  0
 15 29  1  0  0  0  0
 16 30  1  0  0  0  0
 17 24  1  0  0  0  0
 17 28  2  0  0  0  0
 18 30  2  0  0  0  0
 18 31  1  0  0  0  0
 19 32  1  0  0  0  0
 20 32  1  0  0  0  0
 20 33  2  0  0  0  0
 20 34  1  0  0  0  0
 21 23  2  0  0  0  0
 21 40  1  0  0  0  0
 22 24  2  0  0  0  0
 22 41  1  0  0  0  0
 23 49  1  0  0  0  0
 24 42  1  0  0  0  0
 25 69  1  0  0  0  0
 26 80  1  0  0  0  0
 27 82  1  0  0  0  0
 28 81  1  0  0  0  0
 29 31  2  0  0  0  0
 29 80  1  0  0  0  0
 30 83  1  0  0  0  0
 31 84  1  0  0  0  0
 32 63  2  0  0  0  0
 33 64  1  0  0  0  0
 33 67  1  0  0  0  0
 34 68  1  0  0  0  0
 34 74  2  0  0  0  0
 35 50  1  0  0  0  0
 35 70  1  0  0  0  0
 35 75  2  0  0  0  0
 36 60  1  0  0  0  0
 36 65  1  0  0  0  0
 36 76  2  0  0  0  0
 37 57  1  0  0  0  0
 37 71  1  0  0  0  0
 37 77  2  0  0  0  0
 38 61  1  0  0  0  0
 38 72  1  0  0  0  0
 38 78  2  0  0  0  0
 39 66  1  0  0  0  0
 39 69  1  0  0  0  0
 39 79  2  0  0  0  0
 40 43  1  0  0  0  0
 41 50  1  0  0  0  0
 42 65  1  0  0  0  0
 43 45  1  0  0  0  0
 44 46  1  0  0  0  0
 44 47  1  0  0  0  0
 45 49  1  0  0  0  0
 46 51  1  0  0  0  0
 47 66  1  0  0  0  0
 48 51  1  0  0  0  0
 48 66  1  0  0  0  0
 49 70  1  0  0  0  0
 50 65  1  0  0  0  0
 51 64  1  0  0  0  0
 52 61  1  0  0  0  0
 53 62  1  0  0  0  0
 54 62  1  0  0  0  0
 55 62  1  0  0  0  0
 56 73  1  0  0  0  0
 57 81  1  0  0  0  0
 58 59  1  0  0  0  0
 58 71  1  0  0  0  0
 59 82  1  0  0  0  0
 60 62  1  0  0  0  0
 60 72  1  0  0  0  0
 61 73  1  0  0  0  0
 63 64  1  0  0  0  0
M  CHG  1  73   1
M  ISO  4  39 100  57 101  69 100  81 101
M  END
> <Batch ID>
0003

> <Smiles>
CNC(C)C(=O)NC(C(=O)N1Cc2cc([101O:1][101CH2:1]C(=O)NCCOc3ccc([100NH:0][100C:0](=O)N4CCCC(n5nc(-c6ccc(Oc7ccc(F)cc7F)cc6)c(C(N)=O)c5N)C4)cc3)ccc2CC1C(=O)NC1CCCc2ccccc21)C(C)(C)C

> <Shape>
0.220

> <Color>
0.062

> <Negative vol penalty>
0.000

$$$$

  -OEChem-04052315213D

 85 93  0     1  0  0  0  0  0999 V2000
  -26.7573  -17.4782   17.3192 C   0  0  0  0  0  0  0  0  0  0  0  0
  -26.7696  -18.8607   17.4661 C   0  0  0  0  0  0  0  0  0  0  0  0
  -23.1183   -9.8114   20.0004 C   0  0  0  0  0  0  0  0  0  0  0  0
  -23.8335   -9.9367   22.3047 C   0  0  0  0  0  0  0  0  0  0  0  0
  -27.9008  -16.8183   16.8740 C   0  0  0  0  0  0  0  0  0  0  0  0
  -27.9214  -19.5848   17.1566 C   0  0  0  0  0  0  0  0  0  0  0  0
  -27.5692  -24.4910   17.2490 C   0  0  0  0  0  0  0  0  0  0  0  0
  -29.3826  -18.0423   22.1752 C   0  0  0  0  0  0  0  0  0  0  0  0
  -31.0505  -17.8006   20.4441 C   0  0  0  0  0  0  0  0  0  0  0  0
  -22.3886   -8.6584   20.2896 C   0  0  0  0  0  0  0  0  0  0  0  0
  -23.1037   -8.7837   22.5939 C   0  0  0  0  0  0  0  0  0  0  0  0
  -27.4563  -25.2164   18.4343 C   0  0  0  0  0  0  0  0  0  0  0  0
  -29.5279  -19.4285   22.1217 C   0  0  0  0  0  0  0  0  0  0  0  0
  -31.1958  -19.1868   20.3905 C   0  0  0  0  0  0  0  0  0  0  0  0
  -20.6274   -5.4773   20.3433 C   0  0  0  0  0  0  0  0  0  0  0  0
  -20.7255   -4.4061   19.4554 C   0  0  0  0  0  0  0  0  0  0  0  0
  -29.7763  -25.8534   18.2583 C   0  0  0  0  0  0  0  0  0  0  0  0
  -23.1056   -4.2931   19.8549 C   0  0  0  0  0  0  0  0  0  0  0  0
  -23.8408  -10.4505   21.0080 C   0  0  0  0  0  0  0  0  0  0  0  0
  -24.1438  -12.9730   20.7777 C   0  0  0  0  0  0  0  0  0  0  0  0
  -29.0707  -17.5342   16.5710 C   0  0  0  0  0  0  0  0  0  0  0  0
  -28.7914  -24.4324   16.5641 C   0  0  0  0  0  0  0  0  0  0  0  0
  -29.0781  -18.9394   16.6830 C   0  0  0  0  0  0  0  0  0  0  0  0
  -29.9014  -25.1288   17.0632 C   0  0  0  0  0  0  0  0  0  0  0  0
  -30.1439  -17.2283   21.3364 C   0  0  0  0  0  0  0  0  0  0  0  0
  -22.3813   -8.1445   21.5863 C   0  0  0  0  0  0  0  0  0  0  0  0
  -30.4345  -20.0008   21.2293 C   0  0  0  0  0  0  0  0  0  0  0  0
  -28.5607  -25.8954   18.9407 C   0  0  0  0  0  0  0  0  0  0  0  0
  -21.7683   -5.9565   20.9870 C   0  0  0  0  0  0  0  0  0  0  0  0
  -21.9646   -3.8140   19.2112 C   0  0  0  0  0  0  0  0  0  0  0  0
  -23.0074   -5.3643   20.7428 C   0  0  0  0  0  0  0  0  0  0  0  0
  -24.5952  -11.6413   20.7098 C   0  0  0  0  0  0  0  0  0  0  0  0
  -25.2304  -13.7236   20.4005 C   0  0  0  0  0  0  0  0  0  0  0  0
  -22.8572  -13.4857   21.1486 C   0  0  0  0  0  0  0  0  0  0  0  0
  -30.8071  -22.1073   15.7676 C   0  0  0  0  0  0  0  0  0  0  0  0
  -32.3102  -24.4913   14.1615 C   0  0  0  0  0  0  0  0  0  0  0  0
  -30.0549  -23.6110   21.8739 C   0  0  0  0  0  0  0  0  0  0  0  0
  -32.9069  -27.8352   13.8322 C   0  0  0  0  0  0  0  0  0  0  0  0
  -30.6745  -14.8696   20.6281 C   0  0  0  0  0  0  0  0  0  0  0  0
  -30.2773  -16.7702   16.0856 C   0  0  0  0  0  0  0  0  0  0  0  0
  -28.8897  -23.6675   15.2727 C   0  0  0  0  0  0  0  0  0  0  0  0
  -31.2307  -25.1142   16.3551 C   0  0  0  0  0  0  0  0  0  0  0  0
  -31.5732  -17.5650   16.2085 C   0  0  0  0  0  0  0  0  0  0  0  0
  -29.6455  -12.3309   18.3537 C   0  0  0  0  0  0  0  0  0  0  0  0
  -31.3912  -18.9517   15.6097 C   0  0  0  0  0  0  0  0  0  0  0  0
  -28.2027  -12.0347   18.7695 C   0  0  0  0  0  0  0  0  0  0  0  0
  -30.5333  -12.6303   19.5603 C   0  0  0  0  0  0  0  0  0  0  0  0
  -28.5885  -13.3846   20.8709 C   0  0  0  0  0  0  0  0  0  0  0  0
  -30.3290  -19.7448   16.3816 C   0  0  1  0  0  0  0  0  0  0  0  0
  -30.3178  -23.2547   14.9299 C   0  0  1  0  0  0  0  0  0  0  0  0
  -27.6416  -13.1408   19.6845 C   0  0  2  0  0  0  0  0  0  0  0  0
  -34.2083  -29.4774   12.4511 C   0  0  0  0  0  0  0  0  0  0  0  0
  -34.8619  -23.7092   15.6405 C   0  0  0  0  0  0  0  0  0  0  0  0
  -35.8437  -25.9120   14.9682 C   0  0  0  0  0  0  0  0  0  0  0  0
  -35.1843  -24.2573   13.2218 C   0  0  0  0  0  0  0  0  0  0  0  0
  -30.4419  -29.1848   12.9040 C   0  0  0  0  0  0  0  0  0  0  0  0
  -29.7779  -22.1334   22.0518 C   0  0  0  0  0  0  0  0  0  0  0  0
  -28.0195  -26.4783   22.4545 C   0  0  0  0  0  0  0  0  0  0  0  0
  -29.3580  -25.8255   22.7718 C   0  0  0  0  0  0  0  0  0  0  0  0
  -27.5089  -26.1364   21.0600 C   0  0  0  0  0  0  0  0  0  1  0  0
  -33.3868  -25.4944   14.4988 C   0  0  1  0  0  0  0  0  0  0  0  0
  -32.8846  -28.7478   12.6192 C   0  0  2  0  0  0  0  0  0  0  0  0
  -34.7948  -24.8421   14.5969 C   0  0  0  0  0  0  0  0  0  0  0  0
  -25.8694  -11.5481   20.3199 N   0  0  0  0  0  0  0  0  0  0  0  0
  -26.2277  -12.8307   20.1394 N   0  0  0  0  0  0  0  0  0  0  0  0
  -31.2781  -24.3471   15.0994 N   0  0  0  0  0  0  0  0  0  0  0  0
  -29.9408  -13.6906   20.3785 N   0  0  0  0  0  0  0  0  0  0  0  0
  -25.4205  -15.0537   20.2699 N   0  0  0  0  0  0  0  0  0  0  0  0
  -21.8539  -12.5757   21.5088 N   0  0  0  0  0  0  0  0  0  0  0  0
  -29.9964  -15.8201   21.3907 N   0  0  0  0  0  0  0  0  0  0  0  0
  -30.0362  -20.9652   15.6628 N   0  0  0  0  0  0  0  0  0  0  0  0
  -29.2894  -24.3909   22.7339 N   0  0  0  0  0  0  0  0  0  0  0  0
  -33.2867  -26.5522   13.4991 N   0  0  0  0  0  0  0  0  0  0  0  0
  -31.8022  -29.7631   12.7547 N   0  3  0  0  0  0  0  0  0  0  0  0
  -22.5999  -14.7134   21.1446 O   0  0  0  0  0  0  0  0  0  0  0  0
  -31.8107  -22.2472   16.4568 O   0  0  0  0  0  0  0  0  0  0  0  0
  -32.3787  -23.8641   13.1015 O   0  0  0  0  0  0  0  0  0  0  0  0
  -30.8663  -24.0410   21.0585 O   0  0  0  0  0  0  0  0  0  0  0  0
  -32.6201  -28.2228   14.9627 O   0  0  0  0  0  0  0  0  0  0  0  0
  -31.8095  -15.0360   20.1742 O   0  0  0  0  0  0  0  0  0  0  0  0
  -21.6691   -7.0195   21.8689 O   0  0  0  0  0  0  0  0  0  0  0  0
  -30.5778  -21.3672   21.1766 O   0  0  0  0  0  0  0  0  0  0  0  0
  -28.4535  -26.6036   20.0977 O   0  0  0  0  0  0  0  0  0  1  0  0
  -22.0585   -2.7843   18.3596 F   0  0  0  0  0  0  0  0  0  0  0  0
  -24.1069   -5.8195   21.3591 F   0  0  0  0  0  0  0  0  0  0  0  0
  1  2  1  0  0  0  0
  1  5  2  0  0  0  0
  2  6  2  0  0  0  0
  3 10  2  0  0  0  0
  3 19  1  0  0  0  0
  4 11  1  0  0  0  0
  4 19  2  0  0  0  0
  5 21  1  0  0  0  0
  6 23  1  0  0  0  0
  7 12  2  0  0  0  0
  7 22  1  0  0  0  0
  8 13  2  0  0  0  0
  8 25  1  0  0  0  0
  9 14  1  0  0  0  0
  9 25  2  0  0  0  0
 10 26  1  0  0  0  0
 11 26  2  0  0  0  0
 12 28  1  0  0  0  0
 13 27  1  0  0  0  0
 14 27  2  0  0  0  0
 15 16  2  0  0  0  0
 15 29  1  0  0  0  0
 16 30  1  0  0  0  0
 17 24  1  0  0  0  0
 17 28  2  0  0  0  0
 18 30  2  0  0  0  0
 18 31  1  0  0  0  0
 19 32  1  0  0  0  0
 20 32  1  0  0  0  0
 20 33  2  0  0  0  0
 20 34  1  0  0  0  0
 21 23  2  0  0  0  0
 21 40  1  0  0  0  0
 22 24  2  0  0  0  0
 22 41  1  0  0  0  0
 23 49  1  0  0  0  0
 24 42  1  0  0  0  0
 25 70  1  0  0  0  0
 26 81  1  0  0  0  0
 27 82  1  0  0  0  0
 28 83  1  0  0  0  0
 29 31  2  0  0  0  0
 29 81  1  0  0  0  0
 30 84  1  0  0  0  0
 31 85  1  0  0  0  0
 32 64  2  0  0  0  0
 33 65  1  0  0  0  0
 33 68  1  0  0  0  0
 34 69  1  0  0  0  0
 34 75  2  0  0  0  0
 35 50  1  0  0  0  0
 35 71  1  0  0  0  0
 35 76  2  0  0  0  0
 36 61  1  0  0  0  0
 36 66  1  0  0  0  0
 36 77  2  0  0  0  0
 37 57  1  0  0  0  0
 37 72  1  0  0  0  0
 37 78  2  0  0  0  0
 38 62  1  0  0  0  0
 38 73  1  0  0  0  0
 38 79  2  0  0  0  0
 39 67  1  0  0  0  0
 39 70  1  0  0  0  0
 39 80  2  0  0  0  0
 40 43  1  0  0  0  0
 41 50  1  0  0  0  0
 42 66  1  0  0  0  0
 43 45  1  0  0  0  0
 44 46  1  0  0  0  0
 44 47  1  0  0  0  0
 45 49  1  0  0  0  0
 46 51  1  0  0  0  0
 47 67  1  0  0  0  0
 48 51  1  0  0  0  0
 48 67  1  0  0  0  0
 49 71  1  0  0  0  0
 50 66  1  0  0  0  0
 51 65  1  0  0  0  0
 52 62  1  0  0  0  0
 53 63  1  0  0  0  0
 54 63  1  0  0  0  0
 55 63  1  0  0  0  0
 56 74  1  0  0  0  0
 57 82  1  0  0  0  0
 58 59  1  0  0  0  0
 58 60  1  0  0  0  0
 59 72  1  0  0  0  0
 60 83  1  0  0  0  0
 61 63  1  0  0  0  0
 61 73  1  0  0  0  0
 62 74  1  0  0  0  0
 64 65  1  0  0  0  0
M  CHG  1  74   1
M  ISO  4  39 100  60 101  70 100  83 101
M  END
> <Batch ID>
0003

> <Smiles>
CNC(C)C(=O)NC(C(=O)N1Cc2cc([101O:1][101CH2:1]CCNC(=O)COc3ccc([100NH:0][100C:0](=O)N4CCCC(n5nc(-c6ccc(Oc7ccc(F)cc7F)cc6)c(C(N)=O)c5N)C4)cc3)ccc2CC1C(=O)NC1CCCc2ccccc21)C(C)(C)C

> <Shape>
0.213

> <Color>
0.210

> <Negative vol penalty>
0.000

$$$$

  -OEChem-04052315213D

 88 96  0     1  0  0  0  0  0999 V2000
  -29.3634  -24.3186   19.6160 C   0  0  0  0  0  0  0  0  0  0  0  0
  -29.3682  -23.4223   20.6800 C   0  0  0  0  0  0  0  0  0  0  0  0
  -24.7074  -16.4097   26.7936 C   0  0  0  0  0  0  0  0  0  0  0  0
  -23.0773   -9.8855   19.9695 C   0  0  0  0  0  0  0  0  0  0  0  0
  -23.9531   -9.8865   22.2212 C   0  0  0  0  0  0  0  0  0  0  0  0
  -30.1979  -24.1024   18.5202 C   0  0  0  0  0  0  0  0  0  0  0  0
  -30.2068  -22.3087   20.6483 C   0  0  0  0  0  0  0  0  0  0  0  0
  -32.6117  -21.5620   25.0419 C   0  0  0  0  0  0  0  0  0  0  0  0
  -24.7795  -15.7946   25.5438 C   0  0  0  0  0  0  0  0  0  0  0  0
  -25.7775  -16.3102   27.6827 C   0  0  0  0  0  0  0  0  0  0  0  0
  -22.3724   -8.7137   20.2442 C   0  0  0  0  0  0  0  0  0  0  0  0
  -23.2481   -8.7147   22.4959 C   0  0  0  0  0  0  0  0  0  0  0  0
  -31.8827  -20.9746   26.0750 C   0  0  0  0  0  0  0  0  0  0  0  0
  -20.0730   -7.8393   23.2530 C   0  0  0  0  0  0  0  0  0  0  0  0
  -19.3780   -7.7709   24.4603 C   0  0  0  0  0  0  0  0  0  0  0  0
  -32.9050  -18.8468   25.5785 C   0  0  0  0  0  0  0  0  0  0  0  0
  -26.9919  -14.9803   26.0723 C   0  0  0  0  0  0  0  0  0  0  0  0
  -20.6971   -5.8542   25.1111 C   0  0  0  0  0  0  0  0  0  0  0  0
  -23.8677  -10.4719   20.9580 C   0  0  0  0  0  0  0  0  0  0  0  0
  -24.1481  -13.0051   20.8488 C   0  0  0  0  0  0  0  0  0  0  0  0
  -31.0542  -22.9908   18.4794 C   0  0  0  0  0  0  0  0  0  0  0  0
  -33.4862  -20.7927   24.2610 C   0  0  0  0  0  0  0  0  0  0  0  0
  -31.0526  -22.0768   19.5503 C   0  0  0  0  0  0  0  0  0  0  0  0
  -33.6459  -19.4274   24.5377 C   0  0  0  0  0  0  0  0  0  0  0  0
  -25.9218  -15.0798   25.1831 C   0  0  0  0  0  0  0  0  0  0  0  0
  -26.9198  -15.5954   27.3221 C   0  0  0  0  0  0  0  0  0  0  0  0
  -22.4577   -8.1283   21.5074 C   0  0  0  0  0  0  0  0  0  0  0  0
  -32.0271  -19.6163   26.3416 C   0  0  0  0  0  0  0  0  0  0  0  0
  -21.0801   -6.9152   22.9746 C   0  0  0  0  0  0  0  0  0  0  0  0
  -19.6900   -6.7784   25.3894 C   0  0  0  0  0  0  0  0  0  0  0  0
  -21.3922   -5.9227   23.9037 C   0  0  0  0  0  0  0  0  0  0  0  0
  -24.5966  -11.6821   20.6747 C   0  0  0  0  0  0  0  0  0  0  0  0
  -25.2038  -13.7823   20.4388 C   0  0  0  0  0  0  0  0  0  0  0  0
  -22.8898  -13.4883   21.3375 C   0  0  0  0  0  0  0  0  0  0  0  0
  -33.6588  -20.0268   21.1808 C   0  0  0  0  0  0  0  0  0  0  0  0
  -36.4747  -18.6862   22.0726 C   0  0  0  0  0  0  0  0  0  0  0  0
  -28.2109  -14.9001   22.8054 C   0  0  0  0  0  0  0  0  0  0  0  0
  -29.6530  -17.3646   27.8781 C   0  0  0  0  0  0  0  0  0  0  0  0
  -38.3847  -17.3439   24.5620 C   0  0  0  0  0  0  0  0  0  0  0  0
  -30.8172  -14.6133   20.7787 C   0  0  0  0  0  0  0  0  0  0  0  0
  -31.9038  -22.7736   17.2523 C   0  0  0  0  0  0  0  0  0  0  0  0
  -34.2854  -21.4469   23.1675 C   0  0  0  0  0  0  0  0  0  0  0  0
  -34.5869  -18.5617   23.7417 C   0  0  0  0  0  0  0  0  0  0  0  0
  -33.0352  -21.7710   17.4645 C   0  0  0  0  0  0  0  0  0  0  0  0
  -29.4596  -12.5688   18.0077 C   0  0  0  0  0  0  0  0  0  0  0  0
  -32.5176  -20.5246   18.1755 C   0  0  0  0  0  0  0  0  0  0  0  0
  -28.0624  -12.2109   18.5114 C   0  0  0  0  0  0  0  0  0  0  0  0
  -30.4373  -12.7914   19.1576 C   0  0  0  0  0  0  0  0  0  0  0  0
  -28.5806  -13.4405   20.6561 C   0  0  0  0  0  0  0  0  0  0  0  0
  -31.9662  -20.8704   19.5639 C   0  0  1  0  0  0  0  0  0  0  0  0
  -34.7614  -20.4618   22.1042 C   0  0  1  0  0  0  0  0  0  0  0  0
  -27.5598  -13.2552   19.5233 C   0  0  2  0  0  0  0  0  0  0  0  0
  -40.6285  -16.3000   24.9782 C   0  0  0  0  0  0  0  0  0  0  0  0
  -35.5056  -16.0954   20.7847 C   0  0  0  0  0  0  0  0  0  0  0  0
  -37.3054  -14.8831   22.0335 C   0  0  0  0  0  0  0  0  0  0  0  0
  -37.9111  -16.6338   20.3629 C   0  0  0  0  0  0  0  0  0  0  0  0
  -31.1721  -16.4499   22.3850 C   0  0  0  0  0  0  0  0  0  0  0  0
  -39.1520  -19.4748   26.4670 C   0  0  0  0  0  0  0  0  0  0  0  0
  -25.9987  -14.4237   23.8460 C   0  0  0  0  0  0  0  0  0  0  0  0
  -28.0713  -15.4878   28.2795 C   0  0  0  0  0  0  0  0  0  0  0  0
  -28.8542  -15.8364   21.8049 C   0  0  0  0  0  0  0  0  0  0  0  0
  -30.9706  -17.6643   27.1956 C   0  0  0  0  0  0  0  0  0  1  0  0
  -36.9005  -17.3275   22.5742 C   0  0  1  0  0  0  0  0  0  0  0  0
  -39.8255  -17.5915   24.9710 C   0  0  2  0  0  0  0  0  0  0  0  0
  -36.8864  -16.2506   21.4528 C   0  0  0  0  0  0  0  0  0  0  0  0
  -25.8402  -11.6186   20.1916 N   0  0  0  0  0  0  0  0  0  0  0  0
  -26.1821  -12.9114   20.0585 N   0  0  0  0  0  0  0  0  0  0  0  0
  -35.3414  -19.2463   22.6790 N   0  0  0  0  0  0  0  0  0  0  0  0
  -29.9158  -13.7559   20.1266 N   0  0  0  0  0  0  0  0  0  0  0  0
  -25.3812  -15.1187   20.3699 N   0  0  0  0  0  0  0  0  0  0  0  0
  -21.9164  -12.5536   21.7157 N   0  0  0  0  0  0  0  0  0  0  0  0
  -33.0493  -21.0658   20.5036 N   0  0  0  0  0  0  0  0  0  0  0  0
  -26.8482  -15.1428   22.9310 N   0  0  0  0  0  0  0  0  0  0  0  0
  -29.2877  -16.0363   27.7259 N   0  0  0  0  0  0  0  0  0  0  0  0
  -38.2021  -17.5151   23.2060 N   0  0  0  0  0  0  0  0  0  0  0  0
  -30.2790  -15.5320   21.6925 N   0  0  0  0  0  0  0  0  0  0  0  0
  -39.8814  -18.1873   26.3358 N   0  3  0  0  0  0  0  0  0  0  0  0
  -22.6302  -14.7128   21.4204 O   0  0  0  0  0  0  0  0  0  0  0  0
  -33.3824  -18.8365   21.0884 O   0  0  0  0  0  0  0  0  0  0  0  0
  -37.1279  -19.2336   21.1808 O   0  0  0  0  0  0  0  0  0  0  0  0
  -28.8406  -14.0618   23.4454 O   0  0  0  0  0  0  0  0  0  0  0  0
  -29.0095  -18.2173   28.4837 O   0  0  0  0  0  0  0  0  0  0  0  0
  -37.5096  -17.0264   25.3645 O   0  0  0  0  0  0  0  0  0  0  0  0
  -32.0327  -14.5671   20.5496 O   0  0  0  0  0  0  0  0  0  0  0  0
  -21.7698   -6.9849   21.7758 O   0  0  0  0  0  0  0  0  0  0  0  0
  -31.3163  -19.0403   27.3489 O   0  0  0  0  0  0  0  0  0  1  0  0
  -19.0235   -6.7137   26.5495 F   0  0  0  0  0  0  0  0  0  0  0  0
  -22.3595   -5.0328   23.6424 F   0  0  0  0  0  0  0  0  0  0  0  0
  1  2  1  0  0  0  0
  1  6  2  0  0  0  0
  2  7  2  0  0  0  0
  3  9  1  0  0  0  0
  3 10  2  0  0  0  0
  4 11  2  0  0  0  0
  4 19  1  0  0  0  0
  5 12  1  0  0  0  0
  5 19  2  0  0  0  0
  6 21  1  0  0  0  0
  7 23  1  0  0  0  0
  8 13  2  0  0  0  0
  8 22  1  0  0  0  0
  9 25  2  0  0  0  0
 10 26  1  0  0  0  0
 11 27  1  0  0  0  0
 12 27  2  0  0  0  0
 13 28  1  0  0  0  0
 14 15  2  0  0  0  0
 14 29  1  0  0  0  0
 15 30  1  0  0  0  0
 16 24  1  0  0  0  0
 16 28  2  0  0  0  0
 17 25  1  0  0  0  0
 17 26  2  0  0  0  0
 18 30  2  0  0  0  0
 18 31  1  0  0  0  0
 19 32  1  0  0  0  0
 20 32  1  0  0  0  0
 20 33  2  0  0  0  0
 20 34  1  0  0  0  0
 21 23  2  0  0  0  0
 21 41  1  0  0  0  0
 22 24  2  0  0  0  0
 22 42  1  0  0  0  0
 23 50  1  0  0  0  0
 24 43  1  0  0  0  0
 25 59  1  0  0  0  0
 26 60  1  0  0  0  0
 27 85  1  0  0  0  0
 28 86  1  0  0  0  0
 29 31  2  0  0  0  0
 29 85  1  0  0  0  0
 30 87  1  0  0  0  0
 31 88  1  0  0  0  0
 32 66  2  0  0  0  0
 33 67  1  0  0  0  0
 33 70  1  0  0  0  0
 34 71  1  0  0  0  0
 34 78  2  0  0  0  0
 35 51  1  0  0  0  0
 35 72  1  0  0  0  0
 35 79  2  0  0  0  0
 36 63  1  0  0  0  0
 36 68  1  0  0  0  0
 36 80  2  0  0  0  0
 37 61  1  0  0  0  0
 37 73  1  0  0  0  0
 37 81  2  0  0  0  0
 38 62  1  0  0  0  0
 38 74  1  0  0  0  0
 38 82  2  0  0  0  0
 39 64  1  0  0  0  0
 39 75  1  0  0  0  0
 39 83  2  0  0  0  0
 40 69  1  0  0  0  0
 40 76  1  0  0  0  0
 40 84  2  0  0  0  0
 41 44  1  0  0  0  0
 42 51  1  0  0  0  0
 43 68  1  0  0  0  0
 44 46  1  0  0  0  0
 45 47  1  0  0  0  0
 45 48  1  0  0  0  0
 46 50  1  0  0  0  0
 47 52  1  0  0  0  0
 48 69  1  0  0  0  0
 49 52  1  0  0  0  0
 49 69  1  0  0  0  0
 50 72  1  0  0  0  0
 51 68  1  0  0  0  0
 52 67  1  0  0  0  0
 53 64  1  0  0  0  0
 54 65  1  0  0  0  0
 55 65  1  0  0  0  0
 56 65  1  0  0  0  0
 57 76  1  0  0  0  0
 58 77  1  0  0  0  0
 59 73  1  0  0  0  0
 60 74  1  0  0  0  0
 61 76  1  0  0  0  0
 62 86  1  0  0  0  0
 63 65  1  0  0  0  0
 63 75  1  0  0  0  0
 64 77  1  0  0  0  0
 66 67  1  0  0  0  0
M  CHG  1  77   1
M  ISO  4  40 100  62 101  76 100  86 101
M  END
> <Batch ID>
0003

> <Smiles>
CNC(C)C(=O)NC(C(=O)N1Cc2cc([101O:1][101CH2:1]C(=O)NCc3cccc(CNC(=O)C[100N:0](C)[100C:0](=O)N4CCCC(n5nc(-c6ccc(Oc7ccc(F)cc7F)cc6)c(C(N)=O)c5N)C4)c3)ccc2CC1C(=O)NC1CCCc2ccccc21)C(C)(C)C

> <Shape>
0.198

> <Color>
0.179

> <Negative vol penalty>
0.000

$$$$

  -OEChem-04052315213D

 84 91  0     1  0  0  0  0  0999 V2000
  -16.8510  -30.2141   23.9784 C   0  0  0  0  0  0  0  0  0  0  0  0
  -16.9807  -29.1382   24.8507 C   0  0  0  0  0  0  0  0  0  0  0  0
  -28.3405  -20.0299   20.1442 C   0  0  0  0  0  0  0  0  0  0  0  0
  -29.1288  -18.7723   18.2379 C   0  0  0  0  0  0  0  0  0  0  0  0
  -17.5764  -30.2364   22.7880 C   0  0  0  0  0  0  0  0  0  0  0  0
  -17.8352  -28.0832   24.5325 C   0  0  0  0  0  0  0  0  0  0  0  0
  -22.1673  -23.2831   27.6161 C   0  0  0  0  0  0  0  0  0  0  0  0
  -28.9952  -21.1650   19.6662 C   0  0  0  0  0  0  0  0  0  0  0  0
  -29.7835  -19.9074   17.7598 C   0  0  0  0  0  0  0  0  0  0  0  0
  -22.4065  -21.9099   27.6446 C   0  0  0  0  0  0  0  0  0  0  0  0
  -32.1487  -22.3797   19.6029 C   0  0  0  0  0  0  0  0  0  0  0  0
  -32.8852  -23.1348   20.5156 C   0  0  0  0  0  0  0  0  0  0  0  0
  -23.6698  -22.0937   25.5977 C   0  0  0  0  0  0  0  0  0  0  0  0
  -31.4963  -25.0555   20.0472 C   0  0  0  0  0  0  0  0  0  0  0  0
  -28.4074  -18.8335   19.4301 C   0  0  0  0  0  0  0  0  0  0  0  0
  -26.4122  -17.2582   19.6432 C   0  0  0  0  0  0  0  0  0  0  0  0
  -18.4476  -29.1857   22.4596 C   0  0  0  0  0  0  0  0  0  0  0  0
  -22.6692  -24.0715   26.5707 C   0  0  0  0  0  0  0  0  0  0  0  0
  -18.5720  -28.0908   23.3360 C   0  0  0  0  0  0  0  0  0  0  0  0
  -23.4377  -23.4771   25.5597 C   0  0  0  0  0  0  0  0  0  0  0  0
  -29.7167  -21.1037   18.4739 C   0  0  0  0  0  0  0  0  0  0  0  0
  -23.1554  -21.3145   26.6337 C   0  0  0  0  0  0  0  0  0  0  0  0
  -31.0861  -22.9625   18.9122 C   0  0  0  0  0  0  0  0  0  0  0  0
  -32.5589  -24.4727   20.7378 C   0  0  0  0  0  0  0  0  0  0  0  0
  -30.7599  -24.3003   19.1344 C   0  0  0  0  0  0  0  0  0  0  0  0
  -27.7318  -17.6605   19.9237 C   0  0  0  0  0  0  0  0  0  0  0  0
  -26.2525  -16.0896   20.3470 C   0  0  0  0  0  0  0  0  0  0  0  0
  -25.4196  -17.8848   18.8199 C   0  0  0  0  0  0  0  0  0  0  0  0
  -21.3703  -25.8796   24.3018 C   0  0  0  0  0  0  0  0  0  0  0  0
  -24.4609  -26.6559   23.6952 C   0  0  0  0  0  0  0  0  0  0  0  0
  -22.2714  -13.4763   23.1374 C   0  0  0  0  0  0  0  0  0  0  0  0
  -27.7582  -25.8017   23.9081 C   0  0  0  0  0  0  0  0  0  0  0  0
  -28.1453  -11.1069   22.0007 C   0  0  0  0  0  0  0  0  0  0  0  0
  -19.1751  -29.2316   21.1392 C   0  0  0  0  0  0  0  0  0  0  0  0
  -22.4249  -25.5557   26.5688 C   0  0  0  0  0  0  0  0  0  0  0  0
  -24.0161  -24.2824   24.4260 C   0  0  0  0  0  0  0  0  0  0  0  0
  -20.3429  -28.2523   21.0528 C   0  0  0  0  0  0  0  0  0  0  0  0
  -29.1702  -13.9505   23.8822 C   0  0  0  0  0  0  0  0  0  0  0  0
  -19.9251  -26.8770   21.5635 C   0  0  0  0  0  0  0  0  0  0  0  0
  -28.7843  -15.1350   22.9944 C   0  0  0  0  0  0  0  0  0  0  0  0
  -29.6566  -12.7614   23.0567 C   0  0  0  0  0  0  0  0  0  0  0  0
  -28.3436  -13.5072   21.1089 C   0  0  0  0  0  0  0  0  0  0  0  0
  -19.5076  -26.9393   23.0377 C   0  0  1  0  0  0  0  0  0  0  0  0
  -22.5501  -26.1801   25.1825 C   0  0  1  0  0  0  0  0  0  0  0  0
  -27.7940  -14.7110   21.8931 C   0  0  2  0  0  0  0  0  0  0  0  0
  -30.0488  -26.6195   23.2904 C   0  0  0  0  0  0  0  0  0  0  0  0
  -23.9617  -25.8551   20.7936 C   0  0  0  0  0  0  0  0  0  0  0  0
  -26.4420  -25.7777   20.4613 C   0  0  0  0  0  0  0  0  0  0  0  0
  -25.3351  -27.9250   21.0830 C   0  0  0  0  0  0  0  0  0  0  0  0
  -28.6149  -25.8952   26.7394 C   0  0  0  0  0  0  0  0  0  0  0  0
  -22.8349  -14.8853   23.0566 C   0  0  0  0  0  0  0  0  0  0  0  0
  -22.6961  -15.6778   24.3556 C   0  0  0  0  0  0  0  0  0  0  0  0
  -23.2056  -17.1157   24.2181 C   0  0  0  0  0  0  0  0  0  0  0  0
  -24.2493  -10.5069   21.2497 C   0  0  0  0  0  0  0  0  0  0  0  0
  -22.9889  -10.3983   22.1135 C   0  0  0  0  0  0  0  0  0  0  0  0
  -25.2853   -9.4507   21.6470 C   0  0  0  0  0  0  0  0  0  0  0  0
  -23.0809  -17.8755   25.5373 C   0  0  0  0  0  0  0  0  0  0  0  0
  -21.9409  -11.4462   21.7521 C   0  0  0  0  0  0  0  0  0  0  0  0
  -26.5776   -9.5687   20.8450 C   0  0  0  0  0  0  0  0  0  0  0  0
  -23.5453  -19.3185   25.4009 C   0  0  0  0  0  0  0  0  0  1  0  0
  -25.5510  -26.0951   22.8142 C   0  0  1  0  0  0  0  0  0  0  0  0
  -28.9744  -26.5862   24.3662 C   0  0  2  0  0  0  0  0  0  0  0  0
  -25.3101  -26.3975   21.3082 C   0  0  0  0  0  0  0  0  0  0  0  0
  -28.3653  -16.8161   20.7421 N   0  0  0  0  0  0  0  0  0  0  0  0
  -27.4397  -15.8717   20.9819 N   0  0  0  0  0  0  0  0  0  0  0  0
  -23.7443  -25.7288   24.4651 N   0  0  0  0  0  0  0  0  0  0  0  0
  -28.6713  -12.4089   22.0315 N   0  0  0  0  0  0  0  0  0  0  0  0
  -25.2137  -15.2376   20.4786 N   0  0  0  0  0  0  0  0  0  0  0  0
  -25.7500  -19.0809   18.1684 N   0  0  0  0  0  0  0  0  0  0  0  0
  -20.6747  -27.0007   23.8913 N   0  0  0  0  0  0  0  0  0  0  0  0
  -22.4192  -12.7957   21.9377 N   0  0  0  0  0  0  0  0  0  0  0  0
  -26.8081  -26.6207   23.3355 N   0  0  0  0  0  0  0  0  0  0  0  0
  -27.2124  -10.8584   21.0013 N   0  0  0  0  0  0  0  0  0  0  0  0
  -29.5561  -25.9706   25.5925 N   0  3  0  0  0  0  0  0  0  0  0  0
  -24.2682  -17.4071   18.6796 O   0  0  0  0  0  0  0  0  0  0  0  0
  -21.1113  -24.7167   24.0148 O   0  0  0  0  0  0  0  0  0  0  0  0
  -24.2577  -27.8726   23.7055 O   0  0  0  0  0  0  0  0  0  0  0  0
  -21.7342  -13.0207   24.1434 O   0  0  0  0  0  0  0  0  0  0  0  0
  -27.6622  -24.5837   24.0413 O   0  0  0  0  0  0  0  0  0  0  0  0
  -28.4780  -10.2322   22.8076 O   0  0  0  0  0  0  0  0  0  0  0  0
  -30.3555  -22.2112   18.0070 O   0  0  0  0  0  0  0  0  0  0  0  0
  -23.3898  -19.9742   26.6587 O   0  0  0  0  0  0  0  0  0  1  0  0
  -33.2652  -25.1973   21.6154 F   0  0  0  0  0  0  0  0  0  0  0  0
  -29.7393  -24.8653   18.4748 F   0  0  0  0  0  0  0  0  0  0  0  0
  1  2  1  0  0  0  0
  1  5  2  0  0  0  0
  2  6  2  0  0  0  0
  3  8  2  0  0  0  0
  3 15  1  0  0  0  0
  4  9  1  0  0  0  0
  4 15  2  0  0  0  0
  5 17  1  0  0  0  0
  6 19  1  0  0  0  0
  7 10  2  0  0  0  0
  7 18  1  0  0  0  0
  8 21  1  0  0  0  0
  9 21  2  0  0  0  0
 10 22  1  0  0  0  0
 11 12  2  0  0  0  0
 11 23  1  0  0  0  0
 12 24  1  0  0  0  0
 13 20  1  0  0  0  0
 13 22  2  0  0  0  0
 14 24  2  0  0  0  0
 14 25  1  0  0  0  0
 15 26  1  0  0  0  0
 16 26  1  0  0  0  0
 16 27  2  0  0  0  0
 16 28  1  0  0  0  0
 17 19  2  0  0  0  0
 17 34  1  0  0  0  0
 18 20  2  0  0  0  0
 18 35  1  0  0  0  0
 19 43  1  0  0  0  0
 20 36  1  0  0  0  0
 21 81  1  0  0  0  0
 22 82  1  0  0  0  0
 23 25  2  0  0  0  0
 23 81  1  0  0  0  0
 24 83  1  0  0  0  0
 25 84  1  0  0  0  0
 26 64  2  0  0  0  0
 27 65  1  0  0  0  0
 27 68  1  0  0  0  0
 28 69  1  0  0  0  0
 28 75  2  0  0  0  0
 29 44  1  0  0  0  0
 29 70  1  0  0  0  0
 29 76  2  0  0  0  0
 30 61  1  0  0  0  0
 30 66  1  0  0  0  0
 30 77  2  0  0  0  0
 31 51  1  0  0  0  0
 31 71  1  0  0  0  0
 31 78  2  0  0  0  0
 32 62  1  0  0  0  0
 32 72  1  0  0  0  0
 32 79  2  0  0  0  0
 33 67  1  0  0  0  0
 33 73  1  0  0  0  0
 33 80  2  0  0  0  0
 34 37  1  0  0  0  0
 35 44  1  0  0  0  0
 36 66  1  0  0  0  0
 37 39  1  0  0  0  0
 38 40  1  0  0  0  0
 38 41  1  0  0  0  0
 39 43  1  0  0  0  0
 40 45  1  0  0  0  0
 41 67  1  0  0  0  0
 42 45  1  0  0  0  0
 42 67  1  0  0  0  0
 43 70  1  0  0  0  0
 44 66  1  0  0  0  0
 45 65  1  0  0  0  0
 46 62  1  0  0  0  0
 47 63  1  0  0  0  0
 48 63  1  0  0  0  0
 49 63  1  0  0  0  0
 50 74  1  0  0  0  0
 51 52  1  0  0  0  0
 52 53  1  0  0  0  0
 53 57  1  0  0  0  0
 54 55  1  0  0  0  0
 54 56  1  0  0  0  0
 55 58  1  0  0  0  0
 56 59  1  0  0  0  0
 57 60  1  0  0  0  0
 58 71  1  0  0  0  0
 59 73  1  0  0  0  0
 60 82  1  0  0  0  0
 61 63  1  0  0  0  0
 61 72  1  0  0  0  0
 62 74  1  0  0  0  0
 64 65  1  0  0  0  0
M  CHG  1  74   1
M  ISO  4  33 100  60 101  73 100  82 101
M  END
> <Batch ID>
0003

> <Smiles>
CNC(C)C(=O)NC(C(=O)N1Cc2cc([101O:1][101CH2:1]CCCCC(=O)NCCCCC[100NH:0][100C:0](=O)N3CCCC(n4nc(-c5ccc(Oc6ccc(F)cc6F)cc5)c(C(N)=O)c4N)C3)ccc2CC1C(=O)NC1CCCc2ccccc21)C(C)(C)C

> <Shape>
0.176

> <Color>
0.088

> <Negative vol penalty>
0.000

$$$$

  -OEChem-04052315213D

 83 91  0     1  0  0  0  0  0999 V2000
  -31.0912  -24.7649   19.2637 C   0  0  0  0  0  0  0  0  0  0  0  0
  -30.2215  -24.3764   20.2777 C   0  0  0  0  0  0  0  0  0  0  0  0
  -22.9107  -19.9178   27.8515 C   0  0  0  0  0  0  0  0  0  0  0  0
  -27.6790  -16.9113   18.9623 C   0  0  0  0  0  0  0  0  0  0  0  0
  -27.8606  -17.0198   21.3690 C   0  0  0  0  0  0  0  0  0  0  0  0
  -23.1235  -20.7808   26.7766 C   0  0  0  0  0  0  0  0  0  0  0  0
  -31.1751  -26.1069   18.8950 C   0  0  0  0  0  0  0  0  0  0  0  0
  -29.4360  -25.3300   20.9244 C   0  0  0  0  0  0  0  0  0  0  0  0
  -24.6382  -23.8198   21.5125 C   0  0  0  0  0  0  0  0  0  0  0  0
  -22.0223  -18.8500   27.7232 C   0  0  0  0  0  0  0  0  0  0  0  0
  -28.3709  -18.1177   18.8556 C   0  0  0  0  0  0  0  0  0  0  0  0
  -28.5526  -18.2262   21.2624 C   0  0  0  0  0  0  0  0  0  0  0  0
  -24.3766  -22.9167   22.5419 C   0  0  0  0  0  0  0  0  0  0  0  0
  -29.7761  -21.3516   17.9662 C   0  0  0  0  0  0  0  0  0  0  0  0
  -29.2787  -22.3105   17.0837 C   0  0  0  0  0  0  0  0  0  0  0  0
  -21.5595  -19.5086   25.4453 C   0  0  0  0  0  0  0  0  0  0  0  0
  -23.5864  -24.7296   23.9234 C   0  0  0  0  0  0  0  0  0  0  0  0
  -27.2047  -22.3736   18.3213 C   0  0  0  0  0  0  0  0  0  0  0  0
  -27.4238  -16.3624   20.2190 C   0  0  0  0  0  0  0  0  0  0  0  0
  -22.4479  -20.5763   25.5735 C   0  0  0  0  0  0  0  0  0  0  0  0
  -27.2569  -13.8200   20.3470 C   0  0  0  0  0  0  0  0  0  0  0  0
  -30.3832  -27.0760   19.5309 C   0  0  0  0  0  0  0  0  0  0  0  0
  -24.3857  -25.1883   21.6849 C   0  0  0  0  0  0  0  0  0  0  0  0
  -29.5104  -26.6864   20.5647 C   0  0  0  0  0  0  0  0  0  0  0  0
  -23.8433  -25.6476   22.8937 C   0  0  0  0  0  0  0  0  0  0  0  0
  -21.3467  -18.6455   26.5202 C   0  0  0  0  0  0  0  0  0  0  0  0
  -28.8078  -18.7751   20.0056 C   0  0  0  0  0  0  0  0  0  0  0  0
  -23.8534  -23.3719   23.7486 C   0  0  0  0  0  0  0  0  0  0  0  0
  -28.9877  -20.9037   19.0262 C   0  0  0  0  0  0  0  0  0  0  0  0
  -27.9930  -22.8215   17.2613 C   0  0  0  0  0  0  0  0  0  0  0  0
  -27.7020  -21.4147   19.2038 C   0  0  0  0  0  0  0  0  0  0  0  0
  -26.7085  -15.1165   20.3298 C   0  0  0  0  0  0  0  0  0  0  0  0
  -26.1700  -12.9890   20.4674 C   0  0  0  0  0  0  0  0  0  0  0  0
  -28.6264  -13.4042   20.2620 C   0  0  0  0  0  0  0  0  0  0  0  0
  -22.6753  -21.4954   24.4288 C   0  0  0  0  0  0  0  0  0  1  0  0
  -26.1710  -27.8182   21.6694 C   0  0  0  0  0  0  0  0  0  0  0  0
  -23.2961  -29.3019   21.9063 C   0  0  0  0  0  0  0  0  0  0  0  0
  -20.0171  -29.1340   22.8373 C   0  0  0  0  0  0  0  0  0  0  0  0
  -20.6708  -13.7665   22.7047 C   0  0  0  0  0  0  0  0  0  0  0  0
  -30.5432  -28.5212   19.1302 C   0  0  0  0  0  0  0  0  0  0  0  0
  -24.6483  -26.1461   20.5552 C   0  0  0  0  0  0  0  0  0  0  0  0
  -23.5353  -27.1042   23.1220 C   0  0  0  0  0  0  0  0  0  0  0  0
  -29.4028  -29.4159   19.6091 C   0  0  0  0  0  0  0  0  0  0  0  0
  -21.5125  -12.7377   19.4017 C   0  0  0  0  0  0  0  0  0  0  0  0
  -29.0847  -29.1368   21.0747 C   0  0  0  0  0  0  0  0  0  0  0  0
  -22.9891  -13.1137   19.2666 C   0  0  0  0  0  0  0  0  0  0  0  0
  -20.7420  -13.7647   20.2285 C   0  0  0  0  0  0  0  0  0  0  0  0
  -22.7952  -14.4257   21.4206 C   0  0  0  0  0  0  0  0  0  0  0  0
  -28.6239  -27.6877   21.2729 C   0  0  1  0  0  0  0  0  0  0  0  0
  -24.8343  -27.5860   21.0236 C   0  0  1  0  0  0  0  0  0  0  0  0
  -23.6253  -13.3908   20.6420 C   0  0  2  0  0  0  0  0  0  0  0  0
  -17.9264  -30.5178   22.9442 C   0  0  0  0  0  0  0  0  0  0  0  0
  -24.3952  -30.7695   24.3452 C   0  0  0  0  0  0  0  0  0  0  0  0
  -22.0436  -31.3781   24.9518 C   0  0  0  0  0  0  0  0  0  0  0  0
  -23.0249  -32.1858   22.8054 C   0  0  0  0  0  0  0  0  0  0  0  0
  -18.5728  -27.3023   21.0158 C   0  0  0  0  0  0  0  0  0  0  0  0
  -20.3966  -17.5038   26.3830 C   0  0  0  0  0  0  0  0  0  0  0  0
  -21.0884  -16.2296   25.8740 C   0  0  0  0  0  0  0  0  0  0  0  0
  -20.0957  -15.0760   25.7020 C   0  0  0  0  0  0  0  0  0  0  0  0
  -20.7590  -13.8038   25.1846 C   0  0  0  0  0  0  0  0  0  0  0  0
  -22.4124  -29.7448   23.0473 C   0  0  1  0  0  0  0  0  0  0  0  0
  -18.7435  -29.5379   22.1167 C   0  0  2  0  0  0  0  0  0  0  0  0
  -22.9765  -30.9923   23.7841 C   0  0  0  0  0  0  0  0  0  0  0  0
  -25.3767  -15.1143   20.4309 N   0  0  0  0  0  0  0  0  0  0  0  0
  -25.0791  -13.8063   20.5128 N   0  0  0  0  0  0  0  0  0  0  0  0
  -23.8154  -28.0022   21.9895 N   0  0  0  0  0  0  0  0  0  0  0  0
  -21.3965  -13.9805   21.5212 N   0  0  0  0  0  0  0  0  0  0  0  0
  -26.0505  -11.6462   20.5377 N   0  0  0  0  0  0  0  0  0  0  0  0
  -29.6173  -14.3881   20.1421 N   0  0  0  0  0  0  0  0  0  0  0  0
  -27.2479  -27.5329   20.8519 N   0  0  0  0  0  0  0  0  0  0  0  0
  -21.0811  -29.9359   22.4820 N   0  0  0  0  0  0  0  0  0  0  0  0
  -21.3680  -13.9878   23.8861 N   0  0  0  0  0  0  0  0  0  0  0  0
  -17.9018  -28.3392   21.8414 N   0  3  0  0  0  0  0  0  0  0  0  0
  -28.9603  -12.1951   20.2749 O   0  0  0  0  0  0  0  0  0  0  0  0
  -22.1156  -21.3711   23.3498 O   0  0  0  0  0  0  0  0  0  0  0  0
  -26.2216  -28.2274   22.8234 O   0  0  0  0  0  0  0  0  0  0  0  0
  -23.5118  -30.0780   20.9720 O   0  0  0  0  0  0  0  0  0  0  0  0
  -20.0627  -28.2029   23.6382 O   0  0  0  0  0  0  0  0  0  0  0  0
  -19.4907  -13.4000   22.7082 O   0  0  0  0  0  0  0  0  0  0  0  0
  -29.4832  -19.9522   19.9020 O   0  0  0  0  0  0  0  0  0  0  0  0
  -23.5977  -22.4926   24.7553 O   0  0  0  0  0  0  0  0  0  1  0  0
  -27.5161  -23.7434   16.4146 F   0  0  0  0  0  0  0  0  0  0  0  0
  -26.9404  -20.9891   20.2209 F   0  0  0  0  0  0  0  0  0  0  0  0
  1  2  1  0  0  0  0
  1  7  2  0  0  0  0
  2  8  2  0  0  0  0
  3  6  2  0  0  0  0
  3 10  1  0  0  0  0
  4 11  2  0  0  0  0
  4 19  1  0  0  0  0
  5 12  1  0  0  0  0
  5 19  2  0  0  0  0
  6 20  1  0  0  0  0
  7 22  1  0  0  0  0
  8 24  1  0  0  0  0
  9 13  2  0  0  0  0
  9 23  1  0  0  0  0
 10 26  2  0  0  0  0
 11 27  1  0  0  0  0
 12 27  2  0  0  0  0
 13 28  1  0  0  0  0
 14 15  2  0  0  0  0
 14 29  1  0  0  0  0
 15 30  1  0  0  0  0
 16 20  2  0  0  0  0
 16 26  1  0  0  0  0
 17 25  1  0  0  0  0
 17 28  2  0  0  0  0
 18 30  2  0  0  0  0
 18 31  1  0  0  0  0
 19 32  1  0  0  0  0
 20 35  1  0  0  0  0
 21 32  1  0  0  0  0
 21 33  2  0  0  0  0
 21 34  1  0  0  0  0
 22 24  2  0  0  0  0
 22 40  1  0  0  0  0
 23 25  2  0  0  0  0
 23 41  1  0  0  0  0
 24 49  1  0  0  0  0
 25 42  1  0  0  0  0
 26 57  1  0  0  0  0
 27 80  1  0  0  0  0
 28 81  1  0  0  0  0
 29 31  2  0  0  0  0
 29 80  1  0  0  0  0
 30 82  1  0  0  0  0
 31 83  1  0  0  0  0
 32 64  2  0  0  0  0
 33 65  1  0  0  0  0
 33 68  1  0  0  0  0
 34 69  1  0  0  0  0
 34 74  2  0  0  0  0
 35 75  2  0  0  0  0
 35 81  1  0  0  0  0
 36 50  1  0  0  0  0
 36 70  1  0  0  0  0
 36 76  2  0  0  0  0
 37 61  1  0  0  0  0
 37 66  1  0  0  0  0
 37 77  2  0  0  0  0
 38 62  1  0  0  0  0
 38 71  1  0  0  0  0
 38 78  2  0  0  0  0
 39 67  1  0  0  0  0
 39 72  1  0  0  0  0
 39 79  2  0  0  0  0
 40 43  1  0  0  0  0
 41 50  1  0  0  0  0
 42 66  1  0  0  0  0
 43 45  1  0  0  0  0
 44 46  1  0  0  0  0
 44 47  1  0  0  0  0
 45 49  1  0  0  0  0
 46 51  1  0  0  0  0
 47 67  1  0  0  0  0
 48 51  1  0  0  0  0
 48 67  1  0  0  0  0
 49 70  1  0  0  0  0
 50 66  1  0  0  0  0
 51 65  1  0  0  0  0
 52 62  1  0  0  0  0
 53 63  1  0  0  0  0
 54 63  1  0  0  0  0
 55 63  1  0  0  0  0
 56 73  1  0  0  0  0
 57 58  1  0  0  0  0
 58 59  1  0  0  0  0
 59 60  1  0  0  0  0
 60 72  1  0  0  0  0
 61 63  1  0  0  0  0
 61 71  1  0  0  0  0
 62 73  1  0  0  0  0
 64 65  1  0  0  0  0
M  CHG  1  73   1
M  ISO  4  35 101  39 100  72 100  81 101
M  END
> <Batch ID>
0003

> <Smiles>
CNC(C)C(=O)NC(C(=O)N1Cc2cc([101O:1][101C:1](=O)c3cccc(CCCC[100NH:0][100C:0](=O)N4CCCC(n5nc(-c6ccc(Oc7ccc(F)cc7F)cc6)c(C(N)=O)c5N)C4)c3)ccc2CC1C(=O)NC1CCCc2ccccc21)C(C)(C)C

> <Shape>
0.243

> <Color>
0.068

> <Negative vol penalty>
0.000

$$$$

  -OEChem-04052315213D

 96103  0     1  0  0  0  0  0999 V2000
  -18.9674  -19.0247   15.8627 C   0  0  0  0  0  0  0  0  0  0  0  0
  -18.8507  -20.0448   16.8014 C   0  0  0  0  0  0  0  0  0  0  0  0
  -28.2895  -17.5143   20.7303 C   0  0  0  0  0  0  0  0  0  0  0  0
  -26.3544  -17.9162   19.3408 C   0  0  0  0  0  0  0  0  0  0  0  0
  -19.0153  -17.6957   16.2816 C   0  0  0  0  0  0  0  0  0  0  0  0
  -18.7808  -19.7365   18.1595 C   0  0  0  0  0  0  0  0  0  0  0  0
  -21.7361  -22.7246   20.9848 C   0  0  0  0  0  0  0  0  0  0  0  0
  -28.0500  -16.1416   20.6670 C   0  0  0  0  0  0  0  0  0  0  0  0
  -26.1148  -16.5435   19.2774 C   0  0  0  0  0  0  0  0  0  0  0  0
  -21.2665  -24.0083   21.2595 C   0  0  0  0  0  0  0  0  0  0  0  0
  -28.5493  -13.6250   18.4647 C   0  0  0  0  0  0  0  0  0  0  0  0
  -29.6380  -12.7875   18.2221 C   0  0  0  0  0  0  0  0  0  0  0  0
  -20.5530  -23.2734   23.4435 C   0  0  0  0  0  0  0  0  0  0  0  0
  -29.2478  -11.6701   20.3283 C   0  0  0  0  0  0  0  0  0  0  0  0
  -27.4417  -18.4016   20.0673 C   0  0  0  0  0  0  0  0  0  0  0  0
  -28.4775  -20.5868   19.2552 C   0  0  0  0  0  0  0  0  0  0  0  0
  -18.9557  -17.3714   17.6461 C   0  0  0  0  0  0  0  0  0  0  0  0
  -21.6075  -21.7013   21.9349 C   0  0  0  0  0  0  0  0  0  0  0  0
  -18.8266  -18.4018   18.5969 C   0  0  0  0  0  0  0  0  0  0  0  0
  -21.0240  -21.9783   23.1794 C   0  0  0  0  0  0  0  0  0  0  0  0
  -26.9627  -15.6562   19.9405 C   0  0  0  0  0  0  0  0  0  0  0  0
  -20.6723  -24.2822   22.4879 C   0  0  0  0  0  0  0  0  0  0  0  0
  -27.8098  -13.4851   19.6392 C   0  0  0  0  0  0  0  0  0  0  0  0
  -29.9873  -11.8100   19.1539 C   0  0  0  0  0  0  0  0  0  0  0  0
  -28.1591  -12.5076   20.5709 C   0  0  0  0  0  0  0  0  0  0  0  0
  -27.6882  -19.8197   20.1329 C   0  0  0  0  0  0  0  0  0  0  0  0
  -28.3906  -21.8669   19.7451 C   0  0  0  0  0  0  0  0  0  0  0  0
  -29.2226  -20.1786   18.1002 C   0  0  0  0  0  0  0  0  0  0  0  0
  -20.1012  -18.9038   22.0286 C   0  0  0  0  0  0  0  0  0  0  0  0
  -21.6597  -18.6005   24.8573 C   0  0  0  0  0  0  0  0  0  0  0  0
  -27.1652  -34.5080   22.9590 C   0  0  0  0  0  0  0  0  0  0  0  0
  -20.8498  -27.8545   23.0118 C   0  0  0  0  0  0  0  0  0  0  0  0
  -23.1225  -30.4008   23.3441 C   0  0  0  0  0  0  0  0  0  0  0  0
  -23.1832  -20.1244   27.5036 C   0  0  0  0  0  0  0  0  0  0  0  0
  -25.3916  -26.0877   21.8275 C   0  0  0  0  0  0  0  0  0  0  0  0
  -18.9636  -15.9177   18.0478 C   0  0  0  0  0  0  0  0  0  0  0  0
  -22.1432  -20.3285   21.6333 C   0  0  0  0  0  0  0  0  0  0  0  0
  -20.8804  -20.9197   24.2411 C   0  0  0  0  0  0  0  0  0  0  0  0
  -19.2609  -15.6966   19.5287 C   0  0  0  0  0  0  0  0  0  0  0  0
  -26.5182  -23.6005   24.1126 C   0  0  0  0  0  0  0  0  0  0  0  0
  -18.4310  -16.6458   20.3873 C   0  0  0  0  0  0  0  0  0  0  0  0
  -26.9820  -22.4568   23.2089 C   0  0  0  0  0  0  0  0  0  0  0  0
  -25.2882  -24.3052   23.5447 C   0  0  0  0  0  0  0  0  0  0  0  0
  -25.8963  -23.6360   21.2521 C   0  0  0  0  0  0  0  0  0  0  0  0
  -18.7729  -18.1088   20.0806 C   0  0  1  0  0  0  0  0  0  0  0  0
  -21.4959  -19.2356   22.4783 C   0  0  1  0  0  0  0  0  0  0  0  0
  -27.1675  -22.9308   21.7549 C   0  0  2  0  0  0  0  0  0  0  0  0
  -24.4900  -20.3292   29.6362 C   0  0  0  0  0  0  0  0  0  0  0  0
  -18.9523  -18.0340   26.1453 C   0  0  0  0  0  0  0  0  0  0  0  0
  -19.9991  -18.4771   28.3760 C   0  0  0  0  0  0  0  0  0  0  0  0
  -20.8212  -16.5898   26.9673 C   0  0  0  0  0  0  0  0  0  0  0  0
  -21.0968  -32.6897   23.0037 C   0  0  0  0  0  0  0  0  0  0  0  0
  -21.7438  -31.5415   20.8906 C   0  0  0  0  0  0  0  0  0  0  0  0
  -19.5049  -31.0975   21.9142 C   0  0  0  0  0  0  0  0  0  0  0  0
  -25.7618  -20.1949   26.0528 C   0  0  0  0  0  0  0  0  0  0  0  0
  -27.0895  -34.4176   24.4742 C   0  0  0  0  0  0  0  0  0  0  0  0
  -20.8881  -26.6236   22.1314 C   0  0  0  0  0  0  0  0  0  1  0  0
  -26.6001  -33.0634   24.9870 C   0  0  0  0  0  0  0  0  0  0  0  0
  -27.3925  -31.0791   20.8940 C   0  0  0  0  0  0  0  0  0  0  0  0
  -26.4278  -30.1470   20.1564 C   0  0  0  0  0  0  0  0  0  0  0  0
  -25.1881  -32.7287   24.4903 C   0  0  0  0  0  0  0  0  0  0  0  0
  -27.3465  -32.4964   20.3153 C   0  0  0  0  0  0  0  0  0  0  0  0
  -26.5047  -28.7202   20.7079 C   0  0  0  0  0  0  0  0  0  0  0  0
  -24.7002  -31.3713   24.9872 C   0  0  0  0  0  0  0  0  0  0  0  0
  -28.3070  -33.4488   21.0200 C   0  0  0  0  0  0  0  0  0  0  0  0
  -25.5505  -27.7613   20.0020 C   0  0  0  0  0  0  0  0  0  0  0  0
  -21.3556  -18.9663   26.2900 C   0  0  1  0  0  0  0  0  0  0  0  0
  -21.6313  -30.2150   23.0629 C   0  0  1  0  0  0  0  0  0  0  0  0
  -24.5118  -19.8612   28.1893 C   0  0  2  0  0  0  0  0  0  0  0  0
  -20.2829  -18.0365   26.9241 C   0  0  0  0  0  0  0  0  0  0  0  0
  -20.9912  -31.3605   22.2240 C   0  0  0  0  0  0  0  0  0  0  0  0
  -27.1403  -20.5514   21.1067 N   0  0  0  0  0  0  0  0  0  0  0  0
  -27.5861  -21.7917   20.8439 N   0  0  0  0  0  0  0  0  0  0  0  0
  -21.4140  -19.5915   23.8964 N   0  0  0  0  0  0  0  0  0  0  0  0
  -25.5304  -24.7311   22.1641 N   0  0  0  0  0  0  0  0  0  0  0  0
  -28.9246  -23.0384   19.3389 N   0  0  0  0  0  0  0  0  0  0  0  0
  -29.2035  -18.8251   17.7367 N   0  0  0  0  0  0  0  0  0  0  0  0
  -20.0191  -18.4804   20.7158 N   0  0  0  0  0  0  0  0  0  0  0  0
  -28.0331  -33.5615   22.4340 N   0  0  0  0  0  0  0  0  0  0  0  0
  -23.3632  -31.0669   24.5367 N   0  0  0  0  0  0  0  0  0  0  0  0
  -22.6349  -18.9677   26.9912 N   0  0  0  0  0  0  0  0  0  0  0  0
  -21.5171  -28.9212   22.4304 N   0  0  0  0  0  0  0  0  0  0  0  0
  -25.6456  -26.4069   20.4993 N   0  0  0  0  0  0  0  0  0  0  0  0
  -25.6109  -20.5758   27.4807 N   0  3  0  0  0  0  0  0  0  0  0  0
  -29.8990  -20.9873   17.4205 O   0  0  0  0  0  0  0  0  0  0  0  0
  -19.1687  -19.0217   22.8149 O   0  0  0  0  0  0  0  0  0  0  0  0
  -22.1057  -17.4794   24.6009 O   0  0  0  0  0  0  0  0  0  0  0  0
  -26.5443  -35.3388   22.3015 O   0  0  0  0  0  0  0  0  0  0  0  0
  -20.2886  -27.8729   24.1040 O   0  0  0  0  0  0  0  0  0  0  0  0
  -24.0003  -30.0143   22.5738 O   0  0  0  0  0  0  0  0  0  0  0  0
  -22.6802  -21.2436   27.4331 O   0  0  0  0  0  0  0  0  0  0  0  0
  -25.0706  -26.9513   22.6510 O   0  0  0  0  0  0  0  0  0  0  0  0
  -26.7288  -14.3168   19.8782 O   0  0  0  0  0  0  0  0  0  0  0  0
  -20.2126  -25.5341   22.7583 O   0  0  0  0  0  0  0  0  0  1  0  0
  -31.0318  -11.0048   18.9200 F   0  0  0  0  0  0  0  0  0  0  0  0
  -27.4518  -12.3677   21.7005 F   0  0  0  0  0  0  0  0  0  0  0  0
  1  2  1  0  0  0  0
  1  5  2  0  0  0  0
  2  6  2  0  0  0  0
  3  8  2  0  0  0  0
  3 15  1  0  0  0  0
  4  9  1  0  0  0  0
  4 15  2  0  0  0  0
  5 17  1  0  0  0  0
  6 19  1  0  0  0  0
  7 10  2  0  0  0  0
  7 18  1  0  0  0  0
  8 21  1  0  0  0  0
  9 21  2  0  0  0  0
 10 22  1  0  0  0  0
 11 12  2  0  0  0  0
 11 23  1  0  0  0  0
 12 24  1  0  0  0  0
 13 20  1  0  0  0  0
 13 22  2  0  0  0  0
 14 24  2  0  0  0  0
 14 25  1  0  0  0  0
 15 26  1  0  0  0  0
 16 26  1  0  0  0  0
 16 27  2  0  0  0  0
 16 28  1  0  0  0  0
 17 19  2  0  0  0  0
 17 36  1  0  0  0  0
 18 20  2  0  0  0  0
 18 37  1  0  0  0  0
 19 45  1  0  0  0  0
 20 38  1  0  0  0  0
 21 93  1  0  0  0  0
 22 94  1  0  0  0  0
 23 25  2  0  0  0  0
 23 93  1  0  0  0  0
 24 95  1  0  0  0  0
 25 96  1  0  0  0  0
 26 72  2  0  0  0  0
 27 73  1  0  0  0  0
 27 76  1  0  0  0  0
 28 77  1  0  0  0  0
 28 85  2  0  0  0  0
 29 46  1  0  0  0  0
 29 78  1  0  0  0  0
 29 86  2  0  0  0  0
 30 67  1  0  0  0  0
 30 74  1  0  0  0  0
 30 87  2  0  0  0  0
 31 56  1  0  0  0  0
 31 79  1  0  0  0  0
 31 88  2  0  0  0  0
 32 57  1  0  0  0  0
 32 82  1  0  0  0  0
 32 89  2  0  0  0  0
 33 68  1  0  0  0  0
 33 80  1  0  0  0  0
 33 90  2  0  0  0  0
 34 69  1  0  0  0  0
 34 81  1  0  0  0  0
 34 91  2  0  0  0  0
 35 75  1  0  0  0  0
 35 83  1  0  0  0  0
 35 92  2  0  0  0  0
 36 39  1  0  0  0  0
 37 46  1  0  0  0  0
 38 74  1  0  0  0  0
 39 41  1  0  0  0  0
 40 42  1  0  0  0  0
 40 43  1  0  0  0  0
 41 45  1  0  0  0  0
 42 47  1  0  0  0  0
 43 75  1  0  0  0  0
 44 47  1  0  0  0  0
 44 75  1  0  0  0  0
 45 78  1  0  0  0  0
 46 74  1  0  0  0  0
 47 73  1  0  0  0  0
 48 69  1  0  0  0  0
 49 70  1  0  0  0  0
 50 70  1  0  0  0  0
 51 70  1  0  0  0  0
 52 71  1  0  0  0  0
 53 71  1  0  0  0  0
 54 71  1  0  0  0  0
 55 84  1  0  0  0  0
 56 58  1  0  0  0  0
 57 94  1  0  0  0  0
 58 61  1  0  0  0  0
 59 60  1  0  0  0  0
 59 62  1  0  0  0  0
 60 63  1  0  0  0  0
 61 64  1  0  0  0  0
 62 65  1  0  0  0  0
 63 66  1  0  0  0  0
 64 80  1  0  0  0  0
 65 79  1  0  0  0  0
 66 83  1  0  0  0  0
 67 70  1  0  0  0  0
 67 81  1  0  0  0  0
 68 71  1  0  0  0  0
 68 82  1  0  0  0  0
 69 84  1  0  0  0  0
 72 73  1  0  0  0  0
M  CHG  1  84   1
M  ISO  4  35 100  57 101  83 100  94 101
M  END
> <Batch ID>
0003

> <Smiles>
CNC(C)C(=O)NC(C(=O)N1Cc2cc([101O:1][101CH2:1]C(=O)NC(C(=O)NCCCCC(=O)NCCCCCC[100NH:0][100C:0](=O)N3CCCC(n4nc(-c5ccc(Oc6ccc(F)cc6F)cc5)c(C(N)=O)c4N)C3)C(C)(C)C)ccc2CC1C(=O)NC1CCCc2ccccc21)C(C)(C)C

> <Shape>
0.197

> <Color>
0.061

> <Negative vol penalty>
0.000

$$$$

  -OEChem-04052315213D

 83 91  0     1  0  0  0  0  0999 V2000
  -19.1417  -23.1311   20.1270 C   0  0  0  0  0  0  0  0  0  0  0  0
  -20.0477  -22.4331   20.9190 C   0  0  0  0  0  0  0  0  0  0  0  0
  -23.4941   -9.6989   21.3570 C   0  0  0  0  0  0  0  0  0  0  0  0
  -24.0865  -10.7002   23.4744 C   0  0  0  0  0  0  0  0  0  0  0  0
  -19.5524  -24.2736   19.4414 C   0  0  0  0  0  0  0  0  0  0  0  0
  -21.3655  -22.8766   21.0250 C   0  0  0  0  0  0  0  0  0  0  0  0
  -26.8036  -23.1590   25.6794 C   0  0  0  0  0  0  0  0  0  0  0  0
  -31.4162  -18.0801   21.2497 C   0  0  0  0  0  0  0  0  0  0  0  0
  -22.8765   -8.6439   22.0287 C   0  0  0  0  0  0  0  0  0  0  0  0
  -23.4688   -9.6452   24.1461 C   0  0  0  0  0  0  0  0  0  0  0  0
  -28.1544  -22.8286   25.7789 C   0  0  0  0  0  0  0  0  0  0  0  0
  -31.8309  -19.3174   21.7424 C   0  0  0  0  0  0  0  0  0  0  0  0
  -19.9496   -8.0804   23.6252 C   0  0  0  0  0  0  0  0  0  0  0  0
  -18.6943   -7.6716   23.1750 C   0  0  0  0  0  0  0  0  0  0  0  0
  -28.7309  -24.8598   24.6123 C   0  0  0  0  0  0  0  0  0  0  0  0
  -29.1115  -18.7851   21.4188 C   0  0  0  0  0  0  0  0  0  0  0  0
  -19.5708   -5.4633   22.7364 C   0  0  0  0  0  0  0  0  0  0  0  0
  -24.0991  -10.7270   22.0799 C   0  0  0  0  0  0  0  0  0  0  0  0
  -24.1469  -13.0280   20.9794 C   0  0  0  0  0  0  0  0  0  0  0  0
  -20.8734  -24.7368   19.5468 C   0  0  0  0  0  0  0  0  0  0  0  0
  -26.4050  -24.3389   25.0350 C   0  0  0  0  0  0  0  0  0  0  0  0
  -21.7947  -24.0256   20.3391 C   0  0  0  0  0  0  0  0  0  0  0  0
  -27.3746  -25.2042   24.5083 C   0  0  0  0  0  0  0  0  0  0  0  0
  -30.0565  -17.8140   21.0878 C   0  0  0  0  0  0  0  0  0  0  0  0
  -22.8638   -8.6171   23.4232 C   0  0  0  0  0  0  0  0  0  0  0  0
  -29.1182  -23.6776   25.2428 C   0  0  0  0  0  0  0  0  0  0  0  0
  -21.0156   -7.1807   23.6310 C   0  0  0  0  0  0  0  0  0  0  0  0
  -30.8859  -20.2885   22.0735 C   0  0  0  0  0  0  0  0  0  0  0  0
  -18.5049   -6.3630   22.7306 C   0  0  0  0  0  0  0  0  0  0  0  0
  -20.8262   -5.8722   23.1866 C   0  0  0  0  0  0  0  0  0  0  0  0
  -29.5262  -20.0224   21.9117 C   0  0  0  0  0  0  0  0  0  0  0  0
  -24.7378  -11.8168   21.3866 C   0  0  0  0  0  0  0  0  0  0  0  0
  -25.1652  -13.7185   20.3689 C   0  0  0  0  0  0  0  0  0  0  0  0
  -22.7983  -13.4877   21.1388 C   0  0  0  0  0  0  0  0  0  0  0  0
  -24.6423  -25.0122   22.4770 C   0  0  0  0  0  0  0  0  0  0  0  0
  -25.0620  -28.0700   23.4751 C   0  0  0  0  0  0  0  0  0  0  0  0
  -26.9368  -30.3102   25.2397 C   0  0  0  0  0  0  0  0  0  0  0  0
  -30.4436  -15.4840   20.2116 C   0  0  0  0  0  0  0  0  0  0  0  0
  -21.2831  -25.9497   18.7495 C   0  0  0  0  0  0  0  0  0  0  0  0
  -24.9454  -24.6941   24.9595 C   0  0  0  0  0  0  0  0  0  0  0  0
  -27.0000  -26.4928   23.8245 C   0  0  0  0  0  0  0  0  0  0  0  0
  -22.6005  -26.5665   19.2125 C   0  0  0  0  0  0  0  0  0  0  0  0
  -29.7904  -12.2121   18.9687 C   0  0  0  0  0  0  0  0  0  0  0  0
  -23.6557  -25.4834   19.4133 C   0  0  0  0  0  0  0  0  0  0  0  0
  -28.3690  -11.9172   19.4535 C   0  0  0  0  0  0  0  0  0  0  0  0
  -30.5861  -13.0123   19.9983 C   0  0  0  0  0  0  0  0  0  0  0  0
  -28.5154  -13.9496   20.9485 C   0  0  0  0  0  0  0  0  0  0  0  0
  -23.2263  -24.4894   20.4990 C   0  0  1  0  0  0  0  0  0  0  0  0
  -24.6249  -25.6672   23.8292 C   0  0  1  0  0  0  0  0  0  0  0  0
  -27.6542  -13.2013   19.9179 C   0  0  2  0  0  0  0  0  0  0  0  0
  -27.0492  -32.7441   25.8401 C   0  0  0  0  0  0  0  0  0  0  0  0
  -26.0896  -28.7109   20.6746 C   0  0  0  0  0  0  0  0  0  0  0  0
  -27.0523  -30.8334   21.5891 C   0  0  0  0  0  0  0  0  0  0  0  0
  -24.5881  -30.4520   21.6586 C   0  0  0  0  0  0  0  0  0  0  0  0
  -26.6974  -29.7271   28.1313 C   0  0  0  0  0  0  0  0  0  0  0  0
  -31.2949  -23.8200   24.2955 C   0  0  0  0  0  0  0  0  0  1  0  0
  -32.0828  -21.4656   23.7580 C   0  0  0  0  0  0  0  0  0  0  0  0
  -26.0888  -29.1467   23.2194 C   0  0  1  0  0  0  0  0  0  0  0  0
  -26.5486  -31.3695   26.2554 C   0  0  2  0  0  0  0  0  0  0  0  0
  -32.4910  -22.8913   24.1141 C   0  0  1  0  0  0  0  0  0  0  0  0
  -25.9620  -29.7606   21.7965 C   0  0  0  0  0  0  0  0  0  0  0  0
  -26.0311  -11.7392   21.0620 N   0  0  0  0  0  0  0  0  0  0  0  0
  -26.2613  -12.9103   20.4443 N   0  0  0  0  0  0  0  0  0  0  0  0
  -25.5597  -26.7929   23.7703 N   0  0  0  0  0  0  0  0  0  0  0  0
  -29.8494  -14.2165   20.3880 N   0  0  0  0  0  0  0  0  0  0  0  0
  -25.2210  -14.9321   19.7802 N   0  0  0  0  0  0  0  0  0  0  0  0
  -21.8802  -12.6525   21.7898 N   0  0  0  0  0  0  0  0  0  0  0  0
  -29.6359  -16.5569   20.5873 N   0  0  0  0  0  0  0  0  0  0  0  0
  -23.4307  -25.0578   21.8141 N   0  0  0  0  0  0  0  0  0  0  0  0
  -25.9448  -30.1136   24.3023 N   0  0  0  0  0  0  0  0  0  0  0  0
  -27.1250  -31.0430   27.5904 N   0  3  0  0  0  0  0  0  0  0  0  0
  -22.4145  -14.5992   20.7019 O   0  0  0  0  0  0  0  0  0  0  0  0
  -25.6786  -24.5044   22.0649 O   0  0  0  0  0  0  0  0  0  0  0  0
  -23.8626  -28.3533   23.4222 O   0  0  0  0  0  0  0  0  0  0  0  0
  -28.0138  -29.7191   25.2722 O   0  0  0  0  0  0  0  0  0  0  0  0
  -31.5745  -15.6098   19.7350 O   0  0  0  0  0  0  0  0  0  0  0  0
  -33.3021  -23.4170   23.0622 O   0  0  0  0  0  0  0  0  0  0  0  0
  -22.2610   -7.5879   24.0790 O   0  0  0  0  0  0  0  0  0  0  0  0
  -30.4373  -23.3571   25.3379 O   0  0  0  0  0  0  0  0  0  1  0  0
  -31.3217  -21.4941   22.5549 O   0  0  0  0  0  0  0  0  0  0  0  0
  -17.2990   -5.9701   22.2998 F   0  0  0  0  0  0  0  0  0  0  0  0
  -21.8461   -5.0030   23.1909 F   0  0  0  0  0  0  0  0  0  0  0  0
  -28.3363  -21.2052   22.3134 Cl  0  0  0  0  0  0  0  0  0  0  0  0
  1  2  1  0  0  0  0
  1  5  2  0  0  0  0
  2  6  2  0  0  0  0
  3  9  2  0  0  0  0
  3 18  1  0  0  0  0
  4 10  1  0  0  0  0
  4 18  2  0  0  0  0
  5 20  1  0  0  0  0
  6 22  1  0  0  0  0
  7 11  2  0  0  0  0
  7 21  1  0  0  0  0
  8 12  2  0  0  0  0
  8 24  1  0  0  0  0
  9 25  1  0  0  0  0
 10 25  2  0  0  0  0
 11 26  1  0  0  0  0
 12 28  1  0  0  0  0
 13 14  2  0  0  0  0
 13 27  1  0  0  0  0
 14 29  1  0  0  0  0
 15 23  1  0  0  0  0
 15 26  2  0  0  0  0
 16 24  2  0  0  0  0
 16 31  1  0  0  0  0
 17 29  2  0  0  0  0
 17 30  1  0  0  0  0
 18 32  1  0  0  0  0
 19 32  1  0  0  0  0
 19 33  2  0  0  0  0
 19 34  1  0  0  0  0
 20 22  2  0  0  0  0
 20 39  1  0  0  0  0
 21 23  2  0  0  0  0
 21 40  1  0  0  0  0
 22 48  1  0  0  0  0
 23 41  1  0  0  0  0
 24 68  1  0  0  0  0
 25 78  1  0  0  0  0
 26 79  1  0  0  0  0
 27 30  2  0  0  0  0
 27 78  1  0  0  0  0
 28 31  2  0  0  0  0
 28 80  1  0  0  0  0
 29 81  1  0  0  0  0
 30 82  1  0  0  0  0
 31 83  1  0  0  0  0
 32 62  2  0  0  0  0
 33 63  1  0  0  0  0
 33 66  1  0  0  0  0
 34 67  1  0  0  0  0
 34 72  2  0  0  0  0
 35 49  1  0  0  0  0
 35 69  1  0  0  0  0
 35 73  2  0  0  0  0
 36 58  1  0  0  0  0
 36 64  1  0  0  0  0
 36 74  2  0  0  0  0
 37 59  1  0  0  0  0
 37 70  1  0  0  0  0
 37 75  2  0  0  0  0
 38 65  1  0  0  0  0
 38 68  1  0  0  0  0
 38 76  2  0  0  0  0
 39 42  1  0  0  0  0
 40 49  1  0  0  0  0
 41 64  1  0  0  0  0
 42 44  1  0  0  0  0
 43 45  1  0  0  0  0
 43 46  1  0  0  0  0
 44 48  1  0  0  0  0
 45 50  1  0  0  0  0
 46 65  1  0  0  0  0
 47 50  1  0  0  0  0
 47 65  1  0  0  0  0
 48 69  1  0  0  0  0
 49 64  1  0  0  0  0
 50 63  1  0  0  0  0
 51 59  1  0  0  0  0
 52 61  1  0  0  0  0
 53 61  1  0  0  0  0
 54 61  1  0  0  0  0
 55 71  1  0  0  0  0
 56 60  1  0  0  0  0
 56 79  1  0  0  0  0
 57 60  1  0  0  0  0
 57 80  1  0  0  0  0
 58 61  1  0  0  0  0
 58 70  1  0  0  0  0
 59 71  1  0  0  0  0
 60 77  1  0  0  0  0
 62 63  1  0  0  0  0
M  CHG  1  71   1
M  ISO  4  38 100  56 101  68 100  79 101
M  END
> <Batch ID>
0003

> <Smiles>
CNC(C)C(=O)NC(C(=O)N1Cc2cc([101O:1][101CH2:1]C(O)COc3ccc([100NH:0][100C:0](=O)N4CCCC(n5nc(-c6ccc(Oc7ccc(F)cc7F)cc6)c(C(N)=O)c5N)C4)cc3Cl)ccc2CC1C(=O)NC1CCCc2ccccc21)C(C)(C)C

> <Shape>
0.223

> <Color>
0.134

> <Negative vol penalty>
0.000

$$$$

  -OEChem-04052315213D

 91 99  0     1  0  0  0  0  0999 V2000
  -26.3554  -31.7599   13.4395 C   0  0  0  0  0  0  0  0  0  0  0  0
  -26.5236  -30.7052   14.3309 C   0  0  0  0  0  0  0  0  0  0  0  0
  -28.5155  -23.6690   18.5803 C   0  0  0  0  0  0  0  0  0  0  0  0
  -28.9450  -23.7618   19.9041 C   0  0  0  0  0  0  0  0  0  0  0  0
  -26.5387  -12.5702   21.8089 C   0  0  0  0  0  0  0  0  0  0  0  0
  -26.1143  -13.7857   19.7645 C   0  0  0  0  0  0  0  0  0  0  0  0
  -26.4996  -33.0744   13.8814 C   0  0  0  0  0  0  0  0  0  0  0  0
  -26.8373  -30.9644   15.6647 C   0  0  0  0  0  0  0  0  0  0  0  0
  -24.1018  -28.1697   18.8821 C   0  0  0  0  0  0  0  0  0  0  0  0
  -28.5551  -22.4417   17.9186 C   0  0  0  0  0  0  0  0  0  0  0  0
  -29.4144  -22.6273   20.5662 C   0  0  0  0  0  0  0  0  0  0  0  0
  -25.2527  -12.0326   21.7563 C   0  0  0  0  0  0  0  0  0  0  0  0
  -24.8283  -13.2480   19.7118 C   0  0  0  0  0  0  0  0  0  0  0  0
  -24.4865  -26.8411   19.0573 C   0  0  0  0  0  0  0  0  0  0  0  0
  -23.6513   -9.5635   20.0914 C   0  0  0  0  0  0  0  0  0  0  0  0
  -23.5088   -8.1983   20.3397 C   0  0  0  0  0  0  0  0  0  0  0  0
  -25.6041  -27.4416   21.1090 C   0  0  0  0  0  0  0  0  0  0  0  0
  -22.0651   -8.6898   22.2135 C   0  0  0  0  0  0  0  0  0  0  0  0
  -26.9695  -13.4468   20.8130 C   0  0  0  0  0  0  0  0  0  0  0  0
  -29.4689  -13.4632   20.3028 C   0  0  0  0  0  0  0  0  0  0  0  0
  -26.8057  -33.3501   15.2234 C   0  0  0  0  0  0  0  0  0  0  0  0
  -24.4753  -29.1477   19.8150 C   0  0  0  0  0  0  0  0  0  0  0  0
  -26.9871  -32.2837   16.1247 C   0  0  0  0  0  0  0  0  0  0  0  0
  -25.2207  -28.7814   20.9447 C   0  0  0  0  0  0  0  0  0  0  0  0
  -29.0244  -21.3072   18.5806 C   0  0  0  0  0  0  0  0  0  0  0  0
  -29.4541  -21.4000   19.9044 C   0  0  0  0  0  0  0  0  0  0  0  0
  -24.3975  -12.3714   20.7078 C   0  0  0  0  0  0  0  0  0  0  0  0
  -25.2402  -26.4774   20.1694 C   0  0  0  0  0  0  0  0  0  0  0  0
  -23.0008  -10.4918   20.9042 C   0  0  0  0  0  0  0  0  0  0  0  0
  -22.7157   -7.7615   21.4007 C   0  0  0  0  0  0  0  0  0  0  0  0
  -22.2076  -10.0550   21.9652 C   0  0  0  0  0  0  0  0  0  0  0  0
  -28.2976  -14.0030   20.8671 C   0  0  0  0  0  0  0  0  0  0  0  0
  -30.4541  -14.3619   20.6316 C   0  0  0  0  0  0  0  0  0  0  0  0
  -29.6501  -12.2573   19.5488 C   0  0  0  0  0  0  0  0  0  0  0  0
  -26.2332  -31.7939   19.7086 C   0  0  0  0  0  0  0  0  0  0  0  0
  -25.1798  -32.1498   22.7559 C   0  0  0  0  0  0  0  0  0  0  0  0
  -24.8138  -22.9213   20.6589 C   0  0  0  0  0  0  0  0  0  0  0  0
  -23.9604  -30.6891   25.5890 C   0  0  0  0  0  0  0  0  0  0  0  0
  -27.6439  -19.5934   17.3811 C   0  0  0  0  0  0  0  0  0  0  0  0
  -30.3942  -20.1988   21.9093 C   0  0  0  0  0  0  0  0  0  0  0  0
  -26.9983  -34.7856   15.6439 C   0  0  0  0  0  0  0  0  0  0  0  0
  -24.0297  -30.5718   19.6254 C   0  0  0  0  0  0  0  0  0  0  0  0
  -25.6301  -29.7897   21.9859 C   0  0  0  0  0  0  0  0  0  0  0  0
  -26.9623  -34.9873   17.1566 C   0  0  0  0  0  0  0  0  0  0  0  0
  -31.6231  -17.5777   23.9822 C   0  0  0  0  0  0  0  0  0  0  0  0
  -27.8255  -33.9414   17.8552 C   0  0  0  0  0  0  0  0  0  0  0  0
  -31.0213  -16.3139   23.3636 C   0  0  0  0  0  0  0  0  0  0  0  0
  -30.6549  -18.7575   23.9168 C   0  0  0  0  0  0  0  0  0  0  0  0
  -29.5153  -17.7821   21.9625 C   0  0  0  0  0  0  0  0  0  0  0  0
  -27.3033  -32.5252   17.5847 C   0  0  1  0  0  0  0  0  0  0  0  0
  -24.9028  -31.5755   20.3720 C   0  0  1  0  0  0  0  0  0  0  0  0
  -30.4781  -16.5836   21.9467 C   0  0  2  0  0  0  0  0  0  0  0  0
  -23.2303  -31.2322   27.9277 C   0  0  0  0  0  0  0  0  0  0  0  0
  -29.9999  -20.0643   16.6292 C   0  0  0  0  0  0  0  0  0  0  0  0
  -28.0987  -32.4303   23.5994 C   0  0  0  0  0  0  0  0  0  0  0  0
  -27.3832  -32.0154   25.9625 C   0  0  0  0  0  0  0  0  0  0  0  0
  -26.5282  -34.0113   24.7345 C   0  0  0  0  0  0  0  0  0  0  0  0
  -21.2140  -29.7091   25.0833 C   0  0  0  0  0  0  0  0  0  0  0  0
  -24.7516  -24.1769   19.8156 C   0  0  0  0  0  0  0  0  0  1  0  0
  -24.8180  -19.6210   20.2353 C   0  0  0  0  0  0  0  0  0  0  0  0
  -24.6210  -19.3805   18.7346 C   0  0  0  0  0  0  0  0  0  0  0  0
  -23.8324  -20.6403   20.7981 C   0  0  0  0  0  0  0  0  0  0  0  0
  -25.6214  -18.3749   18.1782 C   0  0  0  0  0  0  0  0  0  0  0  0
  -25.6722  -31.7145   24.1150 C   0  0  1  0  0  0  0  0  0  0  0  0
  -22.7885  -31.0499   26.4840 C   0  0  2  0  0  0  0  0  0  0  0  0
  -29.0563  -19.9809   17.8328 C   0  0  1  0  0  0  0  0  0  0  0  0
  -26.9147  -32.5240   24.5824 C   0  0  0  0  0  0  0  0  0  0  0  0
  -28.5167  -15.1553   21.5061 N   0  0  0  0  0  0  0  0  0  0  0  0
  -29.8371  -15.3468   21.3453 N   0  0  0  0  0  0  0  0  0  0  0  0
  -25.1755  -31.1705   21.7525 N   0  0  0  0  0  0  0  0  0  0  0  0
  -30.1853  -18.9560   22.5438 N   0  0  0  0  0  0  0  0  0  0  0  0
  -31.7794  -14.3978   20.3770 N   0  0  0  0  0  0  0  0  0  0  0  0
  -28.5318  -11.4494   19.3016 N   0  0  0  0  0  0  0  0  0  0  0  0
  -29.9343  -20.2593   20.5942 N   0  0  0  0  0  0  0  0  0  0  0  0
  -26.1448  -32.2481   18.4066 N   0  0  0  0  0  0  0  0  0  0  0  0
  -23.9655  -21.9373   20.1759 N   0  0  0  0  0  0  0  0  0  0  0  0
  -26.9930  -18.8370   18.3362 N   0  0  0  0  0  0  0  0  0  0  0  0
  -24.5263  -31.8069   25.0132 N   0  0  0  0  0  0  0  0  0  0  0  0
  -21.7544  -29.9776   26.4408 N   0  3  0  0  0  0  0  0  0  0  0  0
  -30.7735  -11.8981   19.1214 O   0  0  0  0  0  0  0  0  0  0  0  0
  -27.2636  -31.5685   20.3324 O   0  0  0  0  0  0  0  0  0  0  0  0
  -24.8059  -33.3139   22.5925 O   0  0  0  0  0  0  0  0  0  0  0  0
  -25.5373  -22.8189   21.6458 O   0  0  0  0  0  0  0  0  0  0  0  0
  -24.3385  -29.5319   25.4207 O   0  0  0  0  0  0  0  0  0  0  0  0
  -27.1611  -19.9592   16.3118 O   0  0  0  0  0  0  0  0  0  0  0  0
  -30.9652  -21.1313   22.4806 O   0  0  0  0  0  0  0  0  0  0  0  0
  -23.1427  -11.8468   20.6560 O   0  0  0  0  0  0  0  0  0  0  0  0
  -25.6175  -25.1814   20.3424 O   0  0  0  0  0  0  0  0  0  1  0  0
  -22.5776   -6.4505   21.6380 F   0  0  0  0  0  0  0  0  0  0  0  0
  -21.5792  -10.9421   22.7488 F   0  0  0  0  0  0  0  0  0  0  0  0
  -29.5561  -18.9692   18.6153 F   0  0  0  0  0  0  0  0  0  0  0  0
  1  2  1  0  0  0  0
  1  7  2  0  0  0  0
  2  8  2  0  0  0  0
  3  4  1  0  0  0  0
  3 10  2  0  0  0  0
  4 11  2  0  0  0  0
  5 12  2  0  0  0  0
  5 19  1  0  0  0  0
  6 13  1  0  0  0  0
  6 19  2  0  0  0  0
  7 21  1  0  0  0  0
  8 23  1  0  0  0  0
  9 14  2  0  0  0  0
  9 22  1  0  0  0  0
 10 25  1  0  0  0  0
 11 26  1  0  0  0  0
 12 27  1  0  0  0  0
 13 27  2  0  0  0  0
 14 28  1  0  0  0  0
 15 16  2  0  0  0  0
 15 29  1  0  0  0  0
 16 30  1  0  0  0  0
 17 24  1  0  0  0  0
 17 28  2  0  0  0  0
 18 30  2  0  0  0  0
 18 31  1  0  0  0  0
 19 32  1  0  0  0  0
 20 32  1  0  0  0  0
 20 33  2  0  0  0  0
 20 34  1  0  0  0  0
 21 23  2  0  0  0  0
 21 41  1  0  0  0  0
 22 24  2  0  0  0  0
 22 42  1  0  0  0  0
 23 50  1  0  0  0  0
 24 43  1  0  0  0  0
 25 26  2  0  0  0  0
 25 66  1  0  0  0  0
 26 74  1  0  0  0  0
 27 87  1  0  0  0  0
 28 88  1  0  0  0  0
 29 31  2  0  0  0  0
 29 87  1  0  0  0  0
 30 89  1  0  0  0  0
 31 90  1  0  0  0  0
 32 68  2  0  0  0  0
 33 69  1  0  0  0  0
 33 72  1  0  0  0  0
 34 73  1  0  0  0  0
 34 80  2  0  0  0  0
 35 51  1  0  0  0  0
 35 75  1  0  0  0  0
 35 81  2  0  0  0  0
 36 64  1  0  0  0  0
 36 70  1  0  0  0  0
 36 82  2  0  0  0  0
 37 59  1  0  0  0  0
 37 76  1  0  0  0  0
 37 83  2  0  0  0  0
 38 65  1  0  0  0  0
 38 78  1  0  0  0  0
 38 84  2  0  0  0  0
 39 66  1  0  0  0  0
 39 77  1  0  0  0  0
 39 85  2  0  0  0  0
 40 71  1  0  0  0  0
 40 74  1  0  0  0  0
 40 86  2  0  0  0  0
 41 44  1  0  0  0  0
 42 51  1  0  0  0  0
 43 70  1  0  0  0  0
 44 46  1  0  0  0  0
 45 47  1  0  0  0  0
 45 48  1  0  0  0  0
 46 50  1  0  0  0  0
 47 52  1  0  0  0  0
 48 71  1  0  0  0  0
 49 52  1  0  0  0  0
 49 71  1  0  0  0  0
 50 75  1  0  0  0  0
 51 70  1  0  0  0  0
 52 69  1  0  0  0  0
 53 65  1  0  0  0  0
 54 66  1  0  0  0  0
 55 67  1  0  0  0  0
 56 67  1  0  0  0  0
 57 67  1  0  0  0  0
 58 79  1  0  0  0  0
 59 88  1  0  0  0  0
 60 61  1  0  0  0  0
 60 62  1  0  0  0  0
 61 63  1  0  0  0  0
 62 76  1  0  0  0  0
 63 77  1  0  0  0  0
 64 67  1  0  0  0  0
 64 78  1  0  0  0  0
 65 79  1  0  0  0  0
 66 91  1  0  0  0  0
 68 69  1  0  0  0  0
M  CHG  1  79   1
M  ISO  4  40 100  59 101  74 100  88 101
M  END
> <Batch ID>
0003

> <Smiles>
CNC(C)C(=O)NC(C(=O)N1Cc2cc([101O:1][101CH2:1]C(=O)NCCCCNC(=O)C(C)(F)c3ccccc3[100NH:0][100C:0](=O)N3CCCC(n4nc(-c5ccc(Oc6ccc(F)cc6F)cc5)c(C(N)=O)c4N)C3)ccc2CC1C(=O)NC1CCCc2ccccc21)C(C)(C)C

> <Shape>
0.286

> <Color>
0.068

> <Negative vol penalty>
0.000

$$$$

  -OEChem-04052315213D

 85 92  0     1  0  0  0  0  0999 V2000
  -26.1970  -31.8267   16.6144 C   0  0  0  0  0  0  0  0  0  0  0  0
  -26.0919  -30.6895   17.4088 C   0  0  0  0  0  0  0  0  0  0  0  0
  -22.9999   -9.8963   19.9811 C   0  0  0  0  0  0  0  0  0  0  0  0
  -23.7308   -9.9435   22.2834 C   0  0  0  0  0  0  0  0  0  0  0  0
  -25.2394  -32.0813   15.6335 C   0  0  0  0  0  0  0  0  0  0  0  0
  -25.0285  -29.8067   17.2234 C   0  0  0  0  0  0  0  0  0  0  0  0
  -26.5028  -24.9620   17.2245 C   0  0  0  0  0  0  0  0  0  0  0  0
  -22.2346   -8.7610   20.2474 C   0  0  0  0  0  0  0  0  0  0  0  0
  -22.9654   -8.8082   22.5497 C   0  0  0  0  0  0  0  0  0  0  0  0
  -26.7639  -24.3762   18.4624 C   0  0  0  0  0  0  0  0  0  0  0  0
  -23.2101   -5.4702   22.0713 C   0  0  0  0  0  0  0  0  0  0  0  0
  -23.7999   -4.4520   22.8202 C   0  0  0  0  0  0  0  0  0  0  0  0
  -24.5908  -23.3298   18.4188 C   0  0  0  0  0  0  0  0  0  0  0  0
  -22.0801   -4.6912   24.5001 C   0  0  0  0  0  0  0  0  0  0  0  0
  -23.7481  -10.4875   20.9991 C   0  0  0  0  0  0  0  0  0  0  0  0
  -24.1318  -13.0036   20.8266 C   0  0  0  0  0  0  0  0  0  0  0  0
  -24.1691  -31.1962   15.4295 C   0  0  0  0  0  0  0  0  0  0  0  0
  -25.2773  -24.7445   16.5784 C   0  0  0  0  0  0  0  0  0  0  0  0
  -24.0550  -30.0504   16.2397 C   0  0  0  0  0  0  0  0  0  0  0  0
  -24.3176  -23.9119   17.1716 C   0  0  0  0  0  0  0  0  0  0  0  0
  -22.2173   -8.2169   21.5316 C   0  0  0  0  0  0  0  0  0  0  0  0
  -25.8067  -23.5622   19.0611 C   0  0  0  0  0  0  0  0  0  0  0  0
  -22.0552   -6.0990   22.5369 C   0  0  0  0  0  0  0  0  0  0  0  0
  -23.2350   -4.0624   24.0345 C   0  0  0  0  0  0  0  0  0  0  0  0
  -21.4903   -5.7095   23.7512 C   0  0  0  0  0  0  0  0  0  0  0  0
  -24.5394  -11.6600   20.7246 C   0  0  0  0  0  0  0  0  0  0  0  0
  -25.2404  -13.7273   20.4607 C   0  0  0  0  0  0  0  0  0  0  0  0
  -22.8646  -13.5488   21.2172 C   0  0  0  0  0  0  0  0  0  0  0  0
  -22.8673  -26.6005   15.6563 C   0  0  0  0  0  0  0  0  0  0  0  0
  -21.7818  -23.8567   14.3088 C   0  0  0  0  0  0  0  0  0  0  0  0
  -21.7816  -20.4441   14.2836 C   0  0  0  0  0  0  0  0  0  0  0  0
  -26.7148  -19.7570   18.4794 C   0  0  0  0  0  0  0  0  0  0  0  0
  -30.7369  -14.6640   20.6972 C   0  0  0  0  0  0  0  0  0  0  0  0
  -23.1326  -31.5381   14.3886 C   0  0  0  0  0  0  0  0  0  0  0  0
  -25.0217  -25.3621   15.2310 C   0  0  0  0  0  0  0  0  0  0  0  0
  -22.9942  -23.6304   16.5098 C   0  0  0  0  0  0  0  0  0  0  0  0
  -22.2428  -30.3587   14.0047 C   0  0  0  0  0  0  0  0  0  0  0  0
  -29.5915  -12.2439   18.3503 C   0  0  0  0  0  0  0  0  0  0  0  0
  -21.7540  -29.6303   15.2526 C   0  0  0  0  0  0  0  0  0  0  0  0
  -28.1441  -11.9828   18.7710 C   0  0  0  0  0  0  0  0  0  0  0  0
  -30.4968  -12.4776   19.5577 C   0  0  0  0  0  0  0  0  0  0  0  0
  -28.5897  -13.2699   20.9026 C   0  0  0  0  0  0  0  0  0  0  0  0
  -22.9297  -29.0562   16.0523 C   0  0  1  0  0  0  0  0  0  0  0  0
  -23.5370  -25.4865   14.9027 C   0  0  1  0  0  0  0  0  0  0  0  0
  -27.6278  -13.0839   19.7167 C   0  0  2  0  0  0  0  0  0  0  0  0
  -21.2711  -18.1215   13.4820 C   0  0  0  0  0  0  0  0  0  0  0  0
  -27.9598  -17.8858   17.3580 C   0  0  0  0  0  0  0  0  0  0  0  0
  -26.3858  -19.2350   16.0074 C   0  0  0  0  0  0  0  0  0  0  0  0
  -28.6140  -20.1983   16.7896 C   0  0  0  0  0  0  0  0  0  0  0  0
  -19.1591  -24.3087   15.8012 C   0  0  0  0  0  0  0  0  0  0  0  0
  -18.5714  -21.9171   15.3508 C   0  0  0  0  0  0  0  0  0  0  0  0
  -18.8953  -23.4993   13.4496 C   0  0  0  0  0  0  0  0  0  0  0  0
  -24.1669  -20.3993   12.5324 C   0  0  0  0  0  0  0  0  0  0  0  0
  -30.5741  -17.9784   20.8993 C   0  0  0  0  0  0  0  0  0  0  0  0
  -29.0900  -18.3496   20.7936 C   0  0  0  0  0  0  0  0  0  0  0  0
  -27.4559  -21.4892   21.5165 C   0  0  0  0  0  0  0  0  0  0  0  0
  -30.8216  -16.8409   21.8859 C   0  0  0  0  0  0  0  0  0  0  0  0
  -28.8417  -19.4938   19.8155 C   0  0  0  0  0  0  0  0  0  0  0  0
  -26.7981  -20.2491   20.9265 C   0  0  0  0  0  0  0  0  0  0  0  0
  -27.4194  -22.6854   20.5731 C   0  0  0  0  0  0  0  0  0  1  0  0
  -20.9064  -22.7148   14.7656 C   0  0  1  0  0  0  0  0  0  0  0  0
  -21.9434  -19.4451   13.1521 C   0  0  2  0  0  0  0  0  0  0  0  0
  -27.4049  -19.3225   17.1529 C   0  0  0  0  0  0  0  0  0  0  0  0
  -19.4071  -23.1166   14.8554 C   0  0  0  0  0  0  0  0  0  0  0  0
  -25.8077  -11.5347   20.3250 N   0  0  0  0  0  0  0  0  0  0  0  0
  -26.2067  -12.8090   20.1726 N   0  0  0  0  0  0  0  0  0  0  0  0
  -22.7889  -24.2624   15.1961 N   0  0  0  0  0  0  0  0  0  0  0  0
  -29.9516  -13.5345   20.4130 N   0  0  0  0  0  0  0  0  0  0  0  0
  -25.4730  -15.0533   20.3604 N   0  0  0  0  0  0  0  0  0  0  0  0
  -21.8341  -12.6635   21.5618 N   0  0  0  0  0  0  0  0  0  0  0  0
  -23.4214  -27.8459   15.4295 N   0  0  0  0  0  0  0  0  0  0  0  0
  -21.1744  -21.6059   13.8562 N   0  0  0  0  0  0  0  0  0  0  0  0
  -30.1422  -15.6211   21.5102 N   0  0  0  0  0  0  0  0  0  0  0  0
  -27.4178  -19.8332   19.6988 N   0  0  0  0  0  0  0  0  0  0  0  0
  -23.3878  -19.1866   12.8920 N   0  3  0  0  0  0  0  0  0  0  0  0
  -22.6474  -14.7839   21.2437 O   0  0  0  0  0  0  0  0  0  0  0  0
  -21.9170  -26.3491   16.3881 O   0  0  0  0  0  0  0  0  0  0  0  0
  -21.5841  -24.3652   13.2025 O   0  0  0  0  0  0  0  0  0  0  0  0
  -22.1530  -20.2150   15.4326 O   0  0  0  0  0  0  0  0  0  0  0  0
  -25.5116  -20.0566   18.4422 O   0  0  0  0  0  0  0  0  0  0  0  0
  -31.8812  -14.8112   20.2545 O   0  0  0  0  0  0  0  0  0  0  0  0
  -21.4704   -7.1093   21.7919 O   0  0  0  0  0  0  0  0  0  0  0  0
  -26.0587  -22.9897   20.2697 O   0  0  0  0  0  0  0  0  0  1  0  0
  -23.8006   -3.0835   24.7528 F   0  0  0  0  0  0  0  0  0  0  0  0
  -20.3802   -6.3091   24.2031 F   0  0  0  0  0  0  0  0  0  0  0  0
  1  2  1  0  0  0  0
  1  5  2  0  0  0  0
  2  6  2  0  0  0  0
  3  8  2  0  0  0  0
  3 15  1  0  0  0  0
  4  9  1  0  0  0  0
  4 15  2  0  0  0  0
  5 17  1  0  0  0  0
  6 19  1  0  0  0  0
  7 10  2  0  0  0  0
  7 18  1  0  0  0  0
  8 21  1  0  0  0  0
  9 21  2  0  0  0  0
 10 22  1  0  0  0  0
 11 12  2  0  0  0  0
 11 23  1  0  0  0  0
 12 24  1  0  0  0  0
 13 20  1  0  0  0  0
 13 22  2  0  0  0  0
 14 24  2  0  0  0  0
 14 25  1  0  0  0  0
 15 26  1  0  0  0  0
 16 26  1  0  0  0  0
 16 27  2  0  0  0  0
 16 28  1  0  0  0  0
 17 19  2  0  0  0  0
 17 34  1  0  0  0  0
 18 20  2  0  0  0  0
 18 35  1  0  0  0  0
 19 43  1  0  0  0  0
 20 36  1  0  0  0  0
 21 82  1  0  0  0  0
 22 83  1  0  0  0  0
 23 25  2  0  0  0  0
 23 82  1  0  0  0  0
 24 84  1  0  0  0  0
 25 85  1  0  0  0  0
 26 65  2  0  0  0  0
 27 66  1  0  0  0  0
 27 69  1  0  0  0  0
 28 70  1  0  0  0  0
 28 76  2  0  0  0  0
 29 44  1  0  0  0  0
 29 71  1  0  0  0  0
 29 77  2  0  0  0  0
 30 61  1  0  0  0  0
 30 67  1  0  0  0  0
 30 78  2  0  0  0  0
 31 62  1  0  0  0  0
 31 72  1  0  0  0  0
 31 79  2  0  0  0  0
 32 63  1  0  0  0  0
 32 74  1  0  0  0  0
 32 80  2  0  0  0  0
 33 68  1  0  0  0  0
 33 73  1  0  0  0  0
 33 81  2  0  0  0  0
 34 37  1  0  0  0  0
 35 44  1  0  0  0  0
 36 67  1  0  0  0  0
 37 39  1  0  0  0  0
 38 40  1  0  0  0  0
 38 41  1  0  0  0  0
 39 43  1  0  0  0  0
 40 45  1  0  0  0  0
 41 68  1  0  0  0  0
 42 45  1  0  0  0  0
 42 68  1  0  0  0  0
 43 71  1  0  0  0  0
 44 67  1  0  0  0  0
 45 66  1  0  0  0  0
 46 62  1  0  0  0  0
 47 63  1  0  0  0  0
 48 63  1  0  0  0  0
 49 63  1  0  0  0  0
 50 64  1  0  0  0  0
 51 64  1  0  0  0  0
 52 64  1  0  0  0  0
 53 75  1  0  0  0  0
 54 55  1  0  0  0  0
 54 57  1  0  0  0  0
 55 58  1  0  0  0  0
 56 59  1  0  0  0  0
 56 60  1  0  0  0  0
 57 73  1  0  0  0  0
 58 74  1  0  0  0  0
 59 74  1  0  0  0  0
 60 83  1  0  0  0  0
 61 64  1  0  0  0  0
 61 72  1  0  0  0  0
 62 75  1  0  0  0  0
 65 66  1  0  0  0  0
M  CHG  1  75   1
M  ISO  4  33 100  60 101  73 100  83 101
M  END
> <Batch ID>
0003

> <Smiles>
CNC(C)C(=O)NC(C(=O)N1Cc2cc([101O:1][101CH2:1]CCN(CCCC[100NH:0][100C:0](=O)N3CCCC(n4nc(-c5ccc(Oc6ccc(F)cc6F)cc5)c(C(N)=O)c4N)C3)C(=O)C(C)(C)C)ccc2CC1C(=O)NC1CCCc2ccccc21)C(C)(C)C

> <Shape>
0.207

> <Color>
0.202

> <Negative vol penalty>
0.000

$$$$

  -OEChem-04052315213D

 79 86  0     1  0  0  0  0  0999 V2000
  -24.1488  -21.5364   17.0982 C   0  0  0  0  0  0  0  0  0  0  0  0
  -25.2246  -20.6811   16.8822 C   0  0  0  0  0  0  0  0  0  0  0  0
  -27.9659  -23.3978   17.2597 C   0  0  0  0  0  0  0  0  0  0  0  0
  -29.4539  -24.6259   18.7138 C   0  0  0  0  0  0  0  0  0  0  0  0
  -23.4472  -21.4819   18.3019 C   0  0  0  0  0  0  0  0  0  0  0  0
  -25.6000  -19.7715   17.8701 C   0  0  0  0  0  0  0  0  0  0  0  0
  -28.3657  -13.2105   18.6580 C   0  0  0  0  0  0  0  0  0  0  0  0
  -27.1215  -24.5056   17.1879 C   0  0  0  0  0  0  0  0  0  0  0  0
  -28.6095  -25.7339   18.6420 C   0  0  0  0  0  0  0  0  0  0  0  0
  -29.3989  -12.5497   19.3211 C   0  0  0  0  0  0  0  0  0  0  0  0
  -25.6958  -26.7397   20.0310 C   0  0  0  0  0  0  0  0  0  0  0  0
  -25.3996  -27.4069   21.2196 C   0  0  0  0  0  0  0  0  0  0  0  0
  -28.0640  -12.4905   21.3295 C   0  0  0  0  0  0  0  0  0  0  0  0
  -26.3659  -29.4320   20.3237 C   0  0  0  0  0  0  0  0  0  0  0  0
  -29.1321  -23.4578   18.0227 C   0  0  0  0  0  0  0  0  0  0  0  0
  -31.0851  -22.0112   17.2476 C   0  0  0  0  0  0  0  0  0  0  0  0
  -23.8082  -20.5645   19.3012 C   0  0  0  0  0  0  0  0  0  0  0  0
  -27.1762  -13.5265   19.3300 C   0  0  0  0  0  0  0  0  0  0  0  0
  -24.9034  -19.7056   19.0888 C   0  0  0  0  0  0  0  0  0  0  0  0
  -27.0163  -13.1531   20.6720 C   0  0  0  0  0  0  0  0  0  0  0  0
  -27.4433  -25.6737   17.8791 C   0  0  0  0  0  0  0  0  0  0  0  0
  -29.2493  -12.1921   20.6578 C   0  0  0  0  0  0  0  0  0  0  0  0
  -26.3271  -27.4186   18.9888 C   0  0  0  0  0  0  0  0  0  0  0  0
  -25.7346  -28.7530   21.3659 C   0  0  0  0  0  0  0  0  0  0  0  0
  -26.6621  -28.7648   19.1351 C   0  0  0  0  0  0  0  0  0  0  0  0
  -30.0044  -22.3135   18.0977 C   0  0  0  0  0  0  0  0  0  0  0  0
  -31.5855  -20.8289   17.7355 C   0  0  0  0  0  0  0  0  0  0  0  0
  -31.5913  -22.7346   16.1179 C   0  0  0  0  0  0  0  0  0  0  0  0
  -25.6635  -16.2239   20.0648 C   0  0  0  0  0  0  0  0  0  0  0  0
  -23.3609  -14.1909   21.1077 C   0  0  0  0  0  0  0  0  0  0  0  0
  -22.5428  -11.0812   22.2511 C   0  0  0  0  0  0  0  0  0  0  0  0
  -31.4488  -18.4269   23.1270 C   0  0  0  0  0  0  0  0  0  0  0  0
  -23.0495  -20.5751   20.6047 C   0  0  0  0  0  0  0  0  0  0  0  0
  -26.0608  -14.2159   18.5930 C   0  0  0  0  0  0  0  0  0  0  0  0
  -25.7510  -13.4512   21.4328 C   0  0  0  0  0  0  0  0  0  0  0  0
  -23.2764  -19.3255   21.4516 C   0  0  0  0  0  0  0  0  0  0  0  0
  -30.2441  -16.8806   20.0848 C   0  0  0  0  0  0  0  0  0  0  0  0
  -24.7628  -18.9900   21.5206 C   0  0  0  0  0  0  0  0  0  0  0  0
  -30.1510  -18.0857   19.1472 C   0  0  0  0  0  0  0  0  0  0  0  0
  -29.8381  -17.2542   21.5074 C   0  0  0  0  0  0  0  0  0  0  0  0
  -30.5135  -19.5977   21.1529 C   0  0  0  0  0  0  0  0  0  0  0  0
  -25.3256  -18.6882   20.1264 C   0  0  1  0  0  0  0  0  0  0  0  0
  -25.0931  -14.9450   19.5201 C   0  0  1  0  0  0  0  0  0  0  0  0
  -30.9328  -19.2904   19.7038 C   0  0  2  0  0  0  0  0  0  0  0  0
  -20.5878   -9.7300   23.0570 C   0  0  0  0  0  0  0  0  0  0  0  0
  -23.4523  -15.6580   23.7815 C   0  0  0  0  0  0  0  0  0  0  0  0
  -22.2294  -13.7271   24.8035 C   0  0  0  0  0  0  0  0  0  0  0  0
  -21.1535  -15.0660   22.9944 C   0  0  0  0  0  0  0  0  0  0  0  0
  -22.8469   -9.1181   20.0574 C   0  0  0  0  0  0  0  0  0  0  0  0
  -32.3027  -17.1272   25.0605 C   0  0  0  0  0  0  0  0  0  0  0  0
  -32.1882  -15.7446   25.6773 C   0  0  0  0  0  0  0  0  0  0  0  0
  -31.5886  -11.8245   20.8775 C   0  0  0  0  0  0  0  0  0  1  0  0
  -32.5314  -11.6696   22.0552 C   0  0  0  0  0  0  0  0  0  0  0  0
  -32.5348  -13.4559   25.2720 C   0  0  0  0  0  0  0  0  0  0  0  0
  -32.9891  -12.4631   24.2193 C   0  0  0  0  0  0  0  0  0  0  0  0
  -23.0548  -13.5030   22.4161 C   0  0  1  0  0  0  0  0  0  0  0  0
  -21.4344  -10.1222   21.8561 C   0  0  2  0  0  0  0  0  0  0  0  0
  -22.4972  -14.4845   23.4854 C   0  0  0  0  0  0  0  0  0  0  0  0
  -29.8279  -21.3970   19.0531 N   0  0  0  0  0  0  0  0  0  0  0  0
  -30.8043  -20.5072   18.8063 N   0  0  0  0  0  0  0  0  0  0  0  0
  -24.6917  -14.1324   20.6703 N   0  0  0  0  0  0  0  0  0  0  0  0
  -30.6323  -18.3952   21.9843 N   0  0  0  0  0  0  0  0  0  0  0  0
  -32.6130  -20.0433   17.3488 N   0  0  0  0  0  0  0  0  0  0  0  0
  -30.9593  -23.9311   15.7528 N   0  0  0  0  0  0  0  0  0  0  0  0
  -24.9522  -17.3538   19.7087 N   0  0  0  0  0  0  0  0  0  0  0  0
  -22.1594  -12.3966   22.0959 N   0  0  0  0  0  0  0  0  0  0  0  0
  -31.5012  -17.2497   23.8632 N   0  0  0  0  0  0  0  0  0  0  0  0
  -22.0095   -8.8825   21.2616 N   0  3  0  0  0  0  0  0  0  0  0  0
  -32.5648  -22.3234   15.4420 O   0  0  0  0  0  0  0  0  0  0  0  0
  -26.6733  -16.1880   20.7581 O   0  0  0  0  0  0  0  0  0  0  0  0
  -22.4513  -14.7531   20.4927 O   0  0  0  0  0  0  0  0  0  0  0  0
  -23.6378  -10.7016   22.6602 O   0  0  0  0  0  0  0  0  0  0  0  0
  -32.0886  -19.4291   23.4636 O   0  0  0  0  0  0  0  0  0  0  0  0
  -26.6198  -26.7551   17.8091 O   0  0  0  0  0  0  0  0  0  0  0  0
  -30.2564  -11.5476   21.3076 O   0  0  0  0  0  0  0  0  0  1  0  0
  -32.6238  -14.7714   24.7383 O   0  0  0  0  0  0  0  0  0  0  0  0
  -32.1372  -12.5659   23.0870 O   0  0  0  0  0  0  0  0  0  0  0  0
  -25.4487  -29.3940   22.5068 F   0  0  0  0  0  0  0  0  0  0  0  0
  -27.2676  -29.4226   18.1369 F   0  0  0  0  0  0  0  0  0  0  0  0
  1  2  1  0  0  0  0
  1  5  2  0  0  0  0
  2  6  2  0  0  0  0
  3  8  2  0  0  0  0
  3 15  1  0  0  0  0
  4  9  1  0  0  0  0
  4 15  2  0  0  0  0
  5 17  1  0  0  0  0
  6 19  1  0  0  0  0
  7 10  2  0  0  0  0
  7 18  1  0  0  0  0
  8 21  1  0  0  0  0
  9 21  2  0  0  0  0
 10 22  1  0  0  0  0
 11 12  2  0  0  0  0
 11 23  1  0  0  0  0
 12 24  1  0  0  0  0
 13 20  1  0  0  0  0
 13 22  2  0  0  0  0
 14 24  2  0  0  0  0
 14 25  1  0  0  0  0
 15 26  1  0  0  0  0
 16 26  1  0  0  0  0
 16 27  2  0  0  0  0
 16 28  1  0  0  0  0
 17 19  2  0  0  0  0
 17 33  1  0  0  0  0
 18 20  2  0  0  0  0
 18 34  1  0  0  0  0
 19 42  1  0  0  0  0
 20 35  1  0  0  0  0
 21 74  1  0  0  0  0
 22 75  1  0  0  0  0
 23 25  2  0  0  0  0
 23 74  1  0  0  0  0
 24 78  1  0  0  0  0
 25 79  1  0  0  0  0
 26 59  2  0  0  0  0
 27 60  1  0  0  0  0
 27 63  1  0  0  0  0
 28 64  1  0  0  0  0
 28 69  2  0  0  0  0
 29 43  1  0  0  0  0
 29 65  1  0  0  0  0
 29 70  2  0  0  0  0
 30 56  1  0  0  0  0
 30 61  1  0  0  0  0
 30 71  2  0  0  0  0
 31 57  1  0  0  0  0
 31 66  1  0  0  0  0
 31 72  2  0  0  0  0
 32 62  1  0  0  0  0
 32 67  1  0  0  0  0
 32 73  2  0  0  0  0
 33 36  1  0  0  0  0
 34 43  1  0  0  0  0
 35 61  1  0  0  0  0
 36 38  1  0  0  0  0
 37 39  1  0  0  0  0
 37 40  1  0  0  0  0
 38 42  1  0  0  0  0
 39 44  1  0  0  0  0
 40 62  1  0  0  0  0
 41 44  1  0  0  0  0
 41 62  1  0  0  0  0
 42 65  1  0  0  0  0
 43 61  1  0  0  0  0
 44 60  1  0  0  0  0
 45 57  1  0  0  0  0
 46 58  1  0  0  0  0
 47 58  1  0  0  0  0
 48 58  1  0  0  0  0
 49 68  1  0  0  0  0
 50 51  1  0  0  0  0
 50 67  1  0  0  0  0
 51 76  1  0  0  0  0
 52 53  1  0  0  0  0
 52 75  1  0  0  0  0
 53 77  1  0  0  0  0
 54 55  1  0  0  0  0
 54 76  1  0  0  0  0
 55 77  1  0  0  0  0
 56 58  1  0  0  0  0
 56 66  1  0  0  0  0
 57 68  1  0  0  0  0
 59 60  1  0  0  0  0
M  CHG  1  68   1
M  ISO  4  32 100  52 101  67 100  75 101
M  END
> <Batch ID>
0003

> <Smiles>
CNC(C)C(=O)NC(C(=O)N1Cc2cc([101O:1][101CH2:1]COCCOCC[100NH:0][100C:0](=O)N3CCCC(n4nc(-c5ccc(Oc6ccc(F)cc6F)cc5)c(C(N)=O)c4N)C3)ccc2CC1C(=O)NC1CCCc2ccccc21)C(C)(C)C

> <Shape>
0.193

> <Color>
0.068

> <Negative vol penalty>
0.000

$$$$

  -OEChem-04052315213D

 90 99  0     1  0  0  0  0  0999 V2000
  -18.4195   -9.7265   22.3302 C   0  0  0  0  0  0  0  0  0  0  0  0
  -18.3671  -10.7094   21.3470 C   0  0  0  0  0  0  0  0  0  0  0  0
  -18.3317  -29.5449   24.1436 C   0  0  0  0  0  0  0  0  0  0  0  0
  -17.5198  -28.4668   23.7913 C   0  0  0  0  0  0  0  0  0  0  0  0
  -28.2729  -25.4592   17.5361 C   0  0  0  0  0  0  0  0  0  0  0  0
  -26.8529  -23.9446   18.7717 C   0  0  0  0  0  0  0  0  0  0  0  0
  -19.8055  -25.0265   18.6304 C   0  0  0  0  0  0  0  0  0  0  0  0
  -22.0548  -25.3498   19.4510 C   0  0  0  0  0  0  0  0  0  0  0  0
  -19.3483   -9.8263   23.3652 C   0  0  0  0  0  0  0  0  0  0  0  0
  -19.2428  -11.7933   21.3990 C   0  0  0  0  0  0  0  0  0  0  0  0
  -22.8457  -16.2696   17.1213 C   0  0  0  0  0  0  0  0  0  0  0  0
  -19.6374  -29.6224   23.6590 C   0  0  0  0  0  0  0  0  0  0  0  0
  -18.0136  -27.4661   22.9544 C   0  0  0  0  0  0  0  0  0  0  0  0
  -29.2873  -24.5019   17.5283 C   0  0  0  0  0  0  0  0  0  0  0  0
  -27.8673  -22.9872   18.7638 C   0  0  0  0  0  0  0  0  0  0  0  0
  -20.2498  -23.9769   17.8263 C   0  0  0  0  0  0  0  0  0  0  0  0
  -22.4990  -24.3002   18.6469 C   0  0  0  0  0  0  0  0  0  0  0  0
  -23.0472  -17.6335   16.9145 C   0  0  0  0  0  0  0  0  0  0  0  0
  -29.1447  -20.7317   16.5955 C   0  0  0  0  0  0  0  0  0  0  0  0
  -28.7916  -19.4180   16.2869 C   0  0  0  0  0  0  0  0  0  0  0  0
  -24.6629  -17.6602   18.7056 C   0  0  0  0  0  0  0  0  0  0  0  0
  -29.5984  -18.6940   18.4461 C   0  0  0  0  0  0  0  0  0  0  0  0
  -27.0557  -25.1806   18.1578 C   0  0  0  0  0  0  0  0  0  0  0  0
  -20.7080  -25.7130   19.4427 C   0  0  0  0  0  0  0  0  0  0  0  0
  -24.9913  -26.3394   17.2076 C   0  0  0  0  0  0  0  0  0  0  0  0
  -20.2424  -10.9069   23.4245 C   0  0  0  0  0  0  0  0  0  0  0  0
  -23.5445  -15.5918   18.1306 C   0  0  0  0  0  0  0  0  0  0  0  0
  -20.1836  -11.9083   22.4365 C   0  0  0  0  0  0  0  0  0  0  0  0
  -24.4704  -16.2871   18.9214 C   0  0  0  0  0  0  0  0  0  0  0  0
  -20.1312  -28.6217   22.8221 C   0  0  0  0  0  0  0  0  0  0  0  0
  -19.3194  -27.5436   22.4697 C   0  0  0  0  0  0  0  0  0  0  0  0
  -29.0845  -23.2658   18.1421 C   0  0  0  0  0  0  0  0  0  0  0  0
  -21.5965  -23.6138   17.8345 C   0  0  0  0  0  0  0  0  0  0  0  0
  -23.9537  -18.3297   17.7087 C   0  0  0  0  0  0  0  0  0  0  0  0
  -29.7248  -21.0265   17.8293 C   0  0  0  0  0  0  0  0  0  0  0  0
  -29.0184  -18.3992   17.2122 C   0  0  0  0  0  0  0  0  0  0  0  0
  -29.9516  -20.0077   18.7546 C   0  0  0  0  0  0  0  0  0  0  0  0
  -26.0076  -26.1693   18.1667 C   0  0  0  0  0  0  0  0  0  0  0  0
  -24.2571  -27.4040   17.6705 C   0  0  0  0  0  0  0  0  0  0  0  0
  -20.2450  -26.8072   20.2814 C   0  0  0  0  0  0  0  0  0  0  0  0
  -24.7338  -25.6011   16.0058 C   0  0  0  0  0  0  0  0  0  0  0  0
  -22.7147  -14.0182   20.7648 C   0  0  0  0  0  0  0  0  0  0  0  0
  -25.8796  -13.3150   20.8731 C   0  0  0  0  0  0  0  0  0  0  0  0
  -29.0656  -14.1520   19.9813 C   0  0  0  0  0  0  0  0  0  0  0  0
  -22.3804  -29.7364   22.6099 C   0  0  0  0  0  0  0  0  0  0  0  0
  -21.1971  -10.9962   24.5886 C   0  0  0  0  0  0  0  0  0  0  0  0
  -23.3356  -14.1148   18.3232 C   0  0  0  0  0  0  0  0  0  0  0  0
  -25.2607  -15.6016   20.0049 C   0  0  0  0  0  0  0  0  0  0  0  0
  -22.3406  -11.9823   24.3643 C   0  0  0  0  0  0  0  0  0  0  0  0
  -25.1191  -31.1293   20.8109 C   0  0  0  0  0  0  0  0  0  0  0  0
  -21.8089  -13.2980   23.8050 C   0  0  0  0  0  0  0  0  0  0  0  0
  -25.5293  -30.0100   19.8512 C   0  0  0  0  0  0  0  0  0  0  0  0
  -24.6750  -30.5804   22.1656 C   0  0  0  0  0  0  0  0  0  0  0  0
  -24.0425  -28.4288   21.1460 C   0  0  0  0  0  0  0  0  0  0  0  0
  -21.1334  -13.0864   22.4447 C   0  0  1  0  0  0  0  0  0  0  0  0
  -23.7221  -13.6336   19.7184 C   0  0  1  0  0  0  0  0  0  0  0  0
  -24.4359  -28.9287   19.7463 C   0  0  2  0  0  0  0  0  0  0  0  0
  -31.4467  -13.4066   20.2499 C   0  0  0  0  0  0  0  0  0  0  0  0
  -25.8960  -14.4028   23.7238 C   0  0  0  0  0  0  0  0  0  0  0  0
  -28.3933  -14.5197   23.5905 C   0  0  0  0  0  0  0  0  0  0  0  0
  -27.2374  -12.3178   23.3951 C   0  0  0  0  0  0  0  0  0  0  0  0
  -19.8532  -25.1037   22.0882 C   0  0  0  0  0  0  0  0  0  0  0  0
  -29.3987  -13.7759   17.0647 C   0  0  0  0  0  0  0  0  0  0  0  0
  -23.1480  -21.8388   17.5211 C   0  0  0  0  0  0  0  0  0  0  0  0
  -23.0474  -20.4146   17.0102 C   0  0  0  0  0  0  0  0  0  1  0  0
  -27.0988  -13.9646   21.4817 C   0  0  1  0  0  0  0  0  0  0  0  0
  -30.1952  -13.3285   19.3894 C   0  0  2  0  0  0  0  0  0  0  0  0
  -27.1402  -13.8148   23.0287 C   0  0  0  0  0  0  0  0  0  0  0  0
  -25.9295  -27.0549   19.1635 N   0  0  0  0  0  0  0  0  0  0  0  0
  -24.8553  -27.7919   18.8332 N   0  0  0  0  0  0  0  0  0  0  0  0
  -25.0165  -14.1579   20.1587 N   0  0  0  0  0  0  0  0  0  0  0  0
  -23.6352  -29.5646   21.9879 N   0  0  0  0  0  0  0  0  0  0  0  0
  -23.1647  -28.0367   17.1922 N   0  0  0  0  0  0  0  0  0  0  0  0
  -25.5860  -24.5373   15.6797 N   0  0  0  0  0  0  0  0  0  0  0  0
  -21.4608  -28.7228   22.3427 N   0  0  0  0  0  0  0  0  0  0  0  0
  -22.1282  -12.9423   21.4034 N   0  0  0  0  0  0  0  0  0  0  0  0
  -28.2518  -13.3924   20.7949 N   0  0  0  0  0  0  0  0  0  0  0  0
  -19.8092  -26.4909   21.6014 N   0  0  0  0  0  0  0  0  0  0  0  0
  -30.5329  -13.8189   18.0232 N   0  3  0  0  0  0  0  0  0  0  0  0
  -20.2209  -27.9649   19.8410 O   0  0  0  0  0  0  0  0  0  0  0  0
  -23.7861  -25.8870   15.2353 O   0  0  0  0  0  0  0  0  0  0  0  0
  -22.4876  -15.2034   20.9781 O   0  0  0  0  0  0  0  0  0  0  0  0
  -25.7032  -12.1030   21.0200 O   0  0  0  0  0  0  0  0  0  0  0  0
  -28.9218  -15.3501   19.7483 O   0  0  0  0  0  0  0  0  0  0  0  0
  -22.1305  -30.7247   23.3048 O   0  0  0  0  0  0  0  0  0  0  0  0
  -30.0741  -22.3313   18.1345 O   0  0  0  0  0  0  0  0  0  0  0  0
  -22.0332  -22.5830   17.0446 O   0  0  0  0  0  0  0  0  0  0  0  0
  -24.1517  -19.6612   17.5094 O   0  0  0  0  0  0  0  0  0  1  0  0
  -28.6778  -17.1380   16.9164 F   0  0  0  0  0  0  0  0  0  0  0  0
  -30.5075  -20.2850   19.9420 F   0  0  0  0  0  0  0  0  0  0  0  0
  1  2  1  0  0  0  0
  1  9  2  0  0  0  0
  2 10  2  0  0  0  0
  3  4  1  0  0  0  0
  3 12  2  0  0  0  0
  4 13  2  0  0  0  0
  5 14  2  0  0  0  0
  5 23  1  0  0  0  0
  6 15  1  0  0  0  0
  6 23  2  0  0  0  0
  7 16  2  0  0  0  0
  7 24  1  0  0  0  0
  8 17  1  0  0  0  0
  8 24  2  0  0  0  0
  9 26  1  0  0  0  0
 10 28  1  0  0  0  0
 11 18  2  0  0  0  0
 11 27  1  0  0  0  0
 12 30  1  0  0  0  0
 13 31  1  0  0  0  0
 14 32  1  0  0  0  0
 15 32  2  0  0  0  0
 16 33  1  0  0  0  0
 17 33  2  0  0  0  0
 18 34  1  0  0  0  0
 19 20  2  0  0  0  0
 19 35  1  0  0  0  0
 20 36  1  0  0  0  0
 21 29  1  0  0  0  0
 21 34  2  0  0  0  0
 22 36  2  0  0  0  0
 22 37  1  0  0  0  0
 23 38  1  0  0  0  0
 24 40  1  0  0  0  0
 25 38  1  0  0  0  0
 25 39  2  0  0  0  0
 25 41  1  0  0  0  0
 26 28  2  0  0  0  0
 26 46  1  0  0  0  0
 27 29  2  0  0  0  0
 27 47  1  0  0  0  0
 28 55  1  0  0  0  0
 29 48  1  0  0  0  0
 30 31  2  0  0  0  0
 30 75  1  0  0  0  0
 31 78  1  0  0  0  0
 32 86  1  0  0  0  0
 33 87  1  0  0  0  0
 34 88  1  0  0  0  0
 35 37  2  0  0  0  0
 35 86  1  0  0  0  0
 36 89  1  0  0  0  0
 37 90  1  0  0  0  0
 38 69  2  0  0  0  0
 39 70  1  0  0  0  0
 39 73  1  0  0  0  0
 40 78  1  0  0  0  0
 40 80  2  0  0  0  0
 41 74  1  0  0  0  0
 41 81  2  0  0  0  0
 42 56  1  0  0  0  0
 42 76  1  0  0  0  0
 42 82  2  0  0  0  0
 43 66  1  0  0  0  0
 43 71  1  0  0  0  0
 43 83  2  0  0  0  0
 44 67  1  0  0  0  0
 44 77  1  0  0  0  0
 44 84  2  0  0  0  0
 45 72  1  0  0  0  0
 45 75  1  0  0  0  0
 45 85  2  0  0  0  0
 46 49  1  0  0  0  0
 47 56  1  0  0  0  0
 48 71  1  0  0  0  0
 49 51  1  0  0  0  0
 50 52  1  0  0  0  0
 50 53  1  0  0  0  0
 51 55  1  0  0  0  0
 52 57  1  0  0  0  0
 53 72  1  0  0  0  0
 54 57  1  0  0  0  0
 54 72  1  0  0  0  0
 55 76  1  0  0  0  0
 56 71  1  0  0  0  0
 57 70  1  0  0  0  0
 58 67  1  0  0  0  0
 59 68  1  0  0  0  0
 60 68  1  0  0  0  0
 61 68  1  0  0  0  0
 62 78  1  0  0  0  0
 63 79  1  0  0  0  0
 64 65  1  0  0  0  0
 64 87  1  0  0  0  0
 65 88  1  0  0  0  0
 66 68  1  0  0  0  0
 66 77  1  0  0  0  0
 67 79  1  0  0  0  0
 69 70  1  0  0  0  0
M  CHG  1  79   1
M  ISO  4  45 100  65 101  75 100  88 101
M  END
> <Batch ID>
0003

> <Smiles>
CNC(C)C(=O)NC(C(=O)N1Cc2cc([101O:1][101CH2:1]COc3ccc(C(=O)N(C)c4ccccc4[100NH:0][100C:0](=O)N4CCCC(n5nc(-c6ccc(Oc7ccc(F)cc7F)cc6)c(C(N)=O)c5N)C4)cc3)ccc2CC1C(=O)NC1CCCc2ccccc21)C(C)(C)C

> <Shape>
0.231

> <Color>
0.075

> <Negative vol penalty>
0.000

$$$$

  -OEChem-04052315213D

 75 82  0     1  0  0  0  0  0999 V2000
  -32.6757  -26.9307   24.1935 C   0  0  0  0  0  0  0  0  0  0  0  0
  -33.2702  -25.6961   23.9527 C   0  0  0  0  0  0  0  0  0  0  0  0
  -23.1714   -9.8811   19.9137 C   0  0  0  0  0  0  0  0  0  0  0  0
  -23.5557  -10.0089   22.2955 C   0  0  0  0  0  0  0  0  0  0  0  0
  -31.2939  -27.0727   24.0744 C   0  0  0  0  0  0  0  0  0  0  0  0
  -32.4830  -24.6026   23.5938 C   0  0  0  0  0  0  0  0  0  0  0  0
  -34.0021  -20.0717   19.7637 C   0  0  0  0  0  0  0  0  0  0  0  0
  -22.3855   -8.7442   20.1014 C   0  0  0  0  0  0  0  0  0  0  0  0
  -22.7697   -8.8720   22.4833 C   0  0  0  0  0  0  0  0  0  0  0  0
  -34.4800  -18.7802   19.9813 C   0  0  0  0  0  0  0  0  0  0  0  0
  -21.1601   -5.7946   23.5550 C   0  0  0  0  0  0  0  0  0  0  0  0
  -21.6407   -4.8094   24.4175 C   0  0  0  0  0  0  0  0  0  0  0  0
  -32.2307  -17.9255   19.8106 C   0  0  0  0  0  0  0  0  0  0  0  0
  -23.5927   -4.5381   23.0199 C   0  0  0  0  0  0  0  0  0  0  0  0
  -23.7566  -10.5135   21.0107 C   0  0  0  0  0  0  0  0  0  0  0  0
  -24.1389  -13.0281   20.8149 C   0  0  0  0  0  0  0  0  0  0  0  0
  -30.4903  -25.9827   23.7044 C   0  0  0  0  0  0  0  0  0  0  0  0
  -32.6312  -20.3016   19.5785 C   0  0  0  0  0  0  0  0  0  0  0  0
  -31.0889  -24.7299   23.4710 C   0  0  0  0  0  0  0  0  0  0  0  0
  -31.7382  -19.2206   19.5883 C   0  0  0  0  0  0  0  0  0  0  0  0
  -22.1846   -8.2396   21.3862 C   0  0  0  0  0  0  0  0  0  0  0  0
  -33.5940  -17.7072   20.0076 C   0  0  0  0  0  0  0  0  0  0  0  0
  -21.8957   -6.1515   22.4248 C   0  0  0  0  0  0  0  0  0  0  0  0
  -22.8571   -4.1812   24.1500 C   0  0  0  0  0  0  0  0  0  0  0  0
  -23.1120   -5.5233   22.1573 C   0  0  0  0  0  0  0  0  0  0  0  0
  -24.5690  -11.6876   20.8173 C   0  0  0  0  0  0  0  0  0  0  0  0
  -25.2825  -13.7553   20.5922 C   0  0  0  0  0  0  0  0  0  0  0  0
  -22.8231  -13.5676   20.9979 C   0  0  0  0  0  0  0  0  0  0  0  0
  -30.4033  -21.9519   21.1331 C   0  0  0  0  0  0  0  0  0  0  0  0
  -28.5643  -21.1105   18.5969 C   0  0  0  0  0  0  0  0  0  0  0  0
  -27.9950  -18.9426   16.0234 C   0  0  0  0  0  0  0  0  0  0  0  0
  -30.8946  -12.8120   21.6977 C   0  0  0  0  0  0  0  0  0  0  0  0
  -28.9959  -26.1732   23.6345 C   0  0  0  0  0  0  0  0  0  0  0  0
  -32.1347  -21.6974   19.3183 C   0  0  0  0  0  0  0  0  0  0  0  0
  -30.2595  -19.4115   19.3746 C   0  0  0  0  0  0  0  0  0  0  0  0
  -28.2739  -25.0566   22.8848 C   0  0  0  0  0  0  0  0  0  0  0  0
  -29.5634  -13.4701   18.4935 C   0  0  0  0  0  0  0  0  0  0  0  0
  -28.7751  -23.6921   23.3473 C   0  0  0  0  0  0  0  0  0  0  0  0
  -28.0758  -13.2078   18.7242 C   0  0  0  0  0  0  0  0  0  0  0  0
  -30.4457  -12.4569   19.2251 C   0  0  0  0  0  0  0  0  0  0  0  0
  -28.6659  -12.0818   20.9026 C   0  0  0  0  0  0  0  0  0  0  0  0
  -30.2714  -23.5261   23.0554 C   0  0  1  0  0  0  0  0  0  0  0  0
  -30.6576  -21.8785   19.6540 C   0  0  1  0  0  0  0  0  0  0  0  0
  -27.7589  -13.1219   20.2273 C   0  0  2  0  0  0  0  0  0  0  0  0
  -26.3932  -18.4922   14.1448 C   0  0  0  0  0  0  0  0  0  0  0  0
  -26.5394  -20.0021   20.5923 C   0  0  0  0  0  0  0  0  0  0  0  0
  -25.4680  -18.7534   18.7052 C   0  0  0  0  0  0  0  0  0  0  0  0
  -25.5353  -21.2467   18.6695 C   0  0  0  0  0  0  0  0  0  0  0  0
  -32.9464  -11.7573   20.6572 C   0  0  0  0  0  0  0  0  0  0  0  0
  -30.1157  -19.2623   13.9840 C   0  0  0  0  0  0  0  0  0  0  0  0
  -34.0098  -14.5134   21.6426 C   0  0  0  0  0  0  0  0  0  0  0  0
  -33.1585  -13.4978   22.3926 C   0  0  0  0  0  0  0  0  0  0  0  0
  -33.1773  -15.5314   20.8726 C   0  0  0  0  0  0  0  0  0  1  0  0
  -27.6645  -19.9435   18.2691 C   0  0  1  0  0  0  0  0  0  0  0  0
  -27.6858  -19.1798   14.5562 C   0  0  2  0  0  0  0  0  0  0  0  0
  -26.3294  -19.9827   19.0650 C   0  0  0  0  0  0  0  0  0  0  0  0
  -25.8833  -11.5675   20.6121 N   0  0  0  0  0  0  0  0  0  0  0  0
  -26.2889  -12.8418   20.4787 N   0  0  0  0  0  0  0  0  0  0  0  0
  -29.8221  -20.7959   19.1303 N   0  0  0  0  0  0  0  0  0  0  0  0
  -30.0786  -12.3718   20.6452 N   0  0  0  0  0  0  0  0  0  0  0  0
  -25.5154  -15.0806   20.4843 N   0  0  0  0  0  0  0  0  0  0  0  0
  -21.7612  -12.6794   21.2161 N   0  0  0  0  0  0  0  0  0  0  0  0
  -30.4832  -23.2289   21.6549 N   0  0  0  0  0  0  0  0  0  0  0  0
  -27.4967  -19.9518   16.8199 N   0  0  0  0  0  0  0  0  0  0  0  0
  -32.2827  -12.7457   21.5051 N   0  0  0  0  0  0  0  0  0  0  0  0
  -28.7893  -18.6552   13.7029 N   0  3  0  0  0  0  0  0  0  0  0  0
  -22.5933  -14.7999   20.9523 O   0  0  0  0  0  0  0  0  0  0  0  0
  -30.1517  -20.9261   21.7545 O   0  0  0  0  0  0  0  0  0  0  0  0
  -28.1685  -22.2586   18.3806 O   0  0  0  0  0  0  0  0  0  0  0  0
  -28.6131  -17.9585   16.4232 O   0  0  0  0  0  0  0  0  0  0  0  0
  -30.4107  -13.2342   22.7559 O   0  0  0  0  0  0  0  0  0  0  0  0
  -21.4176   -7.1304   21.5699 O   0  0  0  0  0  0  0  0  0  0  0  0
  -34.0578  -16.4457   20.2205 O   0  0  0  0  0  0  0  0  0  1  0  0
  -23.3193   -3.2362   24.9792 F   0  0  0  0  0  0  0  0  0  0  0  0
  -23.8238   -5.8629   21.0738 F   0  0  0  0  0  0  0  0  0  0  0  0
  1  2  1  0  0  0  0
  1  5  2  0  0  0  0
  2  6  2  0  0  0  0
  3  8  2  0  0  0  0
  3 15  1  0  0  0  0
  4  9  1  0  0  0  0
  4 15  2  0  0  0  0
  5 17  1  0  0  0  0
  6 19  1  0  0  0  0
  7 10  2  0  0  0  0
  7 18  1  0  0  0  0
  8 21  1  0  0  0  0
  9 21  2  0  0  0  0
 10 22  1  0  0  0  0
 11 12  2  0  0  0  0
 11 23  1  0  0  0  0
 12 24  1  0  0  0  0
 13 20  1  0  0  0  0
 13 22  2  0  0  0  0
 14 24  2  0  0  0  0
 14 25  1  0  0  0  0
 15 26  1  0  0  0  0
 16 26  1  0  0  0  0
 16 27  2  0  0  0  0
 16 28  1  0  0  0  0
 17 19  2  0  0  0  0
 17 33  1  0  0  0  0
 18 20  2  0  0  0  0
 18 34  1  0  0  0  0
 19 42  1  0  0  0  0
 20 35  1  0  0  0  0
 21 72  1  0  0  0  0
 22 73  1  0  0  0  0
 23 25  2  0  0  0  0
 23 72  1  0  0  0  0
 24 74  1  0  0  0  0
 25 75  1  0  0  0  0
 26 57  2  0  0  0  0
 27 58  1  0  0  0  0
 27 61  1  0  0  0  0
 28 62  1  0  0  0  0
 28 67  2  0  0  0  0
 29 43  1  0  0  0  0
 29 63  1  0  0  0  0
 29 68  2  0  0  0  0
 30 54  1  0  0  0  0
 30 59  1  0  0  0  0
 30 69  2  0  0  0  0
 31 55  1  0  0  0  0
 31 64  1  0  0  0  0
 31 70  2  0  0  0  0
 32 60  1  0  0  0  0
 32 65  1  0  0  0  0
 32 71  2  0  0  0  0
 33 36  1  0  0  0  0
 34 43  1  0  0  0  0
 35 59  1  0  0  0  0
 36 38  1  0  0  0  0
 37 39  1  0  0  0  0
 37 40  1  0  0  0  0
 38 42  1  0  0  0  0
 39 44  1  0  0  0  0
 40 60  1  0  0  0  0
 41 44  1  0  0  0  0
 41 60  1  0  0  0  0
 42 63  1  0  0  0  0
 43 59  1  0  0  0  0
 44 58  1  0  0  0  0
 45 55  1  0  0  0  0
 46 56  1  0  0  0  0
 47 56  1  0  0  0  0
 48 56  1  0  0  0  0
 49 65  1  0  0  0  0
 50 66  1  0  0  0  0
 51 52  1  0  0  0  0
 51 53  1  0  0  0  0
 52 65  1  0  0  0  0
 53 73  1  0  0  0  0
 54 56  1  0  0  0  0
 54 64  1  0  0  0  0
 55 66  1  0  0  0  0
 57 58  1  0  0  0  0
M  CHG  1  66   1
M  ISO  4  32 100  53 101  65 100  73 101
M  END
> <Batch ID>
0003

> <Smiles>
CNC(C)C(=O)NC(C(=O)N1Cc2cc([101O:1][101CH2:1]CC[100N:0](C)[100C:0](=O)N3CCCC(n4nc(-c5ccc(Oc6ccc(F)cc6F)cc5)c(C(N)=O)c4N)C3)ccc2CC1C(=O)NC1CCCc2ccccc21)C(C)(C)C

> <Shape>
0.188

> <Color>
0.204

> <Negative vol penalty>
0.000

$$$$

  -OEChem-04052315213D

 82 90  0     1  0  0  0  0  0999 V2000
  -19.3703  -31.5287   21.8495 C   0  0  0  0  0  0  0  0  0  0  0  0
  -20.7157  -31.2131   22.0094 C   0  0  0  0  0  0  0  0  0  0  0  0
  -29.2589  -24.5030   16.9305 C   0  0  0  0  0  0  0  0  0  0  0  0
  -26.3242  -13.8440   21.7548 C   0  0  0  0  0  0  0  0  0  0  0  0
  -25.2435  -15.1961   20.0693 C   0  0  0  0  0  0  0  0  0  0  0  0
  -18.4016  -30.5349   21.9834 C   0  0  0  0  0  0  0  0  0  0  0  0
  -21.0932  -29.9036   22.3045 C   0  0  0  0  0  0  0  0  0  0  0  0
  -25.0379  -28.3481   19.5360 C   0  0  0  0  0  0  0  0  0  0  0  0
  -29.9490  -23.4961   17.6055 C   0  0  0  0  0  0  0  0  0  0  0  0
  -29.4819  -25.8407   17.2566 C   0  0  0  0  0  0  0  0  0  0  0  0
  -25.1882  -13.0389   21.8374 C   0  0  0  0  0  0  0  0  0  0  0  0
  -24.1074  -14.3910   20.1519 C   0  0  0  0  0  0  0  0  0  0  0  0
  -26.3017  -28.7918   19.9227 C   0  0  0  0  0  0  0  0  0  0  0  0
  -22.7075  -10.4110   22.2319 C   0  0  0  0  0  0  0  0  0  0  0  0
  -22.8927   -9.0287   22.2575 C   0  0  0  0  0  0  0  0  0  0  0  0
  -26.7046  -26.6771   21.0111 C   0  0  0  0  0  0  0  0  0  0  0  0
  -31.0849  -25.1648   18.9331 C   0  0  0  0  0  0  0  0  0  0  0  0
  -23.9732   -9.1334   20.0991 C   0  0  0  0  0  0  0  0  0  0  0  0
  -26.3519  -14.9226   20.8708 C   0  0  0  0  0  0  0  0  0  0  0  0
  -28.6321  -15.5789   19.9340 C   0  0  0  0  0  0  0  0  0  0  0  0
  -18.7680  -29.2106   22.2708 C   0  0  0  0  0  0  0  0  0  0  0  0
  -24.5929  -27.0673   19.8938 C   0  0  0  0  0  0  0  0  0  0  0  0
  -20.1284  -28.8914   22.4438 C   0  0  0  0  0  0  0  0  0  0  0  0
  -25.4357  -26.2185   20.6255 C   0  0  0  0  0  0  0  0  0  0  0  0
  -30.8619  -23.8270   18.6068 C   0  0  0  0  0  0  0  0  0  0  0  0
  -24.0798  -13.3123   21.0360 C   0  0  0  0  0  0  0  0  0  0  0  0
  -27.1342  -27.9574   20.6629 C   0  0  0  0  0  0  0  0  0  0  0  0
  -30.3949  -26.1716   18.2579 C   0  0  0  0  0  0  0  0  0  0  0  0
  -23.1551  -11.1545   21.1398 C   0  0  0  0  0  0  0  0  0  0  0  0
  -23.5256   -8.3899   21.1912 C   0  0  0  0  0  0  0  0  0  0  0  0
  -23.7879  -10.5157   20.0734 C   0  0  0  0  0  0  0  0  0  0  0  0
  -27.5249  -15.7550   20.7854 C   0  0  0  0  0  0  0  0  0  0  0  0
  -29.4679  -16.6259   20.2367 C   0  0  0  0  0  0  0  0  0  0  0  0
  -28.8825  -14.5601   18.9567 C   0  0  0  0  0  0  0  0  0  0  0  0
  -22.1939  -25.9338   21.6441 C   0  0  0  0  0  0  0  0  0  0  0  0
  -23.2612  -23.0729   20.5494 C   0  0  0  0  0  0  0  0  0  0  0  0
  -25.8478  -21.2320   19.2974 C   0  0  0  0  0  0  0  0  0  0  0  0
  -30.2942  -22.0386   21.3162 C   0  0  0  0  0  0  0  0  0  0  0  0
  -17.6820  -28.1801   22.4530 C   0  0  0  0  0  0  0  0  0  0  0  0
  -23.2374  -26.5937   19.4460 C   0  0  0  0  0  0  0  0  0  0  0  0
  -25.0133  -24.8270   21.0176 C   0  0  0  0  0  0  0  0  0  0  0  0
  -18.1911  -26.7421   22.3964 C   0  0  0  0  0  0  0  0  0  0  0  0
  -29.3259  -19.9589   24.0390 C   0  0  0  0  0  0  0  0  0  0  0  0
  -19.4430  -26.5849   23.2537 C   0  0  0  0  0  0  0  0  0  0  0  0
  -28.8568  -18.6684   23.3648 C   0  0  0  0  0  0  0  0  0  0  0  0
  -28.9529  -21.1919   23.2190 C   0  0  0  0  0  0  0  0  0  0  0  0
  -28.9309  -19.8691   21.1396 C   0  0  0  0  0  0  0  0  0  0  0  0
  -20.5791  -27.4774   22.7399 C   0  0  1  0  0  0  0  0  0  0  0  0
  -22.6863  -25.4603   20.3058 C   0  0  1  0  0  0  0  0  0  0  0  0
  -29.3333  -18.5949   21.9017 C   0  0  2  0  0  0  0  0  0  0  0  0
  -26.4269  -18.9125   18.5346 C   0  0  0  0  0  0  0  0  0  0  0  0
  -23.4044  -22.1554   23.4558 C   0  0  0  0  0  0  0  0  0  0  0  0
  -24.8476  -20.2502   22.7105 C   0  0  0  0  0  0  0  0  0  0  0  0
  -22.5088  -20.4460   21.8652 C   0  0  0  0  0  0  0  0  0  0  0  0
  -26.4817  -22.1651   16.5612 C   0  0  0  0  0  0  0  0  0  0  0  0
  -31.5992  -22.7504   19.3289 C   0  0  0  0  0  0  0  0  0  0  0  0
  -30.5278  -29.1670   20.3003 C   0  0  0  0  0  0  0  0  0  0  0  0
  -29.0198  -29.3262   20.1867 C   0  0  0  0  0  0  0  0  0  1  0  0
  -30.9821  -27.7660   19.9219 C   0  0  0  0  0  0  0  0  0  0  0  0
  -24.2691  -22.0547   21.0252 C   0  0  1  0  0  0  0  0  0  0  0  0
  -25.9305  -20.2867   18.1125 C   0  0  2  0  0  0  0  0  0  0  0  0
  -23.7650  -21.2535   22.2586 C   0  0  0  0  0  0  0  0  0  0  0  0
  -27.6437  -16.8292   21.5703 N   0  0  0  0  0  0  0  0  0  0  0  0
  -28.8354  -17.3375   21.2133 N   0  0  0  0  0  0  0  0  0  0  0  0
  -23.6763  -24.4121   20.5616 N   0  0  0  0  0  0  0  0  0  0  0  0
  -29.4352  -21.0596   21.8421 N   0  0  0  0  0  0  0  0  0  0  0  0
  -30.6750  -16.9980   19.7602 N   0  0  0  0  0  0  0  0  0  0  0  0
  -27.9188  -13.5593   18.7729 N   0  0  0  0  0  0  0  0  0  0  0  0
  -21.1964  -26.8873   21.5715 N   0  0  0  0  0  0  0  0  0  0  0  0
  -24.5922  -21.2282   19.8672 N   0  0  0  0  0  0  0  0  0  0  0  0
  -30.7094  -21.8336   20.0061 N   0  0  0  0  0  0  0  0  0  0  0  0
  -26.8624  -20.8271   17.0827 N   0  3  0  0  0  0  0  0  0  0  0  0
  -29.9373  -14.5287   18.2786 O   0  0  0  0  0  0  0  0  0  0  0  0
  -22.6817  -25.4674   22.6670 O   0  0  0  0  0  0  0  0  0  0  0  0
  -22.1493  -22.6934   20.1737 O   0  0  0  0  0  0  0  0  0  0  0  0
  -26.8027  -21.9037   19.6815 O   0  0  0  0  0  0  0  0  0  0  0  0
  -30.6681  -23.0197   21.9679 O   0  0  0  0  0  0  0  0  0  0  0  0
  -22.9712  -12.5268   21.1161 O   0  0  0  0  0  0  0  0  0  0  0  0
  -28.3680  -28.3883   21.0422 O   0  0  0  0  0  0  0  0  0  1  0  0
  -30.6144  -27.4862   18.5780 O   0  0  0  0  0  0  0  0  0  0  0  0
  -23.7047   -7.0628   21.2167 F   0  0  0  0  0  0  0  0  0  0  0  0
  -24.2211  -11.2248   19.0221 F   0  0  0  0  0  0  0  0  0  0  0  0
  1  2  1  0  0  0  0
  1  6  2  0  0  0  0
  2  7  2  0  0  0  0
  3  9  1  0  0  0  0
  3 10  2  0  0  0  0
  4 11  2  0  0  0  0
  4 19  1  0  0  0  0
  5 12  1  0  0  0  0
  5 19  2  0  0  0  0
  6 21  1  0  0  0  0
  7 23  1  0  0  0  0
  8 13  2  0  0  0  0
  8 22  1  0  0  0  0
  9 25  2  0  0  0  0
 10 28  1  0  0  0  0
 11 26  1  0  0  0  0
 12 26  2  0  0  0  0
 13 27  1  0  0  0  0
 14 15  2  0  0  0  0
 14 29  1  0  0  0  0
 15 30  1  0  0  0  0
 16 24  1  0  0  0  0
 16 27  2  0  0  0  0
 17 25  1  0  0  0  0
 17 28  2  0  0  0  0
 18 30  2  0  0  0  0
 18 31  1  0  0  0  0
 19 32  1  0  0  0  0
 20 32  1  0  0  0  0
 20 33  2  0  0  0  0
 20 34  1  0  0  0  0
 21 23  2  0  0  0  0
 21 39  1  0  0  0  0
 22 24  2  0  0  0  0
 22 40  1  0  0  0  0
 23 48  1  0  0  0  0
 24 41  1  0  0  0  0
 25 56  1  0  0  0  0
 26 78  1  0  0  0  0
 27 79  1  0  0  0  0
 28 80  1  0  0  0  0
 29 31  2  0  0  0  0
 29 78  1  0  0  0  0
 30 81  1  0  0  0  0
 31 82  1  0  0  0  0
 32 63  2  0  0  0  0
 33 64  1  0  0  0  0
 33 67  1  0  0  0  0
 34 68  1  0  0  0  0
 34 73  2  0  0  0  0
 35 49  1  0  0  0  0
 35 69  1  0  0  0  0
 35 74  2  0  0  0  0
 36 60  1  0  0  0  0
 36 65  1  0  0  0  0
 36 75  2  0  0  0  0
 37 61  1  0  0  0  0
 37 70  1  0  0  0  0
 37 76  2  0  0  0  0
 38 66  1  0  0  0  0
 38 71  1  0  0  0  0
 38 77  2  0  0  0  0
 39 42  1  0  0  0  0
 40 49  1  0  0  0  0
 41 65  1  0  0  0  0
 42 44  1  0  0  0  0
 43 45  1  0  0  0  0
 43 46  1  0  0  0  0
 44 48  1  0  0  0  0
 45 50  1  0  0  0  0
 46 66  1  0  0  0  0
 47 50  1  0  0  0  0
 47 66  1  0  0  0  0
 48 69  1  0  0  0  0
 49 65  1  0  0  0  0
 50 64  1  0  0  0  0
 51 61  1  0  0  0  0
 52 62  1  0  0  0  0
 53 62  1  0  0  0  0
 54 62  1  0  0  0  0
 55 72  1  0  0  0  0
 56 71  1  0  0  0  0
 57 58  1  0  0  0  0
 57 59  1  0  0  0  0
 58 79  1  0  0  0  0
 59 80  1  0  0  0  0
 60 62  1  0  0  0  0
 60 70  1  0  0  0  0
 61 72  1  0  0  0  0
 63 64  1  0  0  0  0
M  CHG  1  72   1
M  ISO  4  38 100  58 101  71 100  79 101
M  END
> <Batch ID>
0003

> <Smiles>
CNC(C)C(=O)NC(C(=O)N1Cc2cc([101O:1][101CH2:1]CCOc3cccc(C[100NH:0][100C:0](=O)N4CCCC(n5nc(-c6ccc(Oc7ccc(F)cc7F)cc6)c(C(N)=O)c5N)C4)c3)ccc2CC1C(=O)NC1CCCc2ccccc21)C(C)(C)C

> <Shape>
0.260

> <Color>
0.055

> <Negative vol penalty>
0.000

$$$$

  -OEChem-04052315213D

 78 86  0     1  0  0  0  0  0999 V2000
  -26.7739  -32.6995   28.1675 C   0  0  0  0  0  0  0  0  0  0  0  0
  -27.2042  -31.6974   27.3039 C   0  0  0  0  0  0  0  0  0  0  0  0
  -27.9925  -22.3141   16.9447 C   0  0  0  0  0  0  0  0  0  0  0  0
  -26.5064  -12.7174   21.6170 C   0  0  0  0  0  0  0  0  0  0  0  0
  -26.0125  -13.7464   19.4877 C   0  0  0  0  0  0  0  0  0  0  0  0
  -25.4236  -33.0436   28.2165 C   0  0  0  0  0  0  0  0  0  0  0  0
  -26.2843  -31.0379   26.4894 C   0  0  0  0  0  0  0  0  0  0  0  0
  -27.2352  -28.9309   20.8182 C   0  0  0  0  0  0  0  0  0  0  0  0
  -27.8815  -23.5924   17.4918 C   0  0  0  0  0  0  0  0  0  0  0  0
  -28.5263  -21.2739   17.7054 C   0  0  0  0  0  0  0  0  0  0  0  0
  -25.2502  -12.1112   21.6155 C   0  0  0  0  0  0  0  0  0  0  0  0
  -24.7563  -13.1402   19.4860 C   0  0  0  0  0  0  0  0  0  0  0  0
  -27.5382  -27.6615   20.3277 C   0  0  0  0  0  0  0  0  0  0  0  0
  -23.7752   -9.4401   20.1584 C   0  0  0  0  0  0  0  0  0  0  0  0
  -23.7052   -8.0929   20.5128 C   0  0  0  0  0  0  0  0  0  0  0  0
  -25.1982  -27.2824   19.8806 C   0  0  0  0  0  0  0  0  0  0  0  0
  -28.8381  -22.7902   19.5602 C   0  0  0  0  0  0  0  0  0  0  0  0
  -22.2435   -8.6529   22.3531 C   0  0  0  0  0  0  0  0  0  0  0  0
  -26.8875  -13.5351   20.5531 C   0  0  0  0  0  0  0  0  0  0  0  0
  -29.3811  -13.6417   20.0253 C   0  0  0  0  0  0  0  0  0  0  0  0
  -24.4882  -32.3946   27.3953 C   0  0  0  0  0  0  0  0  0  0  0  0
  -25.9080  -29.3822   20.8538 C   0  0  0  0  0  0  0  0  0  0  0  0
  -24.9201  -31.3726   26.5285 C   0  0  0  0  0  0  0  0  0  0  0  0
  -24.8813  -28.5589   20.3697 C   0  0  0  0  0  0  0  0  0  0  0  0
  -28.3043  -23.8305   18.7995 C   0  0  0  0  0  0  0  0  0  0  0  0
  -28.9491  -21.5119   19.0131 C   0  0  0  0  0  0  0  0  0  0  0  0
  -24.3751  -12.3225   20.5500 C   0  0  0  0  0  0  0  0  0  0  0  0
  -26.5193  -26.8359   19.8615 C   0  0  0  0  0  0  0  0  0  0  0  0
  -23.0795  -10.3938   20.9015 C   0  0  0  0  0  0  0  0  0  0  0  0
  -22.9393   -7.6992   21.6101 C   0  0  0  0  0  0  0  0  0  0  0  0
  -22.3136  -10.0001   21.9988 C   0  0  0  0  0  0  0  0  0  0  0  0
  -28.1848  -14.1621   20.5545 C   0  0  0  0  0  0  0  0  0  0  0  0
  -30.3189  -14.6133   20.2763 C   0  0  0  0  0  0  0  0  0  0  0  0
  -29.6229  -12.3918   19.3657 C   0  0  0  0  0  0  0  0  0  0  0  0
  -23.8999  -30.2656   23.1541 C   0  0  0  0  0  0  0  0  0  0  0  0
  -21.9913  -31.0484   20.6508 C   0  0  0  0  0  0  0  0  0  0  0  0
  -21.1684  -30.5681   17.3737 C   0  0  0  0  0  0  0  0  0  0  0  0
  -29.9572  -20.5208   21.0983 C   0  0  0  0  0  0  0  0  0  0  0  0
  -23.0321  -32.7683   27.5176 C   0  0  0  0  0  0  0  0  0  0  0  0
  -25.6007  -30.7644   21.3612 C   0  0  0  0  0  0  0  0  0  0  0  0
  -23.4424  -29.0040   20.3674 C   0  0  0  0  0  0  0  0  0  0  0  0
  -22.1777  -32.2795   26.3509 C   0  0  0  0  0  0  0  0  0  0  0  0
  -31.3281  -18.1363   23.3592 C   0  0  0  0  0  0  0  0  0  0  0  0
  -22.4919  -30.8209   26.0335 C   0  0  0  0  0  0  0  0  0  0  0  0
  -30.7915  -16.7986   22.8447 C   0  0  0  0  0  0  0  0  0  0  0  0
  -30.2992  -19.2555   23.2095 C   0  0  0  0  0  0  0  0  0  0  0  0
  -29.2062  -18.0732   21.3449 C   0  0  0  0  0  0  0  0  0  0  0  0
  -23.9563  -30.6512   25.6115 C   0  0  1  0  0  0  0  0  0  0  0  0
  -24.1568  -30.9225   21.8274 C   0  0  1  0  0  0  0  0  0  0  0  0
  -30.2305  -16.9288   21.4151 C   0  0  2  0  0  0  0  0  0  0  0  0
  -19.5398  -31.3237   15.6205 C   0  0  0  0  0  0  0  0  0  0  0  0
  -19.8198  -29.3285   21.9301 C   0  0  0  0  0  0  0  0  0  0  0  0
  -18.6126  -29.3443   19.7367 C   0  0  0  0  0  0  0  0  0  0  0  0
  -19.0056  -31.4839   20.9576 C   0  0  0  0  0  0  0  0  0  0  0  0
  -23.3324  -31.6255   15.6538 C   0  0  0  0  0  0  0  0  0  0  0  0
  -28.1847  -25.2057   19.3875 C   0  0  0  0  0  0  0  0  0  1  0  0
  -20.9499  -30.3236   19.8328 C   0  0  1  0  0  0  0  0  0  0  0  0
  -20.9071  -31.5505   16.2463 C   0  0  2  0  0  0  0  0  0  0  0  0
  -19.6238  -30.1106   20.6160 C   0  0  0  0  0  0  0  0  0  0  0  0
  -28.3453  -15.3704   21.1006 N   0  0  0  0  0  0  0  0  0  0  0  0
  -29.6533  -15.6173   20.9160 N   0  0  0  0  0  0  0  0  0  0  0  0
  -23.1921  -30.3615   20.8793 N   0  0  0  0  0  0  0  0  0  0  0  0
  -29.8156  -19.3219   21.8287 N   0  0  0  0  0  0  0  0  0  0  0  0
  -31.6396  -14.6981   20.0102 N   0  0  0  0  0  0  0  0  0  0  0  0
  -28.5477  -11.5102   19.1899 N   0  0  0  0  0  0  0  0  0  0  0  0
  -29.4906  -20.4548   19.7858 N   0  0  0  0  0  0  0  0  0  0  0  0
  -24.1410  -31.0823   24.2423 N   0  0  0  0  0  0  0  0  0  0  0  0
  -20.7987  -31.0848   18.5974 N   0  0  0  0  0  0  0  0  0  0  0  0
  -21.9408  -31.4053   15.1827 N   0  3  0  0  0  0  0  0  0  0  0  0
  -30.7622  -12.0595   18.9593 O   0  0  0  0  0  0  0  0  0  0  0  0
  -23.5105  -29.1042   23.1878 O   0  0  0  0  0  0  0  0  0  0  0  0
  -21.7511  -32.1850   21.0655 O   0  0  0  0  0  0  0  0  0  0  0  0
  -21.6488  -29.4523   17.1870 O   0  0  0  0  0  0  0  0  0  0  0  0
  -30.4803  -21.5233   21.5915 O   0  0  0  0  0  0  0  0  0  0  0  0
  -23.1494  -11.7309   20.5480 O   0  0  0  0  0  0  0  0  0  0  0  0
  -26.8122  -25.5962   19.3828 O   0  0  0  0  0  0  0  0  0  1  0  0
  -22.8709   -6.4052   21.9493 F   0  0  0  0  0  0  0  0  0  0  0  0
  -21.6420  -10.9116   22.7158 F   0  0  0  0  0  0  0  0  0  0  0  0
  1  2  1  0  0  0  0
  1  6  2  0  0  0  0
  2  7  2  0  0  0  0
  3  9  2  0  0  0  0
  3 10  1  0  0  0  0
  4 11  2  0  0  0  0
  4 19  1  0  0  0  0
  5 12  1  0  0  0  0
  5 19  2  0  0  0  0
  6 21  1  0  0  0  0
  7 23  1  0  0  0  0
  8 13  2  0  0  0  0
  8 22  1  0  0  0  0
  9 25  1  0  0  0  0
 10 26  2  0  0  0  0
 11 27  1  0  0  0  0
 12 27  2  0  0  0  0
 13 28  1  0  0  0  0
 14 15  2  0  0  0  0
 14 29  1  0  0  0  0
 15 30  1  0  0  0  0
 16 24  1  0  0  0  0
 16 28  2  0  0  0  0
 17 25  2  0  0  0  0
 17 26  1  0  0  0  0
 18 30  2  0  0  0  0
 18 31  1  0  0  0  0
 19 32  1  0  0  0  0
 20 32  1  0  0  0  0
 20 33  2  0  0  0  0
 20 34  1  0  0  0  0
 21 23  2  0  0  0  0
 21 39  1  0  0  0  0
 22 24  2  0  0  0  0
 22 40  1  0  0  0  0
 23 48  1  0  0  0  0
 24 41  1  0  0  0  0
 25 56  1  0  0  0  0
 26 66  1  0  0  0  0
 27 75  1  0  0  0  0
 28 76  1  0  0  0  0
 29 31  2  0  0  0  0
 29 75  1  0  0  0  0
 30 77  1  0  0  0  0
 31 78  1  0  0  0  0
 32 60  2  0  0  0  0
 33 61  1  0  0  0  0
 33 64  1  0  0  0  0
 34 65  1  0  0  0  0
 34 70  2  0  0  0  0
 35 49  1  0  0  0  0
 35 67  1  0  0  0  0
 35 71  2  0  0  0  0
 36 57  1  0  0  0  0
 36 62  1  0  0  0  0
 36 72  2  0  0  0  0
 37 58  1  0  0  0  0
 37 68  1  0  0  0  0
 37 73  2  0  0  0  0
 38 63  1  0  0  0  0
 38 66  1  0  0  0  0
 38 74  2  0  0  0  0
 39 42  1  0  0  0  0
 40 49  1  0  0  0  0
 41 62  1  0  0  0  0
 42 44  1  0  0  0  0
 43 45  1  0  0  0  0
 43 46  1  0  0  0  0
 44 48  1  0  0  0  0
 45 50  1  0  0  0  0
 46 63  1  0  0  0  0
 47 50  1  0  0  0  0
 47 63  1  0  0  0  0
 48 67  1  0  0  0  0
 49 62  1  0  0  0  0
 50 61  1  0  0  0  0
 51 58  1  0  0  0  0
 52 59  1  0  0  0  0
 53 59  1  0  0  0  0
 54 59  1  0  0  0  0
 55 69  1  0  0  0  0
 56 76  1  0  0  0  0
 57 59  1  0  0  0  0
 57 68  1  0  0  0  0
 58 69  1  0  0  0  0
 60 61  1  0  0  0  0
M  CHG  1  69   1
M  ISO  4  38 100  56 101  66 100  76 101
M  END
> <Batch ID>
0003

> <Smiles>
CNC(C)C(=O)NC(C(=O)N1Cc2cc([101O:1][101CH2:1]c3cccc([100NH:0][100C:0](=O)N4CCCC(n5nc(-c6ccc(Oc7ccc(F)cc7F)cc6)c(C(N)=O)c5N)C4)c3)ccc2CC1C(=O)NC1CCCc2ccccc21)C(C)(C)C

> <Shape>
0.294

> <Color>
0.112

> <Negative vol penalty>
0.000

$$$$

  -OEChem-04052315213D

 94102  0     1  0  0  0  0  0999 V2000
  -30.5014  -24.5205   18.1060 C   0  0  0  0  0  0  0  0  0  0  0  0
  -30.6409  -24.1119   16.9852 C   0  0  0  0  0  0  0  0  0  0  0  0
  -30.4555  -17.9876   23.5803 C   0  0  0  0  0  0  0  0  0  0  0  0
  -19.9613  -11.5330   21.0672 C   0  0  0  0  0  0  0  0  0  0  0  0
  -20.3338  -12.4097   20.0533 C   0  0  0  0  0  0  0  0  0  0  0  0
  -29.1443  -17.6694   23.9338 C   0  0  0  0  0  0  0  0  0  0  0  0
  -24.3100  -28.1329   19.7126 C   0  0  0  0  0  0  0  0  0  0  0  0
  -26.4169  -27.8582   20.8625 C   0  0  0  0  0  0  0  0  0  0  0  0
  -30.6997  -18.9449   22.5955 C   0  0  0  0  0  0  0  0  0  0  0  0
  -20.7010  -11.4798   22.2479 C   0  0  0  0  0  0  0  0  0  0  0  0
  -21.4456  -13.2347   20.2200 C   0  0  0  0  0  0  0  0  0  0  0  0
  -26.7586  -16.2642   16.4903 C   0  0  0  0  0  0  0  0  0  0  0  0
  -28.0772  -18.3084   23.3024 C   0  0  0  0  0  0  0  0  0  0  0  0
  -24.2181  -29.4392   20.1930 C   0  0  0  0  0  0  0  0  0  0  0  0
  -26.3250  -29.1645   21.3429 C   0  0  0  0  0  0  0  0  0  0  0  0
  -27.3467  -17.5090   16.2705 C   0  0  0  0  0  0  0  0  0  0  0  0
  -24.6841  -30.8048   23.8021 C   0  0  0  0  0  0  0  0  0  0  0  0
  -24.9779  -31.0224   25.1481 C   0  0  0  0  0  0  0  0  0  0  0  0
  -28.5958  -17.2744   18.3208 C   0  0  0  0  0  0  0  0  0  0  0  0
  -26.7630  -32.5227   24.5160 C   0  0  0  0  0  0  0  0  0  0  0  0
  -25.4094  -27.3424   20.0474 C   0  0  0  0  0  0  0  0  0  0  0  0
  -29.6326  -19.5839   21.9642 C   0  0  0  0  0  0  0  0  0  0  0  0
  -26.1047  -25.5684   18.3512 C   0  0  0  0  0  0  0  0  0  0  0  0
  -21.8281  -12.2976   22.4252 C   0  0  0  0  0  0  0  0  0  0  0  0
  -27.0771  -15.5187   17.6346 C   0  0  0  0  0  0  0  0  0  0  0  0
  -22.2003  -13.1934   21.4046 C   0  0  0  0  0  0  0  0  0  0  0  0
  -28.0124  -16.0192   18.5516 C   0  0  0  0  0  0  0  0  0  0  0  0
  -28.3213  -19.2656   22.3176 C   0  0  0  0  0  0  0  0  0  0  0  0
  -25.2256  -29.9550   21.0082 C   0  0  0  0  0  0  0  0  0  0  0  0
  -28.2632  -18.0156   17.1872 C   0  0  0  0  0  0  0  0  0  0  0  0
  -25.4298  -31.4461   22.8129 C   0  0  0  0  0  0  0  0  0  0  0  0
  -26.0173  -31.8814   25.5051 C   0  0  0  0  0  0  0  0  0  0  0  0
  -26.4692  -32.3050   23.1699 C   0  0  0  0  0  0  0  0  0  0  0  0
  -25.5046  -25.9928   19.5518 C   0  0  0  0  0  0  0  0  0  0  0  0
  -25.9320  -24.2058   18.3439 C   0  0  0  0  0  0  0  0  0  0  0  0
  -29.9279  -20.5983   20.9197 C   0  0  0  0  0  0  0  0  0  0  0  0
  -26.7599  -26.3371   17.3336 C   0  0  0  0  0  0  0  0  0  0  0  0
  -25.4395  -14.4381   20.1354 C   0  0  0  0  0  0  0  0  0  0  0  0
  -28.2413  -12.9625   20.8390 C   0  0  0  0  0  0  0  0  0  0  0  0
  -30.7058  -21.1153   15.6721 C   0  0  0  0  0  0  0  0  0  0  0  0
  -31.6365  -12.8802   20.5036 C   0  0  0  0  0  0  0  0  0  0  0  0
  -25.8664  -19.6835   21.9363 C   0  0  0  0  0  0  0  0  0  0  0  0
  -22.5685  -12.2387   23.7379 C   0  0  0  0  0  0  0  0  0  0  0  0
  -26.4542  -14.1657   17.8436 C   0  0  0  0  0  0  0  0  0  0  0  0
  -28.4036  -15.2492   19.7854 C   0  0  0  0  0  0  0  0  0  0  0  0
  -23.9538  -12.8778   23.6850 C   0  0  0  0  0  0  0  0  0  0  0  0
  -22.8597  -21.0702   20.6271 C   0  0  0  0  0  0  0  0  0  0  0  0
  -23.8902  -14.2333   22.9884 C   0  0  0  0  0  0  0  0  0  0  0  0
  -23.2922  -22.4397   20.0984 C   0  0  0  0  0  0  0  0  0  0  0  0
  -23.5986  -20.6990   21.9116 C   0  0  0  0  0  0  0  0  0  0  0  0
  -25.4952  -22.1484   21.3023 C   0  0  0  0  0  0  0  0  0  0  0  0
  -23.4147  -14.0864   21.5380 C   0  0  1  0  0  0  0  0  0  0  0  0
  -26.4653  -13.7219   19.3032 C   0  0  1  0  0  0  0  0  0  0  0  0
  -24.8254  -22.5373   19.9741 C   0  0  2  0  0  0  0  0  0  0  0  0
  -33.6563  -11.5775   21.2253 C   0  0  0  0  0  0  0  0  0  0  0  0
  -33.3531  -21.6026   14.2897 C   0  0  0  0  0  0  0  0  0  0  0  0
  -33.4563  -21.6558   16.8061 C   0  0  0  0  0  0  0  0  0  0  0  0
  -28.0801  -14.2478   23.6016 C   0  0  0  0  0  0  0  0  0  0  0  0
  -30.5055  -13.7119   23.9157 C   0  0  0  0  0  0  0  0  0  0  0  0
  -28.8535  -11.8695   23.6010 C   0  0  0  0  0  0  0  0  0  0  0  0
  -32.3298  -12.1856   17.7115 C   0  0  0  0  0  0  0  0  0  0  0  0
  -30.3315  -25.0217   19.4771 C   0  0  0  0  0  0  0  0  0  0  0  0
  -30.8083  -23.6168   15.6199 C   0  0  0  0  0  0  0  0  0  0  0  0
  -29.1895  -21.2669   15.7358 C   0  0  0  0  0  0  0  0  0  0  0  0
  -29.9786  -23.8837   20.4377 C   0  0  0  0  0  0  0  0  0  0  0  0
  -31.0231  -22.7722   20.4396 C   0  0  0  0  0  0  0  0  0  0  0  0
  -28.4564  -19.9326   15.7930 C   0  0  0  0  0  0  0  0  0  1  0  0
  -29.4729  -13.3287   21.6315 C   0  0  1  0  0  0  0  0  0  0  0  0
  -32.5873  -11.7487   20.1572 C   0  0  2  0  0  0  0  0  0  0  0  0
  -32.9017  -22.3193   15.5540 C   0  0  0  0  0  0  0  0  0  0  0  0
  -29.2194  -13.3051   23.1653 C   0  0  0  0  0  0  0  0  0  0  0  0
  -24.9890  -24.9817   20.2561 N   0  0  0  0  0  0  0  0  0  0  0  0
  -25.2646  -23.9085   19.4956 N   0  0  0  0  0  0  0  0  0  0  0  0
  -27.7624  -13.9340   19.9486 N   0  0  0  0  0  0  0  0  0  0  0  0
  -25.0459  -20.8103   21.7175 N   0  0  0  0  0  0  0  0  0  0  0  0
  -26.2873  -23.2450   17.4647 N   0  0  0  0  0  0  0  0  0  0  0  0
  -26.8497  -27.7259   17.4992 N   0  0  0  0  0  0  0  0  0  0  0  0
  -27.2215  -19.9002   21.6887 N   0  0  0  0  0  0  0  0  0  0  0  0
  -30.6772  -21.6965   21.3268 N   0  0  0  0  0  0  0  0  0  0  0  0
  -24.4916  -13.6056   20.6993 N   0  0  0  0  0  0  0  0  0  0  0  0
  -30.5283  -12.4251   21.1863 N   0  0  0  0  0  0  0  0  0  0  0  0
  -31.4420  -22.3041   15.6175 N   0  0  0  0  0  0  0  0  0  0  0  0
  -33.2620  -12.0190   18.8561 N   0  3  0  0  0  0  0  0  0  0  0  0
  -29.4914  -20.4342   19.7835 O   0  0  0  0  0  0  0  0  0  0  0  0
  -27.2365  -25.8099   16.2999 O   0  0  0  0  0  0  0  0  0  0  0  0
  -25.5041  -15.6556   20.2581 O   0  0  0  0  0  0  0  0  0  0  0  0
  -27.7273  -11.8525   20.9987 O   0  0  0  0  0  0  0  0  0  0  0  0
  -31.2247  -19.9960   15.6709 O   0  0  0  0  0  0  0  0  0  0  0  0
  -31.8567  -14.0512   20.2022 O   0  0  0  0  0  0  0  0  0  0  0  0
  -25.3978  -18.5982   22.2891 O   0  0  0  0  0  0  0  0  0  0  0  0
  -25.1364  -31.2296   21.4770 O   0  0  0  0  0  0  0  0  0  0  0  0
  -28.8382  -19.2307   16.9753 O   0  0  0  0  0  0  0  0  0  1  0  0
  -26.2983  -32.0914   26.7978 F   0  0  0  0  0  0  0  0  0  0  0  0
  -27.1883  -32.9249   22.2241 F   0  0  0  0  0  0  0  0  0  0  0  0
  1  2  3  0  0  0  0
  1 62  1  0  0  0  0
  2 63  1  0  0  0  0
  3  6  1  0  0  0  0
  3  9  2  0  0  0  0
  4  5  1  0  0  0  0
  4 10  2  0  0  0  0
  5 11  2  0  0  0  0
  6 13  2  0  0  0  0
  7 14  2  0  0  0  0
  7 21  1  0  0  0  0
  8 15  1  0  0  0  0
  8 21  2  0  0  0  0
  9 22  1  0  0  0  0
 10 24  1  0  0  0  0
 11 26  1  0  0  0  0
 12 16  2  0  0  0  0
 12 25  1  0  0  0  0
 13 28  1  0  0  0  0
 14 29  1  0  0  0  0
 15 29  2  0  0  0  0
 16 30  1  0  0  0  0
 17 18  2  0  0  0  0
 17 31  1  0  0  0  0
 18 32  1  0  0  0  0
 19 27  1  0  0  0  0
 19 30  2  0  0  0  0
 20 32  2  0  0  0  0
 20 33  1  0  0  0  0
 21 34  1  0  0  0  0
 22 28  2  0  0  0  0
 22 36  1  0  0  0  0
 23 34  1  0  0  0  0
 23 35  2  0  0  0  0
 23 37  1  0  0  0  0
 24 26  2  0  0  0  0
 24 43  1  0  0  0  0
 25 27  2  0  0  0  0
 25 44  1  0  0  0  0
 26 52  1  0  0  0  0
 27 45  1  0  0  0  0
 28 78  1  0  0  0  0
 29 91  1  0  0  0  0
 30 92  1  0  0  0  0
 31 33  2  0  0  0  0
 31 91  1  0  0  0  0
 32 93  1  0  0  0  0
 33 94  1  0  0  0  0
 34 72  2  0  0  0  0
 35 73  1  0  0  0  0
 35 76  1  0  0  0  0
 36 79  1  0  0  0  0
 36 84  2  0  0  0  0
 37 77  1  0  0  0  0
 37 85  2  0  0  0  0
 38 53  1  0  0  0  0
 38 80  1  0  0  0  0
 38 86  2  0  0  0  0
 39 68  1  0  0  0  0
 39 74  1  0  0  0  0
 39 87  2  0  0  0  0
 40 64  1  0  0  0  0
 40 82  1  0  0  0  0
 40 88  2  0  0  0  0
 41 69  1  0  0  0  0
 41 81  1  0  0  0  0
 41 89  2  0  0  0  0
 42 75  1  0  0  0  0
 42 78  1  0  0  0  0
 42 90  2  0  0  0  0
 43 46  1  0  0  0  0
 44 53  1  0  0  0  0
 45 74  1  0  0  0  0
 46 48  1  0  0  0  0
 47 49  1  0  0  0  0
 47 50  1  0  0  0  0
 48 52  1  0  0  0  0
 49 54  1  0  0  0  0
 50 75  1  0  0  0  0
 51 54  1  0  0  0  0
 51 75  1  0  0  0  0
 52 80  1  0  0  0  0
 53 74  1  0  0  0  0
 54 73  1  0  0  0  0
 55 69  1  0  0  0  0
 56 70  1  0  0  0  0
 57 70  1  0  0  0  0
 58 71  1  0  0  0  0
 59 71  1  0  0  0  0
 60 71  1  0  0  0  0
 61 83  1  0  0  0  0
 62 65  1  0  0  0  0
 63 82  1  0  0  0  0
 64 67  1  0  0  0  0
 65 66  1  0  0  0  0
 66 79  1  0  0  0  0
 67 92  1  0  0  0  0
 68 71  1  0  0  0  0
 68 81  1  0  0  0  0
 69 83  1  0  0  0  0
 70 82  1  0  0  0  0
 72 73  1  0  0  0  0
M  CHG  1  83   1
M  ISO  4  42 100  67 101  78 100  92 101
M  END
> <Batch ID>
0003

> <Smiles>
CNC(C)C(=O)NC(C(=O)N1Cc2cc([101O:1][101CH2:1]CC(=O)N(CC#CCCCNC(=O)c3ccccc3[100NH:0][100C:0](=O)N3CCCC(n4nc(-c5ccc(Oc6ccc(F)cc6F)cc5)c(C(N)=O)c4N)C3)C(C)C)ccc2CC1C(=O)NC1CCCc2ccccc21)C(C)(C)C

> <Shape>
0.232

> <Color>
0.053

> <Negative vol penalty>
0.000

$$$$

  -OEChem-04052315213D

 75 82  0     1  0  0  0  0  0999 V2000
  -21.6576  -26.0082   22.2550 C   0  0  0  0  0  0  0  0  0  0  0  0
  -22.5356  -24.9529   22.0299 C   0  0  0  0  0  0  0  0  0  0  0  0
  -23.8221  -10.0103   22.1423 C   0  0  0  0  0  0  0  0  0  0  0  0
  -24.3934  -11.4271   24.0141 C   0  0  0  0  0  0  0  0  0  0  0  0
  -22.0394  -27.3110   21.9374 C   0  0  0  0  0  0  0  0  0  0  0  0
  -23.7956  -25.1996   21.4859 C   0  0  0  0  0  0  0  0  0  0  0  0
  -27.4742  -22.6745   23.8810 C   0  0  0  0  0  0  0  0  0  0  0  0
  -23.3018   -9.0598   23.0206 C   0  0  0  0  0  0  0  0  0  0  0  0
  -23.8731  -10.4766   24.8924 C   0  0  0  0  0  0  0  0  0  0  0  0
  -27.6174  -21.3207   23.5801 C   0  0  0  0  0  0  0  0  0  0  0  0
  -24.8491   -7.5351   26.2437 C   0  0  0  0  0  0  0  0  0  0  0  0
  -25.5983   -7.2219   27.3778 C   0  0  0  0  0  0  0  0  0  0  0  0
  -29.4494  -21.8491   22.1024 C   0  0  0  0  0  0  0  0  0  0  0  0
  -23.7739   -7.9504   28.7842 C   0  0  0  0  0  0  0  0  0  0  0  0
  -24.3679  -11.1940   22.6391 C   0  0  0  0  0  0  0  0  0  0  0  0
  -24.2169  -13.2470   21.1323 C   0  0  0  0  0  0  0  0  0  0  0  0
  -23.3083  -27.5750   21.3982 C   0  0  0  0  0  0  0  0  0  0  0  0
  -28.3119  -23.6285   23.2855 C   0  0  0  0  0  0  0  0  0  0  0  0
  -24.1942  -26.5070   21.1594 C   0  0  0  0  0  0  0  0  0  0  0  0
  -29.3165  -23.2141   22.3994 C   0  0  0  0  0  0  0  0  0  0  0  0
  -23.3273   -9.2929   24.3956 C   0  0  0  0  0  0  0  0  0  0  0  0
  -28.6032  -20.9081   22.6885 C   0  0  0  0  0  0  0  0  0  0  0  0
  -23.5623   -8.0560   26.3798 C   0  0  0  0  0  0  0  0  0  0  0  0
  -25.0607   -7.4295   28.6481 C   0  0  0  0  0  0  0  0  0  0  0  0
  -23.0247   -8.2636   27.6500 C   0  0  0  0  0  0  0  0  0  0  0  0
  -24.9060  -12.1760   21.7323 C   0  0  0  0  0  0  0  0  0  0  0  0
  -25.1651  -13.8790   20.3656 C   0  0  0  0  0  0  0  0  0  0  0  0
  -22.8425  -13.6357   21.2570 C   0  0  0  0  0  0  0  0  0  0  0  0
  -27.8632  -26.1195   21.3628 C   0  0  0  0  0  0  0  0  0  0  0  0
  -31.0302  -26.5937   21.8798 C   0  0  0  0  0  0  0  0  0  0  0  0
  -34.0557  -25.2690   22.7393 C   0  0  0  0  0  0  0  0  0  0  0  0
  -31.1355  -14.1863   20.6987 C   0  0  0  0  0  0  0  0  0  0  0  0
  -23.6583  -28.9942   21.0268 C   0  0  0  0  0  0  0  0  0  0  0  0
  -28.1620  -25.0822   23.6411 C   0  0  0  0  0  0  0  0  0  0  0  0
  -30.2547  -24.1964   21.7488 C   0  0  0  0  0  0  0  0  0  0  0  0
  -25.1521  -29.2144   20.8024 C   0  0  0  0  0  0  0  0  0  0  0  0
  -29.2021  -13.0226   17.9448 C   0  0  0  0  0  0  0  0  0  0  0  0
  -25.7287  -28.1085   19.9240 C   0  0  0  0  0  0  0  0  0  0  0  0
  -27.8196  -12.7703   18.5491 C   0  0  0  0  0  0  0  0  0  0  0  0
  -30.3192  -12.6648   18.9225 C   0  0  0  0  0  0  0  0  0  0  0  0
  -28.8331  -13.0581   20.8488 C   0  0  0  0  0  0  0  0  0  0  0  0
  -25.5789  -26.7373   20.5939 C   0  0  1  0  0  0  0  0  0  0  0  0
  -28.7355  -26.0186   22.5820 C   0  0  1  0  0  0  0  0  0  0  0  0
  -27.6733  -13.4569   19.9203 C   0  0  2  0  0  0  0  0  0  0  0  0
  -36.4673  -25.8955   23.0376 C   0  0  0  0  0  0  0  0  0  0  0  0
  -31.3900  -26.6419   18.8502 C   0  0  0  0  0  0  0  0  0  0  0  0
  -33.8462  -26.3127   19.2065 C   0  0  0  0  0  0  0  0  0  0  0  0
  -32.7232  -28.3590   20.0866 C   0  0  0  0  0  0  0  0  0  0  0  0
  -34.0184  -24.5131   25.6005 C   0  0  0  0  0  0  0  0  0  0  0  0
  -31.6127  -17.1488   22.1275 C   0  0  0  0  0  0  0  0  0  0  0  0
  -30.2124  -17.6705   22.4514 C   0  0  0  0  0  0  0  0  0  0  0  0
  -31.8074  -15.6961   22.5503 C   0  0  0  0  0  0  0  0  0  0  0  0
  -30.0554  -19.1337   22.0572 C   0  0  0  0  0  0  0  0  0  1  0  0
  -32.3032  -26.1339   21.2112 C   0  0  1  0  0  0  0  0  0  0  0  0
  -35.1174  -25.7346   23.7193 C   0  0  2  0  0  0  0  0  0  0  0  0
  -32.5469  -26.8433   19.8492 C   0  0  0  0  0  0  0  0  0  0  0  0
  -26.1927  -12.1272   21.3772 N   0  0  0  0  0  0  0  0  0  0  0  0
  -26.3196  -13.1754   20.5457 N   0  0  0  0  0  0  0  0  0  0  0  0
  -30.0641  -25.6073   22.1236 N   0  0  0  0  0  0  0  0  0  0  0  0
  -30.1222  -13.3497   20.2023 N   0  0  0  0  0  0  0  0  0  0  0  0
  -25.1157  -14.9623   19.5616 N   0  0  0  0  0  0  0  0  0  0  0  0
  -22.0059  -12.8763   22.0863 N   0  0  0  0  0  0  0  0  0  0  0  0
  -26.5815  -26.5654   21.6233 N   0  0  0  0  0  0  0  0  0  0  0  0
  -33.3704  -26.3301   22.1864 N   0  0  0  0  0  0  0  0  0  0  0  0
  -30.8653  -14.8020   21.9147 N   0  0  0  0  0  0  0  0  0  0  0  0
  -35.2654  -24.7508   24.8288 N   0  3  0  0  0  0  0  0  0  0  0  0
  -22.3663  -14.6175   20.6382 O   0  0  0  0  0  0  0  0  0  0  0  0
  -28.3196  -25.8167   20.2665 O   0  0  0  0  0  0  0  0  0  0  0  0
  -30.9009  -27.7828   22.1813 O   0  0  0  0  0  0  0  0  0  0  0  0
  -33.8568  -24.0828   22.4866 O   0  0  0  0  0  0  0  0  0  0  0  0
  -32.1998  -14.3751   20.0998 O   0  0  0  0  0  0  0  0  0  0  0  0
  -22.8195   -8.3657   25.2529 O   0  0  0  0  0  0  0  0  0  0  0  0
  -28.7447  -19.5874   22.3925 O   0  0  0  0  0  0  0  0  0  1  0  0
  -25.7797   -7.1273   29.7370 F   0  0  0  0  0  0  0  0  0  0  0  0
  -21.7886   -8.7626   27.7871 F   0  0  0  0  0  0  0  0  0  0  0  0
  1  2  1  0  0  0  0
  1  5  2  0  0  0  0
  2  6  2  0  0  0  0
  3  8  2  0  0  0  0
  3 15  1  0  0  0  0
  4  9  1  0  0  0  0
  4 15  2  0  0  0  0
  5 17  1  0  0  0  0
  6 19  1  0  0  0  0
  7 10  2  0  0  0  0
  7 18  1  0  0  0  0
  8 21  1  0  0  0  0
  9 21  2  0  0  0  0
 10 22  1  0  0  0  0
 11 12  2  0  0  0  0
 11 23  1  0  0  0  0
 12 24  1  0  0  0  0
 13 20  1  0  0  0  0
 13 22  2  0  0  0  0
 14 24  2  0  0  0  0
 14 25  1  0  0  0  0
 15 26  1  0  0  0  0
 16 26  1  0  0  0  0
 16 27  2  0  0  0  0
 16 28  1  0  0  0  0
 17 19  2  0  0  0  0
 17 33  1  0  0  0  0
 18 20  2  0  0  0  0
 18 34  1  0  0  0  0
 19 42  1  0  0  0  0
 20 35  1  0  0  0  0
 21 72  1  0  0  0  0
 22 73  1  0  0  0  0
 23 25  2  0  0  0  0
 23 72  1  0  0  0  0
 24 74  1  0  0  0  0
 25 75  1  0  0  0  0
 26 57  2  0  0  0  0
 27 58  1  0  0  0  0
 27 61  1  0  0  0  0
 28 62  1  0  0  0  0
 28 67  2  0  0  0  0
 29 43  1  0  0  0  0
 29 63  1  0  0  0  0
 29 68  2  0  0  0  0
 30 54  1  0  0  0  0
 30 59  1  0  0  0  0
 30 69  2  0  0  0  0
 31 55  1  0  0  0  0
 31 64  1  0  0  0  0
 31 70  2  0  0  0  0
 32 60  1  0  0  0  0
 32 65  1  0  0  0  0
 32 71  2  0  0  0  0
 33 36  1  0  0  0  0
 34 43  1  0  0  0  0
 35 59  1  0  0  0  0
 36 38  1  0  0  0  0
 37 39  1  0  0  0  0
 37 40  1  0  0  0  0
 38 42  1  0  0  0  0
 39 44  1  0  0  0  0
 40 60  1  0  0  0  0
 41 44  1  0  0  0  0
 41 60  1  0  0  0  0
 42 63  1  0  0  0  0
 43 59  1  0  0  0  0
 44 58  1  0  0  0  0
 45 55  1  0  0  0  0
 46 56  1  0  0  0  0
 47 56  1  0  0  0  0
 48 56  1  0  0  0  0
 49 66  1  0  0  0  0
 50 51  1  0  0  0  0
 50 52  1  0  0  0  0
 51 53  1  0  0  0  0
 52 65  1  0  0  0  0
 53 73  1  0  0  0  0
 54 56  1  0  0  0  0
 54 64  1  0  0  0  0
 55 66  1  0  0  0  0
 57 58  1  0  0  0  0
M  CHG  1  66   1
M  ISO  4  32 100  53 101  65 100  73 101
M  END
> <Batch ID>
0003

> <Smiles>
CNC(C)C(=O)NC(C(=O)N1Cc2cc([101O:1][101CH2:1]CCC[100NH:0][100C:0](=O)N3CCCC(n4nc(-c5ccc(Oc6ccc(F)cc6F)cc5)c(C(N)=O)c4N)C3)ccc2CC1C(=O)NC1CCCc2ccccc21)C(C)(C)C

> <Shape>
0.193

> <Color>
0.131

> <Negative vol penalty>
0.000

$$$$

  -OEChem-04052315213D

 87 95  0     1  0  0  0  0  0999 V2000
  -28.3062  -24.7234   16.9228 C   0  0  0  0  0  0  0  0  0  0  0  0
  -27.1386  -24.8709   17.6647 C   0  0  0  0  0  0  0  0  0  0  0  0
  -26.5550  -12.2163   20.5765 C   0  0  0  0  0  0  0  0  0  0  0  0
  -24.5688  -13.5200   20.1380 C   0  0  0  0  0  0  0  0  0  0  0  0
  -24.5906  -23.0988   24.0968 C   0  0  0  0  0  0  0  0  0  0  0  0
  -29.4875  -25.3228   17.3578 C   0  0  0  0  0  0  0  0  0  0  0  0
  -27.1519  -25.6170   18.8426 C   0  0  0  0  0  0  0  0  0  0  0  0
  -23.1896  -28.7500   19.2026 C   0  0  0  0  0  0  0  0  0  0  0  0
  -25.6126  -22.2486   23.6746 C   0  0  0  0  0  0  0  0  0  0  0  0
  -25.7609  -11.1289   20.9404 C   0  0  0  0  0  0  0  0  0  0  0  0
  -23.7747  -12.4325   20.5019 C   0  0  0  0  0  0  0  0  0  0  0  0
  -21.9686  -28.1917   19.5785 C   0  0  0  0  0  0  0  0  0  0  0  0
  -22.7256   -9.5389   19.1066 C   0  0  0  0  0  0  0  0  0  0  0  0
  -21.6402   -9.2281   18.2875 C   0  0  0  0  0  0  0  0  0  0  0  0
  -22.3159  -28.9671   21.8362 C   0  0  0  0  0  0  0  0  0  0  0  0
  -24.2109  -21.4588   21.8721 C   0  0  0  0  0  0  0  0  0  0  0  0
  -20.1376   -9.5733   20.1477 C   0  0  0  0  0  0  0  0  0  0  0  0
  -25.9589  -13.4120   20.1753 C   0  0  0  0  0  0  0  0  0  0  0  0
  -23.3787  -23.1290   23.4067 C   0  0  0  0  0  0  0  0  0  0  0  0
  -27.2635  -14.8425   18.5142 C   0  0  0  0  0  0  0  0  0  0  0  0
  -29.5131  -26.0846   18.5366 C   0  0  0  0  0  0  0  0  0  0  0  0
  -23.9894  -29.4126   20.1447 C   0  0  0  0  0  0  0  0  0  0  0  0
  -28.3349  -26.2260   19.2945 C   0  0  0  0  0  0  0  0  0  0  0  0
  -23.5455  -29.5351   21.4692 C   0  0  0  0  0  0  0  0  0  0  0  0
  -25.4227  -21.4286   22.5622 C   0  0  0  0  0  0  0  0  0  0  0  0
  -24.3708  -11.2370   20.9031 C   0  0  0  0  0  0  0  0  0  0  0  0
  -21.5329  -28.2977   20.8961 C   0  0  0  0  0  0  0  0  0  0  0  0
  -22.5170   -9.8668   20.4463 C   0  0  0  0  0  0  0  0  0  0  0  0
  -23.1889  -22.3090   22.2944 C   0  0  0  0  0  0  0  0  0  0  0  0
  -20.3462   -9.2453   18.8081 C   0  0  0  0  0  0  0  0  0  0  0  0
  -21.2231   -9.8841   20.9668 C   0  0  0  0  0  0  0  0  0  0  0  0
  -26.7787  -14.5358   19.7998 C   0  0  0  0  0  0  0  0  0  0  0  0
  -27.9839  -15.9993   18.6859 C   0  0  0  0  0  0  0  0  0  0  0  0
  -22.3036  -24.0419   23.8735 C   0  0  0  0  0  0  0  0  0  0  0  0
  -27.0792  -14.1442   17.2757 C   0  0  0  0  0  0  0  0  0  0  0  0
  -26.9033  -28.9571   21.3302 C   0  0  0  0  0  0  0  0  0  0  0  0
  -26.3327  -31.8003   22.7840 C   0  0  0  0  0  0  0  0  0  0  0  0
  -24.0477  -34.0541   23.9439 C   0  0  0  0  0  0  0  0  0  0  0  0
  -27.7232  -20.4120   22.7065 C   0  0  0  0  0  0  0  0  0  0  0  0
  -30.8246  -26.6742   18.9916 C   0  0  0  0  0  0  0  0  0  0  0  0
  -25.2914  -30.0326   19.7173 C   0  0  0  0  0  0  0  0  0  0  0  0
  -24.3573  -30.2542   22.5143 C   0  0  0  0  0  0  0  0  0  0  0  0
  -30.6686  -27.7600   20.0532 C   0  0  0  0  0  0  0  0  0  0  0  0
  -30.5422  -18.3651   21.9711 C   0  0  0  0  0  0  0  0  0  0  0  0
  -29.7005  -27.3073   21.1416 C   0  0  0  0  0  0  0  0  0  0  0  0
  -29.9419  -17.1817   21.2085 C   0  0  0  0  0  0  0  0  0  0  0  0
  -29.6172  -18.8489   23.0865 C   0  0  0  0  0  0  0  0  0  0  0  0
  -27.6433  -17.9698   21.9032 C   0  0  0  0  0  0  0  0  0  0  0  0
  -28.3036  -27.0483   20.5645 C   0  0  1  0  0  0  0  0  0  0  0  0
  -26.2637  -30.2382   20.8748 C   0  0  1  0  0  0  0  0  0  0  0  0
  -28.5100  -17.4889   20.7280 C   0  0  2  0  0  0  0  0  0  0  0  0
  -23.8832  -36.2660   25.1178 C   0  0  0  0  0  0  0  0  0  0  0  0
  -27.0303  -30.4462   25.4278 C   0  0  0  0  0  0  0  0  0  0  0  0
  -25.9524  -32.3680   26.6164 C   0  0  0  0  0  0  0  0  0  0  0  0
  -27.9448  -32.7593   25.1672 C   0  0  0  0  0  0  0  0  0  0  0  0
  -22.6456  -35.2970   21.6529 C   0  0  0  0  0  0  0  0  0  0  0  0
  -21.9044  -23.2488   20.5273 C   0  0  0  0  0  0  0  0  0  0  0  0
  -19.9662  -24.1899   24.6923 C   0  0  0  0  0  0  0  0  0  0  0  0
  -19.0961  -24.5532   23.5029 C   0  0  0  0  0  0  0  0  0  0  0  0
  -19.9074  -26.5961   20.5525 C   0  0  0  0  0  0  0  0  0  1  0  0
  -19.0629  -25.7355   21.4722 C   0  0  0  0  0  0  0  0  0  0  0  0
  -25.7179  -32.2261   24.0953 C   0  0  1  0  0  0  0  0  0  0  0  0
  -23.9404  -35.5587   23.7727 C   0  0  2  0  0  0  0  0  0  0  0  0
  -26.6467  -31.9346   25.3077 C   0  0  0  0  0  0  0  0  0  0  0  0
  -27.1590  -15.4259   20.7202 N   0  0  0  0  0  0  0  0  0  0  0  0
  -27.8906  -16.3031   20.0122 N   0  0  0  0  0  0  0  0  0  0  0  0
  -25.6261  -30.8380   22.0487 N   0  0  0  0  0  0  0  0  0  0  0  0
  -28.2801  -19.1243   22.5564 N   0  0  0  0  0  0  0  0  0  0  0  0
  -28.6817  -16.7759   17.8302 N   0  0  0  0  0  0  0  0  0  0  0  0
  -26.3105  -12.9722   17.2774 N   0  0  0  0  0  0  0  0  0  0  0  0
  -26.4609  -20.5646   22.1339 N   0  0  0  0  0  0  0  0  0  0  0  0
  -21.1414  -23.4166   24.2301 N   0  0  0  0  0  0  0  0  0  0  0  0
  -27.6091  -28.2983   20.3417 N   0  0  0  0  0  0  0  0  0  0  0  0
  -25.3603  -33.6321   23.9410 N   0  0  0  0  0  0  0  0  0  0  0  0
  -22.7107  -35.9065   23.0061 N   0  3  0  0  0  0  0  0  0  0  0  0
  -22.5097  -25.2526   23.8898 O   0  0  0  0  0  0  0  0  0  0  0  0
  -27.5949  -14.5386   16.2023 O   0  0  0  0  0  0  0  0  0  0  0  0
  -26.7677  -28.5941   22.4928 O   0  0  0  0  0  0  0  0  0  0  0  0
  -27.3970  -32.3081   22.4218 O   0  0  0  0  0  0  0  0  0  0  0  0
  -23.0654  -33.3265   24.0713 O   0  0  0  0  0  0  0  0  0  0  0  0
  -28.3335  -21.3207   23.2755 O   0  0  0  0  0  0  0  0  0  0  0  0
  -23.5956  -10.1760   21.2580 O   0  0  0  0  0  0  0  0  0  0  0  0
  -22.0119  -22.3240   21.6072 O   0  0  0  0  0  0  0  0  0  0  0  0
  -20.3418  -27.7532   21.2657 O   0  0  0  0  0  0  0  0  0  1  0  0
  -19.8385  -25.3680   22.6066 O   0  0  0  0  0  0  0  0  0  0  0  0
  -19.3039   -8.9483   18.0210 F   0  0  0  0  0  0  0  0  0  0  0  0
  -21.0163  -10.1995   22.2527 F   0  0  0  0  0  0  0  0  0  0  0  0
  1  2  1  0  0  0  0
  1  6  2  0  0  0  0
  2  7  2  0  0  0  0
  3 10  2  0  0  0  0
  3 18  1  0  0  0  0
  4 11  1  0  0  0  0
  4 18  2  0  0  0  0
  5  9  2  0  0  0  0
  5 19  1  0  0  0  0
  6 21  1  0  0  0  0
  7 23  1  0  0  0  0
  8 12  2  0  0  0  0
  8 22  1  0  0  0  0
  9 25  1  0  0  0  0
 10 26  1  0  0  0  0
 11 26  2  0  0  0  0
 12 27  1  0  0  0  0
 13 14  2  0  0  0  0
 13 28  1  0  0  0  0
 14 30  1  0  0  0  0
 15 24  1  0  0  0  0
 15 27  2  0  0  0  0
 16 25  2  0  0  0  0
 16 29  1  0  0  0  0
 17 30  2  0  0  0  0
 17 31  1  0  0  0  0
 18 32  1  0  0  0  0
 19 29  2  0  0  0  0
 19 34  1  0  0  0  0
 20 32  1  0  0  0  0
 20 33  2  0  0  0  0
 20 35  1  0  0  0  0
 21 23  2  0  0  0  0
 21 40  1  0  0  0  0
 22 24  2  0  0  0  0
 22 41  1  0  0  0  0
 23 49  1  0  0  0  0
 24 42  1  0  0  0  0
 25 71  1  0  0  0  0
 26 82  1  0  0  0  0
 27 84  1  0  0  0  0
 28 31  2  0  0  0  0
 28 82  1  0  0  0  0
 29 83  1  0  0  0  0
 30 86  1  0  0  0  0
 31 87  1  0  0  0  0
 32 65  2  0  0  0  0
 33 66  1  0  0  0  0
 33 69  1  0  0  0  0
 34 72  1  0  0  0  0
 34 76  2  0  0  0  0
 35 70  1  0  0  0  0
 35 77  2  0  0  0  0
 36 50  1  0  0  0  0
 36 73  1  0  0  0  0
 36 78  2  0  0  0  0
 37 62  1  0  0  0  0
 37 67  1  0  0  0  0
 37 79  2  0  0  0  0
 38 63  1  0  0  0  0
 38 74  1  0  0  0  0
 38 80  2  0  0  0  0
 39 68  1  0  0  0  0
 39 71  1  0  0  0  0
 39 81  2  0  0  0  0
 40 43  1  0  0  0  0
 41 50  1  0  0  0  0
 42 67  1  0  0  0  0
 43 45  1  0  0  0  0
 44 46  1  0  0  0  0
 44 47  1  0  0  0  0
 45 49  1  0  0  0  0
 46 51  1  0  0  0  0
 47 68  1  0  0  0  0
 48 51  1  0  0  0  0
 48 68  1  0  0  0  0
 49 73  1  0  0  0  0
 50 67  1  0  0  0  0
 51 66  1  0  0  0  0
 52 63  1  0  0  0  0
 53 64  1  0  0  0  0
 54 64  1  0  0  0  0
 55 64  1  0  0  0  0
 56 75  1  0  0  0  0
 57 83  1  0  0  0  0
 58 59  1  0  0  0  0
 58 72  1  0  0  0  0
 59 85  1  0  0  0  0
 60 61  1  0  0  0  0
 60 84  1  0  0  0  0
 61 85  1  0  0  0  0
 62 64  1  0  0  0  0
 62 74  1  0  0  0  0
 63 75  1  0  0  0  0
 65 66  1  0  0  0  0
M  CHG  1  75   1
M  ISO  4  39 100  60 101  71 100  84 101
M  END
> <Batch ID>
0003

> <Smiles>
CNC(C)C(=O)NC(C(=O)N1Cc2cc([101O:1][101CH2:1]COCCNC(=O)c3ccc([100NH:0][100C:0](=O)N4CCCC(n5nc(-c6ccc(Oc7ccc(F)cc7F)cc6)c(C(N)=O)c5N)C4)cc3OC)ccc2CC1C(=O)NC1CCCc2ccccc21)C(C)(C)C

> <Shape>
0.297

> <Color>
0.067

> <Negative vol penalty>
0.000

$$$$

  -OEChem-04052315213D

 89 97  0     1  0  0  0  0  0999 V2000
  -30.0699  -28.0456   25.8020 C   0  0  0  0  0  0  0  0  0  0  0  0
  -29.9458  -26.6754   25.5953 C   0  0  0  0  0  0  0  0  0  0  0  0
  -31.6824  -12.3861   26.1953 C   0  0  0  0  0  0  0  0  0  0  0  0
  -23.2890   -9.7969   19.9499 C   0  0  0  0  0  0  0  0  0  0  0  0
  -23.7478   -9.9781   22.3150 C   0  0  0  0  0  0  0  0  0  0  0  0
  -30.0279  -28.9198   24.7167 C   0  0  0  0  0  0  0  0  0  0  0  0
  -29.7786  -26.1788   24.3031 C   0  0  0  0  0  0  0  0  0  0  0  0
  -32.6978  -22.1451   23.3794 C   0  0  0  0  0  0  0  0  0  0  0  0
  -30.9064  -12.6809   25.0743 C   0  0  0  0  0  0  0  0  0  0  0  0
  -22.5633   -8.6282   20.1802 C   0  0  0  0  0  0  0  0  0  0  0  0
  -23.0220   -8.8095   22.5454 C   0  0  0  0  0  0  0  0  0  0  0  0
  -32.2750  -20.9213   23.8967 C   0  0  0  0  0  0  0  0  0  0  0  0
  -23.2183   -5.3633   20.7596 C   0  0  0  0  0  0  0  0  0  0  0  0
  -23.4437   -4.2826   19.9070 C   0  0  0  0  0  0  0  0  0  0  0  0
  -33.0313  -12.0646   26.0448 C   0  0  0  0  0  0  0  0  0  0  0  0
  -31.3953  -20.3175   21.7332 C   0  0  0  0  0  0  0  0  0  0  0  0
  -32.8283  -12.3326   23.6523 C   0  0  0  0  0  0  0  0  0  0  0  0
  -21.1194   -4.3173   19.2485 C   0  0  0  0  0  0  0  0  0  0  0  0
  -23.8814  -10.4718   21.0173 C   0  0  0  0  0  0  0  0  0  0  0  0
  -24.1403  -12.9980   20.7743 C   0  0  0  0  0  0  0  0  0  0  0  0
  -29.8698  -28.4328   23.4095 C   0  0  0  0  0  0  0  0  0  0  0  0
  -32.4623  -22.4692   22.0356 C   0  0  0  0  0  0  0  0  0  0  0  0
  -29.7332  -27.0474   23.1993 C   0  0  0  0  0  0  0  0  0  0  0  0
  -31.8183  -21.5450   21.2007 C   0  0  0  0  0  0  0  0  0  0  0  0
  -31.4794  -12.6541   23.8029 C   0  0  0  0  0  0  0  0  0  0  0  0
  -22.4297   -8.1345   21.4779 C   0  0  0  0  0  0  0  0  0  0  0  0
  -31.6211  -20.0086   23.0743 C   0  0  0  0  0  0  0  0  0  0  0  0
  -21.9434   -5.9209   20.8567 C   0  0  0  0  0  0  0  0  0  0  0  0
  -22.3943   -3.7597   19.1514 C   0  0  0  0  0  0  0  0  0  0  0  0
  -20.8940   -5.3980   20.1012 C   0  0  0  0  0  0  0  0  0  0  0  0
  -33.6043  -12.0378   24.7733 C   0  0  0  0  0  0  0  0  0  0  0  0
  -24.6317  -11.6788   20.7799 C   0  0  0  0  0  0  0  0  0  0  0  0
  -25.2410  -13.7732   20.5023 C   0  0  0  0  0  0  0  0  0  0  0  0
  -22.8081  -13.4796   20.9954 C   0  0  0  0  0  0  0  0  0  0  0  0
  -30.8195  -24.7356   20.5294 C   0  0  0  0  0  0  0  0  0  0  0  0
  -32.1867  -23.4302   17.8933 C   0  0  0  0  0  0  0  0  0  0  0  0
  -33.7987  -15.8966   23.5313 C   0  0  0  0  0  0  0  0  0  0  0  0
  -33.6185  -20.7049   16.4203 C   0  0  0  0  0  0  0  0  0  0  0  0
  -31.1041  -12.9725   21.3322 C   0  0  0  0  0  0  0  0  0  0  0  0
  -29.7829  -29.4201   22.2727 C   0  0  0  0  0  0  0  0  0  0  0  0
  -32.9483  -23.7824   21.4862 C   0  0  0  0  0  0  0  0  0  0  0  0
  -31.5594  -21.8365   19.7459 C   0  0  0  0  0  0  0  0  0  0  0  0
  -29.9787  -28.7851   20.8983 C   0  0  0  0  0  0  0  0  0  0  0  0
  -29.4603  -13.6240   18.2418 C   0  0  0  0  0  0  0  0  0  0  0  0
  -29.1450  -27.5138   20.7740 C   0  0  0  0  0  0  0  0  0  0  0  0
  -27.9899  -13.3250   18.5431 C   0  0  0  0  0  0  0  0  0  0  0  0
  -30.3958  -12.6611   18.9708 C   0  0  0  0  0  0  0  0  0  0  0  0
  -28.7084  -12.2633   20.7211 C   0  0  0  0  0  0  0  0  0  0  0  0
  -29.5753  -26.4684   21.8101 C   0  0  1  0  0  0  0  0  0  0  0  0
  -32.1987  -24.2193   20.2314 C   0  0  1  0  0  0  0  0  0  0  0  0
  -27.7300  -13.2481   20.0604 C   0  0  2  0  0  0  0  0  0  0  0  0
  -34.6016  -19.9301   14.2454 C   0  0  0  0  0  0  0  0  0  0  0  0
  -29.3818  -23.1698   16.7209 C   0  0  0  0  0  0  0  0  0  0  0  0
  -30.3112  -21.5713   15.0329 C   0  0  0  0  0  0  0  0  0  0  0  0
  -31.1252  -23.9284   15.0963 C   0  0  0  0  0  0  0  0  0  0  0  0
  -36.2552  -20.1906   17.6621 C   0  0  0  0  0  0  0  0  0  0  0  0
  -35.0000  -16.0195   24.4542 C   0  0  0  0  0  0  0  0  0  0  0  0
  -36.2990  -15.4836   23.8495 C   0  0  0  0  0  0  0  0  0  0  0  0
  -36.2591  -13.9913   23.5269 C   0  0  0  0  0  0  0  0  0  0  0  0
  -31.3699  -16.4185   23.4468 C   0  0  0  0  0  0  0  0  0  0  0  0
  -31.1642  -17.7092   22.6743 C   0  0  0  0  0  0  0  0  0  1  0  0
  -31.8141  -22.3295   16.9296 C   0  0  1  0  0  0  0  0  0  0  0  0
  -34.8885  -20.5525   15.6030 C   0  0  2  0  0  0  0  0  0  0  0  0
  -30.6611  -22.7448   15.9728 C   0  0  0  0  0  0  0  0  0  0  0  0
  -25.9425  -11.6157   20.5310 N   0  0  0  0  0  0  0  0  0  0  0  0
  -26.2841  -12.9050   20.3664 N   0  0  0  0  0  0  0  0  0  0  0  0
  -32.0481  -23.1365   19.2572 N   0  0  0  0  0  0  0  0  0  0  0  0
  -30.0938  -12.6439   20.4037 N   0  0  0  0  0  0  0  0  0  0  0  0
  -25.4087  -15.1060   20.3683 N   0  0  0  0  0  0  0  0  0  0  0  0
  -21.7963  -12.5472   21.2623 N   0  0  0  0  0  0  0  0  0  0  0  0
  -30.6913  -12.9539   22.6641 N   0  0  0  0  0  0  0  0  0  0  0  0
  -30.7970  -25.8152   21.3917 N   0  0  0  0  0  0  0  0  0  0  0  0
  -32.6416  -16.3947   24.1197 N   0  0  0  0  0  0  0  0  0  0  0  0
  -33.0470  -21.9480   16.2492 N   0  0  0  0  0  0  0  0  0  0  0  0
  -36.0457  -13.1834   24.6957 N   0  0  0  0  0  0  0  0  0  0  0  0
  -35.8654  -19.6855   16.3205 N   0  3  0  0  0  0  0  0  0  0  0  0
  -22.5202  -14.6993   20.9411 O   0  0  0  0  0  0  0  0  0  0  0  0
  -29.8478  -24.1955   20.0140 O   0  0  0  0  0  0  0  0  0  0  0  0
  -32.5927  -24.5083   17.4523 O   0  0  0  0  0  0  0  0  0  0  0  0
  -33.8651  -15.4312   22.3969 O   0  0  0  0  0  0  0  0  0  0  0  0
  -33.1754  -19.8092   17.1359 O   0  0  0  0  0  0  0  0  0  0  0  0
  -32.2437  -13.2765   20.9707 O   0  0  0  0  0  0  0  0  0  0  0  0
  -35.7164  -10.8431   25.7335 O   0  0  0  0  0  0  0  0  0  0  0  0
  -35.4748  -11.0979   23.2433 O   0  0  0  0  0  0  0  0  0  0  0  0
  -21.7214   -6.9943   21.7031 O   0  0  0  0  0  0  0  0  0  0  0  0
  -31.2069  -18.8137   23.5768 O   0  0  0  0  0  0  0  0  0  1  0  0
  -22.6112   -2.7229   18.3315 F   0  0  0  0  0  0  0  0  0  0  0  0
  -19.6673   -5.9303   20.1894 F   0  0  0  0  0  0  0  0  0  0  0  0
  -35.3136  -11.6294   24.5831 S   0  0  0  0  0  0  0  0  0  0  0  0
  1  2  1  0  0  0  0
  1  6  2  0  0  0  0
  2  7  2  0  0  0  0
  3  9  1  0  0  0  0
  3 15  2  0  0  0  0
  4 10  2  0  0  0  0
  4 19  1  0  0  0  0
  5 11  1  0  0  0  0
  5 19  2  0  0  0  0
  6 21  1  0  0  0  0
  7 23  1  0  0  0  0
  8 12  2  0  0  0  0
  8 22  1  0  0  0  0
  9 25  2  0  0  0  0
 10 26  1  0  0  0  0
 11 26  2  0  0  0  0
 12 27  1  0  0  0  0
 13 14  2  0  0  0  0
 13 28  1  0  0  0  0
 14 29  1  0  0  0  0
 15 31  1  0  0  0  0
 16 24  1  0  0  0  0
 16 27  2  0  0  0  0
 17 25  1  0  0  0  0
 17 31  2  0  0  0  0
 18 29  2  0  0  0  0
 18 30  1  0  0  0  0
 19 32  1  0  0  0  0
 20 32  1  0  0  0  0
 20 33  2  0  0  0  0
 20 34  1  0  0  0  0
 21 23  2  0  0  0  0
 21 40  1  0  0  0  0
 22 24  2  0  0  0  0
 22 41  1  0  0  0  0
 23 49  1  0  0  0  0
 24 42  1  0  0  0  0
 25 71  1  0  0  0  0
 26 85  1  0  0  0  0
 27 86  1  0  0  0  0
 28 30  2  0  0  0  0
 28 85  1  0  0  0  0
 29 87  1  0  0  0  0
 30 88  1  0  0  0  0
 31 89  1  0  0  0  0
 32 65  2  0  0  0  0
 33 66  1  0  0  0  0
 33 69  1  0  0  0  0
 34 70  1  0  0  0  0
 34 77  2  0  0  0  0
 35 50  1  0  0  0  0
 35 72  1  0  0  0  0
 35 78  2  0  0  0  0
 36 62  1  0  0  0  0
 36 67  1  0  0  0  0
 36 79  2  0  0  0  0
 37 57  1  0  0  0  0
 37 73  1  0  0  0  0
 37 80  2  0  0  0  0
 38 63  1  0  0  0  0
 38 74  1  0  0  0  0
 38 81  2  0  0  0  0
 39 68  1  0  0  0  0
 39 71  1  0  0  0  0
 39 82  2  0  0  0  0
 40 43  1  0  0  0  0
 41 50  1  0  0  0  0
 42 67  1  0  0  0  0
 43 45  1  0  0  0  0
 44 46  1  0  0  0  0
 44 47  1  0  0  0  0
 45 49  1  0  0  0  0
 46 51  1  0  0  0  0
 47 68  1  0  0  0  0
 48 51  1  0  0  0  0
 48 68  1  0  0  0  0
 49 72  1  0  0  0  0
 50 67  1  0  0  0  0
 51 66  1  0  0  0  0
 52 63  1  0  0  0  0
 53 64  1  0  0  0  0
 54 64  1  0  0  0  0
 55 64  1  0  0  0  0
 56 76  1  0  0  0  0
 57 58  1  0  0  0  0
 58 59  1  0  0  0  0
 59 75  1  0  0  0  0
 60 61  1  0  0  0  0
 60 73  1  0  0  0  0
 61 86  1  0  0  0  0
 62 64  1  0  0  0  0
 62 74  1  0  0  0  0
 63 76  1  0  0  0  0
 65 66  1  0  0  0  0
 75 89  1  0  0  0  0
 83 89  2  0  0  0  0
 84 89  2  0  0  0  0
M  CHG  1  76   1
M  ISO  4  39 100  61 101  71 100  86 101
M  END
> <Batch ID>
0003

> <Smiles>
CNC(C)C(=O)NC(C(=O)N1Cc2cc([101O:1][101CH2:1]CNC(=O)CCCNS(=O)(=O)c3cccc([100NH:0][100C:0](=O)N4CCCC(n5nc(-c6ccc(Oc7ccc(F)cc7F)cc6)c(C(N)=O)c5N)C4)c3)ccc2CC1C(=O)NC1CCCc2ccccc21)C(C)(C)C

> <Shape>
0.171

> <Color>
0.166

> <Negative vol penalty>
0.000

$$$$

  -OEChem-04052315213D

 89 97  0     1  0  0  0  0  0999 V2000
  -21.0539  -33.2630   25.4864 C   0  0  0  0  0  0  0  0  0  0  0  0
  -22.2696  -32.7942   24.9988 C   0  0  0  0  0  0  0  0  0  0  0  0
  -32.1093  -21.8351   20.5493 C   0  0  0  0  0  0  0  0  0  0  0  0
  -32.1862  -22.7870   21.5659 C   0  0  0  0  0  0  0  0  0  0  0  0
  -26.6630  -13.1756   21.2261 C   0  0  0  0  0  0  0  0  0  0  0  0
  -24.8398  -13.2264   19.6418 C   0  0  0  0  0  0  0  0  0  0  0  0
  -19.9436  -32.4202   25.5141 C   0  0  0  0  0  0  0  0  0  0  0  0
  -22.3760  -31.4819   24.5395 C   0  0  0  0  0  0  0  0  0  0  0  0
  -25.8467  -29.4710   19.9118 C   0  0  0  0  0  0  0  0  0  0  0  0
  -31.6550  -22.2024   19.2827 C   0  0  0  0  0  0  0  0  0  0  0  0
  -31.8086  -24.1063   21.3159 C   0  0  0  0  0  0  0  0  0  0  0  0
  -25.9508  -12.2739   22.0168 C   0  0  0  0  0  0  0  0  0  0  0  0
  -24.1276  -12.3247   20.4325 C   0  0  0  0  0  0  0  0  0  0  0  0
  -27.0968  -28.8549   19.8758 C   0  0  0  0  0  0  0  0  0  0  0  0
  -24.1166   -8.9964   21.0179 C   0  0  0  0  0  0  0  0  0  0  0  0
  -23.4879   -7.9297   20.3757 C   0  0  0  0  0  0  0  0  0  0  0  0
  -26.0237  -26.6971   19.7689 C   0  0  0  0  0  0  0  0  0  0  0  0
  -21.3503   -8.6893   21.2070 C   0  0  0  0  0  0  0  0  0  0  0  0
  -26.1075  -13.6520   20.0386 C   0  0  0  0  0  0  0  0  0  0  0  0
  -27.7388  -14.2782   18.1801 C   0  0  0  0  0  0  0  0  0  0  0  0
  -20.0339  -31.0998   25.0459 C   0  0  0  0  0  0  0  0  0  0  0  0
  -24.6737  -28.7029   19.8875 C   0  0  0  0  0  0  0  0  0  0  0  0
  -21.2662  -30.6202   24.5622 C   0  0  0  0  0  0  0  0  0  0  0  0
  -24.7599  -27.3060   19.8021 C   0  0  0  0  0  0  0  0  0  0  0  0
  -31.2774  -23.5217   19.0327 C   0  0  0  0  0  0  0  0  0  0  0  0
  -24.6831  -11.8484   21.6200 C   0  0  0  0  0  0  0  0  0  0  0  0
  -27.1855  -27.4676   19.8072 C   0  0  0  0  0  0  0  0  0  0  0  0
  -31.3542  -24.4737   20.0493 C   0  0  0  0  0  0  0  0  0  0  0  0
  -23.3623   -9.9095   21.7548 C   0  0  0  0  0  0  0  0  0  0  0  0
  -22.1047   -7.7762   20.4702 C   0  0  0  0  0  0  0  0  0  0  0  0
  -21.9791   -9.7559   21.8493 C   0  0  0  0  0  0  0  0  0  0  0  0
  -26.8425  -14.5839   19.2217 C   0  0  0  0  0  0  0  0  0  0  0  0
  -28.1669  -15.5016   17.7254 C   0  0  0  0  0  0  0  0  0  0  0  0
  -28.1479  -13.0026   17.6691 C   0  0  0  0  0  0  0  0  0  0  0  0
  -22.2328  -28.2725   21.8776 C   0  0  0  0  0  0  0  0  0  0  0  0
  -21.0330  -26.5404   19.4113 C   0  0  0  0  0  0  0  0  0  0  0  0
  -30.6828  -23.0519   16.6310 C   0  0  0  0  0  0  0  0  0  0  0  0
  -21.6414  -25.3328   16.5685 C   0  0  0  0  0  0  0  0  0  0  0  0
  -25.8011  -20.7938   17.6704 C   0  0  0  0  0  0  0  0  0  0  0  0
  -18.8186  -30.2116   25.1397 C   0  0  0  0  0  0  0  0  0  0  0  0
  -23.3327  -29.3840   19.9000 C   0  0  0  0  0  0  0  0  0  0  0  0
  -23.5306  -26.4371   19.7531 C   0  0  0  0  0  0  0  0  0  0  0  0
  -18.9192  -28.9497   24.2867 C   0  0  0  0  0  0  0  0  0  0  0  0
  -28.8989  -19.9958   19.1666 C   0  0  0  0  0  0  0  0  0  0  0  0
  -20.2779  -28.2831   24.4777 C   0  0  0  0  0  0  0  0  0  0  0  0
  -28.8074  -18.4733   19.2585 C   0  0  0  0  0  0  0  0  0  0  0  0
  -27.5656  -20.6722   19.4907 C   0  0  0  0  0  0  0  0  0  0  0  0
  -26.3370  -18.6455   18.7796 C   0  0  0  0  0  0  0  0  0  0  0  0
  -21.4149  -29.2106   24.0321 C   0  0  1  0  0  0  0  0  0  0  0  0
  -22.2069  -28.4781   20.3894 C   0  0  1  0  0  0  0  0  0  0  0  0
  -27.6476  -17.9391   18.4001 C   0  0  2  0  0  0  0  0  0  0  0  0
  -21.1723  -23.8444   14.6032 C   0  0  0  0  0  0  0  0  0  0  0  0
  -20.6700  -24.2319   21.3731 C   0  0  0  0  0  0  0  0  0  0  0  0
  -20.4095  -22.6978   19.4118 C   0  0  0  0  0  0  0  0  0  0  0  0
  -18.7752  -24.5477   19.7717 C   0  0  0  0  0  0  0  0  0  0  0  0
  -25.6150  -22.8719   19.1028 C   0  0  0  0  0  0  0  0  0  0  0  0
  -21.5131  -27.6324   14.7100 C   0  0  0  0  0  0  0  0  0  0  0  0
  -30.1533  -23.8397   15.4407 C   0  0  0  0  0  0  0  0  0  0  0  0
  -28.7860  -24.4642   15.7108 C   0  0  0  0  0  0  0  0  0  0  0  0
  -27.7315  -23.3940   15.9982 C   0  0  0  0  0  0  0  0  0  0  0  0
  -26.3706  -24.0248   16.3073 C   0  0  0  0  0  0  0  0  0  0  0  0
  -25.3093  -22.9870   16.6575 C   0  0  0  0  0  0  0  0  0  0  0  0
  -29.4780  -27.5289   20.4371 C   0  0  0  0  0  0  0  0  0  1  0  0
  -30.4682  -26.4946   20.9363 C   0  0  0  0  0  0  0  0  0  0  0  0
  -21.1132  -25.0957   18.9808 C   0  0  1  0  0  0  0  0  0  0  0  0
  -21.0039  -25.2355   15.1942 C   0  0  2  0  0  0  0  0  0  0  0  0
  -20.2653  -24.1593   19.8872 C   0  0  0  0  0  0  0  0  0  0  0  0
  -26.7083  -15.8983   19.4174 N   0  0  0  0  0  0  0  0  0  0  0  0
  -27.5262  -16.4294   18.4926 N   0  0  0  0  0  0  0  0  0  0  0  0
  -22.2424  -27.1498   19.7742 N   0  0  0  0  0  0  0  0  0  0  0  0
  -26.4787  -20.1004   18.6841 N   0  0  0  0  0  0  0  0  0  0  0  0
  -29.0252  -15.8633   16.7482 N   0  0  0  0  0  0  0  0  0  0  0  0
  -27.6108  -11.8463   18.2512 N   0  0  0  0  0  0  0  0  0  0  0  0
  -30.8238  -23.8741   17.7594 N   0  0  0  0  0  0  0  0  0  0  0  0
  -21.5227  -29.2208   22.5890 N   0  0  0  0  0  0  0  0  0  0  0  0
  -20.7340  -25.0678   17.5723 N   0  0  0  0  0  0  0  0  0  0  0  0
  -25.6780  -22.1838   17.8148 N   0  0  0  0  0  0  0  0  0  0  0  0
  -21.6258  -26.2198   14.2639 N   0  3  0  0  0  0  0  0  0  0  0  0
  -28.9779  -12.8910   16.7352 O   0  0  0  0  0  0  0  0  0  0  0  0
  -22.8499  -27.3230   22.3457 O   0  0  0  0  0  0  0  0  0  0  0  0
  -19.9385  -27.1095   19.4183 O   0  0  0  0  0  0  0  0  0  0  0  0
  -30.9366  -21.8540   16.5579 O   0  0  0  0  0  0  0  0  0  0  0  0
  -22.8267  -25.6119   16.7347 O   0  0  0  0  0  0  0  0  0  0  0  0
  -25.3243  -20.2031   16.6927 O   0  0  0  0  0  0  0  0  0  0  0  0
  -23.9880  -10.9683   22.3912 O   0  0  0  0  0  0  0  0  0  0  0  0
  -28.4045  -26.8637   19.7727 O   0  0  0  0  0  0  0  0  0  1  0  0
  -30.9880  -25.7747   19.8250 O   0  0  0  0  0  0  0  0  0  0  0  0
  -21.5008   -6.7528   19.8521 F   0  0  0  0  0  0  0  0  0  0  0  0
  -21.2490  -10.6306   22.5548 F   0  0  0  0  0  0  0  0  0  0  0  0
  1  2  1  0  0  0  0
  1  7  2  0  0  0  0
  2  8  2  0  0  0  0
  3  4  1  0  0  0  0
  3 10  2  0  0  0  0
  4 11  2  0  0  0  0
  5 12  2  0  0  0  0
  5 19  1  0  0  0  0
  6 13  1  0  0  0  0
  6 19  2  0  0  0  0
  7 21  1  0  0  0  0
  8 23  1  0  0  0  0
  9 14  2  0  0  0  0
  9 22  1  0  0  0  0
 10 25  1  0  0  0  0
 11 28  1  0  0  0  0
 12 26  1  0  0  0  0
 13 26  2  0  0  0  0
 14 27  1  0  0  0  0
 15 16  2  0  0  0  0
 15 29  1  0  0  0  0
 16 30  1  0  0  0  0
 17 24  1  0  0  0  0
 17 27  2  0  0  0  0
 18 30  2  0  0  0  0
 18 31  1  0  0  0  0
 19 32  1  0  0  0  0
 20 32  1  0  0  0  0
 20 33  2  0  0  0  0
 20 34  1  0  0  0  0
 21 23  2  0  0  0  0
 21 40  1  0  0  0  0
 22 24  2  0  0  0  0
 22 41  1  0  0  0  0
 23 49  1  0  0  0  0
 24 42  1  0  0  0  0
 25 28  2  0  0  0  0
 25 74  1  0  0  0  0
 26 85  1  0  0  0  0
 27 86  1  0  0  0  0
 28 87  1  0  0  0  0
 29 31  2  0  0  0  0
 29 85  1  0  0  0  0
 30 88  1  0  0  0  0
 31 89  1  0  0  0  0
 32 68  2  0  0  0  0
 33 69  1  0  0  0  0
 33 72  1  0  0  0  0
 34 73  1  0  0  0  0
 34 79  2  0  0  0  0
 35 50  1  0  0  0  0
 35 75  1  0  0  0  0
 35 80  2  0  0  0  0
 36 65  1  0  0  0  0
 36 70  1  0  0  0  0
 36 81  2  0  0  0  0
 37 58  1  0  0  0  0
 37 74  1  0  0  0  0
 37 82  2  0  0  0  0
 38 66  1  0  0  0  0
 38 76  1  0  0  0  0
 38 83  2  0  0  0  0
 39 71  1  0  0  0  0
 39 77  1  0  0  0  0
 39 84  2  0  0  0  0
 40 43  1  0  0  0  0
 41 50  1  0  0  0  0
 42 70  1  0  0  0  0
 43 45  1  0  0  0  0
 44 46  1  0  0  0  0
 44 47  1  0  0  0  0
 45 49  1  0  0  0  0
 46 51  1  0  0  0  0
 47 71  1  0  0  0  0
 48 51  1  0  0  0  0
 48 71  1  0  0  0  0
 49 75  1  0  0  0  0
 50 70  1  0  0  0  0
 51 69  1  0  0  0  0
 52 66  1  0  0  0  0
 53 67  1  0  0  0  0
 54 67  1  0  0  0  0
 55 67  1  0  0  0  0
 56 77  1  0  0  0  0
 57 78  1  0  0  0  0
 58 59  1  0  0  0  0
 59 60  1  0  0  0  0
 60 61  1  0  0  0  0
 61 62  1  0  0  0  0
 62 77  1  0  0  0  0
 63 64  1  0  0  0  0
 63 86  1  0  0  0  0
 64 87  1  0  0  0  0
 65 67  1  0  0  0  0
 65 76  1  0  0  0  0
 66 78  1  0  0  0  0
 68 69  1  0  0  0  0
M  CHG  1  78   1
M  ISO  4  39 100  63 101  77 100  86 101
M  END
> <Batch ID>
0003

> <Smiles>
CNC(C)C(=O)NC(C(=O)N1Cc2cc([101O:1][101CH2:1]COc3ccccc3NC(=O)CCCCC[100N:0](C)[100C:0](=O)N3CCCC(n4nc(-c5ccc(Oc6ccc(F)cc6F)cc5)c(C(N)=O)c4N)C3)ccc2CC1C(=O)NC1CCCc2ccccc21)C(C)(C)C

> <Shape>
0.228

> <Color>
0.099

> <Negative vol penalty>
0.000

$$$$

  -OEChem-04052315213D

 87 95  0     1  0  0  0  0  0999 V2000
  -32.6304  -12.4015   23.1070 C   0  0  0  0  0  0  0  0  0  0  0  0
  -32.3652  -13.5926   22.4388 C   0  0  0  0  0  0  0  0  0  0  0  0
  -19.8896  -25.1553   19.8106 C   0  0  0  0  0  0  0  0  0  0  0  0
  -19.9348  -23.8183   21.8224 C   0  0  0  0  0  0  0  0  0  0  0  0
  -31.9030  -11.2530   22.7975 C   0  0  0  0  0  0  0  0  0  0  0  0
  -31.3731  -13.6356   21.4599 C   0  0  0  0  0  0  0  0  0  0  0  0
  -28.3962  -17.7098   21.8887 C   0  0  0  0  0  0  0  0  0  0  0  0
  -26.3710  -28.7280   21.0358 C   0  0  0  0  0  0  0  0  0  0  0  0
  -25.6063  -29.7250   21.6414 C   0  0  0  0  0  0  0  0  0  0  0  0
  -20.0416  -24.0021   19.0408 C   0  0  0  0  0  0  0  0  0  0  0  0
  -20.0868  -22.6651   21.0526 C   0  0  0  0  0  0  0  0  0  0  0  0
  -28.9025  -18.9207   21.4185 C   0  0  0  0  0  0  0  0  0  0  0  0
  -22.5488  -21.9226   18.1387 C   0  0  0  0  0  0  0  0  0  0  0  0
  -23.4720  -21.9588   17.0938 C   0  0  0  0  0  0  0  0  0  0  0  0
  -27.6258  -18.6593   19.3885 C   0  0  0  0  0  0  0  0  0  0  0  0
  -25.0013  -28.8826   19.0516 C   0  0  0  0  0  0  0  0  0  0  0  0
  -21.7051  -21.4829   15.5162 C   0  0  0  0  0  0  0  0  0  0  0  0
  -19.8363  -25.0634   21.2014 C   0  0  0  0  0  0  0  0  0  0  0  0
  -18.4723  -26.8441   22.4165 C   0  0  0  0  0  0  0  0  0  0  0  0
  -30.8949  -11.2843   21.8211 C   0  0  0  0  0  0  0  0  0  0  0  0
  -27.5078  -16.9580   21.1064 C   0  0  0  0  0  0  0  0  0  0  0  0
  -30.6324  -12.4861   21.1361 C   0  0  0  0  0  0  0  0  0  0  0  0
  -27.1076  -17.4405   19.8521 C   0  0  0  0  0  0  0  0  0  0  0  0
  -26.0686  -28.3068   19.7408 C   0  0  0  0  0  0  0  0  0  0  0  0
  -24.5391  -30.3008   20.9521 C   0  0  0  0  0  0  0  0  0  0  0  0
  -20.1402  -22.7570   19.6617 C   0  0  0  0  0  0  0  0  0  0  0  0
  -28.5196  -19.3942   20.1670 C   0  0  0  0  0  0  0  0  0  0  0  0
  -21.2037  -21.6664   17.8724 C   0  0  0  0  0  0  0  0  0  0  0  0
  -23.0502  -21.7390   15.7825 C   0  0  0  0  0  0  0  0  0  0  0  0
  -24.2366  -29.8796   19.6572 C   0  0  0  0  0  0  0  0  0  0  0  0
  -20.7819  -21.4466   16.5612 C   0  0  0  0  0  0  0  0  0  0  0  0
  -19.6799  -26.2544   21.9972 C   0  0  0  0  0  0  0  0  0  0  0  0
  -18.8609  -27.9448   23.1403 C   0  0  0  0  0  0  0  0  0  0  0  0
  -17.1202  -26.4336   22.1735 C   0  0  0  0  0  0  0  0  0  0  0  0
  -27.5709  -14.0626   19.7963 C   0  0  0  0  0  0  0  0  0  0  0  0
  -24.4979  -14.7671   19.0331 C   0  0  0  0  0  0  0  0  0  0  0  0
  -22.1314  -17.1569   18.4539 C   0  0  0  0  0  0  0  0  0  0  0  0
  -23.5712  -31.3660   22.9819 C   0  0  0  0  0  0  0  0  0  0  0  0
  -27.9384  -26.6104   19.6610 C   0  0  0  0  0  0  0  0  0  0  0  0
  -30.1674  -10.0060   21.4875 C   0  0  0  0  0  0  0  0  0  0  0  0
  -26.9498  -15.6668   21.6393 C   0  0  0  0  0  0  0  0  0  0  0  0
  -26.1407  -16.6813   18.9820 C   0  0  0  0  0  0  0  0  0  0  0  0
  -28.8774  -10.2265   20.7017 C   0  0  0  0  0  0  0  0  0  0  0  0
  -22.4407  -29.5852   25.8443 C   0  0  0  0  0  0  0  0  0  0  0  0
  -29.1107  -11.2071   19.5568 C   0  0  0  0  0  0  0  0  0  0  0  0
  -21.4869  -28.5713   25.2137 C   0  0  0  0  0  0  0  0  0  0  0  0
  -23.6898  -29.8042   24.9902 C   0  0  0  0  0  0  0  0  0  0  0  0
  -22.4460  -29.1524   22.9524 C   0  0  0  0  0  0  0  0  0  0  0  0
  -29.5472  -12.5788   20.0855 C   0  0  1  0  0  0  0  0  0  0  0  0
  -26.4511  -14.7329   20.5408 C   0  0  1  0  0  0  0  0  0  0  0  0
  -21.1543  -28.9552   23.7611 C   0  0  1  0  0  0  0  0  0  0  0  0
  -19.7202  -17.4270   17.8133 C   0  0  0  0  0  0  0  0  0  0  0  0
  -25.1938  -14.0939   16.1396 C   0  0  0  0  0  0  0  0  0  0  0  0
  -23.0971  -15.2672   15.4356 C   0  0  0  0  0  0  0  0  0  0  0  0
  -22.9649  -13.2518   16.8995 C   0  0  0  0  0  0  0  0  0  0  0  0
  -23.3327  -32.4852   20.7760 C   0  0  0  0  0  0  0  0  0  0  0  0
  -21.4918  -18.5393   20.9914 C   0  0  0  0  0  0  0  0  0  0  0  0
  -29.1518  -23.4977   19.6314 C   0  0  0  0  0  0  0  0  0  0  0  0
  -30.3469  -22.5801   19.8909 C   0  0  0  0  0  0  0  0  0  0  0  0
  -29.5606  -24.8260   19.0025 C   0  0  0  0  0  0  0  0  0  0  0  0
  -29.9185  -21.2778   20.5556 C   0  0  0  0  0  0  0  0  0  1  0  0
  -23.8120  -15.4303   17.8632 C   0  0  1  0  0  0  0  0  0  0  0  0
  -20.7094  -17.3104   18.9625 C   0  0  2  0  0  0  0  0  0  0  0  0
  -23.7867  -14.5244   16.5998 C   0  0  0  0  0  0  0  0  0  0  0  0
  -20.7551  -26.9250   22.4194 N   0  0  0  0  0  0  0  0  0  0  0  0
  -20.2244  -27.9476   23.1114 N   0  0  0  0  0  0  0  0  0  0  0  0
  -25.6277  -15.4211   19.5445 N   0  0  0  0  0  0  0  0  0  0  0  0
  -23.3232  -30.1280   23.6042 N   0  0  0  0  0  0  0  0  0  0  0  0
  -18.1658  -28.9010   23.7922 N   0  0  0  0  0  0  0  0  0  0  0  0
  -16.8994  -25.2790   21.4103 N   0  0  0  0  0  0  0  0  0  0  0  0
  -26.8435  -27.2954   19.1267 N   0  0  0  0  0  0  0  0  0  0  0  0
  -28.4075  -13.3091   20.5975 N   0  0  0  0  0  0  0  0  0  0  0  0
  -22.4919  -15.8311   18.3376 N   0  0  0  0  0  0  0  0  0  0  0  0
  -28.4356  -25.6799   18.7364 N   0  0  0  0  0  0  0  0  0  0  0  0
  -23.7489  -31.3324   21.5820 N   0  0  0  0  0  0  0  0  0  0  0  0
  -20.5913  -18.5306   19.8099 N   0  3  0  0  0  0  0  0  0  0  0  0
  -16.1367  -27.0809   22.6062 O   0  0  0  0  0  0  0  0  0  0  0  0
  -27.6679  -14.2163   18.5844 O   0  0  0  0  0  0  0  0  0  0  0  0
  -24.0436  -13.7115   19.4814 O   0  0  0  0  0  0  0  0  0  0  0  0
  -22.8493  -18.1170   18.1831 O   0  0  0  0  0  0  0  0  0  0  0  0
  -23.6053  -32.4231   23.6232 O   0  0  0  0  0  0  0  0  0  0  0  0
  -28.4283  -26.7689   20.7766 O   0  0  0  0  0  0  0  0  0  0  0  0
  -20.2882  -21.6315   18.9108 O   0  0  0  0  0  0  0  0  0  0  0  0
  -29.0129  -20.5755   19.7053 O   0  0  0  0  0  0  0  0  0  1  0  0
  -23.9366  -21.7754   14.7789 F   0  0  0  0  0  0  0  0  0  0  0  0
  -23.2121  -30.4249   18.9857 F   0  0  0  0  0  0  0  0  0  0  0  0
  -19.4908  -21.2013   16.2990 F   0  0  0  0  0  0  0  0  0  0  0  0
  1  2  1  0  0  0  0
  1  5  2  0  0  0  0
  2  6  2  0  0  0  0
  3 10  2  0  0  0  0
  3 18  1  0  0  0  0
  4 11  1  0  0  0  0
  4 18  2  0  0  0  0
  5 20  1  0  0  0  0
  6 22  1  0  0  0  0
  7 12  2  0  0  0  0
  7 21  1  0  0  0  0
  8  9  2  0  0  0  0
  8 24  1  0  0  0  0
  9 25  1  0  0  0  0
 10 26  1  0  0  0  0
 11 26  2  0  0  0  0
 12 27  1  0  0  0  0
 13 14  2  0  0  0  0
 13 28  1  0  0  0  0
 14 29  1  0  0  0  0
 15 23  1  0  0  0  0
 15 27  2  0  0  0  0
 16 24  2  0  0  0  0
 16 30  1  0  0  0  0
 17 29  2  0  0  0  0
 17 31  1  0  0  0  0
 18 32  1  0  0  0  0
 19 32  1  0  0  0  0
 19 33  2  0  0  0  0
 19 34  1  0  0  0  0
 20 22  2  0  0  0  0
 20 40  1  0  0  0  0
 21 23  2  0  0  0  0
 21 41  1  0  0  0  0
 22 49  1  0  0  0  0
 23 42  1  0  0  0  0
 24 71  1  0  0  0  0
 25 30  2  0  0  0  0
 25 75  1  0  0  0  0
 26 83  1  0  0  0  0
 27 84  1  0  0  0  0
 28 31  2  0  0  0  0
 28 83  1  0  0  0  0
 29 85  1  0  0  0  0
 30 86  1  0  0  0  0
 31 87  1  0  0  0  0
 32 65  2  0  0  0  0
 33 66  1  0  0  0  0
 33 69  1  0  0  0  0
 34 70  1  0  0  0  0
 34 77  2  0  0  0  0
 35 50  1  0  0  0  0
 35 72  1  0  0  0  0
 35 78  2  0  0  0  0
 36 62  1  0  0  0  0
 36 67  1  0  0  0  0
 36 79  2  0  0  0  0
 37 63  1  0  0  0  0
 37 73  1  0  0  0  0
 37 80  2  0  0  0  0
 38 68  1  0  0  0  0
 38 75  1  0  0  0  0
 38 81  2  0  0  0  0
 39 71  1  0  0  0  0
 39 74  1  0  0  0  0
 39 82  2  0  0  0  0
 40 43  1  0  0  0  0
 41 50  1  0  0  0  0
 42 67  1  0  0  0  0
 43 45  1  0  0  0  0
 44 46  1  0  0  0  0
 44 47  1  0  0  0  0
 45 49  1  0  0  0  0
 46 51  1  0  0  0  0
 47 68  1  0  0  0  0
 48 51  1  0  0  0  0
 48 68  1  0  0  0  0
 49 72  1  0  0  0  0
 50 67  1  0  0  0  0
 51 66  1  0  0  0  0
 52 63  1  0  0  0  0
 53 64  1  0  0  0  0
 54 64  1  0  0  0  0
 55 64  1  0  0  0  0
 56 75  1  0  0  0  0
 57 76  1  0  0  0  0
 58 59  1  0  0  0  0
 58 60  1  0  0  0  0
 59 61  1  0  0  0  0
 60 74  1  0  0  0  0
 61 84  1  0  0  0  0
 62 64  1  0  0  0  0
 62 73  1  0  0  0  0
 63 76  1  0  0  0  0
 65 66  1  0  0  0  0
M  CHG  1  76   1
M  ISO  4  38 100  61 101  75 100  84 101
M  END
> <Batch ID>
0003

> <Smiles>
CNC(C)C(=O)NC(C(=O)N1Cc2cc([101O:1][101CH2:1]CCCNC(=O)Nc3ccc([100N:0](C)[100C:0](=O)N4CCCC(n5nc(-c6ccc(Oc7ccc(F)cc7F)cc6)c(C(N)=O)c5N)C4)c(F)c3)ccc2CC1C(=O)NC1CCCc2ccccc21)C(C)(C)C

> <Shape>
0.247

> <Color>
0.066

> <Negative vol penalty>
0.000

$$$$

  -OEChem-04052315212D

  0  0  0     0  0  0  0  0  0999 V2000
M  END
$$$$

  -OEChem-04052315213D

 88 96  0     1  0  0  0  0  0999 V2000
  -30.9743  -25.6953   17.2809 C   0  0  0  0  0  0  0  0  0  0  0  0
  -29.5894  -25.5849   17.3540 C   0  0  0  0  0  0  0  0  0  0  0  0
  -28.7668  -14.7239   19.6336 C   0  0  0  0  0  0  0  0  0  0  0  0
  -26.6283  -15.8456   19.7072 C   0  0  0  0  0  0  0  0  0  0  0  0
  -26.5724  -24.9590   24.6449 C   0  0  0  0  0  0  0  0  0  0  0  0
  -24.9275  -24.1998   23.0465 C   0  0  0  0  0  0  0  0  0  0  0  0
  -31.6890  -26.2137   18.3599 C   0  0  0  0  0  0  0  0  0  0  0  0
  -28.9185  -25.9919   18.5067 C   0  0  0  0  0  0  0  0  0  0  0  0
  -23.3727  -28.5708   18.8220 C   0  0  0  0  0  0  0  0  0  0  0  0
  -27.5649  -24.2642   23.9536 C   0  0  0  0  0  0  0  0  0  0  0  0
  -25.9199  -23.5049   22.3552 C   0  0  0  0  0  0  0  0  0  0  0  0
  -28.1532  -13.5292   20.0100 C   0  0  0  0  0  0  0  0  0  0  0  0
  -26.0146  -14.6509   20.0836 C   0  0  0  0  0  0  0  0  0  0  0  0
  -22.1105  -28.0495   19.1025 C   0  0  0  0  0  0  0  0  0  0  0  0
  -25.6535  -12.8149   22.8995 C   0  0  0  0  0  0  0  0  0  0  0  0
  -24.7288  -12.8619   23.9427 C   0  0  0  0  0  0  0  0  0  0  0  0
  -22.3528  -28.7190   21.4073 C   0  0  0  0  0  0  0  0  0  0  0  0
  -23.0137  -12.0269   22.4599 C   0  0  0  0  0  0  0  0  0  0  0  0
  -28.0044  -15.8822   19.4823 C   0  0  0  0  0  0  0  0  0  0  0  0
  -25.2537  -24.9268   24.1914 C   0  0  0  0  0  0  0  0  0  0  0  0
  -28.8421  -17.5924   17.7849 C   0  0  0  0  0  0  0  0  0  0  0  0
  -31.0257  -26.6363   19.5227 C   0  0  0  0  0  0  0  0  0  0  0  0
  -24.1404  -29.1613   19.8361 C   0  0  0  0  0  0  0  0  0  0  0  0
  -29.6252  -26.5152   19.6028 C   0  0  0  0  0  0  0  0  0  0  0  0
  -23.6234  -29.2493   21.1366 C   0  0  0  0  0  0  0  0  0  0  0  0
  -27.2386  -23.5372   22.8088 C   0  0  0  0  0  0  0  0  0  0  0  0
  -26.7770  -13.4927   20.2350 C   0  0  0  0  0  0  0  0  0  0  0  0
  -21.6015  -28.1210   20.3959 C   0  0  0  0  0  0  0  0  0  0  0  0
  -25.2584  -12.3739   21.6365 C   0  0  0  0  0  0  0  0  0  0  0  0
  -23.4089  -12.4679   23.7229 C   0  0  0  0  0  0  0  0  0  0  0  0
  -23.9385  -11.9799   21.4167 C   0  0  0  0  0  0  0  0  0  0  0  0
  -28.6379  -17.1167   19.0940 C   0  0  0  0  0  0  0  0  0  0  0  0
  -29.4791  -18.7975   17.9529 C   0  0  0  0  0  0  0  0  0  0  0  0
  -24.1966  -25.6667   24.9277 C   0  0  0  0  0  0  0  0  0  0  0  0
  -28.4877  -16.9980   16.5292 C   0  0  0  0  0  0  0  0  0  0  0  0
  -26.9582  -28.5375   21.1682 C   0  0  0  0  0  0  0  0  0  0  0  0
  -26.4143  -31.3416   22.7054 C   0  0  0  0  0  0  0  0  0  0  0  0
  -19.5585  -25.8273   23.1060 C   0  0  0  0  0  0  0  0  0  0  0  0
  -24.1547  -33.6409   23.8253 C   0  0  0  0  0  0  0  0  0  0  0  0
  -29.6039  -22.7605   22.4234 C   0  0  0  0  0  0  0  0  0  0  0  0
  -31.8454  -27.1462   20.6814 C   0  0  0  0  0  0  0  0  0  0  0  0
  -25.4890  -29.7429   19.5115 C   0  0  0  0  0  0  0  0  0  0  0  0
  -24.3992  -29.8915   22.2565 C   0  0  0  0  0  0  0  0  0  0  0  0
  -31.0242  -27.9030   21.7221 C   0  0  0  0  0  0  0  0  0  0  0  0
  -32.3989  -21.1013   20.9699 C   0  0  0  0  0  0  0  0  0  0  0  0
  -29.7525  -27.1323   22.0622 C   0  0  0  0  0  0  0  0  0  0  0  0
  -31.7697  -19.9381   20.1998 C   0  0  0  0  0  0  0  0  0  0  0  0
  -31.6636  -21.3777   22.2801 C   0  0  0  0  0  0  0  0  0  0  0  0
  -29.5849  -20.4099   21.3793 C   0  0  0  0  0  0  0  0  0  0  0  0
  -28.8593  -26.9690   20.8265 C   0  0  1  0  0  0  0  0  0  0  0  0
  -26.3978  -29.8614   20.7311 C   0  0  1  0  0  0  0  0  0  0  0  0
  -30.2516  -20.1359   20.0213 C   0  0  2  0  0  0  0  0  0  0  0  0
  -24.0077  -35.8091   25.0802 C   0  0  0  0  0  0  0  0  0  0  0  0
  -26.8992  -29.8551   25.3256 C   0  0  0  0  0  0  0  0  0  0  0  0
  -25.8288  -31.7713   26.5300 C   0  0  0  0  0  0  0  0  0  0  0  0
  -27.9179  -32.1365   25.2166 C   0  0  0  0  0  0  0  0  0  0  0  0
  -22.9418  -35.0318   21.5115 C   0  0  0  0  0  0  0  0  0  0  0  0
  -20.2530  -25.0421   24.2065 C   0  0  0  0  0  0  0  0  0  0  0  0
  -20.9025  -25.9224   25.2759 C   0  0  0  0  0  0  0  0  0  0  0  0
  -22.0111  -26.8262   24.7404 C   0  0  0  0  0  0  0  0  0  0  0  0
  -18.9655  -25.6611   20.6979 C   0  0  0  0  0  0  0  0  0  0  0  0
  -19.9337  -26.5038   19.8870 C   0  0  0  0  0  0  0  0  0  1  0  0
  -25.7397  -31.7401   23.9958 C   0  0  1  0  0  0  0  0  0  0  0  0
  -24.1172  -35.1543   23.7120 C   0  0  2  0  0  0  0  0  0  0  0  0
  -26.5823  -31.3619   25.2465 C   0  0  0  0  0  0  0  0  0  0  0  0
  -29.1072  -17.9515   20.0250 N   0  0  0  0  0  0  0  0  0  0  0  0
  -29.6128  -18.9638   19.3000 N   0  0  0  0  0  0  0  0  0  0  0  0
  -25.7155  -30.4399   21.8904 N   0  0  0  0  0  0  0  0  0  0  0  0
  -30.2316  -21.5587   22.0326 N   0  0  0  0  0  0  0  0  0  0  0  0
  -29.9324  -19.7206   17.0784 N   0  0  0  0  0  0  0  0  0  0  0  0
  -27.8375  -15.7564   16.5375 N   0  0  0  0  0  0  0  0  0  0  0  0
  -28.2476  -22.8318   22.1072 N   0  0  0  0  0  0  0  0  0  0  0  0
  -23.1020  -26.0802   24.1767 N   0  0  0  0  0  0  0  0  0  0  0  0
  -28.1474  -28.1987   20.5514 N   0  0  0  0  0  0  0  0  0  0  0  0
  -19.5771  -25.1459   21.8941 N   0  0  0  0  0  0  0  0  0  0  0  0
  -25.4475  -33.1648   23.8807 N   0  0  0  0  0  0  0  0  0  0  0  0
  -22.9499  -35.5835   22.8908 N   0  3  0  0  0  0  0  0  0  0  0  0
  -24.3446  -25.8899   26.1264 O   0  0  0  0  0  0  0  0  0  0  0  0
  -28.7547  -17.5438   15.4318 O   0  0  0  0  0  0  0  0  0  0  0  0
  -26.3569  -27.8733   22.0042 O   0  0  0  0  0  0  0  0  0  0  0  0
  -27.5174  -31.8186   22.4274 O   0  0  0  0  0  0  0  0  0  0  0  0
  -19.0304  -26.9208   23.2886 O   0  0  0  0  0  0  0  0  0  0  0  0
  -23.1387  -32.9505   23.8647 O   0  0  0  0  0  0  0  0  0  0  0  0
  -30.2300  -23.6711   22.9718 O   0  0  0  0  0  0  0  0  0  0  0  0
  -26.1778  -12.3270   20.6021 O   0  0  0  0  0  0  0  0  0  0  0  0
  -20.3700  -27.6123   20.6725 O   0  0  0  0  0  0  0  0  0  1  0  0
  -22.5213  -12.5117   24.7252 F   0  0  0  0  0  0  0  0  0  0  0  0
  -23.5532  -11.5542   20.2059 F   0  0  0  0  0  0  0  0  0  0  0  0
  1  2  1  0  0  0  0
  1  7  2  0  0  0  0
  2  8  2  0  0  0  0
  3 12  2  0  0  0  0
  3 19  1  0  0  0  0
  4 13  1  0  0  0  0
  4 19  2  0  0  0  0
  5 10  2  0  0  0  0
  5 20  1  0  0  0  0
  6 11  1  0  0  0  0
  6 20  2  0  0  0  0
  7 22  1  0  0  0  0
  8 24  1  0  0  0  0
  9 14  2  0  0  0  0
  9 23  1  0  0  0  0
 10 26  1  0  0  0  0
 11 26  2  0  0  0  0
 12 27  1  0  0  0  0
 13 27  2  0  0  0  0
 14 28  1  0  0  0  0
 15 16  2  0  0  0  0
 15 29  1  0  0  0  0
 16 30  1  0  0  0  0
 17 25  1  0  0  0  0
 17 28  2  0  0  0  0
 18 30  2  0  0  0  0
 18 31  1  0  0  0  0
 19 32  1  0  0  0  0
 20 34  1  0  0  0  0
 21 32  1  0  0  0  0
 21 33  2  0  0  0  0
 21 35  1  0  0  0  0
 22 24  2  0  0  0  0
 22 41  1  0  0  0  0
 23 25  2  0  0  0  0
 23 42  1  0  0  0  0
 24 50  1  0  0  0  0
 25 43  1  0  0  0  0
 26 72  1  0  0  0  0
 27 85  1  0  0  0  0
 28 86  1  0  0  0  0
 29 31  2  0  0  0  0
 29 85  1  0  0  0  0
 30 87  1  0  0  0  0
 31 88  1  0  0  0  0
 32 66  2  0  0  0  0
 33 67  1  0  0  0  0
 33 70  1  0  0  0  0
 34 73  1  0  0  0  0
 34 78  2  0  0  0  0
 35 71  1  0  0  0  0
 35 79  2  0  0  0  0
 36 51  1  0  0  0  0
 36 74  1  0  0  0  0
 36 80  2  0  0  0  0
 37 63  1  0  0  0  0
 37 68  1  0  0  0  0
 37 81  2  0  0  0  0
 38 58  1  0  0  0  0
 38 75  1  0  0  0  0
 38 82  2  0  0  0  0
 39 64  1  0  0  0  0
 39 76  1  0  0  0  0
 39 83  2  0  0  0  0
 40 69  1  0  0  0  0
 40 72  1  0  0  0  0
 40 84  2  0  0  0  0
 41 44  1  0  0  0  0
 42 51  1  0  0  0  0
 43 68  1  0  0  0  0
 44 46  1  0  0  0  0
 45 47  1  0  0  0  0
 45 48  1  0  0  0  0
 46 50  1  0  0  0  0
 47 52  1  0  0  0  0
 48 69  1  0  0  0  0
 49 52  1  0  0  0  0
 49 69  1  0  0  0  0
 50 74  1  0  0  0  0
 51 68  1  0  0  0  0
 52 67  1  0  0  0  0
 53 64  1  0  0  0  0
 54 65  1  0  0  0  0
 55 65  1  0  0  0  0
 56 65  1  0  0  0  0
 57 77  1  0  0  0  0
 58 59  1  0  0  0  0
 59 60  1  0  0  0  0
 60 73  1  0  0  0  0
 61 62  1  0  0  0  0
 61 75  1  0  0  0  0
 62 86  1  0  0  0  0
 63 65  1  0  0  0  0
 63 76  1  0  0  0  0
 64 77  1  0  0  0  0
 66 67  1  0  0  0  0
M  CHG  1  77   1
M  ISO  4  40 100  62 101  72 100  86 101
M  END
> <Batch ID>
0003

> <Smiles>
CNC(C)C(=O)NC(C(=O)N1Cc2cc([101O:1][101CH2:1]CNC(=O)CCCNC(=O)c3ccc([100NH:0][100C:0](=O)N4CCCC(n5nc(-c6ccc(Oc7ccc(F)cc7F)cc6)c(C(N)=O)c5N)C4)cc3)ccc2CC1C(=O)NC1CCCc2ccccc21)C(C)(C)C

> <Shape>
0.297

> <Color>
0.064

> <Negative vol penalty>
0.000

$$$$

  -OEChem-04052315213D

 83 91  0     1  0  0  0  0  0999 V2000
  -33.9208  -25.3539   32.0477 C   0  0  0  0  0  0  0  0  0  0  0  0
  -33.2966  -24.1201   31.8941 C   0  0  0  0  0  0  0  0  0  0  0  0
  -33.8822  -11.6649   24.1037 C   0  0  0  0  0  0  0  0  0  0  0  0
  -23.1564   -9.8646   20.0535 C   0  0  0  0  0  0  0  0  0  0  0  0
  -23.8014   -9.9806   22.3789 C   0  0  0  0  0  0  0  0  0  0  0  0
  -33.4101  -11.6837   25.4161 C   0  0  0  0  0  0  0  0  0  0  0  0
  -33.8724  -26.2915   31.0170 C   0  0  0  0  0  0  0  0  0  0  0  0
  -32.6226  -23.8236   30.7099 C   0  0  0  0  0  0  0  0  0  0  0  0
  -33.6586  -19.1719   28.9973 C   0  0  0  0  0  0  0  0  0  0  0  0
  -33.0328  -12.0086   23.0520 C   0  0  0  0  0  0  0  0  0  0  0  0
  -22.4110   -8.7156   20.3176 C   0  0  0  0  0  0  0  0  0  0  0  0
  -23.0560   -8.8316   22.6430 C   0  0  0  0  0  0  0  0  0  0  0  0
  -33.0145  -18.1051   29.6225 C   0  0  0  0  0  0  0  0  0  0  0  0
  -22.9967   -5.4195   20.7835 C   0  0  0  0  0  0  0  0  0  0  0  0
  -23.1189   -4.3504   19.8961 C   0  0  0  0  0  0  0  0  0  0  0  0
  -31.2392  -12.3897   24.6250 C   0  0  0  0  0  0  0  0  0  0  0  0
  -31.4210  -18.0151   27.8137 C   0  0  0  0  0  0  0  0  0  0  0  0
  -20.7534   -4.4748   19.4204 C   0  0  0  0  0  0  0  0  0  0  0  0
  -23.8517  -10.4971   21.0841 C   0  0  0  0  0  0  0  0  0  0  0  0
  -32.0886  -12.0460   25.6768 C   0  0  0  0  0  0  0  0  0  0  0  0
  -24.1773  -13.0180   20.8689 C   0  0  0  0  0  0  0  0  0  0  0  0
  -33.2057  -26.0027   29.8158 C   0  0  0  0  0  0  0  0  0  0  0  0
  -33.1814  -19.6762   27.7789 C   0  0  0  0  0  0  0  0  0  0  0  0
  -32.5641  -24.7588   29.6626 C   0  0  0  0  0  0  0  0  0  0  0  0
  -32.0624  -19.0867   27.1738 C   0  0  0  0  0  0  0  0  0  0  0  0
  -31.7113  -12.3709   23.3126 C   0  0  0  0  0  0  0  0  0  0  0  0
  -22.3607   -8.1991   21.6123 C   0  0  0  0  0  0  0  0  0  0  0  0
  -31.8938  -17.5284   29.0321 C   0  0  0  0  0  0  0  0  0  0  0  0
  -21.7528   -6.0162   20.9896 C   0  0  0  0  0  0  0  0  0  0  0  0
  -21.9973   -3.8781   19.2145 C   0  0  0  0  0  0  0  0  0  0  0  0
  -20.6312   -5.5439   20.3080 C   0  0  0  0  0  0  0  0  0  0  0  0
  -24.6223  -11.6837   20.8118 C   0  0  0  0  0  0  0  0  0  0  0  0
  -25.2797  -13.7626   20.5268 C   0  0  0  0  0  0  0  0  0  0  0  0
  -31.5871  -12.0656   27.0751 C   0  0  0  0  0  0  0  0  0  0  0  0
  -22.8832  -13.5380   21.2015 C   0  0  0  0  0  0  0  0  0  0  0  0
  -32.0354  -22.4766   26.8051 C   0  0  0  0  0  0  0  0  0  0  0  0
  -32.1036  -21.0509   23.8922 C   0  0  0  0  0  0  0  0  0  0  0  0
  -32.0809  -18.1585   22.0810 C   0  0  0  0  0  0  0  0  0  0  0  0
  -31.1584  -12.7537   20.8848 C   0  0  0  0  0  0  0  0  0  0  0  0
  -33.1400  -27.0659   28.7482 C   0  0  0  0  0  0  0  0  0  0  0  0
  -33.9034  -20.8101   27.1041 C   0  0  0  0  0  0  0  0  0  0  0  0
  -31.5224  -19.5778   25.8563 C   0  0  0  0  0  0  0  0  0  0  0  0
  -32.7245  -26.5308   27.3803 C   0  0  0  0  0  0  0  0  0  0  0  0
  -29.3052  -13.5238   17.9438 C   0  0  0  0  0  0  0  0  0  0  0  0
  -31.5162  -25.6091   27.5121 C   0  0  0  0  0  0  0  0  0  0  0  0
  -27.8530  -13.2666   18.3525 C   0  0  0  0  0  0  0  0  0  0  0  0
  -30.2605  -12.5157   18.5800 C   0  0  0  0  0  0  0  0  0  0  0  0
  -28.7000  -12.1360   20.4481 C   0  0  0  0  0  0  0  0  0  0  0  0
  -31.8443  -24.3906   28.3834 C   0  0  1  0  0  0  0  0  0  0  0  0
  -33.0248  -21.5767   26.1203 C   0  0  1  0  0  0  0  0  0  0  0  0
  -27.7079  -13.1660   19.8837 C   0  0  2  0  0  0  0  0  0  0  0  0
  -32.1069  -17.3136   19.7183 C   0  0  0  0  0  0  0  0  0  0  0  0
  -29.1632  -21.8084   23.5915 C   0  0  0  0  0  0  0  0  0  0  0  0
  -29.0022  -20.1589   21.7149 C   0  0  0  0  0  0  0  0  0  0  0  0
  -30.5366  -22.1165   21.5243 C   0  0  0  0  0  0  0  0  0  0  0  0
  -34.6316  -16.7177   22.5016 C   0  0  0  0  0  0  0  0  0  0  0  0
  -30.6553  -14.1728   29.4629 C   0  0  0  0  0  0  0  0  0  0  0  0
  -29.9626  -13.0911   28.6452 C   0  0  0  0  0  0  0  0  0  0  0  0
  -30.6073  -15.5422   28.7961 C   0  0  0  0  0  0  0  0  0  1  0  0
  -31.1349  -20.2202   23.0856 C   0  0  1  0  0  0  0  0  0  0  0  0
  -32.9487  -17.6844   20.9293 C   0  0  2  0  0  0  0  0  0  0  0  0
  -29.9680  -21.0678   22.5049 C   0  0  0  0  0  0  0  0  0  0  0  0
  -25.9072  -11.5832   20.4610 N   0  0  0  0  0  0  0  0  0  0  0  0
  -26.2789  -12.8639   20.2944 N   0  0  0  0  0  0  0  0  0  0  0  0
  -32.2592  -20.6929   25.2389 N   0  0  0  0  0  0  0  0  0  0  0  0
  -30.0691  -12.4779   20.0315 N   0  0  0  0  0  0  0  0  0  0  0  0
  -25.4820  -15.0917   20.4051 N   0  0  0  0  0  0  0  0  0  0  0  0
  -21.8637  -12.6337   21.5286 N   0  0  0  0  0  0  0  0  0  0  0  0
  -30.8488  -12.7203   22.2441 N   0  0  0  0  0  0  0  0  0  0  0  0
  -30.5390  -12.9406   27.3378 N   0  0  0  0  0  0  0  0  0  0  0  0
  -32.6128  -23.4229   27.6302 N   0  0  0  0  0  0  0  0  0  0  0  0
  -31.9311  -19.5292   22.0771 N   0  0  0  0  0  0  0  0  0  0  0  0
  -33.7404  -16.4889   21.3353 N   0  3  0  0  0  0  0  0  0  0  0  0
  -32.1202  -11.3440   27.9138 O   0  0  0  0  0  0  0  0  0  0  0  0
  -22.6338  -14.7674   21.1923 O   0  0  0  0  0  0  0  0  0  0  0  0
  -30.8370  -22.3247   26.5991 O   0  0  0  0  0  0  0  0  0  0  0  0
  -32.7055  -21.9786   23.3457 O   0  0  0  0  0  0  0  0  0  0  0  0
  -31.5824  -17.3895   22.8999 O   0  0  0  0  0  0  0  0  0  0  0  0
  -32.2766  -13.0279   20.4418 O   0  0  0  0  0  0  0  0  0  0  0  0
  -21.6333   -7.0781   21.8704 O   0  0  0  0  0  0  0  0  0  0  0  0
  -31.2629  -16.4875   29.6405 O   0  0  0  0  0  0  0  0  0  1  0  0
  -22.1151   -2.8524   18.3611 F   0  0  0  0  0  0  0  0  0  0  0  0
  -19.4338   -6.1139   20.5009 F   0  0  0  0  0  0  0  0  0  0  0  0
  1  2  1  0  0  0  0
  1  7  2  0  0  0  0
  2  8  2  0  0  0  0
  3  6  2  0  0  0  0
  3 10  1  0  0  0  0
  4 11  2  0  0  0  0
  4 19  1  0  0  0  0
  5 12  1  0  0  0  0
  5 19  2  0  0  0  0
  6 20  1  0  0  0  0
  7 22  1  0  0  0  0
  8 24  1  0  0  0  0
  9 13  2  0  0  0  0
  9 23  1  0  0  0  0
 10 26  2  0  0  0  0
 11 27  1  0  0  0  0
 12 27  2  0  0  0  0
 13 28  1  0  0  0  0
 14 15  2  0  0  0  0
 14 29  1  0  0  0  0
 15 30  1  0  0  0  0
 16 20  2  0  0  0  0
 16 26  1  0  0  0  0
 17 25  1  0  0  0  0
 17 28  2  0  0  0  0
 18 30  2  0  0  0  0
 18 31  1  0  0  0  0
 19 32  1  0  0  0  0
 20 34  1  0  0  0  0
 21 32  1  0  0  0  0
 21 33  2  0  0  0  0
 21 35  1  0  0  0  0
 22 24  2  0  0  0  0
 22 40  1  0  0  0  0
 23 25  2  0  0  0  0
 23 41  1  0  0  0  0
 24 49  1  0  0  0  0
 25 42  1  0  0  0  0
 26 69  1  0  0  0  0
 27 80  1  0  0  0  0
 28 81  1  0  0  0  0
 29 31  2  0  0  0  0
 29 80  1  0  0  0  0
 30 82  1  0  0  0  0
 31 83  1  0  0  0  0
 32 63  2  0  0  0  0
 33 64  1  0  0  0  0
 33 67  1  0  0  0  0
 34 70  1  0  0  0  0
 34 74  2  0  0  0  0
 35 68  1  0  0  0  0
 35 75  2  0  0  0  0
 36 50  1  0  0  0  0
 36 71  1  0  0  0  0
 36 76  2  0  0  0  0
 37 60  1  0  0  0  0
 37 65  1  0  0  0  0
 37 77  2  0  0  0  0
 38 61  1  0  0  0  0
 38 72  1  0  0  0  0
 38 78  2  0  0  0  0
 39 66  1  0  0  0  0
 39 69  1  0  0  0  0
 39 79  2  0  0  0  0
 40 43  1  0  0  0  0
 41 50  1  0  0  0  0
 42 65  1  0  0  0  0
 43 45  1  0  0  0  0
 44 46  1  0  0  0  0
 44 47  1  0  0  0  0
 45 49  1  0  0  0  0
 46 51  1  0  0  0  0
 47 66  1  0  0  0  0
 48 51  1  0  0  0  0
 48 66  1  0  0  0  0
 49 71  1  0  0  0  0
 50 65  1  0  0  0  0
 51 64  1  0  0  0  0
 52 61  1  0  0  0  0
 53 62  1  0  0  0  0
 54 62  1  0  0  0  0
 55 62  1  0  0  0  0
 56 73  1  0  0  0  0
 57 58  1  0  0  0  0
 57 59  1  0  0  0  0
 58 70  1  0  0  0  0
 59 81  1  0  0  0  0
 60 62  1  0  0  0  0
 60 72  1  0  0  0  0
 61 73  1  0  0  0  0
 63 64  1  0  0  0  0
M  CHG  1  73   1
M  ISO  4  39 100  59 101  69 100  81 101
M  END
> <Batch ID>
0003

> <Smiles>
CNC(C)C(=O)NC(C(=O)N1Cc2cc([101O:1][101CH2:1]CCNC(=O)c3cccc([100NH:0][100C:0](=O)N4CCCC(n5nc(-c6ccc(Oc7ccc(F)cc7F)cc6)c(C(N)=O)c5N)C4)c3)ccc2CC1C(=O)NC1CCCc2ccccc21)C(C)(C)C

> <Shape>
0.142

> <Color>
0.167

> <Negative vol penalty>
0.000

$$$$

  -OEChem-04052315213D

 88 95  0     1  0  0  0  0  0999 V2000
  -26.4023  -20.0649   20.6487 C   0  0  0  0  0  0  0  0  0  0  0  0
  -25.9816  -21.2317   21.2787 C   0  0  0  0  0  0  0  0  0  0  0  0
  -26.5414  -12.7615   21.6074 C   0  0  0  0  0  0  0  0  0  0  0  0
  -26.1761  -13.6672   19.3975 C   0  0  0  0  0  0  0  0  0  0  0  0
  -26.4765  -20.0130   19.2574 C   0  0  0  0  0  0  0  0  0  0  0  0
  -25.6359  -22.3479   20.5177 C   0  0  0  0  0  0  0  0  0  0  0  0
  -21.2675  -26.4517   21.7753 C   0  0  0  0  0  0  0  0  0  0  0  0
  -25.2573  -12.2170   21.5965 C   0  0  0  0  0  0  0  0  0  0  0  0
  -24.8920  -13.1226   19.3866 C   0  0  0  0  0  0  0  0  0  0  0  0
  -21.3098  -27.7187   22.3555 C   0  0  0  0  0  0  0  0  0  0  0  0
  -23.7035   -9.5271   20.2611 C   0  0  0  0  0  0  0  0  0  0  0  0
  -23.5535   -8.2116   20.6998 C   0  0  0  0  0  0  0  0  0  0  0  0
  -21.3607  -28.7160   20.1597 C   0  0  0  0  0  0  0  0  0  0  0  0
  -22.0568   -8.9631   22.4412 C   0  0  0  0  0  0  0  0  0  0  0  0
  -27.0008  -13.4867   20.5079 C   0  0  0  0  0  0  0  0  0  0  0  0
  -29.5138  -13.4387   20.0719 C   0  0  0  0  0  0  0  0  0  0  0  0
  -26.1223  -21.1260   18.4785 C   0  0  0  0  0  0  0  0  0  0  0  0
  -21.2825  -26.3067   20.3806 C   0  0  0  0  0  0  0  0  0  0  0  0
  -25.7068  -22.3113   19.1147 C   0  0  0  0  0  0  0  0  0  0  0  0
  -21.3159  -27.4462   19.5642 C   0  0  0  0  0  0  0  0  0  0  0  0
  -24.4326  -12.3975   20.4861 C   0  0  0  0  0  0  0  0  0  0  0  0
  -21.3593  -28.8510   21.5478 C   0  0  0  0  0  0  0  0  0  0  0  0
  -23.0302  -10.5606   20.9124 C   0  0  0  0  0  0  0  0  0  0  0  0
  -22.7301   -7.9296   21.7899 C   0  0  0  0  0  0  0  0  0  0  0  0
  -22.2068  -10.2786   22.0024 C   0  0  0  0  0  0  0  0  0  0  0  0
  -28.3270  -14.0499   20.5188 C   0  0  0  0  0  0  0  0  0  0  0  0
  -30.4895  -14.3793   20.2952 C   0  0  0  0  0  0  0  0  0  0  0  0
  -29.7162  -12.1372   19.5055 C   0  0  0  0  0  0  0  0  0  0  0  0
  -23.2490  -24.9436   18.2881 C   0  0  0  0  0  0  0  0  0  0  0  0
  -20.9109  -25.7171   16.1768 C   0  0  0  0  0  0  0  0  0  0  0  0
  -29.2403  -24.9381   20.3167 C   0  0  0  0  0  0  0  0  0  0  0  0
  -18.2574  -27.7162   15.3964 C   0  0  0  0  0  0  0  0  0  0  0  0
  -30.0163  -20.3584   20.8249 C   0  0  0  0  0  0  0  0  0  0  0  0
  -25.8183  -32.6365   21.5071 C   0  0  0  0  0  0  0  0  0  0  0  0
  -26.2639  -21.0378   16.9796 C   0  0  0  0  0  0  0  0  0  0  0  0
  -21.2094  -24.9340   19.7700 C   0  0  0  0  0  0  0  0  0  0  0  0
  -21.3134  -27.3454   18.0614 C   0  0  0  0  0  0  0  0  0  0  0  0
  -25.5217  -22.1423   16.2316 C   0  0  0  0  0  0  0  0  0  0  0  0
  -30.3211  -17.7479   23.6306 C   0  0  0  0  0  0  0  0  0  0  0  0
  -25.7967  -23.4989   16.8725 C   0  0  0  0  0  0  0  0  0  0  0  0
  -30.9982  -16.7199   22.7291 C   0  0  0  0  0  0  0  0  0  0  0  0
  -30.3981  -19.1440   23.0204 C   0  0  0  0  0  0  0  0  0  0  0  0
  -29.5066  -17.9375   21.0274 C   0  0  0  0  0  0  0  0  0  0  0  0
  -25.2996  -23.5349   18.3227 C   0  0  1  0  0  0  0  0  0  0  0  0
  -21.7486  -24.8850   18.3437 C   0  0  1  0  0  0  0  0  0  0  0  0
  -30.4773  -16.7695   21.2761 C   0  0  2  0  0  0  0  0  0  0  0  0
  -16.5715  -28.1343   13.5852 C   0  0  0  0  0  0  0  0  0  0  0  0
  -23.0505  -27.1168   14.5116 C   0  0  0  0  0  0  0  0  0  0  0  0
  -21.2190  -28.2904   13.2720 C   0  0  0  0  0  0  0  0  0  0  0  0
  -21.3881  -25.8032   13.1829 C   0  0  0  0  0  0  0  0  0  0  0  0
  -15.9944  -27.0905   17.1982 C   0  0  0  0  0  0  0  0  0  0  0  0
  -29.1972  -23.5662   20.9710 C   0  0  0  0  0  0  0  0  0  0  0  0
  -27.9545  -29.4334   20.3705 C   0  0  0  0  0  0  0  0  0  0  0  0
  -28.1657  -28.0238   20.9321 C   0  0  0  0  0  0  0  0  0  0  0  0
  -28.3770  -30.5016   21.3842 C   0  0  0  0  0  0  0  0  0  0  0  0
  -22.6472  -32.1230   22.3736 C   0  0  0  0  0  0  0  0  0  0  0  0
  -30.5033  -22.7943   20.8476 C   0  0  0  0  0  0  0  0  0  0  0  0
  -27.8108  -26.9330   19.9268 C   0  0  0  0  0  0  0  0  0  0  0  0
  -28.1250  -31.9192   20.8813 C   0  0  0  0  0  0  0  0  0  0  0  0
  -23.4119  -33.2513   21.6948 C   0  0  0  0  0  0  0  0  0  0  0  0
  -22.0818  -31.1109   21.3845 C   0  0  0  0  0  0  0  0  0  1  0  0
  -20.6044  -26.9167   15.3131 C   0  0  1  0  0  0  0  0  0  0  0  0
  -16.8686  -27.3899   14.8776 C   0  0  2  0  0  0  0  0  0  0  0  0
  -21.5675  -27.0339   14.0982 C   0  0  0  0  0  0  0  0  0  0  0  0
  -28.5281  -15.2832   20.9905 N   0  0  0  0  0  0  0  0  0  0  0  0
  -29.8526  -15.4547   20.8413 N   0  0  0  0  0  0  0  0  0  0  0  0
  -21.2474  -25.9811   17.5120 N   0  0  0  0  0  0  0  0  0  0  0  0
  -30.0043  -19.1867   21.6064 N   0  0  0  0  0  0  0  0  0  0  0  0
  -31.8215  -14.3831   20.0758 N   0  0  0  0  0  0  0  0  0  0  0  0
  -28.6052  -11.2979   19.3460 N   0  0  0  0  0  0  0  0  0  0  0  0
  -23.8633  -23.7080   18.3605 N   0  0  0  0  0  0  0  0  0  0  0  0
  -28.0304  -25.6130   20.4497 N   0  0  0  0  0  0  0  0  0  0  0  0
  -19.1953  -26.8092   14.9504 N   0  0  0  0  0  0  0  0  0  0  0  0
  -30.4335  -21.5048   21.4965 N   0  0  0  0  0  0  0  0  0  0  0  0
  -26.7332  -32.1556   20.5743 N   0  0  0  0  0  0  0  0  0  0  0  0
  -24.5447  -32.7738   20.9510 N   0  0  0  0  0  0  0  0  0  0  0  0
  -15.8374  -27.7674   15.8851 N   0  3  0  0  0  0  0  0  0  0  0  0
  -30.8512  -11.7245   19.1666 O   0  0  0  0  0  0  0  0  0  0  0  0
  -23.8078  -26.0293   18.1855 O   0  0  0  0  0  0  0  0  0  0  0  0
  -20.8469  -24.5869   15.6866 O   0  0  0  0  0  0  0  0  0  0  0  0
  -30.2339  -25.3851   19.7502 O   0  0  0  0  0  0  0  0  0  0  0  0
  -18.4878  -28.6815   16.1214 O   0  0  0  0  0  0  0  0  0  0  0  0
  -29.6825  -20.3804   19.6364 O   0  0  0  0  0  0  0  0  0  0  0  0
  -26.0928  -32.9083   22.6752 O   0  0  0  0  0  0  0  0  0  0  0  0
  -23.1796  -11.8661   20.4750 O   0  0  0  0  0  0  0  0  0  0  0  0
  -21.4014  -30.0888   22.1116 O   0  0  0  0  0  0  0  0  0  1  0  0
  -22.5850   -6.6661   22.2102 F   0  0  0  0  0  0  0  0  0  0  0  0
  -21.5565  -11.2672   22.6313 F   0  0  0  0  0  0  0  0  0  0  0  0
  1  2  1  0  0  0  0
  1  5  2  0  0  0  0
  2  6  2  0  0  0  0
  3  8  2  0  0  0  0
  3 15  1  0  0  0  0
  4  9  1  0  0  0  0
  4 15  2  0  0  0  0
  5 17  1  0  0  0  0
  6 19  1  0  0  0  0
  7 10  2  0  0  0  0
  7 18  1  0  0  0  0
  8 21  1  0  0  0  0
  9 21  2  0  0  0  0
 10 22  1  0  0  0  0
 11 12  2  0  0  0  0
 11 23  1  0  0  0  0
 12 24  1  0  0  0  0
 13 20  1  0  0  0  0
 13 22  2  0  0  0  0
 14 24  2  0  0  0  0
 14 25  1  0  0  0  0
 15 26  1  0  0  0  0
 16 26  1  0  0  0  0
 16 27  2  0  0  0  0
 16 28  1  0  0  0  0
 17 19  2  0  0  0  0
 17 35  1  0  0  0  0
 18 20  2  0  0  0  0
 18 36  1  0  0  0  0
 19 44  1  0  0  0  0
 20 37  1  0  0  0  0
 21 85  1  0  0  0  0
 22 86  1  0  0  0  0
 23 25  2  0  0  0  0
 23 85  1  0  0  0  0
 24 87  1  0  0  0  0
 25 88  1  0  0  0  0
 26 65  2  0  0  0  0
 27 66  1  0  0  0  0
 27 69  1  0  0  0  0
 28 70  1  0  0  0  0
 28 78  2  0  0  0  0
 29 45  1  0  0  0  0
 29 71  1  0  0  0  0
 29 79  2  0  0  0  0
 30 62  1  0  0  0  0
 30 67  1  0  0  0  0
 30 80  2  0  0  0  0
 31 52  1  0  0  0  0
 31 72  1  0  0  0  0
 31 81  2  0  0  0  0
 32 63  1  0  0  0  0
 32 73  1  0  0  0  0
 32 82  2  0  0  0  0
 33 68  1  0  0  0  0
 33 74  1  0  0  0  0
 33 83  2  0  0  0  0
 34 75  1  0  0  0  0
 34 76  1  0  0  0  0
 34 84  2  0  0  0  0
 35 38  1  0  0  0  0
 36 45  1  0  0  0  0
 37 67  1  0  0  0  0
 38 40  1  0  0  0  0
 39 41  1  0  0  0  0
 39 42  1  0  0  0  0
 40 44  1  0  0  0  0
 41 46  1  0  0  0  0
 42 68  1  0  0  0  0
 43 46  1  0  0  0  0
 43 68  1  0  0  0  0
 44 71  1  0  0  0  0
 45 67  1  0  0  0  0
 46 66  1  0  0  0  0
 47 63  1  0  0  0  0
 48 64  1  0  0  0  0
 49 64  1  0  0  0  0
 50 64  1  0  0  0  0
 51 77  1  0  0  0  0
 52 57  1  0  0  0  0
 53 54  1  0  0  0  0
 53 55  1  0  0  0  0
 54 58  1  0  0  0  0
 55 59  1  0  0  0  0
 56 60  1  0  0  0  0
 56 61  1  0  0  0  0
 57 74  1  0  0  0  0
 58 72  1  0  0  0  0
 59 75  1  0  0  0  0
 60 76  1  0  0  0  0
 61 86  1  0  0  0  0
 62 64  1  0  0  0  0
 62 73  1  0  0  0  0
 63 77  1  0  0  0  0
 65 66  1  0  0  0  0
M  CHG  1  77   1
M  ISO  4  33 100  61 101  74 100  86 101
M  END
> <Batch ID>
0003

> <Smiles>
CNC(C)C(=O)NC(C(=O)N1Cc2cc([101O:1][101CH2:1]CCNC(=O)NCCCCCNC(=O)CC[100NH:0][100C:0](=O)N3CCCC(n4nc(-c5ccc(Oc6ccc(F)cc6F)cc5)c(C(N)=O)c4N)C3)ccc2CC1C(=O)NC1CCCc2ccccc21)C(C)(C)C

> <Shape>
0.239

> <Color>
0.075

> <Negative vol penalty>
0.000

$$$$

  -OEChem-04052315213D

 81 89  0     1  0  0  0  0  0999 V2000
  -28.0210  -32.9888   26.2382 C   0  0  0  0  0  0  0  0  0  0  0  0
  -28.2919  -32.0167   25.2806 C   0  0  0  0  0  0  0  0  0  0  0  0
  -26.0055  -12.8349   21.3196 C   0  0  0  0  0  0  0  0  0  0  0  0
  -25.3693  -13.5340   19.0962 C   0  0  0  0  0  0  0  0  0  0  0  0
  -26.7945  -32.9899   26.9013 C   0  0  0  0  0  0  0  0  0  0  0  0
  -27.3367  -31.0443   24.9863 C   0  0  0  0  0  0  0  0  0  0  0  0
  -26.8018  -30.2909   20.0072 C   0  0  0  0  0  0  0  0  0  0  0  0
  -28.5255  -22.8367   19.0107 C   0  0  0  0  0  0  0  0  0  0  0  0
  -27.5777  -23.9842   20.9139 C   0  0  0  0  0  0  0  0  0  0  0  0
  -25.4845  -11.5654   21.0695 C   0  0  0  0  0  0  0  0  0  0  0  0
  -24.8484  -12.2645   18.8460 C   0  0  0  0  0  0  0  0  0  0  0  0
  -27.7733  -29.5185   19.3721 C   0  0  0  0  0  0  0  0  0  0  0  0
  -29.5464  -23.7850   18.9473 C   0  0  0  0  0  0  0  0  0  0  0  0
  -28.5987  -24.9325   20.8506 C   0  0  0  0  0  0  0  0  0  0  0  0
  -23.9983   -8.2473   21.1415 C   0  0  0  0  0  0  0  0  0  0  0  0
  -23.2100   -7.6614   22.1319 C   0  0  0  0  0  0  0  0  0  0  0  0
  -26.2965  -27.6124   19.4445 C   0  0  0  0  0  0  0  0  0  0  0  0
  -21.6540   -9.5036   21.9831 C   0  0  0  0  0  0  0  0  0  0  0  0
  -25.9478  -13.8192   20.3330 C   0  0  0  0  0  0  0  0  0  0  0  0
  -27.8007  -15.5726   20.3532 C   0  0  0  0  0  0  0  0  0  0  0  0
  -25.8202  -32.0228   26.6080 C   0  0  0  0  0  0  0  0  0  0  0  0
  -25.5724  -29.7260   20.3761 C   0  0  0  0  0  0  0  0  0  0  0  0
  -26.0966  -31.0316   25.6470 C   0  0  0  0  0  0  0  0  0  0  0  0
  -25.3101  -28.3804   20.0819 C   0  0  0  0  0  0  0  0  0  0  0  0
  -27.5411  -22.9363   19.9939 C   0  0  0  0  0  0  0  0  0  0  0  0
  -24.9060  -11.2801   19.8327 C   0  0  0  0  0  0  0  0  0  0  0  0
  -29.5831  -24.8329   19.8673 C   0  0  0  0  0  0  0  0  0  0  0  0
  -27.5219  -28.1783   19.0933 C   0  0  0  0  0  0  0  0  0  0  0  0
  -23.6145   -9.4614   20.5719 C   0  0  0  0  0  0  0  0  0  0  0  0
  -22.0378   -8.2896   22.5527 C   0  0  0  0  0  0  0  0  0  0  0  0
  -22.4423  -10.0895   20.9927 C   0  0  0  0  0  0  0  0  0  0  0  0
  -26.4852  -15.1310   20.5909 C   0  0  0  0  0  0  0  0  0  0  0  0
  -27.8023  -16.8832   20.7639 C   0  0  0  0  0  0  0  0  0  0  0  0
  -28.9208  -14.8616   19.8097 C   0  0  0  0  0  0  0  0  0  0  0  0
  -24.0565  -29.2552   23.1300 C   0  0  0  0  0  0  0  0  0  0  0  0
  -21.6509  -28.2707   21.1894 C   0  0  0  0  0  0  0  0  0  0  0  0
  -20.7004  -27.0177   18.1606 C   0  0  0  0  0  0  0  0  0  0  0  0
  -25.4503  -21.9259   20.9707 C   0  0  0  0  0  0  0  0  0  0  0  0
  -24.5274  -32.0361   27.3847 C   0  0  0  0  0  0  0  0  0  0  0  0
  -24.5247  -30.5796   21.0365 C   0  0  0  0  0  0  0  0  0  0  0  0
  -23.9986  -27.7316   20.4390 C   0  0  0  0  0  0  0  0  0  0  0  0
  -23.4246  -31.1955   26.7464 C   0  0  0  0  0  0  0  0  0  0  0  0
  -24.3536  -19.5257   23.3610 C   0  0  0  0  0  0  0  0  0  0  0  0
  -23.9662  -29.8315   26.3303 C   0  0  0  0  0  0  0  0  0  0  0  0
  -24.9186  -18.2048   22.8339 C   0  0  0  0  0  0  0  0  0  0  0  0
  -23.9014  -20.4424   22.2257 C   0  0  0  0  0  0  0  0  0  0  0  0
  -25.4771  -19.3724   20.6632 C   0  0  0  0  0  0  0  0  0  0  0  0
  -25.0764  -29.9750   25.2823 C   0  0  1  0  0  0  0  0  0  0  0  0
  -23.5053  -29.7676   21.8295 C   0  0  1  0  0  0  0  0  0  0  0  0
  -26.0057  -18.4424   21.7675 C   0  0  2  0  0  0  0  0  0  0  0  0
  -18.6700  -26.2820   16.8826 C   0  0  0  0  0  0  0  0  0  0  0  0
  -32.1524  -26.8503   18.3776 C   0  0  0  0  0  0  0  0  0  0  0  0
  -21.5744  -25.6835   22.8051 C   0  0  0  0  0  0  0  0  0  0  0  0
  -20.2487  -24.6469   20.9514 C   0  0  0  0  0  0  0  0  0  0  0  0
  -19.3285  -26.6015   22.1986 C   0  0  0  0  0  0  0  0  0  0  0  0
  -21.1285  -29.0703   16.0719 C   0  0  0  0  0  0  0  0  0  0  0  0
  -29.8328  -27.7686   18.7090 C   0  0  0  0  0  0  0  0  0  1  0  0
  -21.2399  -26.9515   20.5811 C   0  0  1  0  0  0  0  0  0  0  0  0
  -19.6073  -27.4381   17.1948 C   0  0  2  0  0  0  0  0  0  0  0  0
  -30.6868  -26.5119   18.5950 C   0  0  2  0  0  0  0  0  0  0  0  0
  -20.6234  -25.9823   21.6289 C   0  0  0  0  0  0  0  0  0  0  0  0
  -25.7078  -16.0837   21.1124 N   0  0  0  0  0  0  0  0  0  0  0  0
  -26.5372  -17.1370   21.2058 N   0  0  0  0  0  0  0  0  0  0  0  0
  -23.0086  -28.6061   21.0891 N   0  0  0  0  0  0  0  0  0  0  0  0
  -24.9838  -20.6253   21.2564 N   0  0  0  0  0  0  0  0  0  0  0  0
  -28.7626  -17.8318   20.7867 N   0  0  0  0  0  0  0  0  0  0  0  0
  -28.7456  -13.5213   19.4392 N   0  0  0  0  0  0  0  0  0  0  0  0
  -26.5039  -21.9731   20.0583 N   0  0  0  0  0  0  0  0  0  0  0  0
  -24.5091  -30.2471   23.9790 N   0  0  0  0  0  0  0  0  0  0  0  0
  -20.3514  -27.2737   19.4698 N   0  0  0  0  0  0  0  0  0  0  0  0
  -20.2027  -27.9189   15.9160 N   0  3  0  0  0  0  0  0  0  0  0  0
  -30.0482  -15.3942   19.6723 O   0  0  0  0  0  0  0  0  0  0  0  0
  -24.0688  -28.0493   23.3477 O   0  0  0  0  0  0  0  0  0  0  0  0
  -20.7975  -28.9807   21.7272 O   0  0  0  0  0  0  0  0  0  0  0  0
  -21.7566  -26.5094   17.7909 O   0  0  0  0  0  0  0  0  0  0  0  0
  -24.9701  -22.9222   21.5173 O   0  0  0  0  0  0  0  0  0  0  0  0
  -24.3978  -10.0414   19.5882 O   0  0  0  0  0  0  0  0  0  0  0  0
  -28.4687  -27.4219   18.4741 O   0  0  0  0  0  0  0  0  0  1  0  0
  -30.5844  -25.7630   19.8052 O   0  0  0  0  0  0  0  0  0  0  0  0
  -21.2801   -7.7261   23.5027 F   0  0  0  0  0  0  0  0  0  0  0  0
  -22.0678  -11.2554   20.4484 F   0  0  0  0  0  0  0  0  0  0  0  0
  1  2  1  0  0  0  0
  1  5  2  0  0  0  0
  2  6  2  0  0  0  0
  3 10  2  0  0  0  0
  3 19  1  0  0  0  0
  4 11  1  0  0  0  0
  4 19  2  0  0  0  0
  5 21  1  0  0  0  0
  6 23  1  0  0  0  0
  7 12  2  0  0  0  0
  7 22  1  0  0  0  0
  8 13  2  0  0  0  0
  8 25  1  0  0  0  0
  9 14  1  0  0  0  0
  9 25  2  0  0  0  0
 10 26  1  0  0  0  0
 11 26  2  0  0  0  0
 12 28  1  0  0  0  0
 13 27  1  0  0  0  0
 14 27  2  0  0  0  0
 15 16  2  0  0  0  0
 15 29  1  0  0  0  0
 16 30  1  0  0  0  0
 17 24  1  0  0  0  0
 17 28  2  0  0  0  0
 18 30  2  0  0  0  0
 18 31  1  0  0  0  0
 19 32  1  0  0  0  0
 20 32  1  0  0  0  0
 20 33  2  0  0  0  0
 20 34  1  0  0  0  0
 21 23  2  0  0  0  0
 21 39  1  0  0  0  0
 22 24  2  0  0  0  0
 22 40  1  0  0  0  0
 23 48  1  0  0  0  0
 24 41  1  0  0  0  0
 25 68  1  0  0  0  0
 26 77  1  0  0  0  0
 27 79  1  0  0  0  0
 28 78  1  0  0  0  0
 29 31  2  0  0  0  0
 29 77  1  0  0  0  0
 30 80  1  0  0  0  0
 31 81  1  0  0  0  0
 32 62  2  0  0  0  0
 33 63  1  0  0  0  0
 33 66  1  0  0  0  0
 34 67  1  0  0  0  0
 34 72  2  0  0  0  0
 35 49  1  0  0  0  0
 35 69  1  0  0  0  0
 35 73  2  0  0  0  0
 36 58  1  0  0  0  0
 36 64  1  0  0  0  0
 36 74  2  0  0  0  0
 37 59  1  0  0  0  0
 37 70  1  0  0  0  0
 37 75  2  0  0  0  0
 38 65  1  0  0  0  0
 38 68  1  0  0  0  0
 38 76  2  0  0  0  0
 39 42  1  0  0  0  0
 40 49  1  0  0  0  0
 41 64  1  0  0  0  0
 42 44  1  0  0  0  0
 43 45  1  0  0  0  0
 43 46  1  0  0  0  0
 44 48  1  0  0  0  0
 45 50  1  0  0  0  0
 46 65  1  0  0  0  0
 47 50  1  0  0  0  0
 47 65  1  0  0  0  0
 48 69  1  0  0  0  0
 49 64  1  0  0  0  0
 50 63  1  0  0  0  0
 51 59  1  0  0  0  0
 52 60  1  0  0  0  0
 53 61  1  0  0  0  0
 54 61  1  0  0  0  0
 55 61  1  0  0  0  0
 56 71  1  0  0  0  0
 57 60  1  0  0  0  0
 57 78  1  0  0  0  0
 58 61  1  0  0  0  0
 58 70  1  0  0  0  0
 59 71  1  0  0  0  0
 60 79  1  0  0  0  0
 62 63  1  0  0  0  0
M  CHG  1  71   1
M  ISO  4  38 100  57 101  68 100  78 101
M  END
> <Batch ID>
0003

> <Smiles>
CNC(C)C(=O)NC(C(=O)N1Cc2cc([101O:1][101CH2:1]C(C)Oc3ccc([100NH:0][100C:0](=O)N4CCCC(n5nc(-c6ccc(Oc7ccc(F)cc7F)cc6)c(C(N)=O)c5N)C4)cc3)ccc2CC1C(=O)NC1CCCc2ccccc21)C(C)(C)C

> <Shape>
0.280

> <Color>
0.069

> <Negative vol penalty>
0.000

$$$$

  -OEChem-04052315213D

 92100  0     1  0  0  0  0  0999 V2000
  -17.1078  -29.3114   24.4333 C   0  0  0  0  0  0  0  0  0  0  0  0
  -17.4230  -28.0234   24.0123 C   0  0  0  0  0  0  0  0  0  0  0  0
  -27.0816  -18.9347   13.0720 C   0  0  0  0  0  0  0  0  0  0  0  0
  -27.0159  -17.5472   20.0128 C   0  0  0  0  0  0  0  0  0  0  0  0
  -29.0972  -17.2237   21.1964 C   0  0  0  0  0  0  0  0  0  0  0  0
  -17.7376  -30.4086   23.8474 C   0  0  0  0  0  0  0  0  0  0  0  0
  -18.3674  -27.8320   23.0045 C   0  0  0  0  0  0  0  0  0  0  0  0
  -23.4334  -23.2239   20.9027 C   0  0  0  0  0  0  0  0  0  0  0  0
  -28.4734  -18.9834   12.9956 C   0  0  0  0  0  0  0  0  0  0  0  0
  -26.4262  -19.4471   14.1917 C   0  0  0  0  0  0  0  0  0  0  0  0
  -26.8938  -16.1672   19.8504 C   0  0  0  0  0  0  0  0  0  0  0  0
  -28.9750  -15.8437   21.0340 C   0  0  0  0  0  0  0  0  0  0  0  0
  -23.8298  -22.4969   19.7810 C   0  0  0  0  0  0  0  0  0  0  0  0
  -25.9399  -13.5141   21.7170 C   0  0  0  0  0  0  0  0  0  0  0  0
  -24.6945  -12.9393   21.9702 C   0  0  0  0  0  0  0  0  0  0  0  0
  -24.9118  -24.4633   18.8966 C   0  0  0  0  0  0  0  0  0  0  0  0
  -28.5547  -20.0567   15.1586 C   0  0  0  0  0  0  0  0  0  0  0  0
  -24.6041  -12.1327   19.6946 C   0  0  0  0  0  0  0  0  0  0  0  0
  -28.1177  -18.0754   20.6858 C   0  0  0  0  0  0  0  0  0  0  0  0
  -27.7582  -20.2779   21.9217 C   0  0  0  0  0  0  0  0  0  0  0  0
  -18.6973  -30.2301   22.8386 C   0  0  0  0  0  0  0  0  0  0  0  0
  -23.7644  -24.5810   21.0249 C   0  0  0  0  0  0  0  0  0  0  0  0
  -19.0097  -28.9280   22.4036 C   0  0  0  0  0  0  0  0  0  0  0  0
  -24.5206  -25.2045   20.0221 C   0  0  0  0  0  0  0  0  0  0  0  0
  -29.2100  -19.5443   14.0388 C   0  0  0  0  0  0  0  0  0  0  0  0
  -27.8733  -15.3155   20.3610 C   0  0  0  0  0  0  0  0  0  0  0  0
  -24.5667  -23.1173   18.7764 C   0  0  0  0  0  0  0  0  0  0  0  0
  -27.1628  -20.0081   15.2349 C   0  0  0  0  0  0  0  0  0  0  0  0
  -26.5174  -13.3983   20.4525 C   0  0  0  0  0  0  0  0  0  0  0  0
  -24.0266  -12.2486   20.9591 C   0  0  0  0  0  0  0  0  0  0  0  0
  -25.8495  -12.7076   19.4414 C   0  0  0  0  0  0  0  0  0  0  0  0
  -28.2447  -19.5008   20.8534 C   0  0  0  0  0  0  0  0  0  0  0  0
  -28.1350  -21.5618   21.6119 C   0  0  0  0  0  0  0  0  0  0  0  0
  -27.0308  -19.8751   23.0897 C   0  0  0  0  0  0  0  0  0  0  0  0
  -22.1057  -27.2844   21.2347 C   0  0  0  0  0  0  0  0  0  0  0  0
  -25.0346  -28.5864   21.7328 C   0  0  0  0  0  0  0  0  0  0  0  0
  -32.4149  -21.3985   14.0902 C   0  0  0  0  0  0  0  0  0  0  0  0
  -28.4147  -28.3582   21.3210 C   0  0  0  0  0  0  0  0  0  0  0  0
  -32.4894  -23.8096   18.5145 C   0  0  0  0  0  0  0  0  0  0  0  0
  -19.3169  -31.4491   22.2022 C   0  0  0  0  0  0  0  0  0  0  0  0
  -23.3521  -25.3443   22.2536 C   0  0  0  0  0  0  0  0  0  0  0  0
  -24.9190  -26.6540   20.1149 C   0  0  0  0  0  0  0  0  0  0  0  0
  -20.5799  -31.1426   21.4013 C   0  0  0  0  0  0  0  0  0  0  0  0
  -29.0652  -24.4063   17.8896 C   0  0  0  0  0  0  0  0  0  0  0  0
  -20.3607  -29.9302   20.5020 C   0  0  0  0  0  0  0  0  0  0  0  0
  -28.4113  -23.2760   18.6832 C   0  0  0  0  0  0  0  0  0  0  0  0
  -30.3375  -23.9459   17.1758 C   0  0  0  0  0  0  0  0  0  0  0  0
  -30.6694  -22.1669   18.8633 C   0  0  0  0  0  0  0  0  0  0  0  0
  -20.0469  -28.6784   21.3303 C   0  0  1  0  0  0  0  0  0  0  0  0
  -23.3040  -26.8529   22.0318 C   0  0  1  0  0  0  0  0  0  0  0  0
  -29.4221  -22.6183   19.6386 C   0  0  2  0  0  0  0  0  0  0  0  0
  -30.5456  -29.5932   21.8021 C   0  0  0  0  0  0  0  0  0  0  0  0
  -24.4212  -30.5260   19.4587 C   0  0  0  0  0  0  0  0  0  0  0  0
  -26.8633  -31.0680   19.3553 C   0  0  0  0  0  0  0  0  0  0  0  0
  -25.5656  -31.5569   21.4289 C   0  0  0  0  0  0  0  0  0  0  0  0
  -35.3472  -24.5839   18.6844 C   0  0  0  0  0  0  0  0  0  0  0  0
  -34.8386  -26.2489   16.8795 C   0  0  0  0  0  0  0  0  0  0  0  0
  -33.7226  -26.4452   19.1136 C   0  0  0  0  0  0  0  0  0  0  0  0
  -29.4584  -26.1442   22.9847 C   0  0  0  0  0  0  0  0  0  0  0  0
  -30.6983  -19.5958   13.9572 C   0  0  0  0  0  0  0  0  0  0  0  0
  -32.6709  -22.8136   13.5975 C   0  0  0  0  0  0  0  0  0  0  0  0
  -34.0130  -23.3899   14.0478 C   0  0  0  0  0  0  0  0  0  0  0  0
  -34.1075  -23.5211   15.5730 C   0  0  0  0  0  0  0  0  0  0  0  0
  -33.0656  -24.4789   16.1428 C   0  0  0  0  0  0  0  0  0  0  0  0
  -24.5716  -21.0367   17.6245 C   0  0  0  0  0  0  0  0  0  1  0  0
  -25.0991  -20.4273   16.3400 C   0  0  0  0  0  0  0  0  0  0  0  0
  -26.1149  -29.1586   20.8471 C   0  0  1  0  0  0  0  0  0  0  0  0
  -29.5631  -28.5430   22.2965 C   0  0  2  0  0  0  0  0  0  0  0  0
  -25.7323  -30.5506   20.2695 C   0  0  0  0  0  0  0  0  0  0  0  0
  -34.2590  -25.4658   18.0632 C   0  0  0  0  0  0  0  0  0  0  0  0
  -28.8818  -20.2302   19.9335 N   0  0  0  0  0  0  0  0  0  0  0  0
  -28.7981  -21.4791   20.4229 N   0  0  0  0  0  0  0  0  0  0  0  0
  -24.4868  -27.3594   21.3327 N   0  0  0  0  0  0  0  0  0  0  0  0
  -31.2531  -23.2820   18.1137 N   0  0  0  0  0  0  0  0  0  0  0  0
  -27.9603  -22.7423   22.2431 N   0  0  0  0  0  0  0  0  0  0  0  0
  -26.7265  -18.5166   23.2519 N   0  0  0  0  0  0  0  0  0  0  0  0
  -21.2581  -28.1404   21.9117 N   0  0  0  0  0  0  0  0  0  0  0  0
  -31.1850  -20.9182   13.6564 N   0  0  0  0  0  0  0  0  0  0  0  0
  -27.3380  -29.1574   21.6423 N   0  0  0  0  0  0  0  0  0  0  0  0
  -33.1709  -24.6197   17.5938 N   0  0  0  0  0  0  0  0  0  0  0  0
  -30.2990  -27.2600   22.4793 N   0  3  0  0  0  0  0  0  0  0  0  0
  -26.6473  -20.6977   23.9556 O   0  0  0  0  0  0  0  0  0  0  0  0
  -21.9614  -26.8724   20.0896 O   0  0  0  0  0  0  0  0  0  0  0  0
  -24.6946  -29.2019   22.7464 O   0  0  0  0  0  0  0  0  0  0  0  0
  -33.2198  -20.7667   14.7690 O   0  0  0  0  0  0  0  0  0  0  0  0
  -28.4690  -27.5852   20.3670 O   0  0  0  0  0  0  0  0  0  0  0  0
  -32.9638  -23.5644   19.6312 O   0  0  0  0  0  0  0  0  0  0  0  0
  -27.7543  -13.9688   20.2029 O   0  0  0  0  0  0  0  0  0  0  0  0
  -24.9543  -22.4103   17.6802 O   0  0  0  0  0  0  0  0  0  1  0  0
  -26.5190  -20.5119   16.3344 O   0  0  0  0  0  0  0  0  0  0  0  0
  -22.8313  -11.6954   21.2029 F   0  0  0  0  0  0  0  0  0  0  0  0
  -26.3998  -12.5919   18.2250 F   0  0  0  0  0  0  0  0  0  0  0  0
  1  2  1  0  0  0  0
  1  6  2  0  0  0  0
  2  7  2  0  0  0  0
  3  9  1  0  0  0  0
  3 10  2  0  0  0  0
  4 11  2  0  0  0  0
  4 19  1  0  0  0  0
  5 12  1  0  0  0  0
  5 19  2  0  0  0  0
  6 21  1  0  0  0  0
  7 23  1  0  0  0  0
  8 13  2  0  0  0  0
  8 22  1  0  0  0  0
  9 25  2  0  0  0  0
 10 28  1  0  0  0  0
 11 26  1  0  0  0  0
 12 26  2  0  0  0  0
 13 27  1  0  0  0  0
 14 15  2  0  0  0  0
 14 29  1  0  0  0  0
 15 30  1  0  0  0  0
 16 24  1  0  0  0  0
 16 27  2  0  0  0  0
 17 25  1  0  0  0  0
 17 28  2  0  0  0  0
 18 30  2  0  0  0  0
 18 31  1  0  0  0  0
 19 32  1  0  0  0  0
 20 32  1  0  0  0  0
 20 33  2  0  0  0  0
 20 34  1  0  0  0  0
 21 23  2  0  0  0  0
 21 40  1  0  0  0  0
 22 24  2  0  0  0  0
 22 41  1  0  0  0  0
 23 49  1  0  0  0  0
 24 42  1  0  0  0  0
 25 60  1  0  0  0  0
 26 88  1  0  0  0  0
 27 89  1  0  0  0  0
 28 90  1  0  0  0  0
 29 31  2  0  0  0  0
 29 88  1  0  0  0  0
 30 91  1  0  0  0  0
 31 92  1  0  0  0  0
 32 71  2  0  0  0  0
 33 72  1  0  0  0  0
 33 75  1  0  0  0  0
 34 76  1  0  0  0  0
 34 82  2  0  0  0  0
 35 50  1  0  0  0  0
 35 77  1  0  0  0  0
 35 83  2  0  0  0  0
 36 67  1  0  0  0  0
 36 73  1  0  0  0  0
 36 84  2  0  0  0  0
 37 61  1  0  0  0  0
 37 78  1  0  0  0  0
 37 85  2  0  0  0  0
 38 68  1  0  0  0  0
 38 79  1  0  0  0  0
 38 86  2  0  0  0  0
 39 74  1  0  0  0  0
 39 80  1  0  0  0  0
 39 87  2  0  0  0  0
 40 43  1  0  0  0  0
 41 50  1  0  0  0  0
 42 73  1  0  0  0  0
 43 45  1  0  0  0  0
 44 46  1  0  0  0  0
 44 47  1  0  0  0  0
 45 49  1  0  0  0  0
 46 51  1  0  0  0  0
 47 74  1  0  0  0  0
 48 51  1  0  0  0  0
 48 74  1  0  0  0  0
 49 77  1  0  0  0  0
 50 73  1  0  0  0  0
 51 72  1  0  0  0  0
 52 68  1  0  0  0  0
 53 69  1  0  0  0  0
 54 69  1  0  0  0  0
 55 69  1  0  0  0  0
 56 70  1  0  0  0  0
 57 70  1  0  0  0  0
 58 70  1  0  0  0  0
 59 81  1  0  0  0  0
 60 78  1  0  0  0  0
 61 62  1  0  0  0  0
 62 63  1  0  0  0  0
 63 64  1  0  0  0  0
 64 80  1  0  0  0  0
 65 66  1  0  0  0  0
 65 89  1  0  0  0  0
 66 90  1  0  0  0  0
 67 69  1  0  0  0  0
 67 79  1  0  0  0  0
 68 81  1  0  0  0  0
 70 80  1  0  0  0  0
 71 72  1  0  0  0  0
M  CHG  1  81   1
M  ISO  4  39 100  65 101  80 100  89 101
M  END
> <Batch ID>
0003

> <Smiles>
CNC(C)C(=O)NC(C(=O)N1Cc2cc([101O:1][101CH2:1]COc3cccc(CNC(=O)CCCC[100N:0]([100C:0](=O)N4CCCC(n5nc(-c6ccc(Oc7ccc(F)cc7F)cc6)c(C(N)=O)c5N)C4)C(C)(C)C)c3)ccc2CC1C(=O)NC1CCCc2ccccc21)C(C)(C)C

> <Shape>
0.215

> <Color>
0.063

> <Negative vol penalty>
0.000

$$$$

  -OEChem-04052315213D

104112  0     1  0  0  0  0  0999 V2000
  -25.9349  -44.1813   25.8306 C   0  0  0  0  0  0  0  0  0  0  0  0
  -25.9030  -43.0170   25.0697 C   0  0  0  0  0  0  0  0  0  0  0  0
  -21.5259   -8.8441   21.1888 C   0  0  0  0  0  0  0  0  0  0  0  0
  -22.3802   -9.1321   23.4303 C   0  0  0  0  0  0  0  0  0  0  0  0
  -27.1570  -44.7760   26.1417 C   0  0  0  0  0  0  0  0  0  0  0  0
  -27.0931  -42.4474   24.6186 C   0  0  0  0  0  0  0  0  0  0  0  0
  -27.2258  -37.3470   25.2964 C   0  0  0  0  0  0  0  0  0  0  0  0
  -20.3944   -8.2098   21.7015 C   0  0  0  0  0  0  0  0  0  0  0  0
  -21.2486   -8.4978   23.9430 C   0  0  0  0  0  0  0  0  0  0  0  0
  -26.5250  -36.5411   24.4001 C   0  0  0  0  0  0  0  0  0  0  0  0
  -17.4493   -6.1938   22.3983 C   0  0  0  0  0  0  0  0  0  0  0  0
  -17.0191   -5.0246   21.7711 C   0  0  0  0  0  0  0  0  0  0  0  0
  -28.5672  -36.1268   23.1852 C   0  0  0  0  0  0  0  0  0  0  0  0
  -19.1428   -3.9812   22.2595 C   0  0  0  0  0  0  0  0  0  0  0  0
  -22.5189   -9.3052   22.0532 C   0  0  0  0  0  0  0  0  0  0  0  0
  -23.8560  -11.3368   21.2835 C   0  0  0  0  0  0  0  0  0  0  0  0
  -28.3632  -44.2081   25.7023 C   0  0  0  0  0  0  0  0  0  0  0  0
  -28.6031  -37.5578   25.1379 C   0  0  0  0  0  0  0  0  0  0  0  0
  -28.3324  -43.0359   24.9229 C   0  0  0  0  0  0  0  0  0  0  0  0
  -29.2839  -36.9318   24.0836 C   0  0  0  0  0  0  0  0  0  0  0  0
  -20.2557   -8.0367   23.0786 C   0  0  0  0  0  0  0  0  0  0  0  0
  -27.1953  -35.9327   23.3430 C   0  0  0  0  0  0  0  0  0  0  0  0
  -18.7262   -6.2568   22.9561 C   0  0  0  0  0  0  0  0  0  0  0  0
  -17.8659   -3.9183   21.7017 C   0  0  0  0  0  0  0  0  0  0  0  0
  -19.5730   -5.1505   22.8868 C   0  0  0  0  0  0  0  0  0  0  0  0
  -23.6883   -9.9599   21.5241 C   0  0  0  0  0  0  0  0  0  0  0  0
  -25.1310  -11.4454   20.7846 C   0  0  0  0  0  0  0  0  0  0  0  0
  -22.9410  -12.4207   21.4925 C   0  0  0  0  0  0  0  0  0  0  0  0
  -30.5232  -40.0727   24.6538 C   0  0  0  0  0  0  0  0  0  0  0  0
  -28.4458  -15.2942   17.8093 C   0  0  0  0  0  0  0  0  0  0  0  0
  -32.8394  -37.7188   25.0388 C   0  0  0  0  0  0  0  0  0  0  0  0
  -29.4986  -17.0548   19.2708 C   0  0  0  0  0  0  0  0  0  0  0  0
  -35.2014  -40.1626   25.3363 C   0  0  0  0  0  0  0  0  0  0  0  0
  -30.5494  -10.1183   20.9450 C   0  0  0  0  0  0  0  0  0  0  0  0
  -29.6571  -44.9132   26.0237 C   0  0  0  0  0  0  0  0  0  0  0  0
  -29.3463  -38.4066   26.1337 C   0  0  0  0  0  0  0  0  0  0  0  0
  -30.7615  -37.1234   23.8727 C   0  0  0  0  0  0  0  0  0  0  0  0
  -30.8929  -44.0396   25.8236 C   0  0  0  0  0  0  0  0  0  0  0  0
  -28.3710   -7.8869   19.2268 C   0  0  0  0  0  0  0  0  0  0  0  0
  -28.4356  -12.1310   15.9077 C   0  0  0  0  0  0  0  0  0  0  0  0
  -30.8187  -43.3080   24.4872 C   0  0  0  0  0  0  0  0  0  0  0  0
  -28.7307  -12.8742   17.1969 C   0  0  0  0  0  0  0  0  0  0  0  0
  -26.9735   -8.3369   19.6563 C   0  0  0  0  0  0  0  0  0  0  0  0
  -29.3795   -8.0128   20.3666 C   0  0  0  0  0  0  0  0  0  0  0  0
  -28.0462   -9.7968   21.4217 C   0  0  0  0  0  0  0  0  0  0  0  0
  -27.4513  -13.0412   15.2058 C   0  0  0  0  0  0  0  0  0  0  0  0
  -29.6033  -42.3743   24.4361 C   0  0  1  0  0  0  0  0  0  0  0  0
  -30.6842  -38.9277   25.6132 C   0  0  1  0  0  0  0  0  0  0  0  0
  -28.8437  -14.3236   16.7516 C   0  0  1  0  0  0  0  0  0  0  0  0
  -27.0064   -9.7409   20.2895 C   0  0  2  0  0  0  0  0  0  0  0  0
  -37.6158  -40.5070   25.9277 C   0  0  0  0  0  0  0  0  0  0  0  0
  -20.9179  -28.0513   23.5806 C   0  0  0  0  0  0  0  0  0  0  0  0
  -19.8622  -29.4380   21.7820 C   0  0  0  0  0  0  0  0  0  0  0  0
  -32.1632  -37.3642   27.9922 C   0  0  0  0  0  0  0  0  0  0  0  0
  -34.2606  -38.6125   28.5497 C   0  0  0  0  0  0  0  0  0  0  0  0
  -34.3898  -36.4492   27.3143 C   0  0  0  0  0  0  0  0  0  0  0  0
  -35.8208  -41.2604   22.6586 C   0  0  0  0  0  0  0  0  0  0  0  0
  -28.2533  -17.9141   19.0799 C   0  0  0  0  0  0  0  0  0  0  0  0
  -28.3175  -19.2625   19.8037 C   0  0  0  0  0  0  0  0  0  0  0  0
  -27.0969  -20.1683   19.5926 C   0  0  0  0  0  0  0  0  0  0  0  0
  -27.1865  -21.4976   20.3478 C   0  0  0  0  0  0  0  0  0  0  0  0
  -25.9904  -22.4192   20.0852 C   0  0  0  0  0  0  0  0  0  0  0  0
  -26.0655  -23.7392   20.8569 C   0  0  0  0  0  0  0  0  0  0  0  0
  -24.8668  -24.6593   20.6008 C   0  0  0  0  0  0  0  0  0  0  0  0
  -24.8581  -25.9714   21.3932 C   0  0  0  0  0  0  0  0  0  0  0  0
  -23.5953  -26.8063   21.1665 C   0  0  0  0  0  0  0  0  0  0  0  0
  -31.7303  -13.1643   20.3281 C   0  0  0  0  0  0  0  0  0  0  0  0
  -30.5119  -14.0650   20.0919 C   0  0  0  0  0  0  0  0  0  0  0  0
  -23.9944  -32.3566   22.6853 C   0  0  0  0  0  0  0  0  0  0  0  0
  -25.1916  -33.1591   22.1813 C   0  0  0  0  0  0  0  0  0  0  0  0
  -23.5889  -28.1216   21.9548 C   0  0  0  0  0  0  0  0  0  0  0  0
  -31.5768  -12.2895   21.5690 C   0  0  0  0  0  0  0  0  0  0  0  0
  -30.6679  -14.9479   18.8576 C   0  0  0  0  0  0  0  0  0  0  0  0
  -23.8507  -31.0501   21.9191 C   0  0  0  0  0  0  0  0  0  0  0  0
  -25.3744  -34.4497   22.9672 C   0  0  0  0  0  0  0  0  0  1  0  0
  -33.5299  -38.5071   26.1236 C   0  0  1  0  0  0  0  0  0  0  0  0
  -36.6198  -40.2629   24.8046 C   0  0  2  0  0  0  0  0  0  0  0  0
  -21.0059  -28.4700   22.1100 C   0  0  0  0  0  0  0  0  0  0  0  0
  -22.3836  -29.0411   21.6948 C   0  0  1  0  0  0  0  0  0  0  0  0
  -33.5660  -37.7450   27.4784 C   0  0  0  0  0  0  0  0  0  0  0  0
  -24.7703   -9.2450   21.2041 N   0  0  0  0  0  0  0  0  0  0  0  0
  -25.6300  -10.1763   20.7573 N   0  0  0  0  0  0  0  0  0  0  0  0
  -31.4544  -37.8893   24.9168 N   0  0  0  0  0  0  0  0  0  0  0  0
  -29.3621   -9.3681   20.9221 N   0  0  0  0  0  0  0  0  0  0  0  0
  -25.8628  -12.5016   20.3707 N   0  0  0  0  0  0  0  0  0  0  0  0
  -21.6717  -12.1328   22.0124 N   0  0  0  0  0  0  0  0  0  0  0  0
  -29.8638  -41.1642   25.1860 N   0  0  0  0  0  0  0  0  0  0  0  0
  -34.8458  -38.8566   25.5994 N   0  0  0  0  0  0  0  0  0  0  0  0
  -30.4438  -11.3953   21.4825 N   0  0  0  0  0  0  0  0  0  0  0  0
  -29.4935  -15.7921   18.6208 N   0  0  0  0  0  0  0  0  0  0  0  0
  -27.9117  -14.4223   15.5699 N   0  3  0  0  0  0  0  0  0  0  0  0
  -36.7288  -41.3833   23.8280 N   0  3  0  0  0  0  0  0  0  0  0  0
  -22.6524  -30.3280   22.4106 N   0  3  0  0  0  0  0  0  0  0  0  0
  -23.2343  -13.6073   21.2107 O   0  0  0  0  0  0  0  0  0  0  0  0
  -30.9659  -39.9738   23.5153 O   0  0  0  0  0  0  0  0  0  0  0  0
  -27.2518  -15.5697   17.9423 O   0  0  0  0  0  0  0  0  0  0  0  0
  -33.5060  -36.9662   24.3230 O   0  0  0  0  0  0  0  0  0  0  0  0
  -30.4306  -17.4575   19.9721 O   0  0  0  0  0  0  0  0  0  0  0  0
  -34.4823  -41.1449   25.5052 O   0  0  0  0  0  0  0  0  0  0  0  0
  -31.6228   -9.6843   20.5132 O   0  0  0  0  0  0  0  0  0  0  0  0
  -19.1515   -7.4181   23.5793 O   0  0  0  0  0  0  0  0  0  0  0  0
  -26.5087  -35.1394   22.4606 O   0  0  0  0  0  0  0  0  0  1  0  0
  -17.4521   -2.7950   21.1006 F   0  0  0  0  0  0  0  0  0  0  0  0
  -20.8004   -5.2047   23.4219 F   0  0  0  0  0  0  0  0  0  0  0  0
  1  2  1  0  0  0  0
  1  5  2  0  0  0  0
  2  6  2  0  0  0  0
  3  8  2  0  0  0  0
  3 15  1  0  0  0  0
  4  9  1  0  0  0  0
  4 15  2  0  0  0  0
  5 17  1  0  0  0  0
  6 19  1  0  0  0  0
  7 10  2  0  0  0  0
  7 18  1  0  0  0  0
  8 21  1  0  0  0  0
  9 21  2  0  0  0  0
 10 22  1  0  0  0  0
 11 12  2  0  0  0  0
 11 23  1  0  0  0  0
 12 24  1  0  0  0  0
 13 20  1  0  0  0  0
 13 22  2  0  0  0  0
 14 24  2  0  0  0  0
 14 25  1  0  0  0  0
 15 26  1  0  0  0  0
 16 26  1  0  0  0  0
 16 27  2  0  0  0  0
 16 28  1  0  0  0  0
 17 19  2  0  0  0  0
 17 35  1  0  0  0  0
 18 20  2  0  0  0  0
 18 36  1  0  0  0  0
 19 47  1  0  0  0  0
 20 37  1  0  0  0  0
 21101  1  0  0  0  0
 22102  1  0  0  0  0
 23 25  2  0  0  0  0
 23101  1  0  0  0  0
 24103  1  0  0  0  0
 25104  1  0  0  0  0
 26 81  2  0  0  0  0
 27 82  1  0  0  0  0
 27 85  1  0  0  0  0
 28 86  1  0  0  0  0
 28 94  2  0  0  0  0
 29 48  1  0  0  0  0
 29 87  1  0  0  0  0
 29 95  2  0  0  0  0
 30 49  1  0  0  0  0
 30 90  1  0  0  0  0
 30 96  2  0  0  0  0
 31 76  1  0  0  0  0
 31 83  1  0  0  0  0
 31 97  2  0  0  0  0
 32 58  1  0  0  0  0
 32 90  1  0  0  0  0
 32 98  2  0  0  0  0
 33 77  1  0  0  0  0
 33 88  1  0  0  0  0
 33 99  2  0  0  0  0
 34 84  1  0  0  0  0
 34 89  1  0  0  0  0
 34100  2  0  0  0  0
 35 38  1  0  0  0  0
 36 48  1  0  0  0  0
 37 83  1  0  0  0  0
 38 41  1  0  0  0  0
 39 43  1  0  0  0  0
 39 44  1  0  0  0  0
 40 42  1  0  0  0  0
 40 46  1  0  0  0  0
 41 47  1  0  0  0  0
 42 49  1  0  0  0  0
 43 50  1  0  0  0  0
 44 84  1  0  0  0  0
 45 50  1  0  0  0  0
 45 84  1  0  0  0  0
 46 91  1  0  0  0  0
 47 87  1  0  0  0  0
 48 83  1  0  0  0  0
 49 91  1  0  0  0  0
 50 82  1  0  0  0  0
 51 77  1  0  0  0  0
 52 78  1  0  0  0  0
 53 78  1  0  0  0  0
 54 80  1  0  0  0  0
 55 80  1  0  0  0  0
 56 80  1  0  0  0  0
 57 92  1  0  0  0  0
 58 59  1  0  0  0  0
 59 60  1  0  0  0  0
 60 61  1  0  0  0  0
 61 62  1  0  0  0  0
 62 63  1  0  0  0  0
 63 64  1  0  0  0  0
 64 65  1  0  0  0  0
 65 66  1  0  0  0  0
 66 71  1  0  0  0  0
 67 68  1  0  0  0  0
 67 72  1  0  0  0  0
 68 73  1  0  0  0  0
 69 70  1  0  0  0  0
 69 74  1  0  0  0  0
 70 75  1  0  0  0  0
 71 79  1  0  0  0  0
 72 89  1  0  0  0  0
 73 90  1  0  0  0  0
 74 93  1  0  0  0  0
 75102  1  0  0  0  0
 76 80  1  0  0  0  0
 76 88  1  0  0  0  0
 77 92  1  0  0  0  0
 78 79  1  0  0  0  0
 79 93  1  0  0  0  0
 81 82  1  0  0  0  0
M  CHG  3  91   1  92   1  93   1
M  ISO  4  34 100  75 101  89 100 102 101
M  END
> <Batch ID>
0003

> <Smiles>
CNC(C)C(=O)NC(C(=O)N1Cc2cc([101O:1][101CH2:1]CCCNC(CCCCCCCCCCC(=O)N(CCCC[100NH:0][100C:0](=O)N3CCCC(n4nc(-c5ccc(Oc6ccc(F)cc6F)cc5)c(C(N)=O)c4N)C3)C(=O)C3CCCN3)C(C)C)ccc2CC1C(=O)NC1CCCc2ccccc21)C(C)(C)C

> <Shape>
0.186

> <Color>
0.055

> <Negative vol penalty>
0.000

$$$$

  -OEChem-04052315213D

 84 92  0     1  0  0  0  0  0999 V2000
  -32.8780  -26.1582   14.6534 C   0  0  0  0  0  0  0  0  0  0  0  0
  -32.8429  -25.5062   15.8818 C   0  0  0  0  0  0  0  0  0  0  0  0
  -23.1594   -9.7348   20.0223 C   0  0  0  0  0  0  0  0  0  0  0  0
  -23.8451   -9.9190   22.3316 C   0  0  0  0  0  0  0  0  0  0  0  0
  -32.0365  -27.2446   14.4178 C   0  0  0  0  0  0  0  0  0  0  0  0
  -31.9669  -25.9409   16.8759 C   0  0  0  0  0  0  0  0  0  0  0  0
  -29.5387  -22.1139   19.1349 C   0  0  0  0  0  0  0  0  0  0  0  0
  -29.5824  -17.7666   22.9113 C   0  0  0  0  0  0  0  0  0  0  0  0
  -31.8131  -16.9646   22.4442 C   0  0  0  0  0  0  0  0  0  0  0  0
  -22.4495   -8.5731   20.3257 C   0  0  0  0  0  0  0  0  0  0  0  0
  -23.1351   -8.7574   22.6351 C   0  0  0  0  0  0  0  0  0  0  0  0
  -30.2475  -21.3846   20.0885 C   0  0  0  0  0  0  0  0  0  0  0  0
  -30.1088  -18.7290   23.7728 C   0  0  0  0  0  0  0  0  0  0  0  0
  -32.3395  -17.9271   23.3057 C   0  0  0  0  0  0  0  0  0  0  0  0
  -19.9198   -7.8794   23.1935 C   0  0  0  0  0  0  0  0  0  0  0  0
  -19.1278   -7.8871   24.3417 C   0  0  0  0  0  0  0  0  0  0  0  0
  -29.1533  -22.6270   21.8431 C   0  0  0  0  0  0  0  0  0  0  0  0
  -20.4133   -6.0495   25.2406 C   0  0  0  0  0  0  0  0  0  0  0  0
  -23.8573  -10.4077   21.0252 C   0  0  0  0  0  0  0  0  0  0  0  0
  -24.1126  -12.9308   20.7490 C   0  0  0  0  0  0  0  0  0  0  0  0
  -31.1429  -27.6868   15.4061 C   0  0  0  0  0  0  0  0  0  0  0  0
  -28.6385  -23.1144   19.5286 C   0  0  0  0  0  0  0  0  0  0  0  0
  -31.1136  -27.0350   16.6538 C   0  0  0  0  0  0  0  0  0  0  0  0
  -28.4325  -23.3658   20.8925 C   0  0  0  0  0  0  0  0  0  0  0  0
  -30.4346  -16.8843   22.2471 C   0  0  0  0  0  0  0  0  0  0  0  0
  -22.4373   -8.0844   21.6321 C   0  0  0  0  0  0  0  0  0  0  0  0
  -31.4874  -18.8093   23.9699 C   0  0  0  0  0  0  0  0  0  0  0  0
  -30.0570  -21.6430   21.4428 C   0  0  0  0  0  0  0  0  0  0  0  0
  -20.9585   -6.9568   23.0688 C   0  0  0  0  0  0  0  0  0  0  0  0
  -19.3746   -6.9722   25.3652 C   0  0  0  0  0  0  0  0  0  0  0  0
  -21.2053   -6.0419   24.0924 C   0  0  0  0  0  0  0  0  0  0  0  0
  -24.5913  -11.6075   20.7122 C   0  0  0  0  0  0  0  0  0  0  0  0
  -25.1884  -13.6957   20.3694 C   0  0  0  0  0  0  0  0  0  0  0  0
  -22.8119  -13.4246   21.0953 C   0  0  0  0  0  0  0  0  0  0  0  0
  -28.4395  -26.2552   19.0815 C   0  0  0  0  0  0  0  0  0  0  0  0
  -25.5797  -25.8927   20.5690 C   0  0  0  0  0  0  0  0  0  0  0  0
  -23.6256  -24.0609   22.6838 C   0  0  0  0  0  0  0  0  0  0  0  0
  -30.6056  -14.9553   20.6358 C   0  0  0  0  0  0  0  0  0  0  0  0
  -30.2862  -28.8951   15.1219 C   0  0  0  0  0  0  0  0  0  0  0  0
  -27.8618  -23.8739   18.4882 C   0  0  0  0  0  0  0  0  0  0  0  0
  -27.4625  -24.4154   21.3678 C   0  0  0  0  0  0  0  0  0  0  0  0
  -29.1214  -29.0583   16.0950 C   0  0  0  0  0  0  0  0  0  0  0  0
  -29.6539  -12.3528   18.4001 C   0  0  0  0  0  0  0  0  0  0  0  0
  -29.5964  -28.8713   17.5324 C   0  0  0  0  0  0  0  0  0  0  0  0
  -28.2126  -12.0357   18.8054 C   0  0  0  0  0  0  0  0  0  0  0  0
  -30.5215  -12.6933   19.6105 C   0  0  0  0  0  0  0  0  0  0  0  0
  -28.5469  -13.4336   20.8841 C   0  0  0  0  0  0  0  0  0  0  0  0
  -30.1595  -27.4614   17.7483 C   0  0  1  0  0  0  0  0  0  0  0  0
  -27.3524  -25.2220   18.9888 C   0  0  1  0  0  0  0  0  0  0  0  0
  -27.6189  -13.1478   19.6922 C   0  0  2  0  0  0  0  0  0  0  0  0
  -21.3477  -24.0360   23.7364 C   0  0  0  0  0  0  0  0  0  0  0  0
  -31.9276  -22.1361   26.5088 C   0  0  0  0  0  0  0  0  0  0  0  0
  -33.4550  -23.2603   24.8794 C   0  0  0  0  0  0  0  0  0  0  0  0
  -26.4600  -28.0677   22.5195 C   0  0  0  0  0  0  0  0  0  0  0  0
  -24.6202  -27.3393   24.0534 C   0  0  0  0  0  0  0  0  0  0  0  0
  -24.0741  -28.2268   21.7870 C   0  0  0  0  0  0  0  0  0  0  0  0
  -33.3865  -20.7314   23.1387 C   0  0  0  0  0  0  0  0  0  0  0  0
  -22.9314  -21.4879   21.3966 C   0  0  0  0  0  0  0  0  0  0  0  0
  -31.0467  -21.5938   23.6048 C   0  0  0  0  0  0  0  0  0  1  0  0
  -25.1080  -25.9297   22.0025 C   0  0  1  0  0  0  0  0  0  0  0  0
  -22.1941  -23.5705   22.5618 C   0  0  2  0  0  0  0  0  0  0  0  0
  -32.9204  -21.9068   25.3591 C   0  0  0  0  0  0  0  0  0  0  0  0
  -25.0854  -27.3724   22.5819 C   0  0  0  0  0  0  0  0  0  0  0  0
  -32.3339  -21.0175   24.2210 C   0  0  2  0  0  0  0  0  0  0  0  0
  -25.8714  -11.5323   20.3387 N   0  0  0  0  0  0  0  0  0  0  0  0
  -26.2063  -12.8181   20.1371 N   0  0  0  0  0  0  0  0  0  0  0  0
  -26.7315  -25.1356   20.3121 N   0  0  0  0  0  0  0  0  0  0  0  0
  -29.8985  -13.7571   20.4011 N   0  0  0  0  0  0  0  0  0  0  0  0
  -25.3535  -15.0266   20.2149 N   0  0  0  0  0  0  0  0  0  0  0  0
  -21.8227  -12.5018   21.4618 N   0  0  0  0  0  0  0  0  0  0  0  0
  -29.8999  -15.9065   21.3719 N   0  0  0  0  0  0  0  0  0  0  0  0
  -29.0838  -26.5029   17.8844 N   0  0  0  0  0  0  0  0  0  0  0  0
  -23.8137  -25.2569   22.0239 N   0  0  0  0  0  0  0  0  0  0  0  0
  -22.1587  -22.0813   22.5180 N   0  3  0  0  0  0  0  0  0  0  0  0
  -22.5302  -14.6466   21.0643 O   0  0  0  0  0  0  0  0  0  0  0  0
  -28.6752  -26.7892   20.1590 O   0  0  0  0  0  0  0  0  0  0  0  0
  -24.9453  -26.5070   19.7076 O   0  0  0  0  0  0  0  0  0  0  0  0
  -24.4895  -23.4464   23.3056 O   0  0  0  0  0  0  0  0  0  0  0  0
  -31.7423  -15.1357   20.1916 O   0  0  0  0  0  0  0  0  0  0  0  0
  -21.7444   -6.9510   21.9287 O   0  0  0  0  0  0  0  0  0  0  0  0
  -30.7481  -20.9331   22.3757 O   0  0  0  0  0  0  0  0  0  1  0  0
  -32.0020  -19.7501   24.8120 O   0  0  0  0  0  0  0  0  0  0  0  0
  -18.6150   -6.9806   26.4684 F   0  0  0  0  0  0  0  0  0  0  0  0
  -22.2025   -5.1539   23.9789 F   0  0  0  0  0  0  0  0  0  0  0  0
  1  2  1  0  0  0  0
  1  5  2  0  0  0  0
  2  6  2  0  0  0  0
  3 10  2  0  0  0  0
  3 19  1  0  0  0  0
  4 11  1  0  0  0  0
  4 19  2  0  0  0  0
  5 21  1  0  0  0  0
  6 23  1  0  0  0  0
  7 12  2  0  0  0  0
  7 22  1  0  0  0  0
  8 13  2  0  0  0  0
  8 25  1  0  0  0  0
  9 14  1  0  0  0  0
  9 25  2  0  0  0  0
 10 26  1  0  0  0  0
 11 26  2  0  0  0  0
 12 28  1  0  0  0  0
 13 27  1  0  0  0  0
 14 27  2  0  0  0  0
 15 16  2  0  0  0  0
 15 29  1  0  0  0  0
 16 30  1  0  0  0  0
 17 24  1  0  0  0  0
 17 28  2  0  0  0  0
 18 30  2  0  0  0  0
 18 31  1  0  0  0  0
 19 32  1  0  0  0  0
 20 32  1  0  0  0  0
 20 33  2  0  0  0  0
 20 34  1  0  0  0  0
 21 23  2  0  0  0  0
 21 39  1  0  0  0  0
 22 24  2  0  0  0  0
 22 40  1  0  0  0  0
 23 48  1  0  0  0  0
 24 41  1  0  0  0  0
 25 71  1  0  0  0  0
 26 80  1  0  0  0  0
 27 82  1  0  0  0  0
 28 81  1  0  0  0  0
 29 31  2  0  0  0  0
 29 80  1  0  0  0  0
 30 83  1  0  0  0  0
 31 84  1  0  0  0  0
 32 65  2  0  0  0  0
 33 66  1  0  0  0  0
 33 69  1  0  0  0  0
 34 70  1  0  0  0  0
 34 75  2  0  0  0  0
 35 49  1  0  0  0  0
 35 72  1  0  0  0  0
 35 76  2  0  0  0  0
 36 60  1  0  0  0  0
 36 67  1  0  0  0  0
 36 77  2  0  0  0  0
 37 61  1  0  0  0  0
 37 73  1  0  0  0  0
 37 78  2  0  0  0  0
 38 68  1  0  0  0  0
 38 71  1  0  0  0  0
 38 79  2  0  0  0  0
 39 42  1  0  0  0  0
 40 49  1  0  0  0  0
 41 67  1  0  0  0  0
 42 44  1  0  0  0  0
 43 45  1  0  0  0  0
 43 46  1  0  0  0  0
 44 48  1  0  0  0  0
 45 50  1  0  0  0  0
 46 68  1  0  0  0  0
 47 50  1  0  0  0  0
 47 68  1  0  0  0  0
 48 72  1  0  0  0  0
 49 67  1  0  0  0  0
 50 66  1  0  0  0  0
 51 61  1  0  0  0  0
 52 62  1  0  0  0  0
 53 62  1  0  0  0  0
 54 63  1  0  0  0  0
 55 63  1  0  0  0  0
 56 63  1  0  0  0  0
 57 64  1  0  0  0  0
 58 74  1  0  0  0  0
 59 64  1  0  0  0  0
 59 81  1  0  0  0  0
 60 63  1  0  0  0  0
 60 73  1  0  0  0  0
 61 74  1  0  0  0  0
 62 64  1  0  0  0  0
 64 82  1  0  0  0  0
 65 66  1  0  0  0  0
M  CHG  1  74   1
M  ISO  4  38 100  59 101  71 100  81 101
M  END
> <Batch ID>
0003

> <Smiles>
CNC(C)C(=O)NC(C(=O)N1Cc2cc([101O:1][101CH2:1]C(C)(Oc3ccc([100NH:0][100C:0](=O)N4CCCC(n5nc(-c6ccc(Oc7ccc(F)cc7F)cc6)c(C(N)=O)c5N)C4)cc3)C(C)C)ccc2CC1C(=O)NC1CCCc2ccccc21)C(C)(C)C

> <Shape>
0.238

> <Color>
0.208

> <Negative vol penalty>
0.000

$$$$

  -OEChem-04052315213D

 78 86  0     1  0  0  0  0  0999 V2000
  -26.7739  -32.6995   28.1675 C   0  0  0  0  0  0  0  0  0  0  0  0
  -27.2042  -31.6974   27.3039 C   0  0  0  0  0  0  0  0  0  0  0  0
  -27.9925  -22.3141   16.9447 C   0  0  0  0  0  0  0  0  0  0  0  0
  -26.5064  -12.7174   21.6170 C   0  0  0  0  0  0  0  0  0  0  0  0
  -26.0125  -13.7464   19.4877 C   0  0  0  0  0  0  0  0  0  0  0  0
  -25.4236  -33.0436   28.2165 C   0  0  0  0  0  0  0  0  0  0  0  0
  -26.2843  -31.0379   26.4894 C   0  0  0  0  0  0  0  0  0  0  0  0
  -27.2352  -28.9309   20.8182 C   0  0  0  0  0  0  0  0  0  0  0  0
  -27.8815  -23.5924   17.4918 C   0  0  0  0  0  0  0  0  0  0  0  0
  -28.5263  -21.2739   17.7054 C   0  0  0  0  0  0  0  0  0  0  0  0
  -25.2502  -12.1112   21.6155 C   0  0  0  0  0  0  0  0  0  0  0  0
  -24.7563  -13.1402   19.4860 C   0  0  0  0  0  0  0  0  0  0  0  0
  -27.5382  -27.6615   20.3277 C   0  0  0  0  0  0  0  0  0  0  0  0
  -23.7752   -9.4401   20.1584 C   0  0  0  0  0  0  0  0  0  0  0  0
  -23.7052   -8.0929   20.5128 C   0  0  0  0  0  0  0  0  0  0  0  0
  -25.1982  -27.2824   19.8806 C   0  0  0  0  0  0  0  0  0  0  0  0
  -28.8381  -22.7902   19.5602 C   0  0  0  0  0  0  0  0  0  0  0  0
  -22.2435   -8.6529   22.3531 C   0  0  0  0  0  0  0  0  0  0  0  0
  -26.8875  -13.5351   20.5531 C   0  0  0  0  0  0  0  0  0  0  0  0
  -29.3811  -13.6417   20.0253 C   0  0  0  0  0  0  0  0  0  0  0  0
  -24.4882  -32.3946   27.3953 C   0  0  0  0  0  0  0  0  0  0  0  0
  -25.9080  -29.3822   20.8538 C   0  0  0  0  0  0  0  0  0  0  0  0
  -24.9201  -31.3726   26.5285 C   0  0  0  0  0  0  0  0  0  0  0  0
  -24.8813  -28.5589   20.3697 C   0  0  0  0  0  0  0  0  0  0  0  0
  -28.3043  -23.8305   18.7995 C   0  0  0  0  0  0  0  0  0  0  0  0
  -28.9491  -21.5119   19.0131 C   0  0  0  0  0  0  0  0  0  0  0  0
  -24.3751  -12.3225   20.5500 C   0  0  0  0  0  0  0  0  0  0  0  0
  -26.5193  -26.8359   19.8615 C   0  0  0  0  0  0  0  0  0  0  0  0
  -23.0795  -10.3938   20.9015 C   0  0  0  0  0  0  0  0  0  0  0  0
  -22.9393   -7.6992   21.6101 C   0  0  0  0  0  0  0  0  0  0  0  0
  -22.3136  -10.0001   21.9988 C   0  0  0  0  0  0  0  0  0  0  0  0
  -28.1848  -14.1621   20.5545 C   0  0  0  0  0  0  0  0  0  0  0  0
  -30.3189  -14.6133   20.2763 C   0  0  0  0  0  0  0  0  0  0  0  0
  -29.6229  -12.3918   19.3657 C   0  0  0  0  0  0  0  0  0  0  0  0
  -23.8999  -30.2656   23.1541 C   0  0  0  0  0  0  0  0  0  0  0  0
  -21.9913  -31.0484   20.6508 C   0  0  0  0  0  0  0  0  0  0  0  0
  -21.1684  -30.5681   17.3737 C   0  0  0  0  0  0  0  0  0  0  0  0
  -29.9572  -20.5208   21.0983 C   0  0  0  0  0  0  0  0  0  0  0  0
  -23.0321  -32.7683   27.5176 C   0  0  0  0  0  0  0  0  0  0  0  0
  -25.6007  -30.7644   21.3612 C   0  0  0  0  0  0  0  0  0  0  0  0
  -23.4424  -29.0040   20.3674 C   0  0  0  0  0  0  0  0  0  0  0  0
  -22.1777  -32.2795   26.3509 C   0  0  0  0  0  0  0  0  0  0  0  0
  -31.3281  -18.1363   23.3592 C   0  0  0  0  0  0  0  0  0  0  0  0
  -22.4919  -30.8209   26.0335 C   0  0  0  0  0  0  0  0  0  0  0  0
  -30.7915  -16.7986   22.8447 C   0  0  0  0  0  0  0  0  0  0  0  0
  -30.2992  -19.2555   23.2095 C   0  0  0  0  0  0  0  0  0  0  0  0
  -29.2062  -18.0732   21.3449 C   0  0  0  0  0  0  0  0  0  0  0  0
  -23.9563  -30.6512   25.6115 C   0  0  1  0  0  0  0  0  0  0  0  0
  -24.1568  -30.9225   21.8274 C   0  0  1  0  0  0  0  0  0  0  0  0
  -30.2305  -16.9288   21.4151 C   0  0  2  0  0  0  0  0  0  0  0  0
  -19.5398  -31.3237   15.6205 C   0  0  0  0  0  0  0  0  0  0  0  0
  -19.8198  -29.3285   21.9301 C   0  0  0  0  0  0  0  0  0  0  0  0
  -18.6126  -29.3443   19.7367 C   0  0  0  0  0  0  0  0  0  0  0  0
  -19.0056  -31.4839   20.9576 C   0  0  0  0  0  0  0  0  0  0  0  0
  -23.3324  -31.6255   15.6538 C   0  0  0  0  0  0  0  0  0  0  0  0
  -28.1847  -25.2057   19.3875 C   0  0  0  0  0  0  0  0  0  1  0  0
  -20.9499  -30.3236   19.8328 C   0  0  1  0  0  0  0  0  0  0  0  0
  -20.9071  -31.5505   16.2463 C   0  0  2  0  0  0  0  0  0  0  0  0
  -19.6238  -30.1106   20.6160 C   0  0  0  0  0  0  0  0  0  0  0  0
  -28.3453  -15.3704   21.1006 N   0  0  0  0  0  0  0  0  0  0  0  0
  -29.6533  -15.6173   20.9160 N   0  0  0  0  0  0  0  0  0  0  0  0
  -23.1921  -30.3615   20.8793 N   0  0  0  0  0  0  0  0  0  0  0  0
  -29.8156  -19.3219   21.8287 N   0  0  0  0  0  0  0  0  0  0  0  0
  -31.6396  -14.6981   20.0102 N   0  0  0  0  0  0  0  0  0  0  0  0
  -28.5477  -11.5102   19.1899 N   0  0  0  0  0  0  0  0  0  0  0  0
  -29.4906  -20.4548   19.7858 N   0  0  0  0  0  0  0  0  0  0  0  0
  -24.1410  -31.0823   24.2423 N   0  0  0  0  0  0  0  0  0  0  0  0
  -20.7987  -31.0848   18.5974 N   0  0  0  0  0  0  0  0  0  0  0  0
  -21.9408  -31.4053   15.1827 N   0  3  0  0  0  0  0  0  0  0  0  0
  -30.7622  -12.0595   18.9593 O   0  0  0  0  0  0  0  0  0  0  0  0
  -23.5105  -29.1042   23.1878 O   0  0  0  0  0  0  0  0  0  0  0  0
  -21.7511  -32.1850   21.0655 O   0  0  0  0  0  0  0  0  0  0  0  0
  -21.6488  -29.4523   17.1870 O   0  0  0  0  0  0  0  0  0  0  0  0
  -30.4803  -21.5233   21.5915 O   0  0  0  0  0  0  0  0  0  0  0  0
  -23.1494  -11.7309   20.5480 O   0  0  0  0  0  0  0  0  0  0  0  0
  -26.8122  -25.5962   19.3828 O   0  0  0  0  0  0  0  0  0  1  0  0
  -22.8709   -6.4052   21.9493 F   0  0  0  0  0  0  0  0  0  0  0  0
  -21.6420  -10.9116   22.7158 F   0  0  0  0  0  0  0  0  0  0  0  0
  1  2  1  0  0  0  0
  1  6  2  0  0  0  0
  2  7  2  0  0  0  0
  3  9  2  0  0  0  0
  3 10  1  0  0  0  0
  4 11  2  0  0  0  0
  4 19  1  0  0  0  0
  5 12  1  0  0  0  0
  5 19  2  0  0  0  0
  6 21  1  0  0  0  0
  7 23  1  0  0  0  0
  8 13  2  0  0  0  0
  8 22  1  0  0  0  0
  9 25  1  0  0  0  0
 10 26  2  0  0  0  0
 11 27  1  0  0  0  0
 12 27  2  0  0  0  0
 13 28  1  0  0  0  0
 14 15  2  0  0  0  0
 14 29  1  0  0  0  0
 15 30  1  0  0  0  0
 16 24  1  0  0  0  0
 16 28  2  0  0  0  0
 17 25  2  0  0  0  0
 17 26  1  0  0  0  0
 18 30  2  0  0  0  0
 18 31  1  0  0  0  0
 19 32  1  0  0  0  0
 20 32  1  0  0  0  0
 20 33  2  0  0  0  0
 20 34  1  0  0  0  0
 21 23  2  0  0  0  0
 21 39  1  0  0  0  0
 22 24  2  0  0  0  0
 22 40  1  0  0  0  0
 23 48  1  0  0  0  0
 24 41  1  0  0  0  0
 25 56  1  0  0  0  0
 26 66  1  0  0  0  0
 27 75  1  0  0  0  0
 28 76  1  0  0  0  0
 29 31  2  0  0  0  0
 29 75  1  0  0  0  0
 30 77  1  0  0  0  0
 31 78  1  0  0  0  0
 32 60  2  0  0  0  0
 33 61  1  0  0  0  0
 33 64  1  0  0  0  0
 34 65  1  0  0  0  0
 34 70  2  0  0  0  0
 35 49  1  0  0  0  0
 35 67  1  0  0  0  0
 35 71  2  0  0  0  0
 36 57  1  0  0  0  0
 36 62  1  0  0  0  0
 36 72  2  0  0  0  0
 37 58  1  0  0  0  0
 37 68  1  0  0  0  0
 37 73  2  0  0  0  0
 38 63  1  0  0  0  0
 38 66  1  0  0  0  0
 38 74  2  0  0  0  0
 39 42  1  0  0  0  0
 40 49  1  0  0  0  0
 41 62  1  0  0  0  0
 42 44  1  0  0  0  0
 43 45  1  0  0  0  0
 43 46  1  0  0  0  0
 44 48  1  0  0  0  0
 45 50  1  0  0  0  0
 46 63  1  0  0  0  0
 47 50  1  0  0  0  0
 47 63  1  0  0  0  0
 48 67  1  0  0  0  0
 49 62  1  0  0  0  0
 50 61  1  0  0  0  0
 51 58  1  0  0  0  0
 52 59  1  0  0  0  0
 53 59  1  0  0  0  0
 54 59  1  0  0  0  0
 55 69  1  0  0  0  0
 56 76  1  0  0  0  0
 57 59  1  0  0  0  0
 57 68  1  0  0  0  0
 58 69  1  0  0  0  0
 60 61  1  0  0  0  0
M  CHG  1  69   1
M  ISO  4  38 100  56 101  66 100  76 101
M  END
> <Batch ID>
0003

> <Smiles>
CNC(C)C(=O)NC(C(=O)N1Cc2cc([101O:1][101CH2:1]c3cccc([100NH:0][100C:0](=O)N4CCCC(n5nc(-c6ccc(Oc7ccc(F)cc7F)cc6)c(C(N)=O)c5N)C4)c3)ccc2CC1C(=O)NC1CCCc2ccccc21)C(C)(C)C

> <Shape>
0.294

> <Color>
0.112

> <Negative vol penalty>
0.000

$$$$

  -OEChem-04052315213D

 83 91  0     1  0  0  0  0  0999 V2000
  -33.9208  -25.3539   32.0477 C   0  0  0  0  0  0  0  0  0  0  0  0
  -33.2966  -24.1201   31.8941 C   0  0  0  0  0  0  0  0  0  0  0  0
  -33.8822  -11.6649   24.1037 C   0  0  0  0  0  0  0  0  0  0  0  0
  -23.1564   -9.8646   20.0535 C   0  0  0  0  0  0  0  0  0  0  0  0
  -23.8014   -9.9806   22.3789 C   0  0  0  0  0  0  0  0  0  0  0  0
  -33.4101  -11.6837   25.4161 C   0  0  0  0  0  0  0  0  0  0  0  0
  -33.8724  -26.2915   31.0170 C   0  0  0  0  0  0  0  0  0  0  0  0
  -32.6226  -23.8236   30.7099 C   0  0  0  0  0  0  0  0  0  0  0  0
  -33.6586  -19.1719   28.9973 C   0  0  0  0  0  0  0  0  0  0  0  0
  -33.0328  -12.0086   23.0520 C   0  0  0  0  0  0  0  0  0  0  0  0
  -22.4110   -8.7156   20.3176 C   0  0  0  0  0  0  0  0  0  0  0  0
  -23.0560   -8.8316   22.6430 C   0  0  0  0  0  0  0  0  0  0  0  0
  -33.0145  -18.1051   29.6225 C   0  0  0  0  0  0  0  0  0  0  0  0
  -22.9967   -5.4195   20.7835 C   0  0  0  0  0  0  0  0  0  0  0  0
  -23.1189   -4.3504   19.8961 C   0  0  0  0  0  0  0  0  0  0  0  0
  -31.2392  -12.3897   24.6250 C   0  0  0  0  0  0  0  0  0  0  0  0
  -31.4210  -18.0151   27.8137 C   0  0  0  0  0  0  0  0  0  0  0  0
  -20.7534   -4.4748   19.4204 C   0  0  0  0  0  0  0  0  0  0  0  0
  -23.8517  -10.4971   21.0841 C   0  0  0  0  0  0  0  0  0  0  0  0
  -32.0886  -12.0460   25.6768 C   0  0  0  0  0  0  0  0  0  0  0  0
  -24.1773  -13.0180   20.8689 C   0  0  0  0  0  0  0  0  0  0  0  0
  -33.2057  -26.0027   29.8158 C   0  0  0  0  0  0  0  0  0  0  0  0
  -33.1814  -19.6762   27.7789 C   0  0  0  0  0  0  0  0  0  0  0  0
  -32.5641  -24.7588   29.6626 C   0  0  0  0  0  0  0  0  0  0  0  0
  -32.0624  -19.0867   27.1738 C   0  0  0  0  0  0  0  0  0  0  0  0
  -31.7113  -12.3709   23.3126 C   0  0  0  0  0  0  0  0  0  0  0  0
  -22.3607   -8.1991   21.6123 C   0  0  0  0  0  0  0  0  0  0  0  0
  -31.8938  -17.5284   29.0321 C   0  0  0  0  0  0  0  0  0  0  0  0
  -21.7528   -6.0162   20.9896 C   0  0  0  0  0  0  0  0  0  0  0  0
  -21.9973   -3.8781   19.2145 C   0  0  0  0  0  0  0  0  0  0  0  0
  -20.6312   -5.5439   20.3080 C   0  0  0  0  0  0  0  0  0  0  0  0
  -24.6223  -11.6837   20.8118 C   0  0  0  0  0  0  0  0  0  0  0  0
  -25.2797  -13.7626   20.5268 C   0  0  0  0  0  0  0  0  0  0  0  0
  -31.5871  -12.0656   27.0751 C   0  0  0  0  0  0  0  0  0  0  0  0
  -22.8832  -13.5380   21.2015 C   0  0  0  0  0  0  0  0  0  0  0  0
  -32.0354  -22.4766   26.8051 C   0  0  0  0  0  0  0  0  0  0  0  0
  -32.1036  -21.0509   23.8922 C   0  0  0  0  0  0  0  0  0  0  0  0
  -32.0809  -18.1585   22.0810 C   0  0  0  0  0  0  0  0  0  0  0  0
  -31.1584  -12.7537   20.8848 C   0  0  0  0  0  0  0  0  0  0  0  0
  -33.1400  -27.0659   28.7482 C   0  0  0  0  0  0  0  0  0  0  0  0
  -33.9034  -20.8101   27.1041 C   0  0  0  0  0  0  0  0  0  0  0  0
  -31.5224  -19.5778   25.8563 C   0  0  0  0  0  0  0  0  0  0  0  0
  -32.7245  -26.5308   27.3803 C   0  0  0  0  0  0  0  0  0  0  0  0
  -29.3052  -13.5238   17.9438 C   0  0  0  0  0  0  0  0  0  0  0  0
  -31.5162  -25.6091   27.5121 C   0  0  0  0  0  0  0  0  0  0  0  0
  -27.8530  -13.2666   18.3525 C   0  0  0  0  0  0  0  0  0  0  0  0
  -30.2605  -12.5157   18.5800 C   0  0  0  0  0  0  0  0  0  0  0  0
  -28.7000  -12.1360   20.4481 C   0  0  0  0  0  0  0  0  0  0  0  0
  -31.8443  -24.3906   28.3834 C   0  0  1  0  0  0  0  0  0  0  0  0
  -33.0248  -21.5767   26.1203 C   0  0  1  0  0  0  0  0  0  0  0  0
  -27.7079  -13.1660   19.8837 C   0  0  2  0  0  0  0  0  0  0  0  0
  -32.1069  -17.3136   19.7183 C   0  0  0  0  0  0  0  0  0  0  0  0
  -29.1632  -21.8084   23.5915 C   0  0  0  0  0  0  0  0  0  0  0  0
  -29.0022  -20.1589   21.7149 C   0  0  0  0  0  0  0  0  0  0  0  0
  -30.5366  -22.1165   21.5243 C   0  0  0  0  0  0  0  0  0  0  0  0
  -34.6316  -16.7177   22.5016 C   0  0  0  0  0  0  0  0  0  0  0  0
  -30.6553  -14.1728   29.4629 C   0  0  0  0  0  0  0  0  0  0  0  0
  -29.9626  -13.0911   28.6452 C   0  0  0  0  0  0  0  0  0  0  0  0
  -30.6073  -15.5422   28.7961 C   0  0  0  0  0  0  0  0  0  1  0  0
  -31.1349  -20.2202   23.0856 C   0  0  1  0  0  0  0  0  0  0  0  0
  -32.9487  -17.6844   20.9293 C   0  0  2  0  0  0  0  0  0  0  0  0
  -29.9680  -21.0678   22.5049 C   0  0  0  0  0  0  0  0  0  0  0  0
  -25.9072  -11.5832   20.4610 N   0  0  0  0  0  0  0  0  0  0  0  0
  -26.2789  -12.8639   20.2944 N   0  0  0  0  0  0  0  0  0  0  0  0
  -32.2592  -20.6929   25.2389 N   0  0  0  0  0  0  0  0  0  0  0  0
  -30.0691  -12.4779   20.0315 N   0  0  0  0  0  0  0  0  0  0  0  0
  -25.4820  -15.0917   20.4051 N   0  0  0  0  0  0  0  0  0  0  0  0
  -21.8637  -12.6337   21.5286 N   0  0  0  0  0  0  0  0  0  0  0  0
  -30.8488  -12.7203   22.2441 N   0  0  0  0  0  0  0  0  0  0  0  0
  -30.5390  -12.9406   27.3378 N   0  0  0  0  0  0  0  0  0  0  0  0
  -32.6128  -23.4229   27.6302 N   0  0  0  0  0  0  0  0  0  0  0  0
  -31.9311  -19.5292   22.0771 N   0  0  0  0  0  0  0  0  0  0  0  0
  -33.7404  -16.4889   21.3353 N   0  3  0  0  0  0  0  0  0  0  0  0
  -32.1202  -11.3440   27.9138 O   0  0  0  0  0  0  0  0  0  0  0  0
  -22.6338  -14.7674   21.1923 O   0  0  0  0  0  0  0  0  0  0  0  0
  -30.8370  -22.3247   26.5991 O   0  0  0  0  0  0  0  0  0  0  0  0
  -32.7055  -21.9786   23.3457 O   0  0  0  0  0  0  0  0  0  0  0  0
  -31.5824  -17.3895   22.8999 O   0  0  0  0  0  0  0  0  0  0  0  0
  -32.2766  -13.0279   20.4418 O   0  0  0  0  0  0  0  0  0  0  0  0
  -21.6333   -7.0781   21.8704 O   0  0  0  0  0  0  0  0  0  0  0  0
  -31.2629  -16.4875   29.6405 O   0  0  0  0  0  0  0  0  0  1  0  0
  -22.1151   -2.8524   18.3611 F   0  0  0  0  0  0  0  0  0  0  0  0
  -19.4338   -6.1139   20.5009 F   0  0  0  0  0  0  0  0  0  0  0  0
  1  2  1  0  0  0  0
  1  7  2  0  0  0  0
  2  8  2  0  0  0  0
  3  6  2  0  0  0  0
  3 10  1  0  0  0  0
  4 11  2  0  0  0  0
  4 19  1  0  0  0  0
  5 12  1  0  0  0  0
  5 19  2  0  0  0  0
  6 20  1  0  0  0  0
  7 22  1  0  0  0  0
  8 24  1  0  0  0  0
  9 13  2  0  0  0  0
  9 23  1  0  0  0  0
 10 26  2  0  0  0  0
 11 27  1  0  0  0  0
 12 27  2  0  0  0  0
 13 28  1  0  0  0  0
 14 15  2  0  0  0  0
 14 29  1  0  0  0  0
 15 30  1  0  0  0  0
 16 20  2  0  0  0  0
 16 26  1  0  0  0  0
 17 25  1  0  0  0  0
 17 28  2  0  0  0  0
 18 30  2  0  0  0  0
 18 31  1  0  0  0  0
 19 32  1  0  0  0  0
 20 34  1  0  0  0  0
 21 32  1  0  0  0  0
 21 33  2  0  0  0  0
 21 35  1  0  0  0  0
 22 24  2  0  0  0  0
 22 40  1  0  0  0  0
 23 25  2  0  0  0  0
 23 41  1  0  0  0  0
 24 49  1  0  0  0  0
 25 42  1  0  0  0  0
 26 69  1  0  0  0  0
 27 80  1  0  0  0  0
 28 81  1  0  0  0  0
 29 31  2  0  0  0  0
 29 80  1  0  0  0  0
 30 82  1  0  0  0  0
 31 83  1  0  0  0  0
 32 63  2  0  0  0  0
 33 64  1  0  0  0  0
 33 67  1  0  0  0  0
 34 70  1  0  0  0  0
 34 74  2  0  0  0  0
 35 68  1  0  0  0  0
 35 75  2  0  0  0  0
 36 50  1  0  0  0  0
 36 71  1  0  0  0  0
 36 76  2  0  0  0  0
 37 60  1  0  0  0  0
 37 65  1  0  0  0  0
 37 77  2  0  0  0  0
 38 61  1  0  0  0  0
 38 72  1  0  0  0  0
 38 78  2  0  0  0  0
 39 66  1  0  0  0  0
 39 69  1  0  0  0  0
 39 79  2  0  0  0  0
 40 43  1  0  0  0  0
 41 50  1  0  0  0  0
 42 65  1  0  0  0  0
 43 45  1  0  0  0  0
 44 46  1  0  0  0  0
 44 47  1  0  0  0  0
 45 49  1  0  0  0  0
 46 51  1  0  0  0  0
 47 66  1  0  0  0  0
 48 51  1  0  0  0  0
 48 66  1  0  0  0  0
 49 71  1  0  0  0  0
 50 65  1  0  0  0  0
 51 64  1  0  0  0  0
 52 61  1  0  0  0  0
 53 62  1  0  0  0  0
 54 62  1  0  0  0  0
 55 62  1  0  0  0  0
 56 73  1  0  0  0  0
 57 58  1  0  0  0  0
 57 59  1  0  0  0  0
 58 70  1  0  0  0  0
 59 81  1  0  0  0  0
 60 62  1  0  0  0  0
 60 72  1  0  0  0  0
 61 73  1  0  0  0  0
 63 64  1  0  0  0  0
M  CHG  1  73   1
M  ISO  4  39 100  59 101  69 100  81 101
M  END
> <Batch ID>
0003

> <Smiles>
CNC(C)C(=O)NC(C(=O)N1Cc2cc([101O:1][101CH2:1]CCNC(=O)c3cccc([100NH:0][100C:0](=O)N4CCCC(n5nc(-c6ccc(Oc7ccc(F)cc7F)cc6)c(C(N)=O)c5N)C4)c3)ccc2CC1C(=O)NC1CCCc2ccccc21)C(C)(C)C

> <Shape>
0.142

> <Color>
0.167

> <Negative vol penalty>
0.000

$$$$

  -OEChem-04052315213D

 75 82  0     1  0  0  0  0  0999 V2000
  -32.6757  -26.9307   24.1935 C   0  0  0  0  0  0  0  0  0  0  0  0
  -33.2702  -25.6961   23.9527 C   0  0  0  0  0  0  0  0  0  0  0  0
  -23.1714   -9.8811   19.9137 C   0  0  0  0  0  0  0  0  0  0  0  0
  -23.5557  -10.0089   22.2955 C   0  0  0  0  0  0  0  0  0  0  0  0
  -31.2939  -27.0727   24.0744 C   0  0  0  0  0  0  0  0  0  0  0  0
  -32.4830  -24.6026   23.5938 C   0  0  0  0  0  0  0  0  0  0  0  0
  -34.0021  -20.0717   19.7637 C   0  0  0  0  0  0  0  0  0  0  0  0
  -22.3855   -8.7442   20.1014 C   0  0  0  0  0  0  0  0  0  0  0  0
  -22.7697   -8.8720   22.4833 C   0  0  0  0  0  0  0  0  0  0  0  0
  -34.4800  -18.7802   19.9813 C   0  0  0  0  0  0  0  0  0  0  0  0
  -21.1601   -5.7946   23.5550 C   0  0  0  0  0  0  0  0  0  0  0  0
  -21.6407   -4.8094   24.4175 C   0  0  0  0  0  0  0  0  0  0  0  0
  -32.2307  -17.9255   19.8106 C   0  0  0  0  0  0  0  0  0  0  0  0
  -23.5927   -4.5381   23.0199 C   0  0  0  0  0  0  0  0  0  0  0  0
  -23.7566  -10.5135   21.0107 C   0  0  0  0  0  0  0  0  0  0  0  0
  -24.1389  -13.0281   20.8149 C   0  0  0  0  0  0  0  0  0  0  0  0
  -30.4903  -25.9827   23.7044 C   0  0  0  0  0  0  0  0  0  0  0  0
  -32.6312  -20.3016   19.5785 C   0  0  0  0  0  0  0  0  0  0  0  0
  -31.0889  -24.7299   23.4710 C   0  0  0  0  0  0  0  0  0  0  0  0
  -31.7382  -19.2206   19.5883 C   0  0  0  0  0  0  0  0  0  0  0  0
  -22.1846   -8.2396   21.3862 C   0  0  0  0  0  0  0  0  0  0  0  0
  -33.5940  -17.7072   20.0076 C   0  0  0  0  0  0  0  0  0  0  0  0
  -21.8957   -6.1515   22.4248 C   0  0  0  0  0  0  0  0  0  0  0  0
  -22.8571   -4.1812   24.1500 C   0  0  0  0  0  0  0  0  0  0  0  0
  -23.1120   -5.5233   22.1573 C   0  0  0  0  0  0  0  0  0  0  0  0
  -24.5690  -11.6876   20.8173 C   0  0  0  0  0  0  0  0  0  0  0  0
  -25.2825  -13.7553   20.5922 C   0  0  0  0  0  0  0  0  0  0  0  0
  -22.8231  -13.5676   20.9979 C   0  0  0  0  0  0  0  0  0  0  0  0
  -30.4033  -21.9519   21.1331 C   0  0  0  0  0  0  0  0  0  0  0  0
  -28.5643  -21.1105   18.5969 C   0  0  0  0  0  0  0  0  0  0  0  0
  -27.9950  -18.9426   16.0234 C   0  0  0  0  0  0  0  0  0  0  0  0
  -30.8946  -12.8120   21.6977 C   0  0  0  0  0  0  0  0  0  0  0  0
  -28.9959  -26.1732   23.6345 C   0  0  0  0  0  0  0  0  0  0  0  0
  -32.1347  -21.6974   19.3183 C   0  0  0  0  0  0  0  0  0  0  0  0
  -30.2595  -19.4115   19.3746 C   0  0  0  0  0  0  0  0  0  0  0  0
  -28.2739  -25.0566   22.8848 C   0  0  0  0  0  0  0  0  0  0  0  0
  -29.5634  -13.4701   18.4935 C   0  0  0  0  0  0  0  0  0  0  0  0
  -28.7751  -23.6921   23.3473 C   0  0  0  0  0  0  0  0  0  0  0  0
  -28.0758  -13.2078   18.7242 C   0  0  0  0  0  0  0  0  0  0  0  0
  -30.4457  -12.4569   19.2251 C   0  0  0  0  0  0  0  0  0  0  0  0
  -28.6659  -12.0818   20.9026 C   0  0  0  0  0  0  0  0  0  0  0  0
  -30.2714  -23.5261   23.0554 C   0  0  1  0  0  0  0  0  0  0  0  0
  -30.6576  -21.8785   19.6540 C   0  0  1  0  0  0  0  0  0  0  0  0
  -27.7589  -13.1219   20.2273 C   0  0  2  0  0  0  0  0  0  0  0  0
  -26.3932  -18.4922   14.1448 C   0  0  0  0  0  0  0  0  0  0  0  0
  -26.5394  -20.0021   20.5923 C   0  0  0  0  0  0  0  0  0  0  0  0
  -25.4680  -18.7534   18.7052 C   0  0  0  0  0  0  0  0  0  0  0  0
  -25.5353  -21.2467   18.6695 C   0  0  0  0  0  0  0  0  0  0  0  0
  -32.9464  -11.7573   20.6572 C   0  0  0  0  0  0  0  0  0  0  0  0
  -30.1157  -19.2623   13.9840 C   0  0  0  0  0  0  0  0  0  0  0  0
  -34.0098  -14.5134   21.6426 C   0  0  0  0  0  0  0  0  0  0  0  0
  -33.1585  -13.4978   22.3926 C   0  0  0  0  0  0  0  0  0  0  0  0
  -33.1773  -15.5314   20.8726 C   0  0  0  0  0  0  0  0  0  1  0  0
  -27.6645  -19.9435   18.2691 C   0  0  1  0  0  0  0  0  0  0  0  0
  -27.6858  -19.1798   14.5562 C   0  0  2  0  0  0  0  0  0  0  0  0
  -26.3294  -19.9827   19.0650 C   0  0  0  0  0  0  0  0  0  0  0  0
  -25.8833  -11.5675   20.6121 N   0  0  0  0  0  0  0  0  0  0  0  0
  -26.2889  -12.8418   20.4787 N   0  0  0  0  0  0  0  0  0  0  0  0
  -29.8221  -20.7959   19.1303 N   0  0  0  0  0  0  0  0  0  0  0  0
  -30.0786  -12.3718   20.6452 N   0  0  0  0  0  0  0  0  0  0  0  0
  -25.5154  -15.0806   20.4843 N   0  0  0  0  0  0  0  0  0  0  0  0
  -21.7612  -12.6794   21.2161 N   0  0  0  0  0  0  0  0  0  0  0  0
  -30.4832  -23.2289   21.6549 N   0  0  0  0  0  0  0  0  0  0  0  0
  -27.4967  -19.9518   16.8199 N   0  0  0  0  0  0  0  0  0  0  0  0
  -32.2827  -12.7457   21.5051 N   0  0  0  0  0  0  0  0  0  0  0  0
  -28.7893  -18.6552   13.7029 N   0  3  0  0  0  0  0  0  0  0  0  0
  -22.5933  -14.7999   20.9523 O   0  0  0  0  0  0  0  0  0  0  0  0
  -30.1517  -20.9261   21.7545 O   0  0  0  0  0  0  0  0  0  0  0  0
  -28.1685  -22.2586   18.3806 O   0  0  0  0  0  0  0  0  0  0  0  0
  -28.6131  -17.9585   16.4232 O   0  0  0  0  0  0  0  0  0  0  0  0
  -30.4107  -13.2342   22.7559 O   0  0  0  0  0  0  0  0  0  0  0  0
  -21.4176   -7.1304   21.5699 O   0  0  0  0  0  0  0  0  0  0  0  0
  -34.0578  -16.4457   20.2205 O   0  0  0  0  0  0  0  0  0  1  0  0
  -23.3193   -3.2362   24.9792 F   0  0  0  0  0  0  0  0  0  0  0  0
  -23.8238   -5.8629   21.0738 F   0  0  0  0  0  0  0  0  0  0  0  0
  1  2  1  0  0  0  0
  1  5  2  0  0  0  0
  2  6  2  0  0  0  0
  3  8  2  0  0  0  0
  3 15  1  0  0  0  0
  4  9  1  0  0  0  0
  4 15  2  0  0  0  0
  5 17  1  0  0  0  0
  6 19  1  0  0  0  0
  7 10  2  0  0  0  0
  7 18  1  0  0  0  0
  8 21  1  0  0  0  0
  9 21  2  0  0  0  0
 10 22  1  0  0  0  0
 11 12  2  0  0  0  0
 11 23  1  0  0  0  0
 12 24  1  0  0  0  0
 13 20  1  0  0  0  0
 13 22  2  0  0  0  0
 14 24  2  0  0  0  0
 14 25  1  0  0  0  0
 15 26  1  0  0  0  0
 16 26  1  0  0  0  0
 16 27  2  0  0  0  0
 16 28  1  0  0  0  0
 17 19  2  0  0  0  0
 17 33  1  0  0  0  0
 18 20  2  0  0  0  0
 18 34  1  0  0  0  0
 19 42  1  0  0  0  0
 20 35  1  0  0  0  0
 21 72  1  0  0  0  0
 22 73  1  0  0  0  0
 23 25  2  0  0  0  0
 23 72  1  0  0  0  0
 24 74  1  0  0  0  0
 25 75  1  0  0  0  0
 26 57  2  0  0  0  0
 27 58  1  0  0  0  0
 27 61  1  0  0  0  0
 28 62  1  0  0  0  0
 28 67  2  0  0  0  0
 29 43  1  0  0  0  0
 29 63  1  0  0  0  0
 29 68  2  0  0  0  0
 30 54  1  0  0  0  0
 30 59  1  0  0  0  0
 30 69  2  0  0  0  0
 31 55  1  0  0  0  0
 31 64  1  0  0  0  0
 31 70  2  0  0  0  0
 32 60  1  0  0  0  0
 32 65  1  0  0  0  0
 32 71  2  0  0  0  0
 33 36  1  0  0  0  0
 34 43  1  0  0  0  0
 35 59  1  0  0  0  0
 36 38  1  0  0  0  0
 37 39  1  0  0  0  0
 37 40  1  0  0  0  0
 38 42  1  0  0  0  0
 39 44  1  0  0  0  0
 40 60  1  0  0  0  0
 41 44  1  0  0  0  0
 41 60  1  0  0  0  0
 42 63  1  0  0  0  0
 43 59  1  0  0  0  0
 44 58  1  0  0  0  0
 45 55  1  0  0  0  0
 46 56  1  0  0  0  0
 47 56  1  0  0  0  0
 48 56  1  0  0  0  0
 49 65  1  0  0  0  0
 50 66  1  0  0  0  0
 51 52  1  0  0  0  0
 51 53  1  0  0  0  0
 52 65  1  0  0  0  0
 53 73  1  0  0  0  0
 54 56  1  0  0  0  0
 54 64  1  0  0  0  0
 55 66  1  0  0  0  0
 57 58  1  0  0  0  0
M  CHG  1  66   1
M  ISO  4  32 100  53 101  65 100  73 101
M  END
> <Batch ID>
0003

> <Smiles>
CNC(C)C(=O)NC(C(=O)N1Cc2cc([101O:1][101CH2:1]CC[100N:0](C)[100C:0](=O)N3CCCC(n4nc(-c5ccc(Oc6ccc(F)cc6F)cc5)c(C(N)=O)c4N)C3)ccc2CC1C(=O)NC1CCCc2ccccc21)C(C)(C)C

> <Shape>
0.188

> <Color>
0.204

> <Negative vol penalty>
0.000

$$$$

  -OEChem-04052315213D

 88 96  0     1  0  0  0  0  0999 V2000
  -17.0293  -28.5704   24.4442 C   0  0  0  0  0  0  0  0  0  0  0  0
  -17.7062  -27.6050   23.7057 C   0  0  0  0  0  0  0  0  0  0  0  0
  -26.1590  -24.6167   16.0701 C   0  0  0  0  0  0  0  0  0  0  0  0
  -25.7732  -23.8449   14.9741 C   0  0  0  0  0  0  0  0  0  0  0  0
  -27.0072  -15.1888   22.7827 C   0  0  0  0  0  0  0  0  0  0  0  0
  -26.2557  -15.2358   20.4870 C   0  0  0  0  0  0  0  0  0  0  0  0
  -17.3511  -29.9180   24.2887 C   0  0  0  0  0  0  0  0  0  0  0  0
  -18.7046  -27.9870   22.8103 C   0  0  0  0  0  0  0  0  0  0  0  0
  -22.8347  -25.0762   23.1487 C   0  0  0  0  0  0  0  0  0  0  0  0
  -26.9302  -24.0503   17.0850 C   0  0  0  0  0  0  0  0  0  0  0  0
  -26.1586  -22.5068   14.8931 C   0  0  0  0  0  0  0  0  0  0  0  0
  -25.9247  -14.3766   23.1205 C   0  0  0  0  0  0  0  0  0  0  0  0
  -25.1732  -14.4235   20.8248 C   0  0  0  0  0  0  0  0  0  0  0  0
  -22.7810  -23.8218   22.5426 C   0  0  0  0  0  0  0  0  0  0  0  0
  -24.6099  -11.1434   21.4111 C   0  0  0  0  0  0  0  0  0  0  0  0
  -24.3162  -10.0731   20.5662 C   0  0  0  0  0  0  0  0  0  0  0  0
  -24.0000  -24.6904   20.6508 C   0  0  0  0  0  0  0  0  0  0  0  0
  -22.1191  -10.9937   20.1636 C   0  0  0  0  0  0  0  0  0  0  0  0
  -27.1727  -15.6184   21.4660 C   0  0  0  0  0  0  0  0  0  0  0  0
  -29.5658  -16.0414   20.6903 C   0  0  0  0  0  0  0  0  0  0  0  0
  -18.3606  -30.3159   23.3981 C   0  0  0  0  0  0  0  0  0  0  0  0
  -23.4630  -26.1517   22.5045 C   0  0  0  0  0  0  0  0  0  0  0  0
  -19.0393  -29.3413   22.6418 C   0  0  0  0  0  0  0  0  0  0  0  0
  -24.0625  -25.9568   21.2521 C   0  0  0  0  0  0  0  0  0  0  0  0
  -27.3156  -22.7122   17.0040 C   0  0  0  0  0  0  0  0  0  0  0  0
  -25.0077  -13.9939   22.1415 C   0  0  0  0  0  0  0  0  0  0  0  0
  -23.3612  -23.6295   21.2922 C   0  0  0  0  0  0  0  0  0  0  0  0
  -26.9298  -21.9404   15.9080 C   0  0  0  0  0  0  0  0  0  0  0  0
  -23.6581  -12.1388   21.6323 C   0  0  0  0  0  0  0  0  0  0  0  0
  -23.0709   -9.9982   19.9424 C   0  0  0  0  0  0  0  0  0  0  0  0
  -22.4127  -12.0640   21.0085 C   0  0  0  0  0  0  0  0  0  0  0  0
  -28.2904  -16.4579   21.1166 C   0  0  0  0  0  0  0  0  0  0  0  0
  -30.2583  -17.2100   20.4867 C   0  0  0  0  0  0  0  0  0  0  0  0
  -30.0787  -14.7168   20.4958 C   0  0  0  0  0  0  0  0  0  0  0  0
  -22.5129  -28.9890   21.4321 C   0  0  0  0  0  0  0  0  0  0  0  0
  -25.6803  -29.4010   20.8666 C   0  0  0  0  0  0  0  0  0  0  0  0
  -24.3747  -17.6348   17.0431 C   0  0  0  0  0  0  0  0  0  0  0  0
  -28.7293  -27.9802   20.2903 C   0  0  0  0  0  0  0  0  0  0  0  0
  -28.5579  -22.7906   19.1942 C   0  0  0  0  0  0  0  0  0  0  0  0
  -18.6408  -31.7882   23.2291 C   0  0  0  0  0  0  0  0  0  0  0  0
  -23.5357  -27.4918   23.1836 C   0  0  0  0  0  0  0  0  0  0  0  0
  -24.7668  -27.0738   20.5276 C   0  0  0  0  0  0  0  0  0  0  0  0
  -19.9690  -32.0798   22.5355 C   0  0  0  0  0  0  0  0  0  0  0  0
  -30.4772  -21.7465   22.0055 C   0  0  0  0  0  0  0  0  0  0  0  0
  -20.1304  -31.2000   21.2999 C   0  0  0  0  0  0  0  0  0  0  0  0
  -30.2552  -20.2330   22.0541 C   0  0  0  0  0  0  0  0  0  0  0  0
  -29.2158  -22.4911   21.5717 C   0  0  0  0  0  0  0  0  0  0  0  0
  -28.3953  -20.5062   20.3650 C   0  0  0  0  0  0  0  0  0  0  0  0
  -20.1456  -29.7142   21.6788 C   0  0  1  0  0  0  0  0  0  0  0  0
  -23.7524  -28.6448   22.2085 C   0  0  1  0  0  0  0  0  0  0  0  0
  -29.6567  -19.7085   20.7341 C   0  0  2  0  0  0  0  0  0  0  0  0
  -31.1233  -28.5736   19.8279 C   0  0  0  0  0  0  0  0  0  0  0  0
  -24.9474  -30.1067   17.9900 C   0  0  0  0  0  0  0  0  0  0  0  0
  -27.3465  -29.7553   17.3661 C   0  0  0  0  0  0  0  0  0  0  0  0
  -26.7318  -31.5427   18.9942 C   0  0  0  0  0  0  0  0  0  0  0  0
  -29.6614  -26.6260   22.7512 C   0  0  0  0  0  0  0  0  0  0  0  0
  -25.6678  -17.2693   16.3336 C   0  0  0  0  0  0  0  0  0  0  0  0
  -26.7237  -18.3693   16.3784 C   0  0  0  0  0  0  0  0  0  0  0  0
  -23.3385  -19.8199   19.3292 C   0  0  0  0  0  0  0  0  0  0  0  0
  -24.5860  -20.5499   19.8280 C   0  0  0  0  0  0  0  0  0  0  0  0
  -23.5270  -18.3069   19.2808 C   0  0  0  0  0  0  0  0  0  0  0  0
  -26.2471  -19.6686   15.7398 C   0  0  0  0  0  0  0  0  0  0  0  0
  -24.3874  -22.0604   19.8291 C   0  0  0  0  0  0  0  0  0  1  0  0
  -26.6046  -29.1202   19.7065 C   0  0  1  0  0  0  0  0  0  0  0  0
  -30.0948  -28.2443   20.8986 C   0  0  2  0  0  0  0  0  0  0  0  0
  -26.3927  -30.1105   18.5267 C   0  0  0  0  0  0  0  0  0  0  0  0
  -28.1767  -17.7872   21.1805 N   0  0  0  0  0  0  0  0  0  0  0  0
  -29.3895  -18.2161   20.7918 N   0  0  0  0  0  0  0  0  0  0  0  0
  -24.8058  -28.3671   21.2300 N   0  0  0  0  0  0  0  0  0  0  0  0
  -28.7081  -21.9429   20.3121 N   0  0  0  0  0  0  0  0  0  0  0  0
  -31.5196  -17.4647   20.0783 N   0  0  0  0  0  0  0  0  0  0  0  0
  -29.2330  -13.6287   20.7511 N   0  0  0  0  0  0  0  0  0  0  0  0
  -28.0984  -22.1511   18.0433 N   0  0  0  0  0  0  0  0  0  0  0  0
  -21.4353  -29.3440   22.2209 N   0  0  0  0  0  0  0  0  0  0  0  0
  -24.5835  -17.9107   18.3906 N   0  0  0  0  0  0  0  0  0  0  0  0
  -27.9574  -29.1222   20.2527 N   0  0  0  0  0  0  0  0  0  0  0  0
  -30.5667  -27.0478   21.6514 N   0  3  0  0  0  0  0  0  0  0  0  0
  -31.2573  -14.5040   20.1228 O   0  0  0  0  0  0  0  0  0  0  0  0
  -22.5331  -28.9379   20.2079 O   0  0  0  0  0  0  0  0  0  0  0  0
  -25.7373  -30.4947   21.4342 O   0  0  0  0  0  0  0  0  0  0  0  0
  -23.2881  -17.6972   16.4746 O   0  0  0  0  0  0  0  0  0  0  0  0
  -28.3834  -26.8726   19.8853 O   0  0  0  0  0  0  0  0  0  0  0  0
  -28.8437  -23.9896   19.2459 O   0  0  0  0  0  0  0  0  0  0  0  0
  -23.9514  -13.2012   22.4707 O   0  0  0  0  0  0  0  0  0  0  0  0
  -23.3096  -22.4063   20.6980 O   0  0  0  0  0  0  0  0  0  1  0  0
  -27.2975  -20.6239   15.8090 O   0  0  0  0  0  0  0  0  0  0  0  0
  -22.7896   -8.9711   19.1299 F   0  0  0  0  0  0  0  0  0  0  0  0
  -21.4947  -13.0179   21.2162 F   0  0  0  0  0  0  0  0  0  0  0  0
  1  2  1  0  0  0  0
  1  7  2  0  0  0  0
  2  8  2  0  0  0  0
  3  4  1  0  0  0  0
  3 10  2  0  0  0  0
  4 11  2  0  0  0  0
  5 12  2  0  0  0  0
  5 19  1  0  0  0  0
  6 13  1  0  0  0  0
  6 19  2  0  0  0  0
  7 21  1  0  0  0  0
  8 23  1  0  0  0  0
  9 14  2  0  0  0  0
  9 22  1  0  0  0  0
 10 25  1  0  0  0  0
 11 28  1  0  0  0  0
 12 26  1  0  0  0  0
 13 26  2  0  0  0  0
 14 27  1  0  0  0  0
 15 16  2  0  0  0  0
 15 29  1  0  0  0  0
 16 30  1  0  0  0  0
 17 24  1  0  0  0  0
 17 27  2  0  0  0  0
 18 30  2  0  0  0  0
 18 31  1  0  0  0  0
 19 32  1  0  0  0  0
 20 32  1  0  0  0  0
 20 33  2  0  0  0  0
 20 34  1  0  0  0  0
 21 23  2  0  0  0  0
 21 40  1  0  0  0  0
 22 24  2  0  0  0  0
 22 41  1  0  0  0  0
 23 49  1  0  0  0  0
 24 42  1  0  0  0  0
 25 28  2  0  0  0  0
 25 73  1  0  0  0  0
 26 84  1  0  0  0  0
 27 85  1  0  0  0  0
 28 86  1  0  0  0  0
 29 31  2  0  0  0  0
 29 84  1  0  0  0  0
 30 87  1  0  0  0  0
 31 88  1  0  0  0  0
 32 67  2  0  0  0  0
 33 68  1  0  0  0  0
 33 71  1  0  0  0  0
 34 72  1  0  0  0  0
 34 78  2  0  0  0  0
 35 50  1  0  0  0  0
 35 74  1  0  0  0  0
 35 79  2  0  0  0  0
 36 64  1  0  0  0  0
 36 69  1  0  0  0  0
 36 80  2  0  0  0  0
 37 57  1  0  0  0  0
 37 75  1  0  0  0  0
 37 81  2  0  0  0  0
 38 65  1  0  0  0  0
 38 76  1  0  0  0  0
 38 82  2  0  0  0  0
 39 70  1  0  0  0  0
 39 73  1  0  0  0  0
 39 83  2  0  0  0  0
 40 43  1  0  0  0  0
 41 50  1  0  0  0  0
 42 69  1  0  0  0  0
 43 45  1  0  0  0  0
 44 46  1  0  0  0  0
 44 47  1  0  0  0  0
 45 49  1  0  0  0  0
 46 51  1  0  0  0  0
 47 70  1  0  0  0  0
 48 51  1  0  0  0  0
 48 70  1  0  0  0  0
 49 74  1  0  0  0  0
 50 69  1  0  0  0  0
 51 68  1  0  0  0  0
 52 65  1  0  0  0  0
 53 66  1  0  0  0  0
 54 66  1  0  0  0  0
 55 66  1  0  0  0  0
 56 77  1  0  0  0  0
 57 58  1  0  0  0  0
 58 62  1  0  0  0  0
 59 60  1  0  0  0  0
 59 61  1  0  0  0  0
 60 63  1  0  0  0  0
 61 75  1  0  0  0  0
 62 86  1  0  0  0  0
 63 85  1  0  0  0  0
 64 66  1  0  0  0  0
 64 76  1  0  0  0  0
 65 77  1  0  0  0  0
 67 68  1  0  0  0  0
M  CHG  1  77   1
M  ISO  4  39 100  63 101  73 100  85 101
M  END
> <Batch ID>
0003

> <Smiles>
CNC(C)C(=O)NC(C(=O)N1Cc2cc([101O:1][101CH2:1]CCCNC(=O)CCCOc3ccccc3[100NH:0][100C:0](=O)N3CCCC(n4nc(-c5ccc(Oc6ccc(F)cc6F)cc5)c(C(N)=O)c4N)C3)ccc2CC1C(=O)NC1CCCc2ccccc21)C(C)(C)C

> <Shape>
0.248

> <Color>
0.077

> <Negative vol penalty>
0.000

$$$$

  -OEChem-04052315213D

 87 95  0     1  0  0  0  0  0999 V2000
  -18.9075   -8.9692   19.6834 C   0  0  0  0  0  0  0  0  0  0  0  0
  -18.9212  -10.1960   19.0275 C   0  0  0  0  0  0  0  0  0  0  0  0
  -17.2386  -30.6706   23.6390 C   0  0  0  0  0  0  0  0  0  0  0  0
  -16.4841  -29.6088   23.1404 C   0  0  0  0  0  0  0  0  0  0  0  0
  -28.1084  -26.9448   19.0350 C   0  0  0  0  0  0  0  0  0  0  0  0
  -27.4817  -25.2432   20.6315 C   0  0  0  0  0  0  0  0  0  0  0  0
  -19.6232   -8.8057   20.8687 C   0  0  0  0  0  0  0  0  0  0  0  0
  -19.6498  -11.2604   19.5573 C   0  0  0  0  0  0  0  0  0  0  0  0
  -23.4354  -16.9932   17.5271 C   0  0  0  0  0  0  0  0  0  0  0  0
  -18.5975  -30.4976   23.9022 C   0  0  0  0  0  0  0  0  0  0  0  0
  -17.0884  -28.3738   22.9050 C   0  0  0  0  0  0  0  0  0  0  0  0
  -29.3377  -26.3137   18.8448 C   0  0  0  0  0  0  0  0  0  0  0  0
  -28.7110  -24.6120   20.4413 C   0  0  0  0  0  0  0  0  0  0  0  0
  -23.5191  -18.3656   17.7581 C   0  0  0  0  0  0  0  0  0  0  0  0
  -30.1346  -22.5733   18.1528 C   0  0  0  0  0  0  0  0  0  0  0  0
  -30.1324  -21.1873   17.9962 C   0  0  0  0  0  0  0  0  0  0  0  0
  -24.7818  -17.9440   19.7698 C   0  0  0  0  0  0  0  0  0  0  0  0
  -31.5362  -20.9643   19.9499 C   0  0  0  0  0  0  0  0  0  0  0  0
  -27.1804  -26.4096   19.9284 C   0  0  0  0  0  0  0  0  0  0  0  0
  -24.7179  -26.8326   19.4138 C   0  0  0  0  0  0  0  0  0  0  0  0
  -20.3688   -9.8658   21.4081 C   0  0  0  0  0  0  0  0  0  0  0  0
  -24.0159  -16.0840   18.4231 C   0  0  0  0  0  0  0  0  0  0  0  0
  -20.3751  -11.1113   20.7516 C   0  0  0  0  0  0  0  0  0  0  0  0
  -24.7063  -16.5606   19.5466 C   0  0  0  0  0  0  0  0  0  0  0  0
  -19.2018  -29.2626   23.6668 C   0  0  0  0  0  0  0  0  0  0  0  0
  -29.6390  -25.1473   19.5480 C   0  0  0  0  0  0  0  0  0  0  0  0
  -24.1898  -18.8411   18.8810 C   0  0  0  0  0  0  0  0  0  0  0  0
  -18.4472  -28.2007   23.1682 C   0  0  0  0  0  0  0  0  0  0  0  0
  -30.8377  -23.1549   19.2079 C   0  0  0  0  0  0  0  0  0  0  0  0
  -30.8331  -20.3828   18.8947 C   0  0  0  0  0  0  0  0  0  0  0  0
  -31.5384  -22.3504   20.1064 C   0  0  0  0  0  0  0  0  0  0  0  0
  -25.9107  -27.0614   20.1257 C   0  0  0  0  0  0  0  0  0  0  0  0
  -23.8103  -27.6952   19.9782 C   0  0  0  0  0  0  0  0  0  0  0  0
  -24.4540  -25.9216   18.3386 C   0  0  0  0  0  0  0  0  0  0  0  0
  -22.9136  -13.7554   20.2849 C   0  0  0  0  0  0  0  0  0  0  0  0
  -26.0679  -13.2219   20.8221 C   0  0  0  0  0  0  0  0  0  0  0  0
  -29.2496  -14.4554   20.8595 C   0  0  0  0  0  0  0  0  0  0  0  0
  -21.4627  -30.0630   24.4376 C   0  0  0  0  0  0  0  0  0  0  0  0
  -21.0883   -9.6552   22.7168 C   0  0  0  0  0  0  0  0  0  0  0  0
  -23.9397  -14.6076   18.1456 C   0  0  0  0  0  0  0  0  0  0  0  0
  -25.3641  -15.6268   20.5283 C   0  0  0  0  0  0  0  0  0  0  0  0
  -22.1381  -10.7229   23.0134 C   0  0  0  0  0  0  0  0  0  0  0  0
  -24.4795  -31.5172   23.2288 C   0  0  0  0  0  0  0  0  0  0  0  0
  -21.5719  -12.1152   22.7530 C   0  0  0  0  0  0  0  0  0  0  0  0
  -25.0227  -30.4688   22.2552 C   0  0  0  0  0  0  0  0  0  0  0  0
  -23.8121  -30.8724   24.4423 C   0  0  0  0  0  0  0  0  0  0  0  0
  -23.3200  -28.8314   23.1534 C   0  0  0  0  0  0  0  0  0  0  0  0
  -21.1736  -12.2825   21.2817 C   0  0  1  0  0  0  0  0  0  0  0  0
  -24.1253  -13.7542   19.3964 C   0  0  1  0  0  0  0  0  0  0  0  0
  -23.9440  -29.4326   21.8834 C   0  0  2  0  0  0  0  0  0  0  0  0
  -31.6136  -13.7921   21.3783 C   0  0  0  0  0  0  0  0  0  0  0  0
  -23.3626  -24.4034   23.6687 C   0  0  0  0  0  0  0  0  0  0  0  0
  -25.4632  -13.4107   23.8069 C   0  0  0  0  0  0  0  0  0  0  0  0
  -27.9169  -13.6952   24.2150 C   0  0  0  0  0  0  0  0  0  0  0  0
  -27.0621  -11.5930   23.1793 C   0  0  0  0  0  0  0  0  0  0  0  0
  -30.1297  -14.9833   18.0835 C   0  0  0  0  0  0  0  0  0  0  0  0
  -23.7042  -21.9791   20.6215 C   0  0  0  0  0  0  0  0  0  0  0  0
  -23.7730  -22.4919   22.0660 C   0  0  0  0  0  0  0  0  0  0  0  0
  -19.6717  -25.1468   21.5319 C   0  0  0  0  0  0  0  0  0  0  0  0
  -21.1300  -25.2625   21.9411 C   0  0  0  0  0  0  0  0  0  0  0  0
  -24.3453  -20.6039   20.4699 C   0  0  0  0  0  0  0  0  0  1  0  0
  -18.9692  -26.4953   21.5950 C   0  0  0  0  0  0  0  0  0  0  0  0
  -27.0823  -13.7249   21.8205 C   0  0  1  0  0  0  0  0  0  0  0  0
  -30.5492  -13.9072   20.2982 C   0  0  2  0  0  0  0  0  0  0  0  0
  -23.2062  -23.9059   22.2376 C   0  0  1  0  0  0  0  0  0  0  0  0
  -26.8672  -13.1237   23.2382 C   0  0  0  0  0  0  0  0  0  0  0  0
  -25.7762  -27.9963   21.0701 N   0  0  0  0  0  0  0  0  0  0  0  0
  -24.4883  -28.3626   20.9555 N   0  0  0  0  0  0  0  0  0  0  0  0
  -25.2567  -14.1920   20.2166 N   0  0  0  0  0  0  0  0  0  0  0  0
  -22.7991  -29.9057   24.0131 N   0  0  0  0  0  0  0  0  0  0  0  0
  -22.5064  -27.9404   19.7289 N   0  0  0  0  0  0  0  0  0  0  0  0
  -25.4992  -25.1079   17.8805 N   0  0  0  0  0  0  0  0  0  0  0  0
  -20.5829  -29.1023   23.9399 N   0  0  0  0  0  0  0  0  0  0  0  0
  -22.3456  -12.5084   20.4633 N   0  0  0  0  0  0  0  0  0  0  0  0
  -28.3939  -13.4456   21.2458 N   0  0  0  0  0  0  0  0  0  0  0  0
  -31.0660  -14.7994   19.2222 N   0  3  0  0  0  0  0  0  0  0  0  0
  -21.7542  -23.9145   21.9054 N   0  3  0  0  0  0  0  0  0  0  0  0
  -23.3291  -25.8435   17.7891 O   0  0  0  0  0  0  0  0  0  0  0  0
  -22.5238  -14.8093   20.7736 O   0  0  0  0  0  0  0  0  0  0  0  0
  -26.0026  -12.0135   20.5829 O   0  0  0  0  0  0  0  0  0  0  0  0
  -29.0184  -15.6591   20.9499 O   0  0  0  0  0  0  0  0  0  0  0  0
  -21.1187  -30.9978   25.1653 O   0  0  0  0  0  0  0  0  0  0  0  0
  -30.8383  -24.5310   19.3625 O   0  0  0  0  0  0  0  0  0  0  0  0
  -24.2725  -20.1801   19.1092 O   0  0  0  0  0  0  0  0  0  1  0  0
  -19.0213  -26.9790   22.9301 O   0  0  0  0  0  0  0  0  0  0  0  0
  -30.8296  -19.0517   18.7451 F   0  0  0  0  0  0  0  0  0  0  0  0
  -32.2147  -22.9032   21.1227 F   0  0  0  0  0  0  0  0  0  0  0  0
  1  2  1  0  0  0  0
  1  7  2  0  0  0  0
  2  8  2  0  0  0  0
  3  4  1  0  0  0  0
  3 10  2  0  0  0  0
  4 11  2  0  0  0  0
  5 12  2  0  0  0  0
  5 19  1  0  0  0  0
  6 13  1  0  0  0  0
  6 19  2  0  0  0  0
  7 21  1  0  0  0  0
  8 23  1  0  0  0  0
  9 14  2  0  0  0  0
  9 22  1  0  0  0  0
 10 25  1  0  0  0  0
 11 28  1  0  0  0  0
 12 26  1  0  0  0  0
 13 26  2  0  0  0  0
 14 27  1  0  0  0  0
 15 16  2  0  0  0  0
 15 29  1  0  0  0  0
 16 30  1  0  0  0  0
 17 24  1  0  0  0  0
 17 27  2  0  0  0  0
 18 30  2  0  0  0  0
 18 31  1  0  0  0  0
 19 32  1  0  0  0  0
 20 32  1  0  0  0  0
 20 33  2  0  0  0  0
 20 34  1  0  0  0  0
 21 23  2  0  0  0  0
 21 39  1  0  0  0  0
 22 24  2  0  0  0  0
 22 40  1  0  0  0  0
 23 48  1  0  0  0  0
 24 41  1  0  0  0  0
 25 28  2  0  0  0  0
 25 73  1  0  0  0  0
 26 83  1  0  0  0  0
 27 84  1  0  0  0  0
 28 85  1  0  0  0  0
 29 31  2  0  0  0  0
 29 83  1  0  0  0  0
 30 86  1  0  0  0  0
 31 87  1  0  0  0  0
 32 67  2  0  0  0  0
 33 68  1  0  0  0  0
 33 71  1  0  0  0  0
 34 72  1  0  0  0  0
 34 78  2  0  0  0  0
 35 49  1  0  0  0  0
 35 74  1  0  0  0  0
 35 79  2  0  0  0  0
 36 63  1  0  0  0  0
 36 69  1  0  0  0  0
 36 80  2  0  0  0  0
 37 64  1  0  0  0  0
 37 75  1  0  0  0  0
 37 81  2  0  0  0  0
 38 70  1  0  0  0  0
 38 73  1  0  0  0  0
 38 82  2  0  0  0  0
 39 42  1  0  0  0  0
 40 49  1  0  0  0  0
 41 69  1  0  0  0  0
 42 44  1  0  0  0  0
 43 45  1  0  0  0  0
 43 46  1  0  0  0  0
 44 48  1  0  0  0  0
 45 50  1  0  0  0  0
 46 70  1  0  0  0  0
 47 50  1  0  0  0  0
 47 70  1  0  0  0  0
 48 74  1  0  0  0  0
 49 69  1  0  0  0  0
 50 68  1  0  0  0  0
 51 64  1  0  0  0  0
 52 65  1  0  0  0  0
 53 66  1  0  0  0  0
 54 66  1  0  0  0  0
 55 66  1  0  0  0  0
 56 76  1  0  0  0  0
 57 58  1  0  0  0  0
 57 61  1  0  0  0  0
 58 65  1  0  0  0  0
 59 60  1  0  0  0  0
 59 62  1  0  0  0  0
 60 77  1  0  0  0  0
 61 84  1  0  0  0  0
 62 85  1  0  0  0  0
 63 66  1  0  0  0  0
 63 75  1  0  0  0  0
 64 76  1  0  0  0  0
 65 77  1  0  0  0  0
 67 68  1  0  0  0  0
M  CHG  2  76   1  77   1
M  ISO  4  38 100  61 101  73 100  84 101
M  END
> <Batch ID>
0003

> <Smiles>
CNC(C)C(=O)NC(C(=O)N1Cc2cc([101O:1][101CH2:1]CCC(C)NCCCOc3ccccc3[100NH:0][100C:0](=O)N3CCCC(n4nc(-c5ccc(Oc6ccc(F)cc6F)cc5)c(C(N)=O)c4N)C3)ccc2CC1C(=O)NC1CCCc2ccccc21)C(C)(C)C

> <Shape>
0.247

> <Color>
0.068

> <Negative vol penalty>
0.000

$$$$

  -OEChem-04052315213D

 76 83  0     1  0  0  0  0  0999 V2000
  -21.4815  -11.6735   20.1913 C   0  0  0  0  0  0  0  0  0  0  0  0
  -21.4180  -12.9129   20.8199 C   0  0  0  0  0  0  0  0  0  0  0  0
  -24.3446  -30.0656   19.9939 C   0  0  0  0  0  0  0  0  0  0  0  0
  -25.0401  -30.3745   22.2869 C   0  0  0  0  0  0  0  0  0  0  0  0
  -22.7196  -11.0868   19.9330 C   0  0  0  0  0  0  0  0  0  0  0  0
  -22.5926  -13.5660   21.1916 C   0  0  0  0  0  0  0  0  0  0  0  0
  -23.6069  -19.6056   21.1869 C   0  0  0  0  0  0  0  0  0  0  0  0
  -24.5255  -31.4279   19.7554 C   0  0  0  0  0  0  0  0  0  0  0  0
  -25.2210  -31.7369   22.0485 C   0  0  0  0  0  0  0  0  0  0  0  0
  -23.5695  -20.5638   22.1989 C   0  0  0  0  0  0  0  0  0  0  0  0
  -23.2887  -34.4993   21.7913 C   0  0  0  0  0  0  0  0  0  0  0  0
  -22.7939  -35.3945   22.7396 C   0  0  0  0  0  0  0  0  0  0  0  0
  -25.9551  -20.3470   22.4839 C   0  0  0  0  0  0  0  0  0  0  0  0
  -25.0240  -36.2549   23.0908 C   0  0  0  0  0  0  0  0  0  0  0  0
  -24.6018  -29.5389   21.2596 C   0  0  0  0  0  0  0  0  0  0  0  0
  -25.3687  -27.1078   21.3555 C   0  0  0  0  0  0  0  0  0  0  0  0
  -23.9103  -11.7373   20.2930 C   0  0  0  0  0  0  0  0  0  0  0  0
  -24.8190  -19.0020   20.8226 C   0  0  0  0  0  0  0  0  0  0  0  0
  -23.8478  -12.9868   20.9391 C   0  0  0  0  0  0  0  0  0  0  0  0
  -26.0055  -19.3834   21.4652 C   0  0  0  0  0  0  0  0  0  0  0  0
  -24.9637  -32.2636   20.7827 C   0  0  0  0  0  0  0  0  0  0  0  0
  -24.7433  -20.9325   22.8496 C   0  0  0  0  0  0  0  0  0  0  0  0
  -24.6511  -34.4818   21.4927 C   0  0  0  0  0  0  0  0  0  0  0  0
  -23.6616  -36.2723   23.3894 C   0  0  0  0  0  0  0  0  0  0  0  0
  -25.5188  -35.3597   22.1424 C   0  0  0  0  0  0  0  0  0  0  0  0
  -24.4145  -28.1318   21.5067 C   0  0  0  0  0  0  0  0  0  0  0  0
  -24.7017  -25.9615   21.7131 C   0  0  0  0  0  0  0  0  0  0  0  0
  -26.7356  -27.1857   20.9299 C   0  0  0  0  0  0  0  0  0  0  0  0
  -25.9433  -16.0290   20.8548 C   0  0  0  0  0  0  0  0  0  0  0  0
  -23.9017  -21.5384   26.6273 C   0  0  0  0  0  0  0  0  0  0  0  0
  -28.4654  -17.3813   19.3277 C   0  0  0  0  0  0  0  0  0  0  0  0
  -30.2953  -20.1886   18.6817 C   0  0  0  0  0  0  0  0  0  0  0  0
  -21.3113  -23.2963   25.2602 C   0  0  0  0  0  0  0  0  0  0  0  0
  -25.2238  -11.0421   20.0358 C   0  0  0  0  0  0  0  0  0  0  0  0
  -24.8465  -17.9895   19.7106 C   0  0  0  0  0  0  0  0  0  0  0  0
  -27.3357  -18.7801   21.0975 C   0  0  0  0  0  0  0  0  0  0  0  0
  -26.4321  -11.9708   20.1240 C   0  0  0  0  0  0  0  0  0  0  0  0
  -19.7919  -25.1149   22.5462 C   0  0  0  0  0  0  0  0  0  0  0  0
  -26.3452  -12.8427   21.3726 C   0  0  0  0  0  0  0  0  0  0  0  0
  -20.9289  -26.0063   22.0468 C   0  0  0  0  0  0  0  0  0  0  0  0
  -19.8611  -24.9129   24.0566 C   0  0  0  0  0  0  0  0  0  0  0  0
  -22.3163  -25.2686   24.0344 C   0  0  0  0  0  0  0  0  0  0  0  0
  -25.1006  -13.7377   21.3351 C   0  0  1  0  0  0  0  0  0  0  0  0
  -26.0590  -17.0657   19.7734 C   0  0  1  0  0  0  0  0  0  0  0  0
  -22.2953  -25.4702   22.5098 C   0  0  2  0  0  0  0  0  0  0  0  0
  -24.1325  -20.3297   27.5003 C   0  0  0  0  0  0  0  0  0  0  0  0
  -32.3223  -20.9736   17.4278 C   0  0  0  0  0  0  0  0  0  0  0  0
  -30.2616  -16.1381   21.4580 C   0  0  0  0  0  0  0  0  0  0  0  0
  -32.0824  -17.6958   20.7324 C   0  0  0  0  0  0  0  0  0  0  0  0
  -31.1671  -16.0174   19.1300 C   0  0  0  0  0  0  0  0  0  0  0  0
  -28.6936  -22.0431   17.0220 C   0  0  0  0  0  0  0  0  0  0  0  0
  -25.1277  -22.3157   26.1718 C   0  0  0  0  0  0  0  0  0  0  0  0
  -25.6857  -21.7561   24.8720 C   0  0  0  0  0  0  0  0  0  1  0  0
  -29.7614  -18.0210   19.7637 C   0  0  1  0  0  0  0  0  0  0  0  0
  -30.8153  -20.7750   17.3816 C   0  0  2  0  0  0  0  0  0  0  0  0
  -30.7929  -16.9782   20.2795 C   0  0  0  0  0  0  0  0  0  0  0  0
  -23.2315  -27.6762   21.9274 N   0  0  0  0  0  0  0  0  0  0  0  0
  -22.6752  -21.8517   26.3374 N   0  0  0  0  0  0  0  0  0  0  0  0
  -23.4378  -26.3533   22.0435 N   0  0  0  0  0  0  0  0  0  0  0  0
  -27.3098  -17.7899   20.0083 N   0  0  0  0  0  0  0  0  0  0  0  0
  -21.1831  -24.4400   24.4650 N   0  0  0  0  0  0  0  0  0  0  0  0
  -25.0790  -24.6668   21.7738 N   0  0  0  0  0  0  0  0  0  0  0  0
  -27.2621  -28.4421   20.6002 N   0  0  0  0  0  0  0  0  0  0  0  0
  -25.3153  -14.8653   20.4537 N   0  0  0  0  0  0  0  0  0  0  0  0
  -30.2276  -18.8124   18.6302 N   0  0  0  0  0  0  0  0  0  0  0  0
  -30.1754  -22.0945   17.1160 N   0  3  0  0  0  0  0  0  0  0  0  0
  -27.4636  -26.1692   20.8289 O   0  0  0  0  0  0  0  0  0  0  0  0
  -26.3919  -16.2666   21.9701 O   0  0  0  0  0  0  0  0  0  0  0  0
  -28.4770  -16.5549   18.4119 O   0  0  0  0  0  0  0  0  0  0  0  0
  -29.9840  -20.8819   19.6476 O   0  0  0  0  0  0  0  0  0  0  0  0
  -20.3618  -22.6255   25.6625 O   0  0  0  0  0  0  0  0  0  0  0  0
  -25.1406  -33.5930   20.5503 O   0  0  0  0  0  0  0  0  0  0  0  0
  -24.7093  -21.8737   23.8453 O   0  0  0  0  0  0  0  0  0  1  0  0
  -22.6198  -23.0016   25.5423 O   0  0  0  0  0  0  0  0  0  0  0  0
  -23.1861  -37.1330   24.2990 F   0  0  0  0  0  0  0  0  0  0  0  0
  -26.8285  -35.3484   21.8589 F   0  0  0  0  0  0  0  0  0  0  0  0
  1  2  1  0  0  0  0
  1  5  2  0  0  0  0
  2  6  2  0  0  0  0
  3  8  2  0  0  0  0
  3 15  1  0  0  0  0
  4  9  1  0  0  0  0
  4 15  2  0  0  0  0
  5 17  1  0  0  0  0
  6 19  1  0  0  0  0
  7 10  2  0  0  0  0
  7 18  1  0  0  0  0
  8 21  1  0  0  0  0
  9 21  2  0  0  0  0
 10 22  1  0  0  0  0
 11 12  2  0  0  0  0
 11 23  1  0  0  0  0
 12 24  1  0  0  0  0
 13 20  1  0  0  0  0
 13 22  2  0  0  0  0
 14 24  2  0  0  0  0
 14 25  1  0  0  0  0
 15 26  1  0  0  0  0
 16 26  1  0  0  0  0
 16 27  2  0  0  0  0
 16 28  1  0  0  0  0
 17 19  2  0  0  0  0
 17 34  1  0  0  0  0
 18 20  2  0  0  0  0
 18 35  1  0  0  0  0
 19 43  1  0  0  0  0
 20 36  1  0  0  0  0
 21 72  1  0  0  0  0
 22 73  1  0  0  0  0
 23 25  2  0  0  0  0
 23 72  1  0  0  0  0
 24 75  1  0  0  0  0
 25 76  1  0  0  0  0
 26 57  2  0  0  0  0
 27 59  1  0  0  0  0
 27 62  1  0  0  0  0
 28 63  1  0  0  0  0
 28 67  2  0  0  0  0
 29 44  1  0  0  0  0
 29 64  1  0  0  0  0
 29 68  2  0  0  0  0
 30 46  1  0  0  0  0
 30 52  1  0  0  0  0
 30 58  2  0  0  0  0
 31 54  1  0  0  0  0
 31 60  1  0  0  0  0
 31 69  2  0  0  0  0
 32 55  1  0  0  0  0
 32 65  1  0  0  0  0
 32 70  2  0  0  0  0
 33 61  1  0  0  0  0
 33 71  2  0  0  0  0
 33 74  1  0  0  0  0
 34 37  1  0  0  0  0
 35 44  1  0  0  0  0
 36 60  1  0  0  0  0
 37 39  1  0  0  0  0
 38 40  1  0  0  0  0
 38 41  1  0  0  0  0
 39 43  1  0  0  0  0
 40 45  1  0  0  0  0
 41 61  1  0  0  0  0
 42 45  1  0  0  0  0
 42 61  1  0  0  0  0
 43 64  1  0  0  0  0
 44 60  1  0  0  0  0
 45 59  1  0  0  0  0
 47 55  1  0  0  0  0
 48 56  1  0  0  0  0
 49 56  1  0  0  0  0
 50 56  1  0  0  0  0
 51 66  1  0  0  0  0
 52 53  1  0  0  0  0
 53 73  1  0  0  0  0
 54 56  1  0  0  0  0
 54 65  1  0  0  0  0
 55 66  1  0  0  0  0
 57 59  1  0  0  0  0
 58 74  1  0  0  0  0
M  CHG  1  66   1
M  ISO  4  33 100  53 101  73 101  74 100
M  END
> <Batch ID>
0003

> <Smiles>
CNC(C)C(=O)NC(C(=O)N1Cc2cc([101O:1][101CH2:1]CC(C)=N[100O:0][100C:0](=O)N3CCCC(n4nc(-c5ccc(Oc6ccc(F)cc6F)cc5)c(C(N)=O)c4N)C3)ccc2CC1C(=O)NC1CCCc2ccccc21)C(C)(C)C

> <Shape>
0.192

> <Color>
0.062

> <Negative vol penalty>
0.000

$$$$

  -OEChem-04052315213D

 89 97  0     1  0  0  0  0  0999 V2000
  -17.3562  -27.1992   27.1094 C   0  0  0  0  0  0  0  0  0  0  0  0
  -18.1385  -26.2230   26.5007 C   0  0  0  0  0  0  0  0  0  0  0  0
  -22.9881  -10.2320   21.9146 C   0  0  0  0  0  0  0  0  0  0  0  0
  -23.6624  -11.4814   23.8694 C   0  0  0  0  0  0  0  0  0  0  0  0
  -16.9989  -28.3460   26.4015 C   0  0  0  0  0  0  0  0  0  0  0  0
  -18.5630  -26.3926   25.1833 C   0  0  0  0  0  0  0  0  0  0  0  0
  -23.4475  -25.2158   24.5495 C   0  0  0  0  0  0  0  0  0  0  0  0
  -32.6303  -18.5116   21.1564 C   0  0  0  0  0  0  0  0  0  0  0  0
  -32.0401  -17.2857   20.8492 C   0  0  0  0  0  0  0  0  0  0  0  0
  -22.2068   -9.3997   22.7161 C   0  0  0  0  0  0  0  0  0  0  0  0
  -22.8810  -10.6491   24.6709 C   0  0  0  0  0  0  0  0  0  0  0  0
  -23.7714  -23.8619   24.4720 C   0  0  0  0  0  0  0  0  0  0  0  0
  -19.1877   -9.5208   24.2338 C   0  0  0  0  0  0  0  0  0  0  0  0
  -17.8990   -9.2199   23.7932 C   0  0  0  0  0  0  0  0  0  0  0  0
  -23.8825  -24.0323   22.0683 C   0  0  0  0  0  0  0  0  0  0  0  0
  -30.4596  -19.5708   21.0998 C   0  0  0  0  0  0  0  0  0  0  0  0
  -18.4584   -6.8698   23.7617 C   0  0  0  0  0  0  0  0  0  0  0  0
  -23.7160  -11.2729   22.4913 C   0  0  0  0  0  0  0  0  0  0  0  0
  -24.1253  -13.3286   21.0373 C   0  0  0  0  0  0  0  0  0  0  0  0
  -17.4273  -28.5342   25.0780 C   0  0  0  0  0  0  0  0  0  0  0  0
  -23.3278  -25.9868   23.3844 C   0  0  0  0  0  0  0  0  0  0  0  0
  -18.2099  -27.5424   24.4567 C   0  0  0  0  0  0  0  0  0  0  0  0
  -23.5595  -25.3963   22.1339 C   0  0  0  0  0  0  0  0  0  0  0  0
  -31.8400  -19.6542   21.2817 C   0  0  0  0  0  0  0  0  0  0  0  0
  -30.6597  -17.2022   20.6673 C   0  0  0  0  0  0  0  0  0  0  0  0
  -22.1532   -9.6082   24.0942 C   0  0  0  0  0  0  0  0  0  0  0  0
  -23.9861  -23.2693   23.2311 C   0  0  0  0  0  0  0  0  0  0  0  0
  -20.1119   -8.4961   24.4383 C   0  0  0  0  0  0  0  0  0  0  0  0
  -29.8694  -18.3448   20.7926 C   0  0  0  0  0  0  0  0  0  0  0  0
  -17.5343   -7.8944   23.5571 C   0  0  0  0  0  0  0  0  0  0  0  0
  -19.7472   -7.1707   24.2023 C   0  0  0  0  0  0  0  0  0  0  0  0
  -24.5237  -12.1326   21.6640 C   0  0  0  0  0  0  0  0  0  0  0  0
  -25.2486  -13.7600   20.3751 C   0  0  0  0  0  0  0  0  0  0  0  0
  -22.8535  -13.9904   21.0524 C   0  0  0  0  0  0  0  0  0  0  0  0
  -20.9719  -27.6133   22.0031 C   0  0  0  0  0  0  0  0  0  0  0  0
  -23.3276  -28.5470   19.9780 C   0  0  0  0  0  0  0  0  0  0  0  0
  -26.3766  -27.9026   18.5870 C   0  0  0  0  0  0  0  0  0  0  0  0
  -30.7291  -14.7278   20.1996 C   0  0  0  0  0  0  0  0  0  0  0  0
  -16.9763  -29.7683   24.3376 C   0  0  0  0  0  0  0  0  0  0  0  0
  -23.0040  -27.4521   23.4866 C   0  0  0  0  0  0  0  0  0  0  0  0
  -23.4632  -26.1850   20.8544 C   0  0  0  0  0  0  0  0  0  0  0  0
  -17.7798  -30.0454   23.0695 C   0  0  0  0  0  0  0  0  0  0  0  0
  -29.6430  -11.4163   19.4706 C   0  0  0  0  0  0  0  0  0  0  0  0
  -17.9411  -28.7690   22.2501 C   0  0  0  0  0  0  0  0  0  0  0  0
  -28.1815  -11.4058   19.9247 C   0  0  0  0  0  0  0  0  0  0  0  0
  -30.5184  -12.2596   20.3959 C   0  0  0  0  0  0  0  0  0  0  0  0
  -28.5803  -13.6194   21.0771 C   0  0  0  0  0  0  0  0  0  0  0  0
  -18.7106  -27.7015   23.0375 C   0  0  1  0  0  0  0  0  0  0  0  0
  -22.4035  -28.0221   22.2052 C   0  0  1  0  0  0  0  0  0  0  0  0
  -27.6478  -12.8358   20.1390 C   0  0  2  0  0  0  0  0  0  0  0  0
  -28.4453  -28.3020   17.2238 C   0  0  0  0  0  0  0  0  0  0  0  0
  -29.0289  -23.5388   22.3775 C   0  0  0  0  0  0  0  0  0  0  0  0
  -29.6908  -24.9343   20.4088 C   0  0  0  0  0  0  0  0  0  0  0  0
  -21.5600  -27.5925   17.6814 C   0  0  0  0  0  0  0  0  0  0  0  0
  -23.5761  -27.6500   16.1981 C   0  0  0  0  0  0  0  0  0  0  0  0
  -22.7477  -29.7518   17.2558 C   0  0  0  0  0  0  0  0  0  0  0  0
  -33.8525  -21.1043   21.3659 C   0  0  0  0  0  0  0  0  0  0  0  0
  -27.7526  -29.2242   20.8495 C   0  0  0  0  0  0  0  0  0  0  0  0
  -25.9438  -20.3223   22.4517 C   0  0  0  0  0  0  0  0  0  0  0  0
  -26.8486  -19.8623   21.3139 C   0  0  0  0  0  0  0  0  0  0  0  0
  -31.0452  -22.8640   21.0385 C   0  0  0  0  0  0  0  0  0  0  0  0
  -31.6388  -21.9777   22.1309 C   0  0  0  0  0  0  0  0  0  0  0  0
  -25.1183  -21.5393   22.0559 C   0  0  0  0  0  0  0  0  0  1  0  0
  -27.7053  -18.6724   21.7228 C   0  0  0  0  0  0  0  0  0  0  0  0
  -23.9004  -28.0150   18.6866 C   0  0  1  0  0  0  0  0  0  0  0  0
  -27.6022  -28.7779   18.3966 C   0  0  2  0  0  0  0  0  0  0  0  0
  -30.2079  -24.0543   21.5476 C   0  0  0  0  0  0  0  0  0  0  0  0
  -22.9460  -28.2367   17.4793 C   0  0  0  0  0  0  0  0  0  0  0  0
  -25.8004  -11.8240   21.4215 N   0  0  0  0  0  0  0  0  0  0  0  0
  -26.2139  -12.8322   20.6350 N   0  0  0  0  0  0  0  0  0  0  0  0
  -23.1377  -27.6128   21.0062 N   0  0  0  0  0  0  0  0  0  0  0  0
  -29.9533  -13.6021   20.5485 N   0  0  0  0  0  0  0  0  0  0  0  0
  -25.4949  -14.8386   19.6016 N   0  0  0  0  0  0  0  0  0  0  0  0
  -21.8072  -13.4106   21.7829 N   0  0  0  0  0  0  0  0  0  0  0  0
  -30.0752  -15.9495   20.3561 N   0  0  0  0  0  0  0  0  0  0  0  0
  -20.1283  -27.9921   23.0300 N   0  0  0  0  0  0  0  0  0  0  0  0
  -25.2110  -28.6374   18.5343 N   0  0  0  0  0  0  0  0  0  0  0  0
  -32.4366  -20.8937   21.5930 N   0  0  3  0  0  0  0  0  0  0  0  0
  -28.4488  -28.7576   19.6229 N   0  3  0  0  0  0  0  0  0  0  0  0
  -22.6462  -15.0554   20.4230 O   0  0  0  0  0  0  0  0  0  0  0  0
  -20.6556  -27.0010   20.9899 O   0  0  0  0  0  0  0  0  0  0  0  0
  -23.0652  -29.7486   20.0736 O   0  0  0  0  0  0  0  0  0  0  0  0
  -26.4461  -26.6879   18.7610 O   0  0  0  0  0  0  0  0  0  0  0  0
  -31.8786  -14.6147   19.7663 O   0  0  0  0  0  0  0  0  0  0  0  0
  -21.3907   -8.7964   24.8766 O   0  0  0  0  0  0  0  0  0  0  0  0
  -24.3018  -21.9480   23.1526 O   0  0  0  0  0  0  0  0  0  1  0  0
  -28.5110  -18.2850   20.6184 O   0  0  0  0  0  0  0  0  0  0  0  0
  -16.2962   -7.6055   23.1355 F   0  0  0  0  0  0  0  0  0  0  0  0
  -20.6303   -6.1819   24.3982 F   0  0  0  0  0  0  0  0  0  0  0  0
  1  2  1  0  0  0  0
  1  5  2  0  0  0  0
  2  6  2  0  0  0  0
  3 10  2  0  0  0  0
  3 18  1  0  0  0  0
  4 11  1  0  0  0  0
  4 18  2  0  0  0  0
  5 20  1  0  0  0  0
  6 22  1  0  0  0  0
  7 12  2  0  0  0  0
  7 21  1  0  0  0  0
  8  9  2  0  0  0  0
  8 24  1  0  0  0  0
  9 25  1  0  0  0  0
 10 26  1  0  0  0  0
 11 26  2  0  0  0  0
 12 27  1  0  0  0  0
 13 14  2  0  0  0  0
 13 28  1  0  0  0  0
 14 30  1  0  0  0  0
 15 23  1  0  0  0  0
 15 27  2  0  0  0  0
 16 24  2  0  0  0  0
 16 29  1  0  0  0  0
 17 30  2  0  0  0  0
 17 31  1  0  0  0  0
 18 32  1  0  0  0  0
 19 32  1  0  0  0  0
 19 33  2  0  0  0  0
 19 34  1  0  0  0  0
 20 22  2  0  0  0  0
 20 39  1  0  0  0  0
 21 23  2  0  0  0  0
 21 40  1  0  0  0  0
 22 48  1  0  0  0  0
 23 41  1  0  0  0  0
 24 78  1  0  0  0  0
 25 29  2  0  0  0  0
 25 75  1  0  0  0  0
 26 85  1  0  0  0  0
 27 86  1  0  0  0  0
 28 31  2  0  0  0  0
 28 85  1  0  0  0  0
 29 87  1  0  0  0  0
 30 88  1  0  0  0  0
 31 89  1  0  0  0  0
 32 69  2  0  0  0  0
 33 70  1  0  0  0  0
 33 73  1  0  0  0  0
 34 74  1  0  0  0  0
 34 80  2  0  0  0  0
 35 49  1  0  0  0  0
 35 76  1  0  0  0  0
 35 81  2  0  0  0  0
 36 65  1  0  0  0  0
 36 71  1  0  0  0  0
 36 82  2  0  0  0  0
 37 66  1  0  0  0  0
 37 77  1  0  0  0  0
 37 83  2  0  0  0  0
 38 72  1  0  0  0  0
 38 75  1  0  0  0  0
 38 84  2  0  0  0  0
 39 42  1  0  0  0  0
 40 49  1  0  0  0  0
 41 71  1  0  0  0  0
 42 44  1  0  0  0  0
 43 45  1  0  0  0  0
 43 46  1  0  0  0  0
 44 48  1  0  0  0  0
 45 50  1  0  0  0  0
 46 72  1  0  0  0  0
 47 50  1  0  0  0  0
 47 72  1  0  0  0  0
 48 76  1  0  0  0  0
 49 71  1  0  0  0  0
 50 70  1  0  0  0  0
 51 66  1  0  0  0  0
 52 67  1  0  0  0  0
 53 67  1  0  0  0  0
 54 68  1  0  0  0  0
 55 68  1  0  0  0  0
 56 68  1  0  0  0  0
 57 78  1  0  0  0  0
 58 79  1  0  0  0  0
 59 60  1  0  0  0  0
 59 63  1  0  0  0  0
 60 64  1  0  0  0  0
 61 62  1  0  0  0  0
 61 67  1  0  0  0  0
 62 78  1  0  0  0  0
 63 86  1  0  0  0  0
 64 87  1  0  0  0  0
 65 68  1  0  0  0  0
 65 77  1  0  0  0  0
 66 79  1  0  0  0  0
 69 70  1  0  0  0  0
M  CHG  1  79   1
M  ISO  4  38 100  63 101  75 100  86 101
M  END
> <Batch ID>
0003

> <Smiles>
CNC(C)C(=O)NC(C(=O)N1Cc2cc([101O:1][101CH2:1]CCCOc3cc(N(C)CCC(C)C)ccc3[100NH:0][100C:0](=O)N3CCCC(n4nc(-c5ccc(Oc6ccc(F)cc6F)cc5)c(C(N)=O)c4N)C3)ccc2CC1C(=O)NC1CCCc2ccccc21)C(C)(C)C

> <Shape>
0.231

> <Color>
0.114

> <Negative vol penalty>
0.000

$$$$

  -OEChem-04052315213D

 75 82  0     1  0  0  0  0  0999 V2000
  -21.6576  -26.0082   22.2550 C   0  0  0  0  0  0  0  0  0  0  0  0
  -22.5356  -24.9529   22.0299 C   0  0  0  0  0  0  0  0  0  0  0  0
  -23.8221  -10.0103   22.1423 C   0  0  0  0  0  0  0  0  0  0  0  0
  -24.3934  -11.4271   24.0141 C   0  0  0  0  0  0  0  0  0  0  0  0
  -22.0394  -27.3110   21.9374 C   0  0  0  0  0  0  0  0  0  0  0  0
  -23.7956  -25.1996   21.4859 C   0  0  0  0  0  0  0  0  0  0  0  0
  -27.4742  -22.6745   23.8810 C   0  0  0  0  0  0  0  0  0  0  0  0
  -23.3018   -9.0598   23.0206 C   0  0  0  0  0  0  0  0  0  0  0  0
  -23.8731  -10.4766   24.8924 C   0  0  0  0  0  0  0  0  0  0  0  0
  -27.6174  -21.3207   23.5801 C   0  0  0  0  0  0  0  0  0  0  0  0
  -24.8491   -7.5351   26.2437 C   0  0  0  0  0  0  0  0  0  0  0  0
  -25.5983   -7.2219   27.3778 C   0  0  0  0  0  0  0  0  0  0  0  0
  -29.4494  -21.8491   22.1024 C   0  0  0  0  0  0  0  0  0  0  0  0
  -23.7739   -7.9504   28.7842 C   0  0  0  0  0  0  0  0  0  0  0  0
  -24.3679  -11.1940   22.6391 C   0  0  0  0  0  0  0  0  0  0  0  0
  -24.2169  -13.2470   21.1323 C   0  0  0  0  0  0  0  0  0  0  0  0
  -23.3083  -27.5750   21.3982 C   0  0  0  0  0  0  0  0  0  0  0  0
  -28.3119  -23.6285   23.2855 C   0  0  0  0  0  0  0  0  0  0  0  0
  -24.1942  -26.5070   21.1594 C   0  0  0  0  0  0  0  0  0  0  0  0
  -29.3165  -23.2141   22.3994 C   0  0  0  0  0  0  0  0  0  0  0  0
  -23.3273   -9.2929   24.3956 C   0  0  0  0  0  0  0  0  0  0  0  0
  -28.6032  -20.9081   22.6885 C   0  0  0  0  0  0  0  0  0  0  0  0
  -23.5623   -8.0560   26.3798 C   0  0  0  0  0  0  0  0  0  0  0  0
  -25.0607   -7.4295   28.6481 C   0  0  0  0  0  0  0  0  0  0  0  0
  -23.0247   -8.2636   27.6500 C   0  0  0  0  0  0  0  0  0  0  0  0
  -24.9060  -12.1760   21.7323 C   0  0  0  0  0  0  0  0  0  0  0  0
  -25.1651  -13.8790   20.3656 C   0  0  0  0  0  0  0  0  0  0  0  0
  -22.8425  -13.6357   21.2570 C   0  0  0  0  0  0  0  0  0  0  0  0
  -27.8632  -26.1195   21.3628 C   0  0  0  0  0  0  0  0  0  0  0  0
  -31.0302  -26.5937   21.8798 C   0  0  0  0  0  0  0  0  0  0  0  0
  -34.0557  -25.2690   22.7393 C   0  0  0  0  0  0  0  0  0  0  0  0
  -31.1355  -14.1863   20.6987 C   0  0  0  0  0  0  0  0  0  0  0  0
  -23.6583  -28.9942   21.0268 C   0  0  0  0  0  0  0  0  0  0  0  0
  -28.1620  -25.0822   23.6411 C   0  0  0  0  0  0  0  0  0  0  0  0
  -30.2547  -24.1964   21.7488 C   0  0  0  0  0  0  0  0  0  0  0  0
  -25.1521  -29.2144   20.8024 C   0  0  0  0  0  0  0  0  0  0  0  0
  -29.2021  -13.0226   17.9448 C   0  0  0  0  0  0  0  0  0  0  0  0
  -25.7287  -28.1085   19.9240 C   0  0  0  0  0  0  0  0  0  0  0  0
  -27.8196  -12.7703   18.5491 C   0  0  0  0  0  0  0  0  0  0  0  0
  -30.3192  -12.6648   18.9225 C   0  0  0  0  0  0  0  0  0  0  0  0
  -28.8331  -13.0581   20.8488 C   0  0  0  0  0  0  0  0  0  0  0  0
  -25.5789  -26.7373   20.5939 C   0  0  1  0  0  0  0  0  0  0  0  0
  -28.7355  -26.0186   22.5820 C   0  0  1  0  0  0  0  0  0  0  0  0
  -27.6733  -13.4569   19.9203 C   0  0  2  0  0  0  0  0  0  0  0  0
  -36.4673  -25.8955   23.0376 C   0  0  0  0  0  0  0  0  0  0  0  0
  -31.3900  -26.6419   18.8502 C   0  0  0  0  0  0  0  0  0  0  0  0
  -33.8462  -26.3127   19.2065 C   0  0  0  0  0  0  0  0  0  0  0  0
  -32.7232  -28.3590   20.0866 C   0  0  0  0  0  0  0  0  0  0  0  0
  -34.0184  -24.5131   25.6005 C   0  0  0  0  0  0  0  0  0  0  0  0
  -31.6127  -17.1488   22.1275 C   0  0  0  0  0  0  0  0  0  0  0  0
  -30.2124  -17.6705   22.4514 C   0  0  0  0  0  0  0  0  0  0  0  0
  -31.8074  -15.6961   22.5503 C   0  0  0  0  0  0  0  0  0  0  0  0
  -30.0554  -19.1337   22.0572 C   0  0  0  0  0  0  0  0  0  1  0  0
  -32.3032  -26.1339   21.2112 C   0  0  1  0  0  0  0  0  0  0  0  0
  -35.1174  -25.7346   23.7193 C   0  0  2  0  0  0  0  0  0  0  0  0
  -32.5469  -26.8433   19.8492 C   0  0  0  0  0  0  0  0  0  0  0  0
  -26.1927  -12.1272   21.3772 N   0  0  0  0  0  0  0  0  0  0  0  0
  -26.3196  -13.1754   20.5457 N   0  0  0  0  0  0  0  0  0  0  0  0
  -30.0641  -25.6073   22.1236 N   0  0  0  0  0  0  0  0  0  0  0  0
  -30.1222  -13.3497   20.2023 N   0  0  0  0  0  0  0  0  0  0  0  0
  -25.1157  -14.9623   19.5616 N   0  0  0  0  0  0  0  0  0  0  0  0
  -22.0059  -12.8763   22.0863 N   0  0  0  0  0  0  0  0  0  0  0  0
  -26.5815  -26.5654   21.6233 N   0  0  0  0  0  0  0  0  0  0  0  0
  -33.3704  -26.3301   22.1864 N   0  0  0  0  0  0  0  0  0  0  0  0
  -30.8653  -14.8020   21.9147 N   0  0  0  0  0  0  0  0  0  0  0  0
  -35.2654  -24.7508   24.8288 N   0  3  0  0  0  0  0  0  0  0  0  0
  -22.3663  -14.6175   20.6382 O   0  0  0  0  0  0  0  0  0  0  0  0
  -28.3196  -25.8167   20.2665 O   0  0  0  0  0  0  0  0  0  0  0  0
  -30.9009  -27.7828   22.1813 O   0  0  0  0  0  0  0  0  0  0  0  0
  -33.8568  -24.0828   22.4866 O   0  0  0  0  0  0  0  0  0  0  0  0
  -32.1998  -14.3751   20.0998 O   0  0  0  0  0  0  0  0  0  0  0  0
  -22.8195   -8.3657   25.2529 O   0  0  0  0  0  0  0  0  0  0  0  0
  -28.7447  -19.5874   22.3925 O   0  0  0  0  0  0  0  0  0  1  0  0
  -25.7797   -7.1273   29.7370 F   0  0  0  0  0  0  0  0  0  0  0  0
  -21.7886   -8.7626   27.7871 F   0  0  0  0  0  0  0  0  0  0  0  0
  1  2  1  0  0  0  0
  1  5  2  0  0  0  0
  2  6  2  0  0  0  0
  3  8  2  0  0  0  0
  3 15  1  0  0  0  0
  4  9  1  0  0  0  0
  4 15  2  0  0  0  0
  5 17  1  0  0  0  0
  6 19  1  0  0  0  0
  7 10  2  0  0  0  0
  7 18  1  0  0  0  0
  8 21  1  0  0  0  0
  9 21  2  0  0  0  0
 10 22  1  0  0  0  0
 11 12  2  0  0  0  0
 11 23  1  0  0  0  0
 12 24  1  0  0  0  0
 13 20  1  0  0  0  0
 13 22  2  0  0  0  0
 14 24  2  0  0  0  0
 14 25  1  0  0  0  0
 15 26  1  0  0  0  0
 16 26  1  0  0  0  0
 16 27  2  0  0  0  0
 16 28  1  0  0  0  0
 17 19  2  0  0  0  0
 17 33  1  0  0  0  0
 18 20  2  0  0  0  0
 18 34  1  0  0  0  0
 19 42  1  0  0  0  0
 20 35  1  0  0  0  0
 21 72  1  0  0  0  0
 22 73  1  0  0  0  0
 23 25  2  0  0  0  0
 23 72  1  0  0  0  0
 24 74  1  0  0  0  0
 25 75  1  0  0  0  0
 26 57  2  0  0  0  0
 27 58  1  0  0  0  0
 27 61  1  0  0  0  0
 28 62  1  0  0  0  0
 28 67  2  0  0  0  0
 29 43  1  0  0  0  0
 29 63  1  0  0  0  0
 29 68  2  0  0  0  0
 30 54  1  0  0  0  0
 30 59  1  0  0  0  0
 30 69  2  0  0  0  0
 31 55  1  0  0  0  0
 31 64  1  0  0  0  0
 31 70  2  0  0  0  0
 32 60  1  0  0  0  0
 32 65  1  0  0  0  0
 32 71  2  0  0  0  0
 33 36  1  0  0  0  0
 34 43  1  0  0  0  0
 35 59  1  0  0  0  0
 36 38  1  0  0  0  0
 37 39  1  0  0  0  0
 37 40  1  0  0  0  0
 38 42  1  0  0  0  0
 39 44  1  0  0  0  0
 40 60  1  0  0  0  0
 41 44  1  0  0  0  0
 41 60  1  0  0  0  0
 42 63  1  0  0  0  0
 43 59  1  0  0  0  0
 44 58  1  0  0  0  0
 45 55  1  0  0  0  0
 46 56  1  0  0  0  0
 47 56  1  0  0  0  0
 48 56  1  0  0  0  0
 49 66  1  0  0  0  0
 50 51  1  0  0  0  0
 50 52  1  0  0  0  0
 51 53  1  0  0  0  0
 52 65  1  0  0  0  0
 53 73  1  0  0  0  0
 54 56  1  0  0  0  0
 54 64  1  0  0  0  0
 55 66  1  0  0  0  0
 57 58  1  0  0  0  0
M  CHG  1  66   1
M  ISO  4  32 100  53 101  65 100  73 101
M  END
> <Batch ID>
0003

> <Smiles>
CNC(C)C(=O)NC(C(=O)N1Cc2cc([101O:1][101CH2:1]CCC[100NH:0][100C:0](=O)N3CCCC(n4nc(-c5ccc(Oc6ccc(F)cc6F)cc5)c(C(N)=O)c4N)C3)ccc2CC1C(=O)NC1CCCc2ccccc21)C(C)(C)C

> <Shape>
0.193

> <Color>
0.131

> <Negative vol penalty>
0.000

$$$$

  -OEChem-04052315213D

 74 81  0     1  0  0  0  0  0999 V2000
  -28.2370  -24.4861   17.1417 C   0  0  0  0  0  0  0  0  0  0  0  0
  -27.0905  -25.1970   17.4776 C   0  0  0  0  0  0  0  0  0  0  0  0
  -23.9976  -17.2212   19.7044 C   0  0  0  0  0  0  0  0  0  0  0  0
  -21.6114  -17.5982   19.7372 C   0  0  0  0  0  0  0  0  0  0  0  0
  -29.3729  -24.5840   17.9426 C   0  0  0  0  0  0  0  0  0  0  0  0
  -27.0832  -26.0153   18.6078 C   0  0  0  0  0  0  0  0  0  0  0  0
  -23.1087  -28.8301   19.3032 C   0  0  0  0  0  0  0  0  0  0  0  0
  -23.7896  -15.8777   20.0166 C   0  0  0  0  0  0  0  0  0  0  0  0
  -21.4034  -16.2547   20.0494 C   0  0  0  0  0  0  0  0  0  0  0  0
  -21.8764  -28.3102   19.6969 C   0  0  0  0  0  0  0  0  0  0  0  0
  -23.8696  -12.2693   20.4498 C   0  0  0  0  0  0  0  0  0  0  0  0
  -24.5945  -11.3172   19.7332 C   0  0  0  0  0  0  0  0  0  0  0  0
  -22.2606  -29.1131   21.9389 C   0  0  0  0  0  0  0  0  0  0  0  0
  -23.5960  -12.1033   17.6784 C   0  0  0  0  0  0  0  0  0  0  0  0
  -22.9085  -18.0814   19.5647 C   0  0  0  0  0  0  0  0  0  0  0  0
  -23.1955  -20.0430   17.9592 C   0  0  0  0  0  0  0  0  0  0  0  0
  -29.3747  -25.3944   19.0898 C   0  0  0  0  0  0  0  0  0  0  0  0
  -23.9324  -29.4870   20.2287 C   0  0  0  0  0  0  0  0  0  0  0  0
  -28.2273  -26.1461   19.4155 C   0  0  0  0  0  0  0  0  0  0  0  0
  -23.5017  -29.6426   21.5540 C   0  0  0  0  0  0  0  0  0  0  0  0
  -22.4925  -15.3945   20.1891 C   0  0  0  0  0  0  0  0  0  0  0  0
  -21.4534  -28.4491   21.0155 C   0  0  0  0  0  0  0  0  0  0  0  0
  -23.0077  -13.1384   19.7807 C   0  0  0  0  0  0  0  0  0  0  0  0
  -24.4578  -11.2342   18.3475 C   0  0  0  0  0  0  0  0  0  0  0  0
  -22.8709  -13.0554   18.3951 C   0  0  0  0  0  0  0  0  0  0  0  0
  -23.1227  -19.4695   19.2428 C   0  0  0  0  0  0  0  0  0  0  0  0
  -23.4090  -21.3796   18.1920 C   0  0  0  0  0  0  0  0  0  0  0  0
  -23.0803  -19.4229   16.6716 C   0  0  0  0  0  0  0  0  0  0  0  0
  -26.8422  -28.9749   21.4010 C   0  0  0  0  0  0  0  0  0  0  0  0
  -26.3567  -31.8553   22.8116 C   0  0  0  0  0  0  0  0  0  0  0  0
  -24.1398  -34.1868   23.9501 C   0  0  0  0  0  0  0  0  0  0  0  0
  -22.1653  -24.9610   22.8264 C   0  0  0  0  0  0  0  0  0  0  0  0
  -30.6340  -25.4698   19.9166 C   0  0  0  0  0  0  0  0  0  0  0  0
  -25.2470  -30.0656   19.7819 C   0  0  0  0  0  0  0  0  0  0  0  0
  -24.3398  -30.3572   22.5814 C   0  0  0  0  0  0  0  0  0  0  0  0
  -30.3902  -26.0052   21.3238 C   0  0  0  0  0  0  0  0  0  0  0  0
  -25.3644  -24.3589   21.3844 C   0  0  0  0  0  0  0  0  0  0  0  0
  -29.5719  -27.2861   21.2580 C   0  0  0  0  0  0  0  0  0  0  0  0
  -25.1592  -23.0892   20.5562 C   0  0  0  0  0  0  0  0  0  0  0  0
  -24.5549  -24.3253   22.6788 C   0  0  0  0  0  0  0  0  0  0  0  0
  -22.9098  -22.7899   21.6739 C   0  0  0  0  0  0  0  0  0  0  0  0
  -28.1862  -27.0186   20.6570 C   0  0  1  0  0  0  0  0  0  0  0  0
  -26.2328  -30.2646   20.9290 C   0  0  1  0  0  0  0  0  0  0  0  0
  -23.6624  -22.8016   20.3323 C   0  0  2  0  0  0  0  0  0  0  0  0
  -24.0417  -36.4211   25.0884 C   0  0  0  0  0  0  0  0  0  0  0  0
  -27.0386  -30.5268   25.4724 C   0  0  0  0  0  0  0  0  0  0  0  0
  -26.0199  -32.4953   26.6367 C   0  0  0  0  0  0  0  0  0  0  0  0
  -28.0109  -32.8106   25.1672 C   0  0  0  0  0  0  0  0  0  0  0  0
  -22.7535  -35.4283   21.6488 C   0  0  0  0  0  0  0  0  0  0  0  0
  -18.9463  -25.9462   21.6711 C   0  0  0  0  0  0  0  0  0  0  0  0
  -19.7364  -25.4678   22.8817 C   0  0  0  0  0  0  0  0  0  0  0  0
  -19.7817  -26.7851   20.7116 C   0  0  0  0  0  0  0  0  0  1  0  0
  -25.7630  -32.3184   24.1200 C   0  0  1  0  0  0  0  0  0  0  0  0
  -24.0705  -35.6906   23.7549 C   0  0  2  0  0  0  0  0  0  0  0  0
  -26.6930  -32.0226   25.3304 C   0  0  0  0  0  0  0  0  0  0  0  0
  -23.2776  -20.3682   20.2186 N   0  0  0  0  0  0  0  0  0  0  0  0
  -23.4499  -21.5200   19.5480 N   0  0  0  0  0  0  0  0  0  0  0  0
  -25.6199  -30.9000   22.0973 N   0  0  0  0  0  0  0  0  0  0  0  0
  -23.1441  -24.0498   22.3967 N   0  0  0  0  0  0  0  0  0  0  0  0
  -23.5640  -22.4369   17.3670 N   0  0  0  0  0  0  0  0  0  0  0  0
  -22.8617  -18.0397   16.6133 N   0  0  0  0  0  0  0  0  0  0  0  0
  -27.5233  -28.2817   20.4185 N   0  0  0  0  0  0  0  0  0  0  0  0
  -25.4410  -33.7306   23.9450 N   0  0  0  0  0  0  0  0  0  0  0  0
  -20.8535  -24.6272   22.5125 N   0  0  0  0  0  0  0  0  0  0  0  0
  -22.8445  -36.0579   22.9913 N   0  3  0  0  0  0  0  0  0  0  0  0
  -23.1849  -20.0734   15.6042 O   0  0  0  0  0  0  0  0  0  0  0  0
  -26.7060  -28.6345   22.5703 O   0  0  0  0  0  0  0  0  0  0  0  0
  -27.4311  -32.3292   22.4336 O   0  0  0  0  0  0  0  0  0  0  0  0
  -23.1399  -33.4873   24.0965 O   0  0  0  0  0  0  0  0  0  0  0  0
  -22.4405  -25.9981   23.4394 O   0  0  0  0  0  0  0  0  0  0  0  0
  -22.2892  -14.0836   20.4935 O   0  0  0  0  0  0  0  0  0  0  0  0
  -20.2514  -27.9420   21.4025 O   0  0  0  0  0  0  0  0  0  1  0  0
  -25.1552  -10.3209   17.6593 F   0  0  0  0  0  0  0  0  0  0  0  0
  -22.0454  -13.8884   17.7467 F   0  0  0  0  0  0  0  0  0  0  0  0
  1  2  1  0  0  0  0
  1  5  2  0  0  0  0
  2  6  2  0  0  0  0
  3  8  2  0  0  0  0
  3 15  1  0  0  0  0
  4  9  1  0  0  0  0
  4 15  2  0  0  0  0
  5 17  1  0  0  0  0
  6 19  1  0  0  0  0
  7 10  2  0  0  0  0
  7 18  1  0  0  0  0
  8 21  1  0  0  0  0
  9 21  2  0  0  0  0
 10 22  1  0  0  0  0
 11 12  2  0  0  0  0
 11 23  1  0  0  0  0
 12 24  1  0  0  0  0
 13 20  1  0  0  0  0
 13 22  2  0  0  0  0
 14 24  2  0  0  0  0
 14 25  1  0  0  0  0
 15 26  1  0  0  0  0
 16 26  1  0  0  0  0
 16 27  2  0  0  0  0
 16 28  1  0  0  0  0
 17 19  2  0  0  0  0
 17 33  1  0  0  0  0
 18 20  2  0  0  0  0
 18 34  1  0  0  0  0
 19 42  1  0  0  0  0
 20 35  1  0  0  0  0
 21 71  1  0  0  0  0
 22 72  1  0  0  0  0
 23 25  2  0  0  0  0
 23 71  1  0  0  0  0
 24 73  1  0  0  0  0
 25 74  1  0  0  0  0
 26 56  2  0  0  0  0
 27 57  1  0  0  0  0
 27 60  1  0  0  0  0
 28 61  1  0  0  0  0
 28 66  2  0  0  0  0
 29 43  1  0  0  0  0
 29 62  1  0  0  0  0
 29 67  2  0  0  0  0
 30 53  1  0  0  0  0
 30 58  1  0  0  0  0
 30 68  2  0  0  0  0
 31 54  1  0  0  0  0
 31 63  1  0  0  0  0
 31 69  2  0  0  0  0
 32 59  1  0  0  0  0
 32 64  1  0  0  0  0
 32 70  2  0  0  0  0
 33 36  1  0  0  0  0
 34 43  1  0  0  0  0
 35 58  1  0  0  0  0
 36 38  1  0  0  0  0
 37 39  1  0  0  0  0
 37 40  1  0  0  0  0
 38 42  1  0  0  0  0
 39 44  1  0  0  0  0
 40 59  1  0  0  0  0
 41 44  1  0  0  0  0
 41 59  1  0  0  0  0
 42 62  1  0  0  0  0
 43 58  1  0  0  0  0
 44 57  1  0  0  0  0
 45 54  1  0  0  0  0
 46 55  1  0  0  0  0
 47 55  1  0  0  0  0
 48 55  1  0  0  0  0
 49 65  1  0  0  0  0
 50 51  1  0  0  0  0
 50 52  1  0  0  0  0
 51 64  1  0  0  0  0
 52 72  1  0  0  0  0
 53 55  1  0  0  0  0
 53 63  1  0  0  0  0
 54 65  1  0  0  0  0
 56 57  1  0  0  0  0
M  CHG  1  65   1
M  ISO  4  32 100  52 101  64 100  72 101
M  END
> <Batch ID>
0003

> <Smiles>
CNC(C)C(=O)NC(C(=O)N1Cc2cc([101O:1][101CH2:1]CC[100NH:0][100C:0](=O)N3CCCC(n4nc(-c5ccc(Oc6ccc(F)cc6F)cc5)c(C(N)=O)c4N)C3)ccc2CC1C(=O)NC1CCCc2ccccc21)C(C)(C)C

> <Shape>
0.222

> <Color>
0.068

> <Negative vol penalty>
0.000

$$$$

  -OEChem-04052315213D

 79 87  0     1  0  0  0  0  0999 V2000
  -17.5287  -25.7009   21.9437 C   0  0  0  0  0  0  0  0  0  0  0  0
  -18.8357  -25.4656   21.5292 C   0  0  0  0  0  0  0  0  0  0  0  0
  -23.4612  -16.5779   21.2606 C   0  0  0  0  0  0  0  0  0  0  0  0
  -23.4132  -16.2971   18.8615 C   0  0  0  0  0  0  0  0  0  0  0  0
  -17.2238  -26.8563   22.6620 C   0  0  0  0  0  0  0  0  0  0  0  0
  -19.8384  -26.3862   21.8318 C   0  0  0  0  0  0  0  0  0  0  0  0
  -24.0695  -24.1680   23.5118 C   0  0  0  0  0  0  0  0  0  0  0  0
  -22.6382  -17.6983   21.1460 C   0  0  0  0  0  0  0  0  0  0  0  0
  -22.5902  -17.4175   18.7468 C   0  0  0  0  0  0  0  0  0  0  0  0
  -24.9034  -23.5838   22.5594 C   0  0  0  0  0  0  0  0  0  0  0  0
  -20.7707  -20.4149   17.7903 C   0  0  0  0  0  0  0  0  0  0  0  0
  -21.0745  -21.3434   16.7947 C   0  0  0  0  0  0  0  0  0  0  0  0
  -26.3340  -25.5248   22.6300 C   0  0  0  0  0  0  0  0  0  0  0  0
  -23.2418  -21.7096   17.7977 C   0  0  0  0  0  0  0  0  0  0  0  0
  -23.8487  -15.8774   20.1183 C   0  0  0  0  0  0  0  0  0  0  0  0
  -24.2956  -13.3817   20.4006 C   0  0  0  0  0  0  0  0  0  0  0  0
  -18.2250  -27.7868   22.9820 C   0  0  0  0  0  0  0  0  0  0  0  0
  -24.3561  -25.4419   24.0232 C   0  0  0  0  0  0  0  0  0  0  0  0
  -19.5463  -27.5558   22.5539 C   0  0  0  0  0  0  0  0  0  0  0  0
  -25.5035  -26.1220   23.5906 C   0  0  0  0  0  0  0  0  0  0  0  0
  -22.2027  -18.1181   19.8891 C   0  0  0  0  0  0  0  0  0  0  0  0
  -26.0342  -24.2634   22.1162 C   0  0  0  0  0  0  0  0  0  0  0  0
  -21.7023  -20.1338   18.7896 C   0  0  0  0  0  0  0  0  0  0  0  0
  -22.3101  -21.9907   16.7984 C   0  0  0  0  0  0  0  0  0  0  0  0
  -22.9379  -20.7811   18.7933 C   0  0  0  0  0  0  0  0  0  0  0  0
  -24.6993  -14.7203   20.2361 C   0  0  0  0  0  0  0  0  0  0  0  0
  -25.4709  -12.6734   20.4591 C   0  0  0  0  0  0  0  0  0  0  0  0
  -22.9762  -12.8281   20.4922 C   0  0  0  0  0  0  0  0  0  0  0  0
  -22.8737  -28.2536   24.0012 C   0  0  0  0  0  0  0  0  0  0  0  0
  -27.9187  -21.9218   20.0688 C   0  0  0  0  0  0  0  0  0  0  0  0
  -25.3073  -29.1132   25.9661 C   0  0  0  0  0  0  0  0  0  0  0  0
  -28.5010  -28.5612   27.0349 C   0  0  0  0  0  0  0  0  0  0  0  0
  -29.2276  -16.7126   19.2934 C   0  0  0  0  0  0  0  0  0  0  0  0
  -17.8385  -29.0443   23.7195 C   0  0  0  0  0  0  0  0  0  0  0  0
  -23.4611  -26.0470   25.0698 C   0  0  0  0  0  0  0  0  0  0  0  0
  -25.8666  -27.4832   24.1234 C   0  0  0  0  0  0  0  0  0  0  0  0
  -19.0280  -29.7863   24.3234 C   0  0  0  0  0  0  0  0  0  0  0  0
  -28.7483  -14.6451   22.3753 C   0  0  0  0  0  0  0  0  0  0  0  0
  -20.1575  -29.9027   23.3048 C   0  0  0  0  0  0  0  0  0  0  0  0
  -28.5315  -13.2617   21.7654 C   0  0  0  0  0  0  0  0  0  0  0  0
  -29.6177  -15.5081   21.4715 C   0  0  0  0  0  0  0  0  0  0  0  0
  -29.1036  -20.1409   18.8332 C   0  0  0  0  0  0  0  0  0  0  0  0
  -27.4349  -19.4747   20.5435 C   0  0  0  0  0  0  0  0  0  0  0  0
  -30.0395  -19.0516   19.3406 C   0  0  0  0  0  0  0  0  0  0  0  0
  -28.3734  -18.3636   21.0182 C   0  0  0  0  0  0  0  0  0  0  0  0
  -28.8253  -14.2830   19.4668 C   0  0  0  0  0  0  0  0  0  0  0  0
  -20.6661  -28.5185   22.8843 C   0  0  1  0  0  0  0  0  0  0  0  0
  -23.5695  -27.5670   25.1423 C   0  0  1  0  0  0  0  0  0  0  0  0
  -27.9708  -13.3342   20.3312 C   0  0  2  0  0  0  0  0  0  0  0  0
  -30.2279  -29.4503   28.6238 C   0  0  0  0  0  0  0  0  0  0  0  0
  -25.8497  -31.4414   24.0700 C   0  0  0  0  0  0  0  0  0  0  0  0
  -28.0938  -31.7057   25.1481 C   0  0  0  0  0  0  0  0  0  0  0  0
  -26.0192  -32.0128   26.4988 C   0  0  0  0  0  0  0  0  0  0  0  0
  -28.6080  -26.0090   28.5294 C   0  0  0  0  0  0  0  0  0  0  0  0
  -26.9425  -22.2845   21.1596 C   0  0  0  0  0  0  0  0  0  1  0  0
  -26.6895  -29.6871   25.7680 C   0  0  1  0  0  0  0  0  0  0  0  0
  -29.0929  -28.4571   28.4289 C   0  0  2  0  0  0  0  0  0  0  0  0
  -26.6554  -31.1869   25.3596 C   0  0  0  0  0  0  0  0  0  0  0  0
  -26.0272  -14.8568   20.1930 N   0  0  0  0  0  0  0  0  0  0  0  0
  -26.4682  -13.5949   20.3315 N   0  0  0  0  0  0  0  0  0  0  0  0
  -24.9568  -28.0355   25.1405 N   0  0  0  0  0  0  0  0  0  0  0  0
  -28.1619  -20.5611   19.8742 N   0  0  0  0  0  0  0  0  0  0  0  0
  -29.0807  -15.5763   20.1075 N   0  0  0  0  0  0  0  0  0  0  0  0
  -29.2845  -17.9551   19.9427 N   0  0  0  0  0  0  0  0  0  0  0  0
  -25.7382  -11.3584   20.6070 N   0  0  0  0  0  0  0  0  0  0  0  0
  -21.8798  -13.6975   20.4132 N   0  0  0  0  0  0  0  0  0  0  0  0
  -21.5258  -27.9636   23.9078 N   0  0  0  0  0  0  0  0  0  0  0  0
  -27.4229  -29.4200   27.0006 N   0  0  0  0  0  0  0  0  0  0  0  0
  -29.6235  -27.0847   28.6653 N   0  3  0  0  0  0  0  0  0  0  0  0
  -22.7758  -11.6007   20.6563 O   0  0  0  0  0  0  0  0  0  0  0  0
  -23.5121  -28.9929   23.2612 O   0  0  0  0  0  0  0  0  0  0  0  0
  -28.4509  -22.8210   19.4129 O   0  0  0  0  0  0  0  0  0  0  0  0
  -24.5686  -29.5984   26.8266 O   0  0  0  0  0  0  0  0  0  0  0  0
  -28.9525  -27.9453   26.0719 O   0  0  0  0  0  0  0  0  0  0  0  0
  -29.2909  -16.6204   18.0611 O   0  0  0  0  0  0  0  0  0  0  0  0
  -21.3995  -19.2111   19.7769 O   0  0  0  0  0  0  0  0  0  0  0  0
  -26.8594  -23.6888   21.1750 O   0  0  0  0  0  0  0  0  0  1  0  0
  -22.6023  -22.8812   15.8414 F   0  0  0  0  0  0  0  0  0  0  0  0
  -23.8374  -20.5143   19.7501 F   0  0  0  0  0  0  0  0  0  0  0  0
  1  2  1  0  0  0  0
  1  5  2  0  0  0  0
  2  6  2  0  0  0  0
  3  8  2  0  0  0  0
  3 15  1  0  0  0  0
  4  9  1  0  0  0  0
  4 15  2  0  0  0  0
  5 17  1  0  0  0  0
  6 19  1  0  0  0  0
  7 10  2  0  0  0  0
  7 18  1  0  0  0  0
  8 21  1  0  0  0  0
  9 21  2  0  0  0  0
 10 22  1  0  0  0  0
 11 12  2  0  0  0  0
 11 23  1  0  0  0  0
 12 24  1  0  0  0  0
 13 20  1  0  0  0  0
 13 22  2  0  0  0  0
 14 24  2  0  0  0  0
 14 25  1  0  0  0  0
 15 26  1  0  0  0  0
 16 26  1  0  0  0  0
 16 27  2  0  0  0  0
 16 28  1  0  0  0  0
 17 19  2  0  0  0  0
 17 34  1  0  0  0  0
 18 20  2  0  0  0  0
 18 35  1  0  0  0  0
 19 47  1  0  0  0  0
 20 36  1  0  0  0  0
 21 76  1  0  0  0  0
 22 77  1  0  0  0  0
 23 25  2  0  0  0  0
 23 76  1  0  0  0  0
 24 78  1  0  0  0  0
 25 79  1  0  0  0  0
 26 59  2  0  0  0  0
 27 60  1  0  0  0  0
 27 65  1  0  0  0  0
 28 66  1  0  0  0  0
 28 70  2  0  0  0  0
 29 48  1  0  0  0  0
 29 67  1  0  0  0  0
 29 71  2  0  0  0  0
 30 55  1  0  0  0  0
 30 62  1  0  0  0  0
 30 72  2  0  0  0  0
 31 56  1  0  0  0  0
 31 61  1  0  0  0  0
 31 73  2  0  0  0  0
 32 57  1  0  0  0  0
 32 68  1  0  0  0  0
 32 74  2  0  0  0  0
 33 63  1  0  0  0  0
 33 64  1  0  0  0  0
 33 75  2  0  0  0  0
 34 37  1  0  0  0  0
 35 48  1  0  0  0  0
 36 61  1  0  0  0  0
 37 39  1  0  0  0  0
 38 40  1  0  0  0  0
 38 41  1  0  0  0  0
 39 47  1  0  0  0  0
 40 49  1  0  0  0  0
 41 63  1  0  0  0  0
 42 44  1  0  0  0  0
 42 62  1  0  0  0  0
 43 45  1  0  0  0  0
 43 62  1  0  0  0  0
 44 64  1  0  0  0  0
 45 64  1  0  0  0  0
 46 49  1  0  0  0  0
 46 63  1  0  0  0  0
 47 67  1  0  0  0  0
 48 61  1  0  0  0  0
 49 60  1  0  0  0  0
 50 57  1  0  0  0  0
 51 58  1  0  0  0  0
 52 58  1  0  0  0  0
 53 58  1  0  0  0  0
 54 69  1  0  0  0  0
 55 77  1  0  0  0  0
 56 58  1  0  0  0  0
 56 68  1  0  0  0  0
 57 69  1  0  0  0  0
 59 60  1  0  0  0  0
M  CHG  1  69   1
M  ISO  4  33 100  55 101  64 100  77 101
M  END
> <Batch ID>
0003

> <Smiles>
CNC(C)C(=O)NC(C(=O)N1Cc2cc([101O:1][101CH2:1]C(=O)N3CC[100N:0]([100C:0](=O)N4CCCC(n5nc(-c6ccc(Oc7ccc(F)cc7F)cc6)c(C(N)=O)c5N)C4)CC3)ccc2CC1C(=O)NC1CCCc2ccccc21)C(C)(C)C

> <Shape>
0.234

> <Color>
0.093

> <Negative vol penalty>
0.000

$$$$

  -OEChem-04052315213D

 83 91  0     1  0  0  0  0  0999 V2000
  -21.5234  -26.5947   21.8260 C   0  0  0  0  0  0  0  0  0  0  0  0
  -22.8194  -26.1087   21.6864 C   0  0  0  0  0  0  0  0  0  0  0  0
  -23.0980   -9.8531   20.0475 C   0  0  0  0  0  0  0  0  0  0  0  0
  -23.9215   -9.9642   22.3162 C   0  0  0  0  0  0  0  0  0  0  0  0
  -20.6278  -26.5045   20.7613 C   0  0  0  0  0  0  0  0  0  0  0  0
  -23.2203  -25.5313   20.4821 C   0  0  0  0  0  0  0  0  0  0  0  0
  -27.7894  -27.1253   18.9894 C   0  0  0  0  0  0  0  0  0  0  0  0
  -29.4467  -18.4128   20.9446 C   0  0  0  0  0  0  0  0  0  0  0  0
  -31.7307  -17.6309   20.8495 C   0  0  0  0  0  0  0  0  0  0  0  0
  -29.9006  -19.7100   21.1827 C   0  0  0  0  0  0  0  0  0  0  0  0
  -32.1847  -18.9282   21.0876 C   0  0  0  0  0  0  0  0  0  0  0  0
  -22.3830   -8.6980   20.3636 C   0  0  0  0  0  0  0  0  0  0  0  0
  -23.2064   -8.8091   22.6323 C   0  0  0  0  0  0  0  0  0  0  0  0
  -28.8977  -26.5619   19.6202 C   0  0  0  0  0  0  0  0  0  0  0  0
  -20.0117   -7.9795   23.3578 C   0  0  0  0  0  0  0  0  0  0  0  0
  -19.2887   -7.9728   24.5506 C   0  0  0  0  0  0  0  0  0  0  0  0
  -29.2080  -25.0824   17.7403 C   0  0  0  0  0  0  0  0  0  0  0  0
  -20.5859   -6.0881   25.3264 C   0  0  0  0  0  0  0  0  0  0  0  0
  -23.8674  -10.4863   21.0238 C   0  0  0  0  0  0  0  0  0  0  0  0
  -24.1587  -13.0102   20.7953 C   0  0  0  0  0  0  0  0  0  0  0  0
  -21.0209  -25.9344   19.5402 C   0  0  0  0  0  0  0  0  0  0  0  0
  -27.3748  -26.6632   17.7320 C   0  0  0  0  0  0  0  0  0  0  0  0
  -22.3288  -25.4322   19.4005 C   0  0  0  0  0  0  0  0  0  0  0  0
  -28.0956  -25.6434   17.0945 C   0  0  0  0  0  0  0  0  0  0  0  0
  -30.3617  -17.3732   20.7781 C   0  0  0  0  0  0  0  0  0  0  0  0
  -31.2696  -19.9677   21.2542 C   0  0  0  0  0  0  0  0  0  0  0  0
  -22.4371   -8.1760   21.6560 C   0  0  0  0  0  0  0  0  0  0  0  0
  -29.6055  -25.5383   18.9969 C   0  0  0  0  0  0  0  0  0  0  0  0
  -21.0219   -7.0405   23.1492 C   0  0  0  0  0  0  0  0  0  0  0  0
  -19.5758   -7.0271   25.5349 C   0  0  0  0  0  0  0  0  0  0  0  0
  -21.3090   -6.0948   24.1335 C   0  0  0  0  0  0  0  0  0  0  0  0
  -24.6067  -11.6792   20.6977 C   0  0  0  0  0  0  0  0  0  0  0  0
  -25.2262  -13.7637   20.3719 C   0  0  0  0  0  0  0  0  0  0  0  0
  -22.8911  -13.5200   21.2300 C   0  0  0  0  0  0  0  0  0  0  0  0
  -24.7397  -25.2893   16.6040 C   0  0  0  0  0  0  0  0  0  0  0  0
  -26.2389  -25.6546   13.7507 C   0  0  0  0  0  0  0  0  0  0  0  0
  -31.0012  -22.4398   21.0724 C   0  0  0  0  0  0  0  0  0  0  0  0
  -29.1719  -26.0222   12.0451 C   0  0  0  0  0  0  0  0  0  0  0  0
  -30.6748  -14.9107   20.3488 C   0  0  0  0  0  0  0  0  0  0  0  0
  -20.0033  -25.8161   18.4333 C   0  0  0  0  0  0  0  0  0  0  0  0
  -26.1931  -27.2997   17.0530 C   0  0  0  0  0  0  0  0  0  0  0  0
  -27.7037  -25.1254   15.7356 C   0  0  0  0  0  0  0  0  0  0  0  0
  -20.6202  -25.5294   17.0668 C   0  0  0  0  0  0  0  0  0  0  0  0
  -29.5396  -12.3858   18.1097 C   0  0  0  0  0  0  0  0  0  0  0  0
  -21.6580  -24.4164   17.1725 C   0  0  0  0  0  0  0  0  0  0  0  0
  -28.1182  -12.0864   18.5914 C   0  0  0  0  0  0  0  0  0  0  0  0
  -30.4836  -12.6780   19.2748 C   0  0  0  0  0  0  0  0  0  0  0  0
  -28.6028  -13.4232   20.6807 C   0  0  0  0  0  0  0  0  0  0  0  0
  -22.8086  -24.8214   18.1017 C   0  0  1  0  0  0  0  0  0  0  0  0
  -25.5524  -26.3998   16.0008 C   0  0  1  0  0  0  0  0  0  0  0  0
  -27.6009  -13.1865   19.5389 C   0  0  2  0  0  0  0  0  0  0  0  0
  -30.0813  -26.2577    9.7181 C   0  0  0  0  0  0  0  0  0  0  0  0
  -25.8006  -22.6719   13.2802 C   0  0  0  0  0  0  0  0  0  0  0  0
  -27.5143  -22.7785   11.4582 C   0  0  0  0  0  0  0  0  0  0  0  0
  -25.4146  -24.1125   11.2727 C   0  0  0  0  0  0  0  0  0  0  0  0
  -32.9658  -21.4436   22.3076 C   0  0  0  0  0  0  0  0  0  0  0  0
  -30.3263  -28.6814   12.6407 C   0  0  0  0  0  0  0  0  0  0  0  0
  -31.5278  -23.7993   21.5330 C   0  0  0  0  0  0  0  0  0  0  0  0
  -30.6863  -24.9697   21.0376 C   0  0  0  0  0  0  0  0  0  1  0  0
  -27.1900  -24.8194   12.9281 C   0  0  1  0  0  0  0  0  0  0  0  0
  -29.5882  -26.9928   10.9547 C   0  0  2  0  0  0  0  0  0  0  0  0
  -26.4864  -23.6038   12.2613 C   0  0  0  0  0  0  0  0  0  0  0  0
  -25.8609  -11.5890   20.2475 N   0  0  0  0  0  0  0  0  0  0  0  0
  -26.2102  -12.8729   20.0583 N   0  0  0  0  0  0  0  0  0  0  0  0
  -26.5375  -25.7756   15.1153 N   0  0  0  0  0  0  0  0  0  0  0  0
  -29.9303  -13.7329   20.1268 N   0  0  0  0  0  0  0  0  0  0  0  0
  -25.4097  -15.0947   20.2409 N   0  0  0  0  0  0  0  0  0  0  0  0
  -21.9061  -12.6074   21.6314 N   0  0  0  0  0  0  0  0  0  0  0  0
  -29.9007  -16.0553   20.5366 N   0  0  0  0  0  0  0  0  0  0  0  0
  -23.7138  -25.7231   17.4219 N   0  0  0  0  0  0  0  0  0  0  0  0
  -27.8249  -25.7335   11.9849 N   0  0  0  0  0  0  0  0  0  0  0  0
  -31.7417  -21.3154   21.5015 N   0  0  0  0  0  0  0  0  0  0  0  0
  -30.6821  -27.8804   11.4412 N   0  3  0  0  0  0  0  0  0  0  0  0
  -22.6337  -14.7476   21.2459 O   0  0  0  0  0  0  0  0  0  0  0  0
  -25.0215  -24.1251   16.3454 O   0  0  0  0  0  0  0  0  0  0  0  0
  -25.2707  -26.1862   13.2014 O   0  0  0  0  0  0  0  0  0  0  0  0
  -29.9706  -22.3877   20.3965 O   0  0  0  0  0  0  0  0  0  0  0  0
  -29.9632  -25.5629   12.8657 O   0  0  0  0  0  0  0  0  0  0  0  0
  -31.9084  -14.9092   20.3437 O   0  0  0  0  0  0  0  0  0  0  0  0
  -21.7393   -7.0489   21.9648 O   0  0  0  0  0  0  0  0  0  0  0  0
  -30.6873  -24.9862   19.6107 O   0  0  0  0  0  0  0  0  0  1  0  0
  -18.8824   -7.0218   26.6809 F   0  0  0  0  0  0  0  0  0  0  0  0
  -22.2791   -5.1908   23.9394 F   0  0  0  0  0  0  0  0  0  0  0  0
  1  2  1  0  0  0  0
  1  5  2  0  0  0  0
  2  6  2  0  0  0  0
  3 12  2  0  0  0  0
  3 19  1  0  0  0  0
  4 13  1  0  0  0  0
  4 19  2  0  0  0  0
  5 21  1  0  0  0  0
  6 23  1  0  0  0  0
  7 14  2  0  0  0  0
  7 22  1  0  0  0  0
  8 10  2  0  0  0  0
  8 25  1  0  0  0  0
  9 11  1  0  0  0  0
  9 25  2  0  0  0  0
 10 26  1  0  0  0  0
 11 26  2  0  0  0  0
 12 27  1  0  0  0  0
 13 27  2  0  0  0  0
 14 28  1  0  0  0  0
 15 16  2  0  0  0  0
 15 29  1  0  0  0  0
 16 30  1  0  0  0  0
 17 24  1  0  0  0  0
 17 28  2  0  0  0  0
 18 30  2  0  0  0  0
 18 31  1  0  0  0  0
 19 32  1  0  0  0  0
 20 32  1  0  0  0  0
 20 33  2  0  0  0  0
 20 34  1  0  0  0  0
 21 23  2  0  0  0  0
 21 40  1  0  0  0  0
 22 24  2  0  0  0  0
 22 41  1  0  0  0  0
 23 49  1  0  0  0  0
 24 42  1  0  0  0  0
 25 69  1  0  0  0  0
 26 72  1  0  0  0  0
 27 80  1  0  0  0  0
 28 81  1  0  0  0  0
 29 31  2  0  0  0  0
 29 80  1  0  0  0  0
 30 82  1  0  0  0  0
 31 83  1  0  0  0  0
 32 63  2  0  0  0  0
 33 64  1  0  0  0  0
 33 67  1  0  0  0  0
 34 68  1  0  0  0  0
 34 74  2  0  0  0  0
 35 50  1  0  0  0  0
 35 70  1  0  0  0  0
 35 75  2  0  0  0  0
 36 60  1  0  0  0  0
 36 65  1  0  0  0  0
 36 76  2  0  0  0  0
 37 58  1  0  0  0  0
 37 72  1  0  0  0  0
 37 77  2  0  0  0  0
 38 61  1  0  0  0  0
 38 71  1  0  0  0  0
 38 78  2  0  0  0  0
 39 66  1  0  0  0  0
 39 69  1  0  0  0  0
 39 79  2  0  0  0  0
 40 43  1  0  0  0  0
 41 50  1  0  0  0  0
 42 65  1  0  0  0  0
 43 45  1  0  0  0  0
 44 46  1  0  0  0  0
 44 47  1  0  0  0  0
 45 49  1  0  0  0  0
 46 51  1  0  0  0  0
 47 66  1  0  0  0  0
 48 51  1  0  0  0  0
 48 66  1  0  0  0  0
 49 70  1  0  0  0  0
 50 65  1  0  0  0  0
 51 64  1  0  0  0  0
 52 61  1  0  0  0  0
 53 62  1  0  0  0  0
 54 62  1  0  0  0  0
 55 62  1  0  0  0  0
 56 72  1  0  0  0  0
 57 73  1  0  0  0  0
 58 59  1  0  0  0  0
 59 81  1  0  0  0  0
 60 62  1  0  0  0  0
 60 71  1  0  0  0  0
 61 73  1  0  0  0  0
 63 64  1  0  0  0  0
M  CHG  1  73   1
M  ISO  4  39 100  59 101  69 100  81 101
M  END
> <Batch ID>
0003

> <Smiles>
CNC(C)C(=O)NC(C(=O)N1Cc2cc([101O:1][101CH2:1]CC(=O)N(C)c3ccc([100NH:0][100C:0](=O)N4CCCC(n5nc(-c6ccc(Oc7ccc(F)cc7F)cc6)c(C(N)=O)c5N)C4)cc3)ccc2CC1C(=O)NC1CCCc2ccccc21)C(C)(C)C

> <Shape>
0.232

> <Color>
0.212

> <Negative vol penalty>
0.000

$$$$

  -OEChem-04052315213D

 92100  0     1  0  0  0  0  0999 V2000
  -30.9636  -24.4484   18.4050 C   0  0  0  0  0  0  0  0  0  0  0  0
  -29.5764  -24.3733   18.4773 C   0  0  0  0  0  0  0  0  0  0  0  0
  -18.7532  -12.5979   13.9857 C   0  0  0  0  0  0  0  0  0  0  0  0
  -28.6979  -16.5173   18.5063 C   0  0  0  0  0  0  0  0  0  0  0  0
  -26.4907  -17.4010   18.9358 C   0  0  0  0  0  0  0  0  0  0  0  0
  -18.0190  -13.5055   14.7491 C   0  0  0  0  0  0  0  0  0  0  0  0
  -31.6764  -25.1254   19.3936 C   0  0  0  0  0  0  0  0  0  0  0  0
  -28.9011  -24.9743   19.5390 C   0  0  0  0  0  0  0  0  0  0  0  0
  -23.3988  -27.6569   19.3560 C   0  0  0  0  0  0  0  0  0  0  0  0
  -20.0051  -12.1683   14.4261 C   0  0  0  0  0  0  0  0  0  0  0  0
  -29.1791  -17.8124   18.3147 C   0  0  0  0  0  0  0  0  0  0  0  0
  -26.9720  -18.6961   18.7442 C   0  0  0  0  0  0  0  0  0  0  0  0
  -22.1247  -27.2086   19.7017 C   0  0  0  0  0  0  0  0  0  0  0  0
  -31.0672  -20.9090   18.0675 C   0  0  0  0  0  0  0  0  0  0  0  0
  -32.2775  -21.2473   18.6728 C   0  0  0  0  0  0  0  0  0  0  0  0
  -19.7886  -13.5541   16.3933 C   0  0  0  0  0  0  0  0  0  0  0  0
  -22.3553  -28.2430   21.8687 C   0  0  0  0  0  0  0  0  0  0  0  0
  -31.3257  -20.7715   20.8419 C   0  0  0  0  0  0  0  0  0  0  0  0
  -27.3537  -16.3116   18.8168 C   0  0  0  0  0  0  0  0  0  0  0  0
  -18.5367  -13.9837   15.9529 C   0  0  0  0  0  0  0  0  0  0  0  0
  -26.8037  -14.2563   20.2243 C   0  0  0  0  0  0  0  0  0  0  0  0
  -31.0088  -25.7433   20.4629 C   0  0  0  0  0  0  0  0  0  0  0  0
  -24.1663  -28.3936   20.2695 C   0  0  0  0  0  0  0  0  0  0  0  0
  -29.6057  -25.6591   20.5436 C   0  0  0  0  0  0  0  0  0  0  0  0
  -23.6378  -28.7017   21.5312 C   0  0  0  0  0  0  0  0  0  0  0  0
  -20.5228  -12.6464   15.6299 C   0  0  0  0  0  0  0  0  0  0  0  0
  -28.3162  -18.9018   18.4336 C   0  0  0  0  0  0  0  0  0  0  0  0
  -21.6039  -27.4991   20.9593 C   0  0  0  0  0  0  0  0  0  0  0  0
  -29.9862  -20.5020   18.8494 C   0  0  0  0  0  0  0  0  0  0  0  0
  -32.4068  -21.1785   20.0600 C   0  0  0  0  0  0  0  0  0  0  0  0
  -30.1154  -20.4332   20.2366 C   0  0  0  0  0  0  0  0  0  0  0  0
  -26.8558  -14.9740   19.0144 C   0  0  0  0  0  0  0  0  0  0  0  0
  -26.2517  -13.0460   19.8823 C   0  0  0  0  0  0  0  0  0  0  0  0
  -17.7599  -14.9422   16.7586 C   0  0  0  0  0  0  0  0  0  0  0  0
  -18.2814  -15.7456   17.6974 C   0  0  0  0  0  0  0  0  0  0  0  0
  -27.2173  -14.6486   21.5399 C   0  0  0  0  0  0  0  0  0  0  0  0
  -17.3986  -16.6853   18.4458 C   0  0  0  0  0  0  0  0  0  0  0  0
  -26.9590  -27.9523   21.7221 C   0  0  0  0  0  0  0  0  0  0  0  0
  -26.4491  -30.9788   22.7722 C   0  0  0  0  0  0  0  0  0  0  0  0
  -18.2746  -25.9284   20.8347 C   0  0  0  0  0  0  0  0  0  0  0  0
  -24.2191  -33.4659   23.4710 C   0  0  0  0  0  0  0  0  0  0  0  0
  -22.6507  -11.3113   15.4406 C   0  0  0  0  0  0  0  0  0  0  0  0
  -31.8256  -26.4233   21.5329 C   0  0  0  0  0  0  0  0  0  0  0  0
  -25.5282  -28.8928   19.8715 C   0  0  0  0  0  0  0  0  0  0  0  0
  -24.4133  -29.5066   22.5408 C   0  0  0  0  0  0  0  0  0  0  0  0
  -31.0074  -27.3534   22.4249 C   0  0  0  0  0  0  0  0  0  0  0  0
  -25.8764  -10.0086   16.1989 C   0  0  0  0  0  0  0  0  0  0  0  0
  -29.7189  -26.6690   22.8702 C   0  0  0  0  0  0  0  0  0  0  0  0
  -26.4865  -11.0658   17.1220 C   0  0  0  0  0  0  0  0  0  0  0  0
  -25.0191  -10.6392   15.1029 C   0  0  0  0  0  0  0  0  0  0  0  0
  -24.5928  -12.6208   16.5032 C   0  0  0  0  0  0  0  0  0  0  0  0
  -28.8355  -26.3194   21.6665 C   0  0  1  0  0  0  0  0  0  0  0  0
  -26.4266  -29.1953   21.0669 C   0  0  1  0  0  0  0  0  0  0  0  0
  -25.4122  -12.0299   17.6622 C   0  0  2  0  0  0  0  0  0  0  0  0
  -24.0975  -35.8125   24.3519 C   0  0  0  0  0  0  0  0  0  0  0  0
  -26.8810  -29.9346   25.6064 C   0  0  0  0  0  0  0  0  0  0  0  0
  -25.8323  -32.0390   26.4668 C   0  0  0  0  0  0  0  0  0  0  0  0
  -27.9408  -32.1510   25.1384 C   0  0  0  0  0  0  0  0  0  0  0  0
  -23.0545  -34.4774   20.9452 C   0  0  0  0  0  0  0  0  0  0  0  0
  -19.6455  -26.3113   20.3194 C   0  0  0  0  0  0  0  0  0  1  0  0
  -16.8401  -20.8586   20.5236 C   0  0  0  0  0  0  0  0  0  0  0  0
  -16.8231  -22.2375   19.8593 C   0  0  0  0  0  0  0  0  0  0  0  0
  -17.4713  -19.8091   19.6022 C   0  0  0  0  0  0  0  0  0  0  0  0
  -16.1948  -23.3283   20.7345 C   0  0  0  0  0  0  0  0  0  0  0  0
  -17.4927  -18.4185   20.2290 C   0  0  0  0  0  0  0  0  0  0  0  0
  -16.2139  -24.7285   20.1282 C   0  0  0  0  0  0  0  0  0  0  0  0
  -25.7685  -31.5940   23.9710 C   0  0  1  0  0  0  0  0  0  0  0  0
  -24.2094  -34.9406   23.1110 C   0  0  2  0  0  0  0  0  0  0  0  0
  -26.5915  -31.4128   25.2776 C   0  0  0  0  0  0  0  0  0  0  0  0
  -26.3754  -14.2776   17.9808 N   0  0  0  0  0  0  0  0  0  0  0  0
  -26.0162  -13.1097   18.5404 N   0  0  0  0  0  0  0  0  0  0  0  0
  -25.7428  -29.9667   22.1069 N   0  0  0  0  0  0  0  0  0  0  0  0
  -24.0212  -11.5365   15.6894 N   0  0  0  0  0  0  0  0  0  0  0  0
  -25.9497  -11.9442   20.6014 N   0  0  0  0  0  0  0  0  0  0  0  0
  -27.7641  -15.9272   21.7149 N   0  0  0  0  0  0  0  0  0  0  0  0
  -21.7941  -12.2088   16.0772 N   0  0  0  0  0  0  0  0  0  0  0  0
  -18.1054  -17.4376   19.3760 N   0  0  0  0  0  0  0  0  0  0  0  0
  -28.1483  -27.4983   21.1845 N   0  0  0  0  0  0  0  0  0  0  0  0
  -17.5538  -25.2135   19.8910 N   0  0  0  0  0  0  0  0  0  0  0  0
  -25.5027  -32.9850   23.6203 N   0  0  0  0  0  0  0  0  0  0  0  0
  -23.0583  -35.2476   22.2156 N   0  3  0  0  0  0  0  0  0  0  0  0
  -27.1204  -13.8818   22.5280 O   0  0  0  0  0  0  0  0  0  0  0  0
  -16.1917  -16.7616   18.2403 O   0  0  0  0  0  0  0  0  0  0  0  0
  -26.3377  -27.4437   22.6478 O   0  0  0  0  0  0  0  0  0  0  0  0
  -27.5632  -31.3863   22.4341 O   0  0  0  0  0  0  0  0  0  0  0  0
  -17.8784  -26.2308   21.9570 O   0  0  0  0  0  0  0  0  0  0  0  0
  -23.1907  -32.8073   23.6098 O   0  0  0  0  0  0  0  0  0  0  0  0
  -22.2642  -10.3737   14.7381 O   0  0  0  0  0  0  0  0  0  0  0  0
  -28.7855  -20.1657   18.2469 O   0  0  0  0  0  0  0  0  0  0  0  0
  -20.3609  -27.0622   21.2996 O   0  0  0  0  0  0  0  0  0  1  0  0
  -33.5695  -21.5019   20.6410 F   0  0  0  0  0  0  0  0  0  0  0  0
  -29.0807  -20.0417   20.9929 F   0  0  0  0  0  0  0  0  0  0  0  0
  1  2  1  0  0  0  0
  1  7  2  0  0  0  0
  2  8  2  0  0  0  0
  3  6  2  0  0  0  0
  3 10  1  0  0  0  0
  4 11  2  0  0  0  0
  4 19  1  0  0  0  0
  5 12  1  0  0  0  0
  5 19  2  0  0  0  0
  6 20  1  0  0  0  0
  7 22  1  0  0  0  0
  8 24  1  0  0  0  0
  9 13  2  0  0  0  0
  9 23  1  0  0  0  0
 10 26  2  0  0  0  0
 11 27  1  0  0  0  0
 12 27  2  0  0  0  0
 13 28  1  0  0  0  0
 14 15  2  0  0  0  0
 14 29  1  0  0  0  0
 15 30  1  0  0  0  0
 16 20  2  0  0  0  0
 16 26  1  0  0  0  0
 17 25  1  0  0  0  0
 17 28  2  0  0  0  0
 18 30  2  0  0  0  0
 18 31  1  0  0  0  0
 19 32  1  0  0  0  0
 20 34  1  0  0  0  0
 21 32  1  0  0  0  0
 21 33  2  0  0  0  0
 21 36  1  0  0  0  0
 22 24  2  0  0  0  0
 22 43  1  0  0  0  0
 23 25  2  0  0  0  0
 23 44  1  0  0  0  0
 24 52  1  0  0  0  0
 25 45  1  0  0  0  0
 26 76  1  0  0  0  0
 27 89  1  0  0  0  0
 28 90  1  0  0  0  0
 29 31  2  0  0  0  0
 29 89  1  0  0  0  0
 30 91  1  0  0  0  0
 31 92  1  0  0  0  0
 32 70  2  0  0  0  0
 33 71  1  0  0  0  0
 33 74  1  0  0  0  0
 34 35  2  0  0  0  0
 35 37  1  0  0  0  0
 36 75  1  0  0  0  0
 36 82  2  0  0  0  0
 37 77  1  0  0  0  0
 37 83  2  0  0  0  0
 38 53  1  0  0  0  0
 38 78  1  0  0  0  0
 38 84  2  0  0  0  0
 39 67  1  0  0  0  0
 39 72  1  0  0  0  0
 39 85  2  0  0  0  0
 40 60  1  0  0  0  0
 40 79  1  0  0  0  0
 40 86  2  0  0  0  0
 41 68  1  0  0  0  0
 41 80  1  0  0  0  0
 41 87  2  0  0  0  0
 42 73  1  0  0  0  0
 42 76  1  0  0  0  0
 42 88  2  0  0  0  0
 43 46  1  0  0  0  0
 44 53  1  0  0  0  0
 45 72  1  0  0  0  0
 46 48  1  0  0  0  0
 47 49  1  0  0  0  0
 47 50  1  0  0  0  0
 48 52  1  0  0  0  0
 49 54  1  0  0  0  0
 50 73  1  0  0  0  0
 51 54  1  0  0  0  0
 51 73  1  0  0  0  0
 52 78  1  0  0  0  0
 53 72  1  0  0  0  0
 54 71  1  0  0  0  0
 55 68  1  0  0  0  0
 56 69  1  0  0  0  0
 57 69  1  0  0  0  0
 58 69  1  0  0  0  0
 59 81  1  0  0  0  0
 60 90  1  0  0  0  0
 61 62  1  0  0  0  0
 61 63  1  0  0  0  0
 62 64  1  0  0  0  0
 63 65  1  0  0  0  0
 64 66  1  0  0  0  0
 65 77  1  0  0  0  0
 66 79  1  0  0  0  0
 67 69  1  0  0  0  0
 67 80  1  0  0  0  0
 68 81  1  0  0  0  0
 70 71  1  0  0  0  0
M  CHG  1  81   1
M  ISO  4  42 100  60 101  76 100  90 101
M  END
> <Batch ID>
0003

> <Smiles>
CNC(C)C(=O)NC(C(=O)N1Cc2cc([101O:1][101CH2:1]C(=O)NCCCCCCNC(=O)C=Cc3cccc([100NH:0][100C:0](=O)N4CCCC(n5nc(-c6ccc(Oc7ccc(F)cc7F)cc6)c(C(N)=O)c5N)C4)c3)ccc2CC1C(=O)NC1CCCc2ccccc21)C(C)(C)C

> <Shape>
0.230

> <Color>
0.055

> <Negative vol penalty>
0.000

$$$$

  -OEChem-04052315213D

 88 96  0     1  0  0  0  0  0999 V2000
  -17.3176  -30.8128   23.8350 C   0  0  0  0  0  0  0  0  0  0  0  0
  -18.6772  -31.1058   23.8002 C   0  0  0  0  0  0  0  0  0  0  0  0
  -24.2582  -13.6783   21.4946 C   0  0  0  0  0  0  0  0  0  0  0  0
  -26.1688  -13.7130   20.0163 C   0  0  0  0  0  0  0  0  0  0  0  0
  -16.8726  -29.5340   23.5026 C   0  0  0  0  0  0  0  0  0  0  0  0
  -19.5926  -30.1197   23.4340 C   0  0  0  0  0  0  0  0  0  0  0  0
  -25.8746  -29.2985   20.0905 C   0  0  0  0  0  0  0  0  0  0  0  0
  -29.2975  -20.8670   17.3220 C   0  0  0  0  0  0  0  0  0  0  0  0
  -28.4597  -22.9934   18.1055 C   0  0  0  0  0  0  0  0  0  0  0  0
  -23.8768  -12.4423   20.9728 C   0  0  0  0  0  0  0  0  0  0  0  0
  -25.7874  -12.4770   19.4944 C   0  0  0  0  0  0  0  0  0  0  0  0
  -27.1308  -28.7256   20.2839 C   0  0  0  0  0  0  0  0  0  0  0  0
  -30.5036  -21.4723   16.9689 C   0  0  0  0  0  0  0  0  0  0  0  0
  -29.6659  -23.5986   17.7524 C   0  0  0  0  0  0  0  0  0  0  0  0
  -22.5997   -9.1092   20.2839 C   0  0  0  0  0  0  0  0  0  0  0  0
  -22.2086   -8.1180   21.1840 C   0  0  0  0  0  0  0  0  0  0  0  0
  -26.2401  -26.5742   19.6536 C   0  0  0  0  0  0  0  0  0  0  0  0
  -24.3840   -8.2102   22.2309 C   0  0  0  0  0  0  0  0  0  0  0  0
  -25.4041  -14.3138   21.0164 C   0  0  0  0  0  0  0  0  0  0  0  0
  -26.6453  -15.8250   22.6545 C   0  0  0  0  0  0  0  0  0  0  0  0
  -17.7822  -28.5345   23.1229 C   0  0  0  0  0  0  0  0  0  0  0  0
  -24.7873  -28.5102   19.6870 C   0  0  0  0  0  0  0  0  0  0  0  0
  -19.1594  -28.8260   23.0975 C   0  0  0  0  0  0  0  0  0  0  0  0
  -24.9717  -27.1400   19.4533 C   0  0  0  0  0  0  0  0  0  0  0  0
  -28.2755  -21.6276   17.8902 C   0  0  0  0  0  0  0  0  0  0  0  0
  -24.6414  -11.8416   19.9727 C   0  0  0  0  0  0  0  0  0  0  0  0
  -30.6878  -22.8380   17.1841 C   0  0  0  0  0  0  0  0  0  0  0  0
  -27.3131  -27.3628   20.0683 C   0  0  0  0  0  0  0  0  0  0  0  0
  -23.8831   -9.6508   20.3572 C   0  0  0  0  0  0  0  0  0  0  0  0
  -23.1007   -7.6686   22.1575 C   0  0  0  0  0  0  0  0  0  0  0  0
  -24.7752   -9.2014   21.3308 C   0  0  0  0  0  0  0  0  0  0  0  0
  -25.7983  -15.5908   21.5547 C   0  0  0  0  0  0  0  0  0  0  0  0
  -26.7022  -17.1933   22.7588 C   0  0  0  0  0  0  0  0  0  0  0  0
  -27.3203  -14.8892   23.5056 C   0  0  0  0  0  0  0  0  0  0  0  0
  -21.9722  -27.7539   20.9547 C   0  0  0  0  0  0  0  0  0  0  0  0
  -21.4951  -26.3366   18.0762 C   0  0  0  0  0  0  0  0  0  0  0  0
  -22.8529  -24.9339   15.2769 C   0  0  0  0  0  0  0  0  0  0  0  0
  -25.9352  -21.6229   18.8224 C   0  0  0  0  0  0  0  0  0  0  0  0
  -17.2578  -27.1536   22.8180 C   0  0  0  0  0  0  0  0  0  0  0  0
  -23.4448  -29.1483   19.4570 C   0  0  0  0  0  0  0  0  0  0  0  0
  -23.8415  -26.2537   18.9998 C   0  0  0  0  0  0  0  0  0  0  0  0
  -18.2601  -26.2710   22.0786 C   0  0  0  0  0  0  0  0  0  0  0  0
  -24.1286  -21.1285   21.8505 C   0  0  0  0  0  0  0  0  0  0  0  0
  -19.6343  -26.3584   22.7349 C   0  0  0  0  0  0  0  0  0  0  0  0
  -24.4338  -19.6755   22.2216 C   0  0  0  0  0  0  0  0  0  0  0  0
  -23.9922  -21.3115   20.3400 C   0  0  0  0  0  0  0  0  0  0  0  0
  -25.4266  -19.3531   19.9200 C   0  0  0  0  0  0  0  0  0  0  0  0
  -20.1811  -27.7901   22.6814 C   0  0  1  0  0  0  0  0  0  0  0  0
  -22.2891  -28.1560   19.5421 C   0  0  1  0  0  0  0  0  0  0  0  0
  -25.6371  -19.1317   21.4268 C   0  0  2  0  0  0  0  0  0  0  0  0
  -22.2105  -23.8302   13.1167 C   0  0  0  0  0  0  0  0  0  0  0  0
  -20.8098  -23.7776   19.5902 C   0  0  0  0  0  0  0  0  0  0  0  0
  -21.1121  -22.5134   17.4504 C   0  0  0  0  0  0  0  0  0  0  0  0
  -19.3352  -24.2553   17.6276 C   0  0  0  0  0  0  0  0  0  0  0  0
  -24.1832  -27.0356   13.6732 C   0  0  0  0  0  0  0  0  0  0  0  0
  -30.8866  -26.8763   20.8132 C   0  0  0  0  0  0  0  0  0  0  0  0
  -32.0382  -27.7597   21.2802 C   0  0  0  0  0  0  0  0  0  0  0  0
  -34.2432  -23.4868   17.2110 C   0  0  0  0  0  0  0  0  0  0  0  0
  -35.1878  -24.9830   18.9739 C   0  0  0  0  0  0  0  0  0  0  0  0
  -29.5921  -27.6667   20.6764 C   0  0  0  0  0  0  0  0  0  1  0  0
  -33.3222  -26.9619   21.4585 C   0  0  0  0  0  0  0  0  0  0  0  0
  -33.0386  -22.6217   16.8968 C   0  0  0  0  0  0  0  0  0  0  0  0
  -34.8626  -25.6006   20.3197 C   0  0  0  0  0  0  0  0  0  0  0  0
  -21.7586  -24.9650   17.5031 C   0  0  1  0  0  0  0  0  0  0  0  0
  -22.5594  -25.1422   13.8022 C   0  0  2  0  0  0  0  0  0  0  0  0
  -20.7750  -23.8939   18.0533 C   0  0  0  0  0  0  0  0  0  0  0  0
  -25.3493  -16.7199   21.0001 N   0  0  0  0  0  0  0  0  0  0  0  0
  -25.9162  -17.6768   21.7545 N   0  0  0  0  0  0  0  0  0  0  0  0
  -22.5464  -26.9233   18.7948 N   0  0  0  0  0  0  0  0  0  0  0  0
  -25.1704  -20.7772   19.6534 N   0  0  0  0  0  0  0  0  0  0  0  0
  -27.3474  -18.0181   23.6108 N   0  0  0  0  0  0  0  0  0  0  0  0
  -27.1529  -13.5199   23.2584 N   0  0  0  0  0  0  0  0  0  0  0  0
  -27.0503  -21.0129   18.2489 N   0  0  0  0  0  0  0  0  0  0  0  0
  -20.6939  -28.0863   21.3609 N   0  0  0  0  0  0  0  0  0  0  0  0
  -21.7274  -25.1159   16.0524 N   0  0  0  0  0  0  0  0  0  0  0  0
  -23.7445  -25.7302   13.1161 N   0  3  0  0  0  0  0  0  0  0  0  0
  -34.0538  -24.1286   18.5399 N   0  3  0  0  0  0  0  0  0  0  0  0
  -28.0371  -15.2563   24.4674 O   0  0  0  0  0  0  0  0  0  0  0  0
  -22.8238  -27.1830   21.6259 O   0  0  0  0  0  0  0  0  0  0  0  0
  -20.3995  -26.8708   17.8870 O   0  0  0  0  0  0  0  0  0  0  0  0
  -23.9682  -24.6357   15.6985 O   0  0  0  0  0  0  0  0  0  0  0  0
  -25.6392  -22.8089   18.6552 O   0  0  0  0  0  0  0  0  0  0  0  0
  -24.2697  -10.6354   19.4634 O   0  0  0  0  0  0  0  0  0  0  0  0
  -31.8728  -23.4328   16.8372 O   0  0  0  0  0  0  0  0  0  0  0  0
  -28.5381  -26.8010   20.2570 O   0  0  0  0  0  0  0  0  0  1  0  0
  -33.6671  -26.3624   20.2172 O   0  0  0  0  0  0  0  0  0  0  0  0
  -22.7244   -6.7179   23.0228 F   0  0  0  0  0  0  0  0  0  0  0  0
  -26.0090   -9.7188   21.4069 F   0  0  0  0  0  0  0  0  0  0  0  0
  1  2  1  0  0  0  0
  1  5  2  0  0  0  0
  2  6  2  0  0  0  0
  3 10  2  0  0  0  0
  3 19  1  0  0  0  0
  4 11  1  0  0  0  0
  4 19  2  0  0  0  0
  5 21  1  0  0  0  0
  6 23  1  0  0  0  0
  7 12  2  0  0  0  0
  7 22  1  0  0  0  0
  8 13  2  0  0  0  0
  8 25  1  0  0  0  0
  9 14  1  0  0  0  0
  9 25  2  0  0  0  0
 10 26  1  0  0  0  0
 11 26  2  0  0  0  0
 12 28  1  0  0  0  0
 13 27  1  0  0  0  0
 14 27  2  0  0  0  0
 15 16  2  0  0  0  0
 15 29  1  0  0  0  0
 16 30  1  0  0  0  0
 17 24  1  0  0  0  0
 17 28  2  0  0  0  0
 18 30  2  0  0  0  0
 18 31  1  0  0  0  0
 19 32  1  0  0  0  0
 20 32  1  0  0  0  0
 20 33  2  0  0  0  0
 20 34  1  0  0  0  0
 21 23  2  0  0  0  0
 21 39  1  0  0  0  0
 22 24  2  0  0  0  0
 22 40  1  0  0  0  0
 23 48  1  0  0  0  0
 24 41  1  0  0  0  0
 25 73  1  0  0  0  0
 26 83  1  0  0  0  0
 27 84  1  0  0  0  0
 28 85  1  0  0  0  0
 29 31  2  0  0  0  0
 29 83  1  0  0  0  0
 30 87  1  0  0  0  0
 31 88  1  0  0  0  0
 32 67  2  0  0  0  0
 33 68  1  0  0  0  0
 33 71  1  0  0  0  0
 34 72  1  0  0  0  0
 34 78  2  0  0  0  0
 35 49  1  0  0  0  0
 35 74  1  0  0  0  0
 35 79  2  0  0  0  0
 36 64  1  0  0  0  0
 36 69  1  0  0  0  0
 36 80  2  0  0  0  0
 37 65  1  0  0  0  0
 37 75  1  0  0  0  0
 37 81  2  0  0  0  0
 38 70  1  0  0  0  0
 38 73  1  0  0  0  0
 38 82  2  0  0  0  0
 39 42  1  0  0  0  0
 40 49  1  0  0  0  0
 41 69  1  0  0  0  0
 42 44  1  0  0  0  0
 43 45  1  0  0  0  0
 43 46  1  0  0  0  0
 44 48  1  0  0  0  0
 45 50  1  0  0  0  0
 46 70  1  0  0  0  0
 47 50  1  0  0  0  0
 47 70  1  0  0  0  0
 48 74  1  0  0  0  0
 49 69  1  0  0  0  0
 50 68  1  0  0  0  0
 51 65  1  0  0  0  0
 52 66  1  0  0  0  0
 53 66  1  0  0  0  0
 54 66  1  0  0  0  0
 55 76  1  0  0  0  0
 56 57  1  0  0  0  0
 56 60  1  0  0  0  0
 57 61  1  0  0  0  0
 58 62  1  0  0  0  0
 58 77  1  0  0  0  0
 59 63  1  0  0  0  0
 59 77  1  0  0  0  0
 60 85  1  0  0  0  0
 61 86  1  0  0  0  0
 62 84  1  0  0  0  0
 63 86  1  0  0  0  0
 64 66  1  0  0  0  0
 64 75  1  0  0  0  0
 65 76  1  0  0  0  0
 67 68  1  0  0  0  0
M  CHG  2  76   1  77   1
M  ISO  4  38 100  60 101  73 100  85 101
M  END
> <Batch ID>
0003

> <Smiles>
CNC(C)C(=O)NC(C(=O)N1Cc2cc([101O:1][101CH2:1]CCCOCCNCCOc3ccc([100NH:0][100C:0](=O)N4CCCC(n5nc(-c6ccc(Oc7ccc(F)cc7F)cc6)c(C(N)=O)c5N)C4)cc3)ccc2CC1C(=O)NC1CCCc2ccccc21)C(C)(C)C

> <Shape>
0.226

> <Color>
0.087

> <Negative vol penalty>
0.000

$$$$

  -OEChem-04052315213D

 84 92  0     1  0  0  0  0  0999 V2000
  -30.8275  -28.3669   18.4800 C   0  0  0  0  0  0  0  0  0  0  0  0
  -31.0018  -27.4922   19.5477 C   0  0  0  0  0  0  0  0  0  0  0  0
  -32.6519  -17.4883   23.4594 C   0  0  0  0  0  0  0  0  0  0  0  0
  -23.0751   -9.8682   19.9394 C   0  0  0  0  0  0  0  0  0  0  0  0
  -23.8348   -9.8732   22.2329 C   0  0  0  0  0  0  0  0  0  0  0  0
  -31.8539  -18.3545   24.2066 C   0  0  0  0  0  0  0  0  0  0  0  0
  -31.9301  -28.7868   17.7372 C   0  0  0  0  0  0  0  0  0  0  0  0
  -32.2789  -27.0360   19.8725 C   0  0  0  0  0  0  0  0  0  0  0  0
  -33.1825  -27.1731   24.8534 C   0  0  0  0  0  0  0  0  0  0  0  0
  -32.0642  -16.6047   22.5540 C   0  0  0  0  0  0  0  0  0  0  0  0
  -22.3308   -8.7151   20.1884 C   0  0  0  0  0  0  0  0  0  0  0  0
  -23.0904   -8.7201   22.4819 C   0  0  0  0  0  0  0  0  0  0  0  0
  -32.6295  -26.1552   25.6291 C   0  0  0  0  0  0  0  0  0  0  0  0
  -19.8620   -7.9229   23.0835 C   0  0  0  0  0  0  0  0  0  0  0  0
  -19.1049   -7.8823   24.2543 C   0  0  0  0  0  0  0  0  0  0  0  0
  -29.8804  -17.4537   23.1433 C   0  0  0  0  0  0  0  0  0  0  0  0
  -34.7587  -25.0215   25.6486 C   0  0  0  0  0  0  0  0  0  0  0  0
  -20.3456   -5.9439   24.9894 C   0  0  0  0  0  0  0  0  0  0  0  0
  -23.8271  -10.4473   20.9616 C   0  0  0  0  0  0  0  0  0  0  0  0
  -30.4682  -18.3372   24.0486 C   0  0  0  0  0  0  0  0  0  0  0  0
  -24.1698  -12.9724   20.8436 C   0  0  0  0  0  0  0  0  0  0  0  0
  -33.2225  -28.3431   18.0590 C   0  0  0  0  0  0  0  0  0  0  0  0
  -34.5273  -27.1173   24.4596 C   0  0  0  0  0  0  0  0  0  0  0  0
  -33.3997  -27.4492   19.1324 C   0  0  0  0  0  0  0  0  0  0  0  0
  -35.3271  -26.0412   24.8701 C   0  0  0  0  0  0  0  0  0  0  0  0
  -30.6784  -16.5874   22.3960 C   0  0  0  0  0  0  0  0  0  0  0  0
  -22.3385   -8.1411   21.4596 C   0  0  0  0  0  0  0  0  0  0  0  0
  -33.4168  -25.0777   26.0244 C   0  0  0  0  0  0  0  0  0  0  0  0
  -20.8608   -6.9739   22.8656 C   0  0  0  0  0  0  0  0  0  0  0  0
  -19.3467   -6.8928   25.2072 C   0  0  0  0  0  0  0  0  0  0  0  0
  -21.1026   -5.9845   23.8185 C   0  0  0  0  0  0  0  0  0  0  0  0
  -24.5966  -11.6381   20.7049 C   0  0  0  0  0  0  0  0  0  0  0  0
  -25.2622  -13.7218   20.4810 C   0  0  0  0  0  0  0  0  0  0  0  0
  -29.6195  -19.2605   24.8451 C   0  0  0  0  0  0  0  0  0  0  0  0
  -22.8994  -13.4883   21.2628 C   0  0  0  0  0  0  0  0  0  0  0  0
  -36.0436  -26.9751   21.6696 C   0  0  0  0  0  0  0  0  0  0  0  0
  -38.6818  -27.2969   23.5294 C   0  0  0  0  0  0  0  0  0  0  0  0
  -40.1284  -26.9153   26.5967 C   0  0  0  0  0  0  0  0  0  0  0  0
  -30.7287  -14.7654   20.6570 C   0  0  0  0  0  0  0  0  0  0  0  0
  -34.3780  -28.7872   17.1975 C   0  0  0  0  0  0  0  0  0  0  0  0
  -35.1157  -28.2367   23.6453 C   0  0  0  0  0  0  0  0  0  0  0  0
  -36.7815  -25.9443   24.4909 C   0  0  0  0  0  0  0  0  0  0  0  0
  -35.7425  -28.5520   17.8402 C   0  0  0  0  0  0  0  0  0  0  0  0
  -29.6138  -12.3538   18.2868 C   0  0  0  0  0  0  0  0  0  0  0  0
  -35.8203  -27.1469   18.4288 C   0  0  0  0  0  0  0  0  0  0  0  0
  -28.1740  -12.0624   18.7160 C   0  0  0  0  0  0  0  0  0  0  0  0
  -30.5288  -12.5814   19.4887 C   0  0  0  0  0  0  0  0  0  0  0  0
  -28.6220  -13.3054   20.8703 C   0  0  0  0  0  0  0  0  0  0  0  0
  -34.7721  -26.9517   19.5310 C   0  0  1  0  0  0  0  0  0  0  0  0
  -36.3621  -27.8205   22.8702 C   0  0  1  0  0  0  0  0  0  0  0  0
  -27.6492  -13.1334   19.6923 C   0  0  2  0  0  0  0  0  0  0  0  0
  -42.3083  -27.2297   27.7995 C   0  0  0  0  0  0  0  0  0  0  0  0
  -39.7835  -24.7903   22.1829 C   0  0  0  0  0  0  0  0  0  0  0  0
  -41.4577  -24.6151   24.0362 C   0  0  0  0  0  0  0  0  0  0  0  0
  -41.4637  -26.6086   22.5367 C   0  0  0  0  0  0  0  0  0  0  0  0
  -38.9369  -28.8520   28.4910 C   0  0  0  0  0  0  0  0  0  0  0  0
  -29.7269  -22.0089   26.7107 C   0  0  0  0  0  0  0  0  0  0  0  0
  -31.2055  -22.3461   26.9054 C   0  0  0  0  0  0  0  0  0  0  0  0
  -29.4252  -20.5353   26.9648 C   0  0  0  0  0  0  0  0  0  0  0  0
  -31.4889  -23.8129   26.6069 C   0  0  0  0  0  0  0  0  0  1  0  0
  -39.6128  -26.3433   24.2384 C   0  0  1  0  0  0  0  0  0  0  0  0
  -40.9713  -27.8574   27.4371 C   0  0  2  0  0  0  0  0  0  0  0  0
  -40.5515  -25.5899   23.2542 C   0  0  0  0  0  0  0  0  0  0  0  0
  -25.8615  -11.5421   20.2866 N   0  0  0  0  0  0  0  0  0  0  0  0
  -26.2388  -12.8257   20.1593 N   0  0  0  0  0  0  0  0  0  0  0  0
  -37.3090  -27.0604   23.6886 N   0  0  0  0  0  0  0  0  0  0  0  0
  -29.9701  -13.6117   20.3668 N   0  0  0  0  0  0  0  0  0  0  0  0
  -25.4731  -15.0532   20.4090 N   0  0  0  0  0  0  0  0  0  0  0  0
  -21.8872  -12.5792   21.5993 N   0  0  0  0  0  0  0  0  0  0  0  0
  -30.0816  -15.6901   21.4761 N   0  0  0  0  0  0  0  0  0  0  0  0
  -30.1371  -19.6642   26.0705 N   0  0  0  0  0  0  0  0  0  0  0  0
  -35.2044  -27.5864   20.7577 N   0  0  0  0  0  0  0  0  0  0  0  0
  -40.3130  -27.1308   25.2473 N   0  0  0  0  0  0  0  0  0  0  0  0
  -40.2580  -28.2050   28.6986 N   0  3  0  0  0  0  0  0  0  0  0  0
  -28.5232  -19.5974   24.4056 O   0  0  0  0  0  0  0  0  0  0  0  0
  -22.6636  -14.7189   21.3210 O   0  0  0  0  0  0  0  0  0  0  0  0
  -36.5248  -25.8519   21.5767 O   0  0  0  0  0  0  0  0  0  0  0  0
  -39.1550  -28.2221   22.8647 O   0  0  0  0  0  0  0  0  0  0  0  0
  -39.3837  -26.0699   27.0880 O   0  0  0  0  0  0  0  0  0  0  0  0
  -31.8579  -14.9341   20.1896 O   0  0  0  0  0  0  0  0  0  0  0  0
  -21.6121   -7.0160   21.7030 O   0  0  0  0  0  0  0  0  0  0  0  0
  -32.8793  -24.0825   26.7810 O   0  0  0  0  0  0  0  0  0  1  0  0
  -18.6206   -6.8549   26.3322 F   0  0  0  0  0  0  0  0  0  0  0  0
  -22.0617   -5.0708   23.6153 F   0  0  0  0  0  0  0  0  0  0  0  0
  1  2  1  0  0  0  0
  1  7  2  0  0  0  0
  2  8  2  0  0  0  0
  3  6  2  0  0  0  0
  3 10  1  0  0  0  0
  4 11  2  0  0  0  0
  4 19  1  0  0  0  0
  5 12  1  0  0  0  0
  5 19  2  0  0  0  0
  6 20  1  0  0  0  0
  7 22  1  0  0  0  0
  8 24  1  0  0  0  0
  9 13  2  0  0  0  0
  9 23  1  0  0  0  0
 10 26  2  0  0  0  0
 11 27  1  0  0  0  0
 12 27  2  0  0  0  0
 13 28  1  0  0  0  0
 14 15  2  0  0  0  0
 14 29  1  0  0  0  0
 15 30  1  0  0  0  0
 16 20  2  0  0  0  0
 16 26  1  0  0  0  0
 17 25  1  0  0  0  0
 17 28  2  0  0  0  0
 18 30  2  0  0  0  0
 18 31  1  0  0  0  0
 19 32  1  0  0  0  0
 20 34  1  0  0  0  0
 21 32  1  0  0  0  0
 21 33  2  0  0  0  0
 21 35  1  0  0  0  0
 22 24  2  0  0  0  0
 22 40  1  0  0  0  0
 23 25  2  0  0  0  0
 23 41  1  0  0  0  0
 24 49  1  0  0  0  0
 25 42  1  0  0  0  0
 26 70  1  0  0  0  0
 27 81  1  0  0  0  0
 28 82  1  0  0  0  0
 29 31  2  0  0  0  0
 29 81  1  0  0  0  0
 30 83  1  0  0  0  0
 31 84  1  0  0  0  0
 32 64  2  0  0  0  0
 33 65  1  0  0  0  0
 33 68  1  0  0  0  0
 34 71  1  0  0  0  0
 34 75  2  0  0  0  0
 35 69  1  0  0  0  0
 35 76  2  0  0  0  0
 36 50  1  0  0  0  0
 36 72  1  0  0  0  0
 36 77  2  0  0  0  0
 37 61  1  0  0  0  0
 37 66  1  0  0  0  0
 37 78  2  0  0  0  0
 38 62  1  0  0  0  0
 38 73  1  0  0  0  0
 38 79  2  0  0  0  0
 39 67  1  0  0  0  0
 39 70  1  0  0  0  0
 39 80  2  0  0  0  0
 40 43  1  0  0  0  0
 41 50  1  0  0  0  0
 42 66  1  0  0  0  0
 43 45  1  0  0  0  0
 44 46  1  0  0  0  0
 44 47  1  0  0  0  0
 45 49  1  0  0  0  0
 46 51  1  0  0  0  0
 47 67  1  0  0  0  0
 48 51  1  0  0  0  0
 48 67  1  0  0  0  0
 49 72  1  0  0  0  0
 50 66  1  0  0  0  0
 51 65  1  0  0  0  0
 52 62  1  0  0  0  0
 53 63  1  0  0  0  0
 54 63  1  0  0  0  0
 55 63  1  0  0  0  0
 56 74  1  0  0  0  0
 57 58  1  0  0  0  0
 57 59  1  0  0  0  0
 58 60  1  0  0  0  0
 59 71  1  0  0  0  0
 60 82  1  0  0  0  0
 61 63  1  0  0  0  0
 61 73  1  0  0  0  0
 62 74  1  0  0  0  0
 64 65  1  0  0  0  0
M  CHG  1  74   1
M  ISO  4  39 100  60 101  70 100  82 101
M  END
> <Batch ID>
0003

> <Smiles>
CNC(C)C(=O)NC(C(=O)N1Cc2cc([101O:1][101CH2:1]CCCNC(=O)c3cccc([100NH:0][100C:0](=O)N4CCCC(n5nc(-c6ccc(Oc7ccc(F)cc7F)cc6)c(C(N)=O)c5N)C4)c3)ccc2CC1C(=O)NC1CCCc2ccccc21)C(C)(C)C

> <Shape>
0.179

> <Color>
0.192

> <Negative vol penalty>
0.000

$$$$

  -OEChem-04052315213D

 89 97  0     1  0  0  0  0  0999 V2000
  -24.3610  -26.8323   20.6837 C   0  0  0  0  0  0  0  0  0  0  0  0
  -25.3484  -26.7148   21.6566 C   0  0  0  0  0  0  0  0  0  0  0  0
  -23.0004   -9.8912   19.9833 C   0  0  0  0  0  0  0  0  0  0  0  0
  -23.7235   -9.9478   22.2879 C   0  0  0  0  0  0  0  0  0  0  0  0
  -31.8809  -18.3403   24.1495 C   0  0  0  0  0  0  0  0  0  0  0  0
  -24.2206  -25.8428   19.7115 C   0  0  0  0  0  0  0  0  0  0  0  0
  -26.1953  -25.6071   21.6586 C   0  0  0  0  0  0  0  0  0  0  0  0
  -32.1009  -25.4910   23.2761 C   0  0  0  0  0  0  0  0  0  0  0  0
  -30.4961  -18.3551   23.9827 C   0  0  0  0  0  0  0  0  0  0  0  0
  -22.2340   -8.7571   20.2516 C   0  0  0  0  0  0  0  0  0  0  0  0
  -22.9569   -8.8138   22.5562 C   0  0  0  0  0  0  0  0  0  0  0  0
  -32.7430  -25.1192   24.4564 C   0  0  0  0  0  0  0  0  0  0  0  0
  -23.2025   -5.4738   22.0926 C   0  0  0  0  0  0  0  0  0  0  0  0
  -23.7896   -4.4586   22.8476 C   0  0  0  0  0  0  0  0  0  0  0  0
  -32.0549  -16.5420   22.5455 C   0  0  0  0  0  0  0  0  0  0  0  0
  -33.1380  -22.9220   23.5425 C   0  0  0  0  0  0  0  0  0  0  0  0
  -22.0641   -4.7050   24.5207 C   0  0  0  0  0  0  0  0  0  0  0  0
  -23.7453  -10.4865   21.0014 C   0  0  0  0  0  0  0  0  0  0  0  0
  -32.6603  -17.4338   23.4309 C   0  0  0  0  0  0  0  0  0  0  0  0
  -24.1301  -13.0018   20.8197 C   0  0  0  0  0  0  0  0  0  0  0  0
  -25.0725  -24.7272   19.6958 C   0  0  0  0  0  0  0  0  0  0  0  0
  -31.9627  -24.5760   22.2224 C   0  0  0  0  0  0  0  0  0  0  0  0
  -26.0653  -24.6010   20.6861 C   0  0  0  0  0  0  0  0  0  0  0  0
  -32.4959  -23.2854   22.3489 C   0  0  0  0  0  0  0  0  0  0  0  0
  -29.8908  -17.4634   23.0973 C   0  0  0  0  0  0  0  0  0  0  0  0
  -30.6702  -16.5568   22.3787 C   0  0  0  0  0  0  0  0  0  0  0  0
  -22.2122   -8.2184   21.5381 C   0  0  0  0  0  0  0  0  0  0  0  0
  -33.2591  -23.8337   24.5909 C   0  0  0  0  0  0  0  0  0  0  0  0
  -22.0463   -6.1048   22.5515 C   0  0  0  0  0  0  0  0  0  0  0  0
  -23.2204   -4.0742   24.0617 C   0  0  0  0  0  0  0  0  0  0  0  0
  -21.4771   -5.7204   23.7656 C   0  0  0  0  0  0  0  0  0  0  0  0
  -24.5377  -11.6576   20.7247 C   0  0  0  0  0  0  0  0  0  0  0  0
  -25.2400  -13.7238   20.4546 C   0  0  0  0  0  0  0  0  0  0  0  0
  -34.1352  -17.4193   23.6089 C   0  0  0  0  0  0  0  0  0  0  0  0
  -22.8617  -13.5488   21.2038 C   0  0  0  0  0  0  0  0  0  0  0  0
  -29.5005  -23.2404   20.7199 C   0  0  0  0  0  0  0  0  0  0  0  0
  -35.2705  -23.6915   25.7971 C   0  0  0  0  0  0  0  0  0  1  0  0
  -31.8227  -22.0531   18.7912 C   0  0  0  0  0  0  0  0  0  0  0  0
  -35.0983  -21.1782   18.4010 C   0  0  0  0  0  0  0  0  0  0  0  0
  -30.7190  -14.6868   20.6914 C   0  0  0  0  0  0  0  0  0  0  0  0
  -24.8518  -23.6599   18.6533 C   0  0  0  0  0  0  0  0  0  0  0  0
  -31.2909  -25.0009   20.9455 C   0  0  0  0  0  0  0  0  0  0  0  0
  -32.3916  -22.2720   21.2395 C   0  0  0  0  0  0  0  0  0  0  0  0
  -26.0318  -22.7035   18.5014 C   0  0  0  0  0  0  0  0  0  0  0  0
  -29.6035  -12.2281   18.3703 C   0  0  0  0  0  0  0  0  0  0  0  0
  -26.5238  -22.2413   19.8693 C   0  0  0  0  0  0  0  0  0  0  0  0
  -28.1526  -11.9710   18.7837 C   0  0  0  0  0  0  0  0  0  0  0  0
  -30.5029  -12.4746   19.5803 C   0  0  0  0  0  0  0  0  0  0  0  0
  -28.5861  -13.2662   20.9102 C   0  0  0  0  0  0  0  0  0  0  0  0
  -27.0194  -23.4265   20.7067 C   0  0  1  0  0  0  0  0  0  0  0  0
  -30.7536  -23.8264   20.1335 C   0  0  1  0  0  0  0  0  0  0  0  0
  -27.6296  -13.0767   19.7215 C   0  0  2  0  0  0  0  0  0  0  0  0
  -28.4053  -17.5010   22.9394 C   0  0  0  0  0  0  0  0  0  0  0  0
  -36.6899  -20.2005   16.7252 C   0  0  0  0  0  0  0  0  0  0  0  0
  -30.6615  -19.2796   19.3101 C   0  0  0  0  0  0  0  0  0  0  0  0
  -32.7901  -18.2998   18.4283 C   0  0  0  0  0  0  0  0  0  0  0  0
  -31.3519  -19.6953   16.9426 C   0  0  0  0  0  0  0  0  0  0  0  0
  -36.7714  -23.6194   18.3926 C   0  0  0  0  0  0  0  0  0  0  0  0
  -35.8784  -23.2581   27.1039 C   0  0  0  0  0  0  0  0  0  0  0  0
  -35.6082  -21.7831   27.3931 C   0  0  0  0  0  0  0  0  0  0  0  0
  -36.2321  -20.8533   26.3484 C   0  0  0  0  0  0  0  0  0  0  0  0
  -35.9151  -19.3867   26.6500 C   0  0  0  0  0  0  0  0  0  0  0  0
  -36.5646  -18.4566   25.6209 C   0  0  0  0  0  0  0  0  0  0  0  0
  -36.1327  -18.7704   24.1923 C   0  0  0  0  0  0  0  0  0  0  0  0
  -32.6759  -20.8076   18.7871 C   0  0  1  0  0  0  0  0  0  0  0  0
  -36.0965  -21.4784   17.2974 C   0  0  2  0  0  0  0  0  0  0  0  0
  -31.8703  -19.5388   18.3889 C   0  0  0  0  0  0  0  0  0  0  0  0
  -25.8074  -11.5305   20.3300 N   0  0  0  0  0  0  0  0  0  0  0  0
  -35.9473  -24.2263   24.8349 N   0  0  0  0  0  0  0  0  0  0  0  0
  -26.2072  -12.8040   20.1737 N   0  0  0  0  0  0  0  0  0  0  0  0
  -31.7204  -22.7333   20.0130 N   0  0  0  0  0  0  0  0  0  0  0  0
  -29.9468  -13.5374   20.4206 N   0  0  0  0  0  0  0  0  0  0  0  0
  -25.4733  -15.0493   20.3496 N   0  0  0  0  0  0  0  0  0  0  0  0
  -21.8298  -12.6652   21.5484 N   0  0  0  0  0  0  0  0  0  0  0  0
  -30.0738  -15.6437   21.4740 N   0  0  0  0  0  0  0  0  0  0  0  0
  -34.7167  -18.6194   24.0025 N   0  0  0  0  0  0  0  0  0  0  0  0
  -28.3373  -23.8367   20.2718 N   0  0  0  0  0  0  0  0  0  0  0  0
  -33.8105  -21.0930   17.9155 N   0  0  0  0  0  0  0  0  0  0  0  0
  -37.2094  -22.3202   17.8206 N   0  3  0  0  0  0  0  0  0  0  0  0
  -34.7562  -16.3832   23.3864 O   0  0  0  0  0  0  0  0  0  0  0  0
  -22.6446  -14.7841   21.2244 O   0  0  0  0  0  0  0  0  0  0  0  0
  -29.5827  -22.3147   21.5186 O   0  0  0  0  0  0  0  0  0  0  0  0
  -31.2733  -22.4132   17.7472 O   0  0  0  0  0  0  0  0  0  0  0  0
  -35.4284  -21.0301   19.5756 O   0  0  0  0  0  0  0  0  0  0  0  0
  -31.8581  -14.8249   20.2381 O   0  0  0  0  0  0  0  0  0  0  0  0
  -21.4641   -7.1120   21.8003 O   0  0  0  0  0  0  0  0  0  0  0  0
  -33.8858  -23.4681   25.7422 O   0  0  0  0  0  0  0  0  0  1  0  0
  -23.7835   -3.0981   24.7859 F   0  0  0  0  0  0  0  0  0  0  0  0
  -20.3656   -6.3220   24.2111 F   0  0  0  0  0  0  0  0  0  0  0  0
  1  2  1  0  0  0  0
  1  6  2  0  0  0  0
  2  7  2  0  0  0  0
  3 10  2  0  0  0  0
  3 18  1  0  0  0  0
  4 11  1  0  0  0  0
  4 18  2  0  0  0  0
  5  9  2  0  0  0  0
  5 19  1  0  0  0  0
  6 21  1  0  0  0  0
  7 23  1  0  0  0  0
  8 12  2  0  0  0  0
  8 22  1  0  0  0  0
  9 25  1  0  0  0  0
 10 27  1  0  0  0  0
 11 27  2  0  0  0  0
 12 28  1  0  0  0  0
 13 14  2  0  0  0  0
 13 29  1  0  0  0  0
 14 30  1  0  0  0  0
 15 19  2  0  0  0  0
 15 26  1  0  0  0  0
 16 24  1  0  0  0  0
 16 28  2  0  0  0  0
 17 30  2  0  0  0  0
 17 31  1  0  0  0  0
 18 32  1  0  0  0  0
 19 34  1  0  0  0  0
 20 32  1  0  0  0  0
 20 33  2  0  0  0  0
 20 35  1  0  0  0  0
 21 23  2  0  0  0  0
 21 41  1  0  0  0  0
 22 24  2  0  0  0  0
 22 42  1  0  0  0  0
 23 50  1  0  0  0  0
 24 43  1  0  0  0  0
 25 26  2  0  0  0  0
 25 53  1  0  0  0  0
 26 75  1  0  0  0  0
 27 86  1  0  0  0  0
 28 87  1  0  0  0  0
 29 31  2  0  0  0  0
 29 86  1  0  0  0  0
 30 88  1  0  0  0  0
 31 89  1  0  0  0  0
 32 68  2  0  0  0  0
 33 70  1  0  0  0  0
 33 73  1  0  0  0  0
 34 76  1  0  0  0  0
 34 80  2  0  0  0  0
 35 74  1  0  0  0  0
 35 81  2  0  0  0  0
 36 51  1  0  0  0  0
 36 77  1  0  0  0  0
 36 82  2  0  0  0  0
 37 59  1  0  0  0  0
 37 69  2  0  0  0  0
 37 87  1  0  0  0  0
 38 65  1  0  0  0  0
 38 71  1  0  0  0  0
 38 83  2  0  0  0  0
 39 66  1  0  0  0  0
 39 78  1  0  0  0  0
 39 84  2  0  0  0  0
 40 72  1  0  0  0  0
 40 75  1  0  0  0  0
 40 85  2  0  0  0  0
 41 44  1  0  0  0  0
 42 51  1  0  0  0  0
 43 71  1  0  0  0  0
 44 46  1  0  0  0  0
 45 47  1  0  0  0  0
 45 48  1  0  0  0  0
 46 50  1  0  0  0  0
 47 52  1  0  0  0  0
 48 72  1  0  0  0  0
 49 52  1  0  0  0  0
 49 72  1  0  0  0  0
 50 77  1  0  0  0  0
 51 71  1  0  0  0  0
 52 70  1  0  0  0  0
 54 66  1  0  0  0  0
 55 67  1  0  0  0  0
 56 67  1  0  0  0  0
 57 67  1  0  0  0  0
 58 79  1  0  0  0  0
 59 60  1  0  0  0  0
 60 61  1  0  0  0  0
 61 62  1  0  0  0  0
 62 63  1  0  0  0  0
 63 64  1  0  0  0  0
 64 76  1  0  0  0  0
 65 67  1  0  0  0  0
 65 78  1  0  0  0  0
 66 79  1  0  0  0  0
 68 70  1  0  0  0  0
M  CHG  1  79   1
M  ISO  4  37 101  40 100  75 100  87 101
M  END
> <Batch ID>
0003

> <Smiles>
CNC(C)C(=O)NC(C(=O)N1Cc2cc([101O:1][101C:1](=N)CCCCCCNC(=O)c3ccc(C)c([100NH:0][100C:0](=O)N4CCCC(n5nc(-c6ccc(Oc7ccc(F)cc7F)cc6)c(C(N)=O)c5N)C4)c3)ccc2CC1C(=O)NC1CCCc2ccccc21)C(C)(C)C

> <Shape>
0.215

> <Color>
0.194

> <Negative vol penalty>
0.000

$$$$

  -OEChem-04052315213D

 82 90  0     1  0  0  0  0  0999 V2000
  -17.4720  -30.8956   24.2232 C   0  0  0  0  0  0  0  0  0  0  0  0
  -18.8413  -31.1410   24.2371 C   0  0  0  0  0  0  0  0  0  0  0  0
  -27.7513  -21.7644   23.7748 C   0  0  0  0  0  0  0  0  0  0  0  0
  -24.6284  -12.3079   19.6558 C   0  0  0  0  0  0  0  0  0  0  0  0
  -25.4403  -13.1353   21.7755 C   0  0  0  0  0  0  0  0  0  0  0  0
  -28.5022  -22.7821   23.1868 C   0  0  0  0  0  0  0  0  0  0  0  0
  -16.9851  -29.6967   23.7041 C   0  0  0  0  0  0  0  0  0  0  0  0
  -19.7246  -30.1871   23.7328 C   0  0  0  0  0  0  0  0  0  0  0  0
  -26.0037  -29.6403   20.3284 C   0  0  0  0  0  0  0  0  0  0  0  0
  -26.8221  -21.0546   23.0142 C   0  0  0  0  0  0  0  0  0  0  0  0
  -25.4268  -11.1725   19.7931 C   0  0  0  0  0  0  0  0  0  0  0  0
  -26.2387  -11.9998   21.9129 C   0  0  0  0  0  0  0  0  0  0  0  0
  -27.2371  -29.0000   20.4398 C   0  0  0  0  0  0  0  0  0  0  0  0
  -26.9786   -7.8852   19.7566 C   0  0  0  0  0  0  0  0  0  0  0  0
  -26.4037   -6.6488   19.4629 C   0  0  0  0  0  0  0  0  0  0  0  0
  -27.3945  -22.3806   21.0775 C   0  0  0  0  0  0  0  0  0  0  0  0
  -26.2768  -26.9987   19.4954 C   0  0  0  0  0  0  0  0  0  0  0  0
  -24.7508   -7.0074   21.1881 C   0  0  0  0  0  0  0  0  0  0  0  0
  -24.6352  -13.2893   20.6470 C   0  0  0  0  0  0  0  0  0  0  0  0
  -28.3238  -23.0903   21.8381 C   0  0  0  0  0  0  0  0  0  0  0  0
  -22.4852  -14.6289   20.9486 C   0  0  0  0  0  0  0  0  0  0  0  0
  -17.8622  -28.7317   23.1843 C   0  0  0  0  0  0  0  0  0  0  0  0
  -24.8930  -28.9600   19.8089 C   0  0  0  0  0  0  0  0  0  0  0  0
  -19.2491  -28.9736   23.2075 C   0  0  0  0  0  0  0  0  0  0  0  0
  -25.0310  -27.6335   19.3761 C   0  0  0  0  0  0  0  0  0  0  0  0
  -26.6437  -21.3627   21.6656 C   0  0  0  0  0  0  0  0  0  0  0  0
  -26.2320  -11.0184   20.9216 C   0  0  0  0  0  0  0  0  0  0  0  0
  -27.3731  -27.6781   20.0260 C   0  0  0  0  0  0  0  0  0  0  0  0
  -26.4396   -8.6828   20.7662 C   0  0  0  0  0  0  0  0  0  0  0  0
  -25.2898   -6.2099   20.1786 C   0  0  0  0  0  0  0  0  0  0  0  0
  -25.3257   -8.2439   21.4819 C   0  0  0  0  0  0  0  0  0  0  0  0
  -23.8110  -14.4627   20.5054 C   0  0  0  0  0  0  0  0  0  0  0  0
  -22.1565  -15.9093   20.5757 C   0  0  0  0  0  0  0  0  0  0  0  0
  -29.1243  -24.1746   21.2131 C   0  0  0  0  0  0  0  0  0  0  0  0
  -21.6276  -13.7082   21.6359 C   0  0  0  0  0  0  0  0  0  0  0  0
  -22.0415  -28.1278   20.9404 C   0  0  0  0  0  0  0  0  0  0  0  0
  -21.5408  -27.1684   17.8825 C   0  0  0  0  0  0  0  0  0  0  0  0
  -22.8735  -26.1454   14.9119 C   0  0  0  0  0  0  0  0  0  0  0  0
  -25.3999  -20.8204   19.5430 C   0  0  0  0  0  0  0  0  0  0  0  0
  -17.2922  -27.4308   22.6770 C   0  0  0  0  0  0  0  0  0  0  0  0
  -23.5760  -29.6733   19.6705 C   0  0  0  0  0  0  0  0  0  0  0  0
  -23.8743  -26.8653   18.7926 C   0  0  0  0  0  0  0  0  0  0  0  0
  -18.2694  -26.6311   21.8192 C   0  0  0  0  0  0  0  0  0  0  0  0
  -23.1702  -19.2245   17.2718 C   0  0  0  0  0  0  0  0  0  0  0  0
  -19.6398  -26.5709   22.4863 C   0  0  0  0  0  0  0  0  0  0  0  0
  -22.9560  -17.8396   17.8868 C   0  0  0  0  0  0  0  0  0  0  0  0
  -24.6040  -19.7151   17.4646 C   0  0  0  0  0  0  0  0  0  0  0  0
  -24.8740  -18.3038   19.4657 C   0  0  0  0  0  0  0  0  0  0  0  0
  -20.2373  -27.9740   22.6469 C   0  0  1  0  0  0  0  0  0  0  0  0
  -22.3853  -28.7219   19.6038 C   0  0  1  0  0  0  0  0  0  0  0  0
  -23.4274  -17.7953   19.3535 C   0  0  2  0  0  0  0  0  0  0  0  0
  -22.2121  -25.3961   12.6101 C   0  0  0  0  0  0  0  0  0  0  0  0
  -20.7519  -24.4409   18.9996 C   0  0  0  0  0  0  0  0  0  0  0  0
  -21.0286  -23.4957   16.6978 C   0  0  0  0  0  0  0  0  0  0  0  0
  -19.3129  -25.2557   17.1235 C   0  0  0  0  0  0  0  0  0  0  0  0
  -24.2917  -28.4109   13.6410 C   0  0  0  0  0  0  0  0  0  0  0  0
  -30.3257  -26.3094   21.6070 C   0  0  0  0  0  0  0  0  0  0  0  0
  -29.4319  -27.4664   21.1975 C   0  0  0  0  0  0  0  0  0  1  0  0
  -21.7608  -25.8877   17.1142 C   0  0  1  0  0  0  0  0  0  0  0  0
  -22.6009  -26.5792   13.4830 C   0  0  2  0  0  0  0  0  0  0  0  0
  -20.7351  -24.7836   17.4965 C   0  0  0  0  0  0  0  0  0  0  0  0
  -24.2916  -15.5505   19.8973 N   0  0  0  0  0  0  0  0  0  0  0  0
  -23.2622  -16.4125   19.9557 N   0  0  0  0  0  0  0  0  0  0  0  0
  -22.6056  -27.6043   18.6837 N   0  0  0  0  0  0  0  0  0  0  0  0
  -24.9796  -19.6488   18.8786 N   0  0  0  0  0  0  0  0  0  0  0  0
  -21.0323  -16.6425   20.7209 N   0  0  0  0  0  0  0  0  0  0  0  0
  -22.1241  -12.4339   21.9423 N   0  0  0  0  0  0  0  0  0  0  0  0
  -25.6999  -20.6414   20.8931 N   0  0  0  0  0  0  0  0  0  0  0  0
  -29.5617  -25.1799   22.0663 N   0  0  0  0  0  0  0  0  0  0  0  0
  -20.7722  -28.4428   21.3865 N   0  0  0  0  0  0  0  0  0  0  0  0
  -21.7481  -26.2517   15.7015 N   0  0  0  0  0  0  0  0  0  0  0  0
  -23.8122  -27.2185   12.8957 N   0  3  0  0  0  0  0  0  0  0  0  0
  -29.3374  -24.1423   20.0039 O   0  0  0  0  0  0  0  0  0  0  0  0
  -20.4500  -14.0011   21.9540 O   0  0  0  0  0  0  0  0  0  0  0  0
  -22.8663  -27.4337   21.5232 O   0  0  0  0  0  0  0  0  0  0  0  0
  -20.4665  -27.7641   17.7701 O   0  0  0  0  0  0  0  0  0  0  0  0
  -23.9737  -25.7481   15.2890 O   0  0  0  0  0  0  0  0  0  0  0  0
  -25.4612  -21.9081   18.9643 O   0  0  0  0  0  0  0  0  0  0  0  0
  -27.0110   -9.9104   21.0561 O   0  0  0  0  0  0  0  0  0  0  0  0
  -28.5757  -27.0506   20.1343 O   0  0  0  0  0  0  0  0  0  1  0  0
  -24.7369   -5.0232   19.8953 F   0  0  0  0  0  0  0  0  0  0  0  0
  -24.8028   -9.0062   22.4521 F   0  0  0  0  0  0  0  0  0  0  0  0
  1  2  1  0  0  0  0
  1  7  2  0  0  0  0
  2  8  2  0  0  0  0
  3  6  2  0  0  0  0
  3 10  1  0  0  0  0
  4 11  2  0  0  0  0
  4 19  1  0  0  0  0
  5 12  1  0  0  0  0
  5 19  2  0  0  0  0
  6 20  1  0  0  0  0
  7 22  1  0  0  0  0
  8 24  1  0  0  0  0
  9 13  2  0  0  0  0
  9 23  1  0  0  0  0
 10 26  2  0  0  0  0
 11 27  1  0  0  0  0
 12 27  2  0  0  0  0
 13 28  1  0  0  0  0
 14 15  2  0  0  0  0
 14 29  1  0  0  0  0
 15 30  1  0  0  0  0
 16 20  2  0  0  0  0
 16 26  1  0  0  0  0
 17 25  1  0  0  0  0
 17 28  2  0  0  0  0
 18 30  2  0  0  0  0
 18 31  1  0  0  0  0
 19 32  1  0  0  0  0
 20 34  1  0  0  0  0
 21 32  1  0  0  0  0
 21 33  2  0  0  0  0
 21 35  1  0  0  0  0
 22 24  2  0  0  0  0
 22 40  1  0  0  0  0
 23 25  2  0  0  0  0
 23 41  1  0  0  0  0
 24 49  1  0  0  0  0
 25 42  1  0  0  0  0
 26 68  1  0  0  0  0
 27 79  1  0  0  0  0
 28 80  1  0  0  0  0
 29 31  2  0  0  0  0
 29 79  1  0  0  0  0
 30 81  1  0  0  0  0
 31 82  1  0  0  0  0
 32 62  2  0  0  0  0
 33 63  1  0  0  0  0
 33 66  1  0  0  0  0
 34 69  1  0  0  0  0
 34 73  2  0  0  0  0
 35 67  1  0  0  0  0
 35 74  2  0  0  0  0
 36 50  1  0  0  0  0
 36 70  1  0  0  0  0
 36 75  2  0  0  0  0
 37 59  1  0  0  0  0
 37 64  1  0  0  0  0
 37 76  2  0  0  0  0
 38 60  1  0  0  0  0
 38 71  1  0  0  0  0
 38 77  2  0  0  0  0
 39 65  1  0  0  0  0
 39 68  1  0  0  0  0
 39 78  2  0  0  0  0
 40 43  1  0  0  0  0
 41 50  1  0  0  0  0
 42 64  1  0  0  0  0
 43 45  1  0  0  0  0
 44 46  1  0  0  0  0
 44 47  1  0  0  0  0
 45 49  1  0  0  0  0
 46 51  1  0  0  0  0
 47 65  1  0  0  0  0
 48 51  1  0  0  0  0
 48 65  1  0  0  0  0
 49 70  1  0  0  0  0
 50 64  1  0  0  0  0
 51 63  1  0  0  0  0
 52 60  1  0  0  0  0
 53 61  1  0  0  0  0
 54 61  1  0  0  0  0
 55 61  1  0  0  0  0
 56 72  1  0  0  0  0
 57 58  1  0  0  0  0
 57 69  1  0  0  0  0
 58 80  1  0  0  0  0
 59 61  1  0  0  0  0
 59 71  1  0  0  0  0
 60 72  1  0  0  0  0
 62 63  1  0  0  0  0
M  CHG  1  72   1
M  ISO  4  39 100  58 101  68 100  80 101
M  END
> <Batch ID>
0003

> <Smiles>
CNC(C)C(=O)NC(C(=O)N1Cc2cc([101O:1][101CH2:1]CNC(=O)c3cccc([100NH:0][100C:0](=O)N4CCCC(n5nc(-c6ccc(Oc7ccc(F)cc7F)cc6)c(C(N)=O)c5N)C4)c3)ccc2CC1C(=O)NC1CCCc2ccccc21)C(C)(C)C

> <Shape>
0.205

> <Color>
0.100

> <Negative vol penalty>
0.000

$$$$

  -OEChem-04052315213D

 90 98  0     1  0  0  0  0  0999 V2000
  -17.3402  -30.6384   23.7246 C   0  0  0  0  0  0  0  0  0  0  0  0
  -18.7201  -30.8105   23.7653 C   0  0  0  0  0  0  0  0  0  0  0  0
  -21.9569  -14.6373   20.5972 C   0  0  0  0  0  0  0  0  0  0  0  0
  -23.5269  -13.8264   22.2448 C   0  0  0  0  0  0  0  0  0  0  0  0
  -16.8035  -29.3826   23.4437 C   0  0  0  0  0  0  0  0  0  0  0  0
  -19.5642  -29.7266   23.5263 C   0  0  0  0  0  0  0  0  0  0  0  0
  -23.3916  -30.8924   20.4219 C   0  0  0  0  0  0  0  0  0  0  0  0
  -28.7384  -21.9411   24.1164 C   0  0  0  0  0  0  0  0  0  0  0  0
  -29.5814  -22.8089   22.0251 C   0  0  0  0  0  0  0  0  0  0  0  0
  -28.8795  -23.2018   24.6964 C   0  0  0  0  0  0  0  0  0  0  0  0
  -29.7224  -24.0696   22.6051 C   0  0  0  0  0  0  0  0  0  0  0  0
  -21.3773  -13.3705   20.5260 C   0  0  0  0  0  0  0  0  0  0  0  0
  -22.9473  -12.5597   22.1737 C   0  0  0  0  0  0  0  0  0  0  0  0
  -24.4631  -31.5970   20.9689 C   0  0  0  0  0  0  0  0  0  0  0  0
  -22.1139   -9.0220   22.1619 C   0  0  0  0  0  0  0  0  0  0  0  0
  -22.9678   -7.9215   22.0892 C   0  0  0  0  0  0  0  0  0  0  0  0
  -25.7169  -29.5434   21.1425 C   0  0  0  0  0  0  0  0  0  0  0  0
  -23.9039   -8.7834   20.0354 C   0  0  0  0  0  0  0  0  0  0  0  0
  -23.0317  -14.8652   21.4566 C   0  0  0  0  0  0  0  0  0  0  0  0
  -23.2708  -17.2264   22.3921 C   0  0  0  0  0  0  0  0  0  0  0  0
  -17.6414  -28.2849   23.1916 C   0  0  0  0  0  0  0  0  0  0  0  0
  -23.4707  -29.5041   20.2409 C   0  0  0  0  0  0  0  0  0  0  0  0
  -19.0382  -28.4547   23.2431 C   0  0  0  0  0  0  0  0  0  0  0  0
  -24.6459  -28.8240   20.5907 C   0  0  0  0  0  0  0  0  0  0  0  0
  -29.0894  -21.7446   22.7807 C   0  0  0  0  0  0  0  0  0  0  0  0
  -29.3715  -24.2660   23.9408 C   0  0  0  0  0  0  0  0  0  0  0  0
  -21.8725  -12.3317   21.3143 C   0  0  0  0  0  0  0  0  0  0  0  0
  -25.6249  -30.9221   21.3320 C   0  0  0  0  0  0  0  0  0  0  0  0
  -22.1549  -10.0032   21.1713 C   0  0  0  0  0  0  0  0  0  0  0  0
  -23.8628   -7.8022   21.0260 C   0  0  0  0  0  0  0  0  0  0  0  0
  -23.0499   -9.8839   20.1081 C   0  0  0  0  0  0  0  0  0  0  0  0
  -23.6312  -16.1734   21.5301 C   0  0  0  0  0  0  0  0  0  0  0  0
  -24.1351  -18.2443   22.0707 C   0  0  0  0  0  0  0  0  0  0  0  0
  -22.2464  -17.2797   23.3938 C   0  0  0  0  0  0  0  0  0  0  0  0
  -21.8727  -26.9999   21.3718 C   0  0  0  0  0  0  0  0  0  0  0  0
  -23.7073  -25.3656   19.2538 C   0  0  0  0  0  0  0  0  0  0  0  0
  -26.5775  -25.2226   17.4131 C   0  0  0  0  0  0  0  0  0  0  0  0
  -29.2483  -20.0991   20.8798 C   0  0  0  0  0  0  0  0  0  0  0  0
  -28.4967  -31.8465   25.6246 C   0  0  0  0  0  0  0  0  0  0  0  0
  -29.2174  -25.9235   25.8406 C   0  0  0  0  0  0  0  0  0  0  0  0
  -17.0150  -26.9364   22.9390 C   0  0  0  0  0  0  0  0  0  0  0  0
  -22.3161  -28.7627   19.6248 C   0  0  0  0  0  0  0  0  0  0  0  0
  -24.7889  -27.3371   20.3979 C   0  0  0  0  0  0  0  0  0  0  0  0
  -17.9783  -25.9221   22.3279 C   0  0  0  0  0  0  0  0  0  0  0  0
  -27.3523  -18.7330   18.1935 C   0  0  0  0  0  0  0  0  0  0  0  0
  -19.3106  -25.9364   23.0707 C   0  0  0  0  0  0  0  0  0  0  0  0
  -26.1856  -18.0320   18.8930 C   0  0  0  0  0  0  0  0  0  0  0  0
  -28.6507  -18.6029   18.9880 C   0  0  0  0  0  0  0  0  0  0  0  0
  -27.3980  -18.3250   21.0910 C   0  0  0  0  0  0  0  0  0  0  0  0
  -19.9866  -27.3087   22.9649 C   0  0  1  0  0  0  0  0  0  0  0  0
  -22.3134  -27.2748   19.9618 C   0  0  1  0  0  0  0  0  0  0  0  0
  -26.0545  -18.4841   20.3607 C   0  0  2  0  0  0  0  0  0  0  0  0
  -27.8160  -23.7449   15.8068 C   0  0  0  0  0  0  0  0  0  0  0  0
  -24.5503  -23.5624   21.5664 C   0  0  0  0  0  0  0  0  0  0  0  0
  -26.4497  -22.7522   20.1507 C   0  0  0  0  0  0  0  0  0  0  0  0
  -24.0968  -22.3624   19.4196 C   0  0  0  0  0  0  0  0  0  0  0  0
  -26.4735  -27.2648   15.2736 C   0  0  0  0  0  0  0  0  0  0  0  0
  -27.8863  -28.5505   27.3653 C   0  0  0  0  0  0  0  0  0  0  0  0
  -29.2937  -27.9614   27.2865 C   0  0  0  0  0  0  0  0  0  0  0  0
  -27.4462  -33.0051   23.6631 C   0  0  0  0  0  0  0  0  0  0  0  0
  -27.6010  -29.6028   26.3002 C   0  0  0  0  0  0  0  0  0  0  0  0
  -26.3641  -32.7777   22.6228 C   0  0  0  0  0  0  0  0  0  1  0  0
  -25.0600  -24.6971   19.3039 C   0  0  1  0  0  0  0  0  0  0  0  0
  -26.8221  -24.8866   15.9530 C   0  0  2  0  0  0  0  0  0  0  0  0
  -25.0361  -23.3713   20.1157 C   0  0  0  0  0  0  0  0  0  0  0  0
  -24.6453  -16.4929   20.7217 N   0  0  0  0  0  0  0  0  0  0  0  0
  -24.9295  -17.7582   21.0743 N   0  0  0  0  0  0  0  0  0  0  0  0
  -23.6301  -26.6556   19.7976 N   0  0  0  0  0  0  0  0  0  0  0  0
  -28.4516  -19.0535   20.3672 N   0  0  0  0  0  0  0  0  0  0  0  0
  -24.2854  -19.4989   22.5459 N   0  0  0  0  0  0  0  0  0  0  0  0
  -21.4485  -16.1450   23.5945 N   0  0  0  0  0  0  0  0  0  0  0  0
  -29.3909  -32.9012   25.8114 N   0  0  0  0  0  0  0  0  0  0  0  0
  -28.9465  -20.4640   22.1915 N   0  0  0  0  0  0  0  0  0  0  0  0
  -29.5147  -25.5445   24.5286 N   0  0  0  0  0  0  0  0  0  0  0  0
  -20.6065  -27.4679   21.6669 N   0  0  0  0  0  0  0  0  0  0  0  0
  -25.4901  -24.5419   17.9186 N   0  0  0  0  0  0  0  0  0  0  0  0
  -27.5501  -31.8990   24.5775 N   0  0  0  0  0  0  0  0  0  0  0  0
  -29.4993  -27.2810   26.0299 N   0  0  0  0  0  0  0  0  0  0  0  0
  -28.5217  -30.7271   26.4646 N   0  3  0  0  0  0  0  0  0  0  0  0
  -27.3609  -26.0741   15.2315 N   0  3  0  0  0  0  0  0  0  0  0  0
  -22.0337  -18.3087   24.0789 O   0  0  0  0  0  0  0  0  0  0  0  0
  -22.6252  -26.4057   22.1349 O   0  0  0  0  0  0  0  0  0  0  0  0
  -22.7560  -24.7681   18.7444 O   0  0  0  0  0  0  0  0  0  0  0  0
  -27.2830  -26.0073   18.0433 O   0  0  0  0  0  0  0  0  0  0  0  0
  -30.1147  -20.6501   20.1959 O   0  0  0  0  0  0  0  0  0  0  0  0
  -28.7723  -25.2007   26.7289 O   0  0  0  0  0  0  0  0  0  0  0  0
  -21.3071  -11.0956   21.2453 O   0  0  0  0  0  0  0  0  0  0  0  0
  -26.6720  -31.6072   21.8668 O   0  0  0  0  0  0  0  0  0  1  0  0
  -24.6839   -6.7461   20.9571 F   0  0  0  0  0  0  0  0  0  0  0  0
  -23.0947  -10.8240   19.1541 F   0  0  0  0  0  0  0  0  0  0  0  0
  1  2  1  0  0  0  0
  1  5  2  0  0  0  0
  2  6  2  0  0  0  0
  3 12  2  0  0  0  0
  3 19  1  0  0  0  0
  4 13  1  0  0  0  0
  4 19  2  0  0  0  0
  5 21  1  0  0  0  0
  6 23  1  0  0  0  0
  7 14  2  0  0  0  0
  7 22  1  0  0  0  0
  8 10  2  0  0  0  0
  8 25  1  0  0  0  0
  9 11  1  0  0  0  0
  9 25  2  0  0  0  0
 10 26  1  0  0  0  0
 11 26  2  0  0  0  0
 12 27  1  0  0  0  0
 13 27  2  0  0  0  0
 14 28  1  0  0  0  0
 15 16  2  0  0  0  0
 15 29  1  0  0  0  0
 16 30  1  0  0  0  0
 17 24  1  0  0  0  0
 17 28  2  0  0  0  0
 18 30  2  0  0  0  0
 18 31  1  0  0  0  0
 19 32  1  0  0  0  0
 20 32  1  0  0  0  0
 20 33  2  0  0  0  0
 20 34  1  0  0  0  0
 21 23  2  0  0  0  0
 21 41  1  0  0  0  0
 22 24  2  0  0  0  0
 22 42  1  0  0  0  0
 23 50  1  0  0  0  0
 24 43  1  0  0  0  0
 25 73  1  0  0  0  0
 26 74  1  0  0  0  0
 27 87  1  0  0  0  0
 28 88  1  0  0  0  0
 29 31  2  0  0  0  0
 29 87  1  0  0  0  0
 30 89  1  0  0  0  0
 31 90  1  0  0  0  0
 32 66  2  0  0  0  0
 33 67  1  0  0  0  0
 33 70  1  0  0  0  0
 34 71  1  0  0  0  0
 34 81  2  0  0  0  0
 35 51  1  0  0  0  0
 35 75  1  0  0  0  0
 35 82  2  0  0  0  0
 36 63  1  0  0  0  0
 36 68  1  0  0  0  0
 36 83  2  0  0  0  0
 37 64  1  0  0  0  0
 37 76  1  0  0  0  0
 37 84  2  0  0  0  0
 38 69  1  0  0  0  0
 38 73  1  0  0  0  0
 38 85  2  0  0  0  0
 39 72  1  0  0  0  0
 39 77  1  0  0  0  0
 39 79  2  0  0  0  0
 40 74  1  0  0  0  0
 40 78  1  0  0  0  0
 40 86  2  0  0  0  0
 41 44  1  0  0  0  0
 42 51  1  0  0  0  0
 43 68  1  0  0  0  0
 44 46  1  0  0  0  0
 45 47  1  0  0  0  0
 45 48  1  0  0  0  0
 46 50  1  0  0  0  0
 47 52  1  0  0  0  0
 48 69  1  0  0  0  0
 49 52  1  0  0  0  0
 49 69  1  0  0  0  0
 50 75  1  0  0  0  0
 51 68  1  0  0  0  0
 52 67  1  0  0  0  0
 53 64  1  0  0  0  0
 54 65  1  0  0  0  0
 55 65  1  0  0  0  0
 56 65  1  0  0  0  0
 57 80  1  0  0  0  0
 58 59  1  0  0  0  0
 58 61  1  0  0  0  0
 59 78  1  0  0  0  0
 60 62  1  0  0  0  0
 60 77  1  0  0  0  0
 61 79  1  0  0  0  0
 62 88  1  0  0  0  0
 63 65  1  0  0  0  0
 63 76  1  0  0  0  0
 64 80  1  0  0  0  0
 66 67  1  0  0  0  0
M  CHG  2  79   1  80   1
M  ISO  4  38 100  62 101  73 100  88 101
M  END
> <Batch ID>
0003

> <Smiles>
CNC(C)C(=O)NC(C(=O)N1Cc2cc([101O:1][101CH2:1]CNC(N)=NCCCNC(=O)Nc3ccc([100NH:0][100C:0](=O)N4CCCC(n5nc(-c6ccc(Oc7ccc(F)cc7F)cc6)c(C(N)=O)c5N)C4)cc3)ccc2CC1C(=O)NC1CCCc2ccccc21)C(C)(C)C

> <Shape>
0.242

> <Color>
0.062

> <Negative vol penalty>
0.000

$$$$

  -OEChem-04052315213D

 93101  0     1  0  0  0  0  0999 V2000
  -26.4786  -25.8870   18.3495 C   0  0  0  0  0  0  0  0  0  0  0  0
  -27.6062  -25.8901   19.1644 C   0  0  0  0  0  0  0  0  0  0  0  0
  -23.0003   -9.8954   19.9811 C   0  0  0  0  0  0  0  0  0  0  0  0
  -23.7258   -9.9458   22.2851 C   0  0  0  0  0  0  0  0  0  0  0  0
  -25.2137  -25.7223   18.9124 C   0  0  0  0  0  0  0  0  0  0  0  0
  -27.4694  -25.7298   20.5428 C   0  0  0  0  0  0  0  0  0  0  0  0
  -30.8398  -22.4749   22.4639 C   0  0  0  0  0  0  0  0  0  0  0  0
  -29.8807  -17.4486   23.0991 C   0  0  0  0  0  0  0  0  0  0  0  0
  -32.0590  -16.5505   22.5643 C   0  0  0  0  0  0  0  0  0  0  0  0
  -22.2336   -8.7611   20.2474 C   0  0  0  0  0  0  0  0  0  0  0  0
  -22.9590   -8.8115   22.5514 C   0  0  0  0  0  0  0  0  0  0  0  0
  -32.1394  -22.9425   22.6546 C   0  0  0  0  0  0  0  0  0  0  0  0
  -30.4692  -18.3448   23.9913 C   0  0  0  0  0  0  0  0  0  0  0  0
  -32.6475  -17.4468   23.4565 C   0  0  0  0  0  0  0  0  0  0  0  0
  -23.2026   -5.4726   22.0788 C   0  0  0  0  0  0  0  0  0  0  0  0
  -23.7900   -4.4551   22.8307 C   0  0  0  0  0  0  0  0  0  0  0  0
  -31.6717  -23.2685   24.9986 C   0  0  0  0  0  0  0  0  0  0  0  0
  -22.0664   -4.6981   24.5061 C   0  0  0  0  0  0  0  0  0  0  0  0
  -23.7465  -10.4878   21.0000 C   0  0  0  0  0  0  0  0  0  0  0  0
  -24.1323  -13.0034   20.8244 C   0  0  0  0  0  0  0  0  0  0  0  0
  -25.0621  -25.5502   20.2973 C   0  0  0  0  0  0  0  0  0  0  0  0
  -29.9416  -22.4108   23.5389 C   0  0  0  0  0  0  0  0  0  0  0  0
  -26.2011  -25.5640   21.1248 C   0  0  0  0  0  0  0  0  0  0  0  0
  -30.3621  -22.7973   24.8194 C   0  0  0  0  0  0  0  0  0  0  0  0
  -30.6756  -16.5514   22.3856 C   0  0  0  0  0  0  0  0  0  0  0  0
  -22.2129   -8.2191   21.5325 C   0  0  0  0  0  0  0  0  0  0  0  0
  -31.8526  -18.3439   24.1700 C   0  0  0  0  0  0  0  0  0  0  0  0
  -32.5546  -23.3421   23.9215 C   0  0  0  0  0  0  0  0  0  0  0  0
  -22.0471   -6.1029   22.5406 C   0  0  0  0  0  0  0  0  0  0  0  0
  -23.2219   -4.0678   24.0443 C   0  0  0  0  0  0  0  0  0  0  0  0
  -21.4790   -5.7156   23.7543 C   0  0  0  0  0  0  0  0  0  0  0  0
  -24.5391  -11.6593   20.7255 C   0  0  0  0  0  0  0  0  0  0  0  0
  -25.2421  -13.7258   20.4600 C   0  0  0  0  0  0  0  0  0  0  0  0
  -22.8645  -13.5500   21.2112 C   0  0  0  0  0  0  0  0  0  0  0  0
  -27.1518  -23.7758   24.2154 C   0  0  0  0  0  0  0  0  0  0  0  0
  -27.2332  -21.7737   26.7663 C   0  0  0  0  0  0  0  0  0  0  0  0
  -37.5695  -19.6202   29.2420 C   0  0  0  0  0  0  0  0  0  0  0  0
  -29.1035  -19.9044   28.9237 C   0  0  0  0  0  0  0  0  0  0  0  0
  -30.7218  -14.6857   20.6934 C   0  0  0  0  0  0  0  0  0  0  0  0
  -34.7687  -22.8096   24.4394 C   0  0  0  0  0  0  0  0  0  1  0  0
  -23.6706  -25.4231   20.8650 C   0  0  0  0  0  0  0  0  0  0  0  0
  -28.5515  -21.8788   23.3218 C   0  0  0  0  0  0  0  0  0  0  0  0
  -29.4427  -22.7287   26.0104 C   0  0  0  0  0  0  0  0  0  0  0  0
  -23.6422  -24.8841   22.2929 C   0  0  0  0  0  0  0  0  0  0  0  0
  -29.6027  -12.2335   18.3672 C   0  0  0  0  0  0  0  0  0  0  0  0
  -24.6767  -25.6009   23.1547 C   0  0  0  0  0  0  0  0  0  0  0  0
  -28.1521  -11.9761   18.7815 C   0  0  0  0  0  0  0  0  0  0  0  0
  -30.5035  -12.4765   19.5769 C   0  0  0  0  0  0  0  0  0  0  0  0
  -28.5884  -13.2655   20.9108 C   0  0  0  0  0  0  0  0  0  0  0  0
  -26.0955  -25.3681   22.6217 C   0  0  1  0  0  0  0  0  0  0  0  0
  -27.5620  -22.3406   24.3872 C   0  0  1  0  0  0  0  0  0  0  0  0
  -27.6306  -13.0795   19.7227 C   0  0  2  0  0  0  0  0  0  0  0  0
  -28.8917  -18.4086   30.9275 C   0  0  0  0  0  0  0  0  0  0  0  0
  -26.7850  -24.2163   28.5391 C   0  0  0  0  0  0  0  0  0  0  0  0
  -27.5227  -22.8430   30.4982 C   0  0  0  0  0  0  0  0  0  0  0  0
  -25.4884  -22.1865   29.2125 C   0  0  0  0  0  0  0  0  0  0  0  0
  -30.2658  -17.6017   27.4725 C   0  0  0  0  0  0  0  0  0  0  0  0
  -36.2920  -19.2459   29.9673 C   0  0  0  0  0  0  0  0  0  0  0  0
  -35.0373  -19.6538   29.1969 C   0  0  0  0  0  0  0  0  0  0  0  0
  -34.9882  -19.0421   27.7940 C   0  0  0  0  0  0  0  0  0  0  0  0
  -38.6131  -21.6711   26.8390 C   0  0  0  0  0  0  0  0  0  0  0  0
  -37.3807  -22.5010   26.4629 C   0  0  0  0  0  0  0  0  0  0  0  0
  -33.7096  -19.4418   27.0600 C   0  0  0  0  0  0  0  0  0  0  0  0
  -38.8160  -21.5773   28.3480 C   0  0  0  0  0  0  0  0  0  0  0  0
  -37.1968  -22.6039   24.9538 C   0  0  0  0  0  0  0  0  0  0  0  0
  -33.6311  -18.8035   25.6804 C   0  0  0  0  0  0  0  0  0  0  0  0
  -27.7703  -21.8578   28.1746 C   0  0  1  0  0  0  0  0  0  0  0  0
  -28.9518  -18.4741   29.4093 C   0  0  2  0  0  0  0  0  0  0  0  0
  -26.9086  -22.7791   29.0835 C   0  0  0  0  0  0  0  0  0  0  0  0
  -25.8083  -11.5326   20.3291 N   0  0  0  0  0  0  0  0  0  0  0  0
  -26.2086  -12.8063   20.1757 N   0  0  0  0  0  0  0  0  0  0  0  0
  -28.0914  -22.2075   25.7460 N   0  0  0  0  0  0  0  0  0  0  0  0
  -29.9488  -13.5374   20.4205 N   0  0  0  0  0  0  0  0  0  0  0  0
  -25.4759  -15.0515   20.3581 N   0  0  0  0  0  0  0  0  0  0  0  0
  -21.8325  -12.6660   21.5547 N   0  0  0  0  0  0  0  0  0  0  0  0
  -30.0779  -15.6409   21.4793 N   0  0  0  0  0  0  0  0  0  0  0  0
  -26.5658  -24.0512   22.9946 N   0  0  0  0  0  0  0  0  0  0  0  0
  -37.6905  -20.9854   29.0166 N   0  0  0  0  0  0  0  0  0  0  0  0
  -27.8821  -20.4836   28.6516 N   0  0  0  0  0  0  0  0  0  0  0  0
  -36.0190  -23.3669   24.6105 N   0  0  0  0  0  0  0  0  0  0  0  0
  -30.1018  -17.6459   28.9484 N   0  3  0  0  0  0  0  0  0  0  0  0
  -22.6480  -14.7853   21.2352 O   0  0  0  0  0  0  0  0  0  0  0  0
  -27.3509  -24.5740   25.1237 O   0  0  0  0  0  0  0  0  0  0  0  0
  -26.0968  -21.3325   26.5778 O   0  0  0  0  0  0  0  0  0  0  0  0
  -38.3907  -18.7699   28.9054 O   0  0  0  0  0  0  0  0  0  0  0  0
  -30.1960  -20.4541   28.8017 O   0  0  0  0  0  0  0  0  0  0  0  0
  -31.8605  -14.8245   20.2393 O   0  0  0  0  0  0  0  0  0  0  0  0
  -34.4948  -21.6184   24.5524 O   0  0  0  0  0  0  0  0  0  0  0  0
  -21.4646   -7.1123   21.7927 O   0  0  0  0  0  0  0  0  0  0  0  0
  -33.8223  -23.7996   24.1103 O   0  0  0  0  0  0  0  0  0  1  0  0
  -32.4310  -19.2246   25.0467 O   0  0  0  0  0  0  0  0  0  0  0  0
  -23.7852   -3.0897   24.7654 F   0  0  0  0  0  0  0  0  0  0  0  0
  -20.3683   -6.3166   24.2025 F   0  0  0  0  0  0  0  0  0  0  0  0
  1  2  1  0  0  0  0
  1  5  2  0  0  0  0
  2  6  2  0  0  0  0
  3 10  2  0  0  0  0
  3 19  1  0  0  0  0
  4 11  1  0  0  0  0
  4 19  2  0  0  0  0
  5 21  1  0  0  0  0
  6 23  1  0  0  0  0
  7 12  2  0  0  0  0
  7 22  1  0  0  0  0
  8 13  2  0  0  0  0
  8 25  1  0  0  0  0
  9 14  1  0  0  0  0
  9 25  2  0  0  0  0
 10 26  1  0  0  0  0
 11 26  2  0  0  0  0
 12 28  1  0  0  0  0
 13 27  1  0  0  0  0
 14 27  2  0  0  0  0
 15 16  2  0  0  0  0
 15 29  1  0  0  0  0
 16 30  1  0  0  0  0
 17 24  1  0  0  0  0
 17 28  2  0  0  0  0
 18 30  2  0  0  0  0
 18 31  1  0  0  0  0
 19 32  1  0  0  0  0
 20 32  1  0  0  0  0
 20 33  2  0  0  0  0
 20 34  1  0  0  0  0
 21 23  2  0  0  0  0
 21 41  1  0  0  0  0
 22 24  2  0  0  0  0
 22 42  1  0  0  0  0
 23 50  1  0  0  0  0
 24 43  1  0  0  0  0
 25 76  1  0  0  0  0
 26 89  1  0  0  0  0
 27 91  1  0  0  0  0
 28 90  1  0  0  0  0
 29 31  2  0  0  0  0
 29 89  1  0  0  0  0
 30 92  1  0  0  0  0
 31 93  1  0  0  0  0
 32 70  2  0  0  0  0
 33 71  1  0  0  0  0
 33 74  1  0  0  0  0
 34 75  1  0  0  0  0
 34 82  2  0  0  0  0
 35 51  1  0  0  0  0
 35 77  1  0  0  0  0
 35 83  2  0  0  0  0
 36 67  1  0  0  0  0
 36 72  1  0  0  0  0
 36 84  2  0  0  0  0
 37 58  1  0  0  0  0
 37 78  1  0  0  0  0
 37 85  2  0  0  0  0
 38 68  1  0  0  0  0
 38 79  1  0  0  0  0
 38 86  2  0  0  0  0
 39 73  1  0  0  0  0
 39 76  1  0  0  0  0
 39 87  2  0  0  0  0
 40 80  1  0  0  0  0
 40 88  2  0  0  0  0
 40 90  1  0  0  0  0
 41 44  1  0  0  0  0
 42 51  1  0  0  0  0
 43 72  1  0  0  0  0
 44 46  1  0  0  0  0
 45 47  1  0  0  0  0
 45 48  1  0  0  0  0
 46 50  1  0  0  0  0
 47 52  1  0  0  0  0
 48 73  1  0  0  0  0
 49 52  1  0  0  0  0
 49 73  1  0  0  0  0
 50 77  1  0  0  0  0
 51 72  1  0  0  0  0
 52 71  1  0  0  0  0
 53 68  1  0  0  0  0
 54 69  1  0  0  0  0
 55 69  1  0  0  0  0
 56 69  1  0  0  0  0
 57 81  1  0  0  0  0
 58 59  1  0  0  0  0
 59 60  1  0  0  0  0
 60 63  1  0  0  0  0
 61 62  1  0  0  0  0
 61 64  1  0  0  0  0
 62 65  1  0  0  0  0
 63 66  1  0  0  0  0
 64 78  1  0  0  0  0
 65 80  1  0  0  0  0
 66 91  1  0  0  0  0
 67 69  1  0  0  0  0
 67 79  1  0  0  0  0
 68 81  1  0  0  0  0
 70 71  1  0  0  0  0
M  CHG  1  81   1
M  ISO  4  39 100  40 101  76 100  90 101
M  END
> <Batch ID>
0003

> <Smiles>
CNC(C)C(=O)NC(C(=O)N1Cc2cc([101O:1][101C:1](=O)NCCCCNC(=O)CCCCCOc3ccc([100NH:0][100C:0](=O)N4CCCC(n5nc(-c6ccc(Oc7ccc(F)cc7F)cc6)c(C(N)=O)c5N)C4)cc3)ccc2CC1C(=O)NC1CCCc2ccccc21)C(C)(C)C

> <Shape>
0.183

> <Color>
0.186

> <Negative vol penalty>
0.000

$$$$

  -OEChem-04052315213D

 93101  0     1  0  0  0  0  0999 V2000
  -16.3315  -30.9234   22.8756 C   0  0  0  0  0  0  0  0  0  0  0  0
  -16.9456  -30.4503   21.7203 C   0  0  0  0  0  0  0  0  0  0  0  0
  -26.3432  -10.9619   20.5442 C   0  0  0  0  0  0  0  0  0  0  0  0
  -26.0409  -11.9193   18.3467 C   0  0  0  0  0  0  0  0  0  0  0  0
  -16.9412  -31.9275   23.6266 C   0  0  0  0  0  0  0  0  0  0  0  0
  -18.1693  -30.9819   21.3149 C   0  0  0  0  0  0  0  0  0  0  0  0
  -24.9572  -27.3879   19.8883 C   0  0  0  0  0  0  0  0  0  0  0  0
  -25.1567  -10.2441   20.3948 C   0  0  0  0  0  0  0  0  0  0  0  0
  -24.8544  -11.2013   18.1972 C   0  0  0  0  0  0  0  0  0  0  0  0
  -26.2521  -26.8852   19.7597 C   0  0  0  0  0  0  0  0  0  0  0  0
  -24.1266   -7.4348   18.8200 C   0  0  0  0  0  0  0  0  0  0  0  0
  -24.1310   -6.0905   19.1923 C   0  0  0  0  0  0  0  0  0  0  0  0
  -27.1614  -29.0454   20.3550 C   0  0  0  0  0  0  0  0  0  0  0  0
  -22.3986   -6.5347   20.8167 C   0  0  0  0  0  0  0  0  0  0  0  0
  -26.7853  -11.7996   19.5202 C   0  0  0  0  0  0  0  0  0  0  0  0
  -29.3005  -12.0190   19.8857 C   0  0  0  0  0  0  0  0  0  0  0  0
  -18.1777  -32.4649   23.2353 C   0  0  0  0  0  0  0  0  0  0  0  0
  -24.7591  -28.7188   20.2662 C   0  0  0  0  0  0  0  0  0  0  0  0
  -18.7955  -31.9950   22.0606 C   0  0  0  0  0  0  0  0  0  0  0  0
  -25.8665  -29.5512   20.4976 C   0  0  0  0  0  0  0  0  0  0  0  0
  -24.4123  -10.3637   19.2212 C   0  0  0  0  0  0  0  0  0  0  0  0
  -27.3514  -27.7120   19.9923 C   0  0  0  0  0  0  0  0  0  0  0  0
  -23.2583   -8.3291   19.4462 C   0  0  0  0  0  0  0  0  0  0  0  0
  -23.2669   -5.6405   20.1906 C   0  0  0  0  0  0  0  0  0  0  0  0
  -22.3942   -7.8790   20.4444 C   0  0  0  0  0  0  0  0  0  0  0  0
  -28.0106  -12.5419   19.6743 C   0  0  0  0  0  0  0  0  0  0  0  0
  -30.1108  -13.1252   19.9642 C   0  0  0  0  0  0  0  0  0  0  0  0
  -29.7279  -10.6553   20.0006 C   0  0  0  0  0  0  0  0  0  0  0  0
  -22.3066  -31.4484   21.0479 C   0  0  0  0  0  0  0  0  0  0  0  0
  -33.2446  -19.0600   16.3415 C   0  0  0  0  0  0  0  0  0  0  0  0
  -24.5851  -31.6865   23.0881 C   0  0  0  0  0  0  0  0  0  0  0  0
  -30.8231  -17.6406   14.6100 C   0  0  0  0  0  0  0  0  0  0  0  0
  -27.0693  -31.3461   25.4011 C   0  0  0  0  0  0  0  0  0  0  0  0
  -29.6305  -18.6924   17.8132 C   0  0  0  0  0  0  0  0  0  0  0  0
  -18.7752  -33.5820   24.0536 C   0  0  0  0  0  0  0  0  0  0  0  0
  -23.3826  -29.3196   20.3570 C   0  0  0  0  0  0  0  0  0  0  0  0
  -25.6058  -30.9856   20.8683 C   0  0  0  0  0  0  0  0  0  0  0  0
  -20.2526  -33.8294   23.7597 C   0  0  0  0  0  0  0  0  0  0  0  0
  -34.4447  -17.4128   13.9597 C   0  0  0  0  0  0  0  0  0  0  0  0
  -30.0344  -17.7412   21.2204 C   0  0  0  0  0  0  0  0  0  0  0  0
  -20.4982  -33.8682   22.2547 C   0  0  0  0  0  0  0  0  0  0  0  0
  -34.2638  -18.9207   14.1127 C   0  0  0  0  0  0  0  0  0  0  0  0
  -29.6779  -16.2536   21.2296 C   0  0  0  0  0  0  0  0  0  0  0  0
  -33.0262  -16.9187   13.7301 C   0  0  0  0  0  0  0  0  0  0  0  0
  -29.1636  -18.5241   20.2402 C   0  0  0  0  0  0  0  0  0  0  0  0
  -28.7946  -16.5072   18.8728 C   0  0  0  0  0  0  0  0  0  0  0  0
  -20.1350  -32.5291   21.6017 C   0  0  1  0  0  0  0  0  0  0  0  0
  -23.2541  -30.3671   21.4775 C   0  0  1  0  0  0  0  0  0  0  0  0
  -32.9364  -19.0454   14.8561 C   0  0  1  0  0  0  0  0  0  0  0  0
  -29.6838  -15.6668   19.8052 C   0  0  2  0  0  0  0  0  0  0  0  0
  -27.9550  -32.3833   27.5076 C   0  0  0  0  0  0  0  0  0  0  0  0
  -25.7780  -33.9714   21.4570 C   0  0  0  0  0  0  0  0  0  0  0  0
  -27.3669  -34.3951   23.3449 C   0  0  0  0  0  0  0  0  0  0  0  0
  -24.9106  -34.6367   23.7064 C   0  0  0  0  0  0  0  0  0  0  0  0
  -29.4510  -19.9820   13.2789 C   0  0  0  0  0  0  0  0  0  0  0  0
  -27.8348  -18.2881   14.1681 C   0  0  0  0  0  0  0  0  0  0  0  0
  -28.2304  -20.4236   15.4093 C   0  0  0  0  0  0  0  0  0  0  0  0
  -26.6394  -28.8579   26.9448 C   0  0  0  0  0  0  0  0  0  0  0  0
  -31.8805  -23.6174   18.9555 C   0  0  0  0  0  0  0  0  0  0  0  0
  -30.3975  -23.9911   19.0015 C   0  0  0  0  0  0  0  0  0  0  0  0
  -32.0732  -22.1485   18.5722 C   0  0  0  0  0  0  0  0  0  0  0  0
  -30.2059  -25.4534   19.4145 C   0  0  0  0  0  0  0  0  0  0  0  0
  -33.5534  -21.7703   18.5621 C   0  0  0  0  0  0  0  0  0  0  0  0
  -28.7345  -25.8403   19.5007 C   0  0  0  0  0  0  0  0  0  1  0  0
  -25.9034  -32.3265   23.4431 C   0  0  1  0  0  0  0  0  0  0  0  0
  -30.0674  -18.7009   15.3703 C   0  0  1  0  0  0  0  0  0  0  0  0
  -27.0368  -31.3237   26.9187 C   0  0  2  0  0  0  0  0  0  0  0  0
  -25.9885  -33.8069   22.9755 C   0  0  0  0  0  0  0  0  0  0  0  0
  -28.9047  -19.3241   14.5622 C   0  0  0  0  0  0  0  0  0  0  0  0
  -27.9975  -13.8765   19.6221 N   0  0  0  0  0  0  0  0  0  0  0  0
  -29.2890  -14.2015   19.8018 N   0  0  0  0  0  0  0  0  0  0  0  0
  -24.5019  -31.0612   21.8380 N   0  0  0  0  0  0  0  0  0  0  0  0
  -32.1801  -17.8624   14.4477 N   0  0  0  0  0  0  0  0  0  0  0  0
  -29.2144  -17.9170   18.9080 N   0  0  0  0  0  0  0  0  0  0  0  0
  -31.4390  -13.2725   20.1557 N   0  0  0  0  0  0  0  0  0  0  0  0
  -30.1081   -9.9739   18.8364 N   0  0  0  0  0  0  0  0  0  0  0  0
  -21.1771  -31.5529   21.8370 N   0  0  0  0  0  0  0  0  0  0  0  0
  -26.0720  -32.1434   24.8806 N   0  0  0  0  0  0  0  0  0  0  0  0
  -29.6559  -18.0381   16.5877 N   0  0  0  0  0  0  0  0  0  0  0  0
  -33.7167  -20.3741   18.1747 N   0  0  0  0  0  0  0  0  0  0  0  0
  -27.4703  -29.9913   27.4264 N   0  3  0  0  0  0  0  0  0  0  0  0
  -29.7559  -10.0536   21.1009 O   0  0  0  0  0  0  0  0  0  0  0  0
  -22.5799  -32.1390   20.0732 O   0  0  0  0  0  0  0  0  0  0  0  0
  -33.3167  -18.0509   17.0308 O   0  0  0  0  0  0  0  0  0  0  0  0
  -23.6511  -31.7429   23.8929 O   0  0  0  0  0  0  0  0  0  0  0  0
  -30.2320  -16.6514   14.1722 O   0  0  0  0  0  0  0  0  0  0  0  0
  -27.8989  -30.7219   24.7433 O   0  0  0  0  0  0  0  0  0  0  0  0
  -29.9603  -19.8784   17.9209 O   0  0  0  0  0  0  0  0  0  0  0  0
  -23.2546   -9.6631   19.0749 O   0  0  0  0  0  0  0  0  0  0  0  0
  -28.6129  -27.2135   19.8694 O   0  0  0  0  0  0  0  0  0  1  0  0
  -33.4206  -20.3520   16.7502 O   0  0  0  0  0  0  0  0  0  0  0  0
  -23.2702   -4.3493   20.5469 F   0  0  0  0  0  0  0  0  0  0  0  0
  -21.5569   -8.7332   21.0487 F   0  0  0  0  0  0  0  0  0  0  0  0
  1  2  1  0  0  0  0
  1  5  2  0  0  0  0
  2  6  2  0  0  0  0
  3  8  2  0  0  0  0
  3 15  1  0  0  0  0
  4  9  1  0  0  0  0
  4 15  2  0  0  0  0
  5 17  1  0  0  0  0
  6 19  1  0  0  0  0
  7 10  2  0  0  0  0
  7 18  1  0  0  0  0
  8 21  1  0  0  0  0
  9 21  2  0  0  0  0
 10 22  1  0  0  0  0
 11 12  2  0  0  0  0
 11 23  1  0  0  0  0
 12 24  1  0  0  0  0
 13 20  1  0  0  0  0
 13 22  2  0  0  0  0
 14 24  2  0  0  0  0
 14 25  1  0  0  0  0
 15 26  1  0  0  0  0
 16 26  1  0  0  0  0
 16 27  2  0  0  0  0
 16 28  1  0  0  0  0
 17 19  2  0  0  0  0
 17 35  1  0  0  0  0
 18 20  2  0  0  0  0
 18 36  1  0  0  0  0
 19 47  1  0  0  0  0
 20 37  1  0  0  0  0
 21 89  1  0  0  0  0
 22 90  1  0  0  0  0
 23 25  2  0  0  0  0
 23 89  1  0  0  0  0
 24 92  1  0  0  0  0
 25 93  1  0  0  0  0
 26 70  2  0  0  0  0
 27 71  1  0  0  0  0
 27 75  1  0  0  0  0
 28 76  1  0  0  0  0
 28 82  2  0  0  0  0
 29 48  1  0  0  0  0
 29 77  1  0  0  0  0
 29 83  2  0  0  0  0
 30 49  1  0  0  0  0
 30 84  2  0  0  0  0
 30 91  1  0  0  0  0
 31 65  1  0  0  0  0
 31 72  1  0  0  0  0
 31 85  2  0  0  0  0
 32 66  1  0  0  0  0
 32 73  1  0  0  0  0
 32 86  2  0  0  0  0
 33 67  1  0  0  0  0
 33 78  1  0  0  0  0
 33 87  2  0  0  0  0
 34 74  1  0  0  0  0
 34 79  1  0  0  0  0
 34 88  2  0  0  0  0
 35 38  1  0  0  0  0
 36 48  1  0  0  0  0
 37 72  1  0  0  0  0
 38 41  1  0  0  0  0
 39 42  1  0  0  0  0
 39 44  1  0  0  0  0
 40 43  1  0  0  0  0
 40 45  1  0  0  0  0
 41 47  1  0  0  0  0
 42 49  1  0  0  0  0
 43 50  1  0  0  0  0
 44 73  1  0  0  0  0
 45 74  1  0  0  0  0
 46 50  1  0  0  0  0
 46 74  1  0  0  0  0
 47 77  1  0  0  0  0
 48 72  1  0  0  0  0
 49 73  1  0  0  0  0
 50 71  1  0  0  0  0
 51 67  1  0  0  0  0
 52 68  1  0  0  0  0
 53 68  1  0  0  0  0
 54 68  1  0  0  0  0
 55 69  1  0  0  0  0
 56 69  1  0  0  0  0
 57 69  1  0  0  0  0
 58 81  1  0  0  0  0
 59 60  1  0  0  0  0
 59 61  1  0  0  0  0
 60 62  1  0  0  0  0
 61 63  1  0  0  0  0
 62 64  1  0  0  0  0
 63 80  1  0  0  0  0
 64 90  1  0  0  0  0
 65 68  1  0  0  0  0
 65 78  1  0  0  0  0
 66 69  1  0  0  0  0
 66 79  1  0  0  0  0
 67 81  1  0  0  0  0
 70 71  1  0  0  0  0
 80 91  1  0  0  0  0
M  CHG  1  81   1
M  ISO  4  34 100  64 101  79 100  90 101
M  END
> <Batch ID>
0003

> <Smiles>
CNC(C)C(=O)NC(C(=O)N1Cc2cc([101O:1][101CH2:1]CCCCCNOC(=O)C3CCCN3C(=O)C([100NH:0][100C:0](=O)N3CCCC(n4nc(-c5ccc(Oc6ccc(F)cc6F)cc5)c(C(N)=O)c4N)C3)C(C)(C)C)ccc2CC1C(=O)NC1CCCc2ccccc21)C(C)(C)C

> <Shape>
0.277

> <Color>
0.085

> <Negative vol penalty>
0.000

$$$$

  -OEChem-04052315213D

 88 96  0     1  0  0  0  0  0999 V2000
  -25.7325  -18.0855   23.6224 C   0  0  0  0  0  0  0  0  0  0  0  0
  -26.3689  -19.0857   23.4323 C   0  0  0  0  0  0  0  0  0  0  0  0
  -29.2693  -25.1974   17.0647 C   0  0  0  0  0  0  0  0  0  0  0  0
  -28.0027  -25.0391   17.6179 C   0  0  0  0  0  0  0  0  0  0  0  0
  -25.7091  -14.2839   20.7745 C   0  0  0  0  0  0  0  0  0  0  0  0
  -25.9824  -14.3331   18.3745 C   0  0  0  0  0  0  0  0  0  0  0  0
  -23.5499  -23.3014   24.6353 C   0  0  0  0  0  0  0  0  0  0  0  0
  -24.9765  -22.2693   26.2896 C   0  0  0  0  0  0  0  0  0  0  0  0
  -30.2331  -25.9485   17.7362 C   0  0  0  0  0  0  0  0  0  0  0  0
  -27.6995  -25.6310   18.8436 C   0  0  0  0  0  0  0  0  0  0  0  0
  -22.3064  -27.9615   20.5725 C   0  0  0  0  0  0  0  0  0  0  0  0
  -24.3423  -22.7678   23.6190 C   0  0  0  0  0  0  0  0  0  0  0  0
  -25.7689  -21.7357   25.2733 C   0  0  0  0  0  0  0  0  0  0  0  0
  -24.7370  -13.2922   20.6436 C   0  0  0  0  0  0  0  0  0  0  0  0
  -25.0103  -13.3413   18.2436 C   0  0  0  0  0  0  0  0  0  0  0  0
  -21.2666  -27.4467   21.3455 C   0  0  0  0  0  0  0  0  0  0  0  0
  -24.6395   -9.9543   20.1131 C   0  0  0  0  0  0  0  0  0  0  0  0
  -24.7087   -8.8607   20.9761 C   0  0  0  0  0  0  0  0  0  0  0  0
  -22.1653  -28.5622   23.2864 C   0  0  0  0  0  0  0  0  0  0  0  0
  -22.5122   -9.3949   21.8290 C   0  0  0  0  0  0  0  0  0  0  0  0
  -26.3318  -14.8044   19.6400 C   0  0  0  0  0  0  0  0  0  0  0  0
  -23.8670  -23.0522   25.9707 C   0  0  0  0  0  0  0  0  0  0  0  0
  -28.7228  -15.6454   19.9286 C   0  0  0  0  0  0  0  0  0  0  0  0
  -29.9386  -26.5579   18.9660 C   0  0  0  0  0  0  0  0  0  0  0  0
  -23.2912  -28.7730   21.1539 C   0  0  0  0  0  0  0  0  0  0  0  0
  -28.6607  -26.3898   19.5328 C   0  0  0  0  0  0  0  0  0  0  0  0
  -23.2151  -29.0882   22.5181 C   0  0  0  0  0  0  0  0  0  0  0  0
  -25.4519  -21.9850   23.9380 C   0  0  0  0  0  0  0  0  0  0  0  0
  -24.3876  -12.8209   19.3781 C   0  0  0  0  0  0  0  0  0  0  0  0
  -21.1975  -27.7446   22.7033 C   0  0  0  0  0  0  0  0  0  0  0  0
  -23.5067  -10.7682   20.1080 C   0  0  0  0  0  0  0  0  0  0  0  0
  -23.6451   -8.5810   21.8341 C   0  0  0  0  0  0  0  0  0  0  0  0
  -22.4431  -10.4885   20.9659 C   0  0  0  0  0  0  0  0  0  0  0  0
  -27.3356  -15.8292   19.7746 C   0  0  0  0  0  0  0  0  0  0  0  0
  -29.2308  -16.9188   20.0116 C   0  0  0  0  0  0  0  0  0  0  0  0
  -23.0273  -23.6177   27.0477 C   0  0  0  0  0  0  0  0  0  0  0  0
  -29.4842  -14.4321   19.9908 C   0  0  0  0  0  0  0  0  0  0  0  0
  -21.6217  -23.8382   26.8057 C   0  0  0  0  0  0  0  0  0  0  0  0
  -26.4382  -28.5518   21.5425 C   0  0  0  0  0  0  0  0  0  0  0  0
  -26.1181  -31.5731   22.6790 C   0  0  0  0  0  0  0  0  0  0  0  0
  -24.1048  -33.9388   24.0921 C   0  0  0  0  0  0  0  0  0  0  0  0
  -26.4159  -22.0934   21.6458 C   0  0  0  0  0  0  0  0  0  0  0  0
  -31.0278  -27.3210   19.6773 C   0  0  0  0  0  0  0  0  0  0  0  0
  -24.3915  -29.3424   20.3009 C   0  0  0  0  0  0  0  0  0  0  0  0
  -24.2360  -29.9713   23.1862 C   0  0  0  0  0  0  0  0  0  0  0  0
  -30.5091  -28.2269   20.7912 C   0  0  0  0  0  0  0  0  0  0  0  0
  -28.3769  -21.4028   18.5983 C   0  0  0  0  0  0  0  0  0  0  0  0
  -29.5068  -27.4788   21.6644 C   0  0  0  0  0  0  0  0  0  0  0  0
  -28.3902  -19.8762   18.5406 C   0  0  0  0  0  0  0  0  0  0  0  0
  -27.1167  -21.9335   19.2752 C   0  0  0  0  0  0  0  0  0  0  0  0
  -26.8941  -19.8390   20.5766 C   0  0  0  0  0  0  0  0  0  0  0  0
  -28.2860  -27.0369   20.8484 C   0  0  1  0  0  0  0  0  0  0  0  0
  -25.6266  -29.7379   21.1043 C   0  0  1  0  0  0  0  0  0  0  0  0
  -28.1715  -19.2724   19.9386 C   0  0  1  0  0  0  0  0  0  0  0  0
  -24.1359  -36.3005   24.9401 C   0  0  0  0  0  0  0  0  0  0  0  0
  -27.5807  -30.6489   25.1923 C   0  0  0  0  0  0  0  0  0  0  0  0
  -26.7546  -32.7109   26.3471 C   0  0  0  0  0  0  0  0  0  0  0  0
  -28.2556  -32.9103   24.3647 C   0  0  0  0  0  0  0  0  0  0  0  0
  -22.0669  -34.7951   22.1242 C   0  0  0  0  0  0  0  0  0  0  0  0
  -27.1485  -20.3010   23.2016 C   0  0  0  0  0  0  0  0  0  0  0  0
  -19.5803  -25.8530   25.3208 C   0  0  0  0  0  0  0  0  0  0  0  0
  -19.8190  -25.5058   26.7808 C   0  0  0  0  0  0  0  0  0  0  0  0
  -20.4626  -26.9973   24.8380 C   0  0  0  0  0  0  0  0  0  1  0  0
  -25.8567  -32.1832   24.0349 C   0  0  1  0  0  0  0  0  0  0  0  0
  -23.8686  -35.3978   23.7457 C   0  0  2  0  0  0  0  0  0  0  0  0
  -27.0936  -32.0951   24.9729 C   0  0  0  0  0  0  0  0  0  0  0  0
  -26.9847  -17.1179   19.7605 N   0  0  0  0  0  0  0  0  0  0  0  0
  -28.1587  -17.7553   19.9068 N   0  0  0  0  0  0  0  0  0  0  0  0
  -25.2961  -30.4986   22.3111 N   0  0  0  0  0  0  0  0  0  0  0  0
  -26.9078  -21.3100   20.5825 N   0  0  0  0  0  0  0  0  0  0  0  0
  -30.4854  -17.3934   20.1635 N   0  0  0  0  0  0  0  0  0  0  0  0
  -28.8043  -13.2107   19.8891 N   0  0  0  0  0  0  0  0  0  0  0  0
  -20.8685  -22.7916   26.4888 N   0  0  0  0  0  0  0  0  0  0  0  0
  -27.3943  -28.1551   20.6271 N   0  0  0  0  0  0  0  0  0  0  0  0
  -25.3901  -33.5432   23.7875 N   0  0  0  0  0  0  0  0  0  0  0  0
  -26.2714  -21.4330   22.8852 N   0  0  0  0  0  0  0  0  0  0  0  0
  -21.2117  -25.0963   26.9636 N   0  3  0  0  0  0  0  0  0  0  0  0
  -22.4596  -35.6044   23.3065 N   0  3  0  0  0  0  0  0  0  0  0  0
  -23.5414  -23.9115   28.1216 O   0  0  0  0  0  0  0  0  0  0  0  0
  -30.7286  -14.4307   20.1489 O   0  0  0  0  0  0  0  0  0  0  0  0
  -26.2147  -28.0357   22.6313 O   0  0  0  0  0  0  0  0  0  0  0  0
  -27.0139  -32.0376   21.9694 O   0  0  0  0  0  0  0  0  0  0  0  0
  -23.2372  -33.2228   24.5872 O   0  0  0  0  0  0  0  0  0  0  0  0
  -26.1556  -23.2943   21.5054 O   0  0  0  0  0  0  0  0  0  0  0  0
  -23.4393  -11.8531   19.2499 O   0  0  0  0  0  0  0  0  0  0  0  0
  -20.1840  -27.2429   23.4602 O   0  0  0  0  0  0  0  0  0  1  0  0
  -23.7110   -7.5299   22.6618 F   0  0  0  0  0  0  0  0  0  0  0  0
  -21.3517  -11.2661   20.9647 F   0  0  0  0  0  0  0  0  0  0  0  0
  1  2  3  0  0  0  0
  2 60  1  0  0  0  0
  3  4  1  0  0  0  0
  3  9  2  0  0  0  0
  4 10  2  0  0  0  0
  5 14  2  0  0  0  0
  5 21  1  0  0  0  0
  6 15  1  0  0  0  0
  6 21  2  0  0  0  0
  7 12  2  0  0  0  0
  7 22  1  0  0  0  0
  8 13  1  0  0  0  0
  8 22  2  0  0  0  0
  9 24  1  0  0  0  0
 10 26  1  0  0  0  0
 11 16  2  0  0  0  0
 11 25  1  0  0  0  0
 12 28  1  0  0  0  0
 13 28  2  0  0  0  0
 14 29  1  0  0  0  0
 15 29  2  0  0  0  0
 16 30  1  0  0  0  0
 17 18  2  0  0  0  0
 17 31  1  0  0  0  0
 18 32  1  0  0  0  0
 19 27  1  0  0  0  0
 19 30  2  0  0  0  0
 20 32  2  0  0  0  0
 20 33  1  0  0  0  0
 21 34  1  0  0  0  0
 22 36  1  0  0  0  0
 23 34  1  0  0  0  0
 23 35  2  0  0  0  0
 23 37  1  0  0  0  0
 24 26  2  0  0  0  0
 24 43  1  0  0  0  0
 25 27  2  0  0  0  0
 25 44  1  0  0  0  0
 26 52  1  0  0  0  0
 27 45  1  0  0  0  0
 28 76  1  0  0  0  0
 29 85  1  0  0  0  0
 30 86  1  0  0  0  0
 31 33  2  0  0  0  0
 31 85  1  0  0  0  0
 32 87  1  0  0  0  0
 33 88  1  0  0  0  0
 34 67  2  0  0  0  0
 35 68  1  0  0  0  0
 35 71  1  0  0  0  0
 36 38  1  0  0  0  0
 36 79  2  0  0  0  0
 37 72  1  0  0  0  0
 37 80  2  0  0  0  0
 38 73  1  0  0  0  0
 38 77  2  0  0  0  0
 39 53  1  0  0  0  0
 39 74  1  0  0  0  0
 39 81  2  0  0  0  0
 40 64  1  0  0  0  0
 40 69  1  0  0  0  0
 40 82  2  0  0  0  0
 41 65  1  0  0  0  0
 41 75  1  0  0  0  0
 41 83  2  0  0  0  0
 42 70  1  0  0  0  0
 42 76  1  0  0  0  0
 42 84  2  0  0  0  0
 43 46  1  0  0  0  0
 44 53  1  0  0  0  0
 45 69  1  0  0  0  0
 46 48  1  0  0  0  0
 47 49  1  0  0  0  0
 47 50  1  0  0  0  0
 48 52  1  0  0  0  0
 49 54  1  0  0  0  0
 50 70  1  0  0  0  0
 51 54  1  0  0  0  0
 51 70  1  0  0  0  0
 52 74  1  0  0  0  0
 53 69  1  0  0  0  0
 54 68  1  0  0  0  0
 55 65  1  0  0  0  0
 56 66  1  0  0  0  0
 57 66  1  0  0  0  0
 58 66  1  0  0  0  0
 59 78  1  0  0  0  0
 60 76  1  0  0  0  0
 61 62  1  0  0  0  0
 61 63  1  0  0  0  0
 62 77  1  0  0  0  0
 63 86  1  0  0  0  0
 64 66  1  0  0  0  0
 64 75  1  0  0  0  0
 65 78  1  0  0  0  0
 67 68  1  0  0  0  0
M  CHG  2  77   1  78   1
M  ISO  4  42 100  63 101  76 100  86 101
M  END
> <Batch ID>
0003

> <Smiles>
C#CC[100N:0](c1ccc(C(=O)C(=N)NCC[101CH2:1][101O:1]c2ccc3c(c2)CN(C(=O)C(NC(=O)C(C)NC)C(C)(C)C)C(C(=O)NC2CCCc4ccccc42)C3)cc1)[100C:0](=O)N1CCCC(n2nc(-c3ccc(Oc4ccc(F)cc4F)cc3)c(C(N)=O)c2N)C1

> <Shape>
0.305

> <Color>
0.063

> <Negative vol penalty>
0.000

$$$$

  -OEChem-04052315213D

 83 91  0     1  0  0  0  0  0999 V2000
  -29.5494  -19.6887   32.1449 C   0  0  0  0  0  0  0  0  0  0  0  0
  -30.9510  -22.2145   15.4463 C   0  0  0  0  0  0  0  0  0  0  0  0
  -30.6684  -22.2337   16.8083 C   0  0  0  0  0  0  0  0  0  0  0  0
  -30.8471  -20.1997   32.1688 C   0  0  0  0  0  0  0  0  0  0  0  0
  -32.4229  -17.6730   20.9521 C   0  0  0  0  0  0  0  0  0  0  0  0
  -30.4615  -17.1499   22.2622 C   0  0  0  0  0  0  0  0  0  0  0  0
  -28.8331  -19.6601   30.9484 C   0  0  0  0  0  0  0  0  0  0  0  0
  -30.9270  -23.4005   14.7137 C   0  0  0  0  0  0  0  0  0  0  0  0
  -30.3626  -23.4393   17.4388 C   0  0  0  0  0  0  0  0  0  0  0  0
  -26.3870  -23.0501   20.5514 C   0  0  0  0  0  0  0  0  0  0  0  0
  -31.4284  -20.6821   30.9962 C   0  0  0  0  0  0  0  0  0  0  0  0
  -32.4279  -16.3750   20.4414 C   0  0  0  0  0  0  0  0  0  0  0  0
  -30.4665  -15.8519   21.7515 C   0  0  0  0  0  0  0  0  0  0  0  0
  -26.6083  -22.4634   21.7966 C   0  0  0  0  0  0  0  0  0  0  0  0
  -29.5283  -14.2942   18.9030 C   0  0  0  0  0  0  0  0  0  0  0  0
  -28.3110  -13.7618   18.4784 C   0  0  0  0  0  0  0  0  0  0  0  0
  -26.7127  -24.6531   22.8032 C   0  0  0  0  0  0  0  0  0  0  0  0
  -28.5293  -11.9763   20.0913 C   0  0  0  0  0  0  0  0  0  0  0  0
  -31.4397  -18.0604   21.8626 C   0  0  0  0  0  0  0  0  0  0  0  0
  -29.4143  -20.1426   29.7758 C   0  0  0  0  0  0  0  0  0  0  0  0
  -30.7761  -20.5236   21.8542 C   0  0  0  0  0  0  0  0  0  0  0  0
  -30.6113  -24.6198   15.3335 C   0  0  0  0  0  0  0  0  0  0  0  0
  -26.3377  -24.4454   20.4207 C   0  0  0  0  0  0  0  0  0  0  0  0
  -30.3357  -24.6429   16.7141 C   0  0  0  0  0  0  0  0  0  0  0  0
  -26.4882  -25.2551   21.5556 C   0  0  0  0  0  0  0  0  0  0  0  0
  -30.7120  -20.6536   29.7997 C   0  0  0  0  0  0  0  0  0  0  0  0
  -31.4497  -15.4645   20.8410 C   0  0  0  0  0  0  0  0  0  0  0  0
  -26.7741  -23.2649   22.9222 C   0  0  0  0  0  0  0  0  0  0  0  0
  -30.2462  -13.6677   19.9217 C   0  0  0  0  0  0  0  0  0  0  0  0
  -27.8115  -12.6029   19.0726 C   0  0  0  0  0  0  0  0  0  0  0  0
  -29.7467  -12.5087   20.5159 C   0  0  0  0  0  0  0  0  0  0  0  0
  -31.4343  -19.4009   22.3910 C   0  0  0  0  0  0  0  0  0  0  0  0
  -31.0803  -21.5461   22.7194 C   0  0  0  0  0  0  0  0  0  0  0  0
  -28.6236  -20.0974   28.5189 C   0  0  0  0  0  0  0  0  0  0  0  0
  -29.9625  -20.6325   20.6787 C   0  0  0  0  0  0  0  0  0  0  0  0
  -28.0462  -26.6124   18.8430 C   0  0  0  0  0  0  0  0  0  0  0  0
  -25.7566  -28.6380   19.9280 C   0  0  0  0  0  0  0  0  0  0  0  0
  -23.3531  -29.3148   22.2544 C   0  0  0  0  0  0  0  0  0  0  0  0
  -32.6025  -21.6892   28.4958 C   0  0  0  0  0  0  0  0  0  0  0  0
  -30.6441  -25.8828   14.5099 C   0  0  0  0  0  0  0  0  0  0  0  0
  -26.0716  -25.0622   19.0749 C   0  0  0  0  0  0  0  0  0  0  0  0
  -26.4236  -26.7575   21.4722 C   0  0  0  0  0  0  0  0  0  0  0  0
  -29.9439  -27.0636   15.1774 C   0  0  0  0  0  0  0  0  0  0  0  0
  -34.4834  -22.9868   25.7653 C   0  0  0  0  0  0  0  0  0  0  0  0
  -30.3691  -27.1804   16.6377 C   0  0  0  0  0  0  0  0  0  0  0  0
  -33.8511  -22.3213   24.5408 C   0  0  0  0  0  0  0  0  0  0  0  0
  -34.5277  -22.0417   26.9648 C   0  0  0  0  0  0  0  0  0  0  0  0
  -32.6091  -20.7638   26.0960 C   0  0  0  0  0  0  0  0  0  0  0  0
  -29.9753  -25.9272   17.4288 C   0  0  1  0  0  0  0  0  0  0  0  0
  -26.5531  -26.5062   18.9737 C   0  0  1  0  0  0  0  0  0  0  0  0
  -32.4832  -21.6981   24.8815 C   0  0  2  0  0  0  0  0  0  0  0  0
  -21.6751  -31.0649   22.9014 C   0  0  0  0  0  0  0  0  0  0  0  0
  -28.0002  -30.3656   21.0645 C   0  0  0  0  0  0  0  0  0  0  0  0
  -26.2921  -31.5346   22.4731 C   0  0  0  0  0  0  0  0  0  0  0  0
  -26.1423  -31.6457   19.9855 C   0  0  0  0  0  0  0  0  0  0  0  0
  -21.0896  -27.4413   21.8999 C   0  0  0  0  0  0  0  0  0  0  0  0
  -28.4779  -21.3378   25.4447 C   0  0  0  0  0  0  0  0  0  0  0  0
  -27.6144  -21.4425   26.6946 C   0  0  0  0  0  0  0  0  0  0  0  0
  -27.6708  -21.4403   24.1562 C   0  0  0  0  0  0  0  0  0  1  0  0
  -25.5761  -29.4828   21.1660 C   0  0  1  0  0  0  0  0  0  0  0  0
  -21.9179  -29.7882   22.1115 C   0  0  2  0  0  0  0  0  0  0  0  0
  -26.5059  -30.7290   21.1739 C   0  0  0  0  0  0  0  0  0  0  0  0
  -32.1061  -19.6833   23.5104 N   0  0  0  0  0  0  0  0  0  0  0  0
  -31.8717  -20.9952   23.6840 N   0  0  0  0  0  0  0  0  0  0  0  0
  -26.1675  -27.3132   20.1331 N   0  0  0  0  0  0  0  0  0  0  0  0
  -33.1962  -21.4931   27.2310 N   0  0  0  0  0  0  0  0  0  0  0  0
  -30.7454  -22.8537   22.7414 N   0  0  0  0  0  0  0  0  0  0  0  0
  -29.7517  -19.4841   19.9033 N   0  0  0  0  0  0  0  0  0  0  0  0
  -31.3222  -21.1509   28.6215 N   0  0  0  0  0  0  0  0  0  0  0  0
  -28.3832  -21.3201   27.9021 N   0  0  0  0  0  0  0  0  0  0  0  0
  -28.5632  -25.9520   17.7448 N   0  0  0  0  0  0  0  0  0  0  0  0
  -24.1536  -29.7982   21.2411 N   0  0  0  0  0  0  0  0  0  0  0  0
  -20.9764  -28.7438   22.6053 N   0  3  0  0  0  0  0  0  0  0  0  0
  -28.2136  -19.0156   28.1066 O   0  0  0  0  0  0  0  0  0  0  0  0
  -29.4514  -21.7195   20.3174 O   0  0  0  0  0  0  0  0  0  0  0  0
  -28.6819  -27.2477   19.6760 O   0  0  0  0  0  0  0  0  0  0  0  0
  -25.5341  -29.1330   18.8203 O   0  0  0  0  0  0  0  0  0  0  0  0
  -23.7275  -28.5917   23.1750 O   0  0  0  0  0  0  0  0  0  0  0  0
  -33.1757  -22.3139   29.3920 O   0  0  0  0  0  0  0  0  0  0  0  0
  -31.4542  -14.1979   20.3426 O   0  0  0  0  0  0  0  0  0  0  0  0
  -26.9909  -22.6948   24.1387 O   0  0  0  0  0  0  0  0  0  1  0  0
  -26.6417  -12.0926   18.6658 F   0  0  0  0  0  0  0  0  0  0  0  0
  -30.4313  -11.9030   21.4958 F   0  0  0  0  0  0  0  0  0  0  0  0
  1  4  1  0  0  0  0
  1  7  2  0  0  0  0
  2  3  1  0  0  0  0
  2  8  2  0  0  0  0
  3  9  2  0  0  0  0
  4 11  2  0  0  0  0
  5 12  2  0  0  0  0
  5 19  1  0  0  0  0
  6 13  1  0  0  0  0
  6 19  2  0  0  0  0
  7 20  1  0  0  0  0
  8 22  1  0  0  0  0
  9 24  1  0  0  0  0
 10 14  2  0  0  0  0
 10 23  1  0  0  0  0
 11 26  1  0  0  0  0
 12 27  1  0  0  0  0
 13 27  2  0  0  0  0
 14 28  1  0  0  0  0
 15 16  2  0  0  0  0
 15 29  1  0  0  0  0
 16 30  1  0  0  0  0
 17 25  1  0  0  0  0
 17 28  2  0  0  0  0
 18 30  2  0  0  0  0
 18 31  1  0  0  0  0
 19 32  1  0  0  0  0
 20 26  2  0  0  0  0
 20 34  1  0  0  0  0
 21 32  1  0  0  0  0
 21 33  2  0  0  0  0
 21 35  1  0  0  0  0
 22 24  2  0  0  0  0
 22 40  1  0  0  0  0
 23 25  2  0  0  0  0
 23 41  1  0  0  0  0
 24 49  1  0  0  0  0
 25 42  1  0  0  0  0
 26 69  1  0  0  0  0
 27 80  1  0  0  0  0
 28 81  1  0  0  0  0
 29 31  2  0  0  0  0
 29 80  1  0  0  0  0
 30 82  1  0  0  0  0
 31 83  1  0  0  0  0
 32 63  2  0  0  0  0
 33 64  1  0  0  0  0
 33 67  1  0  0  0  0
 34 70  1  0  0  0  0
 34 74  2  0  0  0  0
 35 68  1  0  0  0  0
 35 75  2  0  0  0  0
 36 50  1  0  0  0  0
 36 71  1  0  0  0  0
 36 76  2  0  0  0  0
 37 60  1  0  0  0  0
 37 65  1  0  0  0  0
 37 77  2  0  0  0  0
 38 61  1  0  0  0  0
 38 72  1  0  0  0  0
 38 78  2  0  0  0  0
 39 66  1  0  0  0  0
 39 69  1  0  0  0  0
 39 79  2  0  0  0  0
 40 43  1  0  0  0  0
 41 50  1  0  0  0  0
 42 65  1  0  0  0  0
 43 45  1  0  0  0  0
 44 46  1  0  0  0  0
 44 47  1  0  0  0  0
 45 49  1  0  0  0  0
 46 51  1  0  0  0  0
 47 66  1  0  0  0  0
 48 51  1  0  0  0  0
 48 66  1  0  0  0  0
 49 71  1  0  0  0  0
 50 65  1  0  0  0  0
 51 64  1  0  0  0  0
 52 61  1  0  0  0  0
 53 62  1  0  0  0  0
 54 62  1  0  0  0  0
 55 62  1  0  0  0  0
 56 73  1  0  0  0  0
 57 58  1  0  0  0  0
 57 59  1  0  0  0  0
 58 70  1  0  0  0  0
 59 81  1  0  0  0  0
 60 62  1  0  0  0  0
 60 72  1  0  0  0  0
 61 73  1  0  0  0  0
 63 64  1  0  0  0  0
M  CHG  1  73   1
M  ISO  4  39 100  59 101  69 100  81 101
M  END
> <Batch ID>
0003

> <Smiles>
CNC(C)C(=O)NC(C(=O)N1Cc2cc([101O:1][101CH2:1]CCNC(=O)c3ccccc3[100NH:0][100C:0](=O)N3CCCC(n4nc(-c5ccc(Oc6ccc(F)cc6F)cc5)c(C(N)=O)c4N)C3)ccc2CC1C(=O)NC1CCCc2ccccc21)C(C)(C)C

> <Shape>
0.197

> <Color>
0.071

> <Negative vol penalty>
0.000

$$$$

  -OEChem-04052315213D

 85 92  0     1  0  0  0  0  0999 V2000
  -26.7862  -32.0824   21.3172 C   0  0  0  0  0  0  0  0  0  0  0  0
  -25.4021  -31.9502   21.3621 C   0  0  0  0  0  0  0  0  0  0  0  0
  -29.1079  -17.2810   20.2425 C   0  0  0  0  0  0  0  0  0  0  0  0
  -27.5418  -18.1474   21.8654 C   0  0  0  0  0  0  0  0  0  0  0  0
  -27.5728  -31.0201   20.8736 C   0  0  0  0  0  0  0  0  0  0  0  0
  -24.8036  -30.7558   20.9624 C   0  0  0  0  0  0  0  0  0  0  0  0
  -19.7652  -28.1936   23.3196 C   0  0  0  0  0  0  0  0  0  0  0  0
  -29.3850  -18.5799   19.8164 C   0  0  0  0  0  0  0  0  0  0  0  0
  -27.8189  -19.4464   21.4393 C   0  0  0  0  0  0  0  0  0  0  0  0
  -18.4324  -28.1963   22.9106 C   0  0  0  0  0  0  0  0  0  0  0  0
  -30.2502  -21.7493   21.8926 C   0  0  0  0  0  0  0  0  0  0  0  0
  -30.4555  -22.7211   22.8719 C   0  0  0  0  0  0  0  0  0  0  0  0
  -18.7730  -26.0784   21.8071 C   0  0  0  0  0  0  0  0  0  0  0  0
  -28.5878  -23.9867   22.0076 C   0  0  0  0  0  0  0  0  0  0  0  0
  -28.1863  -17.0647   21.2670 C   0  0  0  0  0  0  0  0  0  0  0  0
  -28.5547  -15.0036   22.7242 C   0  0  0  0  0  0  0  0  0  0  0  0
  -26.9842  -29.8088   20.4774 C   0  0  0  0  0  0  0  0  0  0  0  0
  -20.6163  -27.1368   22.9655 C   0  0  0  0  0  0  0  0  0  0  0  0
  -25.5829  -29.6768   20.5119 C   0  0  0  0  0  0  0  0  0  0  0  0
  -20.1156  -26.0634   22.2150 C   0  0  0  0  0  0  0  0  0  0  0  0
  -28.7405  -19.6626   20.4148 C   0  0  0  0  0  0  0  0  0  0  0  0
  -17.9368  -27.1401   22.1518 C   0  0  0  0  0  0  0  0  0  0  0  0
  -29.2138  -21.8963   20.9706 C   0  0  0  0  0  0  0  0  0  0  0  0
  -29.6243  -23.8398   22.9295 C   0  0  0  0  0  0  0  0  0  0  0  0
  -28.3826  -23.0150   21.0282 C   0  0  0  0  0  0  0  0  0  0  0  0
  -27.8992  -15.7231   21.7072 C   0  0  0  0  0  0  0  0  0  0  0  0
  -27.9129  -13.7896   22.7542 C   0  0  0  0  0  0  0  0  0  0  0  0
  -29.6461  -15.3973   23.5665 C   0  0  0  0  0  0  0  0  0  0  0  0
  -23.2843  -26.8813   21.2568 C   0  0  0  0  0  0  0  0  0  0  0  0
  -23.2098  -23.8179   22.3208 C   0  0  0  0  0  0  0  0  0  0  0  0
  -15.9605  -25.0396   20.7760 C   0  0  0  0  0  0  0  0  0  0  0  0
  -21.3611  -21.2104   23.5168 C   0  0  0  0  0  0  0  0  0  0  0  0
  -22.4186  -12.0410   21.1399 C   0  0  0  0  0  0  0  0  0  0  0  0
  -27.8725  -28.7049   19.9605 C   0  0  0  0  0  0  0  0  0  0  0  0
  -22.0445  -27.1358   23.4372 C   0  0  0  0  0  0  0  0  0  0  0  0
  -20.9827  -24.8951   21.8259 C   0  0  0  0  0  0  0  0  0  0  0  0
  -27.1847  -27.3431   19.9094 C   0  0  0  0  0  0  0  0  0  0  0  0
  -25.5138  -10.7519   19.9422 C   0  0  0  0  0  0  0  0  0  0  0  0
  -25.8007  -27.4673   19.2803 C   0  0  0  0  0  0  0  0  0  0  0  0
  -26.5353  -11.8148   20.3505 C   0  0  0  0  0  0  0  0  0  0  0  0
  -24.1822  -11.3769   19.5321 C   0  0  0  0  0  0  0  0  0  0  0  0
  -24.6161  -13.3549   20.9367 C   0  0  0  0  0  0  0  0  0  0  0  0
  -24.8982  -28.3884   20.1101 C   0  0  1  0  0  0  0  0  0  0  0  0
  -22.9550  -26.2582   22.5838 C   0  0  1  0  0  0  0  0  0  0  0  0
  -25.9570  -12.7698   21.4121 C   0  0  2  0  0  0  0  0  0  0  0  0
  -20.8843  -18.9434   24.4814 C   0  0  0  0  0  0  0  0  0  0  0  0
  -23.4279  -22.9332   19.4088 C   0  0  0  0  0  0  0  0  0  0  0  0
  -22.6874  -20.6497   20.1197 C   0  0  0  0  0  0  0  0  0  0  0  0
  -24.8139  -21.6028   21.0098 C   0  0  0  0  0  0  0  0  0  0  0  0
  -21.6517  -22.2014   26.2904 C   0  0  0  0  0  0  0  0  0  0  0  0
  -16.3233  -26.4886   20.5307 C   0  0  0  0  0  0  0  0  0  1  0  0
  -17.9346  -18.2098   20.7866 C   0  0  0  0  0  0  0  0  0  0  0  0
  -19.1102  -17.4385   21.3927 C   0  0  0  0  0  0  0  0  0  0  0  0
  -18.1568  -19.7244   20.7417 C   0  0  0  0  0  0  0  0  0  0  0  0
  -18.8444  -15.9306   21.3825 C   0  0  0  0  0  0  0  0  0  0  0  0
  -16.9527  -20.5017   20.2037 C   0  0  0  0  0  0  0  0  0  0  0  0
  -19.9577  -15.1118   22.0434 C   0  0  0  0  0  0  0  0  0  0  0  0
  -17.2218  -22.0103   20.2090 C   0  0  0  0  0  0  0  0  0  0  0  0
  -19.6545  -13.6109   22.1025 C   0  0  0  0  0  0  0  0  0  0  0  0
  -16.0449  -22.8152   19.6665 C   0  0  0  0  0  0  0  0  0  0  0  0
  -20.7538  -12.8210   22.8070 C   0  0  0  0  0  0  0  0  0  0  0  0
  -22.6055  -22.5274   21.8223 C   0  0  1  0  0  0  0  0  0  0  0  0
  -21.5775  -20.2798   24.6965 C   0  0  2  0  0  0  0  0  0  0  0  0
  -23.3676  -21.9511   20.5957 C   0  0  0  0  0  0  0  0  0  0  0  0
  -26.9165  -15.0245   21.1326 N   0  0  0  0  0  0  0  0  0  0  0  0
  -26.9498  -13.8532   21.7907 N   0  0  0  0  0  0  0  0  0  0  0  0
  -22.3738  -24.9433   22.3056 N   0  0  0  0  0  0  0  0  0  0  0  0
  -23.6875  -12.2700   20.5826 N   0  0  0  0  0  0  0  0  0  0  0  0
  -28.0843  -12.6846   23.5105 N   0  0  0  0  0  0  0  0  0  0  0  0
  -30.1873  -16.6798   23.4030 N   0  0  0  0  0  0  0  0  0  0  0  0
  -24.4030  -27.6923   21.2782 N   0  0  0  0  0  0  0  0  0  0  0  0
  -16.2863  -24.2319   19.6925 N   0  0  0  0  0  0  0  0  0  0  0  0
  -22.5560  -21.6293   22.9709 N   0  0  0  0  0  0  0  0  0  0  0  0
  -22.0290  -12.9302   22.1341 N   0  0  0  0  0  0  0  0  0  0  0  0
  -21.0407  -20.8921   25.9446 N   0  3  0  0  0  0  0  0  0  0  0  0
  -30.1379  -14.6286   24.4272 O   0  0  0  0  0  0  0  0  0  0  0  0
  -22.5769  -26.6428   20.2851 O   0  0  0  0  0  0  0  0  0  0  0  0
  -24.3783  -23.8254   22.7160 O   0  0  0  0  0  0  0  0  0  0  0  0
  -15.4395  -24.6524   21.8184 O   0  0  0  0  0  0  0  0  0  0  0  0
  -20.2439  -21.5306   23.1171 O   0  0  0  0  0  0  0  0  0  0  0  0
  -21.6894  -11.1098   20.7820 O   0  0  0  0  0  0  0  0  0  0  0  0
  -29.0108  -20.9303   19.9994 O   0  0  0  0  0  0  0  0  0  0  0  0
  -16.6229  -27.1405   21.7466 O   0  0  0  0  0  0  0  0  0  1  0  0
  -29.8206  -24.7721   23.8710 F   0  0  0  0  0  0  0  0  0  0  0  0
  -27.3845  -23.1611   20.1459 F   0  0  0  0  0  0  0  0  0  0  0  0
  1  2  1  0  0  0  0
  1  5  2  0  0  0  0
  2  6  2  0  0  0  0
  3  8  2  0  0  0  0
  3 15  1  0  0  0  0
  4  9  1  0  0  0  0
  4 15  2  0  0  0  0
  5 17  1  0  0  0  0
  6 19  1  0  0  0  0
  7 10  2  0  0  0  0
  7 18  1  0  0  0  0
  8 21  1  0  0  0  0
  9 21  2  0  0  0  0
 10 22  1  0  0  0  0
 11 12  2  0  0  0  0
 11 23  1  0  0  0  0
 12 24  1  0  0  0  0
 13 20  1  0  0  0  0
 13 22  2  0  0  0  0
 14 24  2  0  0  0  0
 14 25  1  0  0  0  0
 15 26  1  0  0  0  0
 16 26  1  0  0  0  0
 16 27  2  0  0  0  0
 16 28  1  0  0  0  0
 17 19  2  0  0  0  0
 17 34  1  0  0  0  0
 18 20  2  0  0  0  0
 18 35  1  0  0  0  0
 19 43  1  0  0  0  0
 20 36  1  0  0  0  0
 21 82  1  0  0  0  0
 22 83  1  0  0  0  0
 23 25  2  0  0  0  0
 23 82  1  0  0  0  0
 24 84  1  0  0  0  0
 25 85  1  0  0  0  0
 26 65  2  0  0  0  0
 27 66  1  0  0  0  0
 27 69  1  0  0  0  0
 28 70  1  0  0  0  0
 28 76  2  0  0  0  0
 29 44  1  0  0  0  0
 29 71  1  0  0  0  0
 29 77  2  0  0  0  0
 30 62  1  0  0  0  0
 30 67  1  0  0  0  0
 30 78  2  0  0  0  0
 31 51  1  0  0  0  0
 31 72  1  0  0  0  0
 31 79  2  0  0  0  0
 32 63  1  0  0  0  0
 32 73  1  0  0  0  0
 32 80  2  0  0  0  0
 33 68  1  0  0  0  0
 33 74  1  0  0  0  0
 33 81  2  0  0  0  0
 34 37  1  0  0  0  0
 35 44  1  0  0  0  0
 36 67  1  0  0  0  0
 37 39  1  0  0  0  0
 38 40  1  0  0  0  0
 38 41  1  0  0  0  0
 39 43  1  0  0  0  0
 40 45  1  0  0  0  0
 41 68  1  0  0  0  0
 42 45  1  0  0  0  0
 42 68  1  0  0  0  0
 43 71  1  0  0  0  0
 44 67  1  0  0  0  0
 45 66  1  0  0  0  0
 46 63  1  0  0  0  0
 47 64  1  0  0  0  0
 48 64  1  0  0  0  0
 49 64  1  0  0  0  0
 50 75  1  0  0  0  0
 51 83  1  0  0  0  0
 52 53  1  0  0  0  0
 52 54  1  0  0  0  0
 53 55  1  0  0  0  0
 54 56  1  0  0  0  0
 55 57  1  0  0  0  0
 56 58  1  0  0  0  0
 57 59  1  0  0  0  0
 58 60  1  0  0  0  0
 59 61  1  0  0  0  0
 60 72  1  0  0  0  0
 61 74  1  0  0  0  0
 62 64  1  0  0  0  0
 62 73  1  0  0  0  0
 63 75  1  0  0  0  0
 65 66  1  0  0  0  0
M  CHG  1  75   1
M  ISO  4  33 100  51 101  74 100  83 101
M  END
> <Batch ID>
0003

> <Smiles>
CNC(C)C(=O)NC(C(=O)N1Cc2cc([101O:1][101CH2:1]C(=O)NCCCCCCCCCC[100NH:0][100C:0](=O)N3CCCC(n4nc(-c5ccc(Oc6ccc(F)cc6F)cc5)c(C(N)=O)c4N)C3)ccc2CC1C(=O)NC1CCCc2ccccc21)C(C)(C)C

> <Shape>
0.215

> <Color>
0.079

> <Negative vol penalty>
0.000

$$$$

  -OEChem-04052315213D

 86 94  0     1  0  0  0  0  0999 V2000
  -23.7936  -20.6864   23.0435 C   0  0  0  0  0  0  0  0  0  0  0  0
  -25.1511  -20.5387   23.3098 C   0  0  0  0  0  0  0  0  0  0  0  0
  -29.6863  -19.2714   21.8735 C   0  0  0  0  0  0  0  0  0  0  0  0
  -22.9794   -9.7963   20.0590 C   0  0  0  0  0  0  0  0  0  0  0  0
  -23.6482  -10.0070   22.3710 C   0  0  0  0  0  0  0  0  0  0  0  0
  -23.3777  -21.4357   21.9437 C   0  0  0  0  0  0  0  0  0  0  0  0
  -26.0935  -21.1394   22.4759 C   0  0  0  0  0  0  0  0  0  0  0  0
  -31.4922  -23.5112   24.1294 C   0  0  0  0  0  0  0  0  0  0  0  0
  -29.4901  -17.8953   21.9889 C   0  0  0  0  0  0  0  0  0  0  0  0
  -30.6320  -19.7683   20.9766 C   0  0  0  0  0  0  0  0  0  0  0  0
  -22.2020   -8.6850   20.3852 C   0  0  0  0  0  0  0  0  0  0  0  0
  -22.8708   -8.8958   22.6972 C   0  0  0  0  0  0  0  0  0  0  0  0
  -32.7913  -23.0069   24.0854 C   0  0  0  0  0  0  0  0  0  0  0  0
  -23.1132   -5.5314   22.4665 C   0  0  0  0  0  0  0  0  0  0  0  0
  -23.6780   -4.5681   23.3022 C   0  0  0  0  0  0  0  0  0  0  0  0
  -33.1489  -24.1284   21.9799 C   0  0  0  0  0  0  0  0  0  0  0  0
  -31.1854  -17.5128   20.3106 C   0  0  0  0  0  0  0  0  0  0  0  0
  -21.9147   -4.9318   24.9133 C   0  0  0  0  0  0  0  0  0  0  0  0
  -23.7025  -10.4573   21.0519 C   0  0  0  0  0  0  0  0  0  0  0  0
  -24.1021  -12.9534   20.7097 C   0  0  0  0  0  0  0  0  0  0  0  0
  -24.3153  -22.0540   21.1015 C   0  0  0  0  0  0  0  0  0  0  0  0
  -31.0073  -24.3203   23.0919 C   0  0  0  0  0  0  0  0  0  0  0  0
  -25.6898  -21.8966   21.3631 C   0  0  0  0  0  0  0  0  0  0  0  0
  -31.8442  -24.6438   22.0143 C   0  0  0  0  0  0  0  0  0  0  0  0
  -30.2397  -17.0160   21.2075 C   0  0  0  0  0  0  0  0  0  0  0  0
  -22.1477   -8.2348   21.7042 C   0  0  0  0  0  0  0  0  0  0  0  0
  -33.6189  -23.3131   23.0092 C   0  0  0  0  0  0  0  0  0  0  0  0
  -31.3816  -18.8890   20.1951 C   0  0  0  0  0  0  0  0  0  0  0  0
  -21.9491   -6.1950   22.8541 C   0  0  0  0  0  0  0  0  0  0  0  0
  -23.0788   -4.2683   24.5256 C   0  0  0  0  0  0  0  0  0  0  0  0
  -21.3499   -5.8952   24.0775 C   0  0  0  0  0  0  0  0  0  0  0  0
  -24.5062  -11.6049   20.7155 C   0  0  0  0  0  0  0  0  0  0  0  0
  -25.2234  -13.6461   20.3231 C   0  0  0  0  0  0  0  0  0  0  0  0
  -22.8273  -13.5285   21.0256 C   0  0  0  0  0  0  0  0  0  0  0  0
  -28.6436  -24.0831   20.9799 C   0  0  0  0  0  0  0  0  0  0  0  0
  -29.5295  -27.1128   20.2324 C   0  0  0  0  0  0  0  0  0  0  0  0
  -35.3973  -19.4543   21.0586 C   0  0  0  0  0  0  0  0  0  0  0  0
  -31.9700  -29.4983   20.2209 C   0  0  0  0  0  0  0  0  0  0  0  0
  -30.6993  -14.6087   20.6243 C   0  0  0  0  0  0  0  0  0  0  0  0
  -23.8189  -22.8148   19.8976 C   0  0  0  0  0  0  0  0  0  0  0  0
  -29.6125  -24.8783   23.1673 C   0  0  0  0  0  0  0  0  0  0  0  0
  -31.3783  -25.5249   20.8851 C   0  0  0  0  0  0  0  0  0  0  0  0
  -24.8722  -23.7302   19.2787 C   0  0  0  0  0  0  0  0  0  0  0  0
  -29.6284  -12.0013   18.4490 C   0  0  0  0  0  0  0  0  0  0  0  0
  -26.1995  -22.9930   19.1306 C   0  0  0  0  0  0  0  0  0  0  0  0
  -28.1670  -11.7767   18.8442 C   0  0  0  0  0  0  0  0  0  0  0  0
  -30.5000  -12.3269   19.6606 C   0  0  0  0  0  0  0  0  0  0  0  0
  -28.5558  -13.2117   20.8879 C   0  0  0  0  0  0  0  0  0  0  0  0
  -26.7418  -22.5535   20.4960 C   0  0  1  0  0  0  0  0  0  0  0  0
  -29.0516  -25.2713   21.8041 C   0  0  1  0  0  0  0  0  0  0  0  0
  -27.6267  -12.9447   19.6924 C   0  0  2  0  0  0  0  0  0  0  0  0
  -32.4083  -31.8646   19.5096 C   0  0  0  0  0  0  0  0  0  0  0  0
  -29.7660  -26.1946   17.3323 C   0  0  0  0  0  0  0  0  0  0  0  0
  -31.0861  -28.2681   16.8565 C   0  0  0  0  0  0  0  0  0  0  0  0
  -28.7218  -28.4472   17.6315 C   0  0  0  0  0  0  0  0  0  0  0  0
  -32.5176  -30.3549   23.0003 C   0  0  0  0  0  0  0  0  0  0  0  0
  -35.2069  -19.4742   19.5512 C   0  0  0  0  0  0  0  0  0  0  0  0
  -34.3379  -20.6270   19.0582 C   0  0  0  0  0  0  0  0  0  0  0  0
  -36.2772  -20.8608   22.9093 C   0  0  0  0  0  0  0  0  0  0  0  0
  -32.9370  -20.6060   19.6582 C   0  0  0  0  0  0  0  0  0  0  0  0
  -35.1191  -21.5633   23.5951 C   0  0  0  0  0  0  0  0  0  1  0  0
  -30.5116  -27.7322   19.2677 C   0  0  1  0  0  0  0  0  0  0  0  0
  -31.9551  -30.9566   20.6422 C   0  0  2  0  0  0  0  0  0  0  0  0
  -30.0298  -27.6423   17.7922 C   0  0  0  0  0  0  0  0  0  0  0  0
  -25.7842  -11.4480   20.3606 N   0  0  0  0  0  0  0  0  0  0  0  0
  -26.1930  -12.7070   20.1281 N   0  0  0  0  0  0  0  0  0  0  0  0
  -30.0044  -26.0409   21.0015 N   0  0  0  0  0  0  0  0  0  0  0  0
  -29.9288  -13.4456   20.4135 N   0  0  0  0  0  0  0  0  0  0  0  0
  -25.4646  -14.9609   20.1342 N   0  0  0  0  0  0  0  0  0  0  0  0
  -21.7839  -12.6730   21.4047 N   0  0  0  0  0  0  0  0  0  0  0  0
  -30.0398  -15.6181   21.3248 N   0  0  0  0  0  0  0  0  0  0  0  0
  -27.3396  -23.6756   21.1873 N   0  0  0  0  0  0  0  0  0  0  0  0
  -36.0062  -20.6170   21.5174 N   0  0  0  0  0  0  0  0  0  0  0  0
  -30.7433  -29.0934   19.7388 N   0  0  0  0  0  0  0  0  0  0  0  0
  -32.8616  -31.1688   21.8060 N   0  3  0  0  0  0  0  0  0  0  0  0
  -22.6150  -14.7629   20.9574 O   0  0  0  0  0  0  0  0  0  0  0  0
  -29.4515  -23.5747   20.2115 O   0  0  0  0  0  0  0  0  0  0  0  0
  -28.3854  -27.5679   20.3063 O   0  0  0  0  0  0  0  0  0  0  0  0
  -35.0302  -18.5250   21.7724 O   0  0  0  0  0  0  0  0  0  0  0  0
  -32.9709  -28.7902   20.3070 O   0  0  0  0  0  0  0  0  0  0  0  0
  -31.8493  -14.7128   20.1898 O   0  0  0  0  0  0  0  0  0  0  0  0
  -21.3890   -7.1506   22.0229 O   0  0  0  0  0  0  0  0  0  0  0  0
  -34.8870  -22.8217   22.9634 O   0  0  0  0  0  0  0  0  0  1  0  0
  -32.3109  -19.3771   19.3140 O   0  0  0  0  0  0  0  0  0  0  0  0
  -23.6205   -3.3421   25.3274 F   0  0  0  0  0  0  0  0  0  0  0  0
  -20.2308   -6.5286   24.4548 F   0  0  0  0  0  0  0  0  0  0  0  0
  1  2  1  0  0  0  0
  1  6  2  0  0  0  0
  2  7  2  0  0  0  0
  3  9  1  0  0  0  0
  3 10  2  0  0  0  0
  4 11  2  0  0  0  0
  4 19  1  0  0  0  0
  5 12  1  0  0  0  0
  5 19  2  0  0  0  0
  6 21  1  0  0  0  0
  7 23  1  0  0  0  0
  8 13  2  0  0  0  0
  8 22  1  0  0  0  0
  9 25  2  0  0  0  0
 10 28  1  0  0  0  0
 11 26  1  0  0  0  0
 12 26  2  0  0  0  0
 13 27  1  0  0  0  0
 14 15  2  0  0  0  0
 14 29  1  0  0  0  0
 15 30  1  0  0  0  0
 16 24  1  0  0  0  0
 16 27  2  0  0  0  0
 17 25  1  0  0  0  0
 17 28  2  0  0  0  0
 18 30  2  0  0  0  0
 18 31  1  0  0  0  0
 19 32  1  0  0  0  0
 20 32  1  0  0  0  0
 20 33  2  0  0  0  0
 20 34  1  0  0  0  0
 21 23  2  0  0  0  0
 21 40  1  0  0  0  0
 22 24  2  0  0  0  0
 22 41  1  0  0  0  0
 23 49  1  0  0  0  0
 24 42  1  0  0  0  0
 25 71  1  0  0  0  0
 26 82  1  0  0  0  0
 27 83  1  0  0  0  0
 28 84  1  0  0  0  0
 29 31  2  0  0  0  0
 29 82  1  0  0  0  0
 30 85  1  0  0  0  0
 31 86  1  0  0  0  0
 32 65  2  0  0  0  0
 33 66  1  0  0  0  0
 33 69  1  0  0  0  0
 34 70  1  0  0  0  0
 34 76  2  0  0  0  0
 35 50  1  0  0  0  0
 35 72  1  0  0  0  0
 35 77  2  0  0  0  0
 36 62  1  0  0  0  0
 36 67  1  0  0  0  0
 36 78  2  0  0  0  0
 37 57  1  0  0  0  0
 37 73  1  0  0  0  0
 37 79  2  0  0  0  0
 38 63  1  0  0  0  0
 38 74  1  0  0  0  0
 38 80  2  0  0  0  0
 39 68  1  0  0  0  0
 39 71  1  0  0  0  0
 39 81  2  0  0  0  0
 40 43  1  0  0  0  0
 41 50  1  0  0  0  0
 42 67  1  0  0  0  0
 43 45  1  0  0  0  0
 44 46  1  0  0  0  0
 44 47  1  0  0  0  0
 45 49  1  0  0  0  0
 46 51  1  0  0  0  0
 47 68  1  0  0  0  0
 48 51  1  0  0  0  0
 48 68  1  0  0  0  0
 49 72  1  0  0  0  0
 50 67  1  0  0  0  0
 51 66  1  0  0  0  0
 52 63  1  0  0  0  0
 53 64  1  0  0  0  0
 54 64  1  0  0  0  0
 55 64  1  0  0  0  0
 56 75  1  0  0  0  0
 57 58  1  0  0  0  0
 58 60  1  0  0  0  0
 59 61  1  0  0  0  0
 59 73  1  0  0  0  0
 60 84  1  0  0  0  0
 61 83  1  0  0  0  0
 62 64  1  0  0  0  0
 62 74  1  0  0  0  0
 63 75  1  0  0  0  0
 65 66  1  0  0  0  0
M  CHG  1  75   1
M  ISO  4  39 100  61 101  71 100  83 101
M  END
> <Batch ID>
0003

> <Smiles>
CNC(C)C(=O)NC(C(=O)N1Cc2cc([101O:1][101CH2:1]CNC(=O)CCCOc3cccc([100NH:0][100C:0](=O)N4CCCC(n5nc(-c6ccc(Oc7ccc(F)cc7F)cc6)c(C(N)=O)c5N)C4)c3)ccc2CC1C(=O)NC1CCCc2ccccc21)C(C)(C)C

> <Shape>
0.234

> <Color>
0.201

> <Negative vol penalty>
0.000

$$$$

  -OEChem-04052315213D

 94102  0     1  0  0  0  0  0999 V2000
  -31.3590  -26.6279   17.0755 C   0  0  0  0  0  0  0  0  0  0  0  0
  -29.9883  -26.4039   17.1541 C   0  0  0  0  0  0  0  0  0  0  0  0
  -25.0813  -25.6475   21.0366 C   0  0  0  0  0  0  0  0  0  0  0  0
  -25.3934  -25.4809   22.3858 C   0  0  0  0  0  0  0  0  0  0  0  0
  -26.1046  -13.5409   21.9038 C   0  0  0  0  0  0  0  0  0  0  0  0
  -24.7128  -14.9442   20.5142 C   0  0  0  0  0  0  0  0  0  0  0  0
  -32.0410  -27.1608   18.1686 C   0  0  0  0  0  0  0  0  0  0  0  0
  -29.2988  -26.7117   18.3265 C   0  0  0  0  0  0  0  0  0  0  0  0
  -23.5679  -28.8227   18.7806 C   0  0  0  0  0  0  0  0  0  0  0  0
  -25.2924  -24.6021   20.1375 C   0  0  0  0  0  0  0  0  0  0  0  0
  -25.9168  -24.2689   22.8360 C   0  0  0  0  0  0  0  0  0  0  0  0
  -25.0733  -12.6060   21.9926 C   0  0  0  0  0  0  0  0  0  0  0  0
  -23.6815  -14.0093   20.6030 C   0  0  0  0  0  0  0  0  0  0  0  0
  -22.3543  -28.1914   19.0497 C   0  0  0  0  0  0  0  0  0  0  0  0
  -22.9342   -9.6816   22.2881 C   0  0  0  0  0  0  0  0  0  0  0  0
  -23.2623   -8.3363   22.1210 C   0  0  0  0  0  0  0  0  0  0  0  0
  -22.5658  -28.7903   21.3769 C   0  0  0  0  0  0  0  0  0  0  0  0
  -24.0839   -8.8125   19.8995 C   0  0  0  0  0  0  0  0  0  0  0  0
  -25.9243  -14.7101   21.1646 C   0  0  0  0  0  0  0  0  0  0  0  0
  -28.0088  -15.7285   20.1038 C   0  0  0  0  0  0  0  0  0  0  0  0
  -31.3578  -27.4843   19.3515 C   0  0  0  0  0  0  0  0  0  0  0  0
  -24.2961  -29.4342   19.8113 C   0  0  0  0  0  0  0  0  0  0  0  0
  -29.9724  -27.2482   19.4369 C   0  0  0  0  0  0  0  0  0  0  0  0
  -23.7871  -29.4309   21.1178 C   0  0  0  0  0  0  0  0  0  0  0  0
  -25.8158  -23.3901   20.5878 C   0  0  0  0  0  0  0  0  0  0  0  0
  -26.1280  -23.2234   21.9370 C   0  0  0  0  0  0  0  0  0  0  0  0
  -23.8617  -12.8401   21.3422 C   0  0  0  0  0  0  0  0  0  0  0  0
  -21.8545  -28.1726   20.3485 C   0  0  0  0  0  0  0  0  0  0  0  0
  -23.1808  -10.5925   21.2608 C   0  0  0  0  0  0  0  0  0  0  0  0
  -23.8372   -7.9017   20.9268 C   0  0  0  0  0  0  0  0  0  0  0  0
  -23.7558  -10.1579   20.0666 C   0  0  0  0  0  0  0  0  0  0  0  0
  -26.9891  -15.6765   21.0729 C   0  0  0  0  0  0  0  0  0  0  0  0
  -28.7606  -16.8231   20.4547 C   0  0  0  0  0  0  0  0  0  0  0  0
  -28.2545  -14.8646   18.9861 C   0  0  0  0  0  0  0  0  0  0  0  0
  -27.1683  -28.9887   21.0982 C   0  0  0  0  0  0  0  0  0  0  0  0
  -26.4174  -31.6798   22.7464 C   0  0  0  0  0  0  0  0  0  0  0  0
  -19.4421  -25.4730   20.5500 C   0  0  0  0  0  0  0  0  0  0  0  0
  -23.9925  -33.7459   23.9703 C   0  0  0  0  0  0  0  0  0  0  0  0
  -27.5267  -21.8190   23.4918 C   0  0  0  0  0  0  0  0  0  0  0  0
  -23.9665  -20.8929   19.7567 C   0  0  0  0  0  0  0  0  0  0  0  0
  -32.1459  -28.0141   20.5232 C   0  0  0  0  0  0  0  0  0  0  0  0
  -25.5905  -30.1341   19.4998 C   0  0  0  0  0  0  0  0  0  0  0  0
  -24.5203  -30.0904   22.2562 C   0  0  0  0  0  0  0  0  0  0  0  0
  -31.2774  -28.6625   21.5982 C   0  0  0  0  0  0  0  0  0  0  0  0
  -30.0401  -19.4200   24.2696 C   0  0  0  0  0  0  0  0  0  0  0  0
  -30.0751  -27.7798   21.9173 C   0  0  0  0  0  0  0  0  0  0  0  0
  -29.6391  -18.1946   23.4452 C   0  0  0  0  0  0  0  0  0  0  0  0
  -28.8203  -20.1605   24.8150 C   0  0  0  0  0  0  0  0  0  0  0  0
  -27.4135  -19.2999   22.9848 C   0  0  0  0  0  0  0  0  0  0  0  0
  -29.1852  -27.5922   20.6827 C   0  0  1  0  0  0  0  0  0  0  0  0
  -26.4993  -30.2789   20.7166 C   0  0  1  0  0  0  0  0  0  0  0  0
  -28.6068  -18.5585   22.3602 C   0  0  2  0  0  0  0  0  0  0  0  0
  -23.6853  -35.8461   25.3090 C   0  0  0  0  0  0  0  0  0  0  0  0
  -28.3780  -23.0525   18.9370 C   0  0  0  0  0  0  0  0  0  0  0  0
  -27.1399  -21.4989   17.4277 C   0  0  0  0  0  0  0  0  0  0  0  0
  -27.0464  -30.1388   25.3037 C   0  0  0  0  0  0  0  0  0  0  0  0
  -25.8384  -31.9157   26.5888 C   0  0  0  0  0  0  0  0  0  0  0  0
  -27.8780  -32.4971   25.2756 C   0  0  0  0  0  0  0  0  0  0  0  0
  -22.6487  -35.1215   21.7206 C   0  0  0  0  0  0  0  0  0  0  0  0
  -20.3163  -26.4471   19.7895 C   0  0  0  0  0  0  0  0  0  1  0  0
  -20.0055  -21.5374   19.8578 C   0  0  0  0  0  0  0  0  0  0  0  0
  -19.0436  -22.1842   20.8595 C   0  0  0  0  0  0  0  0  0  0  0  0
  -20.7574  -20.3630   20.4923 C   0  0  0  0  0  0  0  0  0  0  0  0
  -18.2337  -23.3209   20.2444 C   0  0  0  0  0  0  0  0  0  0  0  0
  -21.7684  -19.7316   19.5408 C   0  0  0  0  0  0  0  0  0  0  0  0
  -26.0349  -22.2700   19.5865 C   0  0  2  0  0  0  0  0  0  0  0  0
  -25.7262  -31.9735   24.0560 C   0  0  1  0  0  0  0  0  0  0  0  0
  -23.8329  -35.2546   23.9158 C   0  0  2  0  0  0  0  0  0  0  0  0
  -26.9872  -22.6554   18.4258 C   0  0  0  0  0  0  0  0  0  0  0  0
  -26.6091  -31.6171   25.2851 C   0  0  0  0  0  0  0  0  0  0  0  0
  -27.0818  -16.6598   21.9721 N   0  0  0  0  0  0  0  0  0  0  0  0
  -28.1687  -17.3399   21.5695 N   0  0  0  0  0  0  0  0  0  0  0  0
  -25.7847  -30.7563   21.9022 N   0  0  0  0  0  0  0  0  0  0  0  0
  -27.8885  -20.4762   23.7302 N   0  0  0  0  0  0  0  0  0  0  0  0
  -29.8636  -17.3843   19.9155 N   0  0  0  0  0  0  0  0  0  0  0  0
  -27.3845  -13.7871   18.7706 N   0  0  0  0  0  0  0  0  0  0  0  0
  -26.6606  -22.0001   22.4140 N   0  0  0  0  0  0  0  0  0  0  0  0
  -28.3744  -28.7702   20.4603 N   0  0  0  0  0  0  0  0  0  0  0  0
  -19.0700  -24.3954   19.7617 N   0  0  0  0  0  0  0  0  0  0  0  0
  -25.3198  -33.3735   23.9980 N   0  0  0  0  0  0  0  0  0  0  0  0
  -22.7587  -20.6706   19.0916 N   0  0  0  0  0  0  0  0  0  0  0  0
  -24.7384  -21.8528   19.1070 N   0  0  0  0  0  0  0  0  0  0  0  0
  -22.6267  -35.6194   23.1201 N   0  3  0  0  0  0  0  0  0  0  0  0
  -29.2265  -15.0333   18.2114 O   0  0  0  0  0  0  0  0  0  0  0  0
  -26.6306  -28.2471   21.9122 O   0  0  0  0  0  0  0  0  0  0  0  0
  -27.4759  -32.2541   22.4792 O   0  0  0  0  0  0  0  0  0  0  0  0
  -19.1185  -25.6460   21.7219 O   0  0  0  0  0  0  0  0  0  0  0  0
  -23.0355  -32.9751   23.9902 O   0  0  0  0  0  0  0  0  0  0  0  0
  -27.9752  -22.7430   24.1751 O   0  0  0  0  0  0  0  0  0  0  0  0
  -24.3053  -20.3124   20.7872 O   0  0  0  0  0  0  0  0  0  0  0  0
  -22.8552  -11.9280   21.4285 O   0  0  0  0  0  0  0  0  0  0  0  0
  -20.6705  -27.5566   20.6141 O   0  0  0  0  0  0  0  0  0  1  0  0
  -24.1537   -6.6100   20.7671 F   0  0  0  0  0  0  0  0  0  0  0  0
  -23.9962  -11.0285   19.0765 F   0  0  0  0  0  0  0  0  0  0  0  0
  1  2  1  0  0  0  0
  1  7  2  0  0  0  0
  2  8  2  0  0  0  0
  3  4  1  0  0  0  0
  3 10  2  0  0  0  0
  4 11  2  0  0  0  0
  5 12  2  0  0  0  0
  5 19  1  0  0  0  0
  6 13  1  0  0  0  0
  6 19  2  0  0  0  0
  7 21  1  0  0  0  0
  8 23  1  0  0  0  0
  9 14  2  0  0  0  0
  9 22  1  0  0  0  0
 10 25  1  0  0  0  0
 11 26  1  0  0  0  0
 12 27  1  0  0  0  0
 13 27  2  0  0  0  0
 14 28  1  0  0  0  0
 15 16  2  0  0  0  0
 15 29  1  0  0  0  0
 16 30  1  0  0  0  0
 17 24  1  0  0  0  0
 17 28  2  0  0  0  0
 18 30  2  0  0  0  0
 18 31  1  0  0  0  0
 19 32  1  0  0  0  0
 20 32  1  0  0  0  0
 20 33  2  0  0  0  0
 20 34  1  0  0  0  0
 21 23  2  0  0  0  0
 21 41  1  0  0  0  0
 22 24  2  0  0  0  0
 22 42  1  0  0  0  0
 23 50  1  0  0  0  0
 24 43  1  0  0  0  0
 25 26  2  0  0  0  0
 25 66  1  0  0  0  0
 26 77  1  0  0  0  0
 27 91  1  0  0  0  0
 28 92  1  0  0  0  0
 29 31  2  0  0  0  0
 29 91  1  0  0  0  0
 30 93  1  0  0  0  0
 31 94  1  0  0  0  0
 32 71  2  0  0  0  0
 33 72  1  0  0  0  0
 33 75  1  0  0  0  0
 34 76  1  0  0  0  0
 34 84  2  0  0  0  0
 35 51  1  0  0  0  0
 35 78  1  0  0  0  0
 35 85  2  0  0  0  0
 36 67  1  0  0  0  0
 36 73  1  0  0  0  0
 36 86  2  0  0  0  0
 37 60  1  0  0  0  0
 37 79  1  0  0  0  0
 37 87  2  0  0  0  0
 38 68  1  0  0  0  0
 38 80  1  0  0  0  0
 38 88  2  0  0  0  0
 39 74  1  0  0  0  0
 39 77  1  0  0  0  0
 39 89  2  0  0  0  0
 40 81  1  0  0  0  0
 40 82  1  0  0  0  0
 40 90  2  0  0  0  0
 41 44  1  0  0  0  0
 42 51  1  0  0  0  0
 43 73  1  0  0  0  0
 44 46  1  0  0  0  0
 45 47  1  0  0  0  0
 45 48  1  0  0  0  0
 46 50  1  0  0  0  0
 47 52  1  0  0  0  0
 48 74  1  0  0  0  0
 49 52  1  0  0  0  0
 49 74  1  0  0  0  0
 50 78  1  0  0  0  0
 51 73  1  0  0  0  0
 52 72  1  0  0  0  0
 53 68  1  0  0  0  0
 54 69  1  0  0  0  0
 55 69  1  0  0  0  0
 56 70  1  0  0  0  0
 57 70  1  0  0  0  0
 58 70  1  0  0  0  0
 59 83  1  0  0  0  0
 60 92  1  0  0  0  0
 61 62  1  0  0  0  0
 61 63  1  0  0  0  0
 62 64  1  0  0  0  0
 63 65  1  0  0  0  0
 64 79  1  0  0  0  0
 65 81  1  0  0  0  0
 66 69  1  0  0  0  0
 66 82  1  0  0  0  0
 67 70  1  0  0  0  0
 67 80  1  0  0  0  0
 68 83  1  0  0  0  0
 71 72  1  0  0  0  0
M  CHG  1  83   1
M  ISO  4  39 100  60 101  77 100  92 101
M  END
> <Batch ID>
0003

> <Smiles>
CNC(C)C(=O)NC(C(=O)N1Cc2cc([101O:1][101CH2:1]C(=O)NCCCCCNC(=O)NC(c3ccccc3[100NH:0][100C:0](=O)N3CCCC(n4nc(-c5ccc(Oc6ccc(F)cc6F)cc5)c(C(N)=O)c4N)C3)C(C)C)ccc2CC1C(=O)NC1CCCc2ccccc21)C(C)(C)C

> <Shape>
0.271

> <Color>
0.083

> <Negative vol penalty>
0.000

$$$$

  -OEChem-04052315213D

 81 89  0     1  0  0  0  0  0999 V2000
  -24.5738  -32.0556   29.0851 C   0  0  0  0  0  0  0  0  0  0  0  0
  -25.3302  -31.2090   28.2810 C   0  0  0  0  0  0  0  0  0  0  0  0
  -24.5838   -8.9930   21.5609 C   0  0  0  0  0  0  0  0  0  0  0  0
  -23.9301  -10.7076   23.1324 C   0  0  0  0  0  0  0  0  0  0  0  0
  -23.2505  -32.3371   28.7479 C   0  0  0  0  0  0  0  0  0  0  0  0
  -24.7634  -30.6426   27.1398 C   0  0  0  0  0  0  0  0  0  0  0  0
  -27.5845  -29.4338   21.8402 C   0  0  0  0  0  0  0  0  0  0  0  0
  -26.0332  -20.6131   19.0839 C   0  0  0  0  0  0  0  0  0  0  0  0
  -28.3128  -21.0359   19.7633 C   0  0  0  0  0  0  0  0  0  0  0  0
  -26.2893  -19.2420   19.0780 C   0  0  0  0  0  0  0  0  0  0  0  0
  -28.5689  -19.6648   19.7575 C   0  0  0  0  0  0  0  0  0  0  0  0
  -24.1521   -8.0111   22.4525 C   0  0  0  0  0  0  0  0  0  0  0  0
  -23.4983   -9.7257   24.0241 C   0  0  0  0  0  0  0  0  0  0  0  0
  -28.1273  -28.2632   21.3122 C   0  0  0  0  0  0  0  0  0  0  0  0
  -22.8900   -5.0635   24.1653 C   0  0  0  0  0  0  0  0  0  0  0  0
  -22.1309   -4.0112   23.6535 C   0  0  0  0  0  0  0  0  0  0  0  0
  -26.0782  -27.8657   20.1028 C   0  0  0  0  0  0  0  0  0  0  0  0
  -20.4569   -5.5836   22.9034 C   0  0  0  0  0  0  0  0  0  0  0  0
  -24.4729  -10.3413   21.9008 C   0  0  0  0  0  0  0  0  0  0  0  0
  -24.1598  -11.9867   19.9767 C   0  0  0  0  0  0  0  0  0  0  0  0
  -22.6702  -31.7815   27.5968 C   0  0  0  0  0  0  0  0  0  0  0  0
  -26.2784  -29.8242   21.5115 C   0  0  0  0  0  0  0  0  0  0  0  0
  -23.4307  -30.9159   26.7877 C   0  0  0  0  0  0  0  0  0  0  0  0
  -25.5221  -29.0431   20.6259 C   0  0  0  0  0  0  0  0  0  0  0  0
  -27.0450  -21.5101   19.4265 C   0  0  0  0  0  0  0  0  0  0  0  0
  -27.5571  -18.7678   19.4148 C   0  0  0  0  0  0  0  0  0  0  0  0
  -23.6093   -8.3774   23.6841 C   0  0  0  0  0  0  0  0  0  0  0  0
  -27.3731  -27.4774   20.4456 C   0  0  0  0  0  0  0  0  0  0  0  0
  -22.4325   -6.3759   24.0463 C   0  0  0  0  0  0  0  0  0  0  0  0
  -20.9144   -4.2712   23.0225 C   0  0  0  0  0  0  0  0  0  0  0  0
  -21.2160   -6.6359   23.4154 C   0  0  0  0  0  0  0  0  0  0  0  0
  -24.9192  -11.3560   20.9804 C   0  0  0  0  0  0  0  0  0  0  0  0
  -25.0349  -12.8643   19.3845 C   0  0  0  0  0  0  0  0  0  0  0  0
  -22.7863  -11.7963   19.6123 C   0  0  0  0  0  0  0  0  0  0  0  0
  -23.5940  -30.2814   23.1513 C   0  0  0  0  0  0  0  0  0  0  0  0
  -22.4912  -31.3523   20.2948 C   0  0  0  0  0  0  0  0  0  0  0  0
  -27.6711  -23.9268   19.7453 C   0  0  0  0  0  0  0  0  0  0  0  0
  -22.7599  -31.3303   16.8927 C   0  0  0  0  0  0  0  0  0  0  0  0
  -29.0196  -16.7391   19.7174 C   0  0  0  0  0  0  0  0  0  0  0  0
  -21.2216  -32.0776   27.2989 C   0  0  0  0  0  0  0  0  0  0  0  0
  -25.7170  -31.1037   22.0684 C   0  0  0  0  0  0  0  0  0  0  0  0
  -24.1224  -29.4288   20.2255 C   0  0  0  0  0  0  0  0  0  0  0  0
  -20.8113  -31.7344   25.8692 C   0  0  0  0  0  0  0  0  0  0  0  0
  -30.0527  -13.3346   19.8560 C   0  0  0  0  0  0  0  0  0  0  0  0
  -21.3270  -30.3517   25.4832 C   0  0  0  0  0  0  0  0  0  0  0  0
  -28.7467  -12.5682   20.0783 C   0  0  0  0  0  0  0  0  0  0  0  0
  -30.0634  -14.6660   20.6050 C   0  0  0  0  0  0  0  0  0  0  0  0
  -27.6023  -14.7679   20.5667 C   0  0  0  0  0  0  0  0  0  0  0  0
  -22.8590  -30.3018   25.5283 C   0  0  1  0  0  0  0  0  0  0  0  0
  -24.1918  -31.1363   22.0699 C   0  0  1  0  0  0  0  0  0  0  0  0
  -27.5182  -13.4498   19.7799 C   0  0  2  0  0  0  0  0  0  0  0  0
  -21.6939  -32.2743   14.8264 C   0  0  0  0  0  0  0  0  0  0  0  0
  -20.1808  -29.3813   20.5893 C   0  0  0  0  0  0  0  0  0  0  0  0
  -19.7107  -29.6750   18.1478 C   0  0  0  0  0  0  0  0  0  0  0  0
  -19.5309  -31.6242   19.6941 C   0  0  0  0  0  0  0  0  0  0  0  0
  -25.2535  -32.7114   16.0967 C   0  0  0  0  0  0  0  0  0  0  0  0
  -26.9897  -25.2775   19.6276 C   0  0  0  0  0  0  0  0  0  1  0  0
  -21.8158  -30.7173   19.1034 C   0  0  1  0  0  0  0  0  0  0  0  0
  -22.7785  -32.4579   15.8765 C   0  0  2  0  0  0  0  0  0  0  0  0
  -20.3352  -30.3409   19.3925 C   0  0  0  0  0  0  0  0  0  0  0  0
  -26.1797  -11.7955   21.0261 N   0  0  0  0  0  0  0  0  0  0  0  0
  -26.2191  -12.7116   20.0437 N   0  0  0  0  0  0  0  0  0  0  0  0
  -23.6156  -30.6853   20.8015 N   0  0  0  0  0  0  0  0  0  0  0  0
  -28.8721  -15.4491   20.2696 N   0  0  0  0  0  0  0  0  0  0  0  0
  -24.8991  -13.7439   18.3695 N   0  0  0  0  0  0  0  0  0  0  0  0
  -22.0305  -10.8547   20.3240 N   0  0  0  0  0  0  0  0  0  0  0  0
  -26.7856  -22.9012   19.4322 N   0  0  0  0  0  0  0  0  0  0  0  0
  -27.8175  -17.3750   19.4089 N   0  0  0  0  0  0  0  0  0  0  0  0
  -23.4201  -30.9370   24.3552 N   0  0  0  0  0  0  0  0  0  0  0  0
  -21.9901  -31.6463   17.9922 N   0  0  0  0  0  0  0  0  0  0  0  0
  -24.0977  -32.5106   15.1853 N   0  3  0  0  0  0  0  0  0  0  0  0
  -22.2497  -12.4303   18.6723 O   0  0  0  0  0  0  0  0  0  0  0  0
  -23.3101  -29.1138   22.9107 O   0  0  0  0  0  0  0  0  0  0  0  0
  -22.0422  -32.4053   20.7544 O   0  0  0  0  0  0  0  0  0  0  0  0
  -28.8478  -23.8276   20.0773 O   0  0  0  0  0  0  0  0  0  0  0  0
  -23.3647  -30.2734   16.7261 O   0  0  0  0  0  0  0  0  0  0  0  0
  -30.1309  -17.2316   19.5066 O   0  0  0  0  0  0  0  0  0  0  0  0
  -23.1877   -7.4196   24.5544 O   0  0  0  0  0  0  0  0  0  0  0  0
  -27.9002  -26.3340   19.9294 O   0  0  0  0  0  0  0  0  0  1  0  0
  -20.1862   -3.2608   22.5296 F   0  0  0  0  0  0  0  0  0  0  0  0
  -20.7719   -7.8947   23.2970 F   0  0  0  0  0  0  0  0  0  0  0  0
  1  2  1  0  0  0  0
  1  5  2  0  0  0  0
  2  6  2  0  0  0  0
  3 12  2  0  0  0  0
  3 19  1  0  0  0  0
  4 13  1  0  0  0  0
  4 19  2  0  0  0  0
  5 21  1  0  0  0  0
  6 23  1  0  0  0  0
  7 14  2  0  0  0  0
  7 22  1  0  0  0  0
  8 10  2  0  0  0  0
  8 25  1  0  0  0  0
  9 11  1  0  0  0  0
  9 25  2  0  0  0  0
 10 26  1  0  0  0  0
 11 26  2  0  0  0  0
 12 27  1  0  0  0  0
 13 27  2  0  0  0  0
 14 28  1  0  0  0  0
 15 16  2  0  0  0  0
 15 29  1  0  0  0  0
 16 30  1  0  0  0  0
 17 24  1  0  0  0  0
 17 28  2  0  0  0  0
 18 30  2  0  0  0  0
 18 31  1  0  0  0  0
 19 32  1  0  0  0  0
 20 32  1  0  0  0  0
 20 33  2  0  0  0  0
 20 34  1  0  0  0  0
 21 23  2  0  0  0  0
 21 40  1  0  0  0  0
 22 24  2  0  0  0  0
 22 41  1  0  0  0  0
 23 49  1  0  0  0  0
 24 42  1  0  0  0  0
 25 67  1  0  0  0  0
 26 68  1  0  0  0  0
 27 78  1  0  0  0  0
 28 79  1  0  0  0  0
 29 31  2  0  0  0  0
 29 78  1  0  0  0  0
 30 80  1  0  0  0  0
 31 81  1  0  0  0  0
 32 61  2  0  0  0  0
 33 62  1  0  0  0  0
 33 65  1  0  0  0  0
 34 66  1  0  0  0  0
 34 72  2  0  0  0  0
 35 50  1  0  0  0  0
 35 69  1  0  0  0  0
 35 73  2  0  0  0  0
 36 58  1  0  0  0  0
 36 63  1  0  0  0  0
 36 74  2  0  0  0  0
 37 57  1  0  0  0  0
 37 67  1  0  0  0  0
 37 75  2  0  0  0  0
 38 59  1  0  0  0  0
 38 70  1  0  0  0  0
 38 76  2  0  0  0  0
 39 64  1  0  0  0  0
 39 68  1  0  0  0  0
 39 77  2  0  0  0  0
 40 43  1  0  0  0  0
 41 50  1  0  0  0  0
 42 63  1  0  0  0  0
 43 45  1  0  0  0  0
 44 46  1  0  0  0  0
 44 47  1  0  0  0  0
 45 49  1  0  0  0  0
 46 51  1  0  0  0  0
 47 64  1  0  0  0  0
 48 51  1  0  0  0  0
 48 64  1  0  0  0  0
 49 69  1  0  0  0  0
 50 63  1  0  0  0  0
 51 62  1  0  0  0  0
 52 59  1  0  0  0  0
 53 60  1  0  0  0  0
 54 60  1  0  0  0  0
 55 60  1  0  0  0  0
 56 71  1  0  0  0  0
 57 79  1  0  0  0  0
 58 60  1  0  0  0  0
 58 70  1  0  0  0  0
 59 71  1  0  0  0  0
 61 62  1  0  0  0  0
M  CHG  1  71   1
M  ISO  4  39 100  57 101  68 100  79 101
M  END
> <Batch ID>
0003

> <Smiles>
CNC(C)C(=O)NC(C(=O)N1Cc2cc([101O:1][101CH2:1]C(=O)Nc3ccc([100NH:0][100C:0](=O)N4CCCC(n5nc(-c6ccc(Oc7ccc(F)cc7F)cc6)c(C(N)=O)c5N)C4)cc3)ccc2CC1C(=O)NC1CCCc2ccccc21)C(C)(C)C

> <Shape>
0.258

> <Color>
0.118

> <Negative vol penalty>
0.000

$$$$

  -OEChem-04052315213D

 78 86  0     1  0  0  0  0  0999 V2000
  -37.9482  -26.3306   28.4070 C   0  0  0  0  0  0  0  0  0  0  0  0
  -36.9254  -25.4488   28.0727 C   0  0  0  0  0  0  0  0  0  0  0  0
  -23.0730   -9.8697   19.9427 C   0  0  0  0  0  0  0  0  0  0  0  0
  -23.8309   -9.8786   22.2367 C   0  0  0  0  0  0  0  0  0  0  0  0
  -38.4870  -27.1723   27.4347 C   0  0  0  0  0  0  0  0  0  0  0  0
  -36.4400  -25.4090   26.7661 C   0  0  0  0  0  0  0  0  0  0  0  0
  -35.8393  -20.6789   25.0601 C   0  0  0  0  0  0  0  0  0  0  0  0
  -32.0656  -16.5911   22.5375 C   0  0  0  0  0  0  0  0  0  0  0  0
  -22.3279   -8.7175   20.1933 C   0  0  0  0  0  0  0  0  0  0  0  0
  -23.0858   -8.7264   22.4874 C   0  0  0  0  0  0  0  0  0  0  0  0
  -34.7105  -19.9845   25.4930 C   0  0  0  0  0  0  0  0  0  0  0  0
  -32.6715  -17.4676   23.4375 C   0  0  0  0  0  0  0  0  0  0  0  0
  -20.5110   -5.5680   20.1369 C   0  0  0  0  0  0  0  0  0  0  0  0
  -20.5741   -4.5365   19.2001 C   0  0  0  0  0  0  0  0  0  0  0  0
  -33.6105  -20.4829   23.4047 C   0  0  0  0  0  0  0  0  0  0  0  0
  -30.5028  -18.3403   24.0476 C   0  0  0  0  0  0  0  0  0  0  0  0
  -22.9585   -4.3646   19.5502 C   0  0  0  0  0  0  0  0  0  0  0  0
  -23.8246  -10.4502   20.9644 C   0  0  0  0  0  0  0  0  0  0  0  0
  -24.1688  -12.9749   20.8418 C   0  0  0  0  0  0  0  0  0  0  0  0
  -38.0145  -27.1359   26.1133 C   0  0  0  0  0  0  0  0  0  0  0  0
  -35.8581  -21.2908   23.7985 C   0  0  0  0  0  0  0  0  0  0  0  0
  -36.9720  -26.2519   25.7756 C   0  0  0  0  0  0  0  0  0  0  0  0
  -34.7417  -21.1823   22.9572 C   0  0  0  0  0  0  0  0  0  0  0  0
  -29.8969  -17.4638   23.1475 C   0  0  0  0  0  0  0  0  0  0  0  0
  -30.6783  -16.5892   22.3925 C   0  0  0  0  0  0  0  0  0  0  0  0
  -22.3342   -8.1458   21.4656 C   0  0  0  0  0  0  0  0  0  0  0  0
  -33.5948  -19.8888   24.6664 C   0  0  0  0  0  0  0  0  0  0  0  0
  -31.8901  -18.3423   24.1925 C   0  0  0  0  0  0  0  0  0  1  0  0
  -21.6716   -5.9979   20.7803 C   0  0  0  0  0  0  0  0  0  0  0  0
  -21.7979   -3.9347   18.9068 C   0  0  0  0  0  0  0  0  0  0  0  0
  -22.8953   -5.3962   20.4869 C   0  0  0  0  0  0  0  0  0  0  0  0
  -24.5950  -11.6401   20.7060 C   0  0  0  0  0  0  0  0  0  0  0  0
  -25.2620  -13.7230   20.4787 C   0  0  0  0  0  0  0  0  0  0  0  0
  -22.8984  -13.4923   21.2590 C   0  0  0  0  0  0  0  0  0  0  0  0
  -36.1525  -24.2805   22.7598 C   0  0  0  0  0  0  0  0  0  0  0  0
  -36.2215  -22.8497   19.8494 C   0  0  0  0  0  0  0  0  0  0  0  0
  -35.4007  -20.1520   17.9271 C   0  0  0  0  0  0  0  0  0  0  0  0
  -30.7289  -14.7639   20.6570 C   0  0  0  0  0  0  0  0  0  0  0  0
  -38.5957  -28.0982   25.1079 C   0  0  0  0  0  0  0  0  0  0  0  0
  -37.0934  -22.0135   23.3357 C   0  0  0  0  0  0  0  0  0  0  0  0
  -34.7189  -21.8041   21.5856 C   0  0  0  0  0  0  0  0  0  0  0  0
  -38.2820  -27.7296   23.6601 C   0  0  0  0  0  0  0  0  0  0  0  0
  -29.6144  -12.3484   18.2904 C   0  0  0  0  0  0  0  0  0  0  0  0
  -36.8056  -27.3786   23.5065 C   0  0  0  0  0  0  0  0  0  0  0  0
  -28.1741  -12.0586   18.7191 C   0  0  0  0  0  0  0  0  0  0  0  0
  -30.5287  -12.5777   19.4926 C   0  0  0  0  0  0  0  0  0  0  0  0
  -28.6212  -13.3055   20.8714 C   0  0  0  0  0  0  0  0  0  0  0  0
  -36.4357  -26.1618   24.3633 C   0  0  1  0  0  0  0  0  0  0  0  0
  -36.8120  -23.0352   22.2382 C   0  0  1  0  0  0  0  0  0  0  0  0
  -27.6492  -13.1317   19.6929 C   0  0  2  0  0  0  0  0  0  0  0  0
  -28.4085  -17.4808   23.0155 C   0  0  0  0  0  0  0  0  0  0  0  0
  -35.5557  -19.2881   15.5761 C   0  0  0  0  0  0  0  0  0  0  0  0
  -33.9574  -24.7178   19.0163 C   0  0  0  0  0  0  0  0  0  0  0  0
  -33.5252  -23.2102   17.0647 C   0  0  0  0  0  0  0  0  0  0  0  0
  -35.7208  -24.3751   17.2763 C   0  0  0  0  0  0  0  0  0  0  0  0
  -37.0182  -17.8203   18.7671 C   0  0  0  0  0  0  0  0  0  0  0  0
  -35.1829  -22.4531   18.8282 C   0  0  1  0  0  0  0  0  0  0  0  0
  -36.2156  -19.3291   16.9456 C   0  0  2  0  0  0  0  0  0  0  0  0
  -34.5960  -23.6789   18.0729 C   0  0  0  0  0  0  0  0  0  0  0  0
  -25.8601  -11.5426   20.2889 N   0  0  0  0  0  0  0  0  0  0  0  0
  -26.2383  -12.8257   20.1595 N   0  0  0  0  0  0  0  0  0  0  0  0
  -35.9484  -22.5056   21.1809 N   0  0  0  0  0  0  0  0  0  0  0  0
  -29.9699  -13.6100   20.3684 N   0  0  0  0  0  0  0  0  0  0  0  0
  -25.4736  -15.0542   20.4043 N   0  0  0  0  0  0  0  0  0  0  0  0
  -21.8854  -12.5845   21.5964 N   0  0  0  0  0  0  0  0  0  0  0  0
  -30.0817  -15.6904   21.4738 N   0  0  0  0  0  0  0  0  0  0  0  0
  -36.8842  -24.9412   23.7281 N   0  0  0  0  0  0  0  0  0  0  0  0
  -35.8181  -21.4657   17.9622 N   0  0  0  0  0  0  0  0  0  0  0  0
  -36.3622  -17.9305   17.4388 N   0  3  0  0  0  0  0  0  0  0  0  0
  -22.6632  -14.7232   21.3148 O   0  0  0  0  0  0  0  0  0  0  0  0
  -35.0614  -24.6178   22.3155 O   0  0  0  0  0  0  0  0  0  0  0  0
  -37.2411  -23.4367   19.4784 O   0  0  0  0  0  0  0  0  0  0  0  0
  -34.4830  -19.6777   18.5930 O   0  0  0  0  0  0  0  0  0  0  0  0
  -31.8586  -14.9310   20.1902 O   0  0  0  0  0  0  0  0  0  0  0  0
  -21.6071   -7.0217   21.7106 O   0  0  0  0  0  0  0  0  0  0  0  0
  -32.4915  -19.2122   25.0867 O   0  0  0  0  0  0  0  0  0  1  0  0
  -21.8581   -2.9431   18.0084 F   0  0  0  0  0  0  0  0  0  0  0  0
  -24.0135   -5.8041   21.1027 F   0  0  0  0  0  0  0  0  0  0  0  0
  1  2  1  0  0  0  0
  1  5  2  0  0  0  0
  2  6  2  0  0  0  0
  3  9  2  0  0  0  0
  3 18  1  0  0  0  0
  4 10  1  0  0  0  0
  4 18  2  0  0  0  0
  5 20  1  0  0  0  0
  6 22  1  0  0  0  0
  7 11  2  0  0  0  0
  7 21  1  0  0  0  0
  8 12  2  0  0  0  0
  8 25  1  0  0  0  0
  9 26  1  0  0  0  0
 10 26  2  0  0  0  0
 11 27  1  0  0  0  0
 12 28  1  0  0  0  0
 13 14  2  0  0  0  0
 13 29  1  0  0  0  0
 14 30  1  0  0  0  0
 15 23  1  0  0  0  0
 15 27  2  0  0  0  0
 16 24  1  0  0  0  0
 16 28  2  0  0  0  0
 17 30  2  0  0  0  0
 17 31  1  0  0  0  0
 18 32  1  0  0  0  0
 19 32  1  0  0  0  0
 19 33  2  0  0  0  0
 19 34  1  0  0  0  0
 20 22  2  0  0  0  0
 20 39  1  0  0  0  0
 21 23  2  0  0  0  0
 21 40  1  0  0  0  0
 22 48  1  0  0  0  0
 23 41  1  0  0  0  0
 24 25  2  0  0  0  0
 24 51  1  0  0  0  0
 25 66  1  0  0  0  0
 26 75  1  0  0  0  0
 27 76  1  0  0  0  0
 28 76  1  0  0  0  0
 29 31  2  0  0  0  0
 29 75  1  0  0  0  0
 30 77  1  0  0  0  0
 31 78  1  0  0  0  0
 32 60  2  0  0  0  0
 33 61  1  0  0  0  0
 33 64  1  0  0  0  0
 34 65  1  0  0  0  0
 34 70  2  0  0  0  0
 35 49  1  0  0  0  0
 35 67  1  0  0  0  0
 35 71  2  0  0  0  0
 36 57  1  0  0  0  0
 36 62  1  0  0  0  0
 36 72  2  0  0  0  0
 37 58  1  0  0  0  0
 37 68  1  0  0  0  0
 37 73  2  0  0  0  0
 38 63  1  0  0  0  0
 38 66  1  0  0  0  0
 38 74  2  0  0  0  0
 39 42  1  0  0  0  0
 40 49  1  0  0  0  0
 41 62  1  0  0  0  0
 42 44  1  0  0  0  0
 43 45  1  0  0  0  0
 43 46  1  0  0  0  0
 44 48  1  0  0  0  0
 45 50  1  0  0  0  0
 46 63  1  0  0  0  0
 47 50  1  0  0  0  0
 47 63  1  0  0  0  0
 48 67  1  0  0  0  0
 49 62  1  0  0  0  0
 50 61  1  0  0  0  0
 52 58  1  0  0  0  0
 53 59  1  0  0  0  0
 54 59  1  0  0  0  0
 55 59  1  0  0  0  0
 56 69  1  0  0  0  0
 57 59  1  0  0  0  0
 57 68  1  0  0  0  0
 58 69  1  0  0  0  0
 60 61  1  0  0  0  0
M  CHG  1  69   1
M  ISO  4  28 101  38 100  66 100  76 101
M  END
> <Batch ID>
0003

> <Smiles>
CNC(C)C(=O)NC(C(=O)N1Cc2cc([101O:1][101c:1]3ccc([100NH:0][100C:0](=O)N4CCCC(n5nc(-c6ccc(Oc7ccc(F)cc7F)cc6)c(C(N)=O)c5N)C4)c(C)c3)ccc2CC1C(=O)NC1CCCc2ccccc21)C(C)(C)C

> <Shape>
0.155

> <Color>
0.200

> <Negative vol penalty>
0.000

$$$$

  -OEChem-04052315213D

 82 90  0     1  0  0  0  0  0999 V2000
  -23.3379  -29.2174   24.4606 C   0  0  0  0  0  0  0  0  0  0  0  0
  -24.2966  -28.2121   24.5184 C   0  0  0  0  0  0  0  0  0  0  0  0
  -29.3590  -11.3840   19.0636 C   0  0  0  0  0  0  0  0  0  0  0  0
  -30.5095  -12.1623   19.1912 C   0  0  0  0  0  0  0  0  0  0  0  0
  -22.4844  -20.8904   21.0705 C   0  0  0  0  0  0  0  0  0  0  0  0
  -24.8876  -20.8766   21.3187 C   0  0  0  0  0  0  0  0  0  0  0  0
  -23.2404  -30.0177   23.3243 C   0  0  0  0  0  0  0  0  0  0  0  0
  -25.1658  -28.0146   23.4450 C   0  0  0  0  0  0  0  0  0  0  0  0
  -29.4340  -23.7624   22.5347 C   0  0  0  0  0  0  0  0  0  0  0  0
  -28.1360  -11.8653   19.5308 C   0  0  0  0  0  0  0  0  0  0  0  0
  -30.4370  -13.4218   19.7862 C   0  0  0  0  0  0  0  0  0  0  0  0
  -22.3954  -21.9347   21.9907 C   0  0  0  0  0  0  0  0  0  0  0  0
  -24.7986  -21.9210   22.2389 C   0  0  0  0  0  0  0  0  0  0  0  0
  -29.5224  -22.5033   21.9426 C   0  0  0  0  0  0  0  0  0  0  0  0
  -21.5646  -24.8459   24.0031 C   0  0  0  0  0  0  0  0  0  0  0  0
  -20.7239  -25.9145   23.6920 C   0  0  0  0  0  0  0  0  0  0  0  0
  -30.3604  -23.5193   19.9215 C   0  0  0  0  0  0  0  0  0  0  0  0
  -22.0189  -26.3534   21.7001 C   0  0  0  0  0  0  0  0  0  0  0  0
  -23.7306  -20.3612   20.7345 C   0  0  0  0  0  0  0  0  0  0  0  0
  -23.9682  -19.3887   18.3881 C   0  0  0  0  0  0  0  0  0  0  0  0
  -24.1010  -29.8211   22.2318 C   0  0  0  0  0  0  0  0  0  0  0  0
  -29.7984  -24.9123   21.8197 C   0  0  0  0  0  0  0  0  0  0  0  0
  -25.0989  -28.8276   22.2990 C   0  0  0  0  0  0  0  0  0  0  0  0
  -30.2781  -24.7915   20.5077 C   0  0  0  0  0  0  0  0  0  0  0  0
  -28.0635  -13.1248   20.1258 C   0  0  0  0  0  0  0  0  0  0  0  0
  -23.5524  -22.4501   22.5749 C   0  0  0  0  0  0  0  0  0  0  0  0
  -29.9829  -22.3818   20.6348 C   0  0  0  0  0  0  0  0  0  0  0  0
  -29.2140  -13.9031   20.2535 C   0  0  0  0  0  0  0  0  0  0  0  0
  -22.6326  -24.5311   23.1629 C   0  0  0  0  0  0  0  0  0  0  0  0
  -20.9510  -26.6682   22.5405 C   0  0  0  0  0  0  0  0  0  0  0  0
  -22.8597  -25.2848   22.0114 C   0  0  0  0  0  0  0  0  0  0  0  0
  -23.8232  -19.2820   19.7843 C   0  0  0  0  0  0  0  0  0  0  0  0
  -24.0072  -18.0886   17.9467 C   0  0  0  0  0  0  0  0  0  0  0  0
  -24.0596  -20.5583   17.5640 C   0  0  0  0  0  0  0  0  0  0  0  0
  -28.2752  -27.5296   20.8536 C   0  0  0  0  0  0  0  0  0  0  0  0
  -31.2465  -28.4461   19.9296 C   0  0  0  0  0  0  0  0  0  0  0  0
  -34.4056  -27.5357   19.0140 C   0  0  0  0  0  0  0  0  0  0  0  0
  -25.5854  -12.9422   20.5406 C   0  0  0  0  0  0  0  0  0  0  0  0
  -23.9568  -30.7212   21.0301 C   0  0  0  0  0  0  0  0  0  0  0  0
  -29.7225  -26.2607   22.4819 C   0  0  0  0  0  0  0  0  0  0  0  0
  -30.7010  -25.9932   19.7042 C   0  0  0  0  0  0  0  0  0  0  0  0
  -24.6177  -30.1526   19.7786 C   0  0  0  0  0  0  0  0  0  0  0  0
  -22.4361  -13.7052   19.0654 C   0  0  0  0  0  0  0  0  0  0  0  0
  -26.0372  -29.7074   20.0971 C   0  0  0  0  0  0  0  0  0  0  0  0
  -22.4501  -15.2312   18.9497 C   0  0  0  0  0  0  0  0  0  0  0  0
  -23.1248  -13.2269   20.3423 C   0  0  0  0  0  0  0  0  0  0  0  0
  -24.4979  -15.2705   20.4301 C   0  0  0  0  0  0  0  0  0  0  0  0
  -26.0351  -28.5743   21.1312 C   0  0  1  0  0  0  0  0  0  0  0  0
  -29.6337  -27.4119   21.4848 C   0  0  1  0  0  0  0  0  0  0  0  0
  -23.8727  -15.7968   19.1279 C   0  0  2  0  0  0  0  0  0  0  0  0
  -36.6005  -28.5057   18.2799 C   0  0  0  0  0  0  0  0  0  0  0  0
  -30.0892  -28.9576   17.1530 C   0  0  0  0  0  0  0  0  0  0  0  0
  -32.4282  -28.9933   16.2609 C   0  0  0  0  0  0  0  0  0  0  0  0
  -31.7106  -30.6901   17.9427 C   0  0  0  0  0  0  0  0  0  0  0  0
  -35.8194  -26.4084   21.3569 C   0  0  0  0  0  0  0  0  0  0  0  0
  -29.8569  -18.7488   20.0456 C   0  0  0  0  0  0  0  0  0  0  0  0
  -29.4243  -17.5241   20.8441 C   0  0  0  0  0  0  0  0  0  0  0  0
  -29.6720  -20.0332   20.8428 C   0  0  0  0  0  0  0  0  0  1  0  0
  -29.5684  -16.2443   20.0327 C   0  0  0  0  0  0  0  0  0  0  0  0
  -32.0690  -28.2962   18.6726 C   0  0  1  0  0  0  0  0  0  0  0  0
  -35.7674  -28.0348   19.4619 C   0  0  2  0  0  0  0  0  0  0  0  0
  -31.5645  -29.2116   17.5215 C   0  0  0  0  0  0  0  0  0  0  0  0
  -23.7733  -18.0143   20.2022 N   0  0  0  0  0  0  0  0  0  0  0  0
  -23.8875  -17.3125   19.0618 N   0  0  0  0  0  0  0  0  0  0  0  0
  -30.6025  -27.2904   20.3935 N   0  0  0  0  0  0  0  0  0  0  0  0
  -24.4692  -13.7995   20.4414 N   0  0  0  0  0  0  0  0  0  0  0  0
  -24.1318  -17.5451   16.7172 N   0  0  0  0  0  0  0  0  0  0  0  0
  -24.0024  -21.8159   18.1800 N   0  0  0  0  0  0  0  0  0  0  0  0
  -26.8141  -13.5995   20.5961 N   0  0  0  0  0  0  0  0  0  0  0  0
  -27.3934  -28.3246   21.5606 N   0  0  0  0  0  0  0  0  0  0  0  0
  -33.4551  -28.5335   19.0610 N   0  0  0  0  0  0  0  0  0  0  0  0
  -36.5131  -26.9495   20.1597 N   0  3  0  0  0  0  0  0  0  0  0  0
  -24.1716  -20.4904   16.3164 O   0  0  0  0  0  0  0  0  0  0  0  0
  -28.0447  -26.9439   19.8022 O   0  0  0  0  0  0  0  0  0  0  0  0
  -31.1838  -29.5465   20.4835 O   0  0  0  0  0  0  0  0  0  0  0  0
  -34.2058  -26.3775   18.6545 O   0  0  0  0  0  0  0  0  0  0  0  0
  -25.4625  -11.7147   20.5465 O   0  0  0  0  0  0  0  0  0  0  0  0
  -23.4659  -23.4694   23.4728 O   0  0  0  0  0  0  0  0  0  0  0  0
  -30.0696  -21.1541   20.0542 O   0  0  0  0  0  0  0  0  0  1  0  0
  -29.1649  -15.1433   20.8352 O   0  0  0  0  0  0  0  0  0  0  0  0
  -20.1426  -27.6934   22.2409 F   0  0  0  0  0  0  0  0  0  0  0  0
  -23.8833  -24.9864   21.1997 F   0  0  0  0  0  0  0  0  0  0  0  0
  1  2  1  0  0  0  0
  1  7  2  0  0  0  0
  2  8  2  0  0  0  0
  3  4  1  0  0  0  0
  3 10  2  0  0  0  0
  4 11  2  0  0  0  0
  5 12  2  0  0  0  0
  5 19  1  0  0  0  0
  6 13  1  0  0  0  0
  6 19  2  0  0  0  0
  7 21  1  0  0  0  0
  8 23  1  0  0  0  0
  9 14  2  0  0  0  0
  9 22  1  0  0  0  0
 10 25  1  0  0  0  0
 11 28  1  0  0  0  0
 12 26  1  0  0  0  0
 13 26  2  0  0  0  0
 14 27  1  0  0  0  0
 15 16  2  0  0  0  0
 15 29  1  0  0  0  0
 16 30  1  0  0  0  0
 17 24  1  0  0  0  0
 17 27  2  0  0  0  0
 18 30  2  0  0  0  0
 18 31  1  0  0  0  0
 19 32  1  0  0  0  0
 20 32  1  0  0  0  0
 20 33  2  0  0  0  0
 20 34  1  0  0  0  0
 21 23  2  0  0  0  0
 21 39  1  0  0  0  0
 22 24  2  0  0  0  0
 22 40  1  0  0  0  0
 23 48  1  0  0  0  0
 24 41  1  0  0  0  0
 25 28  2  0  0  0  0
 25 69  1  0  0  0  0
 26 78  1  0  0  0  0
 27 79  1  0  0  0  0
 28 80  1  0  0  0  0
 29 31  2  0  0  0  0
 29 78  1  0  0  0  0
 30 81  1  0  0  0  0
 31 82  1  0  0  0  0
 32 63  2  0  0  0  0
 33 64  1  0  0  0  0
 33 67  1  0  0  0  0
 34 68  1  0  0  0  0
 34 73  2  0  0  0  0
 35 49  1  0  0  0  0
 35 70  1  0  0  0  0
 35 74  2  0  0  0  0
 36 60  1  0  0  0  0
 36 65  1  0  0  0  0
 36 75  2  0  0  0  0
 37 61  1  0  0  0  0
 37 71  1  0  0  0  0
 37 76  2  0  0  0  0
 38 66  1  0  0  0  0
 38 69  1  0  0  0  0
 38 77  2  0  0  0  0
 39 42  1  0  0  0  0
 40 49  1  0  0  0  0
 41 65  1  0  0  0  0
 42 44  1  0  0  0  0
 43 45  1  0  0  0  0
 43 46  1  0  0  0  0
 44 48  1  0  0  0  0
 45 50  1  0  0  0  0
 46 66  1  0  0  0  0
 47 50  1  0  0  0  0
 47 66  1  0  0  0  0
 48 70  1  0  0  0  0
 49 65  1  0  0  0  0
 50 64  1  0  0  0  0
 51 61  1  0  0  0  0
 52 62  1  0  0  0  0
 53 62  1  0  0  0  0
 54 62  1  0  0  0  0
 55 72  1  0  0  0  0
 56 57  1  0  0  0  0
 56 58  1  0  0  0  0
 57 59  1  0  0  0  0
 58 79  1  0  0  0  0
 59 80  1  0  0  0  0
 60 62  1  0  0  0  0
 60 71  1  0  0  0  0
 61 72  1  0  0  0  0
 63 64  1  0  0  0  0
M  CHG  1  72   1
M  ISO  4  38 100  58 101  69 100  79 101
M  END
> <Batch ID>
0003

> <Smiles>
CNC(C)C(=O)NC(C(=O)N1Cc2cc([101O:1][101CH2:1]CCCOc3ccccc3[100NH:0][100C:0](=O)N3CCCC(n4nc(-c5ccc(Oc6ccc(F)cc6F)cc5)c(C(N)=O)c4N)C3)ccc2CC1C(=O)NC1CCCc2ccccc21)C(C)(C)C

> <Shape>
0.219

> <Color>
0.071

> <Negative vol penalty>
0.000

$$$$

  -OEChem-04052315213D

 88 96  0     1  0  0  0  0  0999 V2000
  -32.1518  -15.1981   20.9086 C   0  0  0  0  0  0  0  0  0  0  0  0
  -31.1788  -16.1712   21.1134 C   0  0  0  0  0  0  0  0  0  0  0  0
  -25.2677  -31.4314   20.8836 C   0  0  0  0  0  0  0  0  0  0  0  0
  -29.8041  -20.9385   22.8857 C   0  0  0  0  0  0  0  0  0  0  0  0
  -27.7195  -21.7827   23.7685 C   0  0  0  0  0  0  0  0  0  0  0  0
  -24.1243  -31.1033   21.6119 C   0  0  0  0  0  0  0  0  0  0  0  0
  -31.7984  -13.9647   20.3630 C   0  0  0  0  0  0  0  0  0  0  0  0
  -29.8521  -15.9118   20.7716 C   0  0  0  0  0  0  0  0  0  0  0  0
  -24.8440  -17.9184   23.6697 C   0  0  0  0  0  0  0  0  0  0  0  0
  -26.0207  -30.4260   20.2770 C   0  0  0  0  0  0  0  0  0  0  0  0
  -30.1531  -20.4743   24.1539 C   0  0  0  0  0  0  0  0  0  0  0  0
  -28.0686  -21.3183   25.0367 C   0  0  0  0  0  0  0  0  0  0  0  0
  -23.9784  -18.9823   23.4194 C   0  0  0  0  0  0  0  0  0  0  0  0
  -28.0912  -18.3705   26.6890 C   0  0  0  0  0  0  0  0  0  0  0  0
  -27.1153  -17.6944   27.4212 C   0  0  0  0  0  0  0  0  0  0  0  0
  -24.4869  -28.7643   21.1274 C   0  0  0  0  0  0  0  0  0  0  0  0
  -22.4850  -17.4860   22.2574 C   0  0  0  0  0  0  0  0  0  0  0  0
  -27.2717  -19.3582   29.1660 C   0  0  0  0  0  0  0  0  0  0  0  0
  -28.5873  -21.5928   22.6930 C   0  0  0  0  0  0  0  0  0  0  0  0
  -23.7339  -29.7697   21.7339 C   0  0  0  0  0  0  0  0  0  0  0  0
  -27.5206  -21.3738   20.3861 C   0  0  0  0  0  0  0  0  0  0  0  0
  -30.4650  -13.6865   20.0233 C   0  0  0  0  0  0  0  0  0  0  0  0
  -24.5413  -16.6302   23.2055 C   0  0  0  0  0  0  0  0  0  0  0  0
  -29.4808  -14.6739   20.2197 C   0  0  0  0  0  0  0  0  0  0  0  0
  -23.3472  -16.4070   22.5053 C   0  0  0  0  0  0  0  0  0  0  0  0
  -25.6303  -29.0925   20.3990 C   0  0  0  0  0  0  0  0  0  0  0  0
  -29.2854  -20.6641   25.2293 C   0  0  0  0  0  0  0  0  0  0  0  0
  -22.8001  -18.7668   22.7106 C   0  0  0  0  0  0  0  0  0  0  0  0
  -28.6574  -19.5405   27.1954 C   0  0  0  0  0  0  0  0  0  0  0  0
  -26.7056  -18.1882   28.6597 C   0  0  0  0  0  0  0  0  0  0  0  0
  -28.2476  -20.0343   28.4338 C   0  0  0  0  0  0  0  0  0  0  0  0
  -28.2264  -22.0731   21.3834 C   0  0  0  0  0  0  0  0  0  0  0  0
  -27.4356  -22.2600   19.3402 C   0  0  0  0  0  0  0  0  0  0  0  0
  -22.5158  -29.4217   22.5100 C   0  0  0  0  0  0  0  0  0  0  0  0
  -26.9894  -20.0422   20.4036 C   0  0  0  0  0  0  0  0  0  0  0  0
  -25.9174  -14.5901   21.1935 C   0  0  0  0  0  0  0  0  0  0  0  0
  -22.1700  -20.5165   21.2747 C   0  0  0  0  0  0  0  0  0  1  0  0
  -23.5712  -12.5995   22.2207 C   0  0  0  0  0  0  0  0  0  0  0  0
  -20.4663  -12.2456   23.5922 C   0  0  0  0  0  0  0  0  0  0  0  0
  -27.5554  -28.2258   19.0245 C   0  0  0  0  0  0  0  0  0  0  0  0
  -30.1390  -12.3559   19.3925 C   0  0  0  0  0  0  0  0  0  0  0  0
  -25.4725  -15.4881   23.5069 C   0  0  0  0  0  0  0  0  0  0  0  0
  -22.9662  -15.0391   22.0030 C   0  0  0  0  0  0  0  0  0  0  0  0
  -28.6490  -12.0245   19.4052 C   0  0  0  0  0  0  0  0  0  0  0  0
  -29.7495  -25.9614   17.3706 C   0  0  0  0  0  0  0  0  0  0  0  0
  -27.8308  -13.2264   18.9438 C   0  0  0  0  0  0  0  0  0  0  0  0
  -29.5392  -24.6422   18.1173 C   0  0  0  0  0  0  0  0  0  0  0  0
  -29.6855  -27.1626   18.3123 C   0  0  0  0  0  0  0  0  0  0  0  0
  -28.2698  -25.9133   19.8949 C   0  0  0  0  0  0  0  0  0  0  0  0
  -28.0268  -14.4212   19.8848 C   0  0  1  0  0  0  0  0  0  0  0  0
  -25.3136  -14.3171   22.5421 C   0  0  1  0  0  0  0  0  0  0  0  0
  -28.2611  -24.6793   18.9779 C   0  0  2  0  0  0  0  0  0  0  0  0
  -18.8025  -10.4958   24.2759 C   0  0  0  0  0  0  0  0  0  0  0  0
  -22.8368  -12.1570   19.2924 C   0  0  0  0  0  0  0  0  0  0  0  0
  -20.6504  -11.2065   20.0567 C   0  0  0  0  0  0  0  0  0  0  0  0
  -22.7867  -10.0931   20.7039 C   0  0  0  0  0  0  0  0  0  0  0  0
  -20.5378  -13.1166   26.4198 C   0  0  0  0  0  0  0  0  0  0  0  0
  -21.1898  -21.6428   21.0851 C   0  0  0  0  0  0  0  0  0  0  0  0
  -21.6657  -22.9277   21.7592 C   0  0  0  0  0  0  0  0  0  0  0  0
  -20.6546  -24.0707   21.6306 C   0  0  0  0  0  0  0  0  0  0  0  0
  -21.1765  -25.3506   22.2879 C   0  0  0  0  0  0  0  0  0  0  0  0
  -20.1515  -26.4841   22.1841 C   0  0  0  0  0  0  0  0  0  0  0  0
  -20.6631  -27.7930   22.7764 C   0  0  0  0  0  0  0  0  0  0  0  0
  -22.1601  -12.2932   21.7803 C   0  0  1  0  0  0  0  0  0  0  0  0
  -19.9597  -11.3736   24.7268 C   0  0  2  0  0  0  0  0  0  0  0  0
  -22.1163  -11.4637   20.4660 C   0  0  0  0  0  0  0  0  0  0  0  0
  -28.5657  -23.3083   21.0050 N   0  0  0  0  0  0  0  0  0  0  0  0
  -23.1006  -20.2267   20.4263 N   0  0  0  0  0  0  0  0  0  0  0  0
  -28.0711  -23.3920   19.7582 N   0  0  0  0  0  0  0  0  0  0  0  0
  -23.9125  -13.9560   22.3174 N   0  0  0  0  0  0  0  0  0  0  0  0
  -28.4460  -27.1335   19.0919 N   0  0  0  0  0  0  0  0  0  0  0  0
  -26.8800  -22.1734   18.1129 N   0  0  0  0  0  0  0  0  0  0  0  0
  -27.1656  -19.2677   21.5583 N   0  0  0  0  0  0  0  0  0  0  0  0
  -26.3952  -28.0713   19.7826 N   0  0  0  0  0  0  0  0  0  0  0  0
  -21.8662  -28.2501   22.1378 N   0  0  0  0  0  0  0  0  0  0  0  0
  -27.2517  -14.2446   21.0941 N   0  0  0  0  0  0  0  0  0  0  0  0
  -21.5089  -11.6487   22.9156 N   0  0  0  0  0  0  0  0  0  0  0  0
  -19.4935  -12.2194   25.8618 N   0  3  0  0  0  0  0  0  0  0  0  0
  -22.1388  -30.1743   23.4044 O   0  0  0  0  0  0  0  0  0  0  0  0
  -26.3908  -19.5479   19.4183 O   0  0  0  0  0  0  0  0  0  0  0  0
  -25.2237  -15.0767   20.3083 O   0  0  0  0  0  0  0  0  0  0  0  0
  -24.3401  -11.6695   22.4767 O   0  0  0  0  0  0  0  0  0  0  0  0
  -19.9828  -13.3447   23.3299 O   0  0  0  0  0  0  0  0  0  0  0  0
  -27.7909  -29.2129   18.3230 O   0  0  0  0  0  0  0  0  0  0  0  0
  -29.6256  -20.2110   26.4669 O   0  0  0  0  0  0  0  0  0  0  0  0
  -21.9538  -19.8036   22.4644 O   0  0  0  0  0  0  0  0  0  1  0  0
  -25.7673  -17.5397   29.3620 F   0  0  0  0  0  0  0  0  0  0  0  0
  -28.7871  -21.1584   28.9249 F   0  0  0  0  0  0  0  0  0  0  0  0
  1  2  1  0  0  0  0
  1  7  2  0  0  0  0
  2  8  2  0  0  0  0
  3  6  2  0  0  0  0
  3 10  1  0  0  0  0
  4 11  2  0  0  0  0
  4 19  1  0  0  0  0
  5 12  1  0  0  0  0
  5 19  2  0  0  0  0
  6 20  1  0  0  0  0
  7 22  1  0  0  0  0
  8 24  1  0  0  0  0
  9 13  2  0  0  0  0
  9 23  1  0  0  0  0
 10 26  2  0  0  0  0
 11 27  1  0  0  0  0
 12 27  2  0  0  0  0
 13 28  1  0  0  0  0
 14 15  2  0  0  0  0
 14 29  1  0  0  0  0
 15 30  1  0  0  0  0
 16 20  2  0  0  0  0
 16 26  1  0  0  0  0
 17 25  1  0  0  0  0
 17 28  2  0  0  0  0
 18 30  2  0  0  0  0
 18 31  1  0  0  0  0
 19 32  1  0  0  0  0
 20 34  1  0  0  0  0
 21 32  1  0  0  0  0
 21 33  2  0  0  0  0
 21 35  1  0  0  0  0
 22 24  2  0  0  0  0
 22 41  1  0  0  0  0
 23 25  2  0  0  0  0
 23 42  1  0  0  0  0
 24 50  1  0  0  0  0
 25 43  1  0  0  0  0
 26 74  1  0  0  0  0
 27 85  1  0  0  0  0
 28 86  1  0  0  0  0
 29 31  2  0  0  0  0
 29 85  1  0  0  0  0
 30 87  1  0  0  0  0
 31 88  1  0  0  0  0
 32 67  2  0  0  0  0
 33 69  1  0  0  0  0
 33 72  1  0  0  0  0
 34 75  1  0  0  0  0
 34 79  2  0  0  0  0
 35 73  1  0  0  0  0
 35 80  2  0  0  0  0
 36 51  1  0  0  0  0
 36 76  1  0  0  0  0
 36 81  2  0  0  0  0
 37 58  1  0  0  0  0
 37 68  2  0  0  0  0
 37 86  1  0  0  0  0
 38 64  1  0  0  0  0
 38 70  1  0  0  0  0
 38 82  2  0  0  0  0
 39 65  1  0  0  0  0
 39 77  1  0  0  0  0
 39 83  2  0  0  0  0
 40 71  1  0  0  0  0
 40 74  1  0  0  0  0
 40 84  2  0  0  0  0
 41 44  1  0  0  0  0
 42 51  1  0  0  0  0
 43 70  1  0  0  0  0
 44 46  1  0  0  0  0
 45 47  1  0  0  0  0
 45 48  1  0  0  0  0
 46 50  1  0  0  0  0
 47 52  1  0  0  0  0
 48 71  1  0  0  0  0
 49 52  1  0  0  0  0
 49 71  1  0  0  0  0
 50 76  1  0  0  0  0
 51 70  1  0  0  0  0
 52 69  1  0  0  0  0
 53 65  1  0  0  0  0
 54 66  1  0  0  0  0
 55 66  1  0  0  0  0
 56 66  1  0  0  0  0
 57 78  1  0  0  0  0
 58 59  1  0  0  0  0
 59 60  1  0  0  0  0
 60 61  1  0  0  0  0
 61 62  1  0  0  0  0
 62 63  1  0  0  0  0
 63 75  1  0  0  0  0
 64 66  1  0  0  0  0
 64 77  1  0  0  0  0
 65 78  1  0  0  0  0
 67 69  1  0  0  0  0
M  CHG  1  78   1
M  ISO  4  37 101  40 100  74 100  86 101
M  END
> <Batch ID>
0003

> <Smiles>
CNC(C)C(=O)NC(C(=O)N1Cc2cc([101O:1][101C:1](=N)CCCCCCNC(=O)c3cccc([100NH:0][100C:0](=O)N4CCCC(n5nc(-c6ccc(Oc7ccc(F)cc7F)cc6)c(C(N)=O)c5N)C4)c3)ccc2CC1C(=O)NC1CCCc2ccccc21)C(C)(C)C

> <Shape>
0.228

> <Color>
0.055

> <Negative vol penalty>
0.000

$$$$

  -OEChem-04052315213D

 77 84  0     1  0  0  0  0  0999 V2000
  -23.5144  -35.2471   20.9835 C   0  0  0  0  0  0  0  0  0  0  0  0
  -24.4367  -34.2056   20.9961 C   0  0  0  0  0  0  0  0  0  0  0  0
  -26.4345  -14.7092   19.3752 C   0  0  0  0  0  0  0  0  0  0  0  0
  -25.7369  -14.6817   21.6882 C   0  0  0  0  0  0  0  0  0  0  0  0
  -22.3216  -35.1291   21.6957 C   0  0  0  0  0  0  0  0  0  0  0  0
  -24.1672  -33.0459   21.7220 C   0  0  0  0  0  0  0  0  0  0  0  0
  -25.2537  -28.8342   19.1284 C   0  0  0  0  0  0  0  0  0  0  0  0
  -26.2783  -13.3246   19.3116 C   0  0  0  0  0  0  0  0  0  0  0  0
  -25.5808  -13.2971   21.6246 C   0  0  0  0  0  0  0  0  0  0  0  0
  -26.5954  -28.4639   19.0487 C   0  0  0  0  0  0  0  0  0  0  0  0
  -23.2991  -11.1010   20.4449 C   0  0  0  0  0  0  0  0  0  0  0  0
  -22.1430  -10.5545   21.0019 C   0  0  0  0  0  0  0  0  0  0  0  0
  -26.2477  -26.8487   20.8064 C   0  0  0  0  0  0  0  0  0  0  0  0
  -23.4925   -9.2528   22.5256 C   0  0  0  0  0  0  0  0  0  0  0  0
  -26.1638  -15.3878   20.5635 C   0  0  0  0  0  0  0  0  0  0  0  0
  -25.3540  -17.7973   20.3488 C   0  0  0  0  0  0  0  0  0  0  0  0
  -22.0330  -33.9634   22.4228 C   0  0  0  0  0  0  0  0  0  0  0  0
  -24.4000  -28.2212   20.0567 C   0  0  0  0  0  0  0  0  0  0  0  0
  -22.9700  -32.9127   22.4456 C   0  0  0  0  0  0  0  0  0  0  0  0
  -24.8949  -27.2113   20.8941 C   0  0  0  0  0  0  0  0  0  0  0  0
  -25.8515  -12.6185   20.4363 C   0  0  0  0  0  0  0  0  0  0  0  0
  -27.0933  -27.4730   19.8897 C   0  0  0  0  0  0  0  0  0  0  0  0
  -24.5520  -10.7234   20.9281 C   0  0  0  0  0  0  0  0  0  0  0  0
  -22.2397   -9.6304   22.0423 C   0  0  0  0  0  0  0  0  0  0  0  0
  -24.6486   -9.7993   21.9685 C   0  0  0  0  0  0  0  0  0  0  0  0
  -26.3254  -16.8180   20.6300 C   0  0  0  0  0  0  0  0  0  0  0  0
  -25.9994  -18.9914   20.5586 C   0  0  0  0  0  0  0  0  0  0  0  0
  -23.9900  -17.6415   19.9352 C   0  0  0  0  0  0  0  0  0  0  0  0
  -22.6958  -29.2292   22.5434 C   0  0  0  0  0  0  0  0  0  0  0  0
  -21.5962  -26.1775   22.5305 C   0  0  0  0  0  0  0  0  0  0  0  0
  -22.1112  -22.9160   21.6680 C   0  0  0  0  0  0  0  0  0  0  0  0
  -30.3615  -22.2258   19.8191 C   0  0  0  0  0  0  0  0  0  0  0  0
  -30.9586  -25.3500   20.2837 C   0  0  0  0  0  0  0  0  0  0  0  0
  -20.7515  -33.9010   23.2156 C   0  0  0  0  0  0  0  0  0  0  0  0
  -22.9489  -28.6133   20.1118 C   0  0  0  0  0  0  0  0  0  0  0  0
  -24.0150  -26.5081   21.8940 C   0  0  0  0  0  0  0  0  0  0  0  0
  -20.3752  -32.4883   23.6548 C   0  0  0  0  0  0  0  0  0  0  0  0
  -30.4772  -19.9902   22.6797 C   0  0  0  0  0  0  0  0  0  0  0  0
  -21.5866  -31.7716   24.2428 C   0  0  0  0  0  0  0  0  0  0  0  0
  -29.3246  -19.0361   22.3656 C   0  0  0  0  0  0  0  0  0  0  0  0
  -31.2195  -20.4048   21.4119 C   0  0  0  0  0  0  0  0  0  0  0  0
  -29.1953  -20.0502   20.0466 C   0  0  0  0  0  0  0  0  0  0  0  0
  -22.7026  -31.6289   23.2009 C   0  0  1  0  0  0  0  0  0  0  0  0
  -22.2911  -28.2835   21.4482 C   0  0  1  0  0  0  0  0  0  0  0  0
  -28.3942  -19.6230   21.2889 C   0  0  1  0  0  0  0  0  0  0  0  0
  -21.0523  -20.6462   21.8240 C   0  0  0  0  0  0  0  0  0  0  0  0
  -22.3938  -26.0101   25.4709 C   0  0  0  0  0  0  0  0  0  0  0  0
  -22.2106  -23.5186   25.3067 C   0  0  0  0  0  0  0  0  0  0  0  0
  -20.1992  -24.9433   24.9229 C   0  0  0  0  0  0  0  0  0  0  0  0
  -21.9792  -22.6473   18.7236 C   0  0  0  0  0  0  0  0  0  0  0  0
  -30.6960  -27.8183   20.0090 C   0  0  0  0  0  0  0  0  0  0  0  0
  -29.3329  -28.1118   19.4082 C   0  0  0  0  0  0  0  0  0  1  0  0
  -22.0269  -24.8831   23.1771 C   0  0  1  0  0  0  0  0  0  0  0  0
  -21.2142  -21.9019   20.9814 C   0  0  2  0  0  0  0  0  0  0  0  0
  -21.7249  -24.8532   24.7020 C   0  0  0  0  0  0  0  0  0  0  0  0
  -27.4989  -17.3444   20.9906 N   0  0  0  0  0  0  0  0  0  0  0  0
  -27.2689  -18.6674   20.9374 N   0  0  0  0  0  0  0  0  0  0  0  0
  -22.6050  -26.9312   21.9141 N   0  0  0  0  0  0  0  0  0  0  0  0
  -30.2850  -20.9583   20.4216 N   0  0  0  0  0  0  0  0  0  0  0  0
  -25.5992  -20.2764   20.4539 N   0  0  0  0  0  0  0  0  0  0  0  0
  -23.4868  -16.3442   19.7672 N   0  0  0  0  0  0  0  0  0  0  0  0
  -22.4006  -30.5534   22.2809 N   0  0  0  0  0  0  0  0  0  0  0  0
  -21.3842  -23.8147   22.4196 N   0  0  0  0  0  0  0  0  0  0  0  0
  -31.4312  -23.0146   20.2118 N   0  0  0  0  0  0  0  0  0  0  0  0
  -31.2020  -26.5319   19.5895 N   0  0  0  0  0  0  0  0  0  0  0  0
  -31.5652  -24.2673   19.6600 N   0  0  0  0  0  0  0  0  0  0  0  0
  -21.7879  -21.5120   19.6624 N   0  3  0  0  0  0  0  0  0  0  0  0
  -23.2445  -18.6237   19.7050 O   0  0  0  0  0  0  0  0  0  0  0  0
  -23.2345  -28.7899   23.5526 O   0  0  0  0  0  0  0  0  0  0  0  0
  -20.4071  -26.5041   22.5646 O   0  0  0  0  0  0  0  0  0  0  0  0
  -23.3348  -22.9091   21.5523 O   0  0  0  0  0  0  0  0  0  0  0  0
  -29.5331  -22.6210   18.9909 O   0  0  0  0  0  0  0  0  0  0  0  0
  -30.2944  -25.2737   21.3169 O   0  0  0  0  0  0  0  0  0  0  0  0
  -25.6988  -11.2674   20.3746 O   0  0  0  0  0  0  0  0  0  0  0  0
  -28.4119  -27.1075   19.8139 O   0  0  0  0  0  0  0  0  0  1  0  0
  -21.1293   -9.1068   22.5781 F   0  0  0  0  0  0  0  0  0  0  0  0
  -25.8494   -9.4335   22.4378 F   0  0  0  0  0  0  0  0  0  0  0  0
  1  2  1  0  0  0  0
  1  5  2  0  0  0  0
  2  6  2  0  0  0  0
  3  8  2  0  0  0  0
  3 15  1  0  0  0  0
  4  9  1  0  0  0  0
  4 15  2  0  0  0  0
  5 17  1  0  0  0  0
  6 19  1  0  0  0  0
  7 10  2  0  0  0  0
  7 18  1  0  0  0  0
  8 21  1  0  0  0  0
  9 21  2  0  0  0  0
 10 22  1  0  0  0  0
 11 12  2  0  0  0  0
 11 23  1  0  0  0  0
 12 24  1  0  0  0  0
 13 20  1  0  0  0  0
 13 22  2  0  0  0  0
 14 24  2  0  0  0  0
 14 25  1  0  0  0  0
 15 26  1  0  0  0  0
 16 26  1  0  0  0  0
 16 27  2  0  0  0  0
 16 28  1  0  0  0  0
 17 19  2  0  0  0  0
 17 34  1  0  0  0  0
 18 20  2  0  0  0  0
 18 35  1  0  0  0  0
 19 43  1  0  0  0  0
 20 36  1  0  0  0  0
 21 74  1  0  0  0  0
 22 75  1  0  0  0  0
 23 25  2  0  0  0  0
 23 74  1  0  0  0  0
 24 76  1  0  0  0  0
 25 77  1  0  0  0  0
 26 56  2  0  0  0  0
 27 57  1  0  0  0  0
 27 60  1  0  0  0  0
 28 61  1  0  0  0  0
 28 68  2  0  0  0  0
 29 44  1  0  0  0  0
 29 62  1  0  0  0  0
 29 69  2  0  0  0  0
 30 53  1  0  0  0  0
 30 58  1  0  0  0  0
 30 70  2  0  0  0  0
 31 54  1  0  0  0  0
 31 63  1  0  0  0  0
 31 71  2  0  0  0  0
 32 59  1  0  0  0  0
 32 64  1  0  0  0  0
 32 72  2  0  0  0  0
 33 65  1  0  0  0  0
 33 66  1  0  0  0  0
 33 73  2  0  0  0  0
 34 37  1  0  0  0  0
 35 44  1  0  0  0  0
 36 58  1  0  0  0  0
 37 39  1  0  0  0  0
 38 40  1  0  0  0  0
 38 41  1  0  0  0  0
 39 43  1  0  0  0  0
 40 45  1  0  0  0  0
 41 59  1  0  0  0  0
 42 45  1  0  0  0  0
 42 59  1  0  0  0  0
 43 62  1  0  0  0  0
 44 58  1  0  0  0  0
 45 57  1  0  0  0  0
 46 54  1  0  0  0  0
 47 55  1  0  0  0  0
 48 55  1  0  0  0  0
 49 55  1  0  0  0  0
 50 67  1  0  0  0  0
 51 52  1  0  0  0  0
 51 65  1  0  0  0  0
 52 75  1  0  0  0  0
 53 55  1  0  0  0  0
 53 63  1  0  0  0  0
 54 67  1  0  0  0  0
 56 57  1  0  0  0  0
 64 66  1  0  0  0  0
M  CHG  1  67   1
M  ISO  4  32 100  52 101  64 100  75 101
M  END
> <Batch ID>
0003

> <Smiles>
CNC(C)C(=O)NC(C(=O)N1Cc2cc([101O:1][101CH2:1]CNC(=O)N[100NH:0][100C:0](=O)N3CCCC(n4nc(-c5ccc(Oc6ccc(F)cc6F)cc5)c(C(N)=O)c4N)C3)ccc2CC1C(=O)NC1CCCc2ccccc21)C(C)(C)C

> <Shape>
0.209

> <Color>
0.086

> <Negative vol penalty>
0.000

$$$$

  -OEChem-04052315213D

 75 82  0     1  0  0  0  0  0999 V2000
  -21.6576  -26.0082   22.2550 C   0  0  0  0  0  0  0  0  0  0  0  0
  -22.5356  -24.9529   22.0299 C   0  0  0  0  0  0  0  0  0  0  0  0
  -23.8221  -10.0103   22.1423 C   0  0  0  0  0  0  0  0  0  0  0  0
  -24.3934  -11.4271   24.0141 C   0  0  0  0  0  0  0  0  0  0  0  0
  -22.0394  -27.3110   21.9374 C   0  0  0  0  0  0  0  0  0  0  0  0
  -23.7956  -25.1996   21.4859 C   0  0  0  0  0  0  0  0  0  0  0  0
  -27.4742  -22.6745   23.8810 C   0  0  0  0  0  0  0  0  0  0  0  0
  -23.3018   -9.0598   23.0206 C   0  0  0  0  0  0  0  0  0  0  0  0
  -23.8731  -10.4766   24.8924 C   0  0  0  0  0  0  0  0  0  0  0  0
  -27.6174  -21.3207   23.5801 C   0  0  0  0  0  0  0  0  0  0  0  0
  -24.8491   -7.5351   26.2437 C   0  0  0  0  0  0  0  0  0  0  0  0
  -25.5983   -7.2219   27.3778 C   0  0  0  0  0  0  0  0  0  0  0  0
  -29.4494  -21.8491   22.1024 C   0  0  0  0  0  0  0  0  0  0  0  0
  -23.7739   -7.9504   28.7842 C   0  0  0  0  0  0  0  0  0  0  0  0
  -24.3679  -11.1940   22.6391 C   0  0  0  0  0  0  0  0  0  0  0  0
  -24.2169  -13.2470   21.1323 C   0  0  0  0  0  0  0  0  0  0  0  0
  -23.3083  -27.5750   21.3982 C   0  0  0  0  0  0  0  0  0  0  0  0
  -28.3119  -23.6285   23.2855 C   0  0  0  0  0  0  0  0  0  0  0  0
  -24.1942  -26.5070   21.1594 C   0  0  0  0  0  0  0  0  0  0  0  0
  -29.3165  -23.2141   22.3994 C   0  0  0  0  0  0  0  0  0  0  0  0
  -23.3273   -9.2929   24.3956 C   0  0  0  0  0  0  0  0  0  0  0  0
  -28.6032  -20.9081   22.6885 C   0  0  0  0  0  0  0  0  0  0  0  0
  -23.5623   -8.0560   26.3798 C   0  0  0  0  0  0  0  0  0  0  0  0
  -25.0607   -7.4295   28.6481 C   0  0  0  0  0  0  0  0  0  0  0  0
  -23.0247   -8.2636   27.6500 C   0  0  0  0  0  0  0  0  0  0  0  0
  -24.9060  -12.1760   21.7323 C   0  0  0  0  0  0  0  0  0  0  0  0
  -25.1651  -13.8790   20.3656 C   0  0  0  0  0  0  0  0  0  0  0  0
  -22.8425  -13.6357   21.2570 C   0  0  0  0  0  0  0  0  0  0  0  0
  -27.8632  -26.1195   21.3628 C   0  0  0  0  0  0  0  0  0  0  0  0
  -31.0302  -26.5937   21.8798 C   0  0  0  0  0  0  0  0  0  0  0  0
  -34.0557  -25.2690   22.7393 C   0  0  0  0  0  0  0  0  0  0  0  0
  -31.1355  -14.1863   20.6987 C   0  0  0  0  0  0  0  0  0  0  0  0
  -23.6583  -28.9942   21.0268 C   0  0  0  0  0  0  0  0  0  0  0  0
  -28.1620  -25.0822   23.6411 C   0  0  0  0  0  0  0  0  0  0  0  0
  -30.2547  -24.1964   21.7488 C   0  0  0  0  0  0  0  0  0  0  0  0
  -25.1521  -29.2144   20.8024 C   0  0  0  0  0  0  0  0  0  0  0  0
  -29.2021  -13.0226   17.9448 C   0  0  0  0  0  0  0  0  0  0  0  0
  -25.7287  -28.1085   19.9240 C   0  0  0  0  0  0  0  0  0  0  0  0
  -27.8196  -12.7703   18.5491 C   0  0  0  0  0  0  0  0  0  0  0  0
  -30.3192  -12.6648   18.9225 C   0  0  0  0  0  0  0  0  0  0  0  0
  -28.8331  -13.0581   20.8488 C   0  0  0  0  0  0  0  0  0  0  0  0
  -25.5789  -26.7373   20.5939 C   0  0  1  0  0  0  0  0  0  0  0  0
  -28.7355  -26.0186   22.5820 C   0  0  1  0  0  0  0  0  0  0  0  0
  -27.6733  -13.4569   19.9203 C   0  0  2  0  0  0  0  0  0  0  0  0
  -36.4673  -25.8955   23.0376 C   0  0  0  0  0  0  0  0  0  0  0  0
  -31.3900  -26.6419   18.8502 C   0  0  0  0  0  0  0  0  0  0  0  0
  -33.8462  -26.3127   19.2065 C   0  0  0  0  0  0  0  0  0  0  0  0
  -32.7232  -28.3590   20.0866 C   0  0  0  0  0  0  0  0  0  0  0  0
  -34.0184  -24.5131   25.6005 C   0  0  0  0  0  0  0  0  0  0  0  0
  -31.6127  -17.1488   22.1275 C   0  0  0  0  0  0  0  0  0  0  0  0
  -30.2124  -17.6705   22.4514 C   0  0  0  0  0  0  0  0  0  0  0  0
  -31.8074  -15.6961   22.5503 C   0  0  0  0  0  0  0  0  0  0  0  0
  -30.0554  -19.1337   22.0572 C   0  0  0  0  0  0  0  0  0  1  0  0
  -32.3032  -26.1339   21.2112 C   0  0  1  0  0  0  0  0  0  0  0  0
  -35.1174  -25.7346   23.7193 C   0  0  2  0  0  0  0  0  0  0  0  0
  -32.5469  -26.8433   19.8492 C   0  0  0  0  0  0  0  0  0  0  0  0
  -26.1927  -12.1272   21.3772 N   0  0  0  0  0  0  0  0  0  0  0  0
  -26.3196  -13.1754   20.5457 N   0  0  0  0  0  0  0  0  0  0  0  0
  -30.0641  -25.6073   22.1236 N   0  0  0  0  0  0  0  0  0  0  0  0
  -30.1222  -13.3497   20.2023 N   0  0  0  0  0  0  0  0  0  0  0  0
  -25.1157  -14.9623   19.5616 N   0  0  0  0  0  0  0  0  0  0  0  0
  -22.0059  -12.8763   22.0863 N   0  0  0  0  0  0  0  0  0  0  0  0
  -26.5815  -26.5654   21.6233 N   0  0  0  0  0  0  0  0  0  0  0  0
  -33.3704  -26.3301   22.1864 N   0  0  0  0  0  0  0  0  0  0  0  0
  -30.8653  -14.8020   21.9147 N   0  0  0  0  0  0  0  0  0  0  0  0
  -35.2654  -24.7508   24.8288 N   0  3  0  0  0  0  0  0  0  0  0  0
  -22.3663  -14.6175   20.6382 O   0  0  0  0  0  0  0  0  0  0  0  0
  -28.3196  -25.8167   20.2665 O   0  0  0  0  0  0  0  0  0  0  0  0
  -30.9009  -27.7828   22.1813 O   0  0  0  0  0  0  0  0  0  0  0  0
  -33.8568  -24.0828   22.4866 O   0  0  0  0  0  0  0  0  0  0  0  0
  -32.1998  -14.3751   20.0998 O   0  0  0  0  0  0  0  0  0  0  0  0
  -22.8195   -8.3657   25.2529 O   0  0  0  0  0  0  0  0  0  0  0  0
  -28.7447  -19.5874   22.3925 O   0  0  0  0  0  0  0  0  0  1  0  0
  -25.7797   -7.1273   29.7370 F   0  0  0  0  0  0  0  0  0  0  0  0
  -21.7886   -8.7626   27.7871 F   0  0  0  0  0  0  0  0  0  0  0  0
  1  2  1  0  0  0  0
  1  5  2  0  0  0  0
  2  6  2  0  0  0  0
  3  8  2  0  0  0  0
  3 15  1  0  0  0  0
  4  9  1  0  0  0  0
  4 15  2  0  0  0  0
  5 17  1  0  0  0  0
  6 19  1  0  0  0  0
  7 10  2  0  0  0  0
  7 18  1  0  0  0  0
  8 21  1  0  0  0  0
  9 21  2  0  0  0  0
 10 22  1  0  0  0  0
 11 12  2  0  0  0  0
 11 23  1  0  0  0  0
 12 24  1  0  0  0  0
 13 20  1  0  0  0  0
 13 22  2  0  0  0  0
 14 24  2  0  0  0  0
 14 25  1  0  0  0  0
 15 26  1  0  0  0  0
 16 26  1  0  0  0  0
 16 27  2  0  0  0  0
 16 28  1  0  0  0  0
 17 19  2  0  0  0  0
 17 33  1  0  0  0  0
 18 20  2  0  0  0  0
 18 34  1  0  0  0  0
 19 42  1  0  0  0  0
 20 35  1  0  0  0  0
 21 72  1  0  0  0  0
 22 73  1  0  0  0  0
 23 25  2  0  0  0  0
 23 72  1  0  0  0  0
 24 74  1  0  0  0  0
 25 75  1  0  0  0  0
 26 57  2  0  0  0  0
 27 58  1  0  0  0  0
 27 61  1  0  0  0  0
 28 62  1  0  0  0  0
 28 67  2  0  0  0  0
 29 43  1  0  0  0  0
 29 63  1  0  0  0  0
 29 68  2  0  0  0  0
 30 54  1  0  0  0  0
 30 59  1  0  0  0  0
 30 69  2  0  0  0  0
 31 55  1  0  0  0  0
 31 64  1  0  0  0  0
 31 70  2  0  0  0  0
 32 60  1  0  0  0  0
 32 65  1  0  0  0  0
 32 71  2  0  0  0  0
 33 36  1  0  0  0  0
 34 43  1  0  0  0  0
 35 59  1  0  0  0  0
 36 38  1  0  0  0  0
 37 39  1  0  0  0  0
 37 40  1  0  0  0  0
 38 42  1  0  0  0  0
 39 44  1  0  0  0  0
 40 60  1  0  0  0  0
 41 44  1  0  0  0  0
 41 60  1  0  0  0  0
 42 63  1  0  0  0  0
 43 59  1  0  0  0  0
 44 58  1  0  0  0  0
 45 55  1  0  0  0  0
 46 56  1  0  0  0  0
 47 56  1  0  0  0  0
 48 56  1  0  0  0  0
 49 66  1  0  0  0  0
 50 51  1  0  0  0  0
 50 52  1  0  0  0  0
 51 53  1  0  0  0  0
 52 65  1  0  0  0  0
 53 73  1  0  0  0  0
 54 56  1  0  0  0  0
 54 64  1  0  0  0  0
 55 66  1  0  0  0  0
 57 58  1  0  0  0  0
M  CHG  1  66   1
M  ISO  4  32 100  53 101  65 100  73 101
M  END
> <Batch ID>
0003

> <Smiles>
CNC(C)C(=O)NC(C(=O)N1Cc2cc([101O:1][101CH2:1]CCC[100NH:0][100C:0](=O)N3CCCC(n4nc(-c5ccc(Oc6ccc(F)cc6F)cc5)c(C(N)=O)c4N)C3)ccc2CC1C(=O)NC1CCCc2ccccc21)C(C)(C)C

> <Shape>
0.193

> <Color>
0.131

> <Negative vol penalty>
0.000

$$$$

  -OEChem-04052315213D

 83 91  0     1  0  0  0  0  0999 V2000
  -31.2079  -34.0442   30.6690 C   0  0  0  0  0  0  0  0  0  0  0  0
  -30.6062  -32.8634   30.2459 C   0  0  0  0  0  0  0  0  0  0  0  0
  -32.6037  -17.6323   23.4066 C   0  0  0  0  0  0  0  0  0  0  0  0
  -23.0910   -9.8893   19.9830 C   0  0  0  0  0  0  0  0  0  0  0  0
  -23.8222   -9.9605   22.2846 C   0  0  0  0  0  0  0  0  0  0  0  0
  -30.7078  -35.2728   30.2396 C   0  0  0  0  0  0  0  0  0  0  0  0
  -29.5033  -32.9105   29.3940 C   0  0  0  0  0  0  0  0  0  0  0  0
  -29.8302  -29.5659   25.6057 C   0  0  0  0  0  0  0  0  0  0  0  0
  -32.0294  -16.7226   22.5188 C   0  0  0  0  0  0  0  0  0  0  0  0
  -31.7944  -18.5163   24.1201 C   0  0  0  0  0  0  0  0  0  0  0  0
  -22.3468   -8.7414   20.2550 C   0  0  0  0  0  0  0  0  0  0  0  0
  -23.0779   -8.8126   22.5566 C   0  0  0  0  0  0  0  0  0  0  0  0
  -29.5346  -28.2362   25.9030 C   0  0  0  0  0  0  0  0  0  0  0  0
  -19.3825   -7.9767   21.6906 C   0  0  0  0  0  0  0  0  0  0  0  0
  -18.0819   -7.9139   21.1906 C   0  0  0  0  0  0  0  0  0  0  0  0
  -27.3300  -28.5233   24.9667 C   0  0  0  0  0  0  0  0  0  0  0  0
  -29.8363  -17.5810   23.0579 C   0  0  0  0  0  0  0  0  0  0  0  0
  -18.6625   -5.9371   19.9287 C   0  0  0  0  0  0  0  0  0  0  0  0
  -23.8288  -10.4988   20.9979 C   0  0  0  0  0  0  0  0  0  0  0  0
  -24.1663  -13.0207   20.8135 C   0  0  0  0  0  0  0  0  0  0  0  0
  -29.6042  -35.3348   29.3743 C   0  0  0  0  0  0  0  0  0  0  0  0
  -28.8725  -30.3887   24.9955 C   0  0  0  0  0  0  0  0  0  0  0  0
  -28.9871  -34.1412   28.9537 C   0  0  0  0  0  0  0  0  0  0  0  0
  -27.6168  -29.8623   24.6604 C   0  0  0  0  0  0  0  0  0  0  0  0
  -30.6457  -16.6969   22.3444 C   0  0  0  0  0  0  0  0  0  0  0  0
  -22.3402   -8.2031   21.5417 C   0  0  0  0  0  0  0  0  0  0  0  0
  -28.2834  -27.7155   25.5861 C   0  0  0  0  0  0  0  0  0  0  0  0
  -30.4107  -18.4907   23.9458 C   0  0  0  0  0  0  0  0  0  0  0  0
  -20.3232   -7.0198   21.3096 C   0  0  0  0  0  0  0  0  0  0  0  0
  -17.7218   -6.8941   20.3097 C   0  0  0  0  0  0  0  0  0  0  0  0
  -19.9631   -6.0000   20.4287 C   0  0  0  0  0  0  0  0  0  0  0  0
  -24.5983  -11.6843   20.7174 C   0  0  0  0  0  0  0  0  0  0  0  0
  -25.2612  -13.7629   20.4436 C   0  0  0  0  0  0  0  0  0  0  0  0
  -22.8895  -13.5443   21.2025 C   0  0  0  0  0  0  0  0  0  0  0  0
  -27.3576  -33.0590   25.8190 C   0  0  0  0  0  0  0  0  0  0  0  0
  -26.2257  -32.8907   22.7837 C   0  0  0  0  0  0  0  0  0  0  0  0
  -25.5100  -30.9612   20.0613 C   0  0  0  0  0  0  0  0  0  0  0  0
  -30.7224  -14.8273   20.6578 C   0  0  0  0  0  0  0  0  0  0  0  0
  -29.0700  -36.6875   28.9748 C   0  0  0  0  0  0  0  0  0  0  0  0
  -29.2162  -31.8134   24.6571 C   0  0  0  0  0  0  0  0  0  0  0  0
  -26.5607  -30.6983   23.9864 C   0  0  0  0  0  0  0  0  0  0  0  0
  -28.1296  -36.6404   27.7733 C   0  0  0  0  0  0  0  0  0  0  0  0
  -29.6432  -12.3471   18.3423 C   0  0  0  0  0  0  0  0  0  0  0  0
  -27.1112  -35.5164   27.9361 C   0  0  0  0  0  0  0  0  0  0  0  0
  -28.1990  -12.0635   18.7617 C   0  0  0  0  0  0  0  0  0  0  0  0
  -30.5427  -12.6109   19.5486 C   0  0  0  0  0  0  0  0  0  0  0  0
  -28.6170  -13.3675   20.8858 C   0  0  0  0  0  0  0  0  0  0  0  0
  -27.8042  -34.1505   28.0099 C   0  0  1  0  0  0  0  0  0  0  0  0
  -27.9872  -32.7038   24.5018 C   0  0  1  0  0  0  0  0  0  0  0  0
  -27.6593  -13.1598   19.7011 C   0  0  2  0  0  0  0  0  0  0  0  0
  -24.5581  -31.1002   17.7435 C   0  0  0  0  0  0  0  0  0  0  0  0
  -23.4154  -33.1017   23.9531 C   0  0  0  0  0  0  0  0  0  0  0  0
  -22.5177  -32.2921   21.7607 C   0  0  0  0  0  0  0  0  0  0  0  0
  -23.7825  -34.4393   21.8721 C   0  0  0  0  0  0  0  0  0  0  0  0
  -28.0336  -30.0096   18.8426 C   0  0  0  0  0  0  0  0  0  0  0  0
  -29.6218  -23.0354   25.4234 C   0  0  0  0  0  0  0  0  0  0  0  0
  -28.5439  -24.1178   25.4853 C   0  0  0  0  0  0  0  0  0  0  0  0
  -29.0728  -21.6535   25.0726 C   0  0  0  0  0  0  0  0  0  0  0  0
  -29.0772  -25.4916   25.8687 C   0  0  0  0  0  0  0  0  0  1  0  0
  -30.1841  -20.6156   24.9894 C   0  0  0  0  0  0  0  0  0  0  0  0
  -25.0272  -32.2531   22.1234 C   0  0  1  0  0  0  0  0  0  0  0  0
  -25.8228  -31.1436   18.5871 C   0  0  2  0  0  0  0  0  0  0  0  0
  -23.7047  -33.0061   22.4418 C   0  0  0  0  0  0  0  0  0  0  0  0
  -25.8685  -11.5805   20.3177 N   0  0  0  0  0  0  0  0  0  0  0  0
  -26.2441  -12.8611   20.1592 N   0  0  0  0  0  0  0  0  0  0  0  0
  -26.9425  -32.0871   23.6816 N   0  0  0  0  0  0  0  0  0  0  0  0
  -29.9704  -13.6637   20.3906 N   0  0  0  0  0  0  0  0  0  0  0  0
  -25.4695  -15.0925   20.3371 N   0  0  0  0  0  0  0  0  0  0  0  0
  -21.8756  -12.6420   21.5517 N   0  0  0  0  0  0  0  0  0  0  0  0
  -30.0627  -15.7725   21.4426 N   0  0  0  0  0  0  0  0  0  0  0  0
  -28.2064  -33.7159   26.6893 N   0  0  0  0  0  0  0  0  0  0  0  0
  -25.3405  -32.1709   20.7009 N   0  0  0  0  0  0  0  0  0  0  0  0
  -26.7396  -30.0677   18.1151 N   0  3  0  0  0  0  0  0  0  0  0  0
  -22.6498  -14.7754   21.2234 O   0  0  0  0  0  0  0  0  0  0  0  0
  -26.1878  -32.7606   26.0295 O   0  0  0  0  0  0  0  0  0  0  0  0
  -26.5195  -34.0565   22.5073 O   0  0  0  0  0  0  0  0  0  0  0  0
  -25.4211  -29.8560   20.5916 O   0  0  0  0  0  0  0  0  0  0  0  0
  -31.8568  -14.9862   20.1998 O   0  0  0  0  0  0  0  0  0  0  0  0
  -21.6138   -7.0831   21.8075 O   0  0  0  0  0  0  0  0  0  0  0  0
  -27.9920  -26.4182   25.8758 O   0  0  0  0  0  0  0  0  0  1  0  0
  -29.6152  -19.3595   24.6468 O   0  0  0  0  0  0  0  0  0  0  0  0
  -16.4724   -6.8330   19.8308 F   0  0  0  0  0  0  0  0  0  0  0  0
  -20.8622   -5.0772   20.0600 F   0  0  0  0  0  0  0  0  0  0  0  0
  1  2  1  0  0  0  0
  1  6  2  0  0  0  0
  2  7  2  0  0  0  0
  3  9  1  0  0  0  0
  3 10  2  0  0  0  0
  4 11  2  0  0  0  0
  4 19  1  0  0  0  0
  5 12  1  0  0  0  0
  5 19  2  0  0  0  0
  6 21  1  0  0  0  0
  7 23  1  0  0  0  0
  8 13  2  0  0  0  0
  8 22  1  0  0  0  0
  9 25  2  0  0  0  0
 10 28  1  0  0  0  0
 11 26  1  0  0  0  0
 12 26  2  0  0  0  0
 13 27  1  0  0  0  0
 14 15  2  0  0  0  0
 14 29  1  0  0  0  0
 15 30  1  0  0  0  0
 16 24  1  0  0  0  0
 16 27  2  0  0  0  0
 17 25  1  0  0  0  0
 17 28  2  0  0  0  0
 18 30  2  0  0  0  0
 18 31  1  0  0  0  0
 19 32  1  0  0  0  0
 20 32  1  0  0  0  0
 20 33  2  0  0  0  0
 20 34  1  0  0  0  0
 21 23  2  0  0  0  0
 21 39  1  0  0  0  0
 22 24  2  0  0  0  0
 22 40  1  0  0  0  0
 23 48  1  0  0  0  0
 24 41  1  0  0  0  0
 25 70  1  0  0  0  0
 26 79  1  0  0  0  0
 27 80  1  0  0  0  0
 28 81  1  0  0  0  0
 29 31  2  0  0  0  0
 29 79  1  0  0  0  0
 30 82  1  0  0  0  0
 31 83  1  0  0  0  0
 32 64  2  0  0  0  0
 33 65  1  0  0  0  0
 33 68  1  0  0  0  0
 34 69  1  0  0  0  0
 34 74  2  0  0  0  0
 35 49  1  0  0  0  0
 35 71  1  0  0  0  0
 35 75  2  0  0  0  0
 36 61  1  0  0  0  0
 36 66  1  0  0  0  0
 36 76  2  0  0  0  0
 37 62  1  0  0  0  0
 37 72  1  0  0  0  0
 37 77  2  0  0  0  0
 38 67  1  0  0  0  0
 38 70  1  0  0  0  0
 38 78  2  0  0  0  0
 39 42  1  0  0  0  0
 40 49  1  0  0  0  0
 41 66  1  0  0  0  0
 42 44  1  0  0  0  0
 43 45  1  0  0  0  0
 43 46  1  0  0  0  0
 44 48  1  0  0  0  0
 45 50  1  0  0  0  0
 46 67  1  0  0  0  0
 47 50  1  0  0  0  0
 47 67  1  0  0  0  0
 48 71  1  0  0  0  0
 49 66  1  0  0  0  0
 50 65  1  0  0  0  0
 51 62  1  0  0  0  0
 52 63  1  0  0  0  0
 53 63  1  0  0  0  0
 54 63  1  0  0  0  0
 55 73  1  0  0  0  0
 56 57  1  0  0  0  0
 56 58  1  0  0  0  0
 57 59  1  0  0  0  0
 58 60  1  0  0  0  0
 59 80  1  0  0  0  0
 60 81  1  0  0  0  0
 61 63  1  0  0  0  0
 61 72  1  0  0  0  0
 62 73  1  0  0  0  0
 64 65  1  0  0  0  0
M  CHG  1  73   1
M  ISO  4  38 100  59 101  70 100  80 101
M  END
> <Batch ID>
0003

> <Smiles>
CNC(C)C(=O)NC(C(=O)N1Cc2cc([101O:1][101CH2:1]CCCCOc3cccc([100NH:0][100C:0](=O)N4CCCC(n5nc(-c6ccc(Oc7ccc(F)cc7F)cc6)c(C(N)=O)c5N)C4)c3)ccc2CC1C(=O)NC1CCCc2ccccc21)C(C)(C)C

> <Shape>
0.246

> <Color>
0.207

> <Negative vol penalty>
0.000

$$$$

  -OEChem-04052315213D

 85 92  0     1  0  0  0  0  0999 V2000
  -19.2337  -15.0322   33.8695 C   0  0  0  0  0  0  0  0  0  0  0  0
  -19.3717  -15.4308   32.5438 C   0  0  0  0  0  0  0  0  0  0  0  0
  -23.2866   -9.8000   19.9128 C   0  0  0  0  0  0  0  0  0  0  0  0
  -23.7343   -9.9421   22.2827 C   0  0  0  0  0  0  0  0  0  0  0  0
  -20.3467  -14.5878   34.5820 C   0  0  0  0  0  0  0  0  0  0  0  0
  -20.6230  -15.3862   31.9301 C   0  0  0  0  0  0  0  0  0  0  0  0
  -21.8023  -14.0802   26.0642 C   0  0  0  0  0  0  0  0  0  0  0  0
  -22.5595   -8.6279   20.1204 C   0  0  0  0  0  0  0  0  0  0  0  0
  -23.0072   -8.7700   22.4904 C   0  0  0  0  0  0  0  0  0  0  0  0
  -22.0529  -14.8875   24.9555 C   0  0  0  0  0  0  0  0  0  0  0  0
  -19.4472   -7.0795   20.8011 C   0  0  0  0  0  0  0  0  0  0  0  0
  -18.0802   -7.2013   21.0506 C   0  0  0  0  0  0  0  0  0  0  0  0
  -24.4248  -14.6183   25.3032 C   0  0  0  0  0  0  0  0  0  0  0  0
  -18.5255   -7.3432   23.4210 C   0  0  0  0  0  0  0  0  0  0  0  0
  -23.8741  -10.4571   20.9940 C   0  0  0  0  0  0  0  0  0  0  0  0
  -24.1347  -12.9869   20.7940 C   0  0  0  0  0  0  0  0  0  0  0  0
  -21.6105  -14.5286   33.9738 C   0  0  0  0  0  0  0  0  0  0  0  0
  -22.8629  -13.5438   26.8084 C   0  0  0  0  0  0  0  0  0  0  0  0
  -21.7542  -14.9419   32.6356 C   0  0  0  0  0  0  0  0  0  0  0  0
  -24.1849  -13.8023   26.4193 C   0  0  0  0  0  0  0  0  0  0  0  0
  -22.4198   -8.1129   21.4092 C   0  0  0  0  0  0  0  0  0  0  0  0
  -23.3643  -15.1591   24.5766 C   0  0  0  0  0  0  0  0  0  0  0  0
  -20.3533   -7.0895   21.8616 C   0  0  0  0  0  0  0  0  0  0  0  0
  -17.6194   -7.3332   22.3605 C   0  0  0  0  0  0  0  0  0  0  0  0
  -19.8925   -7.2214   23.1715 C   0  0  0  0  0  0  0  0  0  0  0  0
  -24.6257  -11.6676   20.7801 C   0  0  0  0  0  0  0  0  0  0  0  0
  -25.2368  -13.7662   20.5399 C   0  0  0  0  0  0  0  0  0  0  0  0
  -22.8015  -13.4652   21.0167 C   0  0  0  0  0  0  0  0  0  0  0  0
  -23.8601  -13.8212   29.8138 C   0  0  0  0  0  0  0  0  0  0  0  0
  -25.9591  -11.5154   28.9195 C   0  0  0  0  0  0  0  0  0  0  0  0
  -28.9804  -17.0836   25.5648 C   0  0  0  0  0  0  0  0  0  0  0  0
  -27.6587   -9.9643   26.3992 C   0  0  0  0  0  0  0  0  0  0  0  0
  -31.1064  -12.9214   21.3678 C   0  0  0  0  0  0  0  0  0  0  0  0
  -22.7930  -14.0858   34.7987 C   0  0  0  0  0  0  0  0  0  0  0  0
  -22.5757  -12.6529   27.9858 C   0  0  0  0  0  0  0  0  0  0  0  0
  -25.3588  -13.2341   27.1727 C   0  0  0  0  0  0  0  0  0  0  0  0
  -24.0145  -13.7144   33.9618 C   0  0  0  0  0  0  0  0  0  0  0  0
  -29.4618  -13.6594   18.2974 C   0  0  0  0  0  0  0  0  0  0  0  0
  -24.2741  -14.7746   32.8963 C   0  0  0  0  0  0  0  0  0  0  0  0
  -27.9916  -13.3516   18.5868 C   0  0  0  0  0  0  0  0  0  0  0  0
  -30.3938  -12.6801   19.0077 C   0  0  0  0  0  0  0  0  0  0  0  0
  -28.7047  -12.2526   20.7506 C   0  0  0  0  0  0  0  0  0  0  0  0
  -23.0905  -14.8845   31.9275 C   0  0  1  0  0  0  0  0  0  0  0  0
  -23.7336  -12.5801   28.9764 C   0  0  1  0  0  0  0  0  0  0  0  0
  -27.7279  -13.2477   20.1010 C   0  0  2  0  0  0  0  0  0  0  0  0
  -29.1364   -8.2686   25.2863 C   0  0  0  0  0  0  0  0  0  0  0  0
  -28.1922  -13.3296   29.9356 C   0  0  0  0  0  0  0  0  0  0  0  0
  -29.8217  -11.9230   28.6572 C   0  0  0  0  0  0  0  0  0  0  0  0
  -28.4771  -10.9094   30.4977 C   0  0  0  0  0  0  0  0  0  0  0  0
  -25.3872   -8.1289   25.9190 C   0  0  0  0  0  0  0  0  0  0  0  0
  -30.3342  -16.5517   25.1230 C   0  0  0  0  0  0  0  0  0  0  0  0
  -30.3067  -15.0900   24.6772 C   0  0  0  0  0  0  0  0  0  0  0  0
  -31.6730  -14.6101   24.1717 C   0  0  0  0  0  0  0  0  0  0  0  0
  -27.6567  -20.3983   25.5327 C   0  0  0  0  0  0  0  0  0  0  0  0
  -24.6261  -17.9869   22.6997 C   0  0  0  0  0  0  0  0  0  0  0  0
  -31.6652  -13.1366   23.7763 C   0  0  0  0  0  0  0  0  0  0  0  0
  -27.9154  -19.1757   26.4033 C   0  0  0  0  0  0  0  0  0  0  0  0
  -27.3657  -20.0386   24.0807 C   0  0  0  0  0  0  0  0  0  0  0  0
  -24.8138  -16.7160   23.5133 C   0  0  0  0  0  0  0  0  0  1  0  0
  -25.8751  -18.8543   22.7031 C   0  0  0  0  0  0  0  0  0  0  0  0
  -27.3436  -11.5051   28.3177 C   0  0  1  0  0  0  0  0  0  0  0  0
  -27.8533   -8.4950   26.0707 C   0  0  2  0  0  0  0  0  0  0  0  0
  -28.4368  -11.9292   29.3388 C   0  0  0  0  0  0  0  0  0  0  0  0
  -25.9376  -11.6083   20.5363 N   0  0  0  0  0  0  0  0  0  0  0  0
  -26.2803  -12.9000   20.3946 N   0  0  0  0  0  0  0  0  0  0  0  0
  -25.0265  -12.3740   28.3204 N   0  0  0  0  0  0  0  0  0  0  0  0
  -30.0926  -12.6298   20.4404 N   0  0  0  0  0  0  0  0  0  0  0  0
  -25.4054  -15.1009   20.4288 N   0  0  0  0  0  0  0  0  0  0  0  0
  -21.7883  -12.5288   21.2635 N   0  0  0  0  0  0  0  0  0  0  0  0
  -23.1132  -13.7942   30.9761 N   0  0  0  0  0  0  0  0  0  0  0  0
  -29.0526  -18.4156   25.9613 N   0  0  0  0  0  0  0  0  0  0  0  0
  -27.5349  -10.1721   27.7566 N   0  0  0  0  0  0  0  0  0  0  0  0
  -30.7349  -12.8570   22.7052 N   0  0  0  0  0  0  0  0  0  0  0  0
  -26.7105   -7.9901   25.2583 N   0  3  0  0  0  0  0  0  0  0  0  0
  -22.5141  -14.6857   20.9812 O   0  0  0  0  0  0  0  0  0  0  0  0
  -24.5829  -14.7350   29.4342 O   0  0  0  0  0  0  0  0  0  0  0  0
  -25.7122  -10.7832   29.8810 O   0  0  0  0  0  0  0  0  0  0  0  0
  -27.9541  -16.4098   25.5454 O   0  0  0  0  0  0  0  0  0  0  0  0
  -27.6240  -10.8405   25.5379 O   0  0  0  0  0  0  0  0  0  0  0  0
  -32.2559  -13.2226   21.0290 O   0  0  0  0  0  0  0  0  0  0  0  0
  -21.7101   -6.9693   21.6122 O   0  0  0  0  0  0  0  0  0  0  0  0
  -23.6117  -15.9473   23.4952 O   0  0  0  0  0  0  0  0  0  1  0  0
  -26.2011  -19.2253   24.0356 O   0  0  0  0  0  0  0  0  0  0  0  0
  -16.3068   -7.4516   22.5998 F   0  0  0  0  0  0  0  0  0  0  0  0
  -20.7582   -7.2329   24.1942 F   0  0  0  0  0  0  0  0  0  0  0  0
  1  2  1  0  0  0  0
  1  5  2  0  0  0  0
  2  6  2  0  0  0  0
  3  8  2  0  0  0  0
  3 15  1  0  0  0  0
  4  9  1  0  0  0  0
  4 15  2  0  0  0  0
  5 17  1  0  0  0  0
  6 19  1  0  0  0  0
  7 10  2  0  0  0  0
  7 18  1  0  0  0  0
  8 21  1  0  0  0  0
  9 21  2  0  0  0  0
 10 22  1  0  0  0  0
 11 12  2  0  0  0  0
 11 23  1  0  0  0  0
 12 24  1  0  0  0  0
 13 20  1  0  0  0  0
 13 22  2  0  0  0  0
 14 24  2  0  0  0  0
 14 25  1  0  0  0  0
 15 26  1  0  0  0  0
 16 26  1  0  0  0  0
 16 27  2  0  0  0  0
 16 28  1  0  0  0  0
 17 19  2  0  0  0  0
 17 34  1  0  0  0  0
 18 20  2  0  0  0  0
 18 35  1  0  0  0  0
 19 43  1  0  0  0  0
 20 36  1  0  0  0  0
 21 81  1  0  0  0  0
 22 82  1  0  0  0  0
 23 25  2  0  0  0  0
 23 81  1  0  0  0  0
 24 84  1  0  0  0  0
 25 85  1  0  0  0  0
 26 64  2  0  0  0  0
 27 65  1  0  0  0  0
 27 68  1  0  0  0  0
 28 69  1  0  0  0  0
 28 75  2  0  0  0  0
 29 44  1  0  0  0  0
 29 70  1  0  0  0  0
 29 76  2  0  0  0  0
 30 61  1  0  0  0  0
 30 66  1  0  0  0  0
 30 77  2  0  0  0  0
 31 51  1  0  0  0  0
 31 71  1  0  0  0  0
 31 78  2  0  0  0  0
 32 62  1  0  0  0  0
 32 72  1  0  0  0  0
 32 79  2  0  0  0  0
 33 67  1  0  0  0  0
 33 73  1  0  0  0  0
 33 80  2  0  0  0  0
 34 37  1  0  0  0  0
 35 44  1  0  0  0  0
 36 66  1  0  0  0  0
 37 39  1  0  0  0  0
 38 40  1  0  0  0  0
 38 41  1  0  0  0  0
 39 43  1  0  0  0  0
 40 45  1  0  0  0  0
 41 67  1  0  0  0  0
 42 45  1  0  0  0  0
 42 67  1  0  0  0  0
 43 70  1  0  0  0  0
 44 66  1  0  0  0  0
 45 65  1  0  0  0  0
 46 62  1  0  0  0  0
 47 63  1  0  0  0  0
 48 63  1  0  0  0  0
 49 63  1  0  0  0  0
 50 74  1  0  0  0  0
 51 52  1  0  0  0  0
 52 53  1  0  0  0  0
 53 56  1  0  0  0  0
 54 57  1  0  0  0  0
 54 58  1  0  0  0  0
 55 59  1  0  0  0  0
 55 60  1  0  0  0  0
 56 73  1  0  0  0  0
 57 71  1  0  0  0  0
 58 83  1  0  0  0  0
 59 82  1  0  0  0  0
 60 83  1  0  0  0  0
 61 63  1  0  0  0  0
 61 72  1  0  0  0  0
 62 74  1  0  0  0  0
 64 65  1  0  0  0  0
M  CHG  1  74   1
M  ISO  4  33 100  59 101  73 100  82 101
M  END
> <Batch ID>
0003

> <Smiles>
CNC(C)C(=O)NC(C(=O)N1Cc2cc([101O:1][101CH2:1]CCOCCCNC(=O)CCCC[100NH:0][100C:0](=O)N3CCCC(n4nc(-c5ccc(Oc6ccc(F)cc6F)cc5)c(C(N)=O)c4N)C3)ccc2CC1C(=O)NC1CCCc2ccccc21)C(C)(C)C

> <Shape>
0.124

> <Color>
0.174

> <Negative vol penalty>
0.000

$$$$

  -OEChem-04052315213D

 89 97  0     1  0  0  0  0  0999 V2000
  -36.3216  -16.4469   15.4293 C   0  0  0  0  0  0  0  0  0  0  0  0
  -35.5644  -15.2882   15.5688 C   0  0  0  0  0  0  0  0  0  0  0  0
  -24.5595  -29.9723   20.5006 C   0  0  0  0  0  0  0  0  0  0  0  0
  -24.6356  -28.4752   22.3953 C   0  0  0  0  0  0  0  0  0  0  0  0
  -36.3241  -17.4031   16.4440 C   0  0  0  0  0  0  0  0  0  0  0  0
  -34.8100  -15.0846   16.7238 C   0  0  0  0  0  0  0  0  0  0  0  0
  -27.1652  -13.6899   17.5231 C   0  0  0  0  0  0  0  0  0  0  0  0
  -22.3529  -20.6927   21.7739 C   0  0  0  0  0  0  0  0  0  0  0  0
  -20.7110  -20.1669   20.0813 C   0  0  0  0  0  0  0  0  0  0  0  0
  -24.1623  -31.0136   21.3393 C   0  0  0  0  0  0  0  0  0  0  0  0
  -24.2384  -29.5166   23.2340 C   0  0  0  0  0  0  0  0  0  0  0  0
  -25.8015  -13.5949   17.8014 C   0  0  0  0  0  0  0  0  0  0  0  0
  -21.7403  -19.7940   22.6472 C   0  0  0  0  0  0  0  0  0  0  0  0
  -20.0985  -19.2682   20.9546 C   0  0  0  0  0  0  0  0  0  0  0  0
  -23.4776  -34.1543   23.0371 C   0  0  0  0  0  0  0  0  0  0  0  0
  -24.1009  -35.3915   22.8748 C   0  0  0  0  0  0  0  0  0  0  0  0
  -26.1611  -14.6141   19.9647 C   0  0  0  0  0  0  0  0  0  0  0  0
  -26.2385  -34.3791   23.3675 C   0  0  0  0  0  0  0  0  0  0  0  0
  -24.7961  -28.7031   21.0285 C   0  0  0  0  0  0  0  0  0  0  0  0
  -26.5228  -27.2635   19.8228 C   0  0  0  0  0  0  0  0  0  0  0  0
  -35.5618  -17.2155   17.6077 C   0  0  0  0  0  0  0  0  0  0  0  0
  -28.0308  -14.2621   18.4594 C   0  0  0  0  0  0  0  0  0  0  0  0
  -34.8033  -16.0386   17.7556 C   0  0  0  0  0  0  0  0  0  0  0  0
  -27.5261  -14.7233   19.6864 C   0  0  0  0  0  0  0  0  0  0  0  0
  -21.8382  -20.8792   20.4909 C   0  0  0  0  0  0  0  0  0  0  0  0
  -24.0018  -30.7858   22.7060 C   0  0  0  0  0  0  0  0  0  0  0  0
  -20.6132  -19.0818   22.2376 C   0  0  0  0  0  0  0  0  0  0  0  0
  -25.3007  -14.0557   19.0193 C   0  0  0  0  0  0  0  0  0  0  0  0
  -24.2347  -33.0295   23.3647 C   0  0  0  0  0  0  0  0  0  0  0  0
  -25.4814  -35.5039   23.0399 C   0  0  0  0  0  0  0  0  0  0  0  0
  -25.6152  -33.1419   23.5299 C   0  0  0  0  0  0  0  0  0  0  0  0
  -25.2058  -27.6268   20.1626 C   0  0  0  0  0  0  0  0  0  0  0  0
  -26.3760  -26.1886   18.9805 C   0  0  0  0  0  0  0  0  0  0  0  0
  -27.7675  -27.8455   20.2321 C   0  0  0  0  0  0  0  0  0  0  0  0
  -31.5443  -15.2625   19.3142 C   0  0  0  0  0  0  0  0  0  0  0  0
  -29.7095  -17.5063   20.3188 C   0  0  0  0  0  0  0  0  0  0  0  0
  -20.2197  -15.2634   23.1781 C   0  0  0  0  0  0  0  0  0  0  0  0
  -22.3146  -12.9922   20.7581 C   0  0  0  0  0  0  0  0  0  0  0  0
  -27.3917  -19.9414   20.8975 C   0  0  0  0  0  0  0  0  0  0  0  0
  -22.0772  -22.0949   18.2974 C   0  0  0  0  0  0  0  0  0  0  0  0
  -35.6333  -18.2553   18.6978 C   0  0  0  0  0  0  0  0  0  0  0  0
  -29.5159  -14.3289   18.2275 C   0  0  0  0  0  0  0  0  0  0  0  0
  -28.4996  -15.3000   20.6777 C   0  0  0  0  0  0  0  0  0  0  0  0
  -34.5122  -18.1369   19.7271 C   0  0  0  0  0  0  0  0  0  0  0  0
  -23.3241  -24.3097   15.8040 C   0  0  0  0  0  0  0  0  0  0  0  0
  -34.3422  -16.6862   20.1667 C   0  0  0  0  0  0  0  0  0  0  0  0
  -24.0731  -25.3753   16.6075 C   0  0  0  0  0  0  0  0  0  0  0  0
  -22.0632  -23.8373   16.5258 C   0  0  0  0  0  0  0  0  0  0  0  0
  -23.0202  -24.4518   18.7111 C   0  0  0  0  0  0  0  0  0  0  0  0
  -33.9525  -15.7930   18.9827 C   0  0  1  0  0  0  0  0  0  0  0  0
  -30.1640  -15.5904   18.8257 C   0  0  1  0  0  0  0  0  0  0  0  0
  -24.3320  -24.9117   18.0544 C   0  0  2  0  0  0  0  0  0  0  0  0
  -27.1607  -22.2591   21.8316 C   0  0  0  0  0  0  0  0  0  0  0  0
  -29.9208  -16.3835   23.1470 C   0  0  0  0  0  0  0  0  0  0  0  0
  -28.7716  -18.4475   23.9761 C   0  0  0  0  0  0  0  0  0  0  0  0
  -30.9814  -18.6264   22.8327 C   0  0  0  0  0  0  0  0  0  0  0  0
  -26.4261  -21.0121   18.3129 C   0  0  0  0  0  0  0  0  0  0  0  0
  -20.2826  -16.1886   24.3831 C   0  0  0  0  0  0  0  0  0  0  0  0
  -23.5858  -13.8068   20.6486 C   0  0  0  0  0  0  0  0  0  1  0  0
  -19.5281  -12.9567   22.5556 C   0  0  0  0  0  0  0  0  0  0  0  0
  -20.7566  -12.0675   22.4620 C   0  0  0  0  0  0  0  0  0  0  0  0
  -20.8497  -17.5599   24.0498 C   0  0  0  0  0  0  0  0  0  0  0  0
  -28.9229  -18.0760   21.4721 C   0  0  1  0  0  0  0  0  0  0  0  0
  -27.3891  -21.4259   20.5800 C   0  0  2  0  0  0  0  0  0  0  0  0
  -29.6369  -17.8669   22.8373 C   0  0  0  0  0  0  0  0  0  0  0  0
  -24.2898  -26.8463   19.5832 N   0  0  0  0  0  0  0  0  0  0  0  0
  -25.0323  -25.9818   18.8708 N   0  0  0  0  0  0  0  0  0  0  0  0
  -29.4655  -16.1682   19.9865 N   0  0  0  0  0  0  0  0  0  0  0  0
  -22.3861  -23.4095   17.8887 N   0  0  0  0  0  0  0  0  0  0  0  0
  -27.2664  -25.4098   18.3302 N   0  0  0  0  0  0  0  0  0  0  0  0
  -27.7374  -28.9448   21.1010 N   0  0  0  0  0  0  0  0  0  0  0  0
  -22.4603  -21.7921   19.6036 N   0  0  0  0  0  0  0  0  0  0  0  0
  -32.5495  -15.9556   18.6672 N   0  0  0  0  0  0  0  0  0  0  0  0
  -19.6978  -14.0179   23.5116 N   0  0  0  0  0  0  0  0  0  0  0  0
  -21.9346  -12.8107   22.0787 N   0  0  0  0  0  0  0  0  0  0  0  0
  -28.6657  -19.4732   21.1401 N   0  0  0  0  0  0  0  0  0  0  0  0
  -26.3121  -21.7443   19.6004 N   0  3  0  0  0  0  0  0  0  0  0  0
  -28.8732  -27.4141   19.8260 O   0  0  0  0  0  0  0  0  0  0  0  0
  -31.6881  -14.4421   20.2130 O   0  0  0  0  0  0  0  0  0  0  0  0
  -30.5231  -18.2242   19.7306 O   0  0  0  0  0  0  0  0  0  0  0  0
  -20.5878  -15.5935   22.0541 O   0  0  0  0  0  0  0  0  0  0  0  0
  -21.7170  -12.5582   19.7771 O   0  0  0  0  0  0  0  0  0  0  0  0
  -26.3656  -19.2656   20.9309 O   0  0  0  0  0  0  0  0  0  0  0  0
  -21.5388  -21.2880   17.5352 O   0  0  0  0  0  0  0  0  0  0  0  0
  -23.6145  -31.8017   23.5248 O   0  0  0  0  0  0  0  0  0  0  0  0
  -23.9677  -13.9640   19.2826 O   0  0  0  0  0  0  0  0  0  1  0  0
  -20.0113  -18.1988   23.0956 O   0  0  0  0  0  0  0  0  0  0  0  0
  -26.0801  -36.6918   22.8824 F   0  0  0  0  0  0  0  0  0  0  0  0
  -26.3480  -32.0646   23.8434 F   0  0  0  0  0  0  0  0  0  0  0  0
  1  2  1  0  0  0  0
  1  5  2  0  0  0  0
  2  6  2  0  0  0  0
  3 10  2  0  0  0  0
  3 19  1  0  0  0  0
  4 11  1  0  0  0  0
  4 19  2  0  0  0  0
  5 21  1  0  0  0  0
  6 23  1  0  0  0  0
  7 12  2  0  0  0  0
  7 22  1  0  0  0  0
  8 13  2  0  0  0  0
  8 25  1  0  0  0  0
  9 14  1  0  0  0  0
  9 25  2  0  0  0  0
 10 26  1  0  0  0  0
 11 26  2  0  0  0  0
 12 28  1  0  0  0  0
 13 27  1  0  0  0  0
 14 27  2  0  0  0  0
 15 16  2  0  0  0  0
 15 29  1  0  0  0  0
 16 30  1  0  0  0  0
 17 24  1  0  0  0  0
 17 28  2  0  0  0  0
 18 30  2  0  0  0  0
 18 31  1  0  0  0  0
 19 32  1  0  0  0  0
 20 32  1  0  0  0  0
 20 33  2  0  0  0  0
 20 34  1  0  0  0  0
 21 23  2  0  0  0  0
 21 41  1  0  0  0  0
 22 24  2  0  0  0  0
 22 42  1  0  0  0  0
 23 50  1  0  0  0  0
 24 43  1  0  0  0  0
 25 72  1  0  0  0  0
 26 85  1  0  0  0  0
 27 87  1  0  0  0  0
 28 86  1  0  0  0  0
 29 31  2  0  0  0  0
 29 85  1  0  0  0  0
 30 88  1  0  0  0  0
 31 89  1  0  0  0  0
 32 66  2  0  0  0  0
 33 67  1  0  0  0  0
 33 70  1  0  0  0  0
 34 71  1  0  0  0  0
 34 78  2  0  0  0  0
 35 51  1  0  0  0  0
 35 73  1  0  0  0  0
 35 79  2  0  0  0  0
 36 63  1  0  0  0  0
 36 68  1  0  0  0  0
 36 80  2  0  0  0  0
 37 58  1  0  0  0  0
 37 74  1  0  0  0  0
 37 81  2  0  0  0  0
 38 59  1  0  0  0  0
 38 75  1  0  0  0  0
 38 82  2  0  0  0  0
 39 64  1  0  0  0  0
 39 76  1  0  0  0  0
 39 83  2  0  0  0  0
 40 69  1  0  0  0  0
 40 72  1  0  0  0  0
 40 84  2  0  0  0  0
 41 44  1  0  0  0  0
 42 51  1  0  0  0  0
 43 68  1  0  0  0  0
 44 46  1  0  0  0  0
 45 47  1  0  0  0  0
 45 48  1  0  0  0  0
 46 50  1  0  0  0  0
 47 52  1  0  0  0  0
 48 69  1  0  0  0  0
 49 52  1  0  0  0  0
 49 69  1  0  0  0  0
 50 73  1  0  0  0  0
 51 68  1  0  0  0  0
 52 67  1  0  0  0  0
 53 64  1  0  0  0  0
 54 65  1  0  0  0  0
 55 65  1  0  0  0  0
 56 65  1  0  0  0  0
 57 77  1  0  0  0  0
 58 62  1  0  0  0  0
 59 86  1  0  0  0  0
 60 61  1  0  0  0  0
 60 74  1  0  0  0  0
 61 75  1  0  0  0  0
 62 87  1  0  0  0  0
 63 65  1  0  0  0  0
 63 76  1  0  0  0  0
 64 77  1  0  0  0  0
 66 67  1  0  0  0  0
M  CHG  1  77   1
M  ISO  4  40 100  59 101  72 100  86 101
M  END
> <Batch ID>
0003

> <Smiles>
CNC(C)C(=O)NC(C(=O)N1Cc2cc([101O:1][101CH2:1]C(=O)NCCNC(=O)CCOc3ccc([100NH:0][100C:0](=O)N4CCCC(n5nc(-c6ccc(Oc7ccc(F)cc7F)cc6)c(C(N)=O)c5N)C4)cc3)ccc2CC1C(=O)NC1CCCc2ccccc21)C(C)(C)C

> <Shape>
0.207

> <Color>
0.080

> <Negative vol penalty>
0.000

$$$$

  -OEChem-04052315213D

 97104  0     1  0  0  0  0  0999 V2000
  -36.1990  -10.2257   22.7867 C   0  0  0  0  0  0  0  0  0  0  0  0
  -36.1739  -11.2271   21.8213 C   0  0  0  0  0  0  0  0  0  0  0  0
  -19.9157  -26.5381   23.5244 C   0  0  0  0  0  0  0  0  0  0  0  0
  -20.8170  -27.3362   21.4297 C   0  0  0  0  0  0  0  0  0  0  0  0
  -35.0804   -9.4158   22.9786 C   0  0  0  0  0  0  0  0  0  0  0  0
  -35.0306  -11.4183   21.0463 C   0  0  0  0  0  0  0  0  0  0  0  0
  -31.5867  -17.7453   21.0164 C   0  0  0  0  0  0  0  0  0  0  0  0
  -18.7508  -27.2727   23.3031 C   0  0  0  0  0  0  0  0  0  0  0  0
  -19.6520  -28.0707   21.2083 C   0  0  0  0  0  0  0  0  0  0  0  0
  -30.9938  -18.9883   20.7942 C   0  0  0  0  0  0  0  0  0  0  0  0
  -15.6857  -29.2232   23.4599 C   0  0  0  0  0  0  0  0  0  0  0  0
  -15.1694  -29.9600   24.5258 C   0  0  0  0  0  0  0  0  0  0  0  0
  -29.3613  -17.9609   19.3356 C   0  0  0  0  0  0  0  0  0  0  0  0
  -17.2241  -31.2253   24.6465 C   0  0  0  0  0  0  0  0  0  0  0  0
  -20.9488  -26.5699   22.5878 C   0  0  0  0  0  0  0  0  0  0  0  0
  -22.4097  -24.4853   22.4212 C   0  0  0  0  0  0  0  0  0  0  0  0
  -33.9194   -9.6035   22.2122 C   0  0  0  0  0  0  0  0  0  0  0  0
  -31.0591  -16.6016   20.4105 C   0  0  0  0  0  0  0  0  0  0  0  0
  -33.8959  -10.6093   21.2272 C   0  0  0  0  0  0  0  0  0  0  0  0
  -29.9434  -16.7113   19.5643 C   0  0  0  0  0  0  0  0  0  0  0  0
  -18.6189  -28.0389   22.1450 C   0  0  0  0  0  0  0  0  0  0  0  0
  -29.8840  -19.0959   19.9557 C   0  0  0  0  0  0  0  0  0  0  0  0
  -16.9713  -29.4874   22.9873 C   0  0  0  0  0  0  0  0  0  0  0  0
  -15.9385  -30.9610   25.1191 C   0  0  0  0  0  0  0  0  0  0  0  0
  -17.7404  -30.4884   23.5806 C   0  0  0  0  0  0  0  0  0  0  0  0
  -22.1527  -25.8118   22.8162 C   0  0  0  0  0  0  0  0  0  0  0  0
  -23.6825  -24.2333   22.8718 C   0  0  0  0  0  0  0  0  0  0  0  0
  -21.5729  -23.5633   21.7104 C   0  0  0  0  0  0  0  0  0  0  0  0
  -31.2841  -12.8858   19.9433 C   0  0  0  0  0  0  0  0  0  0  0  0
  -28.3047  -13.5745   20.1870 C   0  0  0  0  0  0  0  0  0  0  0  0
  -29.4083  -26.5630   20.4302 C   0  0  0  0  0  0  0  0  0  0  0  0
  -29.0664  -23.4186   19.7874 C   0  0  0  0  0  0  0  0  0  0  0  0
  -25.1673  -14.6954   20.9204 C   0  0  0  0  0  0  0  0  0  0  0  0
  -28.3505  -27.7774   24.0966 C   0  0  0  0  0  0  0  0  0  0  0  0
  -24.2594  -28.0550   18.1978 C   0  0  0  0  0  0  0  0  0  0  0  0
  -33.3609  -25.2810   13.8483 C   0  0  0  0  0  0  0  0  0  0  0  0
  -32.7518   -8.6724   22.4233 C   0  0  0  0  0  0  0  0  0  0  0  0
  -31.7027  -15.2513   20.5725 C   0  0  0  0  0  0  0  0  0  0  0  0
  -29.4311  -15.4592   18.9065 C   0  0  0  0  0  0  0  0  0  0  0  0
  -31.4473   -9.1843   21.8179 C   0  0  0  0  0  0  0  0  0  0  0  0
  -26.7538  -25.4967   26.3159 C   0  0  0  0  0  0  0  0  0  0  0  0
  -31.6800   -9.6891   20.3973 C   0  0  0  0  0  0  0  0  0  0  0  0
  -25.4167  -25.1991   25.6350 C   0  0  0  0  0  0  0  0  0  0  0  0
  -27.1780  -26.9499   26.1158 C   0  0  0  0  0  0  0  0  0  0  0  0
  -25.8740  -27.1000   24.0299 C   0  0  0  0  0  0  0  0  0  0  0  0
  -32.6655  -10.8638   20.3837 C   0  0  1  0  0  0  0  0  0  0  0  0
  -30.6851  -14.0967   20.5963 C   0  0  1  0  0  0  0  0  0  0  0  0
  -25.4317  -25.6321   24.1566 C   0  0  2  0  0  0  0  0  0  0  0  0
  -22.8019  -13.8990   21.1808 C   0  0  0  0  0  0  0  0  0  0  0  0
  -28.0363  -13.3916   17.1541 C   0  0  0  0  0  0  0  0  0  0  0  0
  -25.5533  -13.5462   17.4355 C   0  0  0  0  0  0  0  0  0  0  0  0
  -26.8010  -11.6233   18.4196 C   0  0  0  0  0  0  0  0  0  0  0  0
  -25.0677  -15.5527   23.7513 C   0  0  0  0  0  0  0  0  0  0  0  0
  -30.2077  -27.4469   21.3745 C   0  0  0  0  0  0  0  0  0  0  0  0
  -26.1903  -24.2358   18.2618 C   0  0  0  0  0  0  0  0  0  0  0  0
  -25.5257  -24.6923   16.9582 C   0  0  0  0  0  0  0  0  0  0  0  0
  -31.0528  -25.0995   16.8638 C   0  0  0  0  0  0  0  0  0  0  0  0
  -30.7485  -24.0969   17.9873 C   0  0  0  0  0  0  0  0  0  0  0  0
  -29.3896  -28.5742   21.9884 C   0  0  0  0  0  0  0  0  0  0  0  0
  -27.2751  -23.1887   18.0287 C   0  0  0  0  0  0  0  0  0  0  0  0
  -27.3177  -21.6472   19.9435 C   0  0  0  0  0  0  0  0  0  0  0  0
  -24.4739  -25.7711   17.1948 C   0  0  0  0  0  0  0  0  0  0  0  0
  -32.1545  -24.5998   15.9337 C   0  0  0  0  0  0  0  0  0  0  0  0
  -27.9059  -20.3273   19.4778 C   0  0  0  0  0  0  0  0  0  1  0  0
  -27.0217  -13.9122   19.4705 C   0  0  1  0  0  0  0  0  0  0  0  0
  -29.6703  -24.5668   18.9737 C   0  0  2  0  0  0  0  0  0  0  0  0
  -24.1163  -14.1857   21.8899 C   0  0  2  0  0  0  0  0  0  0  0  0
  -26.8701  -13.1386   18.1303 C   0  0  0  0  0  0  0  0  0  0  0  0
  -23.1796  -26.3640   23.4678 N   0  0  0  0  0  0  0  0  0  0  0  0
  -24.0942  -25.3795   23.4858 N   0  0  0  0  0  0  0  0  0  0  0  0
  -29.4276  -14.3495   19.8724 N   0  0  0  0  0  0  0  0  0  0  0  0
  -27.1730  -27.2963   24.6924 N   0  0  0  0  0  0  0  0  0  0  0  0
  -24.4783  -23.1454   22.7990 N   0  0  0  0  0  0  0  0  0  0  0  0
  -20.2940  -23.9848   21.3216 N   0  0  0  0  0  0  0  0  0  0  0  0
  -24.8670  -29.1495   18.8040 N   0  0  0  0  0  0  0  0  0  0  0  0
  -22.8878  -28.0820   17.9680 N   0  0  0  0  0  0  0  0  0  0  0  0
  -33.5700  -26.2273   12.8506 N   0  0  0  0  0  0  0  0  0  0  0  0
  -34.0860  -24.0942   13.8200 N   0  0  0  0  0  0  0  0  0  0  0  0
  -32.0061  -12.0816   20.8042 N   0  0  0  0  0  0  0  0  0  0  0  0
  -25.9453  -13.6704   20.4250 N   0  0  0  0  0  0  0  0  0  0  0  0
  -30.1910  -25.5503   19.8941 N   0  0  0  0  0  0  0  0  0  0  0  0
  -28.2609  -28.0759   22.7425 N   0  0  0  0  0  0  0  0  0  0  0  0
  -27.9257  -22.7684   19.2774 N   0  0  0  0  0  0  0  0  0  0  0  0
  -25.0403  -26.9558   17.8351 N   0  3  0  0  0  0  0  0  0  0  0  0
  -32.4283  -25.5446   14.8532 N   0  3  0  0  0  0  0  0  0  0  0  0
  -23.8641  -15.1941   22.9577 N   0  3  0  0  0  0  0  0  0  0  0  0
  -21.9418  -22.3946   21.4427 O   0  0  0  0  0  0  0  0  0  0  0  0
  -31.1038  -12.6933   18.7466 O   0  0  0  0  0  0  0  0  0  0  0  0
  -28.3152  -12.6458   20.9997 O   0  0  0  0  0  0  0  0  0  0  0  0
  -28.2162  -26.7353   20.1909 O   0  0  0  0  0  0  0  0  0  0  0  0
  -29.6096  -23.0605   20.8387 O   0  0  0  0  0  0  0  0  0  0  0  0
  -25.2839  -15.8836   20.6285 O   0  0  0  0  0  0  0  0  0  0  0  0
  -29.4050  -27.9247   24.7237 O   0  0  0  0  0  0  0  0  0  0  0  0
  -17.4822  -28.7556   21.9285 O   0  0  0  0  0  0  0  0  0  0  0  0
  -29.3073  -20.3118   19.7467 O   0  0  0  0  0  0  0  0  0  1  0  0
  -15.4420  -31.6695   26.1417 F   0  0  0  0  0  0  0  0  0  0  0  0
  -18.9757  -30.7476   23.1303 F   0  0  0  0  0  0  0  0  0  0  0  0
  1  2  1  0  0  0  0
  1  5  2  0  0  0  0
  2  6  2  0  0  0  0
  3  8  2  0  0  0  0
  3 15  1  0  0  0  0
  4  9  1  0  0  0  0
  4 15  2  0  0  0  0
  5 17  1  0  0  0  0
  6 19  1  0  0  0  0
  7 10  2  0  0  0  0
  7 18  1  0  0  0  0
  8 21  1  0  0  0  0
  9 21  2  0  0  0  0
 10 22  1  0  0  0  0
 11 12  2  0  0  0  0
 11 23  1  0  0  0  0
 12 24  1  0  0  0  0
 13 20  1  0  0  0  0
 13 22  2  0  0  0  0
 14 24  2  0  0  0  0
 14 25  1  0  0  0  0
 15 26  1  0  0  0  0
 16 26  1  0  0  0  0
 16 27  2  0  0  0  0
 16 28  1  0  0  0  0
 17 19  2  0  0  0  0
 17 37  1  0  0  0  0
 18 20  2  0  0  0  0
 18 38  1  0  0  0  0
 19 46  1  0  0  0  0
 20 39  1  0  0  0  0
 21 94  1  0  0  0  0
 22 95  1  0  0  0  0
 23 25  2  0  0  0  0
 23 94  1  0  0  0  0
 24 96  1  0  0  0  0
 25 97  1  0  0  0  0
 26 69  2  0  0  0  0
 27 70  1  0  0  0  0
 27 73  1  0  0  0  0
 28 74  1  0  0  0  0
 28 87  2  0  0  0  0
 29 47  1  0  0  0  0
 29 79  1  0  0  0  0
 29 88  2  0  0  0  0
 30 65  1  0  0  0  0
 30 71  1  0  0  0  0
 30 89  2  0  0  0  0
 31 54  1  0  0  0  0
 31 81  1  0  0  0  0
 31 90  2  0  0  0  0
 32 66  1  0  0  0  0
 32 83  1  0  0  0  0
 32 91  2  0  0  0  0
 33 67  1  0  0  0  0
 33 80  1  0  0  0  0
 33 92  2  0  0  0  0
 34 72  1  0  0  0  0
 34 82  1  0  0  0  0
 34 93  2  0  0  0  0
 35 75  1  0  0  0  0
 35 76  1  0  0  0  0
 35 84  2  0  0  0  0
 36 77  1  0  0  0  0
 36 78  1  0  0  0  0
 36 85  2  0  0  0  0
 37 40  1  0  0  0  0
 38 47  1  0  0  0  0
 39 71  1  0  0  0  0
 40 42  1  0  0  0  0
 41 43  1  0  0  0  0
 41 44  1  0  0  0  0
 42 46  1  0  0  0  0
 43 48  1  0  0  0  0
 44 72  1  0  0  0  0
 45 48  1  0  0  0  0
 45 72  1  0  0  0  0
 46 79  1  0  0  0  0
 47 71  1  0  0  0  0
 48 70  1  0  0  0  0
 49 67  1  0  0  0  0
 50 68  1  0  0  0  0
 51 68  1  0  0  0  0
 52 68  1  0  0  0  0
 53 86  1  0  0  0  0
 54 59  1  0  0  0  0
 55 56  1  0  0  0  0
 55 60  1  0  0  0  0
 56 62  1  0  0  0  0
 57 58  1  0  0  0  0
 57 63  1  0  0  0  0
 58 66  1  0  0  0  0
 59 82  1  0  0  0  0
 60 83  1  0  0  0  0
 61 64  1  0  0  0  0
 61 83  1  0  0  0  0
 62 84  1  0  0  0  0
 63 85  1  0  0  0  0
 64 95  1  0  0  0  0
 65 68  1  0  0  0  0
 65 80  1  0  0  0  0
 66 81  1  0  0  0  0
 67 86  1  0  0  0  0
 69 70  1  0  0  0  0
M  CHG  3  84   1  85   1  86   1
M  ISO  4  34 100  64 101  82 100  95 101
M  END
> <Batch ID>
0003

> <Smiles>
CNC(C)C(=O)NC(C(=O)N1Cc2cc([101O:1][101CH2:1]CN(CCCCNC(=N)N)C(=O)C(CCCNC(=N)N)NC(=O)CC[100NH:0][100C:0](=O)N3CCCC(n4nc(-c5ccc(Oc6ccc(F)cc6F)cc5)c(C(N)=O)c4N)C3)ccc2CC1C(=O)NC1CCCc2ccccc21)C(C)(C)C

> <Shape>
0.255

> <Color>
0.055

> <Negative vol penalty>
0.000

$$$$

  -OEChem-04052315213D

 85 92  0     1  0  0  0  0  0999 V2000
  -30.5292  -19.4204   22.3644 C   0  0  0  0  0  0  0  0  0  0  0  0
  -29.1645  -19.6206   22.5453 C   0  0  0  0  0  0  0  0  0  0  0  0
  -28.4825  -25.5464   18.4702 C   0  0  0  0  0  0  0  0  0  0  0  0
  -26.3830  -24.3547   18.3752 C   0  0  0  0  0  0  0  0  0  0  0  0
  -30.9778  -18.4743   21.4438 C   0  0  0  0  0  0  0  0  0  0  0  0
  -28.2474  -18.8755   21.8049 C   0  0  0  0  0  0  0  0  0  0  0  0
  -22.7660  -16.8794   23.6691 C   0  0  0  0  0  0  0  0  0  0  0  0
  -29.1676  -24.3336   18.5429 C   0  0  0  0  0  0  0  0  0  0  0  0
  -27.0681  -23.1419   18.4479 C   0  0  0  0  0  0  0  0  0  0  0  0
  -21.4749  -17.3706   23.4801 C   0  0  0  0  0  0  0  0  0  0  0  0
  -30.1361  -21.8884   16.4178 C   0  0  0  0  0  0  0  0  0  0  0  0
  -31.2645  -21.7321   15.6130 C   0  0  0  0  0  0  0  0  0  0  0  0
  -21.1840  -15.8704   21.6135 C   0  0  0  0  0  0  0  0  0  0  0  0
  -32.6209  -21.3847   17.5819 C   0  0  0  0  0  0  0  0  0  0  0  0
  -27.0902  -25.5570   18.3863 C   0  0  0  0  0  0  0  0  0  0  0  0
  -26.0311  -27.5197   17.1480 C   0  0  0  0  0  0  0  0  0  0  0  0
  -30.0657  -17.7104   20.6986 C   0  0  0  0  0  0  0  0  0  0  0  0
  -23.2805  -15.8862   22.8235 C   0  0  0  0  0  0  0  0  0  0  0  0
  -28.6842  -17.9192   20.8724 C   0  0  0  0  0  0  0  0  0  0  0  0
  -22.4809  -15.3666   21.7955 C   0  0  0  0  0  0  0  0  0  0  0  0
  -28.4605  -23.1313   18.5317 C   0  0  0  0  0  0  0  0  0  0  0  0
  -20.6847  -16.8681   22.4505 C   0  0  0  0  0  0  0  0  0  0  0  0
  -30.2501  -21.7930   17.8048 C   0  0  0  0  0  0  0  0  0  0  0  0
  -32.5069  -21.4802   16.1950 C   0  0  0  0  0  0  0  0  0  0  0  0
  -31.4924  -21.5411   18.3868 C   0  0  0  0  0  0  0  0  0  0  0  0
  -26.3818  -26.8095   18.3117 C   0  0  0  0  0  0  0  0  0  0  0  0
  -25.3762  -28.6349   17.6106 C   0  0  0  0  0  0  0  0  0  0  0  0
  -26.2754  -27.2000   15.7718 C   0  0  0  0  0  0  0  0  0  0  0  0
  -25.7236  -15.7097   20.7976 C   0  0  0  0  0  0  0  0  0  0  0  0
  -24.8339  -12.5962   20.6051 C   0  0  0  0  0  0  0  0  0  0  0  0
  -19.5107  -27.4764   21.9215 C   0  0  0  0  0  0  0  0  0  0  0  0
  -17.5506  -18.7631   22.8426 C   0  0  0  0  0  0  0  0  0  0  0  0
  -22.3703  -10.2602   20.9525 C   0  0  0  0  0  0  0  0  0  0  0  0
  -22.3608  -29.7946   22.6518 C   0  0  0  0  0  0  0  0  0  0  0  0
  -30.5984  -16.7329   19.6811 C   0  0  0  0  0  0  0  0  0  0  0  0
  -24.6655  -15.3480   23.0572 C   0  0  0  0  0  0  0  0  0  0  0  0
  -22.9791  -14.2854   20.8728 C   0  0  0  0  0  0  0  0  0  0  0  0
  -29.5592  -15.7202   19.2070 C   0  0  0  0  0  0  0  0  0  0  0  0
  -25.1801  -31.5643   21.3883 C   0  0  0  0  0  0  0  0  0  0  0  0
  -28.2463  -16.4202   18.8707 C   0  0  0  0  0  0  0  0  0  0  0  0
  -25.7761  -30.6105   20.3516 C   0  0  0  0  0  0  0  0  0  0  0  0
  -24.6193  -30.8105   22.5922 C   0  0  0  0  0  0  0  0  0  0  0  0
  -24.2473  -28.7942   21.2247 C   0  0  0  0  0  0  0  0  0  0  0  0
  -27.6583  -17.1130   20.1059 C   0  0  1  0  0  0  0  0  0  0  0  0
  -25.2725  -14.7012   21.8160 C   0  0  1  0  0  0  0  0  0  0  0  0
  -24.7754  -29.5044   19.9665 C   0  0  2  0  0  0  0  0  0  0  0  0
  -21.9337   -7.8034   20.6869 C   0  0  0  0  0  0  0  0  0  0  0  0
  -24.7153  -12.9472   17.5765 C   0  0  0  0  0  0  0  0  0  0  0  0
  -23.3919  -10.8255   17.4524 C   0  0  0  0  0  0  0  0  0  0  0  0
  -25.7237  -10.7890   18.3379 C   0  0  0  0  0  0  0  0  0  0  0  0
  -21.7107   -9.9493   23.8208 C   0  0  0  0  0  0  0  0  0  0  0  0
  -20.1481  -28.6720   22.5966 C   0  0  0  0  0  0  0  0  0  0  0  0
  -18.9757  -18.3624   23.1591 C   0  0  0  0  0  0  0  0  0  1  0  0
  -16.5016  -23.8990   22.2266 C   0  0  0  0  0  0  0  0  0  0  0  0
  -16.5479  -22.7073   23.1862 C   0  0  0  0  0  0  0  0  0  0  0  0
  -17.3713  -25.0532   22.7367 C   0  0  0  0  0  0  0  0  0  0  0  0
  -15.6885  -21.5228   22.7293 C   0  0  0  0  0  0  0  0  0  0  0  0
  -17.3379  -26.2640   21.8092 C   0  0  0  0  0  0  0  0  0  0  0  0
  -15.7565  -20.2941   23.6316 C   0  0  0  0  0  0  0  0  0  0  0  0
  -23.8819  -11.8080   19.7384 C   0  0  1  0  0  0  0  0  0  0  0  0
  -22.3540   -8.9085   21.6432 C   0  0  2  0  0  0  0  0  0  0  0  0
  -24.4192  -11.6142   18.2923 C   0  0  0  0  0  0  0  0  0  0  0  0
  -25.9829  -27.4221   19.4296 N   0  0  0  0  0  0  0  0  0  0  0  0
  -25.3749  -28.5291   18.9704 N   0  0  0  0  0  0  0  0  0  0  0  0
  -24.3422  -13.7963   21.1379 N   0  0  0  0  0  0  0  0  0  0  0  0
  -23.6759  -29.7771   22.1586 N   0  0  0  0  0  0  0  0  0  0  0  0
  -24.8072  -29.6859   16.9829 N   0  0  0  0  0  0  0  0  0  0  0  0
  -26.9621  -26.0154   15.4728 N   0  0  0  0  0  0  0  0  0  0  0  0
  -27.0232  -16.1448   20.9740 N   0  0  0  0  0  0  0  0  0  0  0  0
  -18.1712  -27.3387   22.2739 N   0  0  0  0  0  0  0  0  0  0  0  0
  -17.0868  -19.7369   23.7131 N   0  0  0  0  0  0  0  0  0  0  0  0
  -23.6184  -10.5620   20.4499 N   0  0  0  0  0  0  0  0  0  0  0  0
  -21.5299  -28.7833   22.1853 N   0  0  0  0  0  0  0  0  0  0  0  0
  -21.4027   -8.9245   22.7903 N   0  3  0  0  0  0  0  0  0  0  0  0
  -25.9103  -27.9510   14.8357 O   0  0  0  0  0  0  0  0  0  0  0  0
  -24.9503  -16.0656   19.9161 O   0  0  0  0  0  0  0  0  0  0  0  0
  -25.9696  -12.1595   20.8081 O   0  0  0  0  0  0  0  0  0  0  0  0
  -20.1271  -26.7100   21.1856 O   0  0  0  0  0  0  0  0  0  0  0  0
  -16.9098  -18.2657   21.9206 O   0  0  0  0  0  0  0  0  0  0  0  0
  -21.3745  -10.9751   20.8640 O   0  0  0  0  0  0  0  0  0  0  0  0
  -21.9555  -30.6515   23.4446 O   0  0  0  0  0  0  0  0  0  0  0  0
  -29.1287  -21.9477   18.6025 O   0  0  0  0  0  0  0  0  0  0  0  0
  -19.4244  -17.3462   22.2634 O   0  0  0  0  0  0  0  0  0  1  0  0
  -33.5901  -21.3285   15.4219 F   0  0  0  0  0  0  0  0  0  0  0  0
  -31.6079  -21.4471   19.7186 F   0  0  0  0  0  0  0  0  0  0  0  0
  1  2  1  0  0  0  0
  1  5  2  0  0  0  0
  2  6  2  0  0  0  0
  3  8  2  0  0  0  0
  3 15  1  0  0  0  0
  4  9  1  0  0  0  0
  4 15  2  0  0  0  0
  5 17  1  0  0  0  0
  6 19  1  0  0  0  0
  7 10  2  0  0  0  0
  7 18  1  0  0  0  0
  8 21  1  0  0  0  0
  9 21  2  0  0  0  0
 10 22  1  0  0  0  0
 11 12  2  0  0  0  0
 11 23  1  0  0  0  0
 12 24  1  0  0  0  0
 13 20  1  0  0  0  0
 13 22  2  0  0  0  0
 14 24  2  0  0  0  0
 14 25  1  0  0  0  0
 15 26  1  0  0  0  0
 16 26  1  0  0  0  0
 16 27  2  0  0  0  0
 16 28  1  0  0  0  0
 17 19  2  0  0  0  0
 17 35  1  0  0  0  0
 18 20  2  0  0  0  0
 18 36  1  0  0  0  0
 19 44  1  0  0  0  0
 20 37  1  0  0  0  0
 21 82  1  0  0  0  0
 22 83  1  0  0  0  0
 23 25  2  0  0  0  0
 23 82  1  0  0  0  0
 24 84  1  0  0  0  0
 25 85  1  0  0  0  0
 26 63  2  0  0  0  0
 27 64  1  0  0  0  0
 27 67  1  0  0  0  0
 28 68  1  0  0  0  0
 28 75  2  0  0  0  0
 29 45  1  0  0  0  0
 29 69  1  0  0  0  0
 29 76  2  0  0  0  0
 30 60  1  0  0  0  0
 30 65  1  0  0  0  0
 30 77  2  0  0  0  0
 31 52  1  0  0  0  0
 31 70  1  0  0  0  0
 31 78  2  0  0  0  0
 32 53  1  0  0  0  0
 32 71  1  0  0  0  0
 32 79  2  0  0  0  0
 33 61  1  0  0  0  0
 33 72  1  0  0  0  0
 33 80  2  0  0  0  0
 34 66  1  0  0  0  0
 34 73  1  0  0  0  0
 34 81  2  0  0  0  0
 35 38  1  0  0  0  0
 36 45  1  0  0  0  0
 37 65  1  0  0  0  0
 38 40  1  0  0  0  0
 39 41  1  0  0  0  0
 39 42  1  0  0  0  0
 40 44  1  0  0  0  0
 41 46  1  0  0  0  0
 42 66  1  0  0  0  0
 43 46  1  0  0  0  0
 43 66  1  0  0  0  0
 44 69  1  0  0  0  0
 45 65  1  0  0  0  0
 46 64  1  0  0  0  0
 47 61  1  0  0  0  0
 48 62  1  0  0  0  0
 49 62  1  0  0  0  0
 50 62  1  0  0  0  0
 51 74  1  0  0  0  0
 52 73  1  0  0  0  0
 53 83  1  0  0  0  0
 54 55  1  0  0  0  0
 54 56  1  0  0  0  0
 55 57  1  0  0  0  0
 56 58  1  0  0  0  0
 57 59  1  0  0  0  0
 58 70  1  0  0  0  0
 59 71  1  0  0  0  0
 60 62  1  0  0  0  0
 60 72  1  0  0  0  0
 61 74  1  0  0  0  0
 63 64  1  0  0  0  0
M  CHG  1  74   1
M  ISO  4  34 100  53 101  73 100  83 101
M  END
> <Batch ID>
0003

> <Smiles>
CNC(C)C(=O)NC(C(=O)N1Cc2cc([101O:1][101CH2:1]C(=O)NCCCCCCNC(=O)C[100NH:0][100C:0](=O)N3CCCC(n4nc(-c5ccc(Oc6ccc(F)cc6F)cc5)c(C(N)=O)c4N)C3)ccc2CC1C(=O)NC1CCCc2ccccc21)C(C)(C)C

> <Shape>
0.220

> <Color>
0.055

> <Negative vol penalty>
0.000

$$$$

  -OEChem-04052315213D

 83 91  0     1  0  0  0  0  0999 V2000
  -26.8598  -19.1699   17.8141 C   0  0  0  0  0  0  0  0  0  0  0  0
  -27.5548  -19.5668   18.9520 C   0  0  0  0  0  0  0  0  0  0  0  0
  -23.0835   -9.9116   19.8944 C   0  0  0  0  0  0  0  0  0  0  0  0
  -23.8455   -9.8531   22.1863 C   0  0  0  0  0  0  0  0  0  0  0  0
  -27.0585  -19.8404   16.6080 C   0  0  0  0  0  0  0  0  0  0  0  0
  -28.4499  -20.6339   18.8841 C   0  0  0  0  0  0  0  0  0  0  0  0
  -27.9549  -23.8356   22.7763 C   0  0  0  0  0  0  0  0  0  0  0  0
  -30.3569  -18.3489   24.2730 C   0  0  0  0  0  0  0  0  0  0  0  0
  -32.5522  -17.5516   23.6549 C   0  0  0  0  0  0  0  0  0  0  0  0
  -29.7810  -17.4873   23.3394 C   0  0  0  0  0  0  0  0  0  0  0  0
  -31.9763  -16.6899   22.7213 C   0  0  0  0  0  0  0  0  0  0  0  0
  -22.3564   -8.7403   20.1062 C   0  0  0  0  0  0  0  0  0  0  0  0
  -23.1184   -8.6818   22.3982 C   0  0  0  0  0  0  0  0  0  0  0  0
  -28.5171  -23.4508   23.9927 C   0  0  0  0  0  0  0  0  0  0  0  0
  -23.4560   -5.3847   21.7304 C   0  0  0  0  0  0  0  0  0  0  0  0
  -24.0868   -4.3450   22.4135 C   0  0  0  0  0  0  0  0  0  0  0  0
  -30.4222  -24.8636   23.5522 C   0  0  0  0  0  0  0  0  0  0  0  0
  -22.3848   -4.4374   24.1257 C   0  0  0  0  0  0  0  0  0  0  0  0
  -23.8281  -10.4680   20.9344 C   0  0  0  0  0  0  0  0  0  0  0  0
  -24.1338  -13.0004   20.8983 C   0  0  0  0  0  0  0  0  0  0  0  0
  -27.9493  -20.9224   16.5275 C   0  0  0  0  0  0  0  0  0  0  0  0
  -28.6284  -24.7304   21.9323 C   0  0  0  0  0  0  0  0  0  0  0  0
  -28.6618  -21.3187   17.6754 C   0  0  0  0  0  0  0  0  0  0  0  0
  -29.8652  -25.2601   22.3268 C   0  0  0  0  0  0  0  0  0  0  0  0
  -31.7424  -18.3811   24.4307 C   0  0  0  0  0  0  0  0  0  0  0  0
  -30.5907  -16.6578   22.5636 C   0  0  0  0  0  0  0  0  0  0  0  0
  -22.3738   -8.1254   21.3581 C   0  0  0  0  0  0  0  0  0  0  0  0
  -29.7523  -23.9626   24.3795 C   0  0  0  0  0  0  0  0  0  0  0  0
  -22.2897   -5.9509   22.2450 C   0  0  0  0  0  0  0  0  0  0  0  0
  -23.5512   -3.8713   23.6111 C   0  0  0  0  0  0  0  0  0  0  0  0
  -21.7541   -5.4772   23.4426 C   0  0  0  0  0  0  0  0  0  0  0  0
  -24.5799  -11.6777   20.7161 C   0  0  0  0  0  0  0  0  0  0  0  0
  -25.2148  -13.7771   20.5596 C   0  0  0  0  0  0  0  0  0  0  0  0
  -22.8566  -13.4838   21.3349 C   0  0  0  0  0  0  0  0  0  0  0  0
  -29.8126  -24.5759   18.9865 C   0  0  0  0  0  0  0  0  0  0  0  0
  -30.3507  -27.7401   19.4559 C   0  0  0  0  0  0  0  0  0  0  0  0
  -30.8365  -30.3008   21.6590 C   0  0  0  0  0  0  0  0  0  0  0  0
  -30.6657  -14.8942   20.7662 C   0  0  0  0  0  0  0  0  0  0  0  0
  -28.1664  -21.5861   15.1907 C   0  0  0  0  0  0  0  0  0  0  0  0
  -27.9961  -25.1561   20.6356 C   0  0  0  0  0  0  0  0  0  0  0  0
  -30.6193  -26.2394   21.4661 C   0  0  0  0  0  0  0  0  0  0  0  0
  -28.8524  -22.9461   15.2901 C   0  0  0  0  0  0  0  0  0  0  0  0
  -29.5835  -12.5449   18.3195 C   0  0  0  0  0  0  0  0  0  0  0  0
  -30.0540  -22.8707   16.2268 C   0  0  0  0  0  0  0  0  0  0  0  0
  -28.1486  -12.2186   18.7398 C   0  0  0  0  0  0  0  0  0  0  0  0
  -30.4964  -12.7466   19.5276 C   0  0  0  0  0  0  0  0  0  0  0  0
  -28.5807  -13.3974   20.9332 C   0  0  0  0  0  0  0  0  0  0  0  0
  -29.6228  -22.4874   17.6475 C   0  0  1  0  0  0  0  0  0  0  0  0
  -29.0084  -25.6759   19.6195 C   0  0  1  0  0  0  0  0  0  0  0  0
  -27.6093  -13.2496   19.7508 C   0  0  2  0  0  0  0  0  0  0  0  0
  -31.2881  -32.7678   21.7435 C   0  0  0  0  0  0  0  0  0  0  0  0
  -33.2598  -27.2315   18.6886 C   0  0  0  0  0  0  0  0  0  0  0  0
  -33.8393  -29.4516   19.6903 C   0  0  0  0  0  0  0  0  0  0  0  0
  -32.2836  -29.3313   17.7440 C   0  0  0  0  0  0  0  0  0  0  0  0
  -28.3174  -30.8295   23.1195 C   0  0  0  0  0  0  0  0  0  0  0  0
  -33.4109  -20.9884   23.9262 C   0  0  0  0  0  0  0  0  0  0  0  0
  -32.3617  -19.3080   25.4349 C   0  0  0  0  0  0  0  0  0  0  0  0
  -31.1551  -21.7727   26.8821 C   0  0  0  0  0  0  0  0  0  0  0  0
  -32.4692  -21.6998   26.1192 C   0  0  0  0  0  0  0  0  0  0  0  0
  -29.9878  -22.2818   26.0454 C   0  0  0  0  0  0  0  0  0  1  0  0
  -31.4879  -28.5596   20.0164 C   0  0  1  0  0  0  0  0  0  0  0  0
  -30.2200  -31.6853   21.7461 C   0  0  2  0  0  0  0  0  0  0  0  0
  -32.7046  -28.6236   19.0504 C   0  0  0  0  0  0  0  0  0  0  0  0
  -25.8456  -11.6139   20.2941 N   0  0  0  0  0  0  0  0  0  0  0  0
  -26.2040  -12.9063   20.2084 N   0  0  0  0  0  0  0  0  0  0  0  0
  -29.9626  -26.6201   20.2046 N   0  0  0  0  0  0  0  0  0  0  0  0
  -29.9237  -13.7396   20.4391 N   0  0  0  0  0  0  0  0  0  0  0  0
  -25.4062  -15.1131   20.5309 N   0  0  0  0  0  0  0  0  0  0  0  0
  -21.8580  -12.5496   21.6422 N   0  0  0  0  0  0  0  0  0  0  0  0
  -30.0061  -15.7821   21.6153 N   0  0  0  0  0  0  0  0  0  0  0  0
  -29.0510  -23.6297   18.3277 N   0  0  0  0  0  0  0  0  0  0  0  0
  -30.9245  -29.8621   20.3548 N   0  0  0  0  0  0  0  0  0  0  0  0
  -29.4194  -31.8180   22.9961 N   0  3  0  0  0  0  0  0  0  0  0  0
  -32.3632  -20.7499   24.9870 N   0  3  1  0  0  0  0  0  0  0  0  0
  -22.6028  -14.7083   21.4333 O   0  0  0  0  0  0  0  0  0  0  0  0
  -31.0339  -24.5856   19.0871 O   0  0  0  0  0  0  0  0  0  0  0  0
  -29.8214  -28.0853   18.3965 O   0  0  0  0  0  0  0  0  0  0  0  0
  -31.2067  -29.6730   22.6486 O   0  0  0  0  0  0  0  0  0  0  0  0
  -31.7919  -15.0945   20.3038 O   0  0  0  0  0  0  0  0  0  0  0  0
  -21.6642   -6.9825   21.5652 O   0  0  0  0  0  0  0  0  0  0  0  0
  -30.3035  -23.5882   25.5660 O   0  0  0  0  0  0  0  0  0  1  0  0
  -24.1562   -2.8717   24.2662 F   0  0  0  0  0  0  0  0  0  0  0  0
  -20.6331   -6.0163   23.9413 F   0  0  0  0  0  0  0  0  0  0  0  0
  1  2  1  0  0  0  0
  1  5  2  0  0  0  0
  2  6  2  0  0  0  0
  3 12  2  0  0  0  0
  3 19  1  0  0  0  0
  4 13  1  0  0  0  0
  4 19  2  0  0  0  0
  5 21  1  0  0  0  0
  6 23  1  0  0  0  0
  7 14  2  0  0  0  0
  7 22  1  0  0  0  0
  8 10  2  0  0  0  0
  8 25  1  0  0  0  0
  9 11  1  0  0  0  0
  9 25  2  0  0  0  0
 10 26  1  0  0  0  0
 11 26  2  0  0  0  0
 12 27  1  0  0  0  0
 13 27  2  0  0  0  0
 14 28  1  0  0  0  0
 15 16  2  0  0  0  0
 15 29  1  0  0  0  0
 16 30  1  0  0  0  0
 17 24  1  0  0  0  0
 17 28  2  0  0  0  0
 18 30  2  0  0  0  0
 18 31  1  0  0  0  0
 19 32  1  0  0  0  0
 20 32  1  0  0  0  0
 20 33  2  0  0  0  0
 20 34  1  0  0  0  0
 21 23  2  0  0  0  0
 21 39  1  0  0  0  0
 22 24  2  0  0  0  0
 22 40  1  0  0  0  0
 23 48  1  0  0  0  0
 24 41  1  0  0  0  0
 25 57  1  0  0  0  0
 26 70  1  0  0  0  0
 27 80  1  0  0  0  0
 28 81  1  0  0  0  0
 29 31  2  0  0  0  0
 29 80  1  0  0  0  0
 30 82  1  0  0  0  0
 31 83  1  0  0  0  0
 32 64  2  0  0  0  0
 33 65  1  0  0  0  0
 33 68  1  0  0  0  0
 34 69  1  0  0  0  0
 34 75  2  0  0  0  0
 35 49  1  0  0  0  0
 35 71  1  0  0  0  0
 35 76  2  0  0  0  0
 36 61  1  0  0  0  0
 36 66  1  0  0  0  0
 36 77  2  0  0  0  0
 37 62  1  0  0  0  0
 37 72  1  0  0  0  0
 37 78  2  0  0  0  0
 38 67  1  0  0  0  0
 38 70  1  0  0  0  0
 38 79  2  0  0  0  0
 39 42  1  0  0  0  0
 40 49  1  0  0  0  0
 41 66  1  0  0  0  0
 42 44  1  0  0  0  0
 43 45  1  0  0  0  0
 43 46  1  0  0  0  0
 44 48  1  0  0  0  0
 45 50  1  0  0  0  0
 46 67  1  0  0  0  0
 47 50  1  0  0  0  0
 47 67  1  0  0  0  0
 48 71  1  0  0  0  0
 49 66  1  0  0  0  0
 50 65  1  0  0  0  0
 51 62  1  0  0  0  0
 52 63  1  0  0  0  0
 53 63  1  0  0  0  0
 54 63  1  0  0  0  0
 55 73  1  0  0  0  0
 56 74  1  0  0  0  0
 57 74  1  0  0  0  0
 58 59  1  0  0  0  0
 58 60  1  0  0  0  0
 59 74  1  0  0  0  0
 60 81  1  0  0  0  0
 61 63  1  0  0  0  0
 61 72  1  0  0  0  0
 62 73  1  0  0  0  0
 64 65  1  0  0  0  0
M  CHG  2  73   1  74   1
M  ISO  4  38 100  60 101  70 100  81 101
M  END
> <Batch ID>
0003

> <Smiles>
CNC(C)C(=O)NC(C(=O)N1Cc2cc([101O:1][101CH2:1]CCN(C)Cc3ccc([100NH:0][100C:0](=O)N4CCCC(n5nc(-c6ccc(Oc7ccc(F)cc7F)cc6)c(C(N)=O)c5N)C4)cc3)ccc2CC1C(=O)NC1CCCc2ccccc21)C(C)(C)C

> <Shape>
0.252

> <Color>
0.203

> <Negative vol penalty>
0.000

$$$$

  -OEChem-04052315213D

 91 99  0     1  0  0  0  0  0999 V2000
  -17.1324  -29.4670   24.7614 C   0  0  0  0  0  0  0  0  0  0  0  0
  -17.8228  -28.3009   24.4469 C   0  0  0  0  0  0  0  0  0  0  0  0
  -29.0958  -19.3061   18.9407 C   0  0  0  0  0  0  0  0  0  0  0  0
  -27.4976  -20.0112   20.6098 C   0  0  0  0  0  0  0  0  0  0  0  0
  -17.3334  -30.6205   24.0044 C   0  0  0  0  0  0  0  0  0  0  0  0
  -18.7138  -28.2873   23.3743 C   0  0  0  0  0  0  0  0  0  0  0  0
  -23.0748  -25.9726   24.5009 C   0  0  0  0  0  0  0  0  0  0  0  0
  -23.4656  -18.4170   25.5200 C   0  0  0  0  0  0  0  0  0  0  0  0
  -29.3301  -20.6388   18.6021 C   0  0  0  0  0  0  0  0  0  0  0  0
  -27.7320  -21.3439   20.2712 C   0  0  0  0  0  0  0  0  0  0  0  0
  -23.0725  -24.5784   24.5073 C   0  0  0  0  0  0  0  0  0  0  0  0
  -31.0909  -23.2494   19.8338 C   0  0  0  0  0  0  0  0  0  0  0  0
  -23.7435  -17.1755   26.0919 C   0  0  0  0  0  0  0  0  0  0  0  0
  -32.4159  -23.6533   19.6699 C   0  0  0  0  0  0  0  0  0  0  0  0
  -24.0652  -24.5727   22.3087 C   0  0  0  0  0  0  0  0  0  0  0  0
  -21.6475  -17.4338   24.2690 C   0  0  0  0  0  0  0  0  0  0  0  0
  -31.9432  -24.2764   17.3839 C   0  0  0  0  0  0  0  0  0  0  0  0
  -28.1795  -18.9923   19.9446 C   0  0  0  0  0  0  0  0  0  0  0  0
  -28.6136  -16.8532   21.2651 C   0  0  0  0  0  0  0  0  0  0  0  0
  -18.2345  -30.6237   22.9281 C   0  0  0  0  0  0  0  0  0  0  0  0
  -23.5631  -26.6785   23.3919 C   0  0  0  0  0  0  0  0  0  0  0  0
  -18.9260  -29.4415   22.6014 C   0  0  0  0  0  0  0  0  0  0  0  0
  -24.0750  -25.9758   22.2918 C   0  0  0  0  0  0  0  0  0  0  0  0
  -22.4175  -18.5462   24.6086 C   0  0  0  0  0  0  0  0  0  0  0  0
  -28.6482  -21.6577   19.2673 C   0  0  0  0  0  0  0  0  0  0  0  0
  -23.5651  -23.8782   23.4100 C   0  0  0  0  0  0  0  0  0  0  0  0
  -30.1920  -23.3589   18.7727 C   0  0  0  0  0  0  0  0  0  0  0  0
  -21.9254  -16.1923   24.8409 C   0  0  0  0  0  0  0  0  0  0  0  0
  -32.8420  -24.1668   18.4450 C   0  0  0  0  0  0  0  0  0  0  0  0
  -22.9734  -16.0632   25.7523 C   0  0  0  0  0  0  0  0  0  0  0  0
  -30.6182  -23.8724   17.5479 C   0  0  0  0  0  0  0  0  0  0  0  0
  -27.9366  -17.6158   20.2945 C   0  0  0  0  0  0  0  0  0  0  0  0
  -28.0129  -15.6192   21.2124 C   0  0  0  0  0  0  0  0  0  0  0  0
  -29.6891  -17.2270   22.1364 C   0  0  0  0  0  0  0  0  0  0  0  0
  -22.3097  -28.7209   21.3035 C   0  0  0  0  0  0  0  0  0  0  0  0
  -25.3799  -28.9579   20.2837 C   0  0  0  0  0  0  0  0  0  0  0  0
  -21.6624  -19.6099   21.5861 C   0  0  0  0  0  0  0  0  0  0  0  0
  -28.4763  -27.5404   20.0605 C   0  0  0  0  0  0  0  0  0  0  0  0
  -22.8130  -13.2110   20.3900 C   0  0  0  0  0  0  0  0  0  0  0  0
  -18.3832  -31.8816   22.1095 C   0  0  0  0  0  0  0  0  0  0  0  0
  -23.5833  -28.1823   23.4116 C   0  0  0  0  0  0  0  0  0  0  0  0
  -24.6291  -26.6864   21.0850 C   0  0  0  0  0  0  0  0  0  0  0  0
  -19.6250  -31.8875   21.2217 C   0  0  0  0  0  0  0  0  0  0  0  0
  -25.3108  -13.1999   17.8527 C   0  0  0  0  0  0  0  0  0  0  0  0
  -19.7570  -30.5612   20.4797 C   0  0  0  0  0  0  0  0  0  0  0  0
  -26.3054  -14.2666   18.3139 C   0  0  0  0  0  0  0  0  0  0  0  0
  -23.8717  -13.5899   18.1827 C   0  0  0  0  0  0  0  0  0  0  0  0
  -24.6263  -14.9994   20.0582 C   0  0  0  0  0  0  0  0  0  0  0  0
  -19.9195  -29.3940   21.4608 C   0  0  1  0  0  0  0  0  0  0  0  0
  -23.6302  -28.7976   22.0164 C   0  0  1  0  0  0  0  0  0  0  0  0
  -26.0954  -14.6251   19.7974 C   0  0  2  0  0  0  0  0  0  0  0  0
  -20.9725  -20.0386   19.2144 C   0  0  0  0  0  0  0  0  0  0  0  0
  -22.8232  -18.4239   19.6860 C   0  0  0  0  0  0  0  0  0  0  0  0
  -30.7717  -27.9574   19.1362 C   0  0  0  0  0  0  0  0  0  0  0  0
  -24.3677  -28.3027   17.4808 C   0  0  0  0  0  0  0  0  0  0  0  0
  -26.7300  -27.8008   16.8206 C   0  0  0  0  0  0  0  0  0  0  0  0
  -26.1071  -30.0975   17.5688 C   0  0  0  0  0  0  0  0  0  0  0  0
  -29.7046  -27.4382   22.7511 C   0  0  0  0  0  0  0  0  0  0  0  0
  -22.1203  -19.8827   23.9925 C   0  0  0  0  0  0  0  0  0  0  0  0
  -20.5049  -13.6370   22.7355 C   0  0  0  0  0  0  0  0  0  0  0  0
  -21.8570  -12.9402   22.6641 C   0  0  0  0  0  0  0  0  0  0  0  0
  -23.9515  -20.3611   22.4232 C   0  0  0  0  0  0  0  0  0  0  0  0
  -20.6078  -15.0847   23.1998 C   0  0  0  0  0  0  0  0  0  0  0  0
  -24.0831  -21.8644   22.2558 C   0  0  0  0  0  0  0  0  0  1  0  0
  -26.2286  -28.2304   19.2691 C   0  0  1  0  0  0  0  0  0  0  0  0
  -22.1489  -19.7228   20.1371 C   0  0  0  0  0  0  0  0  0  0  0  0
  -29.8606  -28.0941   20.3461 C   0  0  2  0  0  0  0  0  0  0  0  0
  -25.8462  -28.5941   17.8066 C   0  0  0  0  0  0  0  0  0  0  0  0
  -26.9793  -16.9241   19.6708 N   0  0  0  0  0  0  0  0  0  0  0  0
  -27.0504  -15.7138   20.2507 N   0  0  0  0  0  0  0  0  0  0  0  0
  -24.6213  -28.1572   21.1493 N   0  0  0  0  0  0  0  0  0  0  0  0
  -23.7399  -13.9162   19.6047 N   0  0  0  0  0  0  0  0  0  0  0  0
  -28.2194  -14.4732   21.8954 N   0  0  0  0  0  0  0  0  0  0  0  0
  -30.1873  -18.5348   22.0599 N   0  0  0  0  0  0  0  0  0  0  0  0
  -21.2734  -29.3465   21.9700 N   0  0  0  0  0  0  0  0  0  0  0  0
  -27.6160  -28.5211   19.6139 N   0  0  0  0  0  0  0  0  0  0  0  0
  -22.7562  -13.5784   21.7288 N   0  0  0  0  0  0  0  0  0  0  0  0
  -22.5808  -19.9606   22.6001 N   0  0  0  0  0  0  0  0  0  0  0  0
  -30.4837  -27.3672   21.4882 N   0  3  0  0  0  0  0  0  0  0  0  0
  -30.2044  -16.4202   22.9469 O   0  0  0  0  0  0  0  0  0  0  0  0
  -22.2368  -28.1385   20.2278 O   0  0  0  0  0  0  0  0  0  0  0  0
  -25.3951  -30.1910   20.3120 O   0  0  0  0  0  0  0  0  0  0  0  0
  -20.5035  -19.2449   21.8126 O   0  0  0  0  0  0  0  0  0  0  0  0
  -28.1880  -26.3556   20.2143 O   0  0  0  0  0  0  0  0  0  0  0  0
  -22.0935  -12.3163   19.9331 O   0  0  0  0  0  0  0  0  0  0  0  0
  -28.8767  -22.9582   18.9373 O   0  0  0  0  0  0  0  0  0  0  0  0
  -23.5635  -22.5174   23.4134 O   0  0  0  0  0  0  0  0  0  1  0  0
  -21.1725  -15.1078   24.5099 O   0  0  0  0  0  0  0  0  0  0  0  0
  -34.1141  -24.5560   18.2882 F   0  0  0  0  0  0  0  0  0  0  0  0
  -23.2442  -14.8732   26.3060 F   0  0  0  0  0  0  0  0  0  0  0  0
  -29.7590  -23.9812   16.5252 F   0  0  0  0  0  0  0  0  0  0  0  0
  1  2  1  0  0  0  0
  1  5  2  0  0  0  0
  2  6  2  0  0  0  0
  3  9  2  0  0  0  0
  3 18  1  0  0  0  0
  4 10  1  0  0  0  0
  4 18  2  0  0  0  0
  5 20  1  0  0  0  0
  6 22  1  0  0  0  0
  7 11  2  0  0  0  0
  7 21  1  0  0  0  0
  8 13  2  0  0  0  0
  8 24  1  0  0  0  0
  9 25  1  0  0  0  0
 10 25  2  0  0  0  0
 11 26  1  0  0  0  0
 12 14  2  0  0  0  0
 12 27  1  0  0  0  0
 13 30  1  0  0  0  0
 14 29  1  0  0  0  0
 15 23  1  0  0  0  0
 15 26  2  0  0  0  0
 16 24  2  0  0  0  0
 16 28  1  0  0  0  0
 17 29  2  0  0  0  0
 17 31  1  0  0  0  0
 18 32  1  0  0  0  0
 19 32  1  0  0  0  0
 19 33  2  0  0  0  0
 19 34  1  0  0  0  0
 20 22  2  0  0  0  0
 20 40  1  0  0  0  0
 21 23  2  0  0  0  0
 21 41  1  0  0  0  0
 22 49  1  0  0  0  0
 23 42  1  0  0  0  0
 24 59  1  0  0  0  0
 25 86  1  0  0  0  0
 26 87  1  0  0  0  0
 27 31  2  0  0  0  0
 27 86  1  0  0  0  0
 28 30  2  0  0  0  0
 28 88  1  0  0  0  0
 29 89  1  0  0  0  0
 30 90  1  0  0  0  0
 31 91  1  0  0  0  0
 32 69  2  0  0  0  0
 33 70  1  0  0  0  0
 33 73  1  0  0  0  0
 34 74  1  0  0  0  0
 34 80  2  0  0  0  0
 35 50  1  0  0  0  0
 35 75  1  0  0  0  0
 35 81  2  0  0  0  0
 36 65  1  0  0  0  0
 36 71  1  0  0  0  0
 36 82  2  0  0  0  0
 37 66  1  0  0  0  0
 37 78  1  0  0  0  0
 37 83  2  0  0  0  0
 38 67  1  0  0  0  0
 38 76  1  0  0  0  0
 38 84  2  0  0  0  0
 39 72  1  0  0  0  0
 39 77  1  0  0  0  0
 39 85  2  0  0  0  0
 40 43  1  0  0  0  0
 41 50  1  0  0  0  0
 42 71  1  0  0  0  0
 43 45  1  0  0  0  0
 44 46  1  0  0  0  0
 44 47  1  0  0  0  0
 45 49  1  0  0  0  0
 46 51  1  0  0  0  0
 47 72  1  0  0  0  0
 48 51  1  0  0  0  0
 48 72  1  0  0  0  0
 49 75  1  0  0  0  0
 50 71  1  0  0  0  0
 51 70  1  0  0  0  0
 52 66  1  0  0  0  0
 53 66  1  0  0  0  0
 54 67  1  0  0  0  0
 55 68  1  0  0  0  0
 56 68  1  0  0  0  0
 57 68  1  0  0  0  0
 58 79  1  0  0  0  0
 59 78  1  0  0  0  0
 60 61  1  0  0  0  0
 60 63  1  0  0  0  0
 61 77  1  0  0  0  0
 62 64  1  0  0  0  0
 62 78  1  0  0  0  0
 63 88  1  0  0  0  0
 64 87  1  0  0  0  0
 65 68  1  0  0  0  0
 65 76  1  0  0  0  0
 67 79  1  0  0  0  0
 69 70  1  0  0  0  0
M  CHG  1  79   1
M  ISO  4  39 100  64 101  77 100  87 101
M  END
> <Batch ID>
0003

> <Smiles>
CNC(C)C(=O)NC(C(=O)N1Cc2cc([101O:1][101CH2:1]CN(Cc3ccc(F)c(OCCC[100NH:0][100C:0](=O)N4CCCC(n5nc(-c6ccc(Oc7ccc(F)cc7F)cc6)c(C(N)=O)c5N)C4)c3)C(=O)C(C)C)ccc2CC1C(=O)NC1CCCc2ccccc21)C(C)(C)C

> <Shape>
0.221

> <Color>
0.072

> <Negative vol penalty>
0.000

$$$$

  -OEChem-04052315213D

 85 92  0     1  0  0  0  0  0999 V2000
  -22.7397  -10.4578   18.0001 C   0  0  0  0  0  0  0  0  0  0  0  0
  -22.3648  -11.7924   17.8840 C   0  0  0  0  0  0  0  0  0  0  0  0
  -31.7230  -26.6983   19.9141 C   0  0  0  0  0  0  0  0  0  0  0  0
  -30.7959  -27.5989   21.9553 C   0  0  0  0  0  0  0  0  0  0  0  0
  -23.7103  -10.0858   18.9295 C   0  0  0  0  0  0  0  0  0  0  0  0
  -22.9595  -12.7559   18.6980 C   0  0  0  0  0  0  0  0  0  0  0  0
  -24.2605  -18.5491   17.1974 C   0  0  0  0  0  0  0  0  0  0  0  0
  -32.9467  -27.3020   20.2035 C   0  0  0  0  0  0  0  0  0  0  0  0
  -32.0196  -28.2027   22.2447 C   0  0  0  0  0  0  0  0  0  0  0  0
  -23.5966  -19.7516   17.4360 C   0  0  0  0  0  0  0  0  0  0  0  0
  -35.6065  -26.7069   22.2045 C   0  0  0  0  0  0  0  0  0  0  0  0
  -36.7620  -25.9444   22.0338 C   0  0  0  0  0  0  0  0  0  0  0  0
  -24.9902  -20.1306   19.3682 C   0  0  0  0  0  0  0  0  0  0  0  0
  -37.5772  -27.5421   20.4152 C   0  0  0  0  0  0  0  0  0  0  0  0
  -30.6476  -26.8468   20.7900 C   0  0  0  0  0  0  0  0  0  0  0  0
  -28.9604  -24.9350   20.8682 C   0  0  0  0  0  0  0  0  0  0  0  0
  -24.3241  -11.0466   19.7486 C   0  0  0  0  0  0  0  0  0  0  0  0
  -25.2887  -18.1223   18.0501 C   0  0  0  0  0  0  0  0  0  0  0  0
  -23.9382  -12.3963   19.6401 C   0  0  0  0  0  0  0  0  0  0  0  0
  -25.6673  -18.9235   19.1368 C   0  0  0  0  0  0  0  0  0  0  0  0
  -33.0950  -28.0542   21.3687 C   0  0  0  0  0  0  0  0  0  0  0  0
  -23.9594  -20.5411   18.5232 C   0  0  0  0  0  0  0  0  0  0  0  0
  -35.4363  -27.8870   21.4804 C   0  0  0  0  0  0  0  0  0  0  0  0
  -37.7473  -26.3620   21.1392 C   0  0  0  0  0  0  0  0  0  0  0  0
  -36.4217  -28.3046   20.5858 C   0  0  0  0  0  0  0  0  0  0  0  0
  -29.3831  -26.2238   20.4913 C   0  0  0  0  0  0  0  0  0  0  0  0
  -27.6956  -24.8218   20.3447 C   0  0  0  0  0  0  0  0  0  0  0  0
  -29.6493  -23.9301   21.6240 C   0  0  0  0  0  0  0  0  0  0  0  0
  -25.7306  -15.6125   19.9499 C   0  0  0  0  0  0  0  0  0  0  0  0
  -28.6910  -16.8912   20.3011 C   0  0  0  0  0  0  0  0  0  0  0  0
  -20.4880  -24.2314   21.9181 C   0  0  0  0  0  0  0  0  0  0  0  0
  -22.4375  -29.3132   22.3530 C   0  0  0  0  0  0  0  0  0  0  0  0
  -30.6870  -19.6561   20.1681 C   0  0  0  0  0  0  0  0  0  0  0  0
  -23.5210  -28.8496   18.8612 C   0  0  0  0  0  0  0  0  0  0  0  0
  -25.3341  -10.5900   20.7713 C   0  0  0  0  0  0  0  0  0  0  0  0
  -26.0130  -16.8356   17.7636 C   0  0  0  0  0  0  0  0  0  0  0  0
  -26.7782  -18.5201   20.0704 C   0  0  0  0  0  0  0  0  0  0  0  0
  -26.1852  -11.7247   21.3355 C   0  0  0  0  0  0  0  0  0  0  0  0
  -24.9832  -26.3986   16.7326 C   0  0  0  0  0  0  0  0  0  0  0  0
  -25.3072  -12.9129   21.7149 C   0  0  0  0  0  0  0  0  0  0  0  0
  -26.2385  -25.9596   17.4885 C   0  0  0  0  0  0  0  0  0  0  0  0
  -24.7097  -27.8903   16.9110 C   0  0  0  0  0  0  0  0  0  0  0  0
  -25.9007  -27.9058   19.0686 C   0  0  0  0  0  0  0  0  0  0  0  0
  -24.5781  -13.4740   20.4881 C   0  0  1  0  0  0  0  0  0  0  0  0
  -26.6989  -16.2493   18.9937 C   0  0  1  0  0  0  0  0  0  0  0  0
  -26.1863  -26.3979   18.9645 C   0  0  2  0  0  0  0  0  0  0  0  0
  -33.0551  -20.3961   20.5448 C   0  0  0  0  0  0  0  0  0  0  0  0
  -28.2402  -16.7904   23.3171 C   0  0  0  0  0  0  0  0  0  0  0  0
  -30.1622  -18.3719   23.5870 C   0  0  0  0  0  0  0  0  0  0  0  0
  -30.5345  -16.1193   22.5822 C   0  0  0  0  0  0  0  0  0  0  0  0
  -30.9898  -20.5129   17.3515 C   0  0  0  0  0  0  0  0  0  0  0  0
  -21.7717  -23.4451   21.7209 C   0  0  0  0  0  0  0  0  0  0  0  0
  -22.4563  -29.7641   20.9080 C   0  0  0  0  0  0  0  0  0  0  0  0
  -21.9480  -22.9675   20.2840 C   0  0  0  0  0  0  0  0  0  0  0  0
  -19.4310  -26.9287   23.5385 C   0  0  0  0  0  0  0  0  0  0  0  0
  -20.6134  -27.4230   24.3790 C   0  0  0  0  0  0  0  0  0  0  0  0
  -19.2064  -25.4258   23.6729 C   0  0  0  0  0  0  0  0  0  0  0  0
  -20.8410  -28.9217   24.2242 C   0  0  0  0  0  0  0  0  0  0  0  0
  -23.2153  -22.1418   20.1170 C   0  0  0  0  0  0  0  0  0  1  0  0
  -29.3200  -17.8878   21.2445 C   0  0  1  0  0  0  0  0  0  0  0  0
  -32.0438  -19.8892   19.5284 C   0  0  2  0  0  0  0  0  0  0  0  0
  -29.5420  -17.2993   22.6664 C   0  0  0  0  0  0  0  0  0  0  0  0
  -28.4618  -26.8821   19.7830 N   0  0  0  0  0  0  0  0  0  0  0  0
  -27.4475  -26.0035   19.7105 N   0  0  0  0  0  0  0  0  0  0  0  0
  -27.4519  -17.2504   19.7520 N   0  0  0  0  0  0  0  0  0  0  0  0
  -24.6711  -28.2401   18.3330 N   0  0  0  0  0  0  0  0  0  0  0  0
  -26.7827  -23.8276   20.3696 N   0  0  0  0  0  0  0  0  0  0  0  0
  -30.9422  -24.2110   22.0864 N   0  0  0  0  0  0  0  0  0  0  0  0
  -25.4777  -14.2791   19.6899 N   0  0  0  0  0  0  0  0  0  0  0  0
  -20.3456  -24.6570   23.2307 N   0  0  0  0  0  0  0  0  0  0  0  0
  -21.1475  -29.2796   22.8466 N   0  0  0  0  0  0  0  0  0  0  0  0
  -30.5399  -18.3527   20.5932 N   0  0  0  0  0  0  0  0  0  0  0  0
  -23.5650  -29.1423   20.2189 N   0  0  0  0  0  0  0  0  0  0  0  0
  -31.9344  -20.8937   18.4330 N   0  3  0  0  0  0  0  0  0  0  0  0
  -29.1400  -22.8099   21.8676 O   0  0  0  0  0  0  0  0  0  0  0  0
  -25.2496  -16.2810   20.8574 O   0  0  0  0  0  0  0  0  0  0  0  0
  -29.2807  -15.8362   20.0547 O   0  0  0  0  0  0  0  0  0  0  0  0
  -19.6871  -24.4535   21.0140 O   0  0  0  0  0  0  0  0  0  0  0  0
  -23.4545  -29.0544   22.9914 O   0  0  0  0  0  0  0  0  0  0  0  0
  -29.8436  -20.5427   20.2829 O   0  0  0  0  0  0  0  0  0  0  0  0
  -22.5266  -29.1086   18.1750 O   0  0  0  0  0  0  0  0  0  0  0  0
  -34.2890  -28.6432   21.6516 O   0  0  0  0  0  0  0  0  0  0  0  0
  -23.3126  -21.7150   18.7588 O   0  0  0  0  0  0  0  0  0  1  0  0
  -38.8576  -25.6305   20.9766 F   0  0  0  0  0  0  0  0  0  0  0  0
  -36.2644  -29.4380   19.8884 F   0  0  0  0  0  0  0  0  0  0  0  0
  1  2  1  0  0  0  0
  1  5  2  0  0  0  0
  2  6  2  0  0  0  0
  3  8  2  0  0  0  0
  3 15  1  0  0  0  0
  4  9  1  0  0  0  0
  4 15  2  0  0  0  0
  5 17  1  0  0  0  0
  6 19  1  0  0  0  0
  7 10  2  0  0  0  0
  7 18  1  0  0  0  0
  8 21  1  0  0  0  0
  9 21  2  0  0  0  0
 10 22  1  0  0  0  0
 11 12  2  0  0  0  0
 11 23  1  0  0  0  0
 12 24  1  0  0  0  0
 13 20  1  0  0  0  0
 13 22  2  0  0  0  0
 14 24  2  0  0  0  0
 14 25  1  0  0  0  0
 15 26  1  0  0  0  0
 16 26  1  0  0  0  0
 16 27  2  0  0  0  0
 16 28  1  0  0  0  0
 17 19  2  0  0  0  0
 17 35  1  0  0  0  0
 18 20  2  0  0  0  0
 18 36  1  0  0  0  0
 19 44  1  0  0  0  0
 20 37  1  0  0  0  0
 21 82  1  0  0  0  0
 22 83  1  0  0  0  0
 23 25  2  0  0  0  0
 23 82  1  0  0  0  0
 24 84  1  0  0  0  0
 25 85  1  0  0  0  0
 26 63  2  0  0  0  0
 27 64  1  0  0  0  0
 27 67  1  0  0  0  0
 28 68  1  0  0  0  0
 28 75  2  0  0  0  0
 29 45  1  0  0  0  0
 29 69  1  0  0  0  0
 29 76  2  0  0  0  0
 30 60  1  0  0  0  0
 30 65  1  0  0  0  0
 30 77  2  0  0  0  0
 31 52  1  0  0  0  0
 31 70  1  0  0  0  0
 31 78  2  0  0  0  0
 32 53  1  0  0  0  0
 32 71  1  0  0  0  0
 32 79  2  0  0  0  0
 33 61  1  0  0  0  0
 33 72  1  0  0  0  0
 33 80  2  0  0  0  0
 34 66  1  0  0  0  0
 34 73  1  0  0  0  0
 34 81  2  0  0  0  0
 35 38  1  0  0  0  0
 36 45  1  0  0  0  0
 37 65  1  0  0  0  0
 38 40  1  0  0  0  0
 39 41  1  0  0  0  0
 39 42  1  0  0  0  0
 40 44  1  0  0  0  0
 41 46  1  0  0  0  0
 42 66  1  0  0  0  0
 43 46  1  0  0  0  0
 43 66  1  0  0  0  0
 44 69  1  0  0  0  0
 45 65  1  0  0  0  0
 46 64  1  0  0  0  0
 47 61  1  0  0  0  0
 48 62  1  0  0  0  0
 49 62  1  0  0  0  0
 50 62  1  0  0  0  0
 51 74  1  0  0  0  0
 52 54  1  0  0  0  0
 53 73  1  0  0  0  0
 54 59  1  0  0  0  0
 55 56  1  0  0  0  0
 55 57  1  0  0  0  0
 56 58  1  0  0  0  0
 57 70  1  0  0  0  0
 58 71  1  0  0  0  0
 59 83  1  0  0  0  0
 60 62  1  0  0  0  0
 60 72  1  0  0  0  0
 61 74  1  0  0  0  0
 63 64  1  0  0  0  0
M  CHG  1  74   1
M  ISO  4  34 100  59 101  73 100  83 101
M  END
> <Batch ID>
0003

> <Smiles>
CNC(C)C(=O)NC(C(=O)N1Cc2cc([101O:1][101CH2:1]CCC(=O)NCCCCNC(=O)C[100NH:0][100C:0](=O)N3CCCC(n4nc(-c5ccc(Oc6ccc(F)cc6F)cc5)c(C(N)=O)c4N)C3)ccc2CC1C(=O)NC1CCCc2ccccc21)C(C)(C)C

> <Shape>
0.186

> <Color>
0.083

> <Negative vol penalty>
0.000

$$$$

  -OEChem-04052315213D

100108  0     1  0  0  0  0  0999 V2000
  -21.5022   -6.6356   21.6980 C   0  0  0  0  0  0  0  0  0  0  0  0
  -22.6855   -7.0127   22.3250 C   0  0  0  0  0  0  0  0  0  0  0  0
  -24.8453  -31.1191   20.7671 C   0  0  0  0  0  0  0  0  0  0  0  0
  -24.6879  -29.8713   22.8299 C   0  0  0  0  0  0  0  0  0  0  0  0
  -21.1083   -7.2658   20.5183 C   0  0  0  0  0  0  0  0  0  0  0  0
  -23.4760   -8.0196   21.7721 C   0  0  0  0  0  0  0  0  0  0  0  0
  -27.8868  -13.3334   23.6758 C   0  0  0  0  0  0  0  0  0  0  0  0
  -29.6301  -18.9570   20.1566 C   0  0  0  0  0  0  0  0  0  0  0  0
  -29.0003  -19.4631   21.2935 C   0  0  0  0  0  0  0  0  0  0  0  0
  -24.1822  -32.1908   21.3648 C   0  0  0  0  0  0  0  0  0  0  0  0
  -24.0249  -30.9430   23.4277 C   0  0  0  0  0  0  0  0  0  0  0  0
  -29.1682  -13.8159   23.4131 C   0  0  0  0  0  0  0  0  0  0  0  0
  -24.9361  -34.7209   23.4775 C   0  0  0  0  0  0  0  0  0  0  0  0
  -25.4523  -35.9999   23.2695 C   0  0  0  0  0  0  0  0  0  0  0  0
  -28.3478  -14.8890   21.4144 C   0  0  0  0  0  0  0  0  0  0  0  0
  -23.3692  -36.6744   22.2482 C   0  0  0  0  0  0  0  0  0  0  0  0
  -25.0981  -29.9592   21.4997 C   0  0  0  0  0  0  0  0  0  0  0  0
  -27.1711  -28.6220   20.8499 C   0  0  0  0  0  0  0  0  0  0  0  0
  -21.8895   -8.2876   19.9559 C   0  0  0  0  0  0  0  0  0  0  0  0
  -26.8268  -13.6165   22.8026 C   0  0  0  0  0  0  0  0  0  0  0  0
  -23.0928   -8.6631   20.5831 C   0  0  0  0  0  0  0  0  0  0  0  0
  -27.0534  -14.4111   21.6697 C   0  0  0  0  0  0  0  0  0  0  0  0
  -29.3676  -19.5169   18.9062 C   0  0  0  0  0  0  0  0  0  0  0  0
  -28.1079  -20.5292   21.1802 C   0  0  0  0  0  0  0  0  0  0  0  0
  -28.4752  -20.5830   18.7929 C   0  0  0  0  0  0  0  0  0  0  0  0
  -27.8454  -21.0892   19.9299 C   0  0  0  0  0  0  0  0  0  0  0  0
  -23.7720  -32.1028   22.6951 C   0  0  0  0  0  0  0  0  0  0  0  0
  -29.3995  -14.5914   22.2807 C   0  0  0  0  0  0  0  0  0  0  0  0
  -23.6365  -34.4186   23.0708 C   0  0  0  0  0  0  0  0  0  0  0  0
  -24.6689  -36.9767   22.6549 C   0  0  0  0  0  0  0  0  0  0  0  0
  -22.8530  -35.3954   22.4562 C   0  0  0  0  0  0  0  0  0  0  0  0
  -25.7825  -28.8516   20.8826 C   0  0  0  0  0  0  0  0  0  0  0  0
  -27.3085  -27.4476   20.1510 C   0  0  0  0  0  0  0  0  0  0  0  0
  -28.2410  -29.4005   21.4020 C   0  0  0  0  0  0  0  0  0  0  0  0
  -24.8833  -11.8692   20.9933 C   0  0  0  0  0  0  0  0  0  0  0  0
  -23.4335  -14.7244   20.4753 C   0  0  0  0  0  0  0  0  0  0  0  0
  -29.0000  -16.7826   17.1384 C   0  0  0  0  0  0  0  0  0  0  0  0
  -26.5447  -12.5659   15.6286 C   0  0  0  0  0  0  0  0  0  0  0  0
  -31.0454  -12.1608   19.5533 C   0  0  0  0  0  0  0  0  0  0  0  0
  -23.6755  -18.1280   20.4159 C   0  0  0  0  0  0  0  0  0  0  0  0
  -25.7570  -22.2094   19.0754 C   0  0  0  0  0  0  0  0  0  0  0  0
  -21.4467   -8.9069   18.6540 C   0  0  0  0  0  0  0  0  0  0  0  0
  -25.4449  -13.1109   23.1143 C   0  0  0  0  0  0  0  0  0  0  0  0
  -25.9451  -14.7604   20.7115 C   0  0  0  0  0  0  0  0  0  0  0  0
  -22.1513  -10.2229   18.3348 C   0  0  0  0  0  0  0  0  0  0  0  0
  -23.9366  -24.8050   17.4550 C   0  0  0  0  0  0  0  0  0  0  0  0
  -23.6541  -10.0924   18.5613 C   0  0  0  0  0  0  0  0  0  0  0  0
  -24.3687  -26.0703   18.1996 C   0  0  0  0  0  0  0  0  0  0  0  0
  -23.8180  -23.6065   18.3947 C   0  0  0  0  0  0  0  0  0  0  0  0
  -25.4398  -24.6044   19.9577 C   0  0  0  0  0  0  0  0  0  0  0  0
  -23.9649   -9.7681   20.0275 C   0  0  1  0  0  0  0  0  0  0  0  0
  -24.5462  -13.0313   21.8842 C   0  0  1  0  0  0  0  0  0  0  0  0
  -25.6358  -25.8235   19.0417 C   0  0  2  0  0  0  0  0  0  0  0  0
  -27.4485  -21.0490   22.4167 C   0  0  0  0  0  0  0  0  0  0  0  0
  -28.1973  -21.1780   17.4478 C   0  0  0  0  0  0  0  0  0  0  0  0
  -22.3346  -20.1898   19.9177 C   0  0  0  0  0  0  0  0  0  0  0  0
  -23.7233  -14.1875   17.4857 C   0  0  0  0  0  0  0  0  0  0  0  0
  -23.2641  -16.6144   17.0762 C   0  0  0  0  0  0  0  0  0  0  0  0
  -21.5306  -15.1842   18.1589 C   0  0  0  0  0  0  0  0  0  0  0  0
  -23.9847  -19.1378   23.1806 C   0  0  0  0  0  0  0  0  0  0  0  0
  -30.0591  -18.9524   17.6991 C   0  0  0  0  0  0  0  0  0  0  0  0
  -28.0390  -16.1557   16.1416 C   0  0  0  0  0  0  0  0  0  0  0  0
  -26.8052  -14.0446   15.3890 C   0  0  0  0  0  0  0  0  0  0  0  0
  -30.9405  -10.6486   19.5754 C   0  0  0  0  0  0  0  0  0  0  0  0
  -27.8138  -14.6584   16.3623 C   0  0  0  0  0  0  0  0  0  0  0  0
  -29.5926  -10.1462   19.0610 C   0  0  0  0  0  0  0  0  0  0  0  0
  -29.3487  -10.5192   17.5960 C   0  0  0  0  0  0  0  0  0  0  0  0
  -28.0063   -9.9778   17.1026 C   0  0  0  0  0  0  0  0  0  0  0  0
  -32.9189  -14.4657   21.5206 C   0  0  0  0  0  0  0  0  0  0  0  0
  -27.7430  -10.3803   15.6564 C   0  0  0  0  0  0  0  0  0  0  0  0
  -32.5989  -14.0262   20.0982 C   0  0  0  0  0  0  0  0  0  0  0  0
  -31.7484  -14.2752   22.4775 C   0  0  0  0  0  0  0  0  0  1  0  0
  -23.5929  -15.8371   19.4676 C   0  0  1  0  0  0  0  0  0  0  0  0
  -22.7823  -19.2116   20.9926 C   0  0  2  0  0  0  0  0  0  0  0  0
  -23.0492  -15.4478   18.0639 C   0  0  0  0  0  0  0  0  0  0  0  0
  -25.0875  -27.8996   20.2544 N   0  0  0  0  0  0  0  0  0  0  0  0
  -26.0432  -27.0605   19.8202 N   0  0  0  0  0  0  0  0  0  0  0  0
  -24.6129  -14.2373   21.0564 N   0  0  0  0  0  0  0  0  0  0  0  0
  -25.0566  -23.4315   19.1564 N   0  0  0  0  0  0  0  0  0  0  0  0
  -28.3870  -26.7187   19.7932 N   0  0  0  0  0  0  0  0  0  0  0  0
  -27.9233  -30.5795   22.0900 N   0  0  0  0  0  0  0  0  0  0  0  0
  -26.9374  -22.1711   19.8168 N   0  0  0  0  0  0  0  0  0  0  0  0
  -23.8548  -10.9587   20.8429 N   0  0  0  0  0  0  0  0  0  0  0  0
  -29.1737  -18.1383   16.9006 N   0  0  0  0  0  0  0  0  0  0  0  0
  -27.7061  -11.8091   15.5042 N   0  0  0  0  0  0  0  0  0  0  0  0
  -32.2669  -12.6306   20.0188 N   0  0  0  0  0  0  0  0  0  0  0  0
  -22.9535  -17.0112   20.0515 N   0  0  0  0  0  0  0  0  0  0  0  0
  -23.5075  -19.9731   22.0485 N   0  3  0  0  0  0  0  0  0  0  0  0
  -29.4441  -29.0694   21.2743 O   0  0  0  0  0  0  0  0  0  0  0  0
  -25.9938  -11.8042   20.4793 O   0  0  0  0  0  0  0  0  0  0  0  0
  -22.3036  -14.3078   20.7425 O   0  0  0  0  0  0  0  0  0  0  0  0
  -29.5626  -16.1470   18.0259 O   0  0  0  0  0  0  0  0  0  0  0  0
  -25.4321  -12.1108   15.8789 O   0  0  0  0  0  0  0  0  0  0  0  0
  -30.1171  -12.8640   19.1602 O   0  0  0  0  0  0  0  0  0  0  0  0
  -24.8916  -18.2606   20.2969 O   0  0  0  0  0  0  0  0  0  0  0  0
  -25.3545  -21.2758   18.3765 O   0  0  0  0  0  0  0  0  0  0  0  0
  -23.1252  -33.1486   23.2787 O   0  0  0  0  0  0  0  0  0  0  0  0
  -30.6494  -15.0630   22.0215 O   0  0  0  0  0  0  0  0  0  1  0  0
  -25.1641  -38.2053   22.4566 F   0  0  0  0  0  0  0  0  0  0  0  0
  -21.6034  -35.1113   22.0644 F   0  0  0  0  0  0  0  0  0  0  0  0
  1  2  1  0  0  0  0
  1  5  2  0  0  0  0
  2  6  2  0  0  0  0
  3 10  2  0  0  0  0
  3 17  1  0  0  0  0
  4 11  1  0  0  0  0
  4 17  2  0  0  0  0
  5 19  1  0  0  0  0
  6 21  1  0  0  0  0
  7 12  2  0  0  0  0
  7 20  1  0  0  0  0
  8  9  2  0  0  0  0
  8 23  1  0  0  0  0
  9 24  1  0  0  0  0
 10 27  1  0  0  0  0
 11 27  2  0  0  0  0
 12 28  1  0  0  0  0
 13 14  2  0  0  0  0
 13 29  1  0  0  0  0
 14 30  1  0  0  0  0
 15 22  1  0  0  0  0
 15 28  2  0  0  0  0
 16 30  2  0  0  0  0
 16 31  1  0  0  0  0
 17 32  1  0  0  0  0
 18 32  1  0  0  0  0
 18 33  2  0  0  0  0
 18 34  1  0  0  0  0
 19 21  2  0  0  0  0
 19 42  1  0  0  0  0
 20 22  2  0  0  0  0
 20 43  1  0  0  0  0
 21 51  1  0  0  0  0
 22 44  1  0  0  0  0
 23 25  2  0  0  0  0
 23 61  1  0  0  0  0
 24 26  2  0  0  0  0
 24 54  1  0  0  0  0
 25 26  1  0  0  0  0
 25 55  1  0  0  0  0
 26 82  1  0  0  0  0
 27 97  1  0  0  0  0
 28 98  1  0  0  0  0
 29 31  2  0  0  0  0
 29 97  1  0  0  0  0
 30 99  1  0  0  0  0
 31100  1  0  0  0  0
 32 76  2  0  0  0  0
 33 77  1  0  0  0  0
 33 80  1  0  0  0  0
 34 81  1  0  0  0  0
 34 89  2  0  0  0  0
 35 52  1  0  0  0  0
 35 83  1  0  0  0  0
 35 90  2  0  0  0  0
 36 73  1  0  0  0  0
 36 78  1  0  0  0  0
 36 91  2  0  0  0  0
 37 62  1  0  0  0  0
 37 84  1  0  0  0  0
 37 92  2  0  0  0  0
 38 63  1  0  0  0  0
 38 85  1  0  0  0  0
 38 93  2  0  0  0  0
 39 64  1  0  0  0  0
 39 86  1  0  0  0  0
 39 94  2  0  0  0  0
 40 74  1  0  0  0  0
 40 87  1  0  0  0  0
 40 95  2  0  0  0  0
 41 79  1  0  0  0  0
 41 82  1  0  0  0  0
 41 96  2  0  0  0  0
 42 45  1  0  0  0  0
 43 52  1  0  0  0  0
 44 78  1  0  0  0  0
 45 47  1  0  0  0  0
 46 48  1  0  0  0  0
 46 49  1  0  0  0  0
 47 51  1  0  0  0  0
 48 53  1  0  0  0  0
 49 79  1  0  0  0  0
 50 53  1  0  0  0  0
 50 79  1  0  0  0  0
 51 83  1  0  0  0  0
 52 78  1  0  0  0  0
 53 77  1  0  0  0  0
 56 74  1  0  0  0  0
 57 75  1  0  0  0  0
 58 75  1  0  0  0  0
 59 75  1  0  0  0  0
 60 88  1  0  0  0  0
 61 84  1  0  0  0  0
 62 65  1  0  0  0  0
 63 65  1  0  0  0  0
 64 66  1  0  0  0  0
 66 67  1  0  0  0  0
 67 68  1  0  0  0  0
 68 70  1  0  0  0  0
 69 71  1  0  0  0  0
 69 72  1  0  0  0  0
 70 85  1  0  0  0  0
 71 86  1  0  0  0  0
 72 98  1  0  0  0  0
 73 75  1  0  0  0  0
 73 87  1  0  0  0  0
 74 88  1  0  0  0  0
 76 77  1  0  0  0  0
M  CHG  1  88   1
M  ISO  4  41 100  72 101  82 100  98 101
M  END
> <Batch ID>
0003

> <Smiles>
CNC(C)C(=O)NC(C(=O)N1Cc2cc([101O:1][101CH2:1]CCNC(=O)CCCCCNC(=O)CCCC(=O)NCc3ccc(C)c([100NH:0][100C:0](=O)N4CCCC(n5nc(-c6ccc(Oc7ccc(F)cc7F)cc6)c(C(N)=O)c5N)C4)c3C)ccc2CC1C(=O)NC1CCCc2ccccc21)C(C)(C)C

> <Shape>
0.264

> <Color>
0.073

> <Negative vol penalty>
0.000

$$$$

  -OEChem-04052315213D

 85 93  0     1  0  0  0  0  0999 V2000
  -26.5609  -35.3133   22.6198 C   0  0  0  0  0  0  0  0  0  0  0  0
  -27.1012  -34.3122   21.8190 C   0  0  0  0  0  0  0  0  0  0  0  0
  -23.1092   -9.9560   21.4905 C   0  0  0  0  0  0  0  0  0  0  0  0
  -23.8782  -10.8848   23.5840 C   0  0  0  0  0  0  0  0  0  0  0  0
  -26.5634  -35.1722   24.0068 C   0  0  0  0  0  0  0  0  0  0  0  0
  -27.6455  -33.1699   22.4049 C   0  0  0  0  0  0  0  0  0  0  0  0
  -27.5072  -27.4671   20.1767 C   0  0  0  0  0  0  0  0  0  0  0  0
  -31.2691  -18.7149   18.3425 C   0  0  0  0  0  0  0  0  0  0  0  0
  -31.1059  -17.4472   18.9010 C   0  0  0  0  0  0  0  0  0  0  0  0
  -22.3787   -8.9927   22.1861 C   0  0  0  0  0  0  0  0  0  0  0  0
  -23.1477   -9.9215   24.2797 C   0  0  0  0  0  0  0  0  0  0  0  0
  -28.4437  -26.7128   19.4712 C   0  0  0  0  0  0  0  0  0  0  0  0
  -20.5982   -6.0659   23.4056 C   0  0  0  0  0  0  0  0  0  0  0  0
  -20.6688   -4.7471   22.9569 C   0  0  0  0  0  0  0  0  0  0  0  0
  -29.1688  -25.6946   21.5344 C   0  0  0  0  0  0  0  0  0  0  0  0
  -29.6457  -19.6072   19.8934 C   0  0  0  0  0  0  0  0  0  0  0  0
  -23.0567   -4.7497   23.3246 C   0  0  0  0  0  0  0  0  0  0  0  0
  -23.8590  -10.9021   22.1894 C   0  0  0  0  0  0  0  0  0  0  0  0
  -24.1732  -13.1718   21.0681 C   0  0  0  0  0  0  0  0  0  0  0  0
  -27.0992  -34.0233   24.6097 C   0  0  0  0  0  0  0  0  0  0  0  0
  -27.4018  -27.3486   21.5700 C   0  0  0  0  0  0  0  0  0  0  0  0
  -27.6564  -33.0139   23.8014 C   0  0  0  0  0  0  0  0  0  0  0  0
  -28.2285  -26.4466   22.2549 C   0  0  0  0  0  0  0  0  0  0  0  0
  -30.5390  -19.7949   18.8387 C   0  0  0  0  0  0  0  0  0  0  0  0
  -30.2126  -17.2595   19.9557 C   0  0  0  0  0  0  0  0  0  0  0  0
  -22.3979   -8.9754   23.5808 C   0  0  0  0  0  0  0  0  0  0  0  0
  -29.2767  -25.8284   20.1504 C   0  0  0  0  0  0  0  0  0  0  0  0
  -21.7569   -6.7266   23.8139 C   0  0  0  0  0  0  0  0  0  0  0  0
  -29.4825  -18.3395   20.4519 C   0  0  0  0  0  0  0  0  0  0  0  0
  -21.8980   -4.0890   22.9164 C   0  0  0  0  0  0  0  0  0  0  0  0
  -22.9861   -6.0685   23.7734 C   0  0  0  0  0  0  0  0  0  0  0  0
  -24.6142  -11.8972   21.4714 C   0  0  0  0  0  0  0  0  0  0  0  0
  -25.2558  -13.7227   20.4270 C   0  0  0  0  0  0  0  0  0  0  0  0
  -22.8989  -13.8015   21.2562 C   0  0  0  0  0  0  0  0  0  0  0  0
  -27.7945  -29.3284   24.0257 C   0  0  0  0  0  0  0  0  0  0  0  0
  -26.6826  -26.8055   25.7348 C   0  0  0  0  0  0  0  0  0  0  0  0
  -30.0620  -22.2600   18.6395 C   0  0  0  0  0  0  0  0  0  0  0  0
  -26.2333  -23.4299   25.9585 C   0  0  0  0  0  0  0  0  0  0  0  0
  -30.7111  -14.7960   20.1260 C   0  0  0  0  0  0  0  0  0  0  0  0
  -27.1222  -33.9370   26.1152 C   0  0  0  0  0  0  0  0  0  0  0  0
  -26.3682  -28.1498   22.3132 C   0  0  0  0  0  0  0  0  0  0  0  0
  -28.1412  -26.2675   23.7478 C   0  0  0  0  0  0  0  0  0  0  0  0
  -27.3796  -32.5270   26.6407 C   0  0  0  0  0  0  0  0  0  0  0  0
  -29.6132  -11.6280   18.9279 C   0  0  0  0  0  0  0  0  0  0  0  0
  -28.5439  -31.8835   25.8943 C   0  0  0  0  0  0  0  0  0  0  0  0
  -28.1784  -11.5205   19.4497 C   0  0  0  0  0  0  0  0  0  0  0  0
  -30.5306  -12.3253   19.9308 C   0  0  0  0  0  0  0  0  0  0  0  0
  -28.6215  -13.5255   20.9229 C   0  0  0  0  0  0  0  0  0  0  0  0
  -28.2336  -31.7489   24.3986 C   0  0  1  0  0  0  0  0  0  0  0  0
  -26.6991  -28.3268   23.7919 C   0  0  1  0  0  0  0  0  0  0  0  0
  -27.6459  -12.8882   19.9201 C   0  0  2  0  0  0  0  0  0  0  0  0
  -26.3517  -17.6246   22.0778 C   0  0  0  0  0  0  0  0  0  0  0  0
  -25.3295  -21.6602   27.4910 C   0  0  0  0  0  0  0  0  0  0  0  0
  -29.1666  -27.0590   27.4885 C   0  0  0  0  0  0  0  0  0  0  0  0
  -28.7032  -24.7569   28.3568 C   0  0  0  0  0  0  0  0  0  0  0  0
  -27.0517  -26.5873   28.7372 C   0  0  0  0  0  0  0  0  0  0  0  0
  -24.2145  -22.5751   23.9702 C   0  0  0  0  0  0  0  0  0  0  0  0
  -30.5328  -23.4186   17.7677 C   0  0  0  0  0  0  0  0  0  0  0  0
  -27.2393  -18.5051   21.2242 C   0  0  0  0  0  0  0  0  0  0  0  0
  -29.8672  -24.7403   18.1198 C   0  0  0  0  0  0  0  0  0  1  0  0
  -27.3128  -25.6158   26.4177 C   0  0  1  0  0  0  0  0  0  0  0  0
  -25.0204  -22.5979   26.3343 C   0  0  2  0  0  0  0  0  0  0  0  0
  -28.0618  -26.0093   27.7222 C   0  0  0  0  0  0  0  0  0  0  0  0
  -25.8783  -11.6526   21.1161 N   0  0  0  0  0  0  0  0  0  0  0  0
  -26.2409  -12.7811   20.4828 N   0  0  0  0  0  0  0  0  0  0  0  0
  -27.1191  -27.0778   24.4306 N   0  0  0  0  0  0  0  0  0  0  0  0
  -29.9641  -13.6162   20.3279 N   0  0  0  0  0  0  0  0  0  0  0  0
  -25.4516  -14.9158   19.8266 N   0  0  0  0  0  0  0  0  0  0  0  0
  -21.8982  -13.0945   21.9366 N   0  0  0  0  0  0  0  0  0  0  0  0
  -30.7041  -21.0808   18.2713 N   0  0  0  0  0  0  0  0  0  0  0  0
  -30.0571  -15.9656   20.5119 N   0  0  0  0  0  0  0  0  0  0  0  0
  -27.3478  -30.6285   24.1651 N   0  0  0  0  0  0  0  0  0  0  0  0
  -26.2429  -24.6434   26.6132 N   0  0  0  0  0  0  0  0  0  0  0  0
  -24.5737  -21.7791   25.1720 N   0  3  0  0  0  0  0  0  0  0  0  0
  -22.6497  -14.9506   20.8191 O   0  0  0  0  0  0  0  0  0  0  0  0
  -28.9588  -28.9494   24.0773 O   0  0  0  0  0  0  0  0  0  0  0  0
  -25.8291  -27.4646   26.3338 O   0  0  0  0  0  0  0  0  0  0  0  0
  -29.2288  -22.4077   19.5274 O   0  0  0  0  0  0  0  0  0  0  0  0
  -27.0886  -23.0406   25.1664 O   0  0  0  0  0  0  0  0  0  0  0  0
  -31.8364  -14.7731   19.6209 O   0  0  0  0  0  0  0  0  0  0  0  0
  -21.6851   -8.0356   24.2599 O   0  0  0  0  0  0  0  0  0  0  0  0
  -30.1921  -25.0914   19.4643 O   0  0  0  0  0  0  0  0  0  1  0  0
  -28.6031  -18.1775   21.4808 O   0  0  0  0  0  0  0  0  0  0  0  0
  -21.9654   -2.8220   22.4868 F   0  0  0  0  0  0  0  0  0  0  0  0
  -24.1024   -6.6977   24.1654 F   0  0  0  0  0  0  0  0  0  0  0  0
  1  2  1  0  0  0  0
  1  5  2  0  0  0  0
  2  6  2  0  0  0  0
  3 10  2  0  0  0  0
  3 18  1  0  0  0  0
  4 11  1  0  0  0  0
  4 18  2  0  0  0  0
  5 20  1  0  0  0  0
  6 22  1  0  0  0  0
  7 12  2  0  0  0  0
  7 21  1  0  0  0  0
  8  9  2  0  0  0  0
  8 24  1  0  0  0  0
  9 25  1  0  0  0  0
 10 26  1  0  0  0  0
 11 26  2  0  0  0  0
 12 27  1  0  0  0  0
 13 14  2  0  0  0  0
 13 28  1  0  0  0  0
 14 30  1  0  0  0  0
 15 23  1  0  0  0  0
 15 27  2  0  0  0  0
 16 24  2  0  0  0  0
 16 29  1  0  0  0  0
 17 30  2  0  0  0  0
 17 31  1  0  0  0  0
 18 32  1  0  0  0  0
 19 32  1  0  0  0  0
 19 33  2  0  0  0  0
 19 34  1  0  0  0  0
 20 22  2  0  0  0  0
 20 40  1  0  0  0  0
 21 23  2  0  0  0  0
 21 41  1  0  0  0  0
 22 49  1  0  0  0  0
 23 42  1  0  0  0  0
 24 70  1  0  0  0  0
 25 29  2  0  0  0  0
 25 71  1  0  0  0  0
 26 81  1  0  0  0  0
 27 82  1  0  0  0  0
 28 31  2  0  0  0  0
 28 81  1  0  0  0  0
 29 83  1  0  0  0  0
 30 84  1  0  0  0  0
 31 85  1  0  0  0  0
 32 64  2  0  0  0  0
 33 65  1  0  0  0  0
 33 68  1  0  0  0  0
 34 69  1  0  0  0  0
 34 75  2  0  0  0  0
 35 50  1  0  0  0  0
 35 72  1  0  0  0  0
 35 76  2  0  0  0  0
 36 61  1  0  0  0  0
 36 66  1  0  0  0  0
 36 77  2  0  0  0  0
 37 58  1  0  0  0  0
 37 70  1  0  0  0  0
 37 78  2  0  0  0  0
 38 62  1  0  0  0  0
 38 73  1  0  0  0  0
 38 79  2  0  0  0  0
 39 67  1  0  0  0  0
 39 71  1  0  0  0  0
 39 80  2  0  0  0  0
 40 43  1  0  0  0  0
 41 50  1  0  0  0  0
 42 66  1  0  0  0  0
 43 45  1  0  0  0  0
 44 46  1  0  0  0  0
 44 47  1  0  0  0  0
 45 49  1  0  0  0  0
 46 51  1  0  0  0  0
 47 67  1  0  0  0  0
 48 51  1  0  0  0  0
 48 67  1  0  0  0  0
 49 72  1  0  0  0  0
 50 66  1  0  0  0  0
 51 65  1  0  0  0  0
 52 59  1  0  0  0  0
 53 62  1  0  0  0  0
 54 63  1  0  0  0  0
 55 63  1  0  0  0  0
 56 63  1  0  0  0  0
 57 74  1  0  0  0  0
 58 60  1  0  0  0  0
 59 83  1  0  0  0  0
 60 82  1  0  0  0  0
 61 63  1  0  0  0  0
 61 73  1  0  0  0  0
 62 74  1  0  0  0  0
 64 65  1  0  0  0  0
M  CHG  1  74   1
M  ISO  4  39 100  60 101  71 100  82 101
M  END
> <Batch ID>
0003

> <Smiles>
CCOc1cc(NC(=O)C[101CH2:1][101O:1]c2ccc3c(c2)CN(C(=O)C(NC(=O)C(C)NC)C(C)(C)C)C(C(=O)NC2CCCc4ccccc42)C3)ccc1[100NH:0][100C:0](=O)N1CCCC(n2nc(-c3ccc(Oc4ccc(F)cc4F)cc3)c(C(N)=O)c2N)C1

> <Shape>
0.295

> <Color>
0.173

> <Negative vol penalty>
0.000

$$$$

  -OEChem-04052315213D

 79 86  0     1  0  0  0  0  0999 V2000
  -23.9440  -35.1520   25.7435 C   0  0  0  0  0  0  0  0  0  0  0  0
  -24.8875  -34.3015   25.1761 C   0  0  0  0  0  0  0  0  0  0  0  0
  -24.2844  -14.1373   21.8073 C   0  0  0  0  0  0  0  0  0  0  0  0
  -24.8536  -14.5268   19.4919 C   0  0  0  0  0  0  0  0  0  0  0  0
  -22.6580  -34.6849   26.0115 C   0  0  0  0  0  0  0  0  0  0  0  0
  -24.5458  -32.9829   24.8776 C   0  0  0  0  0  0  0  0  0  0  0  0
  -26.5549  -29.6377   20.1575 C   0  0  0  0  0  0  0  0  0  0  0  0
  -23.5782  -12.9916   21.4410 C   0  0  0  0  0  0  0  0  0  0  0  0
  -24.1475  -13.3810   19.1255 C   0  0  0  0  0  0  0  0  0  0  0  0
  -27.5582  -28.6756   20.0494 C   0  0  0  0  0  0  0  0  0  0  0  0
  -24.2826   -9.7911   20.6084 C   0  0  0  0  0  0  0  0  0  0  0  0
  -24.4747   -8.6395   21.3716 C   0  0  0  0  0  0  0  0  0  0  0  0
  -25.9137  -26.9360   20.3473 C   0  0  0  0  0  0  0  0  0  0  0  0
  -22.1220   -8.6105   21.9201 C   0  0  0  0  0  0  0  0  0  0  0  0
  -24.9221  -14.9050   20.8327 C   0  0  0  0  0  0  0  0  0  0  0  0
  -27.0125  -16.1739   21.5592 C   0  0  0  0  0  0  0  0  0  0  0  0
  -22.2975  -33.3628   25.7072 C   0  0  0  0  0  0  0  0  0  0  0  0
  -25.2229  -29.2559   20.3726 C   0  0  0  0  0  0  0  0  0  0  0  0
  -23.2541  -32.4973   25.1430 C   0  0  0  0  0  0  0  0  0  0  0  0
  -24.8951  -27.8951   20.4553 C   0  0  0  0  0  0  0  0  0  0  0  0
  -23.5097  -12.6134   20.1001 C   0  0  0  0  0  0  0  0  0  0  0  0
  -27.2381  -27.3247   20.1472 C   0  0  0  0  0  0  0  0  0  0  0  0
  -23.0102  -10.3525   20.5011 C   0  0  0  0  0  0  0  0  0  0  0  0
  -23.3944   -8.0492   22.0274 C   0  0  0  0  0  0  0  0  0  0  0  0
  -21.9299   -9.7621   21.1569 C   0  0  0  0  0  0  0  0  0  0  0  0
  -25.6512  -16.0889   21.2104 C   0  0  0  0  0  0  0  0  0  0  0  0
  -27.2146  -17.5048   21.8318 C   0  0  0  0  0  0  0  0  0  0  0  0
  -30.0594  -24.8087   18.5236 C   0  0  0  0  0  0  0  0  0  0  0  0
  -28.0054  -15.1420   21.6302 C   0  0  0  0  0  0  0  0  0  0  0  0
  -23.0936  -29.7468   22.6810 C   0  0  0  0  0  0  0  0  0  0  0  0
  -21.0900  -28.2471   20.6172 C   0  0  0  0  0  0  0  0  0  0  0  0
  -20.7111  -26.1018   17.9903 C   0  0  0  0  0  0  0  0  0  0  0  0
  -24.4300  -22.4994   20.0568 C   0  0  0  0  0  0  0  0  0  0  0  0
  -20.9092  -32.8896   26.0587 C   0  0  0  0  0  0  0  0  0  0  0  0
  -24.1485  -30.3049   20.4603 C   0  0  0  0  0  0  0  0  0  0  0  0
  -23.4773  -27.4323   20.6655 C   0  0  0  0  0  0  0  0  0  0  0  0
  -20.5163  -31.5869   25.3668 C   0  0  0  0  0  0  0  0  0  0  0  0
  -24.9179  -21.3954   23.4064 C   0  0  0  0  0  0  0  0  0  0  0  0
  -21.6426  -30.5639   25.4755 C   0  0  0  0  0  0  0  0  0  0  0  0
  -25.2840  -19.9179   23.2549 C   0  0  0  0  0  0  0  0  0  0  0  0
  -23.8769  -21.8274   22.3761 C   0  0  0  0  0  0  0  0  0  0  0  0
  -24.5980  -20.0540   20.8240 C   0  0  0  0  0  0  0  0  0  0  0  0
  -22.9142  -31.0676   24.7820 C   0  0  1  0  0  0  0  0  0  0  0  0
  -22.9004  -29.8222   21.1929 C   0  0  1  0  0  0  0  0  0  0  0  0
  -25.6860  -19.5856   21.8053 C   0  0  2  0  0  0  0  0  0  0  0  0
  -18.9500  -25.0432   16.5497 C   0  0  0  0  0  0  0  0  0  0  0  0
  -20.3907  -26.3297   22.8853 C   0  0  0  0  0  0  0  0  0  0  0  0
  -19.4096  -24.7810   21.1802 C   0  0  0  0  0  0  0  0  0  0  0  0
  -18.4422  -27.0584   21.4971 C   0  0  0  0  0  0  0  0  0  0  0  0
  -21.8011  -27.3508   15.5386 C   0  0  0  0  0  0  0  0  0  0  0  0
  -30.4810  -25.6606   19.6911 C   0  0  0  0  0  0  0  0  0  0  0  0
  -27.5218  -22.5351   17.5084 C   0  0  0  0  0  0  0  0  0  0  0  0
  -26.4372  -23.6096   17.6540 C   0  0  0  0  0  0  0  0  0  0  0  0
  -28.9250  -23.1297   17.4459 C   0  0  0  0  0  0  0  0  0  0  0  0
  -25.0315  -23.0187   17.7057 C   0  0  0  0  0  0  0  0  0  0  0  0
  -29.5474  -26.8510   19.8332 C   0  0  0  0  0  0  0  0  0  1  0  0
  -20.6904  -26.8131   20.3669 C   0  0  1  0  0  0  0  0  0  0  0  0
  -19.9088  -26.2132   16.7064 C   0  0  2  0  0  0  0  0  0  0  0  0
  -19.7603  -26.2540   21.4804 C   0  0  0  0  0  0  0  0  0  0  0  0
  -25.0323  -17.2716   21.2567 N   0  0  0  0  0  0  0  0  0  0  0  0
  -29.2148  -23.8500   18.6823 N   0  0  0  0  0  0  0  0  0  0  0  0
  -26.0091  -18.1123   21.6378 N   0  0  0  0  0  0  0  0  0  0  0  0
  -22.4633  -28.4962   20.7513 N   0  0  0  0  0  0  0  0  0  0  0  0
  -24.3196  -21.4851   21.0223 N   0  0  0  0  0  0  0  0  0  0  0  0
  -28.3042  -18.2029   22.2164 N   0  0  0  0  0  0  0  0  0  0  0  0
  -27.6281  -13.8290   21.3174 N   0  0  0  0  0  0  0  0  0  0  0  0
  -22.7989  -30.9212   23.3468 N   0  0  0  0  0  0  0  0  0  0  0  0
  -20.1086  -26.7789   19.0294 N   0  0  0  0  0  0  0  0  0  0  0  0
  -24.8624  -22.0903   18.8013 N   0  0  0  0  0  0  0  0  0  0  0  0
  -20.8193  -26.2359   15.5269 N   0  3  0  0  0  0  0  0  0  0  0  0
  -29.1882  -15.3748   21.9772 O   0  0  0  0  0  0  0  0  0  0  0  0
  -23.4798  -28.7001   23.1879 O   0  0  0  0  0  0  0  0  0  0  0  0
  -20.2165  -29.1155   20.6840 O   0  0  0  0  0  0  0  0  0  0  0  0
  -21.7647  -25.4735   18.0649 O   0  0  0  0  0  0  0  0  0  0  0  0
  -24.1682  -23.6828   20.2976 O   0  0  0  0  0  0  0  0  0  0  0  0
  -22.8209  -11.4953   19.7424 O   0  0  0  0  0  0  0  0  0  0  0  0
  -28.2155  -26.3836   20.0426 O   0  0  0  0  0  0  0  0  0  1  0  0
  -23.5788   -6.9424   22.7590 F   0  0  0  0  0  0  0  0  0  0  0  0
  -20.7049  -10.2962   21.0566 F   0  0  0  0  0  0  0  0  0  0  0  0
  1  2  1  0  0  0  0
  1  5  2  0  0  0  0
  2  6  2  0  0  0  0
  3  8  2  0  0  0  0
  3 15  1  0  0  0  0
  4  9  1  0  0  0  0
  4 15  2  0  0  0  0
  5 17  1  0  0  0  0
  6 19  1  0  0  0  0
  7 10  2  0  0  0  0
  7 18  1  0  0  0  0
  8 21  1  0  0  0  0
  9 21  2  0  0  0  0
 10 22  1  0  0  0  0
 11 12  2  0  0  0  0
 11 23  1  0  0  0  0
 12 24  1  0  0  0  0
 13 20  1  0  0  0  0
 13 22  2  0  0  0  0
 14 24  2  0  0  0  0
 14 25  1  0  0  0  0
 15 26  1  0  0  0  0
 16 26  1  0  0  0  0
 16 27  2  0  0  0  0
 16 29  1  0  0  0  0
 17 19  2  0  0  0  0
 17 34  1  0  0  0  0
 18 20  2  0  0  0  0
 18 35  1  0  0  0  0
 19 43  1  0  0  0  0
 20 36  1  0  0  0  0
 21 76  1  0  0  0  0
 22 77  1  0  0  0  0
 23 25  2  0  0  0  0
 23 76  1  0  0  0  0
 24 78  1  0  0  0  0
 25 79  1  0  0  0  0
 26 60  2  0  0  0  0
 27 62  1  0  0  0  0
 27 65  1  0  0  0  0
 28 51  1  0  0  0  0
 28 61  2  0  0  0  0
 29 66  1  0  0  0  0
 29 71  2  0  0  0  0
 30 44  1  0  0  0  0
 30 67  1  0  0  0  0
 30 72  2  0  0  0  0
 31 57  1  0  0  0  0
 31 63  1  0  0  0  0
 31 73  2  0  0  0  0
 32 58  1  0  0  0  0
 32 68  1  0  0  0  0
 32 74  2  0  0  0  0
 33 64  1  0  0  0  0
 33 69  1  0  0  0  0
 33 75  2  0  0  0  0
 34 37  1  0  0  0  0
 35 44  1  0  0  0  0
 36 63  1  0  0  0  0
 37 39  1  0  0  0  0
 38 40  1  0  0  0  0
 38 41  1  0  0  0  0
 39 43  1  0  0  0  0
 40 45  1  0  0  0  0
 41 64  1  0  0  0  0
 42 45  1  0  0  0  0
 42 64  1  0  0  0  0
 43 67  1  0  0  0  0
 44 63  1  0  0  0  0
 45 62  1  0  0  0  0
 46 58  1  0  0  0  0
 47 59  1  0  0  0  0
 48 59  1  0  0  0  0
 49 59  1  0  0  0  0
 50 70  1  0  0  0  0
 51 56  1  0  0  0  0
 52 53  1  0  0  0  0
 52 54  1  0  0  0  0
 53 55  1  0  0  0  0
 54 61  1  0  0  0  0
 55 69  1  0  0  0  0
 56 77  1  0  0  0  0
 57 59  1  0  0  0  0
 57 68  1  0  0  0  0
 58 70  1  0  0  0  0
 60 62  1  0  0  0  0
M  CHG  1  70   1
M  ISO  4  33 100  56 101  69 100  77 101
M  END
> <Batch ID>
0003

> <Smiles>
CNC(C)C(=O)NC(C(=O)N1Cc2cc([101O:1][101CH2:1]CC=NCCCC[100NH:0][100C:0](=O)N3CCCC(n4nc(-c5ccc(Oc6ccc(F)cc6F)cc5)c(C(N)=O)c4N)C3)ccc2CC1C(=O)NC1CCCc2ccccc21)C(C)(C)C

> <Shape>
0.232

> <Color>
0.089

> <Negative vol penalty>
0.000

$$$$

  -OEChem-04052315213D

 92100  0     1  0  0  0  0  0999 V2000
  -30.1162  -29.6218   30.3134 C   0  0  0  0  0  0  0  0  0  0  0  0
  -29.7908  -28.5532   29.4842 C   0  0  0  0  0  0  0  0  0  0  0  0
  -29.1162  -21.8785   16.1315 C   0  0  0  0  0  0  0  0  0  0  0  0
  -26.6252  -12.8991   21.5466 C   0  0  0  0  0  0  0  0  0  0  0  0
  -26.3261  -13.7585   19.3086 C   0  0  0  0  0  0  0  0  0  0  0  0
  -29.1319  -30.5339   30.6919 C   0  0  0  0  0  0  0  0  0  0  0  0
  -28.4805  -28.3955   29.0337 C   0  0  0  0  0  0  0  0  0  0  0  0
  -28.2431  -27.2860   24.0984 C   0  0  0  0  0  0  0  0  0  0  0  0
  -29.5239  -20.8764   17.0120 C   0  0  0  0  0  0  0  0  0  0  0  0
  -25.3263  -12.3915   21.5254 C   0  0  0  0  0  0  0  0  0  0  0  0
  -25.0271  -13.2508   19.2872 C   0  0  0  0  0  0  0  0  0  0  0  0
  -28.5213  -25.9712   23.7273 C   0  0  0  0  0  0  0  0  0  0  0  0
  -23.7191   -9.7141   20.2285 C   0  0  0  0  0  0  0  0  0  0  0  0
  -23.5231   -8.4150   20.6970 C   0  0  0  0  0  0  0  0  0  0  0  0
  -29.0812  -23.2071   16.5549 C   0  0  0  0  0  0  0  0  0  0  0  0
  -26.1566  -25.5234   23.5637 C   0  0  0  0  0  0  0  0  0  0  0  0
  -29.8614  -22.5315   18.7394 C   0  0  0  0  0  0  0  0  0  0  0  0
  -22.0179   -9.2530   22.3909 C   0  0  0  0  0  0  0  0  0  0  0  0
  -27.1252  -13.5827   20.4382 C   0  0  0  0  0  0  0  0  0  0  0  0
  -29.6431  -13.4519   20.0505 C   0  0  0  0  0  0  0  0  0  0  0  0
  -27.8110  -30.3927   30.2381 C   0  0  0  0  0  0  0  0  0  0  0  0
  -26.9172  -27.7271   24.2157 C   0  0  0  0  0  0  0  0  0  0  0  0
  -27.4774  -29.3058   29.4076 C   0  0  0  0  0  0  0  0  0  0  0  0
  -25.8643  -26.8450   23.9340 C   0  0  0  0  0  0  0  0  0  0  0  0
  -29.8964  -21.2029   18.3160 C   0  0  0  0  0  0  0  0  0  0  0  0
  -24.5272  -12.5672   20.3957 C   0  0  0  0  0  0  0  0  0  0  0  0
  -27.4780  -25.0889   23.4627 C   0  0  0  0  0  0  0  0  0  0  0  0
  -23.0646  -10.7827   20.8412 C   0  0  0  0  0  0  0  0  0  0  0  0
  -22.6725   -8.1844   21.7781 C   0  0  0  0  0  0  0  0  0  0  0  0
  -22.2140  -10.5521   21.9224 C   0  0  0  0  0  0  0  0  0  0  0  0
  -29.4537  -23.5336   17.8588 C   0  0  0  0  0  0  0  0  0  0  0  0
  -28.4667  -14.1079   20.4599 C   0  0  0  0  0  0  0  0  0  0  0  0
  -30.6416  -14.3695   20.2685 C   0  0  0  0  0  0  0  0  0  0  0  0
  -29.8178  -12.1311   19.5205 C   0  0  0  0  0  0  0  0  0  0  0  0
  -25.1293  -28.8521   26.5909 C   0  0  0  0  0  0  0  0  0  0  0  0
  -22.9672  -29.3257   24.2195 C   0  0  0  0  0  0  0  0  0  0  0  0
  -25.3402  -20.7478   19.7642 C   0  0  0  0  0  0  0  0  0  0  0  0
  -21.8340  -28.4648   21.1177 C   0  0  0  0  0  0  0  0  0  0  0  0
  -30.7127  -20.3384   20.5369 C   0  0  0  0  0  0  0  0  0  0  0  0
  -26.7714  -31.3771   30.7123 C   0  0  0  0  0  0  0  0  0  0  0  0
  -26.6342  -29.1558   24.5911 C   0  0  0  0  0  0  0  0  0  0  0  0
  -24.4237  -27.2747   24.0257 C   0  0  0  0  0  0  0  0  0  0  0  0
  -25.4868  -31.3506   29.8881 C   0  0  0  0  0  0  0  0  0  0  0  0
  -31.7694  -18.0799   23.0784 C   0  0  0  0  0  0  0  0  0  0  0  0
  -25.0258  -29.9139   29.6640 C   0  0  0  0  0  0  0  0  0  0  0  0
  -31.1545  -16.7440   22.6548 C   0  0  0  0  0  0  0  0  0  0  0  0
  -30.8427  -19.2542   22.7691 C   0  0  0  0  0  0  0  0  0  0  0  0
  -29.7562  -17.9880   20.9566 C   0  0  0  0  0  0  0  0  0  0  0  0
  -26.0726  -29.1149   28.8783 C   0  0  1  0  0  0  0  0  0  0  0  0
  -25.2405  -29.3543   25.1792 C   0  0  1  0  0  0  0  0  0  0  0  0
  -30.6804  -16.7815   21.1888 C   0  0  2  0  0  0  0  0  0  0  0  0
  -20.0253  -29.0000   19.4626 C   0  0  0  0  0  0  0  0  0  0  0  0
  -20.9676  -27.7461   25.8977 C   0  0  0  0  0  0  0  0  0  0  0  0
  -19.5494  -27.4993   23.8493 C   0  0  0  0  0  0  0  0  0  0  0  0
  -20.0184  -29.7684   24.7735 C   0  0  0  0  0  0  0  0  0  0  0  0
  -23.7958  -29.3357   19.0801 C   0  0  0  0  0  0  0  0  0  0  0  0
  -24.2764  -21.3428   18.8628 C   0  0  0  0  0  0  0  0  0  0  0  0
  -24.2132  -22.8663   18.9557 C   0  0  0  0  0  0  0  0  0  0  0  0
  -25.5122  -23.5354   18.4976 C   0  0  0  0  0  0  0  0  0  0  0  0
  -25.4075  -25.0591   18.5745 C   0  0  0  0  0  0  0  0  0  0  0  0
  -27.1430  -21.5808   22.4317 C   0  0  0  0  0  0  0  0  0  0  0  0
  -26.7118  -25.7272   18.1560 C   0  0  0  0  0  0  0  0  0  0  0  0
  -26.0220  -20.5890   22.1516 C   0  0  0  0  0  0  0  0  0  0  0  0
  -26.6295  -22.9549   22.8445 C   0  0  0  0  0  0  0  0  0  1  0  0
  -21.8647  -28.5029   23.5980 C   0  0  1  0  0  0  0  0  0  0  0  0
  -21.4430  -29.3089   19.9180 C   0  0  2  0  0  0  0  0  0  0  0  0
  -20.6271  -28.3702   24.5297 C   0  0  0  0  0  0  0  0  0  0  0  0
  -28.6951  -15.3465   20.9044 N   0  0  0  0  0  0  0  0  0  0  0  0
  -30.0265  -15.4761   20.7757 N   0  0  0  0  0  0  0  0  0  0  0  0
  -24.1982  -28.6799   24.4027 N   0  0  0  0  0  0  0  0  0  0  0  0
  -30.4380  -19.2272   21.3619 N   0  0  0  0  0  0  0  0  0  0  0  0
  -31.9769  -14.3297   20.0740 N   0  0  0  0  0  0  0  0  0  0  0  0
  -28.6859  -11.3201   19.3612 N   0  0  0  0  0  0  0  0  0  0  0  0
  -30.3108  -20.1851   19.2104 N   0  0  0  0  0  0  0  0  0  0  0  0
  -26.0116  -29.4486   27.4714 N   0  0  0  0  0  0  0  0  0  0  0  0
  -25.1426  -21.0382   21.1081 N   0  0  0  0  0  0  0  0  0  0  0  0
  -21.5769  -29.1157   22.3057 N   0  0  0  0  0  0  0  0  0  0  0  0
  -27.8028  -25.3335   19.0049 N   0  0  0  0  0  0  0  0  0  0  0  0
  -22.3691  -29.0510   18.7793 N   0  3  0  0  0  0  0  0  0  0  0  0
  -30.9462  -11.6776   19.2132 O   0  0  0  0  0  0  0  0  0  0  0  0
  -24.3031  -27.9885   26.8617 O   0  0  0  0  0  0  0  0  0  0  0  0
  -22.7466  -30.5004   24.5245 O   0  0  0  0  0  0  0  0  0  0  0  0
  -26.2707  -20.0855   19.3101 O   0  0  0  0  0  0  0  0  0  0  0  0
  -22.3157  -27.3391   21.0115 O   0  0  0  0  0  0  0  0  0  0  0  0
  -31.2883  -21.3406   20.9686 O   0  0  0  0  0  0  0  0  0  0  0  0
  -30.3356  -25.3597   19.5013 O   0  0  0  0  0  0  0  0  0  0  0  0
  -29.5526  -26.0424   17.2111 O   0  0  0  0  0  0  0  0  0  0  0  0
  -23.2597  -12.0718   20.3744 O   0  0  0  0  0  0  0  0  0  0  0  0
  -27.7467  -23.8048   23.1009 O   0  0  0  0  0  0  0  0  0  1  0  0
  -22.4831   -6.9367   22.2269 F   0  0  0  0  0  0  0  0  0  0  0  0
  -21.5815  -11.5745   22.5143 F   0  0  0  0  0  0  0  0  0  0  0  0
  -29.4082  -25.2174   18.3952 S   0  0  0  0  0  0  0  0  0  0  0  0
  1  2  1  0  0  0  0
  1  6  2  0  0  0  0
  2  7  2  0  0  0  0
  3  9  1  0  0  0  0
  3 15  2  0  0  0  0
  4 10  2  0  0  0  0
  4 19  1  0  0  0  0
  5 11  1  0  0  0  0
  5 19  2  0  0  0  0
  6 21  1  0  0  0  0
  7 23  1  0  0  0  0
  8 12  2  0  0  0  0
  8 22  1  0  0  0  0
  9 25  2  0  0  0  0
 10 26  1  0  0  0  0
 11 26  2  0  0  0  0
 12 27  1  0  0  0  0
 13 14  2  0  0  0  0
 13 28  1  0  0  0  0
 14 29  1  0  0  0  0
 15 31  1  0  0  0  0
 16 24  1  0  0  0  0
 16 27  2  0  0  0  0
 17 25  1  0  0  0  0
 17 31  2  0  0  0  0
 18 29  2  0  0  0  0
 18 30  1  0  0  0  0
 19 32  1  0  0  0  0
 20 32  1  0  0  0  0
 20 33  2  0  0  0  0
 20 34  1  0  0  0  0
 21 23  2  0  0  0  0
 21 40  1  0  0  0  0
 22 24  2  0  0  0  0
 22 41  1  0  0  0  0
 23 49  1  0  0  0  0
 24 42  1  0  0  0  0
 25 74  1  0  0  0  0
 26 88  1  0  0  0  0
 27 89  1  0  0  0  0
 28 30  2  0  0  0  0
 28 88  1  0  0  0  0
 29 90  1  0  0  0  0
 30 91  1  0  0  0  0
 31 92  1  0  0  0  0
 32 68  2  0  0  0  0
 33 69  1  0  0  0  0
 33 72  1  0  0  0  0
 34 73  1  0  0  0  0
 34 80  2  0  0  0  0
 35 50  1  0  0  0  0
 35 75  1  0  0  0  0
 35 81  2  0  0  0  0
 36 65  1  0  0  0  0
 36 70  1  0  0  0  0
 36 82  2  0  0  0  0
 37 57  1  0  0  0  0
 37 76  1  0  0  0  0
 37 83  2  0  0  0  0
 38 66  1  0  0  0  0
 38 77  1  0  0  0  0
 38 84  2  0  0  0  0
 39 71  1  0  0  0  0
 39 74  1  0  0  0  0
 39 85  2  0  0  0  0
 40 43  1  0  0  0  0
 41 50  1  0  0  0  0
 42 70  1  0  0  0  0
 43 45  1  0  0  0  0
 44 46  1  0  0  0  0
 44 47  1  0  0  0  0
 45 49  1  0  0  0  0
 46 51  1  0  0  0  0
 47 71  1  0  0  0  0
 48 51  1  0  0  0  0
 48 71  1  0  0  0  0
 49 75  1  0  0  0  0
 50 70  1  0  0  0  0
 51 69  1  0  0  0  0
 52 66  1  0  0  0  0
 53 67  1  0  0  0  0
 54 67  1  0  0  0  0
 55 67  1  0  0  0  0
 56 79  1  0  0  0  0
 57 58  1  0  0  0  0
 58 59  1  0  0  0  0
 59 60  1  0  0  0  0
 60 62  1  0  0  0  0
 61 63  1  0  0  0  0
 61 64  1  0  0  0  0
 62 78  1  0  0  0  0
 63 76  1  0  0  0  0
 64 89  1  0  0  0  0
 65 67  1  0  0  0  0
 65 77  1  0  0  0  0
 66 79  1  0  0  0  0
 68 69  1  0  0  0  0
 78 92  1  0  0  0  0
 86 92  2  0  0  0  0
 87 92  2  0  0  0  0
M  CHG  1  79   1
M  ISO  4  39 100  64 101  74 100  89 101
M  END
> <Batch ID>
0003

> <Smiles>
CNC(C)C(=O)NC(C(=O)N1Cc2cc([101O:1][101CH2:1]CCNC(=O)CCCCCNS(=O)(=O)c3cccc([100NH:0][100C:0](=O)N4CCCC(n5nc(-c6ccc(Oc7ccc(F)cc7F)cc6)c(C(N)=O)c5N)C4)c3)ccc2CC1C(=O)NC1CCCc2ccccc21)C(C)(C)C

> <Shape>
0.235

> <Color>
0.072

> <Negative vol penalty>
0.000

$$$$

  -OEChem-04052315213D

 82 90  0     1  0  0  0  0  0999 V2000
  -29.5028  -33.9784   26.0407 C   0  0  0  0  0  0  0  0  0  0  0  0
  -29.6470  -32.8787   25.2008 C   0  0  0  0  0  0  0  0  0  0  0  0
  -24.6205   -9.0176   21.3632 C   0  0  0  0  0  0  0  0  0  0  0  0
  -23.3700  -10.8833   22.2534 C   0  0  0  0  0  0  0  0  0  0  0  0
  -28.2786  -34.2246   26.6609 C   0  0  0  0  0  0  0  0  0  0  0  0
  -28.5674  -32.0239   24.9816 C   0  0  0  0  0  0  0  0  0  0  0  0
  -27.2123  -29.0599   19.7966 C   0  0  0  0  0  0  0  0  0  0  0  0
  -28.2182  -19.1070   20.2807 C   0  0  0  0  0  0  0  0  0  0  0  0
  -27.7851  -20.4221   20.1123 C   0  0  0  0  0  0  0  0  0  0  0  0
  -24.0871   -8.1890   22.3504 C   0  0  0  0  0  0  0  0  0  0  0  0
  -22.8365  -10.0547   23.2406 C   0  0  0  0  0  0  0  0  0  0  0  0
  -27.4463  -27.7516   19.3754 C   0  0  0  0  0  0  0  0  0  0  0  0
  -21.1865   -6.5499   22.9269 C   0  0  0  0  0  0  0  0  0  0  0  0
  -20.7202   -5.2944   22.5371 C   0  0  0  0  0  0  0  0  0  0  0  0
  -25.2300  -27.1294   20.0964 C   0  0  0  0  0  0  0  0  0  0  0  0
  -26.2095  -18.6049   21.5258 C   0  0  0  0  0  0  0  0  0  0  0  0
  -22.3069   -4.2432   24.0253 C   0  0  0  0  0  0  0  0  0  0  0  0
  -24.2620  -10.3648   21.3147 C   0  0  0  0  0  0  0  0  0  0  0  0
  -24.2796  -11.4738   19.0175 C   0  0  0  0  0  0  0  0  0  0  0  0
  -27.1806  -33.3778   26.4415 C   0  0  0  0  0  0  0  0  0  0  0  0
  -25.9872  -29.4108   20.3818 C   0  0  0  0  0  0  0  0  0  0  0  0
  -27.3277  -32.2582   25.6005 C   0  0  0  0  0  0  0  0  0  0  0  0
  -24.9819  -28.4434   20.5218 C   0  0  0  0  0  0  0  0  0  0  0  0
  -25.7764  -19.9201   21.3574 C   0  0  0  0  0  0  0  0  0  0  0  0
  -27.4304  -18.1983   20.9875 C   0  0  0  0  0  0  0  0  0  0  0  0
  -26.5642  -20.8287   20.6506 C   0  0  0  0  0  0  0  0  0  0  0  0
  -23.1951   -8.7075   23.2890 C   0  0  0  0  0  0  0  0  0  0  0  0
  -26.4562  -26.7854   19.5279 C   0  0  0  0  0  0  0  0  0  0  0  0
  -22.2130   -6.6521   23.8658 C   0  0  0  0  0  0  0  0  0  0  0  0
  -21.2804   -4.1410   23.0863 C   0  0  0  0  0  0  0  0  0  0  0  0
  -22.7731   -5.4987   24.4150 C   0  0  0  0  0  0  0  0  0  0  0  0
  -24.8131  -11.2213   20.2956 C   0  0  0  0  0  0  0  0  0  0  0  0
  -25.1694  -12.3467   18.4404 C   0  0  0  0  0  0  0  0  0  0  0  0
  -23.0865  -10.9650   18.4066 C   0  0  0  0  0  0  0  0  0  0  0  0
  -25.0951  -30.5210   23.2235 C   0  0  0  0  0  0  0  0  0  0  0  0
  -22.1884  -30.7229   21.7977 C   0  0  0  0  0  0  0  0  0  0  0  0
  -26.8101  -23.1810   19.7902 C   0  0  0  0  0  0  0  0  0  0  0  0
  -20.0837  -29.6327   19.3424 C   0  0  0  0  0  0  0  0  0  0  0  0
  -29.0528  -16.2952   20.6839 C   0  0  0  0  0  0  0  0  0  0  0  0
  -25.8908  -33.6578   27.1712 C   0  0  0  0  0  0  0  0  0  0  0  0
  -25.7406  -30.8325   20.8064 C   0  0  0  0  0  0  0  0  0  0  0  0
  -23.6421  -28.7736   21.1254 C   0  0  0  0  0  0  0  0  0  0  0  0
  -24.6894  -32.9157   26.5914 C   0  0  0  0  0  0  0  0  0  0  0  0
  -29.7986  -13.5708   18.5163 C   0  0  0  0  0  0  0  0  0  0  0  0
  -25.0367  -31.4518   26.3399 C   0  0  0  0  0  0  0  0  0  0  0  0
  -28.5537  -12.6851   18.6056 C   0  0  0  0  0  0  0  0  0  0  0  0
  -30.1340  -14.2148   19.8603 C   0  0  0  0  0  0  0  0  0  0  0  0
  -27.7831  -14.0607   20.5807 C   0  0  0  0  0  0  0  0  0  0  0  0
  -26.1728  -31.3220   25.3182 C   0  0  1  0  0  0  0  0  0  0  0  0
  -24.6439  -30.9600   21.8592 C   0  0  1  0  0  0  0  0  0  0  0  0
  -27.3680  -13.4416   19.2360 C   0  0  2  0  0  0  0  0  0  0  0  0
  -24.4635  -20.3278   21.9429 C   0  0  0  0  0  0  0  0  0  0  0  0
  -17.7596  -29.9563   18.4529 C   0  0  0  0  0  0  0  0  0  0  0  0
  -21.0742  -29.0893   24.1215 C   0  0  0  0  0  0  0  0  0  0  0  0
  -19.0355  -28.6423   22.7386 C   0  0  0  0  0  0  0  0  0  0  0  0
  -19.6154  -30.9815   23.3825 C   0  0  0  0  0  0  0  0  0  0  0  0
  -21.0920  -30.5399   16.7119 C   0  0  0  0  0  0  0  0  0  0  0  0
  -26.0089  -24.4691   19.8286 C   0  0  0  0  0  0  0  0  0  1  0  0
  -21.0088  -29.7943   21.6386 C   0  0  1  0  0  0  0  0  0  0  0  0
  -19.2147  -30.3870   18.3523 C   0  0  2  0  0  0  0  0  0  0  0  0
  -20.2093  -29.6199   22.9606 C   0  0  0  0  0  0  0  0  0  0  0  0
  -25.9534  -11.8803   20.5177 N   0  0  0  0  0  0  0  0  0  0  0  0
  -26.1439  -12.5555   19.3715 N   0  0  0  0  0  0  0  0  0  0  0  0
  -23.4515  -30.1760   21.5309 N   0  0  0  0  0  0  0  0  0  0  0  0
  -28.9652  -14.9169   20.3948 N   0  0  0  0  0  0  0  0  0  0  0  0
  -25.2054  -12.9482   17.2324 N   0  0  0  0  0  0  0  0  0  0  0  0
  -22.2865  -10.0780   19.1398 N   0  0  0  0  0  0  0  0  0  0  0  0
  -26.1417  -22.1667   20.4674 N   0  0  0  0  0  0  0  0  0  0  0  0
  -27.8693  -16.8617   21.1561 N   0  0  0  0  0  0  0  0  0  0  0  0
  -25.6713  -31.5264   23.9761 N   0  0  0  0  0  0  0  0  0  0  0  0
  -20.2214  -30.3211   20.5292 N   0  0  0  0  0  0  0  0  0  0  0  0
  -19.6827  -30.1402   16.9592 N   0  3  0  0  0  0  0  0  0  0  0  0
  -22.7486  -11.2746   17.2389 O   0  0  0  0  0  0  0  0  0  0  0  0
  -24.9311  -29.3566   23.5684 O   0  0  0  0  0  0  0  0  0  0  0  0
  -21.9955  -31.8925   22.1391 O   0  0  0  0  0  0  0  0  0  0  0  0
  -27.8943  -23.1154   19.2204 O   0  0  0  0  0  0  0  0  0  0  0  0
  -20.5869  -28.5402   19.0897 O   0  0  0  0  0  0  0  0  0  0  0  0
  -30.0929  -16.9323   20.4984 O   0  0  0  0  0  0  0  0  0  0  0  0
  -22.6742   -7.8993   24.2523 O   0  0  0  0  0  0  0  0  0  0  0  0
  -26.6823  -25.5076   19.1183 O   0  0  0  0  0  0  0  0  0  1  0  0
  -20.8315   -2.9355   22.7130 F   0  0  0  0  0  0  0  0  0  0  0  0
  -23.7587   -5.5905   25.3183 F   0  0  0  0  0  0  0  0  0  0  0  0
  1  2  1  0  0  0  0
  1  5  2  0  0  0  0
  2  6  2  0  0  0  0
  3 10  2  0  0  0  0
  3 18  1  0  0  0  0
  4 11  1  0  0  0  0
  4 18  2  0  0  0  0
  5 20  1  0  0  0  0
  6 22  1  0  0  0  0
  7 12  2  0  0  0  0
  7 21  1  0  0  0  0
  8  9  2  0  0  0  0
  8 25  1  0  0  0  0
  9 26  1  0  0  0  0
 10 27  1  0  0  0  0
 11 27  2  0  0  0  0
 12 28  1  0  0  0  0
 13 14  2  0  0  0  0
 13 29  1  0  0  0  0
 14 30  1  0  0  0  0
 15 23  1  0  0  0  0
 15 28  2  0  0  0  0
 16 24  1  0  0  0  0
 16 25  2  0  0  0  0
 17 30  2  0  0  0  0
 17 31  1  0  0  0  0
 18 32  1  0  0  0  0
 19 32  1  0  0  0  0
 19 33  2  0  0  0  0
 19 34  1  0  0  0  0
 20 22  2  0  0  0  0
 20 40  1  0  0  0  0
 21 23  2  0  0  0  0
 21 41  1  0  0  0  0
 22 49  1  0  0  0  0
 23 42  1  0  0  0  0
 24 26  2  0  0  0  0
 24 52  1  0  0  0  0
 25 69  1  0  0  0  0
 26 68  1  0  0  0  0
 27 79  1  0  0  0  0
 28 80  1  0  0  0  0
 29 31  2  0  0  0  0
 29 79  1  0  0  0  0
 30 81  1  0  0  0  0
 31 82  1  0  0  0  0
 32 62  2  0  0  0  0
 33 63  1  0  0  0  0
 33 66  1  0  0  0  0
 34 67  1  0  0  0  0
 34 73  2  0  0  0  0
 35 50  1  0  0  0  0
 35 70  1  0  0  0  0
 35 74  2  0  0  0  0
 36 59  1  0  0  0  0
 36 64  1  0  0  0  0
 36 75  2  0  0  0  0
 37 58  1  0  0  0  0
 37 68  1  0  0  0  0
 37 76  2  0  0  0  0
 38 60  1  0  0  0  0
 38 71  1  0  0  0  0
 38 77  2  0  0  0  0
 39 65  1  0  0  0  0
 39 69  1  0  0  0  0
 39 78  2  0  0  0  0
 40 43  1  0  0  0  0
 41 50  1  0  0  0  0
 42 64  1  0  0  0  0
 43 45  1  0  0  0  0
 44 46  1  0  0  0  0
 44 47  1  0  0  0  0
 45 49  1  0  0  0  0
 46 51  1  0  0  0  0
 47 65  1  0  0  0  0
 48 51  1  0  0  0  0
 48 65  1  0  0  0  0
 49 70  1  0  0  0  0
 50 64  1  0  0  0  0
 51 63  1  0  0  0  0
 53 60  1  0  0  0  0
 54 61  1  0  0  0  0
 55 61  1  0  0  0  0
 56 61  1  0  0  0  0
 57 72  1  0  0  0  0
 58 80  1  0  0  0  0
 59 61  1  0  0  0  0
 59 71  1  0  0  0  0
 60 72  1  0  0  0  0
 62 63  1  0  0  0  0
M  CHG  1  72   1
M  ISO  4  39 100  58 101  69 100  80 101
M  END
> <Batch ID>
0003

> <Smiles>
CNC(C)C(=O)NC(C(=O)N1Cc2cc([101O:1][101CH2:1]C(=O)Nc3ccc([100NH:0][100C:0](=O)N4CCCC(n5nc(-c6ccc(Oc7ccc(F)cc7F)cc6)c(C(N)=O)c5N)C4)cc3C)ccc2CC1C(=O)NC1CCCc2ccccc21)C(C)(C)C

> <Shape>
0.307

> <Color>
0.100

> <Negative vol penalty>
0.000

$$$$

  -OEChem-04052315212D

  0  0  0     0  0  0  0  0  0999 V2000
M  END
$$$$

  -OEChem-04052315213D

 82 89  0     1  0  0  0  0  0999 V2000
  -29.4135  -23.8088   17.6574 C   0  0  0  0  0  0  0  0  0  0  0  0
  -28.1855  -24.4196   17.8853 C   0  0  0  0  0  0  0  0  0  0  0  0
  -26.2256  -13.5610   18.9194 C   0  0  0  0  0  0  0  0  0  0  0  0
  -24.9675  -13.9982   20.9351 C   0  0  0  0  0  0  0  0  0  0  0  0
  -30.4838  -24.0641   18.5120 C   0  0  0  0  0  0  0  0  0  0  0  0
  -28.0307  -25.2950   18.9608 C   0  0  0  0  0  0  0  0  0  0  0  0
  -23.7688  -27.7341   19.2618 C   0  0  0  0  0  0  0  0  0  0  0  0
  -26.1894  -12.1938   19.1933 C   0  0  0  0  0  0  0  0  0  0  0  0
  -24.9313  -12.6310   21.2090 C   0  0  0  0  0  0  0  0  0  0  0  0
  -22.5707  -27.1167   19.6183 C   0  0  0  0  0  0  0  0  0  0  0  0
  -23.1857   -9.9298   20.1712 C   0  0  0  0  0  0  0  0  0  0  0  0
  -21.9679   -9.3836   20.5762 C   0  0  0  0  0  0  0  0  0  0  0  0
  -22.7388  -28.0779   21.8244 C   0  0  0  0  0  0  0  0  0  0  0  0
  -22.9752   -8.6805   22.6566 C   0  0  0  0  0  0  0  0  0  0  0  0
  -25.6147  -14.4633   19.7903 C   0  0  0  0  0  0  0  0  0  0  0  0
  -24.7170  -16.6190   18.7634 C   0  0  0  0  0  0  0  0  0  0  0  0
  -30.3378  -24.9335   19.6055 C   0  0  0  0  0  0  0  0  0  0  0  0
  -24.4677  -28.5204   20.1889 C   0  0  0  0  0  0  0  0  0  0  0  0
  -29.1057  -25.5841   19.8206 C   0  0  0  0  0  0  0  0  0  0  0  0
  -23.9443  -28.7063   21.4764 C   0  0  0  0  0  0  0  0  0  0  0  0
  -25.5423  -11.7288   20.3381 C   0  0  0  0  0  0  0  0  0  0  0  0
  -22.0569  -27.2863   20.9006 C   0  0  0  0  0  0  0  0  0  0  0  0
  -24.2984   -9.8513   21.0088 C   0  0  0  0  0  0  0  0  0  0  0  0
  -21.8626   -8.7589   21.8190 C   0  0  0  0  0  0  0  0  0  0  0  0
  -24.1931   -9.2266   22.2515 C   0  0  0  0  0  0  0  0  0  0  0  0
  -25.6522  -15.8757   19.5082 C   0  0  0  0  0  0  0  0  0  0  0  0
  -25.2016  -17.9039   18.7882 C   0  0  0  0  0  0  0  0  0  0  0  0
  -23.5174  -16.1866   18.1079 C   0  0  0  0  0  0  0  0  0  0  0  0
  -27.3366  -28.3673   21.5489 C   0  0  0  0  0  0  0  0  0  0  0  0
  -26.4912  -31.2593   22.7505 C   0  0  0  0  0  0  0  0  0  0  0  0
  -21.3006  -22.9221   24.7164 C   0  0  0  0  0  0  0  0  0  0  0  0
  -23.9951  -33.4182   23.6195 C   0  0  0  0  0  0  0  0  0  0  0  0
  -27.4496  -22.2052   21.5435 C   0  0  0  0  0  0  0  0  0  0  0  0
  -31.5314  -25.1802   20.4941 C   0  0  0  0  0  0  0  0  0  0  0  0
  -25.7452  -29.2013   19.7804 C   0  0  0  0  0  0  0  0  0  0  0  0
  -24.6456  -29.5571   22.5024 C   0  0  0  0  0  0  0  0  0  0  0  0
  -31.1521  -25.7664   21.8501 C   0  0  0  0  0  0  0  0  0  0  0  0
  -29.6724  -19.7074   20.3199 C   0  0  0  0  0  0  0  0  0  0  0  0
  -30.2198  -26.9536   21.6607 C   0  0  0  0  0  0  0  0  0  0  0  0
  -28.7483  -18.5476   19.9444 C   0  0  0  0  0  0  0  0  0  0  0  0
  -29.1837  -20.4364   21.5696 C   0  0  0  0  0  0  0  0  0  0  0  0
  -26.8604  -19.7390   21.1340 C   0  0  0  0  0  0  0  0  0  0  0  0
  -28.9054  -26.5162   21.0019 C   0  0  1  0  0  0  0  0  0  0  0  0
  -26.6357  -29.5615   20.9655 C   0  0  1  0  0  0  0  0  0  0  0  0
  -27.2814  -19.0082   19.8476 C   0  0  2  0  0  0  0  0  0  0  0  0
  -23.6133  -35.6917   24.6110 C   0  0  0  0  0  0  0  0  0  0  0  0
  -27.1347  -30.1562   25.5216 C   0  0  0  0  0  0  0  0  0  0  0  0
  -25.8624  -32.0754   26.5046 C   0  0  0  0  0  0  0  0  0  0  0  0
  -27.8995  -32.5049   25.1303 C   0  0  0  0  0  0  0  0  0  0  0  0
  -22.6383  -34.3847   21.1734 C   0  0  0  0  0  0  0  0  0  0  0  0
  -22.6258  -22.7823   25.4474 C   0  0  0  0  0  0  0  0  0  0  0  0
  -23.7355  -23.6688   24.8841 C   0  0  0  0  0  0  0  0  0  0  0  0
  -24.0897  -23.3106   23.4371 C   0  0  0  0  0  0  0  0  0  0  0  0
  -25.1861  -24.2311   22.8919 C   0  0  0  0  0  0  0  0  0  0  0  0
  -19.8102  -25.1100   22.7069 C   0  0  0  0  0  0  0  0  0  0  0  0
  -25.6043  -23.8632   21.4717 C   0  0  0  0  0  0  0  0  0  0  0  0
  -19.5906  -24.6313   24.1357 C   0  0  0  0  0  0  0  0  0  0  0  0
  -20.7297  -26.3223   22.6226 C   0  0  0  0  0  0  0  0  0  1  0  0
  -25.7773  -31.7334   23.9933 C   0  0  1  0  0  0  0  0  0  0  0  0
  -23.7933  -34.8944   23.3285 C   0  0  2  0  0  0  0  0  0  0  0  0
  -26.6560  -31.5998   25.2690 C   0  0  0  0  0  0  0  0  0  0  0  0
  -26.6552  -16.6260   19.9720 N   0  0  0  0  0  0  0  0  0  0  0  0
  -26.3530  -17.8540   19.5176 N   0  0  0  0  0  0  0  0  0  0  0  0
  -25.8946  -30.1968   22.0570 N   0  0  0  0  0  0  0  0  0  0  0  0
  -27.7866  -20.8479   21.4124 N   0  0  0  0  0  0  0  0  0  0  0  0
  -24.7509  -19.0603   18.2570 N   0  0  0  0  0  0  0  0  0  0  0  0
  -23.1667  -14.8317   18.1820 N   0  0  0  0  0  0  0  0  0  0  0  0
  -28.1397  -27.6916   20.6500 N   0  0  0  0  0  0  0  0  0  0  0  0
  -20.8139  -24.2247   24.7702 N   0  0  0  0  0  0  0  0  0  0  0  0
  -25.3320  -33.0943   23.7142 N   0  0  0  0  0  0  0  0  0  0  0  0
  -26.1046  -22.5101   21.3733 N   0  0  0  0  0  0  0  0  0  0  0  0
  -22.5864  -35.0943   22.4775 N   0  3  0  0  0  0  0  0  0  0  0  0
  -22.7870  -16.9754   17.4614 O   0  0  0  0  0  0  0  0  0  0  0  0
  -27.1629  -28.0809   22.7277 O   0  0  0  0  0  0  0  0  0  0  0  0
  -27.5360  -31.8160   22.4038 O   0  0  0  0  0  0  0  0  0  0  0  0
  -20.7515  -21.9916   24.1328 O   0  0  0  0  0  0  0  0  0  0  0  0
  -23.0601  -32.6318   23.7535 O   0  0  0  0  0  0  0  0  0  0  0  0
  -28.2861  -23.0811   21.7883 O   0  0  0  0  0  0  0  0  0  0  0  0
  -25.5066  -10.3947   20.6056 O   0  0  0  0  0  0  0  0  0  0  0  0
  -20.8880  -26.6843   21.2514 O   0  0  0  0  0  0  0  0  0  1  0  0
  -20.6926   -8.2358   22.2085 F   0  0  0  0  0  0  0  0  0  0  0  0
  -25.2582   -9.1492   23.0611 F   0  0  0  0  0  0  0  0  0  0  0  0
  1  2  1  0  0  0  0
  1  5  2  0  0  0  0
  2  6  2  0  0  0  0
  3  8  2  0  0  0  0
  3 15  1  0  0  0  0
  4  9  1  0  0  0  0
  4 15  2  0  0  0  0
  5 17  1  0  0  0  0
  6 19  1  0  0  0  0
  7 10  2  0  0  0  0
  7 18  1  0  0  0  0
  8 21  1  0  0  0  0
  9 21  2  0  0  0  0
 10 22  1  0  0  0  0
 11 12  2  0  0  0  0
 11 23  1  0  0  0  0
 12 24  1  0  0  0  0
 13 20  1  0  0  0  0
 13 22  2  0  0  0  0
 14 24  2  0  0  0  0
 14 25  1  0  0  0  0
 15 26  1  0  0  0  0
 16 26  1  0  0  0  0
 16 27  2  0  0  0  0
 16 28  1  0  0  0  0
 17 19  2  0  0  0  0
 17 34  1  0  0  0  0
 18 20  2  0  0  0  0
 18 35  1  0  0  0  0
 19 43  1  0  0  0  0
 20 36  1  0  0  0  0
 21 79  1  0  0  0  0
 22 80  1  0  0  0  0
 23 25  2  0  0  0  0
 23 79  1  0  0  0  0
 24 81  1  0  0  0  0
 25 82  1  0  0  0  0
 26 62  2  0  0  0  0
 27 63  1  0  0  0  0
 27 66  1  0  0  0  0
 28 67  1  0  0  0  0
 28 73  2  0  0  0  0
 29 44  1  0  0  0  0
 29 68  1  0  0  0  0
 29 74  2  0  0  0  0
 30 59  1  0  0  0  0
 30 64  1  0  0  0  0
 30 75  2  0  0  0  0
 31 51  1  0  0  0  0
 31 69  1  0  0  0  0
 31 76  2  0  0  0  0
 32 60  1  0  0  0  0
 32 70  1  0  0  0  0
 32 77  2  0  0  0  0
 33 65  1  0  0  0  0
 33 71  1  0  0  0  0
 33 78  2  0  0  0  0
 34 37  1  0  0  0  0
 35 44  1  0  0  0  0
 36 64  1  0  0  0  0
 37 39  1  0  0  0  0
 38 40  1  0  0  0  0
 38 41  1  0  0  0  0
 39 43  1  0  0  0  0
 40 45  1  0  0  0  0
 41 65  1  0  0  0  0
 42 45  1  0  0  0  0
 42 65  1  0  0  0  0
 43 68  1  0  0  0  0
 44 64  1  0  0  0  0
 45 63  1  0  0  0  0
 46 60  1  0  0  0  0
 47 61  1  0  0  0  0
 48 61  1  0  0  0  0
 49 61  1  0  0  0  0
 50 72  1  0  0  0  0
 51 52  1  0  0  0  0
 52 53  1  0  0  0  0
 53 54  1  0  0  0  0
 54 56  1  0  0  0  0
 55 57  1  0  0  0  0
 55 58  1  0  0  0  0
 56 71  1  0  0  0  0
 57 69  1  0  0  0  0
 58 80  1  0  0  0  0
 59 61  1  0  0  0  0
 59 70  1  0  0  0  0
 60 72  1  0  0  0  0
 62 63  1  0  0  0  0
M  CHG  1  72   1
M  ISO  4  33 100  58 101  71 100  80 101
M  END
> <Batch ID>
0003

> <Smiles>
CNC(C)C(=O)NC(C(=O)N1Cc2cc([101O:1][101CH2:1]CCNC(=O)CCCCC[100NH:0][100C:0](=O)N3CCCC(n4nc(-c5ccc(Oc6ccc(F)cc6F)cc5)c(C(N)=O)c4N)C3)ccc2CC1C(=O)NC1CCCc2ccccc21)C(C)(C)C

> <Shape>
0.292

> <Color>
0.076

> <Negative vol penalty>
0.000

$$$$

  -OEChem-04052315213D

 79 86  0     1  0  0  0  0  0999 V2000
  -28.8123  -24.7450   16.7647 C   0  0  0  0  0  0  0  0  0  0  0  0
  -27.6115  -24.8376   17.4611 C   0  0  0  0  0  0  0  0  0  0  0  0
  -28.2701  -19.3504   22.5435 C   0  0  0  0  0  0  0  0  0  0  0  0
  -27.1762  -19.6752   20.4140 C   0  0  0  0  0  0  0  0  0  0  0  0
  -29.9573  -25.3624   17.2666 C   0  0  0  0  0  0  0  0  0  0  0  0
  -27.5553  -25.5467   18.6604 C   0  0  0  0  0  0  0  0  0  0  0  0
  -23.4942  -28.5583   18.9479 C   0  0  0  0  0  0  0  0  0  0  0  0
  -29.2994  -18.6553   21.9089 C   0  0  0  0  0  0  0  0  0  0  0  0
  -28.2056  -18.9800   19.7792 C   0  0  0  0  0  0  0  0  0  0  0  0
  -22.2751  -27.9557   19.2554 C   0  0  0  0  0  0  0  0  0  0  0  0
  -30.3619  -16.9805   17.6433 C   0  0  0  0  0  0  0  0  0  0  0  0
  -30.0080  -16.0282   16.6876 C   0  0  0  0  0  0  0  0  0  0  0  0
  -22.5073  -28.6696   21.5479 C   0  0  0  0  0  0  0  0  0  0  0  0
  -28.7702  -14.8056   18.3640 C   0  0  0  0  0  0  0  0  0  0  0  0
  -27.2085  -19.8604   21.7961 C   0  0  0  0  0  0  0  0  0  0  0  0
  -26.0782  -21.9627   22.6962 C   0  0  0  0  0  0  0  0  0  0  0  0
  -29.9128  -26.0876   18.4677 C   0  0  0  0  0  0  0  0  0  0  0  0
  -24.2355  -29.2128   19.9422 C   0  0  0  0  0  0  0  0  0  0  0  0
  -28.7010  -26.1733   19.1795 C   0  0  0  0  0  0  0  0  0  0  0  0
  -23.7343  -29.2819   21.2499 C   0  0  0  0  0  0  0  0  0  0  0  0
  -29.2672  -18.4701   20.5267 C   0  0  0  0  0  0  0  0  0  0  0  0
  -21.7829  -28.0088   20.5561 C   0  0  0  0  0  0  0  0  0  0  0  0
  -29.9200  -16.8453   18.9595 C   0  0  0  0  0  0  0  0  0  0  0  0
  -29.2121  -14.9408   17.0479 C   0  0  0  0  0  0  0  0  0  0  0  0
  -29.1242  -15.7579   19.3198 C   0  0  0  0  0  0  0  0  0  0  0  0
  -26.1446  -20.5780   22.4512 C   0  0  0  0  0  0  0  0  0  0  0  0
  -24.8776  -22.1405   23.3391 C   0  0  0  0  0  0  0  0  0  0  0  0
  -27.0179  -22.9959   22.3716 C   0  0  0  0  0  0  0  0  0  0  0  0
  -27.1100  -28.7998   21.2345 C   0  0  0  0  0  0  0  0  0  0  0  0
  -26.3998  -31.5797   22.7477 C   0  0  0  0  0  0  0  0  0  0  0  0
  -19.3411  -25.3513   20.9078 C   0  0  0  0  0  0  0  0  0  0  0  0
  -24.0060  -33.7336   23.8779 C   0  0  0  0  0  0  0  0  0  0  0  0
  -19.7738  -19.0099   23.3843 C   0  0  0  0  0  0  0  0  0  0  0  0
  -31.1872  -26.6981   18.9947 C   0  0  0  0  0  0  0  0  0  0  0  0
  -25.5358  -29.8809   19.5885 C   0  0  0  0  0  0  0  0  0  0  0  0
  -24.4818  -29.9898   22.3493 C   0  0  0  0  0  0  0  0  0  0  0  0
  -30.9571  -27.7456   20.0810 C   0  0  0  0  0  0  0  0  0  0  0  0
  -21.7860  -19.8646   26.1945 C   0  0  0  0  0  0  0  0  0  0  0  0
  -29.9584  -27.2331   21.1138 C   0  0  0  0  0  0  0  0  0  0  0  0
  -23.1252  -20.2693   25.5759 C   0  0  0  0  0  0  0  0  0  0  0  0
  -21.1370  -18.7122   25.4311 C   0  0  0  0  0  0  0  0  0  0  0  0
  -22.3203  -19.3439   23.3636 C   0  0  0  0  0  0  0  0  0  0  0  0
  -28.5942  -26.9544   20.4712 C   0  0  1  0  0  0  0  0  0  0  0  0
  -26.4535  -30.0767   20.7913 C   0  0  1  0  0  0  0  0  0  0  0  0
  -22.9865  -20.5396   24.0656 C   0  0  2  0  0  0  0  0  0  0  0  0
  -23.7307  -35.9025   25.1098 C   0  0  0  0  0  0  0  0  0  0  0  0
  -27.0265  -30.1634   25.3766 C   0  0  0  0  0  0  0  0  0  0  0  0
  -25.8466  -32.0173   26.5762 C   0  0  0  0  0  0  0  0  0  0  0  0
  -27.8848  -32.5074   25.2241 C   0  0  0  0  0  0  0  0  0  0  0  0
  -22.6644  -35.0087   21.5686 C   0  0  0  0  0  0  0  0  0  0  0  0
  -20.2218  -26.2752   20.0939 C   0  0  0  0  0  0  0  0  0  1  0  0
  -18.7820  -21.8323   20.7145 C   0  0  0  0  0  0  0  0  0  0  0  0
  -17.8737  -20.7289   21.2704 C   0  0  0  0  0  0  0  0  0  0  0  0
  -18.1065  -23.2006   20.7187 C   0  0  0  0  0  0  0  0  0  0  0  0
  -18.5436  -19.3583   21.2572 C   0  0  0  0  0  0  0  0  0  0  0  0
  -25.7199  -31.9477   24.0443 C   0  0  1  0  0  0  0  0  0  0  0  0
  -23.8632  -35.2393   23.7477 C   0  0  2  0  0  0  0  0  0  0  0  0
  -26.6060  -31.6439   25.2852 C   0  0  0  0  0  0  0  0  0  0  0  0
  -25.0716  -19.9227   22.9019 N   0  0  0  0  0  0  0  0  0  0  0  0
  -24.3197  -20.8998   23.4366 N   0  0  0  0  0  0  0  0  0  0  0  0
  -25.7516  -30.6220   21.9550 N   0  0  0  0  0  0  0  0  0  0  0  0
  -21.0335  -19.0327   24.0055 N   0  0  0  0  0  0  0  0  0  0  0  0
  -24.2552  -23.2356   23.8249 N   0  0  0  0  0  0  0  0  0  0  0  0
  -28.2010  -22.6393   21.7104 N   0  0  0  0  0  0  0  0  0  0  0  0
  -27.8742  -28.1914   20.2570 N   0  0  0  0  0  0  0  0  0  0  0  0
  -18.9520  -24.2394   20.1774 N   0  0  0  0  0  0  0  0  0  0  0  0
  -25.3291  -33.3476   23.9174 N   0  0  0  0  0  0  0  0  0  0  0  0
  -19.7637  -19.3323   22.0327 N   0  0  0  0  0  0  0  0  0  0  0  0
  -22.6565  -35.5773   22.9410 N   0  3  0  0  0  0  0  0  0  0  0  0
  -26.8218  -24.1974   22.6741 O   0  0  0  0  0  0  0  0  0  0  0  0
  -26.9373  -28.3972   22.3789 O   0  0  0  0  0  0  0  0  0  0  0  0
  -27.4631  -32.1273   22.4458 O   0  0  0  0  0  0  0  0  0  0  0  0
  -19.0266  -25.5874   22.0711 O   0  0  0  0  0  0  0  0  0  0  0  0
  -23.0404  -32.9760   23.9423 O   0  0  0  0  0  0  0  0  0  0  0  0
  -18.7345  -18.7286   23.9906 O   0  0  0  0  0  0  0  0  0  0  0  0
  -30.2716  -17.7920   19.9070 O   0  0  0  0  0  0  0  0  0  0  0  0
  -20.5936  -27.4209   20.8591 O   0  0  0  0  0  0  0  0  0  1  0  0
  -28.8711  -14.0272   16.1297 F   0  0  0  0  0  0  0  0  0  0  0  0
  -28.6957  -15.6234   20.5824 F   0  0  0  0  0  0  0  0  0  0  0  0
  1  2  1  0  0  0  0
  1  5  2  0  0  0  0
  2  6  2  0  0  0  0
  3  8  2  0  0  0  0
  3 15  1  0  0  0  0
  4  9  1  0  0  0  0
  4 15  2  0  0  0  0
  5 17  1  0  0  0  0
  6 19  1  0  0  0  0
  7 10  2  0  0  0  0
  7 18  1  0  0  0  0
  8 21  1  0  0  0  0
  9 21  2  0  0  0  0
 10 22  1  0  0  0  0
 11 12  2  0  0  0  0
 11 23  1  0  0  0  0
 12 24  1  0  0  0  0
 13 20  1  0  0  0  0
 13 22  2  0  0  0  0
 14 24  2  0  0  0  0
 14 25  1  0  0  0  0
 15 26  1  0  0  0  0
 16 26  1  0  0  0  0
 16 27  2  0  0  0  0
 16 28  1  0  0  0  0
 17 19  2  0  0  0  0
 17 34  1  0  0  0  0
 18 20  2  0  0  0  0
 18 35  1  0  0  0  0
 19 43  1  0  0  0  0
 20 36  1  0  0  0  0
 21 76  1  0  0  0  0
 22 77  1  0  0  0  0
 23 25  2  0  0  0  0
 23 76  1  0  0  0  0
 24 78  1  0  0  0  0
 25 79  1  0  0  0  0
 26 59  2  0  0  0  0
 27 60  1  0  0  0  0
 27 63  1  0  0  0  0
 28 64  1  0  0  0  0
 28 70  2  0  0  0  0
 29 44  1  0  0  0  0
 29 65  1  0  0  0  0
 29 71  2  0  0  0  0
 30 56  1  0  0  0  0
 30 61  1  0  0  0  0
 30 72  2  0  0  0  0
 31 51  1  0  0  0  0
 31 66  1  0  0  0  0
 31 73  2  0  0  0  0
 32 57  1  0  0  0  0
 32 67  1  0  0  0  0
 32 74  2  0  0  0  0
 33 62  1  0  0  0  0
 33 68  1  0  0  0  0
 33 75  2  0  0  0  0
 34 37  1  0  0  0  0
 35 44  1  0  0  0  0
 36 61  1  0  0  0  0
 37 39  1  0  0  0  0
 38 40  1  0  0  0  0
 38 41  1  0  0  0  0
 39 43  1  0  0  0  0
 40 45  1  0  0  0  0
 41 62  1  0  0  0  0
 42 45  1  0  0  0  0
 42 62  1  0  0  0  0
 43 65  1  0  0  0  0
 44 61  1  0  0  0  0
 45 60  1  0  0  0  0
 46 57  1  0  0  0  0
 47 58  1  0  0  0  0
 48 58  1  0  0  0  0
 49 58  1  0  0  0  0
 50 69  1  0  0  0  0
 51 77  1  0  0  0  0
 52 53  1  0  0  0  0
 52 54  1  0  0  0  0
 53 55  1  0  0  0  0
 54 66  1  0  0  0  0
 55 68  1  0  0  0  0
 56 58  1  0  0  0  0
 56 67  1  0  0  0  0
 57 69  1  0  0  0  0
 59 60  1  0  0  0  0
M  CHG  1  69   1
M  ISO  4  33 100  51 101  68 100  77 101
M  END
> <Batch ID>
0003

> <Smiles>
CNC(C)C(=O)NC(C(=O)N1Cc2cc([101O:1][101CH2:1]C(=O)NCCCC[100NH:0][100C:0](=O)N3CCCC(n4nc(-c5ccc(Oc6ccc(F)cc6F)cc5)c(C(N)=O)c4N)C3)ccc2CC1C(=O)NC1CCCc2ccccc21)C(C)(C)C

> <Shape>
0.232

> <Color>
0.073

> <Negative vol penalty>
0.000

$$$$

  -OEChem-04052315213D

100108  0     1  0  0  0  0  0999 V2000
  -20.2314  -25.4658   26.3263 C   0  0  0  0  0  0  0  0  0  0  0  0
  -21.6144  -25.3435   26.2385 C   0  0  0  0  0  0  0  0  0  0  0  0
  -18.5483  -14.6744   21.0922 C   0  0  0  0  0  0  0  0  0  0  0  0
  -29.2821  -18.9261   19.9102 C   0  0  0  0  0  0  0  0  0  0  0  0
  -27.4750  -19.9417   21.1511 C   0  0  0  0  0  0  0  0  0  0  0  0
  -18.2031  -15.7176   21.9513 C   0  0  0  0  0  0  0  0  0  0  0  0
  -19.5456  -26.2764   25.4227 C   0  0  0  0  0  0  0  0  0  0  0  0
  -22.3124  -26.0310   25.2463 C   0  0  0  0  0  0  0  0  0  0  0  0
  -28.6054  -29.2375   24.0493 C   0  0  0  0  0  0  0  0  0  0  0  0
  -19.8806  -14.2778   20.9767 C   0  0  0  0  0  0  0  0  0  0  0  0
  -29.5675  -20.1566   19.3186 C   0  0  0  0  0  0  0  0  0  0  0  0
  -27.7604  -21.1722   20.5596 C   0  0  0  0  0  0  0  0  0  0  0  0
  -29.6561  -29.2396   23.1329 C   0  0  0  0  0  0  0  0  0  0  0  0
  -31.1577  -23.0181   20.1647 C   0  0  0  0  0  0  0  0  0  0  0  0
  -32.4948  -23.4090   20.0946 C   0  0  0  0  0  0  0  0  0  0  0  0
  -20.5225  -15.9677   22.5795 C   0  0  0  0  0  0  0  0  0  0  0  0
  -28.3749  -30.6735   21.6763 C   0  0  0  0  0  0  0  0  0  0  0  0
  -32.3417  -23.5002   17.6851 C   0  0  0  0  0  0  0  0  0  0  0  0
  -28.2358  -18.8186   20.8264 C   0  0  0  0  0  0  0  0  0  0  0  0
  -19.1902  -16.3643   22.6950 C   0  0  0  0  0  0  0  0  0  0  0  0
  -28.4743  -17.0353   22.6349 C   0  0  0  0  0  0  0  0  0  0  0  0
  -20.2366  -26.9818   24.4249 C   0  0  0  0  0  0  0  0  0  0  0  0
  -27.4253  -29.9458   23.7807 C   0  0  0  0  0  0  0  0  0  0  0  0
  -21.6351  -26.8508   24.3277 C   0  0  0  0  0  0  0  0  0  0  0  0
  -27.3117  -30.6809   22.5921 C   0  0  0  0  0  0  0  0  0  0  0  0
  -20.8677  -14.9245   21.7204 C   0  0  0  0  0  0  0  0  0  0  0  0
  -28.8067  -21.2797   19.6433 C   0  0  0  0  0  0  0  0  0  0  0  0
  -29.5398  -29.9553   21.9449 C   0  0  0  0  0  0  0  0  0  0  0  0
  -30.4126  -22.8681   18.9951 C   0  0  0  0  0  0  0  0  0  0  0  0
  -33.0868  -23.6501   18.8548 C   0  0  0  0  0  0  0  0  0  0  0  0
  -31.0046  -23.1091   17.7553 C   0  0  0  0  0  0  0  0  0  0  0  0
  -27.9401  -17.5476   21.4374 C   0  0  0  0  0  0  0  0  0  0  0  0
  -27.8798  -15.8054   22.7776 C   0  0  0  0  0  0  0  0  0  0  0  0
  -18.8210  -17.4752   23.6097 C   0  0  0  0  0  0  0  0  0  0  0  0
  -29.4229  -17.6191   23.5377 C   0  0  0  0  0  0  0  0  0  0  0  0
  -24.3713  -29.1526   23.3962 C   0  0  0  0  0  0  0  0  0  0  0  0
  -23.9526  -32.3678   23.2988 C   0  0  0  0  0  0  0  0  0  0  0  0
  -22.4373  -21.3696   22.3612 C   0  0  0  0  0  0  0  0  0  0  0  0
  -28.6310  -27.2909   19.0926 C   0  0  0  0  0  0  0  0  0  0  0  0
  -25.2948  -35.4474   22.6972 C   0  0  0  0  0  0  0  0  0  0  0  0
  -22.7329  -13.5048   20.7974 C   0  0  0  0  0  0  0  0  0  0  0  0
  -19.4470  -27.8087   23.4414 C   0  0  0  0  0  0  0  0  0  0  0  0
  -26.3116  -29.9553   24.7916 C   0  0  0  0  0  0  0  0  0  0  0  0
  -26.0738  -31.4742   22.2655 C   0  0  0  0  0  0  0  0  0  0  0  0
  -20.3013  -28.7984   22.6535 C   0  0  0  0  0  0  0  0  0  0  0  0
  -26.0039  -12.2314   20.2003 C   0  0  0  0  0  0  0  0  0  0  0  0
  -21.5606  -28.1165   22.1280 C   0  0  0  0  0  0  0  0  0  0  0  0
  -26.9205  -13.4016   20.5646 C   0  0  0  0  0  0  0  0  0  0  0  0
  -24.7161  -12.7071   19.5302 C   0  0  0  0  0  0  0  0  0  0  0  0
  -24.8873  -14.9008   20.6382 C   0  0  0  0  0  0  0  0  0  0  0  0
  -22.4303  -27.6002   23.2807 C   0  0  1  0  0  0  0  0  0  0  0  0
  -24.9543  -30.2928   24.1822 C   0  0  1  0  0  0  0  0  0  0  0  0
  -26.1683  -14.4758   21.3745 C   0  0  2  0  0  0  0  0  0  0  0  0
  -24.6971  -37.8844   22.6641 C   0  0  0  0  0  0  0  0  0  0  0  0
  -22.4954  -31.9720   20.6474 C   0  0  0  0  0  0  0  0  0  0  0  0
  -22.7676  -34.4224   20.2119 C   0  0  0  0  0  0  0  0  0  0  0  0
  -21.4416  -33.6465   22.1772 C   0  0  0  0  0  0  0  0  0  0  0  0
  -27.2777  -36.0812   24.8008 C   0  0  0  0  0  0  0  0  0  0  0  0
  -21.7595  -21.9829   21.1530 C   0  0  0  0  0  0  0  0  0  0  0  0
  -28.0330  -25.9227   19.3545 C   0  0  0  0  0  0  0  0  0  0  0  0
  -22.3486  -23.3566   20.8391 C   0  0  0  0  0  0  0  0  0  0  0  0
  -26.5320  -25.9814   19.6337 C   0  0  0  0  0  0  0  0  0  0  0  0
  -23.8517  -23.3202   20.5523 C   0  0  0  0  0  0  0  0  0  0  0  0
  -25.9438  -24.6056   19.9599 C   0  0  0  0  0  0  0  0  0  0  0  0
  -24.4464  -24.7002   20.2636 C   0  0  0  0  0  0  0  0  0  0  0  0
  -20.0909  -20.0203   25.3241 C   0  0  0  0  0  0  0  0  0  0  0  0
  -21.6149  -19.9001   25.2143 C   0  0  0  0  0  0  0  0  0  0  0  0
  -31.9058  -28.6110   19.5791 C   0  0  0  0  0  0  0  0  0  0  0  0
  -19.4248  -18.6959   25.6837 C   0  0  0  0  0  0  0  0  0  0  0  0
  -22.2693  -21.2235   24.8372 C   0  0  0  0  0  0  0  0  0  0  0  0
  -30.7872  -28.4185   18.5640 C   0  0  0  0  0  0  0  0  0  0  0  0
  -31.3905  -28.7976   21.0010 C   0  0  0  0  0  0  0  0  0  1  0  0
  -23.9589  -33.4143   22.2107 C   0  0  1  0  0  0  0  0  0  0  0  0
  -25.2522  -36.7381   23.4951 C   0  0  2  0  0  0  0  0  0  0  0  0
  -22.6886  -33.3474   21.3168 C   0  0  0  0  0  0  0  0  0  0  0  0
  -27.0732  -16.7114   20.8602 N   0  0  0  0  0  0  0  0  0  0  0  0
  -27.0581  -15.6612   21.6986 N   0  0  0  0  0  0  0  0  0  0  0  0
  -25.0099  -31.4471   23.2828 N   0  0  0  0  0  0  0  0  0  0  0  0
  -24.0557  -13.7201   20.3564 N   0  0  0  0  0  0  0  0  0  0  0  0
  -27.9852  -14.8439   23.7193 N   0  0  0  0  0  0  0  0  0  0  0  0
  -29.9338  -18.8899   23.2403 N   0  0  0  0  0  0  0  0  0  0  0  0
  -22.2210  -14.5213   21.6032 N   0  0  0  0  0  0  0  0  0  0  0  0
  -19.6621  -17.6778   24.6982 N   0  0  0  0  0  0  0  0  0  0  0  0
  -23.1652  -28.6899   23.8866 N   0  0  0  0  0  0  0  0  0  0  0  0
  -21.8113  -21.6982   23.5519 N   0  0  0  0  0  0  0  0  0  0  0  0
  -29.9912  -27.2440   18.8389 N   0  0  0  0  0  0  0  0  0  0  0  0
  -24.1525  -34.6967   22.8789 N   0  0  0  0  0  0  0  0  0  0  0  0
  -26.6210  -37.1093   23.9530 N   0  3  0  0  0  0  0  0  0  0  0  0
  -17.8080  -18.1304   23.3796 O   0  0  0  0  0  0  0  0  0  0  0  0
  -29.8185  -17.0243   24.5689 O   0  0  0  0  0  0  0  0  0  0  0  0
  -24.9706  -28.7254   22.4164 O   0  0  0  0  0  0  0  0  0  0  0  0
  -23.0471  -32.3717   24.1364 O   0  0  0  0  0  0  0  0  0  0  0  0
  -23.4308  -20.6549   22.2491 O   0  0  0  0  0  0  0  0  0  0  0  0
  -27.9420  -28.3085   19.1165 O   0  0  0  0  0  0  0  0  0  0  0  0
  -26.2445  -35.1379   21.9811 O   0  0  0  0  0  0  0  0  0  0  0  0
  -22.1103  -12.4804   20.5058 O   0  0  0  0  0  0  0  0  0  0  0  0
  -29.0850  -22.4806   19.0664 O   0  0  0  0  0  0  0  0  0  0  0  0
  -30.5709  -29.9585   21.0420 O   0  0  0  0  0  0  0  0  0  1  0  0
  -34.3704  -24.0270   18.7877 F   0  0  0  0  0  0  0  0  0  0  0  0
  -30.2935  -22.9679   16.6282 F   0  0  0  0  0  0  0  0  0  0  0  0
  1  2  1  0  0  0  0
  1  7  2  0  0  0  0
  2  8  2  0  0  0  0
  3  6  2  0  0  0  0
  3 10  1  0  0  0  0
  4 11  2  0  0  0  0
  4 19  1  0  0  0  0
  5 12  1  0  0  0  0
  5 19  2  0  0  0  0
  6 20  1  0  0  0  0
  7 22  1  0  0  0  0
  8 24  1  0  0  0  0
  9 13  2  0  0  0  0
  9 23  1  0  0  0  0
 10 26  2  0  0  0  0
 11 27  1  0  0  0  0
 12 27  2  0  0  0  0
 13 28  1  0  0  0  0
 14 15  2  0  0  0  0
 14 29  1  0  0  0  0
 15 30  1  0  0  0  0
 16 20  2  0  0  0  0
 16 26  1  0  0  0  0
 17 25  1  0  0  0  0
 17 28  2  0  0  0  0
 18 30  2  0  0  0  0
 18 31  1  0  0  0  0
 19 32  1  0  0  0  0
 20 34  1  0  0  0  0
 21 32  1  0  0  0  0
 21 33  2  0  0  0  0
 21 35  1  0  0  0  0
 22 24  2  0  0  0  0
 22 42  1  0  0  0  0
 23 25  2  0  0  0  0
 23 43  1  0  0  0  0
 24 51  1  0  0  0  0
 25 44  1  0  0  0  0
 26 82  1  0  0  0  0
 27 97  1  0  0  0  0
 28 98  1  0  0  0  0
 29 31  2  0  0  0  0
 29 97  1  0  0  0  0
 30 99  1  0  0  0  0
 31100  1  0  0  0  0
 32 76  2  0  0  0  0
 33 77  1  0  0  0  0
 33 80  1  0  0  0  0
 34 83  1  0  0  0  0
 34 89  2  0  0  0  0
 35 81  1  0  0  0  0
 35 90  2  0  0  0  0
 36 52  1  0  0  0  0
 36 84  1  0  0  0  0
 36 91  2  0  0  0  0
 37 73  1  0  0  0  0
 37 78  1  0  0  0  0
 37 92  2  0  0  0  0
 38 59  1  0  0  0  0
 38 85  1  0  0  0  0
 38 93  2  0  0  0  0
 39 60  1  0  0  0  0
 39 86  1  0  0  0  0
 39 94  2  0  0  0  0
 40 74  1  0  0  0  0
 40 87  1  0  0  0  0
 40 95  2  0  0  0  0
 41 79  1  0  0  0  0
 41 82  1  0  0  0  0
 41 96  2  0  0  0  0
 42 45  1  0  0  0  0
 43 52  1  0  0  0  0
 44 78  1  0  0  0  0
 45 47  1  0  0  0  0
 46 48  1  0  0  0  0
 46 49  1  0  0  0  0
 47 51  1  0  0  0  0
 48 53  1  0  0  0  0
 49 79  1  0  0  0  0
 50 53  1  0  0  0  0
 50 79  1  0  0  0  0
 51 84  1  0  0  0  0
 52 78  1  0  0  0  0
 53 77  1  0  0  0  0
 54 74  1  0  0  0  0
 55 75  1  0  0  0  0
 56 75  1  0  0  0  0
 57 75  1  0  0  0  0
 58 88  1  0  0  0  0
 59 61  1  0  0  0  0
 60 62  1  0  0  0  0
 61 63  1  0  0  0  0
 62 64  1  0  0  0  0
 63 65  1  0  0  0  0
 64 65  1  0  0  0  0
 66 67  1  0  0  0  0
 66 69  1  0  0  0  0
 67 70  1  0  0  0  0
 68 71  1  0  0  0  0
 68 72  1  0  0  0  0
 69 83  1  0  0  0  0
 70 85  1  0  0  0  0
 71 86  1  0  0  0  0
 72 98  1  0  0  0  0
 73 75  1  0  0  0  0
 73 87  1  0  0  0  0
 74 88  1  0  0  0  0
 76 77  1  0  0  0  0
M  CHG  1  88   1
M  ISO  4  41 100  72 101  82 100  98 101
M  END
> <Batch ID>
0003

> <Smiles>
CNC(C)C(=O)NC(C(=O)N1Cc2cc([101O:1][101CH2:1]CCNC(=O)CCCCCCCC(=O)NCCCCNC(=O)c3cccc([100NH:0][100C:0](=O)N4CCCC(n5nc(-c6ccc(Oc7ccc(F)cc7F)cc6)c(C(N)=O)c5N)C4)c3)ccc2CC1C(=O)NC1CCCc2ccccc21)C(C)(C)C

> <Shape>
0.246

> <Color>
0.081

> <Negative vol penalty>
0.000

$$$$

  -OEChem-04052315213D

 82 89  0     1  0  0  0  0  0999 V2000
  -29.4135  -23.8088   17.6574 C   0  0  0  0  0  0  0  0  0  0  0  0
  -28.1855  -24.4196   17.8853 C   0  0  0  0  0  0  0  0  0  0  0  0
  -26.2256  -13.5610   18.9194 C   0  0  0  0  0  0  0  0  0  0  0  0
  -24.9675  -13.9982   20.9351 C   0  0  0  0  0  0  0  0  0  0  0  0
  -30.4838  -24.0641   18.5120 C   0  0  0  0  0  0  0  0  0  0  0  0
  -28.0307  -25.2950   18.9608 C   0  0  0  0  0  0  0  0  0  0  0  0
  -23.7688  -27.7341   19.2618 C   0  0  0  0  0  0  0  0  0  0  0  0
  -26.1894  -12.1938   19.1933 C   0  0  0  0  0  0  0  0  0  0  0  0
  -24.9313  -12.6310   21.2090 C   0  0  0  0  0  0  0  0  0  0  0  0
  -22.5707  -27.1167   19.6183 C   0  0  0  0  0  0  0  0  0  0  0  0
  -23.1857   -9.9298   20.1712 C   0  0  0  0  0  0  0  0  0  0  0  0
  -21.9679   -9.3836   20.5762 C   0  0  0  0  0  0  0  0  0  0  0  0
  -22.7388  -28.0779   21.8244 C   0  0  0  0  0  0  0  0  0  0  0  0
  -22.9752   -8.6805   22.6566 C   0  0  0  0  0  0  0  0  0  0  0  0
  -25.6147  -14.4633   19.7903 C   0  0  0  0  0  0  0  0  0  0  0  0
  -24.7170  -16.6190   18.7634 C   0  0  0  0  0  0  0  0  0  0  0  0
  -30.3378  -24.9335   19.6055 C   0  0  0  0  0  0  0  0  0  0  0  0
  -24.4677  -28.5204   20.1889 C   0  0  0  0  0  0  0  0  0  0  0  0
  -29.1057  -25.5841   19.8206 C   0  0  0  0  0  0  0  0  0  0  0  0
  -23.9443  -28.7063   21.4764 C   0  0  0  0  0  0  0  0  0  0  0  0
  -25.5423  -11.7288   20.3381 C   0  0  0  0  0  0  0  0  0  0  0  0
  -22.0569  -27.2863   20.9006 C   0  0  0  0  0  0  0  0  0  0  0  0
  -24.2984   -9.8513   21.0088 C   0  0  0  0  0  0  0  0  0  0  0  0
  -21.8626   -8.7589   21.8190 C   0  0  0  0  0  0  0  0  0  0  0  0
  -24.1931   -9.2266   22.2515 C   0  0  0  0  0  0  0  0  0  0  0  0
  -25.6522  -15.8757   19.5082 C   0  0  0  0  0  0  0  0  0  0  0  0
  -25.2016  -17.9039   18.7882 C   0  0  0  0  0  0  0  0  0  0  0  0
  -23.5174  -16.1866   18.1079 C   0  0  0  0  0  0  0  0  0  0  0  0
  -27.3366  -28.3673   21.5489 C   0  0  0  0  0  0  0  0  0  0  0  0
  -26.4912  -31.2593   22.7505 C   0  0  0  0  0  0  0  0  0  0  0  0
  -21.3006  -22.9221   24.7164 C   0  0  0  0  0  0  0  0  0  0  0  0
  -23.9951  -33.4182   23.6195 C   0  0  0  0  0  0  0  0  0  0  0  0
  -27.4496  -22.2052   21.5435 C   0  0  0  0  0  0  0  0  0  0  0  0
  -31.5314  -25.1802   20.4941 C   0  0  0  0  0  0  0  0  0  0  0  0
  -25.7452  -29.2013   19.7804 C   0  0  0  0  0  0  0  0  0  0  0  0
  -24.6456  -29.5571   22.5024 C   0  0  0  0  0  0  0  0  0  0  0  0
  -31.1521  -25.7664   21.8501 C   0  0  0  0  0  0  0  0  0  0  0  0
  -29.6724  -19.7074   20.3199 C   0  0  0  0  0  0  0  0  0  0  0  0
  -30.2198  -26.9536   21.6607 C   0  0  0  0  0  0  0  0  0  0  0  0
  -28.7483  -18.5476   19.9444 C   0  0  0  0  0  0  0  0  0  0  0  0
  -29.1837  -20.4364   21.5696 C   0  0  0  0  0  0  0  0  0  0  0  0
  -26.8604  -19.7390   21.1340 C   0  0  0  0  0  0  0  0  0  0  0  0
  -28.9054  -26.5162   21.0019 C   0  0  1  0  0  0  0  0  0  0  0  0
  -26.6357  -29.5615   20.9655 C   0  0  1  0  0  0  0  0  0  0  0  0
  -27.2814  -19.0082   19.8476 C   0  0  2  0  0  0  0  0  0  0  0  0
  -23.6133  -35.6917   24.6110 C   0  0  0  0  0  0  0  0  0  0  0  0
  -27.1347  -30.1562   25.5216 C   0  0  0  0  0  0  0  0  0  0  0  0
  -25.8624  -32.0754   26.5046 C   0  0  0  0  0  0  0  0  0  0  0  0
  -27.8995  -32.5049   25.1303 C   0  0  0  0  0  0  0  0  0  0  0  0
  -22.6383  -34.3847   21.1734 C   0  0  0  0  0  0  0  0  0  0  0  0
  -22.6258  -22.7823   25.4474 C   0  0  0  0  0  0  0  0  0  0  0  0
  -23.7355  -23.6688   24.8841 C   0  0  0  0  0  0  0  0  0  0  0  0
  -24.0897  -23.3106   23.4371 C   0  0  0  0  0  0  0  0  0  0  0  0
  -25.1861  -24.2311   22.8919 C   0  0  0  0  0  0  0  0  0  0  0  0
  -19.8102  -25.1100   22.7069 C   0  0  0  0  0  0  0  0  0  0  0  0
  -25.6043  -23.8632   21.4717 C   0  0  0  0  0  0  0  0  0  0  0  0
  -19.5906  -24.6313   24.1357 C   0  0  0  0  0  0  0  0  0  0  0  0
  -20.7297  -26.3223   22.6226 C   0  0  0  0  0  0  0  0  0  1  0  0
  -25.7773  -31.7334   23.9933 C   0  0  1  0  0  0  0  0  0  0  0  0
  -23.7933  -34.8944   23.3285 C   0  0  2  0  0  0  0  0  0  0  0  0
  -26.6560  -31.5998   25.2690 C   0  0  0  0  0  0  0  0  0  0  0  0
  -26.6552  -16.6260   19.9720 N   0  0  0  0  0  0  0  0  0  0  0  0
  -26.3530  -17.8540   19.5176 N   0  0  0  0  0  0  0  0  0  0  0  0
  -25.8946  -30.1968   22.0570 N   0  0  0  0  0  0  0  0  0  0  0  0
  -27.7866  -20.8479   21.4124 N   0  0  0  0  0  0  0  0  0  0  0  0
  -24.7509  -19.0603   18.2570 N   0  0  0  0  0  0  0  0  0  0  0  0
  -23.1667  -14.8317   18.1820 N   0  0  0  0  0  0  0  0  0  0  0  0
  -28.1397  -27.6916   20.6500 N   0  0  0  0  0  0  0  0  0  0  0  0
  -20.8139  -24.2247   24.7702 N   0  0  0  0  0  0  0  0  0  0  0  0
  -25.3320  -33.0943   23.7142 N   0  0  0  0  0  0  0  0  0  0  0  0
  -26.1046  -22.5101   21.3733 N   0  0  0  0  0  0  0  0  0  0  0  0
  -22.5864  -35.0943   22.4775 N   0  3  0  0  0  0  0  0  0  0  0  0
  -22.7870  -16.9754   17.4614 O   0  0  0  0  0  0  0  0  0  0  0  0
  -27.1629  -28.0809   22.7277 O   0  0  0  0  0  0  0  0  0  0  0  0
  -27.5360  -31.8160   22.4038 O   0  0  0  0  0  0  0  0  0  0  0  0
  -20.7515  -21.9916   24.1328 O   0  0  0  0  0  0  0  0  0  0  0  0
  -23.0601  -32.6318   23.7535 O   0  0  0  0  0  0  0  0  0  0  0  0
  -28.2861  -23.0811   21.7883 O   0  0  0  0  0  0  0  0  0  0  0  0
  -25.5066  -10.3947   20.6056 O   0  0  0  0  0  0  0  0  0  0  0  0
  -20.8880  -26.6843   21.2514 O   0  0  0  0  0  0  0  0  0  1  0  0
  -20.6926   -8.2358   22.2085 F   0  0  0  0  0  0  0  0  0  0  0  0
  -25.2582   -9.1492   23.0611 F   0  0  0  0  0  0  0  0  0  0  0  0
  1  2  1  0  0  0  0
  1  5  2  0  0  0  0
  2  6  2  0  0  0  0
  3  8  2  0  0  0  0
  3 15  1  0  0  0  0
  4  9  1  0  0  0  0
  4 15  2  0  0  0  0
  5 17  1  0  0  0  0
  6 19  1  0  0  0  0
  7 10  2  0  0  0  0
  7 18  1  0  0  0  0
  8 21  1  0  0  0  0
  9 21  2  0  0  0  0
 10 22  1  0  0  0  0
 11 12  2  0  0  0  0
 11 23  1  0  0  0  0
 12 24  1  0  0  0  0
 13 20  1  0  0  0  0
 13 22  2  0  0  0  0
 14 24  2  0  0  0  0
 14 25  1  0  0  0  0
 15 26  1  0  0  0  0
 16 26  1  0  0  0  0
 16 27  2  0  0  0  0
 16 28  1  0  0  0  0
 17 19  2  0  0  0  0
 17 34  1  0  0  0  0
 18 20  2  0  0  0  0
 18 35  1  0  0  0  0
 19 43  1  0  0  0  0
 20 36  1  0  0  0  0
 21 79  1  0  0  0  0
 22 80  1  0  0  0  0
 23 25  2  0  0  0  0
 23 79  1  0  0  0  0
 24 81  1  0  0  0  0
 25 82  1  0  0  0  0
 26 62  2  0  0  0  0
 27 63  1  0  0  0  0
 27 66  1  0  0  0  0
 28 67  1  0  0  0  0
 28 73  2  0  0  0  0
 29 44  1  0  0  0  0
 29 68  1  0  0  0  0
 29 74  2  0  0  0  0
 30 59  1  0  0  0  0
 30 64  1  0  0  0  0
 30 75  2  0  0  0  0
 31 51  1  0  0  0  0
 31 69  1  0  0  0  0
 31 76  2  0  0  0  0
 32 60  1  0  0  0  0
 32 70  1  0  0  0  0
 32 77  2  0  0  0  0
 33 65  1  0  0  0  0
 33 71  1  0  0  0  0
 33 78  2  0  0  0  0
 34 37  1  0  0  0  0
 35 44  1  0  0  0  0
 36 64  1  0  0  0  0
 37 39  1  0  0  0  0
 38 40  1  0  0  0  0
 38 41  1  0  0  0  0
 39 43  1  0  0  0  0
 40 45  1  0  0  0  0
 41 65  1  0  0  0  0
 42 45  1  0  0  0  0
 42 65  1  0  0  0  0
 43 68  1  0  0  0  0
 44 64  1  0  0  0  0
 45 63  1  0  0  0  0
 46 60  1  0  0  0  0
 47 61  1  0  0  0  0
 48 61  1  0  0  0  0
 49 61  1  0  0  0  0
 50 72  1  0  0  0  0
 51 52  1  0  0  0  0
 52 53  1  0  0  0  0
 53 54  1  0  0  0  0
 54 56  1  0  0  0  0
 55 57  1  0  0  0  0
 55 58  1  0  0  0  0
 56 71  1  0  0  0  0
 57 69  1  0  0  0  0
 58 80  1  0  0  0  0
 59 61  1  0  0  0  0
 59 70  1  0  0  0  0
 60 72  1  0  0  0  0
 62 63  1  0  0  0  0
M  CHG  1  72   1
M  ISO  4  33 100  58 101  71 100  80 101
M  END
> <Batch ID>
0003

> <Smiles>
CNC(C)C(=O)NC(C(=O)N1Cc2cc([101O:1][101CH2:1]CCNC(=O)CCCCC[100NH:0][100C:0](=O)N3CCCC(n4nc(-c5ccc(Oc6ccc(F)cc6F)cc5)c(C(N)=O)c4N)C3)ccc2CC1C(=O)NC1CCCc2ccccc21)C(C)(C)C

> <Shape>
0.292

> <Color>
0.076

> <Negative vol penalty>
0.000

$$$$

  -OEChem-04052315213D

 88 96  0     1  0  0  0  0  0999 V2000
  -26.9191  -28.4257   18.3359 C   0  0  0  0  0  0  0  0  0  0  0  0
  -26.5614  -27.4154   19.2229 C   0  0  0  0  0  0  0  0  0  0  0  0
  -25.2966  -10.6786   19.6783 C   0  0  0  0  0  0  0  0  0  0  0  0
  -30.4814  -22.1943   21.2851 C   0  0  0  0  0  0  0  0  0  0  0  0
  -28.3720  -21.9722   20.1283 C   0  0  0  0  0  0  0  0  0  0  0  0
  -24.2422  -10.8711   20.5709 C   0  0  0  0  0  0  0  0  0  0  0  0
  -26.5534  -29.7451   18.5996 C   0  0  0  0  0  0  0  0  0  0  0  0
  -25.8385  -27.7240   20.3747 C   0  0  0  0  0  0  0  0  0  0  0  0
  -22.0242  -24.4963   21.1977 C   0  0  0  0  0  0  0  0  0  0  0  0
  -26.3937  -11.5397   19.6988 C   0  0  0  0  0  0  0  0  0  0  0  0
  -30.5815  -23.5154   20.8490 C   0  0  0  0  0  0  0  0  0  0  0  0
  -28.4721  -23.2934   19.6922 C   0  0  0  0  0  0  0  0  0  0  0  0
  -22.3474  -23.2542   21.7421 C   0  0  0  0  0  0  0  0  0  0  0  0
  -29.2879  -26.5227   21.6948 C   0  0  0  0  0  0  0  0  0  0  0  0
  -29.6737  -27.4857   22.6272 C   0  0  0  0  0  0  0  0  0  0  0  0
  -21.6651  -24.0375   23.9192 C   0  0  0  0  0  0  0  0  0  0  0  0
  -31.6015  -28.0235   21.2740 C   0  0  0  0  0  0  0  0  0  0  0  0
  -29.3766  -21.4227   20.9248 C   0  0  0  0  0  0  0  0  0  0  0  0
  -24.2848  -11.9247   21.4839 C   0  0  0  0  0  0  0  0  0  0  0  0
  -28.6707  -19.5970   22.5607 C   0  0  0  0  0  0  0  0  0  0  0  0
  -25.8173  -30.0687   19.7504 C   0  0  0  0  0  0  0  0  0  0  0  0
  -21.5284  -25.5236   22.0133 C   0  0  0  0  0  0  0  0  0  0  0  0
  -25.4637  -29.0491   20.6547 C   0  0  0  0  0  0  0  0  0  0  0  0
  -21.3339  -25.2910   23.3823 C   0  0  0  0  0  0  0  0  0  0  0  0
  -25.3820  -12.7859   21.5044 C   0  0  0  0  0  0  0  0  0  0  0  0
  -26.4364  -12.5934   20.6118 C   0  0  0  0  0  0  0  0  0  0  0  0
  -29.5769  -24.0650   20.0525 C   0  0  0  0  0  0  0  0  0  0  0  0
  -22.1706  -23.0255   23.1035 C   0  0  0  0  0  0  0  0  0  0  0  0
  -30.0589  -26.3100   20.5520 C   0  0  0  0  0  0  0  0  0  0  0  0
  -30.8305  -28.2362   22.4168 C   0  0  0  0  0  0  0  0  0  0  0  0
  -31.2157  -27.0605   20.3416 C   0  0  0  0  0  0  0  0  0  0  0  0
  -29.2729  -20.0578   21.3746 C   0  0  0  0  0  0  0  0  0  0  0  0
  -28.8345  -18.2339   22.5218 C   0  0  0  0  0  0  0  0  0  0  0  0
  -23.1468  -12.1026   22.4221 C   0  0  0  0  0  0  0  0  0  0  0  0
  -28.0212  -20.3352   23.6042 C   0  0  0  0  0  0  0  0  0  0  0  0
  -22.5269  -28.4340   22.8111 C   0  0  0  0  0  0  0  0  0  0  0  0
  -19.6368  -28.6004   24.2746 C   0  0  0  0  0  0  0  0  0  0  0  0
  -17.0041  -26.9490   25.6847 C   0  0  0  0  0  0  0  0  0  0  0  0
  -28.6816  -13.3855   19.7882 C   0  0  0  0  0  0  0  0  0  0  0  0
  -25.4856  -31.5156   20.0169 C   0  0  0  0  0  0  0  0  0  0  0  0
  -21.1593  -26.8493   21.4060 C   0  0  0  0  0  0  0  0  0  0  0  0
  -20.7857  -26.3542   24.2974 C   0  0  0  0  0  0  0  0  0  0  0  0
  -24.3967  -31.7070   21.0695 C   0  0  0  0  0  0  0  0  0  0  0  0
  -31.6400  -15.3393   19.4603 C   0  0  0  0  0  0  0  0  0  0  0  0
  -24.6681  -30.8257   22.2846 C   0  0  0  0  0  0  0  0  0  0  0  0
  -31.2383  -16.7031   20.0267 C   0  0  0  0  0  0  0  0  0  0  0  0
  -30.4937  -14.6847   18.6913 C   0  0  0  0  0  0  0  0  0  0  0  0
  -28.8277  -15.9449   19.9973 C   0  0  0  0  0  0  0  0  0  0  0  0
  -24.6583  -29.3407   21.9023 C   0  0  1  0  0  0  0  0  0  0  0  0
  -21.1461  -27.9884   22.4207 C   0  0  1  0  0  0  0  0  0  0  0  0
  -29.9292  -16.6142   20.8353 C   0  0  2  0  0  0  0  0  0  0  0  0
  -25.4263  -13.9166   22.4847 C   0  0  0  0  0  0  0  0  0  0  0  0
  -14.8081  -27.3561   26.8289 C   0  0  0  0  0  0  0  0  0  0  0  0
  -21.1145  -29.3809   26.8275 C   0  0  0  0  0  0  0  0  0  0  0  0
  -19.0332  -28.8469   28.1125 C   0  0  0  0  0  0  0  0  0  0  0  0
  -19.0108  -30.6658   26.4055 C   0  0  0  0  0  0  0  0  0  0  0  0
  -15.5067  -25.5091   23.5768 C   0  0  0  0  0  0  0  0  0  0  0  0
  -21.5771  -16.9746   23.6626 C   0  0  0  0  0  0  0  0  0  0  0  0
  -21.4389  -15.7112   22.8103 C   0  0  0  0  0  0  0  0  0  0  0  0
  -21.8592  -18.2015   22.7925 C   0  0  0  0  0  0  0  0  0  0  0  0
  -21.1689  -14.4500   23.6342 C   0  0  0  0  0  0  0  0  0  0  0  0
  -22.0302  -19.4585   23.6429 C   0  0  0  0  0  0  0  0  0  0  0  0
  -20.9533  -13.2049   22.7822 C   0  0  0  0  0  0  0  0  0  0  0  0
  -22.3536  -20.6755   22.7878 C   0  0  0  0  0  0  0  0  0  1  0  0
  -19.1124  -28.2559   25.6477 C   0  0  1  0  0  0  0  0  0  0  0  0
  -15.5048  -27.1011   25.5014 C   0  0  2  0  0  0  0  0  0  0  0  0
  -19.5799  -29.2677   26.7317 C   0  0  0  0  0  0  0  0  0  0  0  0
  -29.7815  -19.0677   20.6362 N   0  0  0  0  0  0  0  0  0  0  0  0
  -29.4993  -17.9713   21.3603 N   0  0  0  0  0  0  0  0  0  0  0  0
  -20.4457  -27.6357   23.6573 N   0  0  0  0  0  0  0  0  0  0  0  0
  -29.2882  -14.6310   19.5213 N   0  0  0  0  0  0  0  0  0  0  0  0
  -28.4734  -17.2462   23.3684 N   0  0  0  0  0  0  0  0  0  0  0  0
  -27.9403  -21.7293   23.4857 N   0  0  0  0  0  0  0  0  0  0  0  0
  -27.5610  -13.4554   20.6153 N   0  0  0  0  0  0  0  0  0  0  0  0
  -22.1108  -12.9169   21.9799 N   0  0  0  0  0  0  0  0  0  0  0  0
  -23.2994  -28.8669   21.7502 N   0  0  0  0  0  0  0  0  0  0  0  0
  -17.6635  -28.1482   25.5160 N   0  0  0  0  0  0  0  0  0  0  0  0
  -14.9288  -25.8662   24.8980 N   0  3  0  0  0  0  0  0  0  0  0  0
  -23.1834  -11.5544   23.5206 O   0  0  0  0  0  0  0  0  0  0  0  0
  -27.5417  -19.7765   24.6199 O   0  0  0  0  0  0  0  0  0  0  0  0
  -22.8659  -28.3898   23.9878 O   0  0  0  0  0  0  0  0  0  0  0  0
  -19.3340  -29.6824   23.7655 O   0  0  0  0  0  0  0  0  0  0  0  0
  -17.5366  -25.8747   25.9545 O   0  0  0  0  0  0  0  0  0  0  0  0
  -29.1395  -12.3313   19.3400 O   0  0  0  0  0  0  0  0  0  0  0  0
  -29.6741  -25.3541   19.6269 O   0  0  0  0  0  0  0  0  0  0  0  0
  -22.4859  -21.8142   23.6376 O   0  0  0  0  0  0  0  0  0  1  0  0
  -31.2000  -29.1620   23.3115 F   0  0  0  0  0  0  0  0  0  0  0  0
  -31.9599  -26.8615   19.2451 F   0  0  0  0  0  0  0  0  0  0  0  0
  1  2  1  0  0  0  0
  1  7  2  0  0  0  0
  2  8  2  0  0  0  0
  3  6  2  0  0  0  0
  3 10  1  0  0  0  0
  4 11  2  0  0  0  0
  4 18  1  0  0  0  0
  5 12  1  0  0  0  0
  5 18  2  0  0  0  0
  6 19  1  0  0  0  0
  7 21  1  0  0  0  0
  8 23  1  0  0  0  0
  9 13  2  0  0  0  0
  9 22  1  0  0  0  0
 10 26  2  0  0  0  0
 11 27  1  0  0  0  0
 12 27  2  0  0  0  0
 13 28  1  0  0  0  0
 14 15  2  0  0  0  0
 14 29  1  0  0  0  0
 15 30  1  0  0  0  0
 16 24  1  0  0  0  0
 16 28  2  0  0  0  0
 17 30  2  0  0  0  0
 17 31  1  0  0  0  0
 18 32  1  0  0  0  0
 19 25  2  0  0  0  0
 19 34  1  0  0  0  0
 20 32  1  0  0  0  0
 20 33  2  0  0  0  0
 20 35  1  0  0  0  0
 21 23  2  0  0  0  0
 21 40  1  0  0  0  0
 22 24  2  0  0  0  0
 22 41  1  0  0  0  0
 23 49  1  0  0  0  0
 24 42  1  0  0  0  0
 25 26  1  0  0  0  0
 25 52  1  0  0  0  0
 26 74  1  0  0  0  0
 27 85  1  0  0  0  0
 28 86  1  0  0  0  0
 29 31  2  0  0  0  0
 29 85  1  0  0  0  0
 30 87  1  0  0  0  0
 31 88  1  0  0  0  0
 32 68  2  0  0  0  0
 33 69  1  0  0  0  0
 33 72  1  0  0  0  0
 34 75  1  0  0  0  0
 34 79  2  0  0  0  0
 35 73  1  0  0  0  0
 35 80  2  0  0  0  0
 36 50  1  0  0  0  0
 36 76  1  0  0  0  0
 36 81  2  0  0  0  0
 37 65  1  0  0  0  0
 37 70  1  0  0  0  0
 37 82  2  0  0  0  0
 38 66  1  0  0  0  0
 38 77  1  0  0  0  0
 38 83  2  0  0  0  0
 39 71  1  0  0  0  0
 39 74  1  0  0  0  0
 39 84  2  0  0  0  0
 40 43  1  0  0  0  0
 41 50  1  0  0  0  0
 42 70  1  0  0  0  0
 43 45  1  0  0  0  0
 44 46  1  0  0  0  0
 44 47  1  0  0  0  0
 45 49  1  0  0  0  0
 46 51  1  0  0  0  0
 47 71  1  0  0  0  0
 48 51  1  0  0  0  0
 48 71  1  0  0  0  0
 49 76  1  0  0  0  0
 50 70  1  0  0  0  0
 51 69  1  0  0  0  0
 53 66  1  0  0  0  0
 54 67  1  0  0  0  0
 55 67  1  0  0  0  0
 56 67  1  0  0  0  0
 57 78  1  0  0  0  0
 58 59  1  0  0  0  0
 58 60  1  0  0  0  0
 59 61  1  0  0  0  0
 60 62  1  0  0  0  0
 61 63  1  0  0  0  0
 62 64  1  0  0  0  0
 63 75  1  0  0  0  0
 64 86  1  0  0  0  0
 65 67  1  0  0  0  0
 65 77  1  0  0  0  0
 66 78  1  0  0  0  0
 68 69  1  0  0  0  0
M  CHG  1  78   1
M  ISO  4  39 100  64 101  74 100  86 101
M  END
> <Batch ID>
0003

> <Smiles>
CNC(C)C(=O)NC(C(=O)N1Cc2cc([101O:1][101CH2:1]CCCCCCNC(=O)c3cccc([100NH:0][100C:0](=O)N4CCCC(n5nc(-c6ccc(Oc7ccc(F)cc7F)cc6)c(C(N)=O)c5N)C4)c3C)ccc2CC1C(=O)NC1CCCc2ccccc21)C(C)(C)C

> <Shape>
0.256

> <Color>
0.068

> <Negative vol penalty>
0.000

$$$$

  -OEChem-04052315213D

 87 94  0     1  0  0  0  0  0999 V2000
  -21.7550  -11.5316   19.4270 C   0  0  0  0  0  0  0  0  0  0  0  0
  -21.5142  -12.8679   19.7299 C   0  0  0  0  0  0  0  0  0  0  0  0
  -29.1809  -26.0208   19.1871 C   0  0  0  0  0  0  0  0  0  0  0  0
  -28.1579  -24.8095   21.0100 C   0  0  0  0  0  0  0  0  0  0  0  0
  -23.0010  -10.9694   19.7011 C   0  0  0  0  0  0  0  0  0  0  0  0
  -22.5191  -13.6425   20.3083 C   0  0  0  0  0  0  0  0  0  0  0  0
  -23.5798  -19.5996   19.3628 C   0  0  0  0  0  0  0  0  0  0  0  0
  -30.3679  -25.3154   19.3845 C   0  0  0  0  0  0  0  0  0  0  0  0
  -29.3449  -24.1040   21.2074 C   0  0  0  0  0  0  0  0  0  0  0  0
  -23.2367  -20.7400   20.0878 C   0  0  0  0  0  0  0  0  0  0  0  0
  -32.3506  -24.6419   22.6590 C   0  0  0  0  0  0  0  0  0  0  0  0
  -32.8045  -24.4909   23.9693 C   0  0  0  0  0  0  0  0  0  0  0  0
  -25.4025  -20.7092   21.1496 C   0  0  0  0  0  0  0  0  0  0  0  0
  -32.6729  -22.0896   23.7381 C   0  0  0  0  0  0  0  0  0  0  0  0
  -28.0759  -25.7679   19.9999 C   0  0  0  0  0  0  0  0  0  0  0  0
  -25.7773  -26.1392   18.9577 C   0  0  0  0  0  0  0  0  0  0  0  0
  -24.0248  -11.7401   20.2743 C   0  0  0  0  0  0  0  0  0  0  0  0
  -24.8348  -18.9981   19.5342 C   0  0  0  0  0  0  0  0  0  0  0  0
  -23.7796  -13.0898   20.5917 C   0  0  0  0  0  0  0  0  0  0  0  0
  -25.7600  -19.5627   20.4238 C   0  0  0  0  0  0  0  0  0  0  0  0
  -30.4499  -24.3570   20.3946 C   0  0  0  0  0  0  0  0  0  0  0  0
  -24.1471  -21.2933   20.9834 C   0  0  0  0  0  0  0  0  0  0  0  0
  -32.0578  -23.5167   21.8883 C   0  0  0  0  0  0  0  0  0  0  0  0
  -32.9656  -23.2147   24.5088 C   0  0  0  0  0  0  0  0  0  0  0  0
  -32.2189  -22.2406   22.4278 C   0  0  0  0  0  0  0  0  0  0  0  0
  -26.8496  -26.4966   19.7968 C   0  0  0  0  0  0  0  0  0  0  0  0
  -24.8631  -27.1516   19.1186 C   0  0  0  0  0  0  0  0  0  0  0  0
  -25.6213  -24.9942   18.1089 C   0  0  0  0  0  0  0  0  0  0  0  0
  -25.8414  -16.1556   20.5396 C   0  0  0  0  0  0  0  0  0  0  0  0
  -28.7408  -17.2981   19.6396 C   0  0  0  0  0  0  0  0  0  0  0  0
  -22.1304  -22.6450   24.1104 C   0  0  0  0  0  0  0  0  0  0  0  0
  -30.7265  -20.0066   19.0329 C   0  0  0  0  0  0  0  0  0  0  0  0
  -23.8129  -31.0296   23.5580 C   0  0  0  0  0  0  0  0  0  0  0  0
  -25.3402  -11.0759   20.5959 C   0  0  0  0  0  0  0  0  0  0  0  0
  -25.1995  -17.7837   18.7250 C   0  0  0  0  0  0  0  0  0  0  0  0
  -27.1279  -18.9668   20.6292 C   0  0  0  0  0  0  0  0  0  0  0  0
  -26.4720  -12.0643   20.8648 C   0  0  0  0  0  0  0  0  0  0  0  0
  -24.5820  -31.8105   20.1705 C   0  0  0  0  0  0  0  0  0  0  0  0
  -26.0051  -13.1658   21.8112 C   0  0  0  0  0  0  0  0  0  0  0  0
  -25.1536  -30.5049   19.6149 C   0  0  0  0  0  0  0  0  0  0  0  0
  -24.9926  -32.0327   21.6245 C   0  0  0  0  0  0  0  0  0  0  0  0
  -25.2544  -29.6077   21.9779 C   0  0  0  0  0  0  0  0  0  0  0  0
  -24.8523  -13.9691   21.1968 C   0  0  1  0  0  0  0  0  0  0  0  0
  -26.3132  -16.9558   19.3587 C   0  0  1  0  0  0  0  0  0  0  0  0
  -24.8214  -29.3123   20.5317 C   0  0  2  0  0  0  0  0  0  0  0  0
  -17.1915  -19.9158   28.3891 C   0  0  0  0  0  0  0  0  0  0  0  0
  -33.0603  -20.6243   18.3480 C   0  0  0  0  0  0  0  0  0  0  0  0
  -29.7421  -16.6078   22.4379 C   0  0  0  0  0  0  0  0  0  0  0  0
  -31.7244  -18.0776   22.0156 C   0  0  0  0  0  0  0  0  0  0  0  0
  -31.3416  -16.0639   20.5940 C   0  0  0  0  0  0  0  0  0  0  0  0
  -29.7692  -21.4003   16.6039 C   0  0  0  0  0  0  0  0  0  0  0  0
  -23.4678  -23.3428   23.8855 C   0  0  0  0  0  0  0  0  0  0  0  0
  -18.5615  -20.5010   28.0854 C   0  0  0  0  0  0  0  0  0  0  0  0
  -18.5406  -21.3428   26.8098 C   0  0  0  0  0  0  0  0  0  0  0  0
  -20.9709  -28.2978   24.4217 C   0  0  0  0  0  0  0  0  0  0  0  0
  -21.3878  -27.1398   25.3320 C   0  0  0  0  0  0  0  0  0  0  0  0
  -19.9269  -21.9019   26.4894 C   0  0  0  0  0  0  0  0  0  0  0  0
  -21.2137  -29.6505   25.0978 C   0  0  0  0  0  0  0  0  0  0  0  0
  -21.1060  -25.7866   24.6721 C   0  0  0  0  0  0  0  0  0  0  0  0
  -22.6816  -29.8782   25.4432 C   0  0  0  0  0  0  0  0  0  0  0  0
  -19.8985  -22.7724   25.2388 C   0  0  0  0  0  0  0  0  0  0  0  0
  -21.5157  -24.6056   25.5470 C   0  0  0  0  0  0  0  0  0  0  0  0
  -24.4087  -22.5564   22.9815 C   0  0  0  0  0  0  0  0  0  1  0  0
  -29.8399  -18.0791   20.3186 C   0  0  1  0  0  0  0  0  0  0  0  0
  -31.6439  -20.3430   17.8711 C   0  0  2  0  0  0  0  0  0  0  0  0
  -30.6356  -17.2174   21.3393 C   0  0  0  0  0  0  0  0  0  0  0  0
  -26.6378  -27.6465   20.4427 N   0  0  0  0  0  0  0  0  0  0  0  0
  -25.4219  -28.0203   20.0092 N   0  0  0  0  0  0  0  0  0  0  0  0
  -27.4351  -17.7762   19.8195 N   0  0  0  0  0  0  0  0  0  0  0  0
  -24.6483  -30.8660   22.4407 N   0  0  0  0  0  0  0  0  0  0  0  0
  -23.6440  -27.3746   18.5835 N   0  0  0  0  0  0  0  0  0  0  0  0
  -26.6570  -24.0510   18.0623 N   0  0  0  0  0  0  0  0  0  0  0  0
  -25.3556  -14.9038   20.2132 N   0  0  0  0  0  0  0  0  0  0  0  0
  -30.6565  -18.6470   19.2513 N   0  0  0  0  0  0  0  0  0  0  0  0
  -23.5312  -29.8720   24.2731 N   0  0  0  0  0  0  0  0  0  0  0  0
  -21.2170  -23.3139   24.9328 N   0  0  0  0  0  0  0  0  0  0  0  0
  -31.1439  -21.5462   17.1477 N   0  3  0  0  0  0  0  0  0  0  0  0
  -24.6011  -24.8213   17.3998 O   0  0  0  0  0  0  0  0  0  0  0  0
  -25.9141  -16.6375   21.6640 O   0  0  0  0  0  0  0  0  0  0  0  0
  -29.0308  -16.3048   18.9682 O   0  0  0  0  0  0  0  0  0  0  0  0
  -21.8957  -21.5543   23.5835 O   0  0  0  0  0  0  0  0  0  0  0  0
  -30.1343  -20.8644   19.6840 O   0  0  0  0  0  0  0  0  0  0  0  0
  -23.3480  -32.1252   23.8904 O   0  0  0  0  0  0  0  0  0  0  0  0
  -31.6080  -23.6683   20.5874 O   0  0  0  0  0  0  0  0  0  0  0  0
  -23.8145  -22.4061   21.6928 O   0  0  0  0  0  0  0  0  0  1  0  0
  -33.4030  -23.0698   25.7666 F   0  0  0  0  0  0  0  0  0  0  0  0
  -31.9403  -21.1559   21.6919 F   0  0  0  0  0  0  0  0  0  0  0  0
  1  2  1  0  0  0  0
  1  5  2  0  0  0  0
  2  6  2  0  0  0  0
  3  8  2  0  0  0  0
  3 15  1  0  0  0  0
  4  9  1  0  0  0  0
  4 15  2  0  0  0  0
  5 17  1  0  0  0  0
  6 19  1  0  0  0  0
  7 10  2  0  0  0  0
  7 18  1  0  0  0  0
  8 21  1  0  0  0  0
  9 21  2  0  0  0  0
 10 22  1  0  0  0  0
 11 12  2  0  0  0  0
 11 23  1  0  0  0  0
 12 24  1  0  0  0  0
 13 20  1  0  0  0  0
 13 22  2  0  0  0  0
 14 24  2  0  0  0  0
 14 25  1  0  0  0  0
 15 26  1  0  0  0  0
 16 26  1  0  0  0  0
 16 27  2  0  0  0  0
 16 28  1  0  0  0  0
 17 19  2  0  0  0  0
 17 34  1  0  0  0  0
 18 20  2  0  0  0  0
 18 35  1  0  0  0  0
 19 43  1  0  0  0  0
 20 36  1  0  0  0  0
 21 84  1  0  0  0  0
 22 85  1  0  0  0  0
 23 25  2  0  0  0  0
 23 84  1  0  0  0  0
 24 86  1  0  0  0  0
 25 87  1  0  0  0  0
 26 67  2  0  0  0  0
 27 68  1  0  0  0  0
 27 71  1  0  0  0  0
 28 72  1  0  0  0  0
 28 78  2  0  0  0  0
 29 44  1  0  0  0  0
 29 73  1  0  0  0  0
 29 79  2  0  0  0  0
 30 64  1  0  0  0  0
 30 69  1  0  0  0  0
 30 80  2  0  0  0  0
 31 52  1  0  0  0  0
 31 76  1  0  0  0  0
 31 81  2  0  0  0  0
 32 65  1  0  0  0  0
 32 74  1  0  0  0  0
 32 82  2  0  0  0  0
 33 70  1  0  0  0  0
 33 75  1  0  0  0  0
 33 83  2  0  0  0  0
 34 37  1  0  0  0  0
 35 44  1  0  0  0  0
 36 69  1  0  0  0  0
 37 39  1  0  0  0  0
 38 40  1  0  0  0  0
 38 41  1  0  0  0  0
 39 43  1  0  0  0  0
 40 45  1  0  0  0  0
 41 70  1  0  0  0  0
 42 45  1  0  0  0  0
 42 70  1  0  0  0  0
 43 73  1  0  0  0  0
 44 69  1  0  0  0  0
 45 68  1  0  0  0  0
 46 53  1  0  0  0  0
 47 65  1  0  0  0  0
 48 66  1  0  0  0  0
 49 66  1  0  0  0  0
 50 66  1  0  0  0  0
 51 77  1  0  0  0  0
 52 63  1  0  0  0  0
 53 54  1  0  0  0  0
 54 57  1  0  0  0  0
 55 56  1  0  0  0  0
 55 58  1  0  0  0  0
 56 59  1  0  0  0  0
 57 61  1  0  0  0  0
 58 60  1  0  0  0  0
 59 62  1  0  0  0  0
 60 75  1  0  0  0  0
 61 76  1  0  0  0  0
 62 76  1  0  0  0  0
 63 85  1  0  0  0  0
 64 66  1  0  0  0  0
 64 74  1  0  0  0  0
 65 77  1  0  0  0  0
 67 68  1  0  0  0  0
M  CHG  1  77   1
M  ISO  4  33 100  63 101  75 100  85 101
M  END
> <Batch ID>
0003

> <Smiles>
CCCCCN(CCCCCC[100NH:0][100C:0](=O)N1CCCC(n2nc(-c3ccc(Oc4ccc(F)cc4F)cc3)c(C(N)=O)c2N)C1)C(=O)C[101CH2:1][101O:1]c1ccc2c(c1)CN(C(=O)C(NC(=O)C(C)NC)C(C)(C)C)C(C(=O)NC1CCCc3ccccc31)C2

> <Shape>
0.198

> <Color>
0.080

> <Negative vol penalty>
0.000

$$$$

  -OEChem-04052315213D

 83 90  0     1  0  0  0  0  0999 V2000
  -30.7867  -23.7709   23.4529 C   0  0  0  0  0  0  0  0  0  0  0  0
  -29.4060  -23.9006   23.3416 C   0  0  0  0  0  0  0  0  0  0  0  0
  -30.0708  -24.8808   19.2518 C   0  0  0  0  0  0  0  0  0  0  0  0
  -29.5125  -26.6592   17.7147 C   0  0  0  0  0  0  0  0  0  0  0  0
  -31.4633  -22.8367   22.6697 C   0  0  0  0  0  0  0  0  0  0  0  0
  -28.7013  -23.0968   22.4464 C   0  0  0  0  0  0  0  0  0  0  0  0
  -23.0566  -20.8385   23.1836 C   0  0  0  0  0  0  0  0  0  0  0  0
  -30.6568  -24.1634   18.2090 C   0  0  0  0  0  0  0  0  0  0  0  0
  -30.0985  -25.9418   16.6718 C   0  0  0  0  0  0  0  0  0  0  0  0
  -21.8107  -21.2572   22.7185 C   0  0  0  0  0  0  0  0  0  0  0  0
  -31.9812  -21.7039   15.8808 C   0  0  0  0  0  0  0  0  0  0  0  0
  -31.6910  -20.3430   15.7845 C   0  0  0  0  0  0  0  0  0  0  0  0
  -21.9893  -19.7163   20.8711 C   0  0  0  0  0  0  0  0  0  0  0  0
  -29.3439  -20.8609   15.5391 C   0  0  0  0  0  0  0  0  0  0  0  0
  -29.4986  -26.1287   19.0046 C   0  0  0  0  0  0  0  0  0  0  0  0
  -29.5197  -27.8014   20.9307 C   0  0  0  0  0  0  0  0  0  0  0  0
  -30.7652  -22.0142   21.7714 C   0  0  0  0  0  0  0  0  0  0  0  0
  -23.7843  -19.8618   22.4887 C   0  0  0  0  0  0  0  0  0  0  0  0
  -29.3693  -22.1515   21.6495 C   0  0  0  0  0  0  0  0  0  0  0  0
  -23.2430  -19.2851   21.3309 C   0  0  0  0  0  0  0  0  0  0  0  0
  -30.6707  -24.6938   16.9190 C   0  0  0  0  0  0  0  0  0  0  0  0
  -21.2782  -20.6981   21.5605 C   0  0  0  0  0  0  0  0  0  0  0  0
  -30.9528  -22.6433   15.8063 C   0  0  0  0  0  0  0  0  0  0  0  0
  -30.3724  -19.9215   15.6137 C   0  0  0  0  0  0  0  0  0  0  0  0
  -29.6341  -22.2218   15.6354 C   0  0  0  0  0  0  0  0  0  0  0  0
  -28.8927  -26.8701   20.0814 C   0  0  0  0  0  0  0  0  0  0  0  0
  -28.5222  -28.2206   21.7766 C   0  0  0  0  0  0  0  0  0  0  0  0
  -30.8821  -28.2476   20.9528 C   0  0  0  0  0  0  0  0  0  0  0  0
  -26.6016  -19.7862   21.0188 C   0  0  0  0  0  0  0  0  0  0  0  0
  -25.9258  -16.6271   20.7256 C   0  0  0  0  0  0  0  0  0  0  0  0
  -17.7439  -27.4194   19.2389 C   0  0  0  0  0  0  0  0  0  0  0  0
  -23.5618  -14.1683   20.6140 C   0  0  0  0  0  0  0  0  0  0  0  0
  -22.9650  -29.4522   21.6650 C   0  0  0  0  0  0  0  0  0  0  0  0
  -31.5457  -21.0517   20.9118 C   0  0  0  0  0  0  0  0  0  0  0  0
  -25.1149  -19.4019   23.0183 C   0  0  0  0  0  0  0  0  0  0  0  0
  -23.9751  -18.2186   20.5595 C   0  0  0  0  0  0  0  0  0  0  0  0
  -30.6792  -19.9780   20.2586 C   0  0  0  0  0  0  0  0  0  0  0  0
  -24.1503  -26.3903   23.1872 C   0  0  0  0  0  0  0  0  0  0  0  0
  -29.4325  -20.6019   19.6394 C   0  0  0  0  0  0  0  0  0  0  0  0
  -25.5668  -26.2959   22.6174 C   0  0  0  0  0  0  0  0  0  0  0  0
  -23.1734  -26.9398   22.1519 C   0  0  0  0  0  0  0  0  0  0  0  0
  -24.9783  -28.1658   21.0059 C   0  0  0  0  0  0  0  0  0  0  0  0
  -28.5666  -21.2805   20.7077 C   0  0  1  0  0  0  0  0  0  0  0  0
  -25.9983  -18.7702   21.9469 C   0  0  1  0  0  0  0  0  0  0  0  0
  -26.0177  -27.6382   22.0116 C   0  0  2  0  0  0  0  0  0  0  0  0
  -23.3114  -11.6880   20.3265 C   0  0  0  0  0  0  0  0  0  0  0  0
  -26.4239  -16.9265   17.7303 C   0  0  0  0  0  0  0  0  0  0  0  0
  -25.2614  -14.7356   17.3886 C   0  0  0  0  0  0  0  0  0  0  0  0
  -27.3563  -14.8367   18.7391 C   0  0  0  0  0  0  0  0  0  0  0  0
  -22.3349  -13.8649   23.2901 C   0  0  0  0  0  0  0  0  0  0  0  0
  -17.0639  -28.7264   19.6121 C   0  0  0  0  0  0  0  0  0  0  0  0
  -18.0358  -29.8848   19.8313 C   0  0  0  0  0  0  0  0  0  0  0  0
  -18.9875  -29.6330   21.0053 C   0  0  0  0  0  0  0  0  0  0  0  0
  -19.9651  -30.7987   21.1847 C   0  0  0  0  0  0  0  0  0  0  0  0
  -18.3347  -24.4127   20.5399 C   0  0  0  0  0  0  0  0  0  0  0  0
  -18.7514  -22.9630   20.2901 C   0  0  0  0  0  0  0  0  0  0  0  0
  -17.4343  -24.9602   19.4369 C   0  0  0  0  0  0  0  0  0  0  0  0
  -20.8891  -30.6063   22.3832 C   0  0  0  0  0  0  0  0  0  0  0  0
  -19.6819  -22.4521   21.3829 C   0  0  0  0  0  0  0  0  0  1  0  0
  -25.2152  -15.7765   19.7007 C   0  0  1  0  0  0  0  0  0  0  0  0
  -23.4683  -12.8280   21.3207 C   0  0  2  0  0  0  0  0  0  0  0  0
  -26.0510  -15.5903   18.4029 C   0  0  0  0  0  0  0  0  0  0  0  0
  -27.5971  -26.7068   20.3623 N   0  0  0  0  0  0  0  0  0  0  0  0
  -27.4020  -27.5411   21.3976 N   0  0  0  0  0  0  0  0  0  0  0  0
  -25.2754  -17.8070   21.1139 N   0  0  0  0  0  0  0  0  0  0  0  0
  -23.6516  -28.2272   21.6284 N   0  0  0  0  0  0  0  0  0  0  0  0
  -28.5028  -29.1003   22.8004 N   0  0  0  0  0  0  0  0  0  0  0  0
  -31.7751  -27.7148   20.0132 N   0  0  0  0  0  0  0  0  0  0  0  0
  -27.8129  -20.2927   21.4497 N   0  0  0  0  0  0  0  0  0  0  0  0
  -17.0228  -26.3152   19.6824 N   0  0  0  0  0  0  0  0  0  0  0  0
  -24.8708  -14.5288   20.3737 N   0  0  0  0  0  0  0  0  0  0  0  0
  -21.7122  -29.4233   22.2654 N   0  0  0  0  0  0  0  0  0  0  0  0
  -22.2992  -12.8100   22.2447 N   0  3  0  0  0  0  0  0  0  0  0  0
  -31.2991  -29.0817   21.7919 O   0  0  0  0  0  0  0  0  0  0  0  0
  -26.0125  -20.0872   19.9873 O   0  0  0  0  0  0  0  0  0  0  0  0
  -27.0143  -16.2548   21.1708 O   0  0  0  0  0  0  0  0  0  0  0  0
  -18.7917  -27.3632   18.6009 O   0  0  0  0  0  0  0  0  0  0  0  0
  -22.5724  -14.8276   20.3027 O   0  0  0  0  0  0  0  0  0  0  0  0
  -23.4360  -30.4964   21.2015 O   0  0  0  0  0  0  0  0  0  0  0  0
  -31.2426  -23.9941   15.9012 O   0  0  0  0  0  0  0  0  0  0  0  0
  -20.0626  -21.1054   21.1040 O   0  0  0  0  0  0  0  0  0  1  0  0
  -30.0940  -18.6146   15.5197 F   0  0  0  0  0  0  0  0  0  0  0  0
  -28.6420  -23.1197   15.5619 F   0  0  0  0  0  0  0  0  0  0  0  0
  1  2  1  0  0  0  0
  1  5  2  0  0  0  0
  2  6  2  0  0  0  0
  3  8  2  0  0  0  0
  3 15  1  0  0  0  0
  4  9  1  0  0  0  0
  4 15  2  0  0  0  0
  5 17  1  0  0  0  0
  6 19  1  0  0  0  0
  7 10  2  0  0  0  0
  7 18  1  0  0  0  0
  8 21  1  0  0  0  0
  9 21  2  0  0  0  0
 10 22  1  0  0  0  0
 11 12  2  0  0  0  0
 11 23  1  0  0  0  0
 12 24  1  0  0  0  0
 13 20  1  0  0  0  0
 13 22  2  0  0  0  0
 14 24  2  0  0  0  0
 14 25  1  0  0  0  0
 15 26  1  0  0  0  0
 16 26  1  0  0  0  0
 16 27  2  0  0  0  0
 16 28  1  0  0  0  0
 17 19  2  0  0  0  0
 17 34  1  0  0  0  0
 18 20  2  0  0  0  0
 18 35  1  0  0  0  0
 19 43  1  0  0  0  0
 20 36  1  0  0  0  0
 21 80  1  0  0  0  0
 22 81  1  0  0  0  0
 23 25  2  0  0  0  0
 23 80  1  0  0  0  0
 24 82  1  0  0  0  0
 25 83  1  0  0  0  0
 26 63  2  0  0  0  0
 27 64  1  0  0  0  0
 27 67  1  0  0  0  0
 28 68  1  0  0  0  0
 28 74  2  0  0  0  0
 29 44  1  0  0  0  0
 29 69  1  0  0  0  0
 29 75  2  0  0  0  0
 30 60  1  0  0  0  0
 30 65  1  0  0  0  0
 30 76  2  0  0  0  0
 31 51  1  0  0  0  0
 31 70  1  0  0  0  0
 31 77  2  0  0  0  0
 32 61  1  0  0  0  0
 32 71  1  0  0  0  0
 32 78  2  0  0  0  0
 33 66  1  0  0  0  0
 33 72  1  0  0  0  0
 33 79  2  0  0  0  0
 34 37  1  0  0  0  0
 35 44  1  0  0  0  0
 36 65  1  0  0  0  0
 37 39  1  0  0  0  0
 38 40  1  0  0  0  0
 38 41  1  0  0  0  0
 39 43  1  0  0  0  0
 40 45  1  0  0  0  0
 41 66  1  0  0  0  0
 42 45  1  0  0  0  0
 42 66  1  0  0  0  0
 43 69  1  0  0  0  0
 44 65  1  0  0  0  0
 45 64  1  0  0  0  0
 46 61  1  0  0  0  0
 47 62  1  0  0  0  0
 48 62  1  0  0  0  0
 49 62  1  0  0  0  0
 50 73  1  0  0  0  0
 51 52  1  0  0  0  0
 52 53  1  0  0  0  0
 53 54  1  0  0  0  0
 54 58  1  0  0  0  0
 55 56  1  0  0  0  0
 55 57  1  0  0  0  0
 56 59  1  0  0  0  0
 57 70  1  0  0  0  0
 58 72  1  0  0  0  0
 59 81  1  0  0  0  0
 60 62  1  0  0  0  0
 60 71  1  0  0  0  0
 61 73  1  0  0  0  0
 63 64  1  0  0  0  0
M  CHG  1  73   1
M  ISO  4  33 100  59 101  72 100  81 101
M  END
> <Batch ID>
0003

> <Smiles>
CNC(C)C(=O)NC(C(=O)N1Cc2cc([101O:1][101CH2:1]CCCNC(=O)CCCCC[100NH:0][100C:0](=O)N3CCCC(n4nc(-c5ccc(Oc6ccc(F)cc6F)cc5)c(C(N)=O)c4N)C3)ccc2CC1C(=O)NC1CCCc2ccccc21)C(C)(C)C

> <Shape>
0.168

> <Color>
0.068

> <Negative vol penalty>
0.000

$$$$

  -OEChem-04052315213D

 90 98  0     1  0  0  0  0  0999 V2000
  -19.2255  -25.9997   25.6203 C   0  0  0  0  0  0  0  0  0  0  0  0
  -20.5233  -25.7737   25.1730 C   0  0  0  0  0  0  0  0  0  0  0  0
  -22.6404  -19.0374   23.3235 C   0  0  0  0  0  0  0  0  0  0  0  0
  -22.7237  -19.8699   21.0570 C   0  0  0  0  0  0  0  0  0  0  0  0
  -18.3586  -26.7924   24.8691 C   0  0  0  0  0  0  0  0  0  0  0  0
  -20.9547  -26.3393   23.9737 C   0  0  0  0  0  0  0  0  0  0  0  0
  -26.5813  -28.3828   22.6810 C   0  0  0  0  0  0  0  0  0  0  0  0
  -29.7360  -24.8151   14.6113 C   0  0  0  0  0  0  0  0  0  0  0  0
  -21.7440  -20.0507   23.6628 C   0  0  0  0  0  0  0  0  0  0  0  0
  -21.8272  -20.8832   21.3962 C   0  0  0  0  0  0  0  0  0  0  0  0
  -27.6532  -27.8101   21.9977 C   0  0  0  0  0  0  0  0  0  0  0  0
  -30.3430  -23.8299   13.8324 C   0  0  0  0  0  0  0  0  0  0  0  0
  -19.1547  -22.2014   25.0358 C   0  0  0  0  0  0  0  0  0  0  0  0
  -18.0403  -21.8527   25.7988 C   0  0  0  0  0  0  0  0  0  0  0  0
  -26.9730  -28.9529   19.9851 C   0  0  0  0  0  0  0  0  0  0  0  0
  -30.8968  -23.9881   16.5621 C   0  0  0  0  0  0  0  0  0  0  0  0
  -17.3267  -20.3325   24.0618 C   0  0  0  0  0  0  0  0  0  0  0  0
  -23.1304  -18.9470   22.0206 C   0  0  0  0  0  0  0  0  0  0  0  0
  -23.7450  -16.6161   21.1860 C   0  0  0  0  0  0  0  0  0  0  0  0
  -18.7827  -27.3759   23.6648 C   0  0  0  0  0  0  0  0  0  0  0  0
  -25.6894  -29.2376   22.0176 C   0  0  0  0  0  0  0  0  0  0  0  0
  -20.0923  -27.1395   23.2051 C   0  0  0  0  0  0  0  0  0  0  0  0
  -25.8920  -29.5371   20.6629 C   0  0  0  0  0  0  0  0  0  0  0  0
  -31.5037  -23.0029   15.7833 C   0  0  0  0  0  0  0  0  0  0  0  0
  -30.0130  -24.8943   15.9761 C   0  0  0  0  0  0  0  0  0  0  0  0
  -21.3373  -20.9736   22.6992 C   0  0  0  0  0  0  0  0  0  0  0  0
  -27.8475  -28.0929   20.6489 C   0  0  0  0  0  0  0  0  0  0  0  0
  -31.2268  -22.9238   14.4184 C   0  0  0  0  0  0  0  0  0  0  0  0
  -19.3551  -21.6157   23.7858 C   0  0  0  0  0  0  0  0  0  0  0  0
  -17.1263  -20.9183   25.3118 C   0  0  0  0  0  0  0  0  0  0  0  0
  -18.4411  -20.6813   23.2988 C   0  0  0  0  0  0  0  0  0  0  0  0
  -24.0569  -17.9008   21.6696 C   0  0  0  0  0  0  0  0  0  0  0  0
  -24.9650  -16.0108   21.0076 C   0  0  0  0  0  0  0  0  0  0  0  0
  -22.4668  -16.0228   20.9216 C   0  0  0  0  0  0  0  0  0  0  0  0
  -22.5772  -29.1707   21.3743 C   0  0  0  0  0  0  0  0  0  0  0  0
  -23.1409  -32.1626   20.2547 C   0  0  0  0  0  0  0  0  0  0  0  0
  -31.1198  -20.3906   17.7375 C   0  0  0  0  0  0  0  0  0  0  0  0
  -29.5586  -26.1155   18.1293 C   0  0  0  0  0  0  0  0  0  0  0  0
  -25.3794  -34.4127   19.0006 C   0  0  0  0  0  0  0  0  0  0  0  0
  -30.4712  -18.1470   20.0225 C   0  0  0  0  0  0  0  0  0  0  0  0
  -17.7949  -28.1866   22.8636 C   0  0  0  0  0  0  0  0  0  0  0  0
  -24.5535  -29.8684   22.7755 C   0  0  0  0  0  0  0  0  0  0  0  0
  -24.9748  -30.4645   19.9099 C   0  0  0  0  0  0  0  0  0  0  0  0
  -18.4476  -29.0560   21.7920 C   0  0  0  0  0  0  0  0  0  0  0  0
  -29.4406  -16.0367   22.6985 C   0  0  0  0  0  0  0  0  0  0  0  0
  -19.4785  -28.2514   21.0067 C   0  0  0  0  0  0  0  0  0  0  0  0
  -27.9159  -16.1592   22.6947 C   0  0  0  0  0  0  0  0  0  0  0  0
  -30.1141  -17.3607   22.3443 C   0  0  0  0  0  0  0  0  0  0  0  0
  -28.1305  -18.0932   21.0784 C   0  0  0  0  0  0  0  0  0  0  0  0
  -20.6050  -27.7560   21.9217 C   0  0  1  0  0  0  0  0  0  0  0  0
  -23.4094  -30.3184   21.8722 C   0  0  1  0  0  0  0  0  0  0  0  0
  -27.4057  -16.7693   21.3752 C   0  0  2  0  0  0  0  0  0  0  0  0
  -25.5368  -36.7658   18.1428 C   0  0  0  0  0  0  0  0  0  0  0  0
  -21.8429  -31.2915   17.6344 C   0  0  0  0  0  0  0  0  0  0  0  0
  -22.8633  -33.2999   16.5421 C   0  0  0  0  0  0  0  0  0  0  0  0
  -21.2180  -33.5907   18.3944 C   0  0  0  0  0  0  0  0  0  0  0  0
  -27.2911  -35.1826   21.1247 C   0  0  0  0  0  0  0  0  0  0  0  0
  -32.4472  -22.0412   16.4270 C   0  0  0  0  0  0  0  0  0  0  0  0
  -30.6666  -18.9473   17.6814 C   0  0  0  0  0  0  0  0  0  0  0  0
  -28.7150  -27.2918   18.5845 C   0  0  0  0  0  0  0  0  0  1  0  0
  -31.7638  -20.0772   12.1587 C   0  0  0  0  0  0  0  0  0  0  0  0
  -30.9421  -21.0548   12.9756 C   0  0  0  0  0  0  0  0  0  0  0  0
  -23.5423  -32.7474   18.9221 C   0  0  1  0  0  0  0  0  0  0  0  0
  -25.6600  -35.8610   19.3589 C   0  0  2  0  0  0  0  0  0  0  0  0
  -22.3830  -32.7134   17.8867 C   0  0  0  0  0  0  0  0  0  0  0  0
  -25.3719  -18.1010   21.7909 N   0  0  0  0  0  0  0  0  0  0  0  0
  -25.8972  -16.9338   21.3810 N   0  0  0  0  0  0  0  0  0  0  0  0
  -23.8750  -31.0514   20.6932 N   0  0  0  0  0  0  0  0  0  0  0  0
  -29.5870  -17.8848   21.0820 N   0  0  0  0  0  0  0  0  0  0  0  0
  -25.3206  -14.7845   20.5695 N   0  0  0  0  0  0  0  0  0  0  0  0
  -21.3146  -16.7843   21.1598 N   0  0  0  0  0  0  0  0  0  0  0  0
  -29.3971  -25.8940   16.7659 N   0  0  0  0  0  0  0  0  0  0  0  0
  -21.5310  -28.8300   22.2103 N   0  0  0  0  0  0  0  0  0  0  0  0
  -31.8584  -20.7400   16.6127 N   0  0  0  0  0  0  0  0  0  0  0  0
  -24.0553  -34.0844   19.2010 N   0  0  0  0  0  0  0  0  0  0  0  0
  -29.8884  -18.6359   18.8597 N   0  0  0  0  0  0  0  0  0  0  0  0
  -32.6459  -19.3006   13.0659 N   0  3  0  0  0  0  0  0  0  0  0  0
  -27.0373  -36.0005   19.9108 N   0  3  0  0  0  0  0  0  0  0  0  0
  -22.3494  -14.8463   20.5025 O   0  0  0  0  0  0  0  0  0  0  0  0
  -22.8622  -28.6350   20.3096 O   0  0  0  0  0  0  0  0  0  0  0  0
  -22.2150  -32.6772   20.8868 O   0  0  0  0  0  0  0  0  0  0  0  0
  -30.8862  -21.1340   18.6871 O   0  0  0  0  0  0  0  0  0  0  0  0
  -30.2646  -25.4896   18.9132 O   0  0  0  0  0  0  0  0  0  0  0  0
  -26.2472  -33.6501   18.5812 O   0  0  0  0  0  0  0  0  0  0  0  0
  -31.6889  -17.9542   20.1048 O   0  0  0  0  0  0  0  0  0  0  0  0
  -20.4624  -21.9624   23.0298 O   0  0  0  0  0  0  0  0  0  0  0  0
  -28.8926  -27.5347   19.9794 O   0  0  0  0  0  0  0  0  0  1  0  0
  -31.8110  -21.9677   13.6431 O   0  0  0  0  0  0  0  0  0  0  0  0
  -16.0571  -20.5824   26.0452 F   0  0  0  0  0  0  0  0  0  0  0  0
  -18.6290  -20.1144   22.0991 F   0  0  0  0  0  0  0  0  0  0  0  0
  1  2  1  0  0  0  0
  1  5  2  0  0  0  0
  2  6  2  0  0  0  0
  3  9  2  0  0  0  0
  3 18  1  0  0  0  0
  4 10  1  0  0  0  0
  4 18  2  0  0  0  0
  5 20  1  0  0  0  0
  6 22  1  0  0  0  0
  7 11  2  0  0  0  0
  7 21  1  0  0  0  0
  8 12  2  0  0  0  0
  8 25  1  0  0  0  0
  9 26  1  0  0  0  0
 10 26  2  0  0  0  0
 11 27  1  0  0  0  0
 12 28  1  0  0  0  0
 13 14  2  0  0  0  0
 13 29  1  0  0  0  0
 14 30  1  0  0  0  0
 15 23  1  0  0  0  0
 15 27  2  0  0  0  0
 16 24  1  0  0  0  0
 16 25  2  0  0  0  0
 17 30  2  0  0  0  0
 17 31  1  0  0  0  0
 18 32  1  0  0  0  0
 19 32  1  0  0  0  0
 19 33  2  0  0  0  0
 19 34  1  0  0  0  0
 20 22  2  0  0  0  0
 20 41  1  0  0  0  0
 21 23  2  0  0  0  0
 21 42  1  0  0  0  0
 22 50  1  0  0  0  0
 23 43  1  0  0  0  0
 24 28  2  0  0  0  0
 24 58  1  0  0  0  0
 25 72  1  0  0  0  0
 26 86  1  0  0  0  0
 27 87  1  0  0  0  0
 28 88  1  0  0  0  0
 29 31  2  0  0  0  0
 29 86  1  0  0  0  0
 30 89  1  0  0  0  0
 31 90  1  0  0  0  0
 32 66  2  0  0  0  0
 33 67  1  0  0  0  0
 33 70  1  0  0  0  0
 34 71  1  0  0  0  0
 34 79  2  0  0  0  0
 35 51  1  0  0  0  0
 35 73  1  0  0  0  0
 35 80  2  0  0  0  0
 36 63  1  0  0  0  0
 36 68  1  0  0  0  0
 36 81  2  0  0  0  0
 37 59  1  0  0  0  0
 37 74  1  0  0  0  0
 37 82  2  0  0  0  0
 38 60  1  0  0  0  0
 38 72  1  0  0  0  0
 38 83  2  0  0  0  0
 39 64  1  0  0  0  0
 39 75  1  0  0  0  0
 39 84  2  0  0  0  0
 40 69  1  0  0  0  0
 40 76  1  0  0  0  0
 40 85  2  0  0  0  0
 41 44  1  0  0  0  0
 42 51  1  0  0  0  0
 43 68  1  0  0  0  0
 44 46  1  0  0  0  0
 45 47  1  0  0  0  0
 45 48  1  0  0  0  0
 46 50  1  0  0  0  0
 47 52  1  0  0  0  0
 48 69  1  0  0  0  0
 49 52  1  0  0  0  0
 49 69  1  0  0  0  0
 50 73  1  0  0  0  0
 51 68  1  0  0  0  0
 52 67  1  0  0  0  0
 53 64  1  0  0  0  0
 54 65  1  0  0  0  0
 55 65  1  0  0  0  0
 56 65  1  0  0  0  0
 57 78  1  0  0  0  0
 58 74  1  0  0  0  0
 59 76  1  0  0  0  0
 60 87  1  0  0  0  0
 61 62  1  0  0  0  0
 61 77  1  0  0  0  0
 62 88  1  0  0  0  0
 63 65  1  0  0  0  0
 63 75  1  0  0  0  0
 64 78  1  0  0  0  0
 66 67  1  0  0  0  0
M  CHG  2  77   1  78   1
M  ISO  4  40 100  60 101  76 100  87 101
M  END
> <Batch ID>
0003

> <Smiles>
CNC(C)C(=O)NC(C(=O)N1Cc2cc([101O:1][101CH2:1]C(=O)Nc3ccc(OCCN)c(CNC(=O)C[100NH:0][100C:0](=O)N4CCCC(n5nc(-c6ccc(Oc7ccc(F)cc7F)cc6)c(C(N)=O)c5N)C4)c3)ccc2CC1C(=O)NC1CCCc2ccccc21)C(C)(C)C

> <Shape>
0.172

> <Color>
0.116

> <Negative vol penalty>
0.000

$$$$

  -OEChem-04052315213D

 76 83  0     1  0  0  0  0  0999 V2000
  -21.6050  -12.3106   21.2441 C   0  0  0  0  0  0  0  0  0  0  0  0
  -21.7059  -13.5641   21.8392 C   0  0  0  0  0  0  0  0  0  0  0  0
  -25.8234  -26.7572   19.4082 C   0  0  0  0  0  0  0  0  0  0  0  0
  -25.2445  -28.8553   20.4569 C   0  0  0  0  0  0  0  0  0  0  0  0
  -22.7289  -11.7224   20.6656 C   0  0  0  0  0  0  0  0  0  0  0  0
  -22.9311  -14.2296   21.8569 C   0  0  0  0  0  0  0  0  0  0  0  0
  -22.5024  -19.1224   20.6232 C   0  0  0  0  0  0  0  0  0  0  0  0
  -27.1772  -27.0708   19.5280 C   0  0  0  0  0  0  0  0  0  0  0  0
  -26.5983  -29.1690   20.5768 C   0  0  0  0  0  0  0  0  0  0  0  0
  -22.0263  -19.9877   21.6072 C   0  0  0  0  0  0  0  0  0  0  0  0
  -29.5391  -27.0293   21.9473 C   0  0  0  0  0  0  0  0  0  0  0  0
  -30.3973  -26.0314   22.4091 C   0  0  0  0  0  0  0  0  0  0  0  0
  -24.2867  -20.6860   22.0784 C   0  0  0  0  0  0  0  0  0  0  0  0
  -31.6536  -26.1585   20.3493 C   0  0  0  0  0  0  0  0  0  0  0  0
  -24.8570  -27.6494   19.8726 C   0  0  0  0  0  0  0  0  0  0  0  0
  -22.7453  -27.0780   18.5604 C   0  0  0  0  0  0  0  0  0  0  0  0
  -23.9663  -12.3852   20.6677 C   0  0  0  0  0  0  0  0  0  0  0  0
  -23.8775  -19.0241   20.3665 C   0  0  0  0  0  0  0  0  0  0  0  0
  -24.0729  -13.6491   21.2790 C   0  0  0  0  0  0  0  0  0  0  0  0
  -24.7775  -19.8205   21.0889 C   0  0  0  0  0  0  0  0  0  0  0  0
  -27.5647  -28.2767   20.1123 C   0  0  0  0  0  0  0  0  0  0  0  0
  -22.9187  -20.7676   22.3369 C   0  0  0  0  0  0  0  0  0  0  0  0
  -29.7381  -27.5918   20.6864 C   0  0  0  0  0  0  0  0  0  0  0  0
  -31.4545  -25.5960   21.6101 C   0  0  0  0  0  0  0  0  0  0  0  0
  -30.7953  -27.1564   19.8875 C   0  0  0  0  0  0  0  0  0  0  0  0
  -23.4583  -27.3263   19.7485 C   0  0  0  0  0  0  0  0  0  0  0  0
  -21.4622  -26.8208   18.9773 C   0  0  0  0  0  0  0  0  0  0  0  0
  -23.2021  -27.0797   17.2013 C   0  0  0  0  0  0  0  0  0  0  0  0
  -26.0334  -16.6958   20.5528 C   0  0  0  0  0  0  0  0  0  0  0  0
  -22.3472  -21.0828   24.5935 C   0  0  0  0  0  0  0  0  0  1  0  0
  -27.9721  -18.9120   19.1920 C   0  0  0  0  0  0  0  0  0  0  0  0
  -28.6533  -22.2074   18.6233 C   0  0  0  0  0  0  0  0  0  0  0  0
  -19.1777  -24.7911   24.1264 C   0  0  0  0  0  0  0  0  0  0  0  0
  -25.1639  -11.6888   20.0716 C   0  0  0  0  0  0  0  0  0  0  0  0
  -24.3729  -18.1055   19.2834 C   0  0  0  0  0  0  0  0  0  0  0  0
  -26.2616  -19.7671   20.8378 C   0  0  0  0  0  0  0  0  0  0  0  0
  -26.3403  -12.6235   19.8018 C   0  0  0  0  0  0  0  0  0  0  0  0
  -18.3897  -27.8565   22.4956 C   0  0  0  0  0  0  0  0  0  0  0  0
  -26.5940  -13.5237   21.0068 C   0  0  0  0  0  0  0  0  0  0  0  0
  -19.5350  -28.0458   21.4994 C   0  0  0  0  0  0  0  0  0  0  0  0
  -18.8745  -27.2280   23.8002 C   0  0  0  0  0  0  0  0  0  0  0  0
  -20.7689  -26.1569   22.6434 C   0  0  0  0  0  0  0  0  0  0  0  0
  -25.3790  -14.4133   21.2964 C   0  0  1  0  0  0  0  0  0  0  0  0
  -25.8350  -17.7076   19.4599 C   0  0  1  0  0  0  0  0  0  0  0  0
  -20.3193  -26.7362   21.2912 C   0  0  2  0  0  0  0  0  0  0  0  0
  -30.3274  -23.7093   17.5102 C   0  0  0  0  0  0  0  0  0  0  0  0
  -29.9291  -18.4233   21.4814 C   0  0  0  0  0  0  0  0  0  0  0  0
  -31.0796  -20.5587   20.8613 C   0  0  0  0  0  0  0  0  0  0  0  0
  -30.9951  -18.6711   19.2326 C   0  0  0  0  0  0  0  0  0  0  0  0
  -26.6078  -23.3321   16.8039 C   0  0  0  0  0  0  0  0  0  0  0  0
  -21.8295  -22.0851   25.5895 C   0  0  0  0  0  0  0  0  0  0  0  0
  -20.3032  -22.0719   25.6706 C   0  0  0  0  0  0  0  0  0  0  0  0
  -19.6029  -22.3558   24.3440 C   0  0  0  0  0  0  0  0  0  0  0  0
  -28.8922  -19.9905   19.7110 C   0  0  1  0  0  0  0  0  0  0  0  0
  -29.0152  -22.9566   17.3536 C   0  0  2  0  0  0  0  0  0  0  0  0
  -30.1963  -19.4107   20.3279 C   0  0  0  0  0  0  0  0  0  0  0  0
  -22.6917  -27.2351   20.8385 N   0  0  0  0  0  0  0  0  0  0  0  0
  -22.6446  -19.8618   24.8944 N   0  0  0  0  0  0  0  0  0  0  0  0
  -21.4837  -26.9268   20.3369 N   0  0  0  0  0  0  0  0  0  0  0  0
  -26.6975  -18.8488   19.7728 N   0  0  0  0  0  0  0  0  0  0  0  0
  -19.6090  -25.9890   23.5329 N   0  0  0  0  0  0  0  0  0  0  0  0
  -20.3288  -26.5166   18.3099 N   0  0  0  0  0  0  0  0  0  0  0  0
  -23.1457  -28.2794   16.4790 N   0  0  0  0  0  0  0  0  0  0  0  0
  -25.3303  -15.5209   20.3662 N   0  0  0  0  0  0  0  0  0  0  0  0
  -29.1139  -20.9080   18.5985 N   0  0  0  0  0  0  0  0  0  0  0  0
  -19.9260  -23.6624   23.8156 N   0  0  0  0  0  0  0  0  0  0  0  0
  -27.9483  -23.9386   17.0096 N   0  3  0  0  0  0  0  0  0  0  0  0
  -23.6317  -26.0440   16.6388 O   0  0  0  0  0  0  0  0  0  0  0  0
  -26.7709  -16.9607   21.4949 O   0  0  0  0  0  0  0  0  0  0  0  0
  -28.3671  -18.1582   18.2991 O   0  0  0  0  0  0  0  0  0  0  0  0
  -28.0279  -22.7243   19.5465 O   0  0  0  0  0  0  0  0  0  0  0  0
  -18.1951  -24.7311   24.8733 O   0  0  0  0  0  0  0  0  0  0  0  0
  -28.8857  -28.5830   20.2297 O   0  0  0  0  0  0  0  0  0  0  0  0
  -22.4567  -21.6126   23.2983 O   0  0  0  0  0  0  0  0  0  1  0  0
  -32.2795  -24.6388   22.0544 F   0  0  0  0  0  0  0  0  0  0  0  0
  -30.9922  -27.6939   18.6758 F   0  0  0  0  0  0  0  0  0  0  0  0
  1  2  1  0  0  0  0
  1  5  2  0  0  0  0
  2  6  2  0  0  0  0
  3  8  2  0  0  0  0
  3 15  1  0  0  0  0
  4  9  1  0  0  0  0
  4 15  2  0  0  0  0
  5 17  1  0  0  0  0
  6 19  1  0  0  0  0
  7 10  2  0  0  0  0
  7 18  1  0  0  0  0
  8 21  1  0  0  0  0
  9 21  2  0  0  0  0
 10 22  1  0  0  0  0
 11 12  2  0  0  0  0
 11 23  1  0  0  0  0
 12 24  1  0  0  0  0
 13 20  1  0  0  0  0
 13 22  2  0  0  0  0
 14 24  2  0  0  0  0
 14 25  1  0  0  0  0
 15 26  1  0  0  0  0
 16 26  1  0  0  0  0
 16 27  2  0  0  0  0
 16 28  1  0  0  0  0
 17 19  2  0  0  0  0
 17 34  1  0  0  0  0
 18 20  2  0  0  0  0
 18 35  1  0  0  0  0
 19 43  1  0  0  0  0
 20 36  1  0  0  0  0
 21 73  1  0  0  0  0
 22 74  1  0  0  0  0
 23 25  2  0  0  0  0
 23 73  1  0  0  0  0
 24 75  1  0  0  0  0
 25 76  1  0  0  0  0
 26 57  2  0  0  0  0
 27 59  1  0  0  0  0
 27 62  1  0  0  0  0
 28 63  1  0  0  0  0
 28 68  2  0  0  0  0
 29 44  1  0  0  0  0
 29 64  1  0  0  0  0
 29 69  2  0  0  0  0
 30 51  1  0  0  0  0
 30 58  2  0  0  0  0
 30 74  1  0  0  0  0
 31 54  1  0  0  0  0
 31 60  1  0  0  0  0
 31 70  2  0  0  0  0
 32 55  1  0  0  0  0
 32 65  1  0  0  0  0
 32 71  2  0  0  0  0
 33 61  1  0  0  0  0
 33 66  1  0  0  0  0
 33 72  2  0  0  0  0
 34 37  1  0  0  0  0
 35 44  1  0  0  0  0
 36 60  1  0  0  0  0
 37 39  1  0  0  0  0
 38 40  1  0  0  0  0
 38 41  1  0  0  0  0
 39 43  1  0  0  0  0
 40 45  1  0  0  0  0
 41 61  1  0  0  0  0
 42 45  1  0  0  0  0
 42 61  1  0  0  0  0
 43 64  1  0  0  0  0
 44 60  1  0  0  0  0
 45 59  1  0  0  0  0
 46 55  1  0  0  0  0
 47 56  1  0  0  0  0
 48 56  1  0  0  0  0
 49 56  1  0  0  0  0
 50 67  1  0  0  0  0
 51 52  1  0  0  0  0
 52 53  1  0  0  0  0
 53 66  1  0  0  0  0
 54 56  1  0  0  0  0
 54 65  1  0  0  0  0
 55 67  1  0  0  0  0
 57 59  1  0  0  0  0
M  CHG  1  67   1
M  ISO  4  30 101  33 100  66 100  74 101
M  END
> <Batch ID>
0003

> <Smiles>
CNC(C)C(=O)NC(C(=O)N1Cc2cc([101O:1][101C:1](=N)CCC[100NH:0][100C:0](=O)N3CCCC(n4nc(-c5ccc(Oc6ccc(F)cc6F)cc5)c(C(N)=O)c4N)C3)ccc2CC1C(=O)NC1CCCc2ccccc21)C(C)(C)C

> <Shape>
0.224

> <Color>
0.071

> <Negative vol penalty>
0.000

$$$$

  -OEChem-04052315213D

 83 91  0     1  0  0  0  0  0999 V2000
  -29.5494  -19.6887   32.1449 C   0  0  0  0  0  0  0  0  0  0  0  0
  -30.9510  -22.2145   15.4463 C   0  0  0  0  0  0  0  0  0  0  0  0
  -30.6684  -22.2337   16.8083 C   0  0  0  0  0  0  0  0  0  0  0  0
  -30.8471  -20.1997   32.1688 C   0  0  0  0  0  0  0  0  0  0  0  0
  -32.4229  -17.6730   20.9521 C   0  0  0  0  0  0  0  0  0  0  0  0
  -30.4615  -17.1499   22.2622 C   0  0  0  0  0  0  0  0  0  0  0  0
  -28.8331  -19.6601   30.9484 C   0  0  0  0  0  0  0  0  0  0  0  0
  -30.9270  -23.4005   14.7137 C   0  0  0  0  0  0  0  0  0  0  0  0
  -30.3626  -23.4393   17.4388 C   0  0  0  0  0  0  0  0  0  0  0  0
  -26.3870  -23.0501   20.5514 C   0  0  0  0  0  0  0  0  0  0  0  0
  -31.4284  -20.6821   30.9962 C   0  0  0  0  0  0  0  0  0  0  0  0
  -32.4279  -16.3750   20.4414 C   0  0  0  0  0  0  0  0  0  0  0  0
  -30.4665  -15.8519   21.7515 C   0  0  0  0  0  0  0  0  0  0  0  0
  -26.6083  -22.4634   21.7966 C   0  0  0  0  0  0  0  0  0  0  0  0
  -29.5283  -14.2942   18.9030 C   0  0  0  0  0  0  0  0  0  0  0  0
  -28.3110  -13.7618   18.4784 C   0  0  0  0  0  0  0  0  0  0  0  0
  -26.7127  -24.6531   22.8032 C   0  0  0  0  0  0  0  0  0  0  0  0
  -28.5293  -11.9763   20.0913 C   0  0  0  0  0  0  0  0  0  0  0  0
  -31.4397  -18.0604   21.8626 C   0  0  0  0  0  0  0  0  0  0  0  0
  -29.4143  -20.1426   29.7758 C   0  0  0  0  0  0  0  0  0  0  0  0
  -30.7761  -20.5236   21.8542 C   0  0  0  0  0  0  0  0  0  0  0  0
  -30.6113  -24.6198   15.3335 C   0  0  0  0  0  0  0  0  0  0  0  0
  -26.3377  -24.4454   20.4207 C   0  0  0  0  0  0  0  0  0  0  0  0
  -30.3357  -24.6429   16.7141 C   0  0  0  0  0  0  0  0  0  0  0  0
  -26.4882  -25.2551   21.5556 C   0  0  0  0  0  0  0  0  0  0  0  0
  -30.7120  -20.6536   29.7997 C   0  0  0  0  0  0  0  0  0  0  0  0
  -31.4497  -15.4645   20.8410 C   0  0  0  0  0  0  0  0  0  0  0  0
  -26.7741  -23.2649   22.9222 C   0  0  0  0  0  0  0  0  0  0  0  0
  -30.2462  -13.6677   19.9217 C   0  0  0  0  0  0  0  0  0  0  0  0
  -27.8115  -12.6029   19.0726 C   0  0  0  0  0  0  0  0  0  0  0  0
  -29.7467  -12.5087   20.5159 C   0  0  0  0  0  0  0  0  0  0  0  0
  -31.4343  -19.4009   22.3910 C   0  0  0  0  0  0  0  0  0  0  0  0
  -31.0803  -21.5461   22.7194 C   0  0  0  0  0  0  0  0  0  0  0  0
  -28.6236  -20.0974   28.5189 C   0  0  0  0  0  0  0  0  0  0  0  0
  -29.9625  -20.6325   20.6787 C   0  0  0  0  0  0  0  0  0  0  0  0
  -28.0462  -26.6124   18.8430 C   0  0  0  0  0  0  0  0  0  0  0  0
  -25.7566  -28.6380   19.9280 C   0  0  0  0  0  0  0  0  0  0  0  0
  -23.3531  -29.3148   22.2544 C   0  0  0  0  0  0  0  0  0  0  0  0
  -32.6025  -21.6892   28.4958 C   0  0  0  0  0  0  0  0  0  0  0  0
  -30.6441  -25.8828   14.5099 C   0  0  0  0  0  0  0  0  0  0  0  0
  -26.0716  -25.0622   19.0749 C   0  0  0  0  0  0  0  0  0  0  0  0
  -26.4236  -26.7575   21.4722 C   0  0  0  0  0  0  0  0  0  0  0  0
  -29.9439  -27.0636   15.1774 C   0  0  0  0  0  0  0  0  0  0  0  0
  -34.4834  -22.9868   25.7653 C   0  0  0  0  0  0  0  0  0  0  0  0
  -30.3691  -27.1804   16.6377 C   0  0  0  0  0  0  0  0  0  0  0  0
  -33.8511  -22.3213   24.5408 C   0  0  0  0  0  0  0  0  0  0  0  0
  -34.5277  -22.0417   26.9648 C   0  0  0  0  0  0  0  0  0  0  0  0
  -32.6091  -20.7638   26.0960 C   0  0  0  0  0  0  0  0  0  0  0  0
  -29.9753  -25.9272   17.4288 C   0  0  1  0  0  0  0  0  0  0  0  0
  -26.5531  -26.5062   18.9737 C   0  0  1  0  0  0  0  0  0  0  0  0
  -32.4832  -21.6981   24.8815 C   0  0  2  0  0  0  0  0  0  0  0  0
  -21.6751  -31.0649   22.9014 C   0  0  0  0  0  0  0  0  0  0  0  0
  -28.0002  -30.3656   21.0645 C   0  0  0  0  0  0  0  0  0  0  0  0
  -26.2921  -31.5346   22.4731 C   0  0  0  0  0  0  0  0  0  0  0  0
  -26.1423  -31.6457   19.9855 C   0  0  0  0  0  0  0  0  0  0  0  0
  -21.0896  -27.4413   21.8999 C   0  0  0  0  0  0  0  0  0  0  0  0
  -28.4779  -21.3378   25.4447 C   0  0  0  0  0  0  0  0  0  0  0  0
  -27.6144  -21.4425   26.6946 C   0  0  0  0  0  0  0  0  0  0  0  0
  -27.6708  -21.4403   24.1562 C   0  0  0  0  0  0  0  0  0  1  0  0
  -25.5761  -29.4828   21.1660 C   0  0  1  0  0  0  0  0  0  0  0  0
  -21.9179  -29.7882   22.1115 C   0  0  2  0  0  0  0  0  0  0  0  0
  -26.5059  -30.7290   21.1739 C   0  0  0  0  0  0  0  0  0  0  0  0
  -32.1061  -19.6833   23.5104 N   0  0  0  0  0  0  0  0  0  0  0  0
  -31.8717  -20.9952   23.6840 N   0  0  0  0  0  0  0  0  0  0  0  0
  -26.1675  -27.3132   20.1331 N   0  0  0  0  0  0  0  0  0  0  0  0
  -33.1962  -21.4931   27.2310 N   0  0  0  0  0  0  0  0  0  0  0  0
  -30.7454  -22.8537   22.7414 N   0  0  0  0  0  0  0  0  0  0  0  0
  -29.7517  -19.4841   19.9033 N   0  0  0  0  0  0  0  0  0  0  0  0
  -31.3222  -21.1509   28.6215 N   0  0  0  0  0  0  0  0  0  0  0  0
  -28.3832  -21.3201   27.9021 N   0  0  0  0  0  0  0  0  0  0  0  0
  -28.5632  -25.9520   17.7448 N   0  0  0  0  0  0  0  0  0  0  0  0
  -24.1536  -29.7982   21.2411 N   0  0  0  0  0  0  0  0  0  0  0  0
  -20.9764  -28.7438   22.6053 N   0  3  0  0  0  0  0  0  0  0  0  0
  -28.2136  -19.0156   28.1066 O   0  0  0  0  0  0  0  0  0  0  0  0
  -29.4514  -21.7195   20.3174 O   0  0  0  0  0  0  0  0  0  0  0  0
  -28.6819  -27.2477   19.6760 O   0  0  0  0  0  0  0  0  0  0  0  0
  -25.5341  -29.1330   18.8203 O   0  0  0  0  0  0  0  0  0  0  0  0
  -23.7275  -28.5917   23.1750 O   0  0  0  0  0  0  0  0  0  0  0  0
  -33.1757  -22.3139   29.3920 O   0  0  0  0  0  0  0  0  0  0  0  0
  -31.4542  -14.1979   20.3426 O   0  0  0  0  0  0  0  0  0  0  0  0
  -26.9909  -22.6948   24.1387 O   0  0  0  0  0  0  0  0  0  1  0  0
  -26.6417  -12.0926   18.6658 F   0  0  0  0  0  0  0  0  0  0  0  0
  -30.4313  -11.9030   21.4958 F   0  0  0  0  0  0  0  0  0  0  0  0
  1  4  1  0  0  0  0
  1  7  2  0  0  0  0
  2  3  1  0  0  0  0
  2  8  2  0  0  0  0
  3  9  2  0  0  0  0
  4 11  2  0  0  0  0
  5 12  2  0  0  0  0
  5 19  1  0  0  0  0
  6 13  1  0  0  0  0
  6 19  2  0  0  0  0
  7 20  1  0  0  0  0
  8 22  1  0  0  0  0
  9 24  1  0  0  0  0
 10 14  2  0  0  0  0
 10 23  1  0  0  0  0
 11 26  1  0  0  0  0
 12 27  1  0  0  0  0
 13 27  2  0  0  0  0
 14 28  1  0  0  0  0
 15 16  2  0  0  0  0
 15 29  1  0  0  0  0
 16 30  1  0  0  0  0
 17 25  1  0  0  0  0
 17 28  2  0  0  0  0
 18 30  2  0  0  0  0
 18 31  1  0  0  0  0
 19 32  1  0  0  0  0
 20 26  2  0  0  0  0
 20 34  1  0  0  0  0
 21 32  1  0  0  0  0
 21 33  2  0  0  0  0
 21 35  1  0  0  0  0
 22 24  2  0  0  0  0
 22 40  1  0  0  0  0
 23 25  2  0  0  0  0
 23 41  1  0  0  0  0
 24 49  1  0  0  0  0
 25 42  1  0  0  0  0
 26 69  1  0  0  0  0
 27 80  1  0  0  0  0
 28 81  1  0  0  0  0
 29 31  2  0  0  0  0
 29 80  1  0  0  0  0
 30 82  1  0  0  0  0
 31 83  1  0  0  0  0
 32 63  2  0  0  0  0
 33 64  1  0  0  0  0
 33 67  1  0  0  0  0
 34 70  1  0  0  0  0
 34 74  2  0  0  0  0
 35 68  1  0  0  0  0
 35 75  2  0  0  0  0
 36 50  1  0  0  0  0
 36 71  1  0  0  0  0
 36 76  2  0  0  0  0
 37 60  1  0  0  0  0
 37 65  1  0  0  0  0
 37 77  2  0  0  0  0
 38 61  1  0  0  0  0
 38 72  1  0  0  0  0
 38 78  2  0  0  0  0
 39 66  1  0  0  0  0
 39 69  1  0  0  0  0
 39 79  2  0  0  0  0
 40 43  1  0  0  0  0
 41 50  1  0  0  0  0
 42 65  1  0  0  0  0
 43 45  1  0  0  0  0
 44 46  1  0  0  0  0
 44 47  1  0  0  0  0
 45 49  1  0  0  0  0
 46 51  1  0  0  0  0
 47 66  1  0  0  0  0
 48 51  1  0  0  0  0
 48 66  1  0  0  0  0
 49 71  1  0  0  0  0
 50 65  1  0  0  0  0
 51 64  1  0  0  0  0
 52 61  1  0  0  0  0
 53 62  1  0  0  0  0
 54 62  1  0  0  0  0
 55 62  1  0  0  0  0
 56 73  1  0  0  0  0
 57 58  1  0  0  0  0
 57 59  1  0  0  0  0
 58 70  1  0  0  0  0
 59 81  1  0  0  0  0
 60 62  1  0  0  0  0
 60 72  1  0  0  0  0
 61 73  1  0  0  0  0
 63 64  1  0  0  0  0
M  CHG  1  73   1
M  ISO  4  39 100  59 101  69 100  81 101
M  END
> <Batch ID>
0003

> <Smiles>
CNC(C)C(=O)NC(C(=O)N1Cc2cc([101O:1][101CH2:1]CCNC(=O)c3ccccc3[100NH:0][100C:0](=O)N3CCCC(n4nc(-c5ccc(Oc6ccc(F)cc6F)cc5)c(C(N)=O)c4N)C3)ccc2CC1C(=O)NC1CCCc2ccccc21)C(C)(C)C

> <Shape>
0.197

> <Color>
0.071

> <Negative vol penalty>
0.000

$$$$

  -OEChem-04052315213D

 81 89  0     1  0  0  0  0  0999 V2000
  -28.3984  -13.1529   17.7264 C   0  0  0  0  0  0  0  0  0  0  0  0
  -27.8552  -14.4192   17.5350 C   0  0  0  0  0  0  0  0  0  0  0  0
  -18.5991  -28.9786   23.9828 C   0  0  0  0  0  0  0  0  0  0  0  0
  -17.8450  -27.8792   23.5727 C   0  0  0  0  0  0  0  0  0  0  0  0
  -29.2065  -24.6519   19.5734 C   0  0  0  0  0  0  0  0  0  0  0  0
  -27.4551  -23.3939   20.6630 C   0  0  0  0  0  0  0  0  0  0  0  0
  -27.8081  -12.2719   18.6316 C   0  0  0  0  0  0  0  0  0  0  0  0
  -26.7207  -14.8050   18.2480 C   0  0  0  0  0  0  0  0  0  0  0  0
  -25.4093  -20.4147   20.3259 C   0  0  0  0  0  0  0  0  0  0  0  0
  -19.8204  -29.2549   23.3682 C   0  0  0  0  0  0  0  0  0  0  0  0
  -18.3123  -27.0560   22.5482 C   0  0  0  0  0  0  0  0  0  0  0  0
  -30.1481  -23.7213   20.0124 C   0  0  0  0  0  0  0  0  0  0  0  0
  -28.3967  -22.4632   21.1019 C   0  0  0  0  0  0  0  0  0  0  0  0
  -24.5985  -21.4337   19.8278 C   0  0  0  0  0  0  0  0  0  0  0  0
  -30.2892  -19.5617   22.2054 C   0  0  0  0  0  0  0  0  0  0  0  0
  -29.9746  -18.2090   22.0754 C   0  0  0  0  0  0  0  0  0  0  0  0
  -22.7965  -20.6848   21.2461 C   0  0  0  0  0  0  0  0  0  0  0  0
  -29.7787  -18.4845   19.6831 C   0  0  0  0  0  0  0  0  0  0  0  0
  -27.8599  -24.4883   19.8987 C   0  0  0  0  0  0  0  0  0  0  0  0
  -26.1588  -25.4197   18.2415 C   0  0  0  0  0  0  0  0  0  0  0  0
  -26.6714  -12.6506   19.3632 C   0  0  0  0  0  0  0  0  0  0  0  0
  -24.9155  -19.5150   21.2814 C   0  0  0  0  0  0  0  0  0  0  0  0
  -26.1138  -13.9279   19.1628 C   0  0  0  0  0  0  0  0  0  0  0  0
  -23.6039  -19.6569   21.7565 C   0  0  0  0  0  0  0  0  0  0  0  0
  -20.2877  -28.4317   22.3437 C   0  0  0  0  0  0  0  0  0  0  0  0
  -29.7432  -22.6269   20.7766 C   0  0  0  0  0  0  0  0  0  0  0  0
  -23.2910  -21.5671   20.2857 C   0  0  0  0  0  0  0  0  0  0  0  0
  -19.5336  -27.3322   21.9337 C   0  0  0  0  0  0  0  0  0  0  0  0
  -30.3485  -20.3758   21.0743 C   0  0  0  0  0  0  0  0  0  0  0  0
  -29.7193  -17.6704   20.8143 C   0  0  0  0  0  0  0  0  0  0  0  0
  -30.0933  -19.8372   19.8132 C   0  0  0  0  0  0  0  0  0  0  0  0
  -26.8868  -25.4497   19.4460 C   0  0  0  0  0  0  0  0  0  0  0  0
  -25.3754  -26.5470   18.2857 C   0  0  0  0  0  0  0  0  0  0  0  0
  -26.1880  -24.4587   17.1779 C   0  0  0  0  0  0  0  0  0  0  0  0
  -24.4388  -16.3735   21.3688 C   0  0  0  0  0  0  0  0  0  0  0  0
  -23.7002  -16.9647   24.4716 C   0  0  0  0  0  0  0  0  0  0  0  0
  -22.6385  -19.1999   26.8218 C   0  0  0  0  0  0  0  0  0  0  0  0
  -22.3922  -29.7801   22.0283 C   0  0  0  0  0  0  0  0  0  0  0  0
  -26.0405  -11.6470   20.2955 C   0  0  0  0  0  0  0  0  0  0  0  0
  -25.8114  -18.4376   21.8283 C   0  0  0  0  0  0  0  0  0  0  0  0
  -23.0325  -18.7294   22.7966 C   0  0  0  0  0  0  0  0  0  0  0  0
  -25.0609  -12.2688   21.2874 C   0  0  0  0  0  0  0  0  0  0  0  0
  -25.5565  -30.8215   20.7715 C   0  0  0  0  0  0  0  0  0  0  0  0
  -24.1203  -13.2351   20.5742 C   0  0  0  0  0  0  0  0  0  0  0  0
  -26.1524  -29.5405   20.1832 C   0  0  0  0  0  0  0  0  0  0  0  0
  -24.7570  -30.5432   22.0431 C   0  0  0  0  0  0  0  0  0  0  0  0
  -24.3185  -28.2281   21.3242 C   0  0  0  0  0  0  0  0  0  0  0  0
  -24.8984  -14.3921   19.9358 C   0  0  1  0  0  0  0  0  0  0  0  0
  -25.0398  -17.2624   22.4206 C   0  0  1  0  0  0  0  0  0  0  0  0
  -25.0786  -28.4491   20.0061 C   0  0  2  0  0  0  0  0  0  0  0  0
  -22.0955  -19.3805   29.2651 C   0  0  0  0  0  0  0  0  0  0  0  0
  -21.0613  -15.5107   23.9902 C   0  0  0  0  0  0  0  0  0  0  0  0
  -20.1934  -16.5312   26.1053 C   0  0  0  0  0  0  0  0  0  0  0  0
  -22.1545  -14.9912   26.1787 C   0  0  0  0  0  0  0  0  0  0  0  0
  -24.7395  -21.2384   27.2567 C   0  0  0  0  0  0  0  0  0  0  0  0
  -21.2482  -24.5460   20.3658 C   0  0  0  0  0  0  0  0  0  0  0  0
  -21.4967  -23.0783   20.6766 C   0  0  0  0  0  0  0  0  0  1  0  0
  -20.1731  -25.1428   21.2604 C   0  0  0  0  0  0  0  0  0  0  0  0
  -22.4379  -17.3143   25.2222 C   0  0  1  0  0  0  0  0  0  0  0  0
  -23.1713  -19.5396   28.2021 C   0  0  2  0  0  0  0  0  0  0  0  0
  -21.4716  -16.1033   25.3530 C   0  0  0  0  0  0  0  0  0  0  0  0
  -26.5923  -26.5120   20.2002 N   0  0  0  0  0  0  0  0  0  0  0  0
  -25.6706  -27.1600   19.4677 N   0  0  0  0  0  0  0  0  0  0  0  0
  -23.9457  -17.6881   23.2959 N   0  0  0  0  0  0  0  0  0  0  0  0
  -23.7563  -29.5023   21.7985 N   0  0  0  0  0  0  0  0  0  0  0  0
  -24.4697  -27.0638   17.4283 N   0  0  0  0  0  0  0  0  0  0  0  0
  -27.0503  -23.3599   17.2937 N   0  0  0  0  0  0  0  0  0  0  0  0
  -21.5306  -28.7251   21.7298 N   0  0  0  0  0  0  0  0  0  0  0  0
  -25.2772  -15.3619   20.9409 N   0  0  0  0  0  0  0  0  0  0  0  0
  -22.8647  -17.8788   26.4979 N   0  0  0  0  0  0  0  0  0  0  0  0
  -23.6614  -20.9466   28.2362 N   0  3  0  0  0  0  0  0  0  0  0  0
  -25.4826  -24.5797   16.1477 O   0  0  0  0  0  0  0  0  0  0  0  0
  -23.2982  -16.5885   20.9756 O   0  0  0  0  0  0  0  0  0  0  0  0
  -24.4447  -16.0873   24.9159 O   0  0  0  0  0  0  0  0  0  0  0  0
  -22.0744  -20.0231   26.1043 O   0  0  0  0  0  0  0  0  0  0  0  0
  -22.0135  -30.8825   22.4325 O   0  0  0  0  0  0  0  0  0  0  0  0
  -30.6618  -21.7184   21.2049 O   0  0  0  0  0  0  0  0  0  0  0  0
  -22.4972  -22.5604   19.8008 O   0  0  0  0  0  0  0  0  0  1  0  0
  -19.9745  -26.5105   20.9291 O   0  0  0  0  0  0  0  0  0  0  0  0
  -29.4187  -16.3711   20.6894 F   0  0  0  0  0  0  0  0  0  0  0  0
  -30.1499  -20.6141   18.7227 F   0  0  0  0  0  0  0  0  0  0  0  0
  1  2  1  0  0  0  0
  1  7  2  0  0  0  0
  2  8  2  0  0  0  0
  3  4  1  0  0  0  0
  3 10  2  0  0  0  0
  4 11  2  0  0  0  0
  5 12  2  0  0  0  0
  5 19  1  0  0  0  0
  6 13  1  0  0  0  0
  6 19  2  0  0  0  0
  7 21  1  0  0  0  0
  8 23  1  0  0  0  0
  9 14  2  0  0  0  0
  9 22  1  0  0  0  0
 10 25  1  0  0  0  0
 11 28  1  0  0  0  0
 12 26  1  0  0  0  0
 13 26  2  0  0  0  0
 14 27  1  0  0  0  0
 15 16  2  0  0  0  0
 15 29  1  0  0  0  0
 16 30  1  0  0  0  0
 17 24  1  0  0  0  0
 17 27  2  0  0  0  0
 18 30  2  0  0  0  0
 18 31  1  0  0  0  0
 19 32  1  0  0  0  0
 20 32  1  0  0  0  0
 20 33  2  0  0  0  0
 20 34  1  0  0  0  0
 21 23  2  0  0  0  0
 21 39  1  0  0  0  0
 22 24  2  0  0  0  0
 22 40  1  0  0  0  0
 23 48  1  0  0  0  0
 24 41  1  0  0  0  0
 25 28  2  0  0  0  0
 25 68  1  0  0  0  0
 26 77  1  0  0  0  0
 27 78  1  0  0  0  0
 28 79  1  0  0  0  0
 29 31  2  0  0  0  0
 29 77  1  0  0  0  0
 30 80  1  0  0  0  0
 31 81  1  0  0  0  0
 32 62  2  0  0  0  0
 33 63  1  0  0  0  0
 33 66  1  0  0  0  0
 34 67  1  0  0  0  0
 34 72  2  0  0  0  0
 35 49  1  0  0  0  0
 35 69  1  0  0  0  0
 35 73  2  0  0  0  0
 36 59  1  0  0  0  0
 36 64  1  0  0  0  0
 36 74  2  0  0  0  0
 37 60  1  0  0  0  0
 37 70  1  0  0  0  0
 37 75  2  0  0  0  0
 38 65  1  0  0  0  0
 38 68  1  0  0  0  0
 38 76  2  0  0  0  0
 39 42  1  0  0  0  0
 40 49  1  0  0  0  0
 41 64  1  0  0  0  0
 42 44  1  0  0  0  0
 43 45  1  0  0  0  0
 43 46  1  0  0  0  0
 44 48  1  0  0  0  0
 45 50  1  0  0  0  0
 46 65  1  0  0  0  0
 47 50  1  0  0  0  0
 47 65  1  0  0  0  0
 48 69  1  0  0  0  0
 49 64  1  0  0  0  0
 50 63  1  0  0  0  0
 51 60  1  0  0  0  0
 52 61  1  0  0  0  0
 53 61  1  0  0  0  0
 54 61  1  0  0  0  0
 55 71  1  0  0  0  0
 56 57  1  0  0  0  0
 56 58  1  0  0  0  0
 57 78  1  0  0  0  0
 58 79  1  0  0  0  0
 59 61  1  0  0  0  0
 59 70  1  0  0  0  0
 60 71  1  0  0  0  0
 62 63  1  0  0  0  0
M  CHG  1  71   1
M  ISO  4  38 100  57 101  68 100  78 101
M  END
> <Batch ID>
0003

> <Smiles>
CNC(C)C(=O)NC(C(=O)N1Cc2cc([101O:1][101CH2:1]CCOc3ccccc3[100NH:0][100C:0](=O)N3CCCC(n4nc(-c5ccc(Oc6ccc(F)cc6F)cc5)c(C(N)=O)c4N)C3)ccc2CC1C(=O)NC1CCCc2ccccc21)C(C)(C)C

> <Shape>
0.228

> <Color>
0.061

> <Negative vol penalty>
0.000

$$$$

  -OEChem-04052315213D

 83 91  0     1  0  0  0  0  0999 V2000
  -33.9208  -25.3539   32.0477 C   0  0  0  0  0  0  0  0  0  0  0  0
  -33.2966  -24.1201   31.8941 C   0  0  0  0  0  0  0  0  0  0  0  0
  -33.8822  -11.6649   24.1037 C   0  0  0  0  0  0  0  0  0  0  0  0
  -23.1564   -9.8646   20.0535 C   0  0  0  0  0  0  0  0  0  0  0  0
  -23.8014   -9.9806   22.3789 C   0  0  0  0  0  0  0  0  0  0  0  0
  -33.4101  -11.6837   25.4161 C   0  0  0  0  0  0  0  0  0  0  0  0
  -33.8724  -26.2915   31.0170 C   0  0  0  0  0  0  0  0  0  0  0  0
  -32.6226  -23.8236   30.7099 C   0  0  0  0  0  0  0  0  0  0  0  0
  -33.6586  -19.1719   28.9973 C   0  0  0  0  0  0  0  0  0  0  0  0
  -33.0328  -12.0086   23.0520 C   0  0  0  0  0  0  0  0  0  0  0  0
  -22.4110   -8.7156   20.3176 C   0  0  0  0  0  0  0  0  0  0  0  0
  -23.0560   -8.8316   22.6430 C   0  0  0  0  0  0  0  0  0  0  0  0
  -33.0145  -18.1051   29.6225 C   0  0  0  0  0  0  0  0  0  0  0  0
  -22.9967   -5.4195   20.7835 C   0  0  0  0  0  0  0  0  0  0  0  0
  -23.1189   -4.3504   19.8961 C   0  0  0  0  0  0  0  0  0  0  0  0
  -31.2392  -12.3897   24.6250 C   0  0  0  0  0  0  0  0  0  0  0  0
  -31.4210  -18.0151   27.8137 C   0  0  0  0  0  0  0  0  0  0  0  0
  -20.7534   -4.4748   19.4204 C   0  0  0  0  0  0  0  0  0  0  0  0
  -23.8517  -10.4971   21.0841 C   0  0  0  0  0  0  0  0  0  0  0  0
  -32.0886  -12.0460   25.6768 C   0  0  0  0  0  0  0  0  0  0  0  0
  -24.1773  -13.0180   20.8689 C   0  0  0  0  0  0  0  0  0  0  0  0
  -33.2057  -26.0027   29.8158 C   0  0  0  0  0  0  0  0  0  0  0  0
  -33.1814  -19.6762   27.7789 C   0  0  0  0  0  0  0  0  0  0  0  0
  -32.5641  -24.7588   29.6626 C   0  0  0  0  0  0  0  0  0  0  0  0
  -32.0624  -19.0867   27.1738 C   0  0  0  0  0  0  0  0  0  0  0  0
  -31.7113  -12.3709   23.3126 C   0  0  0  0  0  0  0  0  0  0  0  0
  -22.3607   -8.1991   21.6123 C   0  0  0  0  0  0  0  0  0  0  0  0
  -31.8938  -17.5284   29.0321 C   0  0  0  0  0  0  0  0  0  0  0  0
  -21.7528   -6.0162   20.9896 C   0  0  0  0  0  0  0  0  0  0  0  0
  -21.9973   -3.8781   19.2145 C   0  0  0  0  0  0  0  0  0  0  0  0
  -20.6312   -5.5439   20.3080 C   0  0  0  0  0  0  0  0  0  0  0  0
  -24.6223  -11.6837   20.8118 C   0  0  0  0  0  0  0  0  0  0  0  0
  -25.2797  -13.7626   20.5268 C   0  0  0  0  0  0  0  0  0  0  0  0
  -31.5871  -12.0656   27.0751 C   0  0  0  0  0  0  0  0  0  0  0  0
  -22.8832  -13.5380   21.2015 C   0  0  0  0  0  0  0  0  0  0  0  0
  -32.0354  -22.4766   26.8051 C   0  0  0  0  0  0  0  0  0  0  0  0
  -32.1036  -21.0509   23.8922 C   0  0  0  0  0  0  0  0  0  0  0  0
  -32.0809  -18.1585   22.0810 C   0  0  0  0  0  0  0  0  0  0  0  0
  -31.1584  -12.7537   20.8848 C   0  0  0  0  0  0  0  0  0  0  0  0
  -33.1400  -27.0659   28.7482 C   0  0  0  0  0  0  0  0  0  0  0  0
  -33.9034  -20.8101   27.1041 C   0  0  0  0  0  0  0  0  0  0  0  0
  -31.5224  -19.5778   25.8563 C   0  0  0  0  0  0  0  0  0  0  0  0
  -32.7245  -26.5308   27.3803 C   0  0  0  0  0  0  0  0  0  0  0  0
  -29.3052  -13.5238   17.9438 C   0  0  0  0  0  0  0  0  0  0  0  0
  -31.5162  -25.6091   27.5121 C   0  0  0  0  0  0  0  0  0  0  0  0
  -27.8530  -13.2666   18.3525 C   0  0  0  0  0  0  0  0  0  0  0  0
  -30.2605  -12.5157   18.5800 C   0  0  0  0  0  0  0  0  0  0  0  0
  -28.7000  -12.1360   20.4481 C   0  0  0  0  0  0  0  0  0  0  0  0
  -31.8443  -24.3906   28.3834 C   0  0  1  0  0  0  0  0  0  0  0  0
  -33.0248  -21.5767   26.1203 C   0  0  1  0  0  0  0  0  0  0  0  0
  -27.7079  -13.1660   19.8837 C   0  0  2  0  0  0  0  0  0  0  0  0
  -32.1069  -17.3136   19.7183 C   0  0  0  0  0  0  0  0  0  0  0  0
  -29.1632  -21.8084   23.5915 C   0  0  0  0  0  0  0  0  0  0  0  0
  -29.0022  -20.1589   21.7149 C   0  0  0  0  0  0  0  0  0  0  0  0
  -30.5366  -22.1165   21.5243 C   0  0  0  0  0  0  0  0  0  0  0  0
  -34.6316  -16.7177   22.5016 C   0  0  0  0  0  0  0  0  0  0  0  0
  -30.6553  -14.1728   29.4629 C   0  0  0  0  0  0  0  0  0  0  0  0
  -29.9626  -13.0911   28.6452 C   0  0  0  0  0  0  0  0  0  0  0  0
  -30.6073  -15.5422   28.7961 C   0  0  0  0  0  0  0  0  0  1  0  0
  -31.1349  -20.2202   23.0856 C   0  0  1  0  0  0  0  0  0  0  0  0
  -32.9487  -17.6844   20.9293 C   0  0  2  0  0  0  0  0  0  0  0  0
  -29.9680  -21.0678   22.5049 C   0  0  0  0  0  0  0  0  0  0  0  0
  -25.9072  -11.5832   20.4610 N   0  0  0  0  0  0  0  0  0  0  0  0
  -26.2789  -12.8639   20.2944 N   0  0  0  0  0  0  0  0  0  0  0  0
  -32.2592  -20.6929   25.2389 N   0  0  0  0  0  0  0  0  0  0  0  0
  -30.0691  -12.4779   20.0315 N   0  0  0  0  0  0  0  0  0  0  0  0
  -25.4820  -15.0917   20.4051 N   0  0  0  0  0  0  0  0  0  0  0  0
  -21.8637  -12.6337   21.5286 N   0  0  0  0  0  0  0  0  0  0  0  0
  -30.8488  -12.7203   22.2441 N   0  0  0  0  0  0  0  0  0  0  0  0
  -30.5390  -12.9406   27.3378 N   0  0  0  0  0  0  0  0  0  0  0  0
  -32.6128  -23.4229   27.6302 N   0  0  0  0  0  0  0  0  0  0  0  0
  -31.9311  -19.5292   22.0771 N   0  0  0  0  0  0  0  0  0  0  0  0
  -33.7404  -16.4889   21.3353 N   0  3  0  0  0  0  0  0  0  0  0  0
  -32.1202  -11.3440   27.9138 O   0  0  0  0  0  0  0  0  0  0  0  0
  -22.6338  -14.7674   21.1923 O   0  0  0  0  0  0  0  0  0  0  0  0
  -30.8370  -22.3247   26.5991 O   0  0  0  0  0  0  0  0  0  0  0  0
  -32.7055  -21.9786   23.3457 O   0  0  0  0  0  0  0  0  0  0  0  0
  -31.5824  -17.3895   22.8999 O   0  0  0  0  0  0  0  0  0  0  0  0
  -32.2766  -13.0279   20.4418 O   0  0  0  0  0  0  0  0  0  0  0  0
  -21.6333   -7.0781   21.8704 O   0  0  0  0  0  0  0  0  0  0  0  0
  -31.2629  -16.4875   29.6405 O   0  0  0  0  0  0  0  0  0  1  0  0
  -22.1151   -2.8524   18.3611 F   0  0  0  0  0  0  0  0  0  0  0  0
  -19.4338   -6.1139   20.5009 F   0  0  0  0  0  0  0  0  0  0  0  0
  1  2  1  0  0  0  0
  1  7  2  0  0  0  0
  2  8  2  0  0  0  0
  3  6  2  0  0  0  0
  3 10  1  0  0  0  0
  4 11  2  0  0  0  0
  4 19  1  0  0  0  0
  5 12  1  0  0  0  0
  5 19  2  0  0  0  0
  6 20  1  0  0  0  0
  7 22  1  0  0  0  0
  8 24  1  0  0  0  0
  9 13  2  0  0  0  0
  9 23  1  0  0  0  0
 10 26  2  0  0  0  0
 11 27  1  0  0  0  0
 12 27  2  0  0  0  0
 13 28  1  0  0  0  0
 14 15  2  0  0  0  0
 14 29  1  0  0  0  0
 15 30  1  0  0  0  0
 16 20  2  0  0  0  0
 16 26  1  0  0  0  0
 17 25  1  0  0  0  0
 17 28  2  0  0  0  0
 18 30  2  0  0  0  0
 18 31  1  0  0  0  0
 19 32  1  0  0  0  0
 20 34  1  0  0  0  0
 21 32  1  0  0  0  0
 21 33  2  0  0  0  0
 21 35  1  0  0  0  0
 22 24  2  0  0  0  0
 22 40  1  0  0  0  0
 23 25  2  0  0  0  0
 23 41  1  0  0  0  0
 24 49  1  0  0  0  0
 25 42  1  0  0  0  0
 26 69  1  0  0  0  0
 27 80  1  0  0  0  0
 28 81  1  0  0  0  0
 29 31  2  0  0  0  0
 29 80  1  0  0  0  0
 30 82  1  0  0  0  0
 31 83  1  0  0  0  0
 32 63  2  0  0  0  0
 33 64  1  0  0  0  0
 33 67  1  0  0  0  0
 34 70  1  0  0  0  0
 34 74  2  0  0  0  0
 35 68  1  0  0  0  0
 35 75  2  0  0  0  0
 36 50  1  0  0  0  0
 36 71  1  0  0  0  0
 36 76  2  0  0  0  0
 37 60  1  0  0  0  0
 37 65  1  0  0  0  0
 37 77  2  0  0  0  0
 38 61  1  0  0  0  0
 38 72  1  0  0  0  0
 38 78  2  0  0  0  0
 39 66  1  0  0  0  0
 39 69  1  0  0  0  0
 39 79  2  0  0  0  0
 40 43  1  0  0  0  0
 41 50  1  0  0  0  0
 42 65  1  0  0  0  0
 43 45  1  0  0  0  0
 44 46  1  0  0  0  0
 44 47  1  0  0  0  0
 45 49  1  0  0  0  0
 46 51  1  0  0  0  0
 47 66  1  0  0  0  0
 48 51  1  0  0  0  0
 48 66  1  0  0  0  0
 49 71  1  0  0  0  0
 50 65  1  0  0  0  0
 51 64  1  0  0  0  0
 52 61  1  0  0  0  0
 53 62  1  0  0  0  0
 54 62  1  0  0  0  0
 55 62  1  0  0  0  0
 56 73  1  0  0  0  0
 57 58  1  0  0  0  0
 57 59  1  0  0  0  0
 58 70  1  0  0  0  0
 59 81  1  0  0  0  0
 60 62  1  0  0  0  0
 60 72  1  0  0  0  0
 61 73  1  0  0  0  0
 63 64  1  0  0  0  0
M  CHG  1  73   1
M  ISO  4  39 100  59 101  69 100  81 101
M  END
> <Batch ID>
0003

> <Smiles>
CNC(C)C(=O)NC(C(=O)N1Cc2cc([101O:1][101CH2:1]CCNC(=O)c3cccc([100NH:0][100C:0](=O)N4CCCC(n5nc(-c6ccc(Oc7ccc(F)cc7F)cc6)c(C(N)=O)c5N)C4)c3)ccc2CC1C(=O)NC1CCCc2ccccc21)C(C)(C)C

> <Shape>
0.142

> <Color>
0.167

> <Negative vol penalty>
0.000

$$$$

  -OEChem-04052315213D

 82 90  0     1  0  0  0  0  0999 V2000
  -18.0559  -25.2788   21.6922 C   0  0  0  0  0  0  0  0  0  0  0  0
  -19.3124  -24.7971   22.0453 C   0  0  0  0  0  0  0  0  0  0  0  0
  -23.7189   -9.8738   21.6223 C   0  0  0  0  0  0  0  0  0  0  0  0
  -24.2642  -11.0080   23.6847 C   0  0  0  0  0  0  0  0  0  0  0  0
  -17.9327  -26.5379   21.1062 C   0  0  0  0  0  0  0  0  0  0  0  0
  -20.4466  -25.5739   21.8116 C   0  0  0  0  0  0  0  0  0  0  0  0
  -25.4882  -25.8638   25.2762 C   0  0  0  0  0  0  0  0  0  0  0  0
  -31.4390  -20.0003   21.4728 C   0  0  0  0  0  0  0  0  0  0  0  0
  -29.0957  -20.5665   21.6335 C   0  0  0  0  0  0  0  0  0  0  0  0
  -31.0996  -18.7177   21.0424 C   0  0  0  0  0  0  0  0  0  0  0  0
  -28.7564  -19.2838   21.2030 C   0  0  0  0  0  0  0  0  0  0  0  0
  -23.1738   -8.8150   22.3487 C   0  0  0  0  0  0  0  0  0  0  0  0
  -23.7191   -9.9492   24.4111 C   0  0  0  0  0  0  0  0  0  0  0  0
  -26.7341  -25.2467   25.1728 C   0  0  0  0  0  0  0  0  0  0  0  0
  -24.3015   -6.1234   24.0540 C   0  0  0  0  0  0  0  0  0  0  0  0
  -24.6318   -4.8279   23.6565 C   0  0  0  0  0  0  0  0  0  0  0  0
  -27.6045  -27.2036   24.0628 C   0  0  0  0  0  0  0  0  0  0  0  0
  -22.2954   -4.3517   23.2670 C   0  0  0  0  0  0  0  0  0  0  0  0
  -24.2641  -10.9702   22.2903 C   0  0  0  0  0  0  0  0  0  0  0  0
  -24.1591  -13.2156   21.0842 C   0  0  0  0  0  0  0  0  0  0  0  0
  -19.0650  -27.3345   20.8740 C   0  0  0  0  0  0  0  0  0  0  0  0
  -25.2878  -27.1533   24.7631 C   0  0  0  0  0  0  0  0  0  0  0  0
  -20.3385  -26.8443   21.2207 C   0  0  0  0  0  0  0  0  0  0  0  0
  -26.3557  -27.8359   24.1632 C   0  0  0  0  0  0  0  0  0  0  0  0
  -30.4370  -20.9247   21.7684 C   0  0  0  0  0  0  0  0  0  0  0  0
  -29.7583  -18.3595   20.9074 C   0  0  0  0  0  0  0  0  0  0  0  0
  -23.1739   -8.8528   23.7430 C   0  0  0  0  0  0  0  0  0  0  0  0
  -27.7917  -25.9155   24.5635 C   0  0  0  0  0  0  0  0  0  0  0  0
  -22.9681   -6.5331   24.0580 C   0  0  0  0  0  0  0  0  0  0  0  0
  -23.6288   -3.9420   23.2630 C   0  0  0  0  0  0  0  0  0  0  0  0
  -21.9651   -5.6473   23.6645 C   0  0  0  0  0  0  0  0  0  0  0  0
  -24.8278  -12.0639   21.5406 C   0  0  0  0  0  0  0  0  0  0  0  0
  -25.1274  -13.9388   20.4315 C   0  0  0  0  0  0  0  0  0  0  0  0
  -22.7857  -13.5977   21.2367 C   0  0  0  0  0  0  0  0  0  0  0  0
  -23.4280  -28.4073   22.5109 C   0  0  0  0  0  0  0  0  0  0  0  0
  -24.6307  -31.2066   23.6244 C   0  0  0  0  0  0  0  0  0  0  0  0
  -29.9171  -23.2650   22.5409 C   0  0  0  0  0  0  0  0  0  0  0  0
  -27.1510  -32.8340   25.2511 C   0  0  0  0  0  0  0  0  0  0  0  0
  -30.2835  -16.0196   20.1357 C   0  0  0  0  0  0  0  0  0  0  0  0
  -18.8866  -28.6692   20.1947 C   0  0  0  0  0  0  0  0  0  0  0  0
  -23.9449  -27.8155   24.9064 C   0  0  0  0  0  0  0  0  0  0  0  0
  -26.1980  -29.2296   23.6145 C   0  0  0  0  0  0  0  0  0  0  0  0
  -20.1008  -29.5855   20.3239 C   0  0  0  0  0  0  0  0  0  0  0  0
  -29.8265  -12.6588   19.0525 C   0  0  0  0  0  0  0  0  0  0  0  0
  -21.3830  -28.8193   20.0148 C   0  0  0  0  0  0  0  0  0  0  0  0
  -28.4303  -12.2992   19.5657 C   0  0  0  0  0  0  0  0  0  0  0  0
  -30.5787  -13.5543   20.0353 C   0  0  0  0  0  0  0  0  0  0  0  0
  -28.4610  -14.4045   20.9635 C   0  0  0  0  0  0  0  0  0  0  0  0
  -21.5900  -27.6675   21.0058 C   0  0  1  0  0  0  0  0  0  0  0  0
  -23.7167  -28.9299   23.8898 C   0  0  1  0  0  0  0  0  0  0  0  0
  -27.6402  -13.5567   19.9780 C   0  0  2  0  0  0  0  0  0  0  0  0
  -27.8708  -35.1264   25.9754 C   0  0  0  0  0  0  0  0  0  0  0  0
  -25.4357  -31.8581   20.7543 C   0  0  0  0  0  0  0  0  0  0  0  0
  -26.9465  -33.6392   21.6561 C   0  0  0  0  0  0  0  0  0  0  0  0
  -24.4851  -33.7850   22.0341 C   0  0  0  0  0  0  0  0  0  0  0  0
  -27.1326  -32.0636   28.1085 C   0  0  0  0  0  0  0  0  0  0  0  0
  -30.7058  -24.5000   22.9613 C   0  0  0  0  0  0  0  0  0  0  0  0
  -29.8179  -25.6751   23.3417 C   0  0  0  0  0  0  0  0  0  1  0  0
  -25.8330  -32.0590   23.2975 C   0  0  1  0  0  0  0  0  0  0  0  0
  -27.1306  -33.8583   26.3713 C   0  0  2  0  0  0  0  0  0  0  0  0
  -25.6778  -32.8083   21.9440 C   0  0  0  0  0  0  0  0  0  0  0  0
  -26.1208  -12.0518   21.2060 N   0  0  0  0  0  0  0  0  0  0  0  0
  -26.2724  -13.2047   20.5323 N   0  0  0  0  0  0  0  0  0  0  0  0
  -24.8640  -29.8321   23.7730 N   0  0  0  0  0  0  0  0  0  0  0  0
  -29.7712  -14.7273   20.3769 N   0  0  0  0  0  0  0  0  0  0  0  0
  -25.1024  -15.1246   19.7868 N   0  0  0  0  0  0  0  0  0  0  0  0
  -21.9268  -12.7384   21.9355 N   0  0  0  0  0  0  0  0  0  0  0  0
  -30.7811  -22.2260   22.2056 N   0  0  0  0  0  0  0  0  0  0  0  0
  -29.4132  -17.0566   20.4702 N   0  0  0  0  0  0  0  0  0  0  0  0
  -22.0885  -28.1703   22.2681 N   0  0  0  0  0  0  0  0  0  0  0  0
  -26.0363  -32.9356   24.4459 N   0  0  0  0  0  0  0  0  0  0  0  0
  -27.7742  -33.3010   27.5945 N   0  3  0  0  0  0  0  0  0  0  0  0
  -22.3296  -14.6615   20.7531 O   0  0  0  0  0  0  0  0  0  0  0  0
  -24.3520  -28.2336   21.7249 O   0  0  0  0  0  0  0  0  0  0  0  0
  -23.5264  -31.7417   23.7506 O   0  0  0  0  0  0  0  0  0  0  0  0
  -28.6909  -23.2493   22.5204 O   0  0  0  0  0  0  0  0  0  0  0  0
  -28.0663  -32.0273   25.1028 O   0  0  0  0  0  0  0  0  0  0  0  0
  -31.4005  -16.1930   19.6416 O   0  0  0  0  0  0  0  0  0  0  0  0
  -22.6419   -7.8200   24.4521 O   0  0  0  0  0  0  0  0  0  0  0  0
  -29.0087  -25.3153   24.4607 O   0  0  0  0  0  0  0  0  0  1  0  0
  -23.9463   -2.6984   22.8799 F   0  0  0  0  0  0  0  0  0  0  0  0
  -20.6825   -6.0355   23.6652 F   0  0  0  0  0  0  0  0  0  0  0  0
  1  2  1  0  0  0  0
  1  5  2  0  0  0  0
  2  6  2  0  0  0  0
  3 12  2  0  0  0  0
  3 19  1  0  0  0  0
  4 13  1  0  0  0  0
  4 19  2  0  0  0  0
  5 21  1  0  0  0  0
  6 23  1  0  0  0  0
  7 14  2  0  0  0  0
  7 22  1  0  0  0  0
  8 10  2  0  0  0  0
  8 25  1  0  0  0  0
  9 11  1  0  0  0  0
  9 25  2  0  0  0  0
 10 26  1  0  0  0  0
 11 26  2  0  0  0  0
 12 27  1  0  0  0  0
 13 27  2  0  0  0  0
 14 28  1  0  0  0  0
 15 16  2  0  0  0  0
 15 29  1  0  0  0  0
 16 30  1  0  0  0  0
 17 24  1  0  0  0  0
 17 28  2  0  0  0  0
 18 30  2  0  0  0  0
 18 31  1  0  0  0  0
 19 32  1  0  0  0  0
 20 32  1  0  0  0  0
 20 33  2  0  0  0  0
 20 34  1  0  0  0  0
 21 23  2  0  0  0  0
 21 40  1  0  0  0  0
 22 24  2  0  0  0  0
 22 41  1  0  0  0  0
 23 49  1  0  0  0  0
 24 42  1  0  0  0  0
 25 68  1  0  0  0  0
 26 69  1  0  0  0  0
 27 79  1  0  0  0  0
 28 80  1  0  0  0  0
 29 31  2  0  0  0  0
 29 79  1  0  0  0  0
 30 81  1  0  0  0  0
 31 82  1  0  0  0  0
 32 62  2  0  0  0  0
 33 63  1  0  0  0  0
 33 66  1  0  0  0  0
 34 67  1  0  0  0  0
 34 73  2  0  0  0  0
 35 50  1  0  0  0  0
 35 70  1  0  0  0  0
 35 74  2  0  0  0  0
 36 59  1  0  0  0  0
 36 64  1  0  0  0  0
 36 75  2  0  0  0  0
 37 57  1  0  0  0  0
 37 68  1  0  0  0  0
 37 76  2  0  0  0  0
 38 60  1  0  0  0  0
 38 71  1  0  0  0  0
 38 77  2  0  0  0  0
 39 65  1  0  0  0  0
 39 69  1  0  0  0  0
 39 78  2  0  0  0  0
 40 43  1  0  0  0  0
 41 50  1  0  0  0  0
 42 64  1  0  0  0  0
 43 45  1  0  0  0  0
 44 46  1  0  0  0  0
 44 47  1  0  0  0  0
 45 49  1  0  0  0  0
 46 51  1  0  0  0  0
 47 65  1  0  0  0  0
 48 51  1  0  0  0  0
 48 65  1  0  0  0  0
 49 70  1  0  0  0  0
 50 64  1  0  0  0  0
 51 63  1  0  0  0  0
 52 60  1  0  0  0  0
 53 61  1  0  0  0  0
 54 61  1  0  0  0  0
 55 61  1  0  0  0  0
 56 72  1  0  0  0  0
 57 58  1  0  0  0  0
 58 80  1  0  0  0  0
 59 61  1  0  0  0  0
 59 71  1  0  0  0  0
 60 72  1  0  0  0  0
 62 63  1  0  0  0  0
M  CHG  1  72   1
M  ISO  4  39 100  58 101  69 100  80 101
M  END
> <Batch ID>
0003

> <Smiles>
CNC(C)C(=O)NC(C(=O)N1Cc2cc([101O:1][101CH2:1]CC(=O)Nc3ccc([100NH:0][100C:0](=O)N4CCCC(n5nc(-c6ccc(Oc7ccc(F)cc7F)cc6)c(C(N)=O)c5N)C4)cc3)ccc2CC1C(=O)NC1CCCc2ccccc21)C(C)(C)C

> <Shape>
0.282

> <Color>
0.134

> <Negative vol penalty>
0.000

$$$$

  -OEChem-04052315213D

 86 94  0     1  0  0  0  0  0999 V2000
  -35.7395  -34.2561   16.8897 C   0  0  0  0  0  0  0  0  0  0  0  0
  -36.2558  -32.9709   17.0206 C   0  0  0  0  0  0  0  0  0  0  0  0
  -23.0966   -9.8369   19.9878 C   0  0  0  0  0  0  0  0  0  0  0  0
  -23.8231   -9.9305   22.2901 C   0  0  0  0  0  0  0  0  0  0  0  0
  -34.7468  -34.6995   17.7625 C   0  0  0  0  0  0  0  0  0  0  0  0
  -35.7804  -32.1287   18.0252 C   0  0  0  0  0  0  0  0  0  0  0  0
  -34.5133  -25.2082   19.3734 C   0  0  0  0  0  0  0  0  0  0  0  0
  -32.5814  -17.6375   23.3602 C   0  0  0  0  0  0  0  0  0  0  0  0
  -32.0119  -16.7167   22.4808 C   0  0  0  0  0  0  0  0  0  0  0  0
  -22.3548   -8.6895   20.2685 C   0  0  0  0  0  0  0  0  0  0  0  0
  -23.0812   -8.7831   22.5708 C   0  0  0  0  0  0  0  0  0  0  0  0
  -34.7976  -24.2259   20.3211 C   0  0  0  0  0  0  0  0  0  0  0  0
  -19.8485   -7.9901   23.1553 C   0  0  0  0  0  0  0  0  0  0  0  0
  -19.0749   -7.9883   24.3159 C   0  0  0  0  0  0  0  0  0  0  0  0
  -33.0247  -25.0720   21.7212 C   0  0  0  0  0  0  0  0  0  0  0  0
  -29.8151  -17.5745   23.0053 C   0  0  0  0  0  0  0  0  0  0  0  0
  -20.3148   -6.0853   25.1395 C   0  0  0  0  0  0  0  0  0  0  0  0
  -23.8308  -10.4574   20.9986 C   0  0  0  0  0  0  0  0  0  0  0  0
  -24.1621  -12.9784   20.7926 C   0  0  0  0  0  0  0  0  0  0  0  0
  -34.2522  -33.8591   18.7722 C   0  0  0  0  0  0  0  0  0  0  0  0
  -33.4880  -26.1382   19.5979 C   0  0  0  0  0  0  0  0  0  0  0  0
  -34.7811  -32.5619   18.9132 C   0  0  0  0  0  0  0  0  0  0  0  0
  -32.7277  -26.0635   20.7737 C   0  0  0  0  0  0  0  0  0  0  0  0
  -31.7678  -18.5268   24.0622 C   0  0  0  0  0  0  0  0  0  0  0  0
  -30.3846  -18.4953   23.8847 C   0  0  0  0  0  0  0  0  0  0  0  0
  -30.6288  -16.6851   22.3034 C   0  0  0  0  0  0  0  0  0  0  0  0
  -22.3471   -8.1626   21.5600 C   0  0  0  0  0  0  0  0  0  0  0  0
  -34.0552  -24.1594   21.4964 C   0  0  0  0  0  0  0  0  0  0  0  0
  -20.8553   -7.0395   22.9867 C   0  0  0  0  0  0  0  0  0  0  0  0
  -19.3080   -7.0359   25.3080 C   0  0  0  0  0  0  0  0  0  0  0  0
  -21.0885   -6.0871   23.9788 C   0  0  0  0  0  0  0  0  0  0  0  0
  -24.5978  -11.6423   20.7092 C   0  0  0  0  0  0  0  0  0  0  0  0
  -25.2557  -13.7202   20.4182 C   0  0  0  0  0  0  0  0  0  0  0  0
  -22.8831  -13.5021   21.1743 C   0  0  0  0  0  0  0  0  0  0  0  0
  -33.3535  -29.2996   19.8995 C   0  0  0  0  0  0  0  0  0  0  0  0
  -30.1538  -28.7687   19.9460 C   0  0  0  0  0  0  0  0  0  0  0  0
  -33.4704  -21.3079   23.6586 C   0  0  0  0  0  0  0  0  0  0  0  0
  -27.5843  -26.6057   20.5513 C   0  0  0  0  0  0  0  0  0  0  0  0
  -30.7136  -14.8008   20.6335 C   0  0  0  0  0  0  0  0  0  0  0  0
  -33.2122  -34.3992   19.7217 C   0  0  0  0  0  0  0  0  0  0  0  0
  -33.1762  -27.1751   18.5538 C   0  0  0  0  0  0  0  0  0  0  0  0
  -31.6031  -27.0256   21.0534 C   0  0  0  0  0  0  0  0  0  0  0  0
  -32.4972  -33.3145   20.5231 C   0  0  0  0  0  0  0  0  0  0  0  0
  -29.6455  -12.2974   18.3381 C   0  0  0  0  0  0  0  0  0  0  0  0
  -33.5043  -32.3215   21.0944 C   0  0  0  0  0  0  0  0  0  0  0  0
  -28.2012  -12.0137   18.7572 C   0  0  0  0  0  0  0  0  0  0  0  0
  -30.5420  -12.5742   19.5437 C   0  0  0  0  0  0  0  0  0  0  0  0
  -28.6116  -13.3376   20.8704 C   0  0  0  0  0  0  0  0  0  0  0  0
  -34.2736  -31.6102   19.9747 C   0  0  1  0  0  0  0  0  0  0  0  0
  -32.4474  -28.3908   19.1180 C   0  0  1  0  0  0  0  0  0  0  0  0
  -27.6569  -13.1168   19.6858 C   0  0  2  0  0  0  0  0  0  0  0  0
  -25.0786  -26.4704   20.5374 C   0  0  0  0  0  0  0  0  0  0  0  0
  -30.0565  -30.3450   22.5567 C   0  0  0  0  0  0  0  0  0  0  0  0
  -27.7821  -29.3840   22.9711 C   0  0  0  0  0  0  0  0  0  0  0  0
  -28.1796  -30.8278   20.9761 C   0  0  0  0  0  0  0  0  0  0  0  0
  -27.5952  -24.4714   18.5011 C   0  0  0  0  0  0  0  0  0  0  0  0
  -32.4037  -19.5083   25.0037 C   0  0  0  0  0  0  0  0  0  0  0  0
  -33.2434  -22.7399   23.2232 C   0  0  0  0  0  0  0  0  0  1  0  0
  -29.1324  -28.4864   21.0213 C   0  0  1  0  0  0  0  0  0  0  0  0
  -26.3531  -26.2512   19.7372 C   0  0  2  0  0  0  0  0  0  0  0  0
  -29.4939  -19.4391   24.6240 C   0  0  0  0  0  0  0  0  0  0  0  0
  -28.8101  -29.7437   21.8772 C   0  0  0  0  0  0  0  0  0  0  0  0
  -25.8690  -11.5383   20.3128 N   0  0  0  0  0  0  0  0  0  0  0  0
  -26.2415  -12.8185   20.1437 N   0  0  0  0  0  0  0  0  0  0  0  0
  -31.3410  -28.0253   20.0048 N   0  0  0  0  0  0  0  0  0  0  0  0
  -29.9653  -13.6329   20.3752 N   0  0  0  0  0  0  0  0  0  0  0  0
  -25.4607  -15.0493   20.3003 N   0  0  0  0  0  0  0  0  0  0  0  0
  -21.8709  -12.6002   21.5296 N   0  0  0  0  0  0  0  0  0  0  0  0
  -30.0500  -15.7512   21.4087 N   0  0  0  0  0  0  0  0  0  0  0  0
  -33.4563  -30.5753   19.3784 N   0  0  0  0  0  0  0  0  0  0  0  0
  -32.4339  -20.8437   24.4533 N   0  0  0  0  0  0  0  0  0  0  0  0
  -27.9750  -27.9118   20.3441 N   0  0  0  0  0  0  0  0  0  0  0  0
  -26.4040  -24.8225   19.3164 N   0  3  0  0  0  0  0  0  0  0  0  0
  -22.6401  -14.7327   21.1839 O   0  0  0  0  0  0  0  0  0  0  0  0
  -33.9164  -28.8754   20.9019 O   0  0  0  0  0  0  0  0  0  0  0  0
  -29.9042  -29.6125   19.0815 O   0  0  0  0  0  0  0  0  0  0  0  0
  -34.4633  -20.6636   23.3317 O   0  0  0  0  0  0  0  0  0  0  0  0
  -28.1414  -25.8053   21.2993 O   0  0  0  0  0  0  0  0  0  0  0  0
  -31.8486  -14.9587   20.1764 O   0  0  0  0  0  0  0  0  0  0  0  0
  -21.6231   -7.0432   21.8343 O   0  0  0  0  0  0  0  0  0  0  0  0
  -34.3310  -23.2020   22.4233 O   0  0  0  0  0  0  0  0  0  1  0  0
  -18.5660   -7.0352   26.4231 F   0  0  0  0  0  0  0  0  0  0  0  0
  -22.0551   -5.1721   23.8230 F   0  0  0  0  0  0  0  0  0  0  0  0
  -28.1693  -19.2781   24.3356 F   0  0  0  0  0  0  0  0  0  0  0  0
  -29.5816  -19.3207   25.9811 F   0  0  0  0  0  0  0  0  0  0  0  0
  -29.7738  -20.7457   24.3498 F   0  0  0  0  0  0  0  0  0  0  0  0
  1  2  1  0  0  0  0
  1  5  2  0  0  0  0
  2  6  2  0  0  0  0
  3 10  2  0  0  0  0
  3 18  1  0  0  0  0
  4 11  1  0  0  0  0
  4 18  2  0  0  0  0
  5 20  1  0  0  0  0
  6 22  1  0  0  0  0
  7 12  2  0  0  0  0
  7 21  1  0  0  0  0
  8  9  2  0  0  0  0
  8 24  1  0  0  0  0
  9 26  1  0  0  0  0
 10 27  1  0  0  0  0
 11 27  2  0  0  0  0
 12 28  1  0  0  0  0
 13 14  2  0  0  0  0
 13 29  1  0  0  0  0
 14 30  1  0  0  0  0
 15 23  1  0  0  0  0
 15 28  2  0  0  0  0
 16 25  1  0  0  0  0
 16 26  2  0  0  0  0
 17 30  2  0  0  0  0
 17 31  1  0  0  0  0
 18 32  1  0  0  0  0
 19 32  1  0  0  0  0
 19 33  2  0  0  0  0
 19 34  1  0  0  0  0
 20 22  2  0  0  0  0
 20 40  1  0  0  0  0
 21 23  2  0  0  0  0
 21 41  1  0  0  0  0
 22 49  1  0  0  0  0
 23 42  1  0  0  0  0
 24 25  2  0  0  0  0
 24 57  1  0  0  0  0
 25 61  1  0  0  0  0
 26 69  1  0  0  0  0
 27 80  1  0  0  0  0
 28 81  1  0  0  0  0
 29 31  2  0  0  0  0
 29 80  1  0  0  0  0
 30 82  1  0  0  0  0
 31 83  1  0  0  0  0
 32 63  2  0  0  0  0
 33 64  1  0  0  0  0
 33 67  1  0  0  0  0
 34 68  1  0  0  0  0
 34 74  2  0  0  0  0
 35 50  1  0  0  0  0
 35 70  1  0  0  0  0
 35 75  2  0  0  0  0
 36 59  1  0  0  0  0
 36 65  1  0  0  0  0
 36 76  2  0  0  0  0
 37 58  1  0  0  0  0
 37 71  1  0  0  0  0
 37 77  2  0  0  0  0
 38 60  1  0  0  0  0
 38 72  1  0  0  0  0
 38 78  2  0  0  0  0
 39 66  1  0  0  0  0
 39 69  1  0  0  0  0
 39 79  2  0  0  0  0
 40 43  1  0  0  0  0
 41 50  1  0  0  0  0
 42 65  1  0  0  0  0
 43 45  1  0  0  0  0
 44 46  1  0  0  0  0
 44 47  1  0  0  0  0
 45 49  1  0  0  0  0
 46 51  1  0  0  0  0
 47 66  1  0  0  0  0
 48 51  1  0  0  0  0
 48 66  1  0  0  0  0
 49 70  1  0  0  0  0
 50 65  1  0  0  0  0
 51 64  1  0  0  0  0
 52 60  1  0  0  0  0
 53 62  1  0  0  0  0
 54 62  1  0  0  0  0
 55 62  1  0  0  0  0
 56 73  1  0  0  0  0
 57 71  1  0  0  0  0
 58 81  1  0  0  0  0
 59 62  1  0  0  0  0
 59 72  1  0  0  0  0
 60 73  1  0  0  0  0
 61 84  1  0  0  0  0
 61 85  1  0  0  0  0
 61 86  1  0  0  0  0
 63 64  1  0  0  0  0
M  CHG  1  73   1
M  ISO  4  39 100  58 101  69 100  81 101
M  END
> <Batch ID>
0003

> <Smiles>
CNC(C)C(=O)NC(C(=O)N1Cc2cc([101O:1][101CH2:1]C(=O)NCc3ccc([100NH:0][100C:0](=O)N4CCCC(n5nc(-c6ccc(Oc7ccc(F)cc7F)cc6)c(C(N)=O)c5N)C4)cc3C(F)(F)F)ccc2CC1C(=O)NC1CCCc2ccccc21)C(C)(C)C

> <Shape>
0.219

> <Color>
0.192

> <Negative vol penalty>
0.000

$$$$

  -OEChem-04052315213D

 82 90  0     1  0  0  0  0  0999 V2000
  -27.6424  -37.2549   18.5427 C   0  0  0  0  0  0  0  0  0  0  0  0
  -28.0613  -35.9324   18.4374 C   0  0  0  0  0  0  0  0  0  0  0  0
  -24.8488   -7.4690   19.6891 C   0  0  0  0  0  0  0  0  0  0  0  0
  -23.6222   -9.5399   19.4802 C   0  0  0  0  0  0  0  0  0  0  0  0
  -26.8854  -37.6597   19.6413 C   0  0  0  0  0  0  0  0  0  0  0  0
  -27.7244  -35.0143   19.4313 C   0  0  0  0  0  0  0  0  0  0  0  0
  -26.4708  -29.0673   18.6777 C   0  0  0  0  0  0  0  0  0  0  0  0
  -26.9673  -18.0130   20.3904 C   0  0  0  0  0  0  0  0  0  0  0  0
  -29.0011  -18.1195   21.6902 C   0  0  0  0  0  0  0  0  0  0  0  0
  -27.3433  -16.7607   19.9046 C   0  0  0  0  0  0  0  0  0  0  0  0
  -29.3771  -16.8672   21.2045 C   0  0  0  0  0  0  0  0  0  0  0  0
  -23.7825   -6.9082   20.3920 C   0  0  0  0  0  0  0  0  0  0  0  0
  -22.5558   -8.9791   20.1831 C   0  0  0  0  0  0  0  0  0  0  0  0
  -27.2427  -27.9179   18.8414 C   0  0  0  0  0  0  0  0  0  0  0  0
  -22.5422   -7.0114   23.5345 C   0  0  0  0  0  0  0  0  0  0  0  0
  -22.8378   -6.2845   24.6876 C   0  0  0  0  0  0  0  0  0  0  0  0
  -26.3453  -27.6390   21.0631 C   0  0  0  0  0  0  0  0  0  0  0  0
  -21.8239   -4.3214   23.7100 C   0  0  0  0  0  0  0  0  0  0  0  0
  -24.7687   -8.7848   19.2332 C   0  0  0  0  0  0  0  0  0  0  0  0
  -26.0746   -9.3458   17.1149 C   0  0  0  0  0  0  0  0  0  0  0  0
  -26.5308  -36.7439   20.6443 C   0  0  0  0  0  0  0  0  0  0  0  0
  -25.6372  -29.5180   19.7113 C   0  0  0  0  0  0  0  0  0  0  0  0
  -26.9631  -35.4076   20.5450 C   0  0  0  0  0  0  0  0  0  0  0  0
  -25.5619  -28.7930   20.9091 C   0  0  0  0  0  0  0  0  0  0  0  0
  -27.7962  -18.6924   21.2831 C   0  0  0  0  0  0  0  0  0  0  0  0
  -28.5482  -16.1878   20.3117 C   0  0  0  0  0  0  0  0  0  0  0  0
  -22.6360   -7.6633   20.6390 C   0  0  0  0  0  0  0  0  0  0  0  0
  -27.1823  -27.2052   20.0353 C   0  0  0  0  0  0  0  0  0  0  0  0
  -21.8873   -6.3935   22.4691 C   0  0  0  0  0  0  0  0  0  0  0  0
  -22.4787   -4.9395   24.7754 C   0  0  0  0  0  0  0  0  0  0  0  0
  -21.5282   -5.0485   22.5569 C   0  0  0  0  0  0  0  0  0  0  0  0
  -25.8701   -9.3648   18.5075 C   0  0  0  0  0  0  0  0  0  0  0  0
  -27.2534  -10.0265   16.9316 C   0  0  0  0  0  0  0  0  0  0  0  0
  -25.2709   -8.7648   16.0794 C   0  0  0  0  0  0  0  0  0  0  0  0
  -25.4838  -32.1537   21.4814 C   0  0  0  0  0  0  0  0  0  0  0  0
  -22.7611  -30.7824   22.5900 C   0  0  0  0  0  0  0  0  0  0  0  0
  -20.9568  -27.9330   23.1116 C   0  0  0  0  0  0  0  0  0  0  0  0
  -30.0921  -14.2062   20.1217 C   0  0  0  0  0  0  0  0  0  0  0  0
  -25.7513  -37.2389   21.8368 C   0  0  0  0  0  0  0  0  0  0  0  0
  -24.7907  -30.7448   19.5090 C   0  0  0  0  0  0  0  0  0  0  0  0
  -24.6675  -29.2235   22.0418 C   0  0  0  0  0  0  0  0  0  0  0  0
  -25.1190  -36.1188   22.6589 C   0  0  0  0  0  0  0  0  0  0  0  0
  -31.3792  -11.0335   19.1446 C   0  0  0  0  0  0  0  0  0  0  0  0
  -26.1300  -35.0043   22.9092 C   0  0  0  0  0  0  0  0  0  0  0  0
  -30.1318  -10.2458   18.7379 C   0  0  0  0  0  0  0  0  0  0  0  0
  -31.1082  -11.9488   20.3374 C   0  0  0  0  0  0  0  0  0  0  0  0
  -28.7130  -12.0634   19.7726 C   0  0  0  0  0  0  0  0  0  0  0  0
  -26.5967  -34.3764   21.5903 C   0  0  1  0  0  0  0  0  0  0  0  0
  -24.3652  -31.3999   20.8194 C   0  0  1  0  0  0  0  0  0  0  0  0
  -28.9196  -11.1758   18.5344 C   0  0  2  0  0  0  0  0  0  0  0  0
  -18.7833  -27.1256   24.0715 C   0  0  0  0  0  0  0  0  0  0  0  0
  -23.8723  -31.1489   25.4079 C   0  0  0  0  0  0  0  0  0  0  0  0
  -22.1593  -29.5140   26.2209 C   0  0  0  0  0  0  0  0  0  0  0  0
  -21.4352  -31.6588   25.1731 C   0  0  0  0  0  0  0  0  0  0  0  0
  -20.0800  -26.8365   20.5063 C   0  0  0  0  0  0  0  0  0  0  0  0
  -27.3896  -20.0464   21.8082 C   0  0  0  0  0  0  0  0  0  0  0  0
  -27.8783  -21.2169   20.9475 C   0  0  0  0  0  0  0  0  0  0  0  0
  -27.3907  -22.5780   21.4541 C   0  0  0  0  0  0  0  0  0  0  0  0
  -27.9258  -23.7155   20.5860 C   0  0  0  0  0  0  0  0  0  0  0  0
  -27.4130  -25.0695   21.0558 C   0  0  0  0  0  0  0  0  0  1  0  0
  -22.4218  -29.8404   23.7198 C   0  0  1  0  0  0  0  0  0  0  0  0
  -19.5074  -27.5905   22.8176 C   0  0  2  0  0  0  0  0  0  0  0  0
  -22.4906  -30.5333   25.1100 C   0  0  0  0  0  0  0  0  0  0  0  0
  -26.8412  -10.0067   19.1626 N   0  0  0  0  0  0  0  0  0  0  0  0
  -27.6673  -10.3972   18.1772 N   0  0  0  0  0  0  0  0  0  0  0  0
  -23.8641  -30.4329   21.7981 N   0  0  0  0  0  0  0  0  0  0  0  0
  -29.9491  -12.8034   20.0710 N   0  0  0  0  0  0  0  0  0  0  0  0
  -27.9659  -10.3381   15.8281 N   0  0  0  0  0  0  0  0  0  0  0  0
  -24.0908   -8.1015   16.4424 N   0  0  0  0  0  0  0  0  0  0  0  0
  -28.9304  -14.9155   19.8187 N   0  0  0  0  0  0  0  0  0  0  0  0
  -25.5907  -33.4709   21.0778 N   0  0  0  0  0  0  0  0  0  0  0  0
  -21.1170  -29.2719   23.3994 N   0  0  0  0  0  0  0  0  0  0  0  0
  -19.4278  -26.5053   21.7993 N   0  3  0  0  0  0  0  0  0  0  0  0
  -25.5982   -8.8176   14.8696 O   0  0  0  0  0  0  0  0  0  0  0  0
  -26.1961  -31.5829   22.2991 O   0  0  0  0  0  0  0  0  0  0  0  0
  -22.0685  -31.7876   22.4121 O   0  0  0  0  0  0  0  0  0  0  0  0
  -21.8563  -27.0957   23.0918 O   0  0  0  0  0  0  0  0  0  0  0  0
  -31.1729  -14.7392   20.3858 O   0  0  0  0  0  0  0  0  0  0  0  0
  -21.5952   -7.1163   21.3247 O   0  0  0  0  0  0  0  0  0  0  0  0
  -27.9351  -26.0833   20.1979 O   0  0  0  0  0  0  0  0  0  1  0  0
  -22.7641   -4.2411   25.8821 F   0  0  0  0  0  0  0  0  0  0  0  0
  -20.9000   -4.4490   21.5362 F   0  0  0  0  0  0  0  0  0  0  0  0
  1  2  1  0  0  0  0
  1  5  2  0  0  0  0
  2  6  2  0  0  0  0
  3 12  2  0  0  0  0
  3 19  1  0  0  0  0
  4 13  1  0  0  0  0
  4 19  2  0  0  0  0
  5 21  1  0  0  0  0
  6 23  1  0  0  0  0
  7 14  2  0  0  0  0
  7 22  1  0  0  0  0
  8 10  2  0  0  0  0
  8 25  1  0  0  0  0
  9 11  1  0  0  0  0
  9 25  2  0  0  0  0
 10 26  1  0  0  0  0
 11 26  2  0  0  0  0
 12 27  1  0  0  0  0
 13 27  2  0  0  0  0
 14 28  1  0  0  0  0
 15 16  2  0  0  0  0
 15 29  1  0  0  0  0
 16 30  1  0  0  0  0
 17 24  1  0  0  0  0
 17 28  2  0  0  0  0
 18 30  2  0  0  0  0
 18 31  1  0  0  0  0
 19 32  1  0  0  0  0
 20 32  1  0  0  0  0
 20 33  2  0  0  0  0
 20 34  1  0  0  0  0
 21 23  2  0  0  0  0
 21 39  1  0  0  0  0
 22 24  2  0  0  0  0
 22 40  1  0  0  0  0
 23 48  1  0  0  0  0
 24 41  1  0  0  0  0
 25 56  1  0  0  0  0
 26 70  1  0  0  0  0
 27 79  1  0  0  0  0
 28 80  1  0  0  0  0
 29 31  2  0  0  0  0
 29 79  1  0  0  0  0
 30 81  1  0  0  0  0
 31 82  1  0  0  0  0
 32 64  2  0  0  0  0
 33 65  1  0  0  0  0
 33 68  1  0  0  0  0
 34 69  1  0  0  0  0
 34 74  2  0  0  0  0
 35 49  1  0  0  0  0
 35 71  1  0  0  0  0
 35 75  2  0  0  0  0
 36 61  1  0  0  0  0
 36 66  1  0  0  0  0
 36 76  2  0  0  0  0
 37 62  1  0  0  0  0
 37 72  1  0  0  0  0
 37 77  2  0  0  0  0
 38 67  1  0  0  0  0
 38 70  1  0  0  0  0
 38 78  2  0  0  0  0
 39 42  1  0  0  0  0
 40 49  1  0  0  0  0
 41 66  1  0  0  0  0
 42 44  1  0  0  0  0
 43 45  1  0  0  0  0
 43 46  1  0  0  0  0
 44 48  1  0  0  0  0
 45 50  1  0  0  0  0
 46 67  1  0  0  0  0
 47 50  1  0  0  0  0
 47 67  1  0  0  0  0
 48 71  1  0  0  0  0
 49 66  1  0  0  0  0
 50 65  1  0  0  0  0
 51 62  1  0  0  0  0
 52 63  1  0  0  0  0
 53 63  1  0  0  0  0
 54 63  1  0  0  0  0
 55 73  1  0  0  0  0
 56 57  1  0  0  0  0
 57 58  1  0  0  0  0
 58 59  1  0  0  0  0
 59 60  1  0  0  0  0
 60 80  1  0  0  0  0
 61 63  1  0  0  0  0
 61 72  1  0  0  0  0
 62 73  1  0  0  0  0
 64 65  1  0  0  0  0
M  CHG  1  73   1
M  ISO  4  38 100  60 101  70 100  80 101
M  END
> <Batch ID>
0003

> <Smiles>
CNC(C)C(=O)NC(C(=O)N1Cc2cc([101O:1][101CH2:1]CCCCc3ccc([100NH:0][100C:0](=O)N4CCCC(n5nc(-c6ccc(Oc7ccc(F)cc7F)cc6)c(C(N)=O)c5N)C4)cc3)ccc2CC1C(=O)NC1CCCc2ccccc21)C(C)(C)C

> <Shape>
0.265

> <Color>
0.098

> <Negative vol penalty>
0.000

$$$$

  -OEChem-04052315213D

 84 92  0     1  0  0  0  0  0999 V2000
  -27.8324  -34.4874   24.5584 C   0  0  0  0  0  0  0  0  0  0  0  0
  -28.0230  -33.1671   24.1638 C   0  0  0  0  0  0  0  0  0  0  0  0
  -22.5829  -10.1807   22.9778 C   0  0  0  0  0  0  0  0  0  0  0  0
  -23.1479  -10.3155   20.6326 C   0  0  0  0  0  0  0  0  0  0  0  0
  -26.5594  -34.9303   24.9153 C   0  0  0  0  0  0  0  0  0  0  0  0
  -26.9409  -32.2884   24.1269 C   0  0  0  0  0  0  0  0  0  0  0  0
  -26.8615  -29.4799   19.9137 C   0  0  0  0  0  0  0  0  0  0  0  0
  -25.7759  -21.3833   17.8310 C   0  0  0  0  0  0  0  0  0  0  0  0
  -24.9744  -20.6091   18.6699 C   0  0  0  0  0  0  0  0  0  0  0  0
  -22.0907   -8.8899   22.7850 C   0  0  0  0  0  0  0  0  0  0  0  0
  -22.6557   -9.0247   20.4399 C   0  0  0  0  0  0  0  0  0  0  0  0
  -27.7352  -28.3950   19.8552 C   0  0  0  0  0  0  0  0  0  0  0  0
  -23.3478   -5.7693   22.4469 C   0  0  0  0  0  0  0  0  0  0  0  0
  -23.7077   -4.7928   23.3756 C   0  0  0  0  0  0  0  0  0  0  0  0
  -25.9229  -26.9121   20.4349 C   0  0  0  0  0  0  0  0  0  0  0  0
  -26.8683  -19.1971   19.1763 C   0  0  0  0  0  0  0  0  0  0  0  0
  -21.3779   -4.4439   23.9118 C   0  0  0  0  0  0  0  0  0  0  0  0
  -23.1114  -10.8935   21.9016 C   0  0  0  0  0  0  0  0  0  0  0  0
  -24.9360  -12.5938   22.4380 C   0  0  0  0  0  0  0  0  0  0  0  0
  -25.4594  -34.0591   24.8735 C   0  0  0  0  0  0  0  0  0  0  0  0
  -25.5121  -29.2901   20.2446 C   0  0  0  0  0  0  0  0  0  0  0  0
  -25.6522  -32.7197   24.4849 C   0  0  0  0  0  0  0  0  0  0  0  0
  -25.0336  -27.9960   20.4945 C   0  0  0  0  0  0  0  0  0  0  0  0
  -27.1237  -21.0645   17.6648 C   0  0  0  0  0  0  0  0  0  0  0  0
  -27.6699  -19.9714   18.3374 C   0  0  0  0  0  0  0  0  0  0  0  0
  -25.5206  -19.5160   19.3425 C   0  0  0  0  0  0  0  0  0  0  0  0
  -22.1271   -8.3119   21.5161 C   0  0  0  0  0  0  0  0  0  0  0  0
  -27.2666  -27.1112   20.1186 C   0  0  0  0  0  0  0  0  0  0  0  0
  -22.0029   -6.0831   22.2506 C   0  0  0  0  0  0  0  0  0  0  0  0
  -22.7228   -4.1301   24.1081 C   0  0  0  0  0  0  0  0  0  0  0  0
  -21.0180   -5.4204   22.9830 C   0  0  0  0  0  0  0  0  0  0  0  0
  -23.6195  -12.2271   22.0999 C   0  0  0  0  0  0  0  0  0  0  0  0
  -24.9033  -13.9651   22.5081 C   0  0  0  0  0  0  0  0  0  0  0  0
  -26.0857  -11.7685   22.6680 C   0  0  0  0  0  0  0  0  0  0  0  0
  -23.6206  -30.2741   22.6021 C   0  0  0  0  0  0  0  0  0  0  0  0
  -21.3166  -28.8314   20.8322 C   0  0  0  0  0  0  0  0  0  0  0  0
  -28.4651  -24.0584   17.9198 C   0  0  0  0  0  0  0  0  0  0  0  0
  -20.5072  -26.4927   18.4824 C   0  0  0  0  0  0  0  0  0  0  0  0
  -23.3525  -18.9107   20.4736 C   0  0  0  0  0  0  0  0  0  0  0  0
  -24.1108  -34.5711   25.3137 C   0  0  0  0  0  0  0  0  0  0  0  0
  -24.5767  -30.4676   20.2773 C   0  0  0  0  0  0  0  0  0  0  0  0
  -23.5895  -27.7363   20.8343 C   0  0  0  0  0  0  0  0  0  0  0  0
  -22.9505  -33.6751   24.8881 C   0  0  0  0  0  0  0  0  0  0  0  0
  -20.9869  -17.1719   22.4880 C   0  0  0  0  0  0  0  0  0  0  0  0
  -23.2662  -32.2135   25.1896 C   0  0  0  0  0  0  0  0  0  0  0  0
  -21.5693  -15.7606   22.5945 C   0  0  0  0  0  0  0  0  0  0  0  0
  -21.2311  -17.7837   21.1097 C   0  0  0  0  0  0  0  0  0  0  0  0
  -23.2125  -16.3596   20.7702 C   0  0  0  0  0  0  0  0  0  0  0  0
  -24.4989  -31.7429   24.4082 C   0  0  1  0  0  0  0  0  0  0  0  0
  -23.3347  -30.2205   21.1280 C   0  0  1  0  0  0  0  0  0  0  0  0
  -23.0482  -15.7271   22.1618 C   0  0  2  0  0  0  0  0  0  0  0  0
  -29.1106  -19.6124   18.1764 C   0  0  0  0  0  0  0  0  0  0  0  0
  -18.5383  -25.5190   17.2688 C   0  0  0  0  0  0  0  0  0  0  0  0
  -20.5568  -27.2571   23.3330 C   0  0  0  0  0  0  0  0  0  0  0  0
  -19.2849  -25.6760   21.8666 C   0  0  0  0  0  0  0  0  0  0  0  0
  -18.6154  -28.0760   21.9859 C   0  0  0  0  0  0  0  0  0  0  0  0
  -21.5629  -27.3401   15.8506 C   0  0  0  0  0  0  0  0  0  0  0  0
  -27.9662  -21.9121   16.7561 C   0  0  0  0  0  0  0  0  0  0  0  0
  -29.5902  -24.7515   18.6724 C   0  0  0  0  0  0  0  0  0  0  0  0
  -29.2132  -26.1441   19.1536 C   0  0  0  0  0  0  0  0  0  1  0  0
  -20.7353  -27.4399   20.7638 C   0  0  1  0  0  0  0  0  0  0  0  0
  -19.6361  -26.5710   17.2415 C   0  0  2  0  0  0  0  0  0  0  0  0
  -19.8258  -27.1171   21.9829 C   0  0  0  0  0  0  0  0  0  0  0  0
  -22.8095  -13.2805   21.9648 N   0  0  0  0  0  0  0  0  0  0  0  0
  -23.6192  -14.3225   22.2194 N   0  0  0  0  0  0  0  0  0  0  0  0
  -22.7156  -28.9208   20.8601 N   0  0  0  0  0  0  0  0  0  0  0  0
  -22.6540  -17.7208   20.7689 N   0  0  0  0  0  0  0  0  0  0  0  0
  -25.8480  -14.8879   22.7880 N   0  0  0  0  0  0  0  0  0  0  0  0
  -25.9440  -10.3788   22.5547 N   0  0  0  0  0  0  0  0  0  0  0  0
  -24.7072  -18.7304   20.1963 N   0  0  0  0  0  0  0  0  0  0  0  0
  -24.1516  -31.4764   23.0288 N   0  0  0  0  0  0  0  0  0  0  0  0
  -28.8420  -22.7923   17.4956 N   0  0  0  0  0  0  0  0  0  0  0  0
  -20.0619  -27.3418   19.4733 N   0  0  0  0  0  0  0  0  0  0  0  0
  -20.4589  -26.3601   16.0170 N   0  3  0  0  0  0  0  0  0  0  0  0
  -27.2016  -12.2484   22.9812 O   0  0  0  0  0  0  0  0  0  0  0  0
  -23.3763  -29.2975   23.3008 O   0  0  0  0  0  0  0  0  0  0  0  0
  -20.5576  -29.8036   20.8526 O   0  0  0  0  0  0  0  0  0  0  0  0
  -27.3680  -24.5741   17.7239 O   0  0  0  0  0  0  0  0  0  0  0  0
  -21.4826  -25.7496   18.5657 O   0  0  0  0  0  0  0  0  0  0  0  0
  -22.7963  -20.0117   20.4939 O   0  0  0  0  0  0  0  0  0  0  0  0
  -21.6471   -7.0522   21.3277 O   0  0  0  0  0  0  0  0  0  0  0  0
  -28.1173  -26.0506   20.0628 O   0  0  0  0  0  0  0  0  0  1  0  0
  -23.0685   -3.1914   24.9988 F   0  0  0  0  0  0  0  0  0  0  0  0
  -19.7243   -5.7168   22.7980 F   0  0  0  0  0  0  0  0  0  0  0  0
  1  2  1  0  0  0  0
  1  5  2  0  0  0  0
  2  6  2  0  0  0  0
  3 10  2  0  0  0  0
  3 18  1  0  0  0  0
  4 11  1  0  0  0  0
  4 18  2  0  0  0  0
  5 20  1  0  0  0  0
  6 22  1  0  0  0  0
  7 12  2  0  0  0  0
  7 21  1  0  0  0  0
  8  9  2  0  0  0  0
  8 24  1  0  0  0  0
  9 26  1  0  0  0  0
 10 27  1  0  0  0  0
 11 27  2  0  0  0  0
 12 28  1  0  0  0  0
 13 14  2  0  0  0  0
 13 29  1  0  0  0  0
 14 30  1  0  0  0  0
 15 23  1  0  0  0  0
 15 28  2  0  0  0  0
 16 25  1  0  0  0  0
 16 26  2  0  0  0  0
 17 30  2  0  0  0  0
 17 31  1  0  0  0  0
 18 32  1  0  0  0  0
 19 32  1  0  0  0  0
 19 33  2  0  0  0  0
 19 34  1  0  0  0  0
 20 22  2  0  0  0  0
 20 40  1  0  0  0  0
 21 23  2  0  0  0  0
 21 41  1  0  0  0  0
 22 49  1  0  0  0  0
 23 42  1  0  0  0  0
 24 25  2  0  0  0  0
 24 58  1  0  0  0  0
 25 52  1  0  0  0  0
 26 70  1  0  0  0  0
 27 81  1  0  0  0  0
 28 82  1  0  0  0  0
 29 31  2  0  0  0  0
 29 81  1  0  0  0  0
 30 83  1  0  0  0  0
 31 84  1  0  0  0  0
 32 64  2  0  0  0  0
 33 65  1  0  0  0  0
 33 68  1  0  0  0  0
 34 69  1  0  0  0  0
 34 75  2  0  0  0  0
 35 50  1  0  0  0  0
 35 71  1  0  0  0  0
 35 76  2  0  0  0  0
 36 61  1  0  0  0  0
 36 66  1  0  0  0  0
 36 77  2  0  0  0  0
 37 59  1  0  0  0  0
 37 72  1  0  0  0  0
 37 78  2  0  0  0  0
 38 62  1  0  0  0  0
 38 73  1  0  0  0  0
 38 79  2  0  0  0  0
 39 67  1  0  0  0  0
 39 70  1  0  0  0  0
 39 80  2  0  0  0  0
 40 43  1  0  0  0  0
 41 50  1  0  0  0  0
 42 66  1  0  0  0  0
 43 45  1  0  0  0  0
 44 46  1  0  0  0  0
 44 47  1  0  0  0  0
 45 49  1  0  0  0  0
 46 51  1  0  0  0  0
 47 67  1  0  0  0  0
 48 51  1  0  0  0  0
 48 67  1  0  0  0  0
 49 71  1  0  0  0  0
 50 66  1  0  0  0  0
 51 65  1  0  0  0  0
 53 62  1  0  0  0  0
 54 63  1  0  0  0  0
 55 63  1  0  0  0  0
 56 63  1  0  0  0  0
 57 74  1  0  0  0  0
 58 72  1  0  0  0  0
 59 60  1  0  0  0  0
 60 82  1  0  0  0  0
 61 63  1  0  0  0  0
 61 73  1  0  0  0  0
 62 74  1  0  0  0  0
 64 65  1  0  0  0  0
M  CHG  1  74   1
M  ISO  4  39 100  60 101  70 100  82 101
M  END
> <Batch ID>
0003

> <Smiles>
CNC(C)C(=O)NC(C(=O)N1Cc2cc([101O:1][101CH2:1]CC(=O)NCc3ccc([100NH:0][100C:0](=O)N4CCCC(n5nc(-c6ccc(Oc7ccc(F)cc7F)cc6)c(C(N)=O)c5N)C4)cc3C)ccc2CC1C(=O)NC1CCCc2ccccc21)C(C)(C)C

> <Shape>
0.259

> <Color>
0.087

> <Negative vol penalty>
0.000

$$$$

  -OEChem-04052315213D

 78 86  0     1  0  0  0  0  0999 V2000
  -28.1281  -22.1547   16.6130 C   0  0  0  0  0  0  0  0  0  0  0  0
  -25.8418  -11.7547   20.3818 C   0  0  0  0  0  0  0  0  0  0  0  0
  -26.3951  -12.9750   20.0075 C   0  0  0  0  0  0  0  0  0  0  0  0
  -28.0301  -20.7783   16.8169 C   0  0  0  0  0  0  0  0  0  0  0  0
  -23.1538  -26.4541   20.3539 C   0  0  0  0  0  0  0  0  0  0  0  0
  -23.2215  -28.1488   22.0746 C   0  0  0  0  0  0  0  0  0  0  0  0
  -28.8348  -22.9454   17.5190 C   0  0  0  0  0  0  0  0  0  0  0  0
  -24.5978  -11.7181   21.0102 C   0  0  0  0  0  0  0  0  0  0  0  0
  -25.7040  -14.1594   20.2604 C   0  0  0  0  0  0  0  0  0  0  0  0
  -28.6875  -17.7802   22.1666 C   0  0  0  0  0  0  0  0  0  0  0  0
  -28.6388  -20.1926   17.9268 C   0  0  0  0  0  0  0  0  0  0  0  0
  -21.9504  -25.9758   20.8722 C   0  0  0  0  0  0  0  0  0  0  0  0
  -22.0180  -27.6705   22.5929 C   0  0  0  0  0  0  0  0  0  0  0  0
  -29.5129  -18.4611   21.2728 C   0  0  0  0  0  0  0  0  0  0  0  0
  -18.7797  -27.1236   24.1526 C   0  0  0  0  0  0  0  0  0  0  0  0
  -17.8038  -28.0588   24.4968 C   0  0  0  0  0  0  0  0  0  0  0  0
  -27.9437  -20.2928   21.2284 C   0  0  0  0  0  0  0  0  0  0  0  0
  -17.7476  -28.8412   22.2117 C   0  0  0  0  0  0  0  0  0  0  0  0
  -23.7894  -27.5406   20.9551 C   0  0  0  0  0  0  0  0  0  0  0  0
  -29.4436  -22.3597   18.6289 C   0  0  0  0  0  0  0  0  0  0  0  0
  -25.2003  -29.0275   19.4365 C   0  0  0  0  0  0  0  0  0  0  0  0
  -23.8955  -12.9033   21.2797 C   0  0  0  0  0  0  0  0  0  0  0  0
  -27.4767  -18.3467   22.5902 C   0  0  0  0  0  0  0  0  0  0  0  0
  -24.4488  -14.1385   20.8918 C   0  0  0  0  0  0  0  0  0  0  0  0
  -27.1060  -19.6181   22.1296 C   0  0  0  0  0  0  0  0  0  0  0  0
  -21.3825  -26.5840   21.9917 C   0  0  0  0  0  0  0  0  0  0  0  0
  -29.1397  -19.7163   20.8013 C   0  0  0  0  0  0  0  0  0  0  0  0
  -29.3456  -20.9833   18.8329 C   0  0  0  0  0  0  0  0  0  1  0  0
  -19.2397  -27.0472   22.8379 C   0  0  0  0  0  0  0  0  0  0  0  0
  -17.2877  -28.9176   23.5263 C   0  0  0  0  0  0  0  0  0  0  0  0
  -18.7236  -27.9060   21.8675 C   0  0  0  0  0  0  0  0  0  0  0  0
  -25.0328  -28.0348   20.4205 C   0  0  0  0  0  0  0  0  0  0  0  0
  -26.5610  -29.1315   19.2818 C   0  0  0  0  0  0  0  0  0  0  0  0
  -30.1855  -23.2134   19.5737 C   0  0  0  0  0  0  0  0  0  0  0  0
  -24.2140  -29.7877   18.7259 C   0  0  0  0  0  0  0  0  0  0  0  0
  -24.4130  -17.5370   22.3416 C   0  0  0  0  0  0  0  0  0  0  0  0
  -23.9808  -20.1011   24.2809 C   0  0  0  0  0  0  0  0  0  0  0  0
  -25.1570  -23.0875   25.4406 C   0  0  0  0  0  0  0  0  0  0  0  0
  -31.0016  -25.2283   20.3256 C   0  0  0  0  0  0  0  0  0  0  0  0
  -22.5325  -12.8103   21.9185 C   0  0  0  0  0  0  0  0  0  0  0  0
  -26.6103  -17.6110   23.5754 C   0  0  0  0  0  0  0  0  0  0  0  0
  -25.8260  -20.2789   22.5695 C   0  0  0  0  0  0  0  0  0  0  0  0
  -22.0348  -14.1363   22.4878 C   0  0  0  0  0  0  0  0  0  0  0  0
  -30.6658  -28.5619   21.6596 C   0  0  0  0  0  0  0  0  0  0  0  0
  -22.2508  -15.2634   21.4828 C   0  0  0  0  0  0  0  0  0  0  0  0
  -29.1880  -28.8795   21.4321 C   0  0  0  0  0  0  0  0  0  0  0  0
  -30.8779  -27.0866   21.9854 C   0  0  0  0  0  0  0  0  0  0  0  0
  -28.8275  -26.4705   20.7344 C   0  0  0  0  0  0  0  0  0  0  0  0
  -23.7411  -15.4466   21.1713 C   0  0  1  0  0  0  0  0  0  0  0  0
  -25.1526  -18.0595   23.5406 C   0  0  1  0  0  0  0  0  0  0  0  0
  -28.5784  -27.9447   20.3722 C   0  0  1  0  0  0  0  0  0  0  0  0
  -24.5647  -24.9699   26.9908 C   0  0  0  0  0  0  0  0  0  0  0  0
  -21.9804  -21.1556   22.2323 C   0  0  0  0  0  0  0  0  0  0  0  0
  -22.1492  -23.4011   23.3267 C   0  0  0  0  0  0  0  0  0  0  0  0
  -21.2845  -21.4487   24.6164 C   0  0  0  0  0  0  0  0  0  0  0  0
  -27.5506  -22.6152   27.1158 C   0  0  0  0  0  0  0  0  0  0  0  0
  -23.7487  -21.5772   24.0657 C   0  0  1  0  0  0  0  0  0  0  0  0
  -25.2886  -23.6401   26.8484 C   0  0  2  0  0  0  0  0  0  0  0  0
  -22.3140  -21.8827   23.5503 C   0  0  0  0  0  0  0  0  0  0  0  0
  -26.1944  -27.5431   20.8598 N   0  0  0  0  0  0  0  0  0  0  0  0
  -30.2895  -24.4902   19.3997 N   0  0  0  0  0  0  0  0  0  0  0  0
  -27.1047  -28.2296   20.1485 N   0  0  0  0  0  0  0  0  0  0  0  0
  -25.0097  -19.5168   23.5288 N   0  0  0  0  0  0  0  0  0  0  0  0
  -30.2565  -26.2300   20.9745 N   0  0  0  0  0  0  0  0  0  0  0  0
  -27.3336  -29.9054   18.4902 N   0  0  0  0  0  0  0  0  0  0  0  0
  -22.8608  -29.5551   19.0072 N   0  0  0  0  0  0  0  0  0  0  0  0
  -24.3983  -16.1585   22.2463 N   0  0  0  0  0  0  0  0  0  0  0  0
  -24.0825  -22.2309   25.3265 N   0  0  0  0  0  0  0  0  0  0  0  0
  -26.7240  -23.8472   27.1914 N   0  3  0  0  0  0  0  0  0  0  0  0
  -24.5230  -30.6362   17.8552 O   0  0  0  0  0  0  0  0  0  0  0  0
  -23.8928  -18.3260   21.5615 O   0  0  0  0  0  0  0  0  0  0  0  0
  -23.2797  -19.4907   25.0918 O   0  0  0  0  0  0  0  0  0  0  0  0
  -25.9279  -23.3887   24.5320 O   0  0  0  0  0  0  0  0  0  0  0  0
  -32.1926  -25.0406   20.5851 O   0  0  0  0  0  0  0  0  0  0  0  0
  -20.2081  -26.1177   22.4976 O   0  0  0  0  0  0  0  0  0  0  0  0
  -29.9432  -20.3828   19.9284 O   0  0  0  0  0  0  0  0  0  1  0  0
  -16.3493  -29.8145   23.8567 F   0  0  0  0  0  0  0  0  0  0  0  0
  -19.1607  -27.8365   20.6026 F   0  0  0  0  0  0  0  0  0  0  0  0
  1  4  1  0  0  0  0
  1  7  2  0  0  0  0
  2  3  1  0  0  0  0
  2  8  2  0  0  0  0
  3  9  2  0  0  0  0
  4 11  2  0  0  0  0
  5 12  2  0  0  0  0
  5 19  1  0  0  0  0
  6 13  1  0  0  0  0
  6 19  2  0  0  0  0
  7 20  1  0  0  0  0
  8 22  1  0  0  0  0
  9 24  1  0  0  0  0
 10 14  2  0  0  0  0
 10 23  1  0  0  0  0
 11 28  1  0  0  0  0
 12 26  1  0  0  0  0
 13 26  2  0  0  0  0
 14 27  1  0  0  0  0
 15 16  2  0  0  0  0
 15 29  1  0  0  0  0
 16 30  1  0  0  0  0
 17 25  1  0  0  0  0
 17 27  2  0  0  0  0
 18 30  2  0  0  0  0
 18 31  1  0  0  0  0
 19 32  1  0  0  0  0
 20 28  2  0  0  0  0
 20 34  1  0  0  0  0
 21 32  1  0  0  0  0
 21 33  2  0  0  0  0
 21 35  1  0  0  0  0
 22 24  2  0  0  0  0
 22 40  1  0  0  0  0
 23 25  2  0  0  0  0
 23 41  1  0  0  0  0
 24 49  1  0  0  0  0
 25 42  1  0  0  0  0
 26 75  1  0  0  0  0
 27 76  1  0  0  0  0
 28 76  1  0  0  0  0
 29 31  2  0  0  0  0
 29 75  1  0  0  0  0
 30 77  1  0  0  0  0
 31 78  1  0  0  0  0
 32 60  2  0  0  0  0
 33 62  1  0  0  0  0
 33 65  1  0  0  0  0
 34 61  2  0  0  0  0
 35 66  1  0  0  0  0
 35 70  2  0  0  0  0
 36 50  1  0  0  0  0
 36 67  1  0  0  0  0
 36 71  2  0  0  0  0
 37 57  1  0  0  0  0
 37 63  1  0  0  0  0
 37 72  2  0  0  0  0
 38 58  1  0  0  0  0
 38 68  1  0  0  0  0
 38 73  2  0  0  0  0
 39 61  1  0  0  0  0
 39 64  1  0  0  0  0
 39 74  2  0  0  0  0
 40 43  1  0  0  0  0
 41 50  1  0  0  0  0
 42 63  1  0  0  0  0
 43 45  1  0  0  0  0
 44 46  1  0  0  0  0
 44 47  1  0  0  0  0
 45 49  1  0  0  0  0
 46 51  1  0  0  0  0
 47 64  1  0  0  0  0
 48 51  1  0  0  0  0
 48 64  1  0  0  0  0
 49 67  1  0  0  0  0
 50 63  1  0  0  0  0
 51 62  1  0  0  0  0
 52 58  1  0  0  0  0
 53 59  1  0  0  0  0
 54 59  1  0  0  0  0
 55 59  1  0  0  0  0
 56 69  1  0  0  0  0
 57 59  1  0  0  0  0
 57 68  1  0  0  0  0
 58 69  1  0  0  0  0
 60 62  1  0  0  0  0
M  CHG  1  69   1
M  ISO  4  28 101  39 100  61 100  76 101
M  END
> <Batch ID>
0003

> <Smiles>
CNC(C)C(=O)NC(C(=O)N1Cc2cc([101O:1][101c:1]3ccccc3C=[100N:0][100C:0](=O)N3CCCC(n4nc(-c5ccc(Oc6ccc(F)cc6F)cc5)c(C(N)=O)c4N)C3)ccc2CC1C(=O)NC1CCCc2ccccc21)C(C)(C)C

> <Shape>
0.221

> <Color>
0.064

> <Negative vol penalty>
0.000

$$$$

  -OEChem-04052315213D

 87 95  0     1  0  0  0  0  0999 V2000
  -27.6385  -18.6437   19.8538 C   0  0  0  0  0  0  0  0  0  0  0  0
  -27.8272  -19.7845   20.6273 C   0  0  0  0  0  0  0  0  0  0  0  0
  -32.6303  -17.4664   23.4646 C   0  0  0  0  0  0  0  0  0  0  0  0
  -23.0088   -9.8888   19.9757 C   0  0  0  0  0  0  0  0  0  0  0  0
  -23.7309   -9.9412   22.2807 C   0  0  0  0  0  0  0  0  0  0  0  0
  -28.6075  -18.2637   18.9262 C   0  0  0  0  0  0  0  0  0  0  0  0
  -28.9857  -20.5454   20.4745 C   0  0  0  0  0  0  0  0  0  0  0  0
  -28.0360  -25.5165   20.2984 C   0  0  0  0  0  0  0  0  0  0  0  0
  -32.0452  -16.5689   22.5715 C   0  0  0  0  0  0  0  0  0  0  0  0
  -31.8322  -18.3613   24.1774 C   0  0  0  0  0  0  0  0  0  0  0  0
  -22.2449   -8.7523   20.2408 C   0  0  0  0  0  0  0  0  0  0  0  0
  -22.9669   -8.8047   22.5458 C   0  0  0  0  0  0  0  0  0  0  0  0
  -27.7821  -26.1595   21.5091 C   0  0  0  0  0  0  0  0  0  0  0  0
  -23.2205   -5.4665   22.0735 C   0  0  0  0  0  0  0  0  0  0  0  0
  -23.8097   -4.4507   22.8261 C   0  0  0  0  0  0  0  0  0  0  0  0
  -30.0538  -26.9702   21.5479 C   0  0  0  0  0  0  0  0  0  0  0  0
  -29.8640  -17.4610   23.1038 C   0  0  0  0  0  0  0  0  0  0  0  0
  -22.0831   -4.6887   24.4992 C   0  0  0  0  0  0  0  0  0  0  0  0
  -23.7519  -10.4833   20.9956 C   0  0  0  0  0  0  0  0  0  0  0  0
  -24.1309  -12.9999   20.8206 C   0  0  0  0  0  0  0  0  0  0  0  0
  -29.7740  -19.0256   18.7550 C   0  0  0  0  0  0  0  0  0  0  0  0
  -29.3060  -25.5866   19.7078 C   0  0  0  0  0  0  0  0  0  0  0  0
  -29.9719  -20.1744   19.5446 C   0  0  0  0  0  0  0  0  0  0  0  0
  -30.3205  -26.3293   20.3284 C   0  0  0  0  0  0  0  0  0  0  0  0
  -30.6621  -16.5662   22.3910 C   0  0  0  0  0  0  0  0  0  0  0  0
  -22.2239   -8.2102   21.5259 C   0  0  0  0  0  0  0  0  0  0  0  0
  -28.7919  -26.8841   22.1355 C   0  0  0  0  0  0  0  0  0  0  0  0
  -30.4491  -18.3586   23.9969 C   0  0  0  0  0  0  0  0  0  0  0  0
  -22.0626   -6.0935   22.5337 C   0  0  0  0  0  0  0  0  0  0  0  0
  -23.2410   -4.0618   24.0390 C   0  0  0  0  0  0  0  0  0  0  0  0
  -21.4939   -5.7046   23.7466 C   0  0  0  0  0  0  0  0  0  0  0  0
  -24.5417  -11.6570   20.7222 C   0  0  0  0  0  0  0  0  0  0  0  0
  -25.2392  -13.7254   20.4578 C   0  0  0  0  0  0  0  0  0  0  0  0
  -22.8610  -13.5429   21.2057 C   0  0  0  0  0  0  0  0  0  0  0  0
  -31.5450  -23.4635   18.9442 C   0  0  0  0  0  0  0  0  0  0  0  0
  -32.9764  -26.0409   17.5913 C   0  0  0  0  0  0  0  0  0  0  0  0
  -28.6176  -23.9913   25.5662 C   0  0  0  0  0  0  0  0  0  0  0  0
  -33.3403  -29.4327   17.4916 C   0  0  0  0  0  0  0  0  0  0  0  0
  -30.7159  -14.7007   20.6989 C   0  0  0  0  0  0  0  0  0  0  0  0
  -30.8150  -18.5488   17.7733 C   0  0  0  0  0  0  0  0  0  0  0  0
  -29.5561  -24.9095   18.3881 C   0  0  0  0  0  0  0  0  0  0  0  0
  -31.6952  -26.4524   19.7255 C   0  0  0  0  0  0  0  0  0  0  0  0
  -31.8417  -19.6175   17.4072 C   0  0  0  0  0  0  0  0  0  0  0  0
  -29.6069  -12.2454   18.3710 C   0  0  0  0  0  0  0  0  0  0  0  0
  -32.3474  -20.3237   18.6612 C   0  0  0  0  0  0  0  0  0  0  0  0
  -28.1565  -11.9839   18.7833 C   0  0  0  0  0  0  0  0  0  0  0  0
  -30.5053  -12.4909   19.5820 C   0  0  0  0  0  0  0  0  0  0  0  0
  -28.5862  -13.2745   20.9133 C   0  0  0  0  0  0  0  0  0  0  0  0
  -31.2039  -21.0395   19.3903 C   0  0  1  0  0  0  0  0  0  0  0  0
  -31.0326  -24.6211   18.1349 C   0  0  1  0  0  0  0  0  0  0  0  0
  -27.6305  -13.0859   19.7238 C   0  0  2  0  0  0  0  0  0  0  0  0
  -34.6109  -31.2436   16.3068 C   0  0  0  0  0  0  0  0  0  0  0  0
  -35.4650  -25.3560   19.2184 C   0  0  0  0  0  0  0  0  0  0  0  0
  -36.3235  -27.6597   18.7449 C   0  0  0  0  0  0  0  0  0  0  0  0
  -35.9209  -26.0698   16.8654 C   0  0  0  0  0  0  0  0  0  0  0  0
  -30.8546  -30.6558   16.4505 C   0  0  0  0  0  0  0  0  0  0  0  0
  -29.6947  -22.9237   25.4702 C   0  0  0  0  0  0  0  0  0  0  0  0
  -29.1566  -21.5397   25.1209 C   0  0  0  0  0  0  0  0  0  0  0  0
  -29.1137  -27.6837   25.6431 C   0  0  0  0  0  0  0  0  0  0  0  0
  -28.3462  -26.4214   26.0120 C   0  0  0  0  0  0  0  0  0  0  0  0
  -30.2533  -20.4839   25.0459 C   0  0  0  0  0  0  0  0  0  0  0  0
  -29.6464  -27.6579   24.2157 C   0  0  0  0  0  0  0  0  0  1  0  0
  -33.9463  -27.0963   18.0649 C   0  0  1  0  0  0  0  0  0  0  0  0
  -33.3376  -30.4124   16.3320 C   0  0  2  0  0  0  0  0  0  0  0  0
  -35.3887  -26.5417   18.2360 C   0  0  0  0  0  0  0  0  0  0  0  0
  -25.8118  -11.5339   20.3276 N   0  0  0  0  0  0  0  0  0  0  0  0
  -26.2086  -12.8087   20.1748 N   0  0  0  0  0  0  0  0  0  0  0  0
  -31.8923  -25.7673   18.4374 N   0  0  0  0  0  0  0  0  0  0  0  0
  -29.9464  -13.5502   20.4248 N   0  0  0  0  0  0  0  0  0  0  0  0
  -25.4694  -15.0518   20.3563 N   0  0  0  0  0  0  0  0  0  0  0  0
  -21.8311  -12.6560   21.5477 N   0  0  0  0  0  0  0  0  0  0  0  0
  -30.0682  -15.6540   21.4838 N   0  0  0  0  0  0  0  0  0  0  0  0
  -30.8726  -22.2776   18.7181 N   0  0  0  0  0  0  0  0  0  0  0  0
  -29.1493  -25.2368   25.8861 N   0  0  0  0  0  0  0  0  0  0  0  0
  -33.8396  -28.2024   17.1196 N   0  0  0  0  0  0  0  0  0  0  0  0
  -32.1743  -31.3378   16.4385 N   0  3  0  0  0  0  0  0  0  0  0  0
  -22.6411  -14.7777   21.2294 O   0  0  0  0  0  0  0  0  0  0  0  0
  -32.4819  -23.6332   19.7155 O   0  0  0  0  0  0  0  0  0  0  0  0
  -33.1694  -25.4849   16.5072 O   0  0  0  0  0  0  0  0  0  0  0  0
  -27.4277  -23.7691   25.3599 O   0  0  0  0  0  0  0  0  0  0  0  0
  -32.9430  -29.7302   18.6159 O   0  0  0  0  0  0  0  0  0  0  0  0
  -31.8548  -14.8426   20.2463 O   0  0  0  0  0  0  0  0  0  0  0  0
  -21.4784   -7.1014   21.7850 O   0  0  0  0  0  0  0  0  0  0  0  0
  -28.5470  -27.5121   23.3177 O   0  0  0  0  0  0  0  0  0  1  0  0
  -29.6649  -19.2378   24.6970 O   0  0  0  0  0  0  0  0  0  0  0  0
  -23.8061   -3.0852   24.7609 F   0  0  0  0  0  0  0  0  0  0  0  0
  -20.3809   -6.3025   24.1933 F   0  0  0  0  0  0  0  0  0  0  0  0
  1  2  1  0  0  0  0
  1  6  2  0  0  0  0
  2  7  2  0  0  0  0
  3  9  1  0  0  0  0
  3 10  2  0  0  0  0
  4 11  2  0  0  0  0
  4 19  1  0  0  0  0
  5 12  1  0  0  0  0
  5 19  2  0  0  0  0
  6 21  1  0  0  0  0
  7 23  1  0  0  0  0
  8 13  2  0  0  0  0
  8 22  1  0  0  0  0
  9 25  2  0  0  0  0
 10 28  1  0  0  0  0
 11 26  1  0  0  0  0
 12 26  2  0  0  0  0
 13 27  1  0  0  0  0
 14 15  2  0  0  0  0
 14 29  1  0  0  0  0
 15 30  1  0  0  0  0
 16 24  1  0  0  0  0
 16 27  2  0  0  0  0
 17 25  1  0  0  0  0
 17 28  2  0  0  0  0
 18 30  2  0  0  0  0
 18 31  1  0  0  0  0
 19 32  1  0  0  0  0
 20 32  1  0  0  0  0
 20 33  2  0  0  0  0
 20 34  1  0  0  0  0
 21 23  2  0  0  0  0
 21 40  1  0  0  0  0
 22 24  2  0  0  0  0
 22 41  1  0  0  0  0
 23 49  1  0  0  0  0
 24 42  1  0  0  0  0
 25 72  1  0  0  0  0
 26 83  1  0  0  0  0
 27 84  1  0  0  0  0
 28 85  1  0  0  0  0
 29 31  2  0  0  0  0
 29 83  1  0  0  0  0
 30 86  1  0  0  0  0
 31 87  1  0  0  0  0
 32 66  2  0  0  0  0
 33 67  1  0  0  0  0
 33 70  1  0  0  0  0
 34 71  1  0  0  0  0
 34 77  2  0  0  0  0
 35 50  1  0  0  0  0
 35 73  1  0  0  0  0
 35 78  2  0  0  0  0
 36 63  1  0  0  0  0
 36 68  1  0  0  0  0
 36 79  2  0  0  0  0
 37 57  1  0  0  0  0
 37 74  1  0  0  0  0
 37 80  2  0  0  0  0
 38 64  1  0  0  0  0
 38 75  1  0  0  0  0
 38 81  2  0  0  0  0
 39 69  1  0  0  0  0
 39 72  1  0  0  0  0
 39 82  2  0  0  0  0
 40 43  1  0  0  0  0
 41 50  1  0  0  0  0
 42 68  1  0  0  0  0
 43 45  1  0  0  0  0
 44 46  1  0  0  0  0
 44 47  1  0  0  0  0
 45 49  1  0  0  0  0
 46 51  1  0  0  0  0
 47 69  1  0  0  0  0
 48 51  1  0  0  0  0
 48 69  1  0  0  0  0
 49 73  1  0  0  0  0
 50 68  1  0  0  0  0
 51 67  1  0  0  0  0
 52 64  1  0  0  0  0
 53 65  1  0  0  0  0
 54 65  1  0  0  0  0
 55 65  1  0  0  0  0
 56 76  1  0  0  0  0
 57 58  1  0  0  0  0
 58 61  1  0  0  0  0
 59 60  1  0  0  0  0
 59 62  1  0  0  0  0
 60 74  1  0  0  0  0
 61 85  1  0  0  0  0
 62 84  1  0  0  0  0
 63 65  1  0  0  0  0
 63 75  1  0  0  0  0
 64 76  1  0  0  0  0
 66 67  1  0  0  0  0
M  CHG  1  76   1
M  ISO  4  39 100  62 101  72 100  84 101
M  END
> <Batch ID>
0003

> <Smiles>
CNC(C)C(=O)NC(C(=O)N1Cc2cc([101O:1][101CH2:1]CCNC(=O)CCCOc3cccc([100NH:0][100C:0](=O)N4CCCC(n5nc(-c6ccc(Oc7ccc(F)cc7F)cc6)c(C(N)=O)c5N)C4)c3)ccc2CC1C(=O)NC1CCCc2ccccc21)C(C)(C)C

> <Shape>
0.274

> <Color>
0.194

> <Negative vol penalty>
0.000

$$$$

  -OEChem-04052315213D

 79 87  0     1  0  0  0  0  0999 V2000
  -17.9137  -26.0938   26.2786 C   0  0  0  0  0  0  0  0  0  0  0  0
  -18.9218  -25.2289   26.6925 C   0  0  0  0  0  0  0  0  0  0  0  0
  -32.3217  -18.0422   23.0758 C   0  0  0  0  0  0  0  0  0  0  0  0
  -23.1703   -9.6895   20.1500 C   0  0  0  0  0  0  0  0  0  0  0  0
  -23.8284   -9.9996   22.4538 C   0  0  0  0  0  0  0  0  0  0  0  0
  -17.8726  -26.5323   24.9558 C   0  0  0  0  0  0  0  0  0  0  0  0
  -19.8887  -24.8012   25.7833 C   0  0  0  0  0  0  0  0  0  0  0  0
  -26.8047  -22.9662   25.4395 C   0  0  0  0  0  0  0  0  0  0  0  0
  -31.4786  -18.9677   23.6906 C   0  0  0  0  0  0  0  0  0  0  0  0
  -31.7859  -17.0410   22.2658 C   0  0  0  0  0  0  0  0  0  0  0  0
  -22.4588   -8.5442   20.5073 C   0  0  0  0  0  0  0  0  0  0  0  0
  -23.1168   -8.8544   22.8113 C   0  0  0  0  0  0  0  0  0  0  0  0
  -27.6234  -21.9317   24.9885 C   0  0  0  0  0  0  0  0  0  0  0  0
  -19.8966   -8.0005   23.3786 C   0  0  0  0  0  0  0  0  0  0  0  0
  -19.0911   -8.0682   24.5153 C   0  0  0  0  0  0  0  0  0  0  0  0
  -27.4982  -22.8174   22.7482 C   0  0  0  0  0  0  0  0  0  0  0  0
  -20.3690   -6.2848   25.5271 C   0  0  0  0  0  0  0  0  0  0  0  0
  -23.8552  -10.4172   21.1232 C   0  0  0  0  0  0  0  0  0  0  0  0
  -24.1096  -12.9223   20.7142 C   0  0  0  0  0  0  0  0  0  0  0  0
  -18.8451  -26.1174   24.0323 C   0  0  0  0  0  0  0  0  0  0  0  0
  -26.3169  -23.9294   24.5447 C   0  0  0  0  0  0  0  0  0  0  0  0
  -19.8598  -25.2336   24.4466 C   0  0  0  0  0  0  0  0  0  0  0  0
  -26.6756  -23.8645   23.1907 C   0  0  0  0  0  0  0  0  0  0  0  0
  -30.0995  -18.8921   23.4955 C   0  0  0  0  0  0  0  0  0  0  0  0
  -29.5636  -17.8909   22.6855 C   0  0  0  0  0  0  0  0  0  0  0  0
  -30.4068  -16.9653   22.0706 C   0  0  0  0  0  0  0  0  0  0  0  0
  -22.4320   -8.1267   21.8380 C   0  0  0  0  0  0  0  0  0  0  0  0
  -27.9680  -21.8555   23.6422 C   0  0  0  0  0  0  0  0  0  0  0  0
  -20.9383   -7.0748   23.3160 C   0  0  0  0  0  0  0  0  0  0  0  0
  -19.3273   -7.2104   25.5896 C   0  0  0  0  0  0  0  0  0  0  0  0
  -21.1745   -6.2171   24.3903 C   0  0  0  0  0  0  0  0  0  0  0  0
  -24.5908  -11.6000   20.7546 C   0  0  0  0  0  0  0  0  0  0  0  0
  -25.1885  -13.6681   20.3065 C   0  0  0  0  0  0  0  0  0  0  0  0
  -22.8040  -13.4310   21.0182 C   0  0  0  0  0  0  0  0  0  0  0  0
  -23.4271  -24.8288   23.5730 C   0  0  0  0  0  0  0  0  0  0  0  0
  -25.0931  -27.1497   22.0367 C   0  0  0  0  0  0  0  0  0  0  0  0
  -28.0522  -28.1792   20.6836 C   0  0  0  0  0  0  0  0  0  0  0  0
  -30.6000  -14.9526   20.5679 C   0  0  0  0  0  0  0  0  0  0  0  0
  -18.7320  -26.5807   22.6015 C   0  0  0  0  0  0  0  0  0  0  0  0
  -25.4566  -25.0542   25.0517 C   0  0  0  0  0  0  0  0  0  0  0  0
  -26.1947  -24.8853   22.1932 C   0  0  0  0  0  0  0  0  0  0  0  0
  -20.0105  -26.3775   21.7926 C   0  0  0  0  0  0  0  0  0  0  0  0
  -29.6791  -12.2311   18.4650 C   0  0  0  0  0  0  0  0  0  0  0  0
  -20.5711  -24.9777   22.0229 C   0  0  0  0  0  0  0  0  0  0  0  0
  -28.2337  -11.9331   18.8699 C   0  0  0  0  0  0  0  0  0  0  0  0
  -30.5318  -12.6384   19.6653 C   0  0  0  0  0  0  0  0  0  0  0  0
  -28.5411  -13.4418   20.8739 C   0  0  0  0  0  0  0  0  0  0  0  0
  -20.9410  -24.7670   23.4960 C   0  0  1  0  0  0  0  0  0  0  0  0
  -24.5974  -25.6874   23.9617 C   0  0  1  0  0  0  0  0  0  0  0  0
  -27.6277  -13.0900   19.6883 C   0  0  2  0  0  0  0  0  0  0  0  0
  -28.0833  -17.8139   22.4789 C   0  0  0  0  0  0  0  0  0  0  0  0
  -29.0954  -30.1090   19.4650 C   0  0  0  0  0  0  0  0  0  0  0  0
  -23.6860  -26.2869   19.4705 C   0  0  0  0  0  0  0  0  0  0  0  0
  -25.4168  -27.5529   18.1783 C   0  0  0  0  0  0  0  0  0  0  0  0
  -23.9094  -28.7613   19.7564 C   0  0  0  0  0  0  0  0  0  0  0  0
  -30.0153  -28.6365   22.8505 C   0  0  0  0  0  0  0  0  0  0  0  0
  -29.2154  -19.9003   24.1686 C   0  0  0  0  0  0  0  0  0  1  0  0
  -25.7397  -27.2810   20.6789 C   0  0  1  0  0  0  0  0  0  0  0  0
  -28.8253  -29.4782   20.8222 C   0  0  2  0  0  0  0  0  0  0  0  0
  -24.6956  -27.4500   19.5392 C   0  0  0  0  0  0  0  0  0  0  0  0
  -25.8754  -11.5078   20.4006 N   0  0  0  0  0  0  0  0  0  0  0  0
  -26.2105  -12.7816   20.1339 N   0  0  0  0  0  0  0  0  0  0  0  0
  -25.3508  -25.9624   22.7365 N   0  0  0  0  0  0  0  0  0  0  0  0
  -29.8978  -13.7419   20.3900 N   0  0  0  0  0  0  0  0  0  0  0  0
  -25.3532  -14.9891   20.0824 N   0  0  0  0  0  0  0  0  0  0  0  0
  -21.8121  -12.5271   21.4224 N   0  0  0  0  0  0  0  0  0  0  0  0
  -29.8841  -15.9405   21.2434 N   0  0  0  0  0  0  0  0  0  0  0  0
  -22.1976  -25.4174   23.7997 N   0  0  0  0  0  0  0  0  0  0  0  0
  -26.6919  -28.3812   20.7849 N   0  0  0  0  0  0  0  0  0  0  0  0
  -30.1323  -29.2339   21.4953 N   0  3  0  0  0  0  0  0  0  0  0  0
  -22.5207  -14.6489   20.9180 O   0  0  0  0  0  0  0  0  0  0  0  0
  -23.6251  -23.7154   23.1010 O   0  0  0  0  0  0  0  0  0  0  0  0
  -24.3914  -28.0699   22.4639 O   0  0  0  0  0  0  0  0  0  0  0  0
  -28.5999  -27.0944   20.4998 O   0  0  0  0  0  0  0  0  0  0  0  0
  -31.7416  -15.1114   20.1279 O   0  0  0  0  0  0  0  0  0  0  0  0
  -21.7376   -7.0094   22.1871 O   0  0  0  0  0  0  0  0  0  0  0  0
  -28.7664  -20.8465   23.1993 O   0  0  0  0  0  0  0  0  0  1  0  0
  -18.5547   -7.2766   26.6817 F   0  0  0  0  0  0  0  0  0  0  0  0
  -22.1744   -5.3265   24.3365 F   0  0  0  0  0  0  0  0  0  0  0  0
  1  2  1  0  0  0  0
  1  6  2  0  0  0  0
  2  7  2  0  0  0  0
  3  9  2  0  0  0  0
  3 10  1  0  0  0  0
  4 11  2  0  0  0  0
  4 18  1  0  0  0  0
  5 12  1  0  0  0  0
  5 18  2  0  0  0  0
  6 20  1  0  0  0  0
  7 22  1  0  0  0  0
  8 13  2  0  0  0  0
  8 21  1  0  0  0  0
  9 24  1  0  0  0  0
 10 26  2  0  0  0  0
 11 27  1  0  0  0  0
 12 27  2  0  0  0  0
 13 28  1  0  0  0  0
 14 15  2  0  0  0  0
 14 29  1  0  0  0  0
 15 30  1  0  0  0  0
 16 23  1  0  0  0  0
 16 28  2  0  0  0  0
 17 30  2  0  0  0  0
 17 31  1  0  0  0  0
 18 32  1  0  0  0  0
 19 32  1  0  0  0  0
 19 33  2  0  0  0  0
 19 34  1  0  0  0  0
 20 22  2  0  0  0  0
 20 39  1  0  0  0  0
 21 23  2  0  0  0  0
 21 40  1  0  0  0  0
 22 48  1  0  0  0  0
 23 41  1  0  0  0  0
 24 25  2  0  0  0  0
 24 57  1  0  0  0  0
 25 26  1  0  0  0  0
 25 51  1  0  0  0  0
 26 67  1  0  0  0  0
 27 76  1  0  0  0  0
 28 77  1  0  0  0  0
 29 31  2  0  0  0  0
 29 76  1  0  0  0  0
 30 78  1  0  0  0  0
 31 79  1  0  0  0  0
 32 61  2  0  0  0  0
 33 62  1  0  0  0  0
 33 65  1  0  0  0  0
 34 66  1  0  0  0  0
 34 71  2  0  0  0  0
 35 49  1  0  0  0  0
 35 68  1  0  0  0  0
 35 72  2  0  0  0  0
 36 58  1  0  0  0  0
 36 63  1  0  0  0  0
 36 73  2  0  0  0  0
 37 59  1  0  0  0  0
 37 69  1  0  0  0  0
 37 74  2  0  0  0  0
 38 64  1  0  0  0  0
 38 67  1  0  0  0  0
 38 75  2  0  0  0  0
 39 42  1  0  0  0  0
 40 49  1  0  0  0  0
 41 63  1  0  0  0  0
 42 44  1  0  0  0  0
 43 45  1  0  0  0  0
 43 46  1  0  0  0  0
 44 48  1  0  0  0  0
 45 50  1  0  0  0  0
 46 64  1  0  0  0  0
 47 50  1  0  0  0  0
 47 64  1  0  0  0  0
 48 68  1  0  0  0  0
 49 63  1  0  0  0  0
 50 62  1  0  0  0  0
 52 59  1  0  0  0  0
 53 60  1  0  0  0  0
 54 60  1  0  0  0  0
 55 60  1  0  0  0  0
 56 70  1  0  0  0  0
 57 77  1  0  0  0  0
 58 60  1  0  0  0  0
 58 69  1  0  0  0  0
 59 70  1  0  0  0  0
 61 62  1  0  0  0  0
M  CHG  1  70   1
M  ISO  4  38 100  57 101  67 100  77 101
M  END
> <Batch ID>
0003

> <Smiles>
CNC(C)C(=O)NC(C(=O)N1Cc2cc([101O:1][101CH2:1]c3cccc([100NH:0][100C:0](=O)N4CCCC(n5nc(-c6ccc(Oc7ccc(F)cc7F)cc6)c(C(N)=O)c5N)C4)c3C)ccc2CC1C(=O)NC1CCCc2ccccc21)C(C)(C)C

> <Shape>
0.253

> <Color>
0.206

> <Negative vol penalty>
0.000

$$$$

  -OEChem-04052315213D

 84 92  0     1  0  0  0  0  0999 V2000
  -38.2472  -31.9545   16.3307 C   0  0  0  0  0  0  0  0  0  0  0  0
  -38.2554  -30.7337   16.9978 C   0  0  0  0  0  0  0  0  0  0  0  0
  -23.0207   -9.8587   20.0240 C   0  0  0  0  0  0  0  0  0  0  0  0
  -23.7012  -10.0172   22.3367 C   0  0  0  0  0  0  0  0  0  0  0  0
  -37.2610  -32.8975   16.6170 C   0  0  0  0  0  0  0  0  0  0  0  0
  -37.2778  -30.4557   17.9526 C   0  0  0  0  0  0  0  0  0  0  0  0
  -34.7368  -25.0120   19.1425 C   0  0  0  0  0  0  0  0  0  0  0  0
  -22.2571   -8.7312   20.3259 C   0  0  0  0  0  0  0  0  0  0  0  0
  -22.9376   -8.8897   22.6387 C   0  0  0  0  0  0  0  0  0  0  0  0
  -34.9878  -24.0542   20.1239 C   0  0  0  0  0  0  0  0  0  0  0  0
  -23.2139   -5.5351   22.3200 C   0  0  0  0  0  0  0  0  0  0  0  0
  -23.7940   -4.5568   23.1274 C   0  0  0  0  0  0  0  0  0  0  0  0
  -33.2091  -24.9746   21.4686 C   0  0  0  0  0  0  0  0  0  0  0  0
  -30.4110  -18.5370   23.8033 C   0  0  0  0  0  0  0  0  0  0  0  0
  -31.9835  -16.6667   22.4571 C   0  0  0  0  0  0  0  0  0  0  0  0
  -22.0367   -4.8601   24.7575 C   0  0  0  0  0  0  0  0  0  0  0  0
  -23.7428  -10.5017   21.0294 C   0  0  0  0  0  0  0  0  0  0  0  0
  -24.1141  -13.0100   20.7492 C   0  0  0  0  0  0  0  0  0  0  0  0
  -36.2652  -32.6270   17.5688 C   0  0  0  0  0  0  0  0  0  0  0  0
  -33.7255  -25.9668   19.3219 C   0  0  0  0  0  0  0  0  0  0  0  0
  -36.2781  -31.3965   18.2529 C   0  0  0  0  0  0  0  0  0  0  0  0
  -32.9456  -25.9419   20.4868 C   0  0  0  0  0  0  0  0  0  0  0  0
  -31.7938  -18.5279   23.9859 C   0  0  0  0  0  0  0  0  0  0  0  0
  -30.6006  -16.6758   22.2746 C   0  0  0  0  0  0  0  0  0  0  0  0
  -22.2155   -8.2467   21.6332 C   0  0  0  0  0  0  0  0  0  0  0  0
  -34.2258  -24.0371   21.2885 C   0  0  0  0  0  0  0  0  0  0  0  0
  -22.0453   -6.1761   22.7313 C   0  0  0  0  0  0  0  0  0  0  0  0
  -23.2054   -4.2192   24.3461 C   0  0  0  0  0  0  0  0  0  0  0  0
  -32.5801  -17.5928   23.3128 C   0  0  0  0  0  0  0  0  0  0  0  0
  -21.4567   -5.8386   23.9500 C   0  0  0  0  0  0  0  0  0  0  0  0
  -29.8144  -17.6109   22.9477 C   0  0  0  0  0  0  0  0  0  0  0  0
  -24.5323  -11.6661   20.7180 C   0  0  0  0  0  0  0  0  0  0  0  0
  -25.2256  -13.7243   20.3741 C   0  0  0  0  0  0  0  0  0  0  0  0
  -22.8352  -13.5631   21.0872 C   0  0  0  0  0  0  0  0  0  0  0  0
  -33.6451  -29.1379   19.5253 C   0  0  0  0  0  0  0  0  0  0  0  0
  -30.4357  -28.6667   19.5356 C   0  0  0  0  0  0  0  0  0  0  0  0
  -33.5540  -21.2641   23.5261 C   0  0  0  0  0  0  0  0  0  0  0  0
  -27.8173  -26.5701   20.1641 C   0  0  0  0  0  0  0  0  0  0  0  0
  -30.6928  -14.7372   20.6684 C   0  0  0  0  0  0  0  0  0  0  0  0
  -35.2476  -33.6962   17.8786 C   0  0  0  0  0  0  0  0  0  0  0  0
  -33.4496  -26.9768   18.2419 C   0  0  0  0  0  0  0  0  0  0  0  0
  -31.8348  -26.9323   20.7188 C   0  0  0  0  0  0  0  0  0  0  0  0
  -34.0275  -33.1754   18.6339 C   0  0  0  0  0  0  0  0  0  0  0  0
  -29.6362  -12.1753   18.4329 C   0  0  0  0  0  0  0  0  0  0  0  0
  -34.4582  -32.2767   19.7887 C   0  0  0  0  0  0  0  0  0  0  0  0
  -28.1798  -11.9250   18.8307 C   0  0  0  0  0  0  0  0  0  0  0  0
  -30.5117  -12.4790   19.6474 C   0  0  0  0  0  0  0  0  0  0  0  0
  -28.5658  -13.3111   20.9083 C   0  0  0  0  0  0  0  0  0  0  0  0
  -35.2201  -31.0481   19.2772 C   0  0  1  0  0  0  0  0  0  0  0  0
  -32.7348  -28.2222   18.7570 C   0  0  1  0  0  0  0  0  0  0  0  0
  -27.6324  -13.0650   19.7118 C   0  0  2  0  0  0  0  0  0  0  0  0
  -25.3100  -26.4798   20.1133 C   0  0  0  0  0  0  0  0  0  0  0  0
  -30.3267  -30.3236   22.0955 C   0  0  0  0  0  0  0  0  0  0  0  0
  -28.0285  -29.4171   22.5016 C   0  0  0  0  0  0  0  0  0  0  0  0
  -28.4842  -30.7918   20.4705 C   0  0  0  0  0  0  0  0  0  0  0  0
  -27.8209  -24.3742   18.1799 C   0  0  0  0  0  0  0  0  0  0  0  0
  -32.4330  -19.5261   24.9075 C   0  0  0  0  0  0  0  0  0  0  0  0
  -33.3606  -22.6859   23.0439 C   0  0  0  0  0  0  0  0  0  1  0  0
  -29.3925  -28.4360   20.6021 C   0  0  1  0  0  0  0  0  0  0  0  0
  -26.5927  -26.2133   19.3411 C   0  0  2  0  0  0  0  0  0  0  0  0
  -29.0801  -29.7245   21.4142 C   0  0  0  0  0  0  0  0  0  0  0  0
  -25.8098  -11.5321   20.3518 N   0  0  0  0  0  0  0  0  0  0  0  0
  -26.2038  -12.8009   20.1494 N   0  0  0  0  0  0  0  0  0  0  0  0
  -31.6079  -27.9040   19.6363 N   0  0  0  0  0  0  0  0  0  0  0  0
  -29.9333  -13.5718   20.4322 N   0  0  0  0  0  0  0  0  0  0  0  0
  -25.4518  -15.0460   20.2178 N   0  0  0  0  0  0  0  0  0  0  0  0
  -21.8031  -12.6870   21.4501 N   0  0  0  0  0  0  0  0  0  0  0  0
  -30.0270  -15.7212   21.3985 N   0  0  0  0  0  0  0  0  0  0  0  0
  -34.2989  -30.0691   18.7411 N   0  0  0  0  0  0  0  0  0  0  0  0
  -32.4967  -20.8432   24.3175 N   0  0  0  0  0  0  0  0  0  0  0  0
  -28.2354  -27.8619   19.9238 N   0  0  0  0  0  0  0  0  0  0  0  0
  -26.6237  -24.7716   18.9646 N   0  3  0  0  0  0  0  0  0  0  0  0
  -22.6095  -14.7965   21.0521 O   0  0  0  0  0  0  0  0  0  0  0  0
  -33.7458  -29.0101   20.7399 O   0  0  0  0  0  0  0  0  0  0  0  0
  -30.2156  -29.4881   18.6420 O   0  0  0  0  0  0  0  0  0  0  0  0
  -34.5398  -20.5922   23.2352 O   0  0  0  0  0  0  0  0  0  0  0  0
  -28.3476  -25.7830   20.9450 O   0  0  0  0  0  0  0  0  0  0  0  0
  -31.8389  -14.8648   20.2302 O   0  0  0  0  0  0  0  0  0  0  0  0
  -21.4702   -7.1466   21.9282 O   0  0  0  0  0  0  0  0  0  0  0  0
  -34.4691  -23.1036   22.2483 O   0  0  0  0  0  0  0  0  0  1  0  0
  -23.7616   -3.2786   25.1207 F   0  0  0  0  0  0  0  0  0  0  0  0
  -33.9096  -17.5763   23.4822 F   0  0  0  0  0  0  0  0  0  0  0  0
  -20.3333   -6.4500   24.3500 F   0  0  0  0  0  0  0  0  0  0  0  0
  -28.0986  -17.6569   22.7507 Cl  0  0  0  0  0  0  0  0  0  0  0  0
  1  2  1  0  0  0  0
  1  5  2  0  0  0  0
  2  6  2  0  0  0  0
  3  8  2  0  0  0  0
  3 17  1  0  0  0  0
  4  9  1  0  0  0  0
  4 17  2  0  0  0  0
  5 19  1  0  0  0  0
  6 21  1  0  0  0  0
  7 10  2  0  0  0  0
  7 20  1  0  0  0  0
  8 25  1  0  0  0  0
  9 25  2  0  0  0  0
 10 26  1  0  0  0  0
 11 12  2  0  0  0  0
 11 27  1  0  0  0  0
 12 28  1  0  0  0  0
 13 22  1  0  0  0  0
 13 26  2  0  0  0  0
 14 23  1  0  0  0  0
 14 31  2  0  0  0  0
 15 24  2  0  0  0  0
 15 29  1  0  0  0  0
 16 28  2  0  0  0  0
 16 30  1  0  0  0  0
 17 32  1  0  0  0  0
 18 32  1  0  0  0  0
 18 33  2  0  0  0  0
 18 34  1  0  0  0  0
 19 21  2  0  0  0  0
 19 40  1  0  0  0  0
 20 22  2  0  0  0  0
 20 41  1  0  0  0  0
 21 49  1  0  0  0  0
 22 42  1  0  0  0  0
 23 29  2  0  0  0  0
 23 57  1  0  0  0  0
 24 31  1  0  0  0  0
 24 68  1  0  0  0  0
 25 79  1  0  0  0  0
 26 80  1  0  0  0  0
 27 30  2  0  0  0  0
 27 79  1  0  0  0  0
 28 81  1  0  0  0  0
 29 82  1  0  0  0  0
 30 83  1  0  0  0  0
 31 84  1  0  0  0  0
 32 62  2  0  0  0  0
 33 63  1  0  0  0  0
 33 66  1  0  0  0  0
 34 67  1  0  0  0  0
 34 73  2  0  0  0  0
 35 50  1  0  0  0  0
 35 69  1  0  0  0  0
 35 74  2  0  0  0  0
 36 59  1  0  0  0  0
 36 64  1  0  0  0  0
 36 75  2  0  0  0  0
 37 58  1  0  0  0  0
 37 70  1  0  0  0  0
 37 76  2  0  0  0  0
 38 60  1  0  0  0  0
 38 71  1  0  0  0  0
 38 77  2  0  0  0  0
 39 65  1  0  0  0  0
 39 68  1  0  0  0  0
 39 78  2  0  0  0  0
 40 43  1  0  0  0  0
 41 50  1  0  0  0  0
 42 64  1  0  0  0  0
 43 45  1  0  0  0  0
 44 46  1  0  0  0  0
 44 47  1  0  0  0  0
 45 49  1  0  0  0  0
 46 51  1  0  0  0  0
 47 65  1  0  0  0  0
 48 51  1  0  0  0  0
 48 65  1  0  0  0  0
 49 69  1  0  0  0  0
 50 64  1  0  0  0  0
 51 63  1  0  0  0  0
 52 60  1  0  0  0  0
 53 61  1  0  0  0  0
 54 61  1  0  0  0  0
 55 61  1  0  0  0  0
 56 72  1  0  0  0  0
 57 70  1  0  0  0  0
 58 80  1  0  0  0  0
 59 61  1  0  0  0  0
 59 71  1  0  0  0  0
 60 72  1  0  0  0  0
 62 63  1  0  0  0  0
M  CHG  1  72   1
M  ISO  4  39 100  58 101  68 100  80 101
M  END
> <Batch ID>
0003

> <Smiles>
CNC(C)C(=O)NC(C(=O)N1Cc2cc([101O:1][101CH2:1]C(=O)NCc3cc(Cl)c([100NH:0][100C:0](=O)N4CCCC(n5nc(-c6ccc(Oc7ccc(F)cc7F)cc6)c(C(N)=O)c5N)C4)cc3F)ccc2CC1C(=O)NC1CCCc2ccccc21)C(C)(C)C

> <Shape>
0.228

> <Color>
0.200

> <Negative vol penalty>
0.000

$$$$

  -OEChem-04052315213D

 85 92  0     1  0  0  0  0  0999 V2000
  -27.1943  -24.2144   16.3331 C   0  0  0  0  0  0  0  0  0  0  0  0
  -26.6505  -23.7704   17.5342 C   0  0  0  0  0  0  0  0  0  0  0  0
  -23.1165   -9.9331   21.5509 C   0  0  0  0  0  0  0  0  0  0  0  0
  -23.9668  -10.9228   23.5843 C   0  0  0  0  0  0  0  0  0  0  0  0
  -27.8728  -25.4315   16.2841 C   0  0  0  0  0  0  0  0  0  0  0  0
  -26.7858  -24.5427   18.6873 C   0  0  0  0  0  0  0  0  0  0  0  0
  -22.4714  -24.8793   21.3174 C   0  0  0  0  0  0  0  0  0  0  0  0
  -22.4347   -8.9757   22.3020 C   0  0  0  0  0  0  0  0  0  0  0  0
  -23.2849   -9.9655   24.3354 C   0  0  0  0  0  0  0  0  0  0  0  0
  -22.1169  -23.7828   22.1021 C   0  0  0  0  0  0  0  0  0  0  0  0
  -23.1635   -6.1026   23.9264 C   0  0  0  0  0  0  0  0  0  0  0  0
  -23.2378   -4.7753   23.5042 C   0  0  0  0  0  0  0  0  0  0  0  0
  -22.9641  -24.9151   24.0564 C   0  0  0  0  0  0  0  0  0  0  0  0
  -20.8361   -4.7227   23.2469 C   0  0  0  0  0  0  0  0  0  0  0  0
  -23.8826  -10.9066   22.1921 C   0  0  0  0  0  0  0  0  0  0  0  0
  -24.1081  -13.1534   21.0052 C   0  0  0  0  0  0  0  0  0  0  0  0
  -28.0081  -26.2237   17.4351 C   0  0  0  0  0  0  0  0  0  0  0  0
  -23.0860  -25.9994   21.8955 C   0  0  0  0  0  0  0  0  0  0  0  0
  -27.4679  -25.7709   18.6539 C   0  0  0  0  0  0  0  0  0  0  0  0
  -23.3232  -26.0256   23.2772 C   0  0  0  0  0  0  0  0  0  0  0  0
  -22.5188   -8.9919   23.6942 C   0  0  0  0  0  0  0  0  0  0  0  0
  -22.3659  -23.7994   23.4713 C   0  0  0  0  0  0  0  0  0  0  0  0
  -21.9255   -6.7400   24.0089 C   0  0  0  0  0  0  0  0  0  0  0  0
  -22.0742   -4.0853   23.1644 C   0  0  0  0  0  0  0  0  0  0  0  0
  -20.7618   -6.0500   23.6691 C   0  0  0  0  0  0  0  0  0  0  0  0
  -24.5877  -11.8955   21.4167 C   0  0  0  0  0  0  0  0  0  0  0  0
  -25.1508  -13.7050   20.3016 C   0  0  0  0  0  0  0  0  0  0  0  0
  -22.8340  -13.7683   21.2381 C   0  0  0  0  0  0  0  0  0  0  0  0
  -25.8937  -27.4478   21.5458 C   0  0  0  0  0  0  0  0  0  0  0  0
  -24.5810  -29.6266   23.5587 C   0  0  0  0  0  0  0  0  0  0  0  0
  -22.3356  -20.3627   24.6273 C   0  0  0  0  0  0  0  0  0  0  0  0
  -22.2822  -30.3124   25.9861 C   0  0  0  0  0  0  0  0  0  0  0  0
  -30.7403  -14.7405   20.2549 C   0  0  0  0  0  0  0  0  0  0  0  0
  -28.7909  -27.5095   17.3434 C   0  0  0  0  0  0  0  0  0  0  0  0
  -23.4380  -27.1851   21.0396 C   0  0  0  0  0  0  0  0  0  0  0  0
  -23.9620  -27.2122   23.9498 C   0  0  0  0  0  0  0  0  0  0  0  0
  -28.5660  -28.4454   18.5282 C   0  0  0  0  0  0  0  0  0  0  0  0
  -29.4594  -11.6710   18.6304 C   0  0  0  0  0  0  0  0  0  0  0  0
  -28.6553  -27.6748   19.8416 C   0  0  0  0  0  0  0  0  0  0  0  0
  -28.0649  -11.5296   19.2381 C   0  0  0  0  0  0  0  0  0  0  0  0
  -30.4190  -12.3901   19.5737 C   0  0  0  0  0  0  0  0  0  0  0  0
  -28.5317  -13.5737   20.6468 C   0  0  0  0  0  0  0  0  0  0  0  0
  -27.5724  -26.5920   19.9208 C   0  0  1  0  0  0  0  0  0  0  0  0
  -24.5264  -28.0616   21.6515 C   0  0  1  0  0  0  0  0  0  0  0  0
  -27.5280  -12.8945   19.7029 C   0  0  2  0  0  0  0  0  0  0  0  0
  -32.1353  -19.1414   19.8930 C   0  0  0  0  0  0  0  0  0  0  0  0
  -21.4731  -32.1721   27.4639 C   0  0  0  0  0  0  0  0  0  0  0  0
  -27.0393  -29.2828   25.3331 C   0  0  0  0  0  0  0  0  0  0  0  0
  -25.7705  -30.3897   27.1860 C   0  0  0  0  0  0  0  0  0  0  0  0
  -26.2539  -31.6442   25.0847 C   0  0  0  0  0  0  0  0  0  0  0  0
  -19.5642  -30.2130   24.8193 C   0  0  0  0  0  0  0  0  0  0  0  0
  -22.0407  -21.4478   23.6138 C   0  0  0  0  0  0  0  0  0  1  0  0
  -31.2116  -17.9525   19.6673 C   0  0  0  0  0  0  0  0  0  0  0  0
  -26.1271  -17.0458   23.4281 C   0  0  0  0  0  0  0  0  0  0  0  0
  -24.6284  -17.3509   23.4042 C   0  0  0  0  0  0  0  0  0  0  0  0
  -26.6698  -16.8102   22.0170 C   0  0  0  0  0  0  0  0  0  0  0  0
  -24.0793  -17.5532   24.8165 C   0  0  0  0  0  0  0  0  0  0  0  0
  -28.1763  -16.5351   22.0405 C   0  0  0  0  0  0  0  0  0  0  0  0
  -31.0364  -17.0972   20.9165 C   0  0  0  0  0  0  0  0  0  0  0  0
  -22.5944  -17.8946   24.7909 C   0  0  0  0  0  0  0  0  0  0  0  0
  -28.7393  -16.2367   20.6548 C   0  0  0  0  0  0  0  0  0  0  0  0
  -24.5248  -29.7999   25.0573 C   0  0  1  0  0  0  0  0  0  0  0  0
  -21.2874  -31.4488   26.1391 C   0  0  2  0  0  0  0  0  0  0  0  0
  -25.8868  -30.2559   25.6526 C   0  0  0  0  0  0  0  0  0  0  0  0
  -25.8377  -11.6615   21.0085 N   0  0  0  0  0  0  0  0  0  0  0  0
  -26.1524  -12.7799   20.3330 N   0  0  0  0  0  0  0  0  0  0  0  0
  -24.2937  -28.3445   23.0693 N   0  0  0  0  0  0  0  0  0  0  0  0
  -29.8654  -13.6641   20.0340 N   0  0  0  0  0  0  0  0  0  0  0  0
  -25.2993  -14.8863   19.6653 N   0  0  0  0  0  0  0  0  0  0  0  0
  -21.8773  -13.0628   21.9806 N   0  0  0  0  0  0  0  0  0  0  0  0
  -26.2920  -27.1809   20.2498 N   0  0  0  0  0  0  0  0  0  0  0  0
  -22.3407  -19.1051   24.0445 N   0  0  0  0  0  0  0  0  0  0  0  0
  -23.4206  -30.7162   25.3211 N   0  0  0  0  0  0  0  0  0  0  0  0
  -30.1716  -15.9489   20.6850 N   0  0  0  0  0  0  0  0  0  0  0  0
  -19.8925  -30.9277   26.0796 N   0  3  0  0  0  0  0  0  0  0  0  0
  -22.5463  -14.9028   20.7867 O   0  0  0  0  0  0  0  0  0  0  0  0
  -26.5402  -27.2335   22.5645 O   0  0  0  0  0  0  0  0  0  0  0  0
  -24.8621  -30.5949   22.8480 O   0  0  0  0  0  0  0  0  0  0  0  0
  -22.5395  -20.6003   25.8147 O   0  0  0  0  0  0  0  0  0  0  0  0
  -22.0721  -29.1807   26.4168 O   0  0  0  0  0  0  0  0  0  0  0  0
  -31.9589  -14.6306   20.0686 O   0  0  0  0  0  0  0  0  0  0  0  0
  -21.8534   -8.0580   24.4275 O   0  0  0  0  0  0  0  0  0  0  0  0
  -22.0214  -22.7302   24.2395 O   0  0  0  0  0  0  0  0  0  1  0  0
  -22.1458   -2.8112   22.7575 F   0  0  0  0  0  0  0  0  0  0  0  0
  -19.5697   -6.6574   23.7452 F   0  0  0  0  0  0  0  0  0  0  0  0
  1  2  1  0  0  0  0
  1  5  2  0  0  0  0
  2  6  2  0  0  0  0
  3  8  2  0  0  0  0
  3 15  1  0  0  0  0
  4  9  1  0  0  0  0
  4 15  2  0  0  0  0
  5 17  1  0  0  0  0
  6 19  1  0  0  0  0
  7 10  2  0  0  0  0
  7 18  1  0  0  0  0
  8 21  1  0  0  0  0
  9 21  2  0  0  0  0
 10 22  1  0  0  0  0
 11 12  2  0  0  0  0
 11 23  1  0  0  0  0
 12 24  1  0  0  0  0
 13 20  1  0  0  0  0
 13 22  2  0  0  0  0
 14 24  2  0  0  0  0
 14 25  1  0  0  0  0
 15 26  1  0  0  0  0
 16 26  1  0  0  0  0
 16 27  2  0  0  0  0
 16 28  1  0  0  0  0
 17 19  2  0  0  0  0
 17 34  1  0  0  0  0
 18 20  2  0  0  0  0
 18 35  1  0  0  0  0
 19 43  1  0  0  0  0
 20 36  1  0  0  0  0
 21 82  1  0  0  0  0
 22 83  1  0  0  0  0
 23 25  2  0  0  0  0
 23 82  1  0  0  0  0
 24 84  1  0  0  0  0
 25 85  1  0  0  0  0
 26 65  2  0  0  0  0
 27 66  1  0  0  0  0
 27 69  1  0  0  0  0
 28 70  1  0  0  0  0
 28 76  2  0  0  0  0
 29 44  1  0  0  0  0
 29 71  1  0  0  0  0
 29 77  2  0  0  0  0
 30 62  1  0  0  0  0
 30 67  1  0  0  0  0
 30 78  2  0  0  0  0
 31 52  1  0  0  0  0
 31 72  1  0  0  0  0
 31 79  2  0  0  0  0
 32 63  1  0  0  0  0
 32 73  1  0  0  0  0
 32 80  2  0  0  0  0
 33 68  1  0  0  0  0
 33 74  1  0  0  0  0
 33 81  2  0  0  0  0
 34 37  1  0  0  0  0
 35 44  1  0  0  0  0
 36 67  1  0  0  0  0
 37 39  1  0  0  0  0
 38 40  1  0  0  0  0
 38 41  1  0  0  0  0
 39 43  1  0  0  0  0
 40 45  1  0  0  0  0
 41 68  1  0  0  0  0
 42 45  1  0  0  0  0
 42 68  1  0  0  0  0
 43 71  1  0  0  0  0
 44 67  1  0  0  0  0
 45 66  1  0  0  0  0
 46 53  1  0  0  0  0
 47 63  1  0  0  0  0
 48 64  1  0  0  0  0
 49 64  1  0  0  0  0
 50 64  1  0  0  0  0
 51 75  1  0  0  0  0
 52 83  1  0  0  0  0
 53 59  1  0  0  0  0
 54 55  1  0  0  0  0
 54 56  1  0  0  0  0
 55 57  1  0  0  0  0
 56 58  1  0  0  0  0
 57 60  1  0  0  0  0
 58 61  1  0  0  0  0
 59 74  1  0  0  0  0
 60 72  1  0  0  0  0
 61 74  1  0  0  0  0
 62 64  1  0  0  0  0
 62 73  1  0  0  0  0
 63 75  1  0  0  0  0
 65 66  1  0  0  0  0
M  CHG  1  75   1
M  ISO  4  33 100  52 101  74 100  83 101
M  END
> <Batch ID>
0003

> <Smiles>
CCC[100N:0](CCCCCCCNC(=O)[101CH2:1][101O:1]c1ccc2c(c1)CN(C(=O)C(NC(=O)C(C)NC)C(C)(C)C)C(C(=O)NC1CCCc3ccccc31)C2)[100C:0](=O)N1CCCC(n2nc(-c3ccc(Oc4ccc(F)cc4F)cc3)c(C(N)=O)c2N)C1

> <Shape>
0.234

> <Color>
0.158

> <Negative vol penalty>
0.000

$$$$
