
  -OEChem-04052315243D

 99108  0     1  0  0  0  0  0999 V2000
  -29.6394  -32.4284   21.6137 C   0  0  0  0  0  0  0  0  0  0  0  0
  -29.8566  -31.2318   20.9383 C   0  0  0  0  0  0  0  0  0  0  0  0
  -27.2948  -16.0708   16.3759 C   0  0  0  0  0  0  0  0  0  0  0  0
  -28.5772  -16.6194   16.3715 C   0  0  0  0  0  0  0  0  0  0  0  0
  -31.3269  -19.0781   20.6256 C   0  0  0  0  0  0  0  0  0  0  0  0
  -23.0738   -9.8747   19.9364 C   0  0  0  0  0  0  0  0  0  0  0  0
  -23.8360   -9.8724   22.2290 C   0  0  0  0  0  0  0  0  0  0  0  0
  -28.5651  -32.5453   22.4947 C   0  0  0  0  0  0  0  0  0  0  0  0
  -29.0001  -30.1508   21.1442 C   0  0  0  0  0  0  0  0  0  0  0  0
  -27.2819  -25.9748   17.0072 C   0  0  0  0  0  0  0  0  0  0  0  0
  -26.1953  -16.8651   16.0507 C   0  0  0  0  0  0  0  0  0  0  0  0
  -30.5966  -19.8624   21.5184 C   0  0  0  0  0  0  0  0  0  0  0  0
  -31.1577  -17.6935   20.6139 C   0  0  0  0  0  0  0  0  0  0  0  0
  -28.7601  -17.9624   16.0419 C   0  0  0  0  0  0  0  0  0  0  0  0
  -22.3290   -8.7215   20.1829 C   0  0  0  0  0  0  0  0  0  0  0  0
  -23.0911   -8.7192   22.4755 C   0  0  0  0  0  0  0  0  0  0  0  0
  -27.7297  -24.6824   16.7374 C   0  0  0  0  0  0  0  0  0  0  0  0
  -19.8627   -7.9226   23.0783 C   0  0  0  0  0  0  0  0  0  0  0  0
  -19.1069   -7.8791   24.2498 C   0  0  0  0  0  0  0  0  0  0  0  0
  -25.9570  -23.7886   18.1077 C   0  0  0  0  0  0  0  0  0  0  0  0
  -29.5281  -17.8776   22.3880 C   0  0  0  0  0  0  0  0  0  0  0  0
  -20.3469   -5.9377   24.9779 C   0  0  0  0  0  0  0  0  0  0  0  0
  -23.8274  -10.4502   20.9595 C   0  0  0  0  0  0  0  0  0  0  0  0
  -24.1718  -12.9754   20.8484 C   0  0  0  0  0  0  0  0  0  0  0  0
  -27.6894  -31.4683   22.7042 C   0  0  0  0  0  0  0  0  0  0  0  0
  -26.1731  -26.1846   17.8396 C   0  0  0  0  0  0  0  0  0  0  0  0
  -27.9138  -30.2529   22.0298 C   0  0  0  0  0  0  0  0  0  0  0  0
  -25.4956  -25.0845   18.3845 C   0  0  0  0  0  0  0  0  0  0  0  0
  -29.6973  -19.2622   22.3996 C   0  0  0  0  0  0  0  0  0  0  0  0
  -26.3781  -18.2080   15.7211 C   0  0  0  0  0  0  0  0  0  0  0  0
  -30.2584  -17.0933   21.4951 C   0  0  0  0  0  0  0  0  0  0  0  0
  -22.3376   -8.1437   21.4524 C   0  0  0  0  0  0  0  0  0  0  0  0
  -27.0690  -23.5891   17.2899 C   0  0  0  0  0  0  0  0  0  0  0  0
  -27.6605  -18.7567   15.7167 C   0  0  0  0  0  0  0  0  0  0  0  0
  -20.8606   -6.9735   22.8565 C   0  0  0  0  0  0  0  0  0  0  0  0
  -19.3490   -6.8867   25.1996 C   0  0  0  0  0  0  0  0  0  0  0  0
  -21.1027   -5.9811   23.8063 C   0  0  0  0  0  0  0  0  0  0  0  0
  -24.5975  -11.6412   20.7054 C   0  0  0  0  0  0  0  0  0  0  0  0
  -25.2644  -13.7251   20.4869 C   0  0  0  0  0  0  0  0  0  0  0  0
  -22.9023  -13.4910   21.2705 C   0  0  0  0  0  0  0  0  0  0  0  0
  -25.7007  -27.6518   20.6195 C   0  0  0  0  0  0  0  0  0  0  0  0
  -22.5894  -26.9678   20.0078 C   0  0  0  0  0  0  0  0  0  0  0  0
  -24.5242  -20.7893   22.7906 C   0  0  0  0  0  0  0  0  0  0  0  0
  -20.3197  -24.9961   18.3929 C   0  0  0  0  0  0  0  0  0  0  0  0
  -30.7319  -14.7642   20.6600 C   0  0  0  0  0  0  0  0  0  0  0  0
  -26.5696  -31.6268   23.7020 C   0  0  0  0  0  0  0  0  0  0  0  0
  -25.6863  -27.5839   18.0993 C   0  0  0  0  0  0  0  0  0  0  0  0
  -24.2879  -25.2552   19.2681 C   0  0  0  0  0  0  0  0  0  0  0  0
  -25.4892  -30.5553   23.5804 C   0  0  0  0  0  0  0  0  0  0  0  0
  -29.6125  -12.3603   18.2839 C   0  0  0  0  0  0  0  0  0  0  0  0
  -26.1204  -29.1714   23.4650 C   0  0  0  0  0  0  0  0  0  0  0  0
  -28.1730  -12.0687   18.7139 C   0  0  0  0  0  0  0  0  0  0  0  0
  -30.5291  -12.5837   19.4855 C   0  0  0  0  0  0  0  0  0  0  0  0
  -28.6243  -13.3051   20.8713 C   0  0  0  0  0  0  0  0  0  0  0  0
  -26.9923  -29.0659   22.2079 C   0  0  1  0  0  0  0  0  0  0  0  0
  -24.8591  -27.7015   19.3757 C   0  0  1  0  0  0  0  0  0  0  0  0
  -27.6501  -13.1372   19.6938 C   0  0  2  0  0  0  0  0  0  0  0  0
  -17.8486  -24.6559   18.1184 C   0  0  0  0  0  0  0  0  0  0  0  0
  -22.4667  -25.6560   22.7599 C   0  0  0  0  0  0  0  0  0  0  0  0
  -20.3431  -24.5338   22.0534 C   0  0  0  0  0  0  0  0  0  0  0  0
  -20.4587  -27.0232   22.1655 C   0  0  0  0  0  0  0  0  0  0  0  0
  -20.4522  -25.5279   15.4845 C   0  0  0  0  0  0  0  0  0  0  0  0
  -28.9080  -20.1106   23.3646 C   0  0  0  0  0  0  0  0  0  0  0  0
  -25.1897  -19.0432   15.3761 C   0  0  0  0  0  0  0  0  0  0  0  0
  -25.4680  -21.9275   23.1430 C   0  0  0  0  0  0  0  0  0  0  0  0
  -27.5765  -20.5613   22.7564 C   0  0  0  0  0  0  0  0  0  0  0  0
  -24.6894  -19.9428   16.5214 C   0  0  0  0  0  0  0  0  0  0  0  0
  -26.8027  -21.4625   23.7237 C   0  0  0  0  0  0  0  0  0  0  0  0
  -24.1993  -19.1979   17.7689 C   0  0  0  0  0  0  0  0  0  0  0  0
  -23.7271  -20.1290   18.8882 C   0  0  0  0  0  0  0  0  0  0  0  0
  -23.2220  -19.3304   20.0944 C   0  0  0  0  0  0  0  0  0  0  0  0
  -22.6890  -20.2280   21.2070 C   0  0  0  0  0  0  0  0  0  0  0  0
  -28.6441  -22.1951   16.1801 C   0  0  0  0  0  0  0  0  0  1  0  0
  -28.9658  -20.7233   16.0073 C   0  0  0  0  0  0  0  0  0  0  0  0
  -21.6705  -25.8084   20.3086 C   0  0  1  0  0  0  0  0  0  0  0  0
  -19.0911  -25.3405   17.5705 C   0  0  2  0  0  0  0  0  0  0  0  0
  -21.2586  -25.7519   21.8068 C   0  0  0  0  0  0  0  0  0  0  0  0
  -25.8618  -11.5456   20.2855 N   0  0  0  0  0  0  0  0  0  0  0  0
  -26.2400  -12.8292   20.1615 N   0  0  0  0  0  0  0  0  0  0  0  0
  -23.8543  -26.6433   19.4975 N   0  0  0  0  0  0  0  0  0  0  0  0
  -29.9721  -13.6119   20.3672 N   0  0  0  0  0  0  0  0  0  0  0  0
  -25.4762  -15.0566   20.4185 N   0  0  0  0  0  0  0  0  0  0  0  0
  -21.8897  -12.5817   21.6054 N   0  0  0  0  0  0  0  0  0  0  0  0
  -30.0863  -15.6869   21.4825 N   0  0  0  0  0  0  0  0  0  0  0  0
  -26.1661  -28.8853   21.0335 N   0  0  0  0  0  0  0  0  0  0  0  0
  -23.6914  -21.1182   21.7256 N   0  0  0  0  0  0  0  0  0  0  0  0
  -20.5479  -25.9268   19.3844 N   0  0  0  0  0  0  0  0  0  0  0  0
  -19.2784  -24.9123   16.1554 N   0  3  0  0  0  0  0  0  0  0  0  0
  -22.6674  -14.7217   21.3326 O   0  0  0  0  0  0  0  0  0  0  0  0
  -25.9110  -26.5744   21.1641 O   0  0  0  0  0  0  0  0  0  0  0  0
  -22.1965  -28.1193   20.2112 O   0  0  0  0  0  0  0  0  0  0  0  0
  -24.4995  -19.7223   23.3980 O   0  0  0  0  0  0  0  0  0  0  0  0
  -21.0060  -23.9991   18.1797 O   0  0  0  0  0  0  0  0  0  0  0  0
  -31.8607  -14.9334   20.1919 O   0  0  0  0  0  0  0  0  0  0  0  0
  -21.6107   -7.0185   21.6933 O   0  0  0  0  0  0  0  0  0  0  0  0
  -27.5044  -22.3266   17.0287 O   0  0  0  0  0  0  0  0  0  1  0  0
  -27.8575  -20.0741   15.3962 O   0  0  0  0  0  0  0  0  0  0  0  0
  -18.6241   -6.8460   26.3253 F   0  0  0  0  0  0  0  0  0  0  0  0
  -22.0609   -5.0673   23.5994 F   0  0  0  0  0  0  0  0  0  0  0  0
  1  2  1  0  0  0  0
  1  8  2  0  0  0  0
  2  9  2  0  0  0  0
  3  4  1  0  0  0  0
  3 11  2  0  0  0  0
  4 14  2  0  0  0  0
  5 12  2  0  0  0  0
  5 13  1  0  0  0  0
  6 15  2  0  0  0  0
  6 23  1  0  0  0  0
  7 16  1  0  0  0  0
  7 23  2  0  0  0  0
  8 25  1  0  0  0  0
  9 27  1  0  0  0  0
 10 17  2  0  0  0  0
 10 26  1  0  0  0  0
 11 30  1  0  0  0  0
 12 29  1  0  0  0  0
 13 31  2  0  0  0  0
 14 34  1  0  0  0  0
 15 32  1  0  0  0  0
 16 32  2  0  0  0  0
 17 33  1  0  0  0  0
 18 19  2  0  0  0  0
 18 35  1  0  0  0  0
 19 36  1  0  0  0  0
 20 28  1  0  0  0  0
 20 33  2  0  0  0  0
 21 29  2  0  0  0  0
 21 31  1  0  0  0  0
 22 36  2  0  0  0  0
 22 37  1  0  0  0  0
 23 38  1  0  0  0  0
 24 38  1  0  0  0  0
 24 39  2  0  0  0  0
 24 40  1  0  0  0  0
 25 27  2  0  0  0  0
 25 46  1  0  0  0  0
 26 28  2  0  0  0  0
 26 47  1  0  0  0  0
 27 55  1  0  0  0  0
 28 48  1  0  0  0  0
 29 63  1  0  0  0  0
 30 34  2  0  0  0  0
 30 64  1  0  0  0  0
 31 84  1  0  0  0  0
 32 95  1  0  0  0  0
 33 96  1  0  0  0  0
 34 97  1  0  0  0  0
 35 37  2  0  0  0  0
 35 95  1  0  0  0  0
 36 98  1  0  0  0  0
 37 99  1  0  0  0  0
 38 78  2  0  0  0  0
 39 79  1  0  0  0  0
 39 82  1  0  0  0  0
 40 83  1  0  0  0  0
 40 89  2  0  0  0  0
 41 56  1  0  0  0  0
 41 85  1  0  0  0  0
 41 90  2  0  0  0  0
 42 75  1  0  0  0  0
 42 80  1  0  0  0  0
 42 91  2  0  0  0  0
 43 65  1  0  0  0  0
 43 86  1  0  0  0  0
 43 92  2  0  0  0  0
 44 76  1  0  0  0  0
 44 87  1  0  0  0  0
 44 93  2  0  0  0  0
 45 81  1  0  0  0  0
 45 84  1  0  0  0  0
 45 94  2  0  0  0  0
 46 49  1  0  0  0  0
 47 56  1  0  0  0  0
 48 80  1  0  0  0  0
 49 51  1  0  0  0  0
 50 52  1  0  0  0  0
 50 53  1  0  0  0  0
 51 55  1  0  0  0  0
 52 57  1  0  0  0  0
 53 81  1  0  0  0  0
 54 57  1  0  0  0  0
 54 81  1  0  0  0  0
 55 85  1  0  0  0  0
 56 80  1  0  0  0  0
 57 79  1  0  0  0  0
 58 76  1  0  0  0  0
 59 77  1  0  0  0  0
 60 77  1  0  0  0  0
 61 77  1  0  0  0  0
 62 88  1  0  0  0  0
 63 66  1  0  0  0  0
 64 67  1  0  0  0  0
 65 68  1  0  0  0  0
 66 68  1  0  0  0  0
 67 69  1  0  0  0  0
 69 70  1  0  0  0  0
 70 71  1  0  0  0  0
 71 72  1  0  0  0  0
 72 86  1  0  0  0  0
 73 74  1  0  0  0  0
 73 96  1  0  0  0  0
 74 97  1  0  0  0  0
 75 77  1  0  0  0  0
 75 87  1  0  0  0  0
 76 88  1  0  0  0  0
 78 79  1  0  0  0  0
M  CHG  1  88   1
M  ISO  4  45 100  73 101  84 100  96 101
M  END
> <Batch ID>
0004

> <Smiles>
CNC(C)C(=O)NC(C(=O)N1Cc2cc([101O:1][101CH2:1]COc3ccccc3CCCCCCNC(=O)CCCCc3cccc([100NH:0][100C:0](=O)N4CCCC(n5nc(-c6ccc(Oc7ccc(F)cc7F)cc6)c(C(N)=O)c5N)C4)c3)ccc2CC1C(=O)NC1CCCc2ccccc21)C(C)(C)C

> <Shape>
0.256

> <Color>
0.177

> <Negative vol penalty>
0.000

$$$$

  -OEChem-04052315243D

 82 90  0     1  0  0  0  0  0999 V2000
  -28.4353  -32.7061   28.2182 C   0  0  0  0  0  0  0  0  0  0  0  0
  -28.3458  -31.6820   27.2809 C   0  0  0  0  0  0  0  0  0  0  0  0
  -24.6068   -8.6828   21.4336 C   0  0  0  0  0  0  0  0  0  0  0  0
  -23.1647  -10.6099   21.2236 C   0  0  0  0  0  0  0  0  0  0  0  0
  -27.3849  -33.6115   28.3622 C   0  0  0  0  0  0  0  0  0  0  0  0
  -27.2053  -31.5621   26.4876 C   0  0  0  0  0  0  0  0  0  0  0  0
  -28.3058  -30.6897   21.6222 C   0  0  0  0  0  0  0  0  0  0  0  0
  -26.1556  -18.0367   19.7879 C   0  0  0  0  0  0  0  0  0  0  0  0
  -28.3999  -18.4803   20.5646 C   0  0  0  0  0  0  0  0  0  0  0  0
  -23.7770   -8.1705   22.4309 C   0  0  0  0  0  0  0  0  0  0  0  0
  -22.3349  -10.0975   22.2208 C   0  0  0  0  0  0  0  0  0  0  0  0
  -28.6745  -29.3905   21.2758 C   0  0  0  0  0  0  0  0  0  0  0  0
  -25.7701  -19.3223   20.1677 C   0  0  0  0  0  0  0  0  0  0  0  0
  -28.0144  -19.7659   20.9444 C   0  0  0  0  0  0  0  0  0  0  0  0
  -20.8206   -6.5402   22.6173 C   0  0  0  0  0  0  0  0  0  0  0  0
  -20.4844   -5.1882   22.5496 C   0  0  0  0  0  0  0  0  0  0  0  0
  -26.4414  -28.9805   20.4607 C   0  0  0  0  0  0  0  0  0  0  0  0
  -21.5037   -4.8265   24.7100 C   0  0  0  0  0  0  0  0  0  0  0  0
  -24.3007   -9.9026   20.8300 C   0  0  0  0  0  0  0  0  0  0  0  0
  -25.0599  -10.2084   18.4139 C   0  0  0  0  0  0  0  0  0  0  0  0
  -26.2350  -33.5084   27.5636 C   0  0  0  0  0  0  0  0  0  0  0  0
  -26.9969  -31.1413   21.4000 C   0  0  0  0  0  0  0  0  0  0  0  0
  -26.1379  -32.4662   26.6220 C   0  0  0  0  0  0  0  0  0  0  0  0
  -26.0593  -30.2867   20.8028 C   0  0  0  0  0  0  0  0  0  0  0  0
  -27.4705  -17.6157   19.9865 C   0  0  0  0  0  0  0  0  0  0  0  0
  -22.6410   -8.8778   22.8245 C   0  0  0  0  0  0  0  0  0  0  0  0
  -26.6994  -20.1869   20.7459 C   0  0  0  0  0  0  0  0  0  0  0  0
  -27.7415  -28.5347   20.6976 C   0  0  0  0  0  0  0  0  0  0  0  0
  -21.4985   -7.0354   23.7313 C   0  0  0  0  0  0  0  0  0  0  0  0
  -20.8259   -4.3313   23.5960 C   0  0  0  0  0  0  0  0  0  0  0  0
  -21.8400   -6.1786   24.7777 C   0  0  0  0  0  0  0  0  0  0  0  0
  -25.1578  -10.4326   19.8002 C   0  0  0  0  0  0  0  0  0  0  0  0
  -26.0985  -10.9280   17.8755 C   0  0  0  0  0  0  0  0  0  0  0  0
  -24.1145   -9.4203   17.6785 C   0  0  0  0  0  0  0  0  0  0  0  0
  -24.6350  -32.1752   23.2590 C   0  0  0  0  0  0  0  0  0  0  0  0
  -23.1907  -32.7871   20.4197 C   0  0  0  0  0  0  0  0  0  0  0  0
  -22.9348  -32.0878   17.0892 C   0  0  0  0  0  0  0  0  0  0  0  0
  -29.1265  -15.7349   19.7276 C   0  0  0  0  0  0  0  0  0  0  0  0
  -25.1055  -34.4823   27.7882 C   0  0  0  0  0  0  0  0  0  0  0  0
  -26.6224  -32.5541   21.7548 C   0  0  0  0  0  0  0  0  0  0  0  0
  -24.6469  -30.7295   20.5247 C   0  0  0  0  0  0  0  0  0  0  0  0
  -24.0901  -34.5107   26.6487 C   0  0  0  0  0  0  0  0  0  0  0  0
  -30.4822  -12.5399   18.9334 C   0  0  0  0  0  0  0  0  0  0  0  0
  -23.7074  -33.0920   26.2391 C   0  0  0  0  0  0  0  0  0  0  0  0
  -29.2609  -11.6176   18.9334 C   0  0  0  0  0  0  0  0  0  0  0  0
  -30.3839  -13.6113   20.0179 C   0  0  0  0  0  0  0  0  0  0  0  0
  -27.9240  -13.4777   20.0009 C   0  0  0  0  0  0  0  0  0  0  0  0
  -24.9276  -32.3180   25.7258 C   0  0  1  0  0  0  0  0  0  0  0  0
  -25.1217  -32.7420   21.9554 C   0  0  1  0  0  0  0  0  0  0  0  0
  -27.9472  -12.4222   18.8833 C   0  0  2  0  0  0  0  0  0  0  0  0
  -21.6379  -32.7230   15.0369 C   0  0  0  0  0  0  0  0  0  0  0  0
  -20.8142  -31.1552   21.4192 C   0  0  0  0  0  0  0  0  0  0  0  0
  -19.9998  -31.0231   19.0554 C   0  0  0  0  0  0  0  0  0  0  0  0
  -20.2013  -33.2399   20.1813 C   0  0  0  0  0  0  0  0  0  0  0  0
  -25.3721  -33.0292   15.6991 C   0  0  0  0  0  0  0  0  0  0  0  0
  -26.6764  -23.8123   20.7993 C   0  0  0  0  0  0  0  0  0  0  0  0
  -27.7164  -24.9244   20.7195 C   0  0  0  0  0  0  0  0  0  0  0  0
  -27.3204  -22.4594   21.0714 C   0  0  0  0  0  0  0  0  0  0  0  0
  -27.0778  -26.2698   20.4050 C   0  0  0  0  0  0  0  0  0  1  0  0
  -22.2967  -32.0084   19.4852 C   0  0  1  0  0  0  0  0  0  0  0  0
  -22.8805  -32.9923   15.8712 C   0  0  2  0  0  0  0  0  0  0  0  0
  -20.8540  -31.8474   20.0422 C   0  0  0  0  0  0  0  0  0  0  0  0
  -26.1782  -11.2319   20.1225 N   0  0  0  0  0  0  0  0  0  0  0  0
  -26.7310  -11.5163   18.9310 N   0  0  0  0  0  0  0  0  0  0  0  0
  -24.3273  -32.1181   20.8953 N   0  0  0  0  0  0  0  0  0  0  0  0
  -29.1157  -14.3353   19.9056 N   0  0  0  0  0  0  0  0  0  0  0  0
  -26.5234  -11.1086   16.6069 N   0  0  0  0  0  0  0  0  0  0  0  0
  -23.1114   -8.7460   18.3881 N   0  0  0  0  0  0  0  0  0  0  0  0
  -27.8623  -16.3097   19.6008 N   0  0  0  0  0  0  0  0  0  0  0  0
  -25.2473  -32.7184   24.3723 N   0  0  0  0  0  0  0  0  0  0  0  0
  -22.3669  -32.6850   18.1946 N   0  0  0  0  0  0  0  0  0  0  0  0
  -24.0791  -32.7769   15.0123 N   0  3  0  0  0  0  0  0  0  0  0  0
  -24.1679   -9.3037   16.4307 O   0  0  0  0  0  0  0  0  0  0  0  0
  -23.7670  -31.3102   23.2552 O   0  0  0  0  0  0  0  0  0  0  0  0
  -22.8953  -33.9488   20.7110 O   0  0  0  0  0  0  0  0  0  0  0  0
  -23.4280  -30.9624   17.0617 O   0  0  0  0  0  0  0  0  0  0  0  0
  -30.1805  -16.3728   19.6632 O   0  0  0  0  0  0  0  0  0  0  0  0
  -21.8309   -8.3781   23.7974 O   0  0  0  0  0  0  0  0  0  0  0  0
  -26.3207  -21.4501   21.1190 O   0  0  0  0  0  0  0  0  0  0  0  0
  -28.0986  -27.2660   20.3592 O   0  0  0  0  0  0  0  0  0  1  0  0
  -20.5016   -3.0333   23.5315 F   0  0  0  0  0  0  0  0  0  0  0  0
  -22.4902   -6.6487   25.8510 F   0  0  0  0  0  0  0  0  0  0  0  0
  1  2  1  0  0  0  0
  1  5  2  0  0  0  0
  2  6  2  0  0  0  0
  3 10  2  0  0  0  0
  3 19  1  0  0  0  0
  4 11  1  0  0  0  0
  4 19  2  0  0  0  0
  5 21  1  0  0  0  0
  6 23  1  0  0  0  0
  7 12  2  0  0  0  0
  7 22  1  0  0  0  0
  8 13  2  0  0  0  0
  8 25  1  0  0  0  0
  9 14  1  0  0  0  0
  9 25  2  0  0  0  0
 10 26  1  0  0  0  0
 11 26  2  0  0  0  0
 12 28  1  0  0  0  0
 13 27  1  0  0  0  0
 14 27  2  0  0  0  0
 15 16  2  0  0  0  0
 15 29  1  0  0  0  0
 16 30  1  0  0  0  0
 17 24  1  0  0  0  0
 17 28  2  0  0  0  0
 18 30  2  0  0  0  0
 18 31  1  0  0  0  0
 19 32  1  0  0  0  0
 20 32  1  0  0  0  0
 20 33  2  0  0  0  0
 20 34  1  0  0  0  0
 21 23  2  0  0  0  0
 21 39  1  0  0  0  0
 22 24  2  0  0  0  0
 22 40  1  0  0  0  0
 23 48  1  0  0  0  0
 24 41  1  0  0  0  0
 25 69  1  0  0  0  0
 26 78  1  0  0  0  0
 27 79  1  0  0  0  0
 28 80  1  0  0  0  0
 29 31  2  0  0  0  0
 29 78  1  0  0  0  0
 30 81  1  0  0  0  0
 31 82  1  0  0  0  0
 32 63  2  0  0  0  0
 33 64  1  0  0  0  0
 33 67  1  0  0  0  0
 34 68  1  0  0  0  0
 34 73  2  0  0  0  0
 35 49  1  0  0  0  0
 35 70  1  0  0  0  0
 35 74  2  0  0  0  0
 36 60  1  0  0  0  0
 36 65  1  0  0  0  0
 36 75  2  0  0  0  0
 37 61  1  0  0  0  0
 37 71  1  0  0  0  0
 37 76  2  0  0  0  0
 38 66  1  0  0  0  0
 38 69  1  0  0  0  0
 38 77  2  0  0  0  0
 39 42  1  0  0  0  0
 40 49  1  0  0  0  0
 41 65  1  0  0  0  0
 42 44  1  0  0  0  0
 43 45  1  0  0  0  0
 43 46  1  0  0  0  0
 44 48  1  0  0  0  0
 45 50  1  0  0  0  0
 46 66  1  0  0  0  0
 47 50  1  0  0  0  0
 47 66  1  0  0  0  0
 48 70  1  0  0  0  0
 49 65  1  0  0  0  0
 50 64  1  0  0  0  0
 51 61  1  0  0  0  0
 52 62  1  0  0  0  0
 53 62  1  0  0  0  0
 54 62  1  0  0  0  0
 55 72  1  0  0  0  0
 56 57  1  0  0  0  0
 56 58  1  0  0  0  0
 57 59  1  0  0  0  0
 58 79  1  0  0  0  0
 59 80  1  0  0  0  0
 60 62  1  0  0  0  0
 60 71  1  0  0  0  0
 61 72  1  0  0  0  0
 63 64  1  0  0  0  0
M  CHG  1  72   1
M  ISO  4  38 100  59 101  69 100  80 101
M  END
> <Batch ID>
0004

> <Smiles>
CNC(C)C(=O)NC(C(=O)N1Cc2cc([101O:1][101CH2:1]CCCOc3ccc([100NH:0][100C:0](=O)N4CCCC(n5nc(-c6ccc(Oc7ccc(F)cc7F)cc6)c(C(N)=O)c5N)C4)cc3)ccc2CC1C(=O)NC1CCCc2ccccc21)C(C)(C)C

> <Shape>
0.243

> <Color>
0.082

> <Negative vol penalty>
0.000

$$$$

  -OEChem-04052315243D

 82 90  0     1  0  0  0  0  0999 V2000
  -25.3082  -37.8061   19.9633 C   0  0  0  0  0  0  0  0  0  0  0  0
  -25.9834  -36.6510   19.5822 C   0  0  0  0  0  0  0  0  0  0  0  0
  -29.5687  -19.2604   14.2743 C   0  0  0  0  0  0  0  0  0  0  0  0
  -26.1712  -11.6636   21.1217 C   0  0  0  0  0  0  0  0  0  0  0  0
  -25.9568  -12.1478   18.7645 C   0  0  0  0  0  0  0  0  0  0  0  0
  -24.6906  -37.8714   21.2116 C   0  0  0  0  0  0  0  0  0  0  0  0
  -26.0423  -35.5608   20.4498 C   0  0  0  0  0  0  0  0  0  0  0  0
  -26.0211  -29.6314   18.9177 C   0  0  0  0  0  0  0  0  0  0  0  0
  -29.8724  -18.3902   15.3212 C   0  0  0  0  0  0  0  0  0  0  0  0
  -29.6734  -20.6389   14.4604 C   0  0  0  0  0  0  0  0  0  0  0  0
  -24.8263  -11.2967   21.1687 C   0  0  0  0  0  0  0  0  0  0  0  0
  -24.6119  -11.7808   18.8114 C   0  0  0  0  0  0  0  0  0  0  0  0
  -27.0447  -28.6955   18.7764 C   0  0  0  0  0  0  0  0  0  0  0  0
  -22.9451   -8.6152   20.3299 C   0  0  0  0  0  0  0  0  0  0  0  0
  -22.6161   -7.4444   21.0129 C   0  0  0  0  0  0  0  0  0  0  0  0
  -26.6458  -27.9280   21.0283 C   0  0  0  0  0  0  0  0  0  0  0  0
  -30.3853  -20.2769   16.7406 C   0  0  0  0  0  0  0  0  0  0  0  0
  -21.2114   -8.7143   22.5132 C   0  0  0  0  0  0  0  0  0  0  0  0
  -26.7365  -12.0892   19.9196 C   0  0  0  0  0  0  0  0  0  0  0  0
  -29.2259  -11.6340   19.5987 C   0  0  0  0  0  0  0  0  0  0  0  0
  -24.7337  -36.7780   22.0910 C   0  0  0  0  0  0  0  0  0  0  0  0
  -25.3082  -29.7302   20.1213 C   0  0  0  0  0  0  0  0  0  0  0  0
  -25.4259  -35.6121   21.7115 C   0  0  0  0  0  0  0  0  0  0  0  0
  -25.6119  -28.8643   21.1815 C   0  0  0  0  0  0  0  0  0  0  0  0
  -30.2807  -18.8984   16.5544 C   0  0  0  0  0  0  0  0  0  0  0  0
  -24.0466  -11.3553   20.0136 C   0  0  0  0  0  0  0  0  0  0  0  0
  -27.3591  -27.8455   19.8327 C   0  0  0  0  0  0  0  0  0  0  0  0
  -30.0817  -21.1471   15.6936 C   0  0  0  0  0  0  0  0  0  0  0  0
  -22.4073   -9.8356   20.7386 C   0  0  0  0  0  0  0  0  0  0  0  0
  -21.7493   -7.4939   22.1045 C   0  0  0  0  0  0  0  0  0  0  0  0
  -21.5405   -9.8852   21.8303 C   0  0  0  0  0  0  0  0  0  0  0  0
  -28.1255  -12.4689   19.8705 C   0  0  0  0  0  0  0  0  0  0  0  0
  -30.3152  -12.4676   19.6700 C   0  0  0  0  0  0  0  0  0  0  0  0
  -29.2604  -10.2305   19.3078 C   0  0  0  0  0  0  0  0  0  0  0  0
  -24.8963  -32.0036   22.3043 C   0  0  0  0  0  0  0  0  0  0  0  0
  -22.7894  -29.8779   23.5552 C   0  0  0  0  0  0  0  0  0  0  0  0
  -21.7843  -26.6306   23.8569 C   0  0  0  0  0  0  0  0  0  0  0  0
  -31.0089  -18.3529   18.9035 C   0  0  0  0  0  0  0  0  0  0  0  0
  -24.0915  -36.9128   23.4489 C   0  0  0  0  0  0  0  0  0  0  0  0
  -24.1890  -30.7270   20.2486 C   0  0  0  0  0  0  0  0  0  0  0  0
  -24.8630  -28.9163   22.4872 C   0  0  0  0  0  0  0  0  0  0  0  0
  -23.8811  -35.5776   24.1584 C   0  0  0  0  0  0  0  0  0  0  0  0
  -31.8318  -16.4728   21.8130 C   0  0  0  0  0  0  0  0  0  0  0  0
  -25.1417  -34.7230   24.0726 C   0  0  0  0  0  0  0  0  0  0  0  0
  -31.0798  -15.1544   21.6174 C   0  0  0  0  0  0  0  0  0  0  0  0
  -31.0316  -17.6650   21.2913 C   0  0  0  0  0  0  0  0  0  0  0  0
  -29.8138  -16.2223   19.7086 C   0  0  0  0  0  0  0  0  0  0  0  0
  -25.4908  -34.3997   22.6148 C   0  0  1  0  0  0  0  0  0  0  0  0
  -23.8719  -31.0877   21.6966 C   0  0  1  0  0  0  0  0  0  0  0  0
  -30.6079  -14.9856   20.1599 C   0  0  2  0  0  0  0  0  0  0  0  0
  -20.0522  -25.2004   24.9759 C   0  0  0  0  0  0  0  0  0  0  0  0
  -24.2801  -30.1490   26.2036 C   0  0  0  0  0  0  0  0  0  0  0  0
  -23.1462  -28.0548   26.9762 C   0  0  0  0  0  0  0  0  0  0  0  0
  -21.7892  -30.0704   26.4119 C   0  0  0  0  0  0  0  0  0  0  0  0
  -20.7179  -25.6886   21.2618 C   0  0  0  0  0  0  0  0  0  0  0  0
  -29.1101  -24.9878   18.4780 C   0  0  0  0  0  0  0  0  0  0  0  0
  -29.3982  -24.4053   17.0987 C   0  0  0  0  0  0  0  0  0  0  0  0
  -28.5965  -26.4187   18.3874 C   0  0  0  0  0  0  0  0  0  1  0  0
  -29.9521  -22.9905   17.1905 C   0  0  0  0  0  0  0  0  0  0  0  0
  -22.8758  -28.7472   24.5516 C   0  0  1  0  0  0  0  0  0  0  0  0
  -20.4179  -25.9825   23.7240 C   0  0  2  0  0  0  0  0  0  0  0  0
  -23.0384  -29.2555   26.0120 C   0  0  0  0  0  0  0  0  0  0  0  0
  -28.4830  -13.7357   20.0977 N   0  0  0  0  0  0  0  0  0  0  0  0
  -29.8204  -13.7029   19.9688 N   0  0  0  0  0  0  0  0  0  0  0  0
  -23.7815  -29.9121   22.5651 N   0  0  0  0  0  0  0  0  0  0  0  0
  -30.6222  -17.4361   19.9039 N   0  0  0  0  0  0  0  0  0  0  0  0
  -31.6385  -12.2571   19.5056 N   0  0  0  0  0  0  0  0  0  0  0  0
  -28.0497   -9.5253   19.2738 N   0  0  0  0  0  0  0  0  0  0  0  0
  -30.5894  -18.0140   17.6175 N   0  0  0  0  0  0  0  0  0  0  0  0
  -24.6348  -33.3467   22.1117 N   0  0  0  0  0  0  0  0  0  0  0  0
  -21.6933  -27.9208   24.3348 N   0  0  0  0  0  0  0  0  0  0  0  0
  -20.3987  -25.0477   22.5635 N   0  3  0  0  0  0  0  0  0  0  0  0
  -30.3345   -9.6166   19.1007 O   0  0  0  0  0  0  0  0  0  0  0  0
  -25.8524  -31.5271   22.9048 O   0  0  0  0  0  0  0  0  0  0  0  0
  -21.8711  -30.6965   23.6474 O   0  0  0  0  0  0  0  0  0  0  0  0
  -22.8281  -26.0490   23.5693 O   0  0  0  0  0  0  0  0  0  0  0  0
  -31.6871  -19.3499   19.1642 O   0  0  0  0  0  0  0  0  0  0  0  0
  -22.7343  -10.9971   20.0590 O   0  0  0  0  0  0  0  0  0  0  0  0
  -28.3582  -26.9315   19.6976 O   0  0  0  0  0  0  0  0  0  1  0  0
  -30.1844  -22.5016   15.8767 O   0  0  0  0  0  0  0  0  0  0  0  0
  -21.4322   -6.3692   22.7593 F   0  0  0  0  0  0  0  0  0  0  0  0
  -21.0197  -11.0545   22.2268 F   0  0  0  0  0  0  0  0  0  0  0  0
  1  2  1  0  0  0  0
  1  6  2  0  0  0  0
  2  7  2  0  0  0  0
  3  9  1  0  0  0  0
  3 10  2  0  0  0  0
  4 11  2  0  0  0  0
  4 19  1  0  0  0  0
  5 12  1  0  0  0  0
  5 19  2  0  0  0  0
  6 21  1  0  0  0  0
  7 23  1  0  0  0  0
  8 13  2  0  0  0  0
  8 22  1  0  0  0  0
  9 25  2  0  0  0  0
 10 28  1  0  0  0  0
 11 26  1  0  0  0  0
 12 26  2  0  0  0  0
 13 27  1  0  0  0  0
 14 15  2  0  0  0  0
 14 29  1  0  0  0  0
 15 30  1  0  0  0  0
 16 24  1  0  0  0  0
 16 27  2  0  0  0  0
 17 25  1  0  0  0  0
 17 28  2  0  0  0  0
 18 30  2  0  0  0  0
 18 31  1  0  0  0  0
 19 32  1  0  0  0  0
 20 32  1  0  0  0  0
 20 33  2  0  0  0  0
 20 34  1  0  0  0  0
 21 23  2  0  0  0  0
 21 39  1  0  0  0  0
 22 24  2  0  0  0  0
 22 40  1  0  0  0  0
 23 48  1  0  0  0  0
 24 41  1  0  0  0  0
 25 69  1  0  0  0  0
 26 78  1  0  0  0  0
 27 79  1  0  0  0  0
 28 80  1  0  0  0  0
 29 31  2  0  0  0  0
 29 78  1  0  0  0  0
 30 81  1  0  0  0  0
 31 82  1  0  0  0  0
 32 63  2  0  0  0  0
 33 64  1  0  0  0  0
 33 67  1  0  0  0  0
 34 68  1  0  0  0  0
 34 73  2  0  0  0  0
 35 49  1  0  0  0  0
 35 70  1  0  0  0  0
 35 74  2  0  0  0  0
 36 60  1  0  0  0  0
 36 65  1  0  0  0  0
 36 75  2  0  0  0  0
 37 61  1  0  0  0  0
 37 71  1  0  0  0  0
 37 76  2  0  0  0  0
 38 66  1  0  0  0  0
 38 69  1  0  0  0  0
 38 77  2  0  0  0  0
 39 42  1  0  0  0  0
 40 49  1  0  0  0  0
 41 65  1  0  0  0  0
 42 44  1  0  0  0  0
 43 45  1  0  0  0  0
 43 46  1  0  0  0  0
 44 48  1  0  0  0  0
 45 50  1  0  0  0  0
 46 66  1  0  0  0  0
 47 50  1  0  0  0  0
 47 66  1  0  0  0  0
 48 70  1  0  0  0  0
 49 65  1  0  0  0  0
 50 64  1  0  0  0  0
 51 61  1  0  0  0  0
 52 62  1  0  0  0  0
 53 62  1  0  0  0  0
 54 62  1  0  0  0  0
 55 72  1  0  0  0  0
 56 57  1  0  0  0  0
 56 58  1  0  0  0  0
 57 59  1  0  0  0  0
 58 79  1  0  0  0  0
 59 80  1  0  0  0  0
 60 62  1  0  0  0  0
 60 71  1  0  0  0  0
 61 72  1  0  0  0  0
 63 64  1  0  0  0  0
M  CHG  1  72   1
M  ISO  4  38 100  58 101  69 100  79 101
M  END
> <Batch ID>
0004

> <Smiles>
CNC(C)C(=O)NC(C(=O)N1Cc2cc([101O:1][101CH2:1]CCCOc3cccc([100NH:0][100C:0](=O)N4CCCC(n5nc(-c6ccc(Oc7ccc(F)cc7F)cc6)c(C(N)=O)c5N)C4)c3)ccc2CC1C(=O)NC1CCCc2ccccc21)C(C)(C)C

> <Shape>
0.287

> <Color>
0.073

> <Negative vol penalty>
0.000

$$$$

  -OEChem-04052315243D

 81 89  0     1  0  0  0  0  0999 V2000
  -20.2839  -34.7522   21.8265 C   0  0  0  0  0  0  0  0  0  0  0  0
  -21.5197  -34.2352   21.4512 C   0  0  0  0  0  0  0  0  0  0  0  0
  -26.0219  -22.7170   17.5877 C   0  0  0  0  0  0  0  0  0  0  0  0
  -26.4309  -12.2361   20.7809 C   0  0  0  0  0  0  0  0  0  0  0  0
  -24.7691  -13.6634   19.7618 C   0  0  0  0  0  0  0  0  0  0  0  0
  -19.4932  -34.0662   22.7474 C   0  0  0  0  0  0  0  0  0  0  0  0
  -21.9660  -33.0322   21.9973 C   0  0  0  0  0  0  0  0  0  0  0  0
  -25.3247  -28.7415   19.2020 C   0  0  0  0  0  0  0  0  0  0  0  0
  -26.2981  -21.6776   18.4758 C   0  0  0  0  0  0  0  0  0  0  0  0
  -26.9659  -23.7216   17.3744 C   0  0  0  0  0  0  0  0  0  0  0  0
  -25.4186  -11.4380   21.3138 C   0  0  0  0  0  0  0  0  0  0  0  0
  -23.7569  -12.8653   20.2947 C   0  0  0  0  0  0  0  0  0  0  0  0
  -26.6900  -28.4597   19.2199 C   0  0  0  0  0  0  0  0  0  0  0  0
  -23.2780   -8.8176   22.6428 C   0  0  0  0  0  0  0  0  0  0  0  0
  -23.4223   -7.4339   22.5422 C   0  0  0  0  0  0  0  0  0  0  0  0
  -26.3184  -26.7974   20.9281 C   0  0  0  0  0  0  0  0  0  0  0  0
  -28.4623  -22.6471   18.9375 C   0  0  0  0  0  0  0  0  0  0  0  0
  -23.4834   -7.6153   20.1338 C   0  0  0  0  0  0  0  0  0  0  0  0
  -26.1061  -13.3488   20.0049 C   0  0  0  0  0  0  0  0  0  0  0  0
  -27.7860  -14.0226   18.2072 C   0  0  0  0  0  0  0  0  0  0  0  0
  -19.9257  -32.8494   23.2978 C   0  0  0  0  0  0  0  0  0  0  0  0
  -24.4460  -28.0598   20.0562 C   0  0  0  0  0  0  0  0  0  0  0  0
  -21.1808  -32.3300   22.9274 C   0  0  0  0  0  0  0  0  0  0  0  0
  -24.9420  -27.0706   20.9172 C   0  0  0  0  0  0  0  0  0  0  0  0
  -27.5183  -21.6426   19.1507 C   0  0  0  0  0  0  0  0  0  0  0  0
  -24.0816  -11.7526   21.0707 C   0  0  0  0  0  0  0  0  0  0  0  0
  -27.1874  -27.4896   20.0851 C   0  0  0  0  0  0  0  0  0  0  0  0
  -28.1861  -23.6866   18.0493 C   0  0  0  0  0  0  0  0  0  0  0  0
  -23.2362   -9.6002   21.4888 C   0  0  0  0  0  0  0  0  0  0  0  0
  -23.5251   -6.8328   21.2877 C   0  0  0  0  0  0  0  0  0  0  0  0
  -23.3389   -8.9990   20.2344 C   0  0  0  0  0  0  0  0  0  0  0  0
  -27.1513  -14.1740   19.4546 C   0  0  0  0  0  0  0  0  0  0  0  0
  -28.6968  -15.0495   18.1585 C   0  0  0  0  0  0  0  0  0  0  0  0
  -27.5714  -13.0414   17.1840 C   0  0  0  0  0  0  0  0  0  0  0  0
  -22.4982  -28.9156   22.4178 C   0  0  0  0  0  0  0  0  0  0  0  0
  -21.6049  -25.7999   22.2876 C   0  0  0  0  0  0  0  0  0  0  0  0
  -22.3957  -22.5927   21.4301 C   0  0  0  0  0  0  0  0  0  0  0  0
  -28.9596  -20.4016   20.8026 C   0  0  0  0  0  0  0  0  0  0  0  0
  -19.0570  -32.1679   24.3253 C   0  0  0  0  0  0  0  0  0  0  0  0
  -22.9723  -28.3566   20.0056 C   0  0  0  0  0  0  0  0  0  0  0  0
  -24.0377  -26.2961   21.8397 C   0  0  0  0  0  0  0  0  0  0  0  0
  -19.4370  -30.7106   24.5741 C   0  0  0  0  0  0  0  0  0  0  0  0
  -31.3884  -17.8059   21.0031 C   0  0  0  0  0  0  0  0  0  0  0  0
  -20.9465  -30.5745   24.7465 C   0  0  0  0  0  0  0  0  0  0  0  0
  -30.6370  -16.5674   20.5095 C   0  0  0  0  0  0  0  0  0  0  0  0
  -30.4866  -18.7272   21.8225 C   0  0  0  0  0  0  0  0  0  0  0  0
  -28.4820  -17.8777   20.6696 C   0  0  0  0  0  0  0  0  0  0  0  0
  -21.6886  -31.0154   23.4790 C   0  0  1  0  0  0  0  0  0  0  0  0
  -22.2394  -27.9635   21.2846 C   0  0  1  0  0  0  0  0  0  0  0  0
  -29.3322  -16.9515   19.7847 C   0  0  2  0  0  0  0  0  0  0  0  0
  -21.4790  -20.2572   21.4801 C   0  0  0  0  0  0  0  0  0  0  0  0
  -22.1896  -25.6371   25.2778 C   0  0  0  0  0  0  0  0  0  0  0  0
  -22.1828  -23.1419   25.0724 C   0  0  0  0  0  0  0  0  0  0  0  0
  -20.1168  -24.4399   24.5534 C   0  0  0  0  0  0  0  0  0  0  0  0
  -22.5022  -22.3636   18.4813 C   0  0  0  0  0  0  0  0  0  0  0  0
  -30.4184  -26.4363   18.8350 C   0  0  0  0  0  0  0  0  0  0  0  0
  -29.2392  -27.3951   18.8863 C   0  0  0  0  0  0  0  0  0  1  0  0
  -29.9755  -24.9845   18.9264 C   0  0  0  0  0  0  0  0  0  0  0  0
  -22.0700  -24.5258   22.9504 C   0  0  1  0  0  0  0  0  0  0  0  0
  -21.6209  -21.5341   20.6663 C   0  0  2  0  0  0  0  0  0  0  0  0
  -21.6573  -24.4520   24.4476 C   0  0  0  0  0  0  0  0  0  0  0  0
  -27.6194  -15.2150   20.1483 N   0  0  0  0  0  0  0  0  0  0  0  0
  -28.5579  -15.7270   19.3340 N   0  0  0  0  0  0  0  0  0  0  0  0
  -22.6055  -26.6270   21.7578 N   0  0  0  0  0  0  0  0  0  0  0  0
  -29.2723  -19.0521   21.0709 N   0  0  0  0  0  0  0  0  0  0  0  0
  -29.5949  -15.4300   17.2252 N   0  0  0  0  0  0  0  0  0  0  0  0
  -26.5968  -12.0569   17.3962 N   0  0  0  0  0  0  0  0  0  0  0  0
  -27.7986  -20.5863   20.0526 N   0  0  0  0  0  0  0  0  0  0  0  0
  -21.6207  -29.9819   22.4683 N   0  0  0  0  0  0  0  0  0  0  0  0
  -21.5571  -23.4305   22.1345 N   0  0  0  0  0  0  0  0  0  0  0  0
  -22.3159  -21.2033   19.3902 N   0  3  0  0  0  0  0  0  0  0  0  0
  -28.2361  -13.0281   16.1202 O   0  0  0  0  0  0  0  0  0  0  0  0
  -23.4244  -28.6981   23.1901 O   0  0  0  0  0  0  0  0  0  0  0  0
  -20.3978  -26.0486   22.2352 O   0  0  0  0  0  0  0  0  0  0  0  0
  -23.6223  -22.6666   21.4073 O   0  0  0  0  0  0  0  0  0  0  0  0
  -29.6841  -21.3240   21.1851 O   0  0  0  0  0  0  0  0  0  0  0  0
  -23.0936  -10.9739   21.5903 O   0  0  0  0  0  0  0  0  0  0  0  0
  -28.5197  -27.2131   20.1052 O   0  0  0  0  0  0  0  0  0  1  0  0
  -29.1137  -24.6737   17.8399 O   0  0  0  0  0  0  0  0  0  0  0  0
  -23.6653   -5.5042   21.1914 F   0  0  0  0  0  0  0  0  0  0  0  0
  -23.3007   -9.7458   19.1223 F   0  0  0  0  0  0  0  0  0  0  0  0
  1  2  1  0  0  0  0
  1  6  2  0  0  0  0
  2  7  2  0  0  0  0
  3  9  1  0  0  0  0
  3 10  2  0  0  0  0
  4 11  2  0  0  0  0
  4 19  1  0  0  0  0
  5 12  1  0  0  0  0
  5 19  2  0  0  0  0
  6 21  1  0  0  0  0
  7 23  1  0  0  0  0
  8 13  2  0  0  0  0
  8 22  1  0  0  0  0
  9 25  2  0  0  0  0
 10 28  1  0  0  0  0
 11 26  1  0  0  0  0
 12 26  2  0  0  0  0
 13 27  1  0  0  0  0
 14 15  2  0  0  0  0
 14 29  1  0  0  0  0
 15 30  1  0  0  0  0
 16 24  1  0  0  0  0
 16 27  2  0  0  0  0
 17 25  1  0  0  0  0
 17 28  2  0  0  0  0
 18 30  2  0  0  0  0
 18 31  1  0  0  0  0
 19 32  1  0  0  0  0
 20 32  1  0  0  0  0
 20 33  2  0  0  0  0
 20 34  1  0  0  0  0
 21 23  2  0  0  0  0
 21 39  1  0  0  0  0
 22 24  2  0  0  0  0
 22 40  1  0  0  0  0
 23 48  1  0  0  0  0
 24 41  1  0  0  0  0
 25 68  1  0  0  0  0
 26 77  1  0  0  0  0
 27 78  1  0  0  0  0
 28 79  1  0  0  0  0
 29 31  2  0  0  0  0
 29 77  1  0  0  0  0
 30 80  1  0  0  0  0
 31 81  1  0  0  0  0
 32 62  2  0  0  0  0
 33 63  1  0  0  0  0
 33 66  1  0  0  0  0
 34 67  1  0  0  0  0
 34 72  2  0  0  0  0
 35 49  1  0  0  0  0
 35 69  1  0  0  0  0
 35 73  2  0  0  0  0
 36 59  1  0  0  0  0
 36 64  1  0  0  0  0
 36 74  2  0  0  0  0
 37 60  1  0  0  0  0
 37 70  1  0  0  0  0
 37 75  2  0  0  0  0
 38 65  1  0  0  0  0
 38 68  1  0  0  0  0
 38 76  2  0  0  0  0
 39 42  1  0  0  0  0
 40 49  1  0  0  0  0
 41 64  1  0  0  0  0
 42 44  1  0  0  0  0
 43 45  1  0  0  0  0
 43 46  1  0  0  0  0
 44 48  1  0  0  0  0
 45 50  1  0  0  0  0
 46 65  1  0  0  0  0
 47 50  1  0  0  0  0
 47 65  1  0  0  0  0
 48 69  1  0  0  0  0
 49 64  1  0  0  0  0
 50 63  1  0  0  0  0
 51 60  1  0  0  0  0
 52 61  1  0  0  0  0
 53 61  1  0  0  0  0
 54 61  1  0  0  0  0
 55 71  1  0  0  0  0
 56 57  1  0  0  0  0
 56 58  1  0  0  0  0
 57 78  1  0  0  0  0
 58 79  1  0  0  0  0
 59 61  1  0  0  0  0
 59 70  1  0  0  0  0
 60 71  1  0  0  0  0
 62 63  1  0  0  0  0
M  CHG  1  71   1
M  ISO  4  38 100  57 101  68 100  78 101
M  END
> <Batch ID>
0004

> <Smiles>
CNC(C)C(=O)NC(C(=O)N1Cc2cc([101O:1][101CH2:1]CCOc3cccc([100NH:0][100C:0](=O)N4CCCC(n5nc(-c6ccc(Oc7ccc(F)cc7F)cc6)c(C(N)=O)c5N)C4)c3)ccc2CC1C(=O)NC1CCCc2ccccc21)C(C)(C)C

> <Shape>
0.241

> <Color>
0.090

> <Negative vol penalty>
0.000

$$$$

  -OEChem-04052315243D

103110  0     1  0  0  0  0  0999 V2000
  -19.4203  -29.0888   22.9082 C   0  0  0  0  0  0  0  0  0  0  0  0
  -20.3825  -28.2387   23.4438 C   0  0  0  0  0  0  0  0  0  0  0  0
  -27.8257  -30.0748   21.1373 C   0  0  0  0  0  0  0  0  0  0  0  0
  -25.7750  -28.8018   21.2424 C   0  0  0  0  0  0  0  0  0  0  0  0
  -18.5007  -28.6021   21.9801 C   0  0  0  0  0  0  0  0  0  0  0  0
  -20.4250  -26.9010   23.0524 C   0  0  0  0  0  0  0  0  0  0  0  0
  -25.4161  -23.4126   22.3999 C   0  0  0  0  0  0  0  0  0  0  0  0
  -27.0885  -31.2565   21.0638 C   0  0  0  0  0  0  0  0  0  0  0  0
  -25.0377  -29.9836   21.1690 C   0  0  0  0  0  0  0  0  0  0  0  0
  -26.0183  -22.4716   23.2339 C   0  0  0  0  0  0  0  0  0  0  0  0
  -25.7497  -34.6331   21.2121 C   0  0  0  0  0  0  0  0  0  0  0  0
  -26.1570  -35.7022   22.0099 C   0  0  0  0  0  0  0  0  0  0  0  0
  -24.8549  -20.7064   22.0721 C   0  0  0  0  0  0  0  0  0  0  0  0
  -25.8212  -34.3548   23.9870 C   0  0  0  0  0  0  0  0  0  0  0  0
  -27.1690  -28.8474   21.2266 C   0  0  0  0  0  0  0  0  0  0  0  0
  -28.3897  -26.9815   22.4660 C   0  0  0  0  0  0  0  0  0  0  0  0
  -18.5380  -27.2601   21.5698 C   0  0  0  0  0  0  0  0  0  0  0  0
  -24.5188  -23.0078   21.4012 C   0  0  0  0  0  0  0  0  0  0  0  0
  -19.5041  -26.3956   22.1189 C   0  0  0  0  0  0  0  0  0  0  0  0
  -24.2446  -21.6440   21.2251 C   0  0  0  0  0  0  0  0  0  0  0  0
  -25.6944  -31.2110   21.0796 C   0  0  0  0  0  0  0  0  0  0  0  0
  -25.7356  -21.1185   23.0720 C   0  0  0  0  0  0  0  0  0  0  0  0
  -25.3781  -33.4248   21.8017 C   0  0  0  0  0  0  0  0  0  0  0  0
  -26.1928  -35.5631   23.3973 C   0  0  0  0  0  0  0  0  0  0  0  0
  -25.4138  -33.2857   23.1891 C   0  0  0  0  0  0  0  0  0  0  0  0
  -27.9300  -27.6262   21.3020 C   0  0  0  0  0  0  0  0  0  0  0  0
  -29.0540  -25.8716   22.0041 C   0  0  0  0  0  0  0  0  0  0  0  0
  -28.2304  -27.3527   23.8417 C   0  0  0  0  0  0  0  0  0  0  0  0
  -21.4442  -23.5421   20.7973 C   0  0  0  0  0  0  0  0  0  0  0  0
  -22.0973  -21.9098   18.0713 C   0  0  0  0  0  0  0  0  0  0  0  0
  -25.8517  -14.1150   20.1429 C   0  0  0  0  0  0  0  0  0  0  0  0
  -24.1098  -12.3080   24.9792 C   0  0  0  0  0  0  0  0  0  0  0  0
  -23.6347   -9.9415   24.4792 C   0  0  0  0  0  0  0  0  0  0  0  0
  -22.7626   -6.1131   21.9198 C   0  0  0  0  0  0  0  0  0  0  0  0
  -24.0748  -19.6487   16.4515 C   0  0  0  0  0  0  0  0  0  0  0  0
  -29.3755  -21.4546   18.6082 C   0  0  0  0  0  0  0  0  0  0  0  0
  -17.4933  -26.7684   20.5996 C   0  0  0  0  0  0  0  0  0  0  0  0
  -23.8981  -24.0331   20.4924 C   0  0  0  0  0  0  0  0  0  0  0  0
  -23.3042  -21.1560   20.1546 C   0  0  0  0  0  0  0  0  0  0  0  0
  -17.8422  -25.4288   19.9560 C   0  0  0  0  0  0  0  0  0  0  0  0
  -30.4618  -24.5901   17.3178 C   0  0  0  0  0  0  0  0  0  0  0  0
  -18.3246  -24.4390   21.0116 C   0  0  0  0  0  0  0  0  0  0  0  0
  -29.9327  -25.6060   18.3316 C   0  0  0  0  0  0  0  0  0  0  0  0
  -29.4875  -23.4311   17.1191 C   0  0  0  0  0  0  0  0  0  0  0  0
  -28.5488  -23.7627   19.3736 C   0  0  0  0  0  0  0  0  0  0  0  0
  -19.5979  -24.9442   21.7007 C   0  0  1  0  0  0  0  0  0  0  0  0
  -22.6047  -23.5509   19.8429 C   0  0  1  0  0  0  0  0  0  0  0  0
  -29.5222  -24.9216   19.6492 C   0  0  2  0  0  0  0  0  0  0  0  0
  -24.3381  -18.4887   14.2418 C   0  0  0  0  0  0  0  0  0  0  0  0
  -23.8957   -2.4455   21.2055 C   0  0  0  0  0  0  0  0  0  0  0  0
  -21.8972   -3.2375   22.4942 C   0  0  0  0  0  0  0  0  0  0  0  0
  -19.7614  -20.0717   18.7605 C   0  0  0  0  0  0  0  0  0  0  0  0
  -20.6517  -18.4302   17.0929 C   0  0  0  0  0  0  0  0  0  0  0  0
  -19.9209  -20.6946   16.3437 C   0  0  0  0  0  0  0  0  0  0  0  0
  -26.7585  -20.8210   16.0246 C   0  0  0  0  0  0  0  0  0  0  0  0
  -27.1046  -14.9485   20.3559 C   0  0  0  0  0  0  0  0  0  0  0  0
  -24.8090  -13.5818   24.5146 C   0  0  0  0  0  0  0  0  0  0  0  0
  -23.9149   -8.7769   23.5275 C   0  0  0  0  0  0  0  0  0  0  0  0
  -26.9331  -16.4218   19.9887 C   0  0  0  0  0  0  0  0  0  0  0  0
  -24.6157  -14.7709   25.4610 C   0  0  0  0  0  0  0  0  0  0  0  0
  -28.1903  -17.2463   20.2842 C   0  0  0  0  0  0  0  0  0  0  0  0
  -25.3379  -16.0291   24.9674 C   0  0  0  0  0  0  0  0  0  0  0  0
  -25.2307  -17.2103   25.9372 C   0  0  0  0  0  0  0  0  0  0  0  0
  -27.9973  -18.7121   19.8830 C   0  0  0  0  0  0  0  0  0  0  0  0
  -25.9804  -18.4782   25.5262 C   0  0  0  0  0  0  0  0  0  0  0  0
  -24.2130  -11.6693   21.6997 C   0  0  0  0  0  0  0  0  0  0  0  0
  -23.2232   -7.4827   23.9426 C   0  0  0  0  0  0  0  0  0  0  0  0
  -29.2107  -19.5737   20.2188 C   0  0  0  0  0  0  0  0  0  0  0  0
  -25.0169  -11.7878   20.4066 C   0  0  0  0  0  0  0  0  0  0  0  0
  -25.0480  -11.2537   22.9089 C   0  0  0  0  0  0  0  0  0  0  0  0
  -25.5861  -19.0057   24.1536 C   0  0  0  0  0  0  0  0  0  1  0  0
  -22.0656  -20.4573   17.6612 C   0  0  1  0  0  0  0  0  0  0  0  0
  -23.2978   -4.9202   21.1387 C   0  0  1  0  0  0  0  0  0  0  0  0
  -24.7399  -19.6872   15.0874 C   0  0  2  0  0  0  0  0  0  0  0  0
  -23.2874   -3.6220   21.9760 C   0  0  0  0  0  0  0  0  0  0  0  0
  -20.6162  -19.9225   17.4861 C   0  0  0  0  0  0  0  0  0  0  0  0
  -28.2734  -26.9798   20.1847 N   0  0  0  0  0  0  0  0  0  0  0  0
  -28.9560  -25.9174   20.6445 N   0  0  0  0  0  0  0  0  0  0  0  0
  -22.7175  -22.1975   19.2953 N   0  0  0  0  0  0  0  0  0  0  0  0
  -29.1397  -22.8245   18.4064 N   0  0  0  0  0  0  0  0  0  0  0  0
  -29.7066  -24.8707   22.6325 N   0  0  0  0  0  0  0  0  0  0  0  0
  -27.5198  -28.5234   24.1398 N   0  0  0  0  0  0  0  0  0  0  0  0
  -20.7498  -24.7357   20.8498 N   0  0  0  0  0  0  0  0  0  0  0  0
  -26.0513  -12.7823   20.4890 N   0  0  0  0  0  0  0  0  0  0  0  0
  -23.5257   -6.4001   23.0458 N   0  0  0  0  0  0  0  0  0  0  0  0
  -22.8897  -20.3535   16.4619 N   0  0  0  0  0  0  0  0  0  0  0  0
  -29.0229  -20.9614   19.8585 N   0  0  0  0  0  0  0  0  0  0  0  0
  -24.2552  -11.1715   24.1390 N   0  0  0  0  0  0  0  0  0  0  0  0
  -22.5273   -4.7540   19.8729 N   0  3  0  0  0  0  0  0  0  0  0  0
  -26.2229  -19.6830   15.2339 N   0  3  0  0  0  0  0  0  0  0  0  0
  -28.7181  -26.6753   24.7780 O   0  0  0  0  0  0  0  0  0  0  0  0
  -21.1961  -22.5270   21.4375 O   0  0  0  0  0  0  0  0  0  0  0  0
  -21.5968  -22.7587   17.3293 O   0  0  0  0  0  0  0  0  0  0  0  0
  -24.7918  -14.5835   19.7364 O   0  0  0  0  0  0  0  0  0  0  0  0
  -23.4567  -12.3037   26.0263 O   0  0  0  0  0  0  0  0  0  0  0  0
  -22.9484   -9.7647   25.4876 O   0  0  0  0  0  0  0  0  0  0  0  0
  -21.7641   -6.7399   21.5719 O   0  0  0  0  0  0  0  0  0  0  0  0
  -24.5563  -19.0499   17.4107 O   0  0  0  0  0  0  0  0  0  0  0  0
  -29.8689  -20.7262   17.7405 O   0  0  0  0  0  0  0  0  0  0  0  0
  -24.9747  -32.3640   21.0082 O   0  0  0  0  0  0  0  0  0  0  0  0
  -26.3256  -20.1914   23.8908 O   0  0  0  0  0  0  0  0  0  1  0  0
  -26.5854  -36.5895   24.1633 F   0  0  0  0  0  0  0  0  0  0  0  0
  -25.0590  -32.1269   23.7612 F   0  0  0  0  0  0  0  0  0  0  0  0
  1  2  1  0  0  0  0
  1  5  2  0  0  0  0
  2  6  2  0  0  0  0
  3  8  2  0  0  0  0
  3 15  1  0  0  0  0
  4  9  1  0  0  0  0
  4 15  2  0  0  0  0
  5 17  1  0  0  0  0
  6 19  1  0  0  0  0
  7 10  2  0  0  0  0
  7 18  1  0  0  0  0
  8 21  1  0  0  0  0
  9 21  2  0  0  0  0
 10 22  1  0  0  0  0
 11 12  2  0  0  0  0
 11 23  1  0  0  0  0
 12 24  1  0  0  0  0
 13 20  1  0  0  0  0
 13 22  2  0  0  0  0
 14 24  2  0  0  0  0
 14 25  1  0  0  0  0
 15 26  1  0  0  0  0
 16 26  1  0  0  0  0
 16 27  2  0  0  0  0
 16 28  1  0  0  0  0
 17 19  2  0  0  0  0
 17 37  1  0  0  0  0
 18 20  2  0  0  0  0
 18 38  1  0  0  0  0
 19 46  1  0  0  0  0
 20 39  1  0  0  0  0
 21100  1  0  0  0  0
 22101  1  0  0  0  0
 23 25  2  0  0  0  0
 23100  1  0  0  0  0
 24102  1  0  0  0  0
 25103  1  0  0  0  0
 26 77  2  0  0  0  0
 27 78  1  0  0  0  0
 27 81  1  0  0  0  0
 28 82  1  0  0  0  0
 28 91  2  0  0  0  0
 29 47  1  0  0  0  0
 29 83  1  0  0  0  0
 29 92  2  0  0  0  0
 30 72  1  0  0  0  0
 30 79  1  0  0  0  0
 30 93  2  0  0  0  0
 31 56  1  0  0  0  0
 31 84  1  0  0  0  0
 31 94  2  0  0  0  0
 32 57  1  0  0  0  0
 32 88  1  0  0  0  0
 32 95  2  0  0  0  0
 33 58  1  0  0  0  0
 33 88  1  0  0  0  0
 33 96  2  0  0  0  0
 34 73  1  0  0  0  0
 34 85  1  0  0  0  0
 34 97  2  0  0  0  0
 35 74  1  0  0  0  0
 35 86  1  0  0  0  0
 35 98  2  0  0  0  0
 36 80  1  0  0  0  0
 36 87  1  0  0  0  0
 36 99  2  0  0  0  0
 37 40  1  0  0  0  0
 38 47  1  0  0  0  0
 39 79  1  0  0  0  0
 40 42  1  0  0  0  0
 41 43  1  0  0  0  0
 41 44  1  0  0  0  0
 42 46  1  0  0  0  0
 43 48  1  0  0  0  0
 44 80  1  0  0  0  0
 45 48  1  0  0  0  0
 45 80  1  0  0  0  0
 46 83  1  0  0  0  0
 47 79  1  0  0  0  0
 48 78  1  0  0  0  0
 49 74  1  0  0  0  0
 50 75  1  0  0  0  0
 51 75  1  0  0  0  0
 52 76  1  0  0  0  0
 53 76  1  0  0  0  0
 54 76  1  0  0  0  0
 55 90  1  0  0  0  0
 56 59  1  0  0  0  0
 57 60  1  0  0  0  0
 58 67  1  0  0  0  0
 59 61  1  0  0  0  0
 60 62  1  0  0  0  0
 61 64  1  0  0  0  0
 62 63  1  0  0  0  0
 63 65  1  0  0  0  0
 64 68  1  0  0  0  0
 65 71  1  0  0  0  0
 66 69  1  0  0  0  0
 66 70  1  0  0  0  0
 67 85  1  0  0  0  0
 68 87  1  0  0  0  0
 69 84  1  0  0  0  0
 70 88  1  0  0  0  0
 71101  1  0  0  0  0
 72 76  1  0  0  0  0
 72 86  1  0  0  0  0
 73 75  1  0  0  0  0
 73 89  1  0  0  0  0
 74 90  1  0  0  0  0
 77 78  1  0  0  0  0
M  CHG  2  89   1  90   1
M  ISO  4  36 100  71 101  87 100 101 101
M  END
> <Batch ID>
0004

> <Smiles>
CNC(C)C(=O)NC(C(=O)N1Cc2cc([101O:1][101CH2:1]CCCCCC(=O)N(CCCNC(=O)CCCCC[100NH:0][100C:0](=O)N3CCCC(n4nc(-c5ccc(Oc6ccc(F)cc6F)cc5)c(C(N)=O)c4N)C3)C(=O)CCNC(=O)C(N)C(C)C)ccc2CC1C(=O)NC1CCCc2ccccc21)C(C)(C)C

> <Shape>
0.244

> <Color>
0.053

> <Negative vol penalty>
0.000

$$$$

  -OEChem-04052315243D

 87 95  0     1  0  0  0  0  0999 V2000
  -32.4361  -20.6584   18.7728 C   0  0  0  0  0  0  0  0  0  0  0  0
  -32.6584  -20.1539   20.0501 C   0  0  0  0  0  0  0  0  0  0  0  0
  -22.9985   -9.8946   19.9820 C   0  0  0  0  0  0  0  0  0  0  0  0
  -23.7277   -9.9460   22.2848 C   0  0  0  0  0  0  0  0  0  0  0  0
  -33.5025  -21.1588   18.0269 C   0  0  0  0  0  0  0  0  0  0  0  0
  -33.9474  -20.1485   20.5818 C   0  0  0  0  0  0  0  0  0  0  0  0
  -34.0746  -21.7489   25.3847 C   0  0  0  0  0  0  0  0  0  0  0  0
  -33.0104  -16.7658   23.0816 C   0  0  0  0  0  0  0  0  0  0  0  0
  -30.9783  -16.3914   24.3335 C   0  0  0  0  0  0  0  0  0  0  0  0
  -22.2328   -8.7599   20.2498 C   0  0  0  0  0  0  0  0  0  0  0  0
  -22.9620   -8.8113   22.5526 C   0  0  0  0  0  0  0  0  0  0  0  0
  -33.6731  -20.8455   26.3677 C   0  0  0  0  0  0  0  0  0  0  0  0
  -33.7590  -16.5977   24.2465 C   0  0  0  0  0  0  0  0  0  0  0  0
  -31.7269  -16.2232   25.4984 C   0  0  0  0  0  0  0  0  0  0  0  0
  -21.4837   -5.7178   23.7589 C   0  0  0  0  0  0  0  0  0  0  0  0
  -22.0714   -4.7023   24.5131 C   0  0  0  0  0  0  0  0  0  0  0  0
  -35.9848  -20.3597   26.8568 C   0  0  0  0  0  0  0  0  0  0  0  0
  -23.7949   -4.4556   22.8380 C   0  0  0  0  0  0  0  0  0  0  0  0
  -23.7460  -10.4877   20.9995 C   0  0  0  0  0  0  0  0  0  0  0  0
  -24.1301  -13.0034   20.8226 C   0  0  0  0  0  0  0  0  0  0  0  0
  -34.8037  -21.1684   18.5535 C   0  0  0  0  0  0  0  0  0  0  0  0
  -35.4364  -21.9568   25.1224 C   0  0  0  0  0  0  0  0  0  0  0  0
  -35.0324  -20.6483   19.8417 C   0  0  0  0  0  0  0  0  0  0  0  0
  -36.4010  -21.2682   25.8717 C   0  0  0  0  0  0  0  0  0  0  0  0
  -31.6200  -16.6627   23.1251 C   0  0  0  0  0  0  0  0  0  0  0  0
  -22.2146   -8.2182   21.5351 C   0  0  0  0  0  0  0  0  0  0  0  0
  -33.1173  -16.3264   25.4549 C   0  0  0  0  0  0  0  0  0  0  0  0
  -34.6282  -20.1485   27.1020 C   0  0  0  0  0  0  0  0  0  0  0  0
  -22.0516   -6.1022   22.5441 C   0  0  0  0  0  0  0  0  0  0  0  0
  -23.2270   -4.0712   24.0527 C   0  0  0  0  0  0  0  0  0  0  0  0
  -23.2071   -5.4711   22.0837 C   0  0  0  0  0  0  0  0  0  0  0  0
  -24.5376  -11.6595   20.7234 C   0  0  0  0  0  0  0  0  0  0  0  0
  -25.2390  -13.7263   20.4562 C   0  0  0  0  0  0  0  0  0  0  0  0
  -22.8627  -13.5494   21.2113 C   0  0  0  0  0  0  0  0  0  0  0  0
  -37.3246  -21.5368   22.6002 C   0  0  0  0  0  0  0  0  0  0  0  0
  -39.5197  -22.9979   24.4895 C   0  0  0  0  0  0  0  0  0  0  0  0
  -28.2363  -19.6165   20.7844 C   0  0  0  0  0  0  0  0  0  0  0  0
  -40.5637  -23.7856   27.6417 C   0  0  0  0  0  0  0  0  0  0  0  0
  -30.7355  -14.6628   20.6949 C   0  0  0  0  0  0  0  0  0  0  0  0
  -35.9321  -21.6762   17.6911 C   0  0  0  0  0  0  0  0  0  0  0  0
  -35.8534  -22.9547   24.0771 C   0  0  0  0  0  0  0  0  0  0  0  0
  -37.8759  -21.4705   25.6429 C   0  0  0  0  0  0  0  0  0  0  0  0
  -37.2078  -21.9786   18.4731 C   0  0  0  0  0  0  0  0  0  0  0  0
  -29.5915  -12.2385   18.3516 C   0  0  0  0  0  0  0  0  0  0  0  0
  -37.5307  -20.8357   19.4303 C   0  0  0  0  0  0  0  0  0  0  0  0
  -28.1438  -11.9783   18.7718 C   0  0  0  0  0  0  0  0  0  0  0  0
  -30.4959  -12.4743   19.5593 C   0  0  0  0  0  0  0  0  0  0  0  0
  -28.5879  -13.2693   20.9014 C   0  0  0  0  0  0  0  0  0  0  0  0
  -36.4125  -20.6480   20.4627 C   0  0  1  0  0  0  0  0  0  0  0  0
  -37.2601  -22.7062   23.5414 C   0  0  1  0  0  0  0  0  0  0  0  0
  -27.6269  -13.0812   19.7151 C   0  0  2  0  0  0  0  0  0  0  0  0
  -42.4135  -24.9554   28.8694 C   0  0  0  0  0  0  0  0  0  0  0  0
  -41.3626  -20.6219   23.9718 C   0  0  0  0  0  0  0  0  0  0  0  0
  -42.7494  -21.3620   25.9204 C   0  0  0  0  0  0  0  0  0  0  0  0
  -42.4976  -22.8501   23.9342 C   0  0  0  0  0  0  0  0  0  0  0  0
  -38.6911  -25.7423   28.8349 C   0  0  0  0  0  0  0  0  0  0  0  0
  -29.2690  -18.5130   20.6506 C   0  0  0  0  0  0  0  0  0  0  0  0
  -29.8119  -18.0150   21.9931 C   0  0  0  0  0  0  0  0  0  0  0  0
  -34.2869  -16.9765   28.8227 C   0  0  0  0  0  0  0  0  0  0  0  0
  -33.2316  -16.5341   27.8212 C   0  0  0  0  0  0  0  0  0  0  0  0
  -35.0998  -18.1547   28.3096 C   0  0  0  0  0  0  0  0  0  1  0  0
  -30.8196  -16.8419   21.8797 C   0  0  2  0  0  0  0  0  0  0  0  0
  -40.5390  -22.5322   25.5010 C   0  0  1  0  0  0  0  0  0  0  0  0
  -41.0317  -25.0954   28.2499 C   0  0  2  0  0  0  0  0  0  0  0  0
  -41.7594  -21.8361   24.8351 C   0  0  0  0  0  0  0  0  0  0  0  0
  -25.8062  -11.5334   20.3250 N   0  0  0  0  0  0  0  0  0  0  0  0
  -26.2055  -12.8073   20.1705 N   0  0  0  0  0  0  0  0  0  0  0  0
  -38.2334  -22.4521   24.6055 N   0  0  0  0  0  0  0  0  0  0  0  0
  -29.9503  -13.5329   20.4122 N   0  0  0  0  0  0  0  0  0  0  0  0
  -25.4718  -15.0521   20.3536 N   0  0  0  0  0  0  0  0  0  0  0  0
  -21.8318  -12.6649   21.5568 N   0  0  0  0  0  0  0  0  0  0  0  0
  -27.7656  -20.0449   19.5617 N   0  0  0  0  0  0  0  0  0  0  0  0
  -36.5034  -21.6578   21.4955 N   0  0  0  0  0  0  0  0  0  0  0  0
  -40.8823  -23.7016   26.3027 N   0  0  0  0  0  0  0  0  0  0  0  0
  -30.1402  -15.6214   21.5057 N   0  0  0  0  0  0  0  0  0  0  0  0
  -40.0843  -25.5418   29.3102 N   0  3  0  0  0  0  0  0  0  0  0  0
  -22.6456  -14.7846   21.2354 O   0  0  0  0  0  0  0  0  0  0  0  0
  -38.0658  -20.5951   22.8565 O   0  0  0  0  0  0  0  0  0  0  0  0
  -39.8506  -23.8212   23.6325 O   0  0  0  0  0  0  0  0  0  0  0  0
  -27.8440  -20.0627   21.8585 O   0  0  0  0  0  0  0  0  0  0  0  0
  -39.9777  -22.9217   28.2904 O   0  0  0  0  0  0  0  0  0  0  0  0
  -31.8801  -14.8091   20.2528 O   0  0  0  0  0  0  0  0  0  0  0  0
  -21.4673   -7.1111   21.7968 O   0  0  0  0  0  0  0  0  0  0  0  0
  -33.8532  -16.1599   26.5991 O   0  0  0  0  0  0  0  0  0  0  0  0
  -34.2391  -19.2656   28.0616 O   0  0  0  0  0  0  0  0  0  1  0  0
  -23.7922   -3.0971   24.7779 F   0  0  0  0  0  0  0  0  0  0  0  0
  -23.7579   -5.8368   20.9181 F   0  0  0  0  0  0  0  0  0  0  0  0
  1  2  1  0  0  0  0
  1  5  2  0  0  0  0
  2  6  2  0  0  0  0
  3 10  2  0  0  0  0
  3 19  1  0  0  0  0
  4 11  1  0  0  0  0
  4 19  2  0  0  0  0
  5 21  1  0  0  0  0
  6 23  1  0  0  0  0
  7 12  2  0  0  0  0
  7 22  1  0  0  0  0
  8 13  2  0  0  0  0
  8 25  1  0  0  0  0
  9 14  1  0  0  0  0
  9 25  2  0  0  0  0
 10 26  1  0  0  0  0
 11 26  2  0  0  0  0
 12 28  1  0  0  0  0
 13 27  1  0  0  0  0
 14 27  2  0  0  0  0
 15 16  2  0  0  0  0
 15 29  1  0  0  0  0
 16 30  1  0  0  0  0
 17 24  1  0  0  0  0
 17 28  2  0  0  0  0
 18 30  2  0  0  0  0
 18 31  1  0  0  0  0
 19 32  1  0  0  0  0
 20 32  1  0  0  0  0
 20 33  2  0  0  0  0
 20 34  1  0  0  0  0
 21 23  2  0  0  0  0
 21 40  1  0  0  0  0
 22 24  2  0  0  0  0
 22 41  1  0  0  0  0
 23 49  1  0  0  0  0
 24 42  1  0  0  0  0
 25 62  1  0  0  0  0
 26 83  1  0  0  0  0
 27 84  1  0  0  0  0
 28 85  1  0  0  0  0
 29 31  2  0  0  0  0
 29 83  1  0  0  0  0
 30 86  1  0  0  0  0
 31 87  1  0  0  0  0
 32 66  2  0  0  0  0
 33 67  1  0  0  0  0
 33 70  1  0  0  0  0
 34 71  1  0  0  0  0
 34 77  2  0  0  0  0
 35 50  1  0  0  0  0
 35 73  1  0  0  0  0
 35 78  2  0  0  0  0
 36 63  1  0  0  0  0
 36 68  1  0  0  0  0
 36 79  2  0  0  0  0
 37 57  1  0  0  0  0
 37 72  1  0  0  0  0
 37 80  2  0  0  0  0
 38 64  1  0  0  0  0
 38 74  1  0  0  0  0
 38 81  2  0  0  0  0
 39 69  1  0  0  0  0
 39 75  1  0  0  0  0
 39 82  2  0  0  0  0
 40 43  1  0  0  0  0
 41 50  1  0  0  0  0
 42 68  1  0  0  0  0
 43 45  1  0  0  0  0
 44 46  1  0  0  0  0
 44 47  1  0  0  0  0
 45 49  1  0  0  0  0
 46 51  1  0  0  0  0
 47 69  1  0  0  0  0
 48 51  1  0  0  0  0
 48 69  1  0  0  0  0
 49 73  1  0  0  0  0
 50 68  1  0  0  0  0
 51 67  1  0  0  0  0
 52 64  1  0  0  0  0
 53 65  1  0  0  0  0
 54 65  1  0  0  0  0
 55 65  1  0  0  0  0
 56 76  1  0  0  0  0
 57 58  1  0  0  0  0
 58 62  1  0  0  0  0
 59 60  1  0  0  0  0
 59 61  1  0  0  0  0
 60 84  1  0  0  0  0
 61 85  1  0  0  0  0
 62 75  1  0  0  0  0
 63 65  1  0  0  0  0
 63 74  1  0  0  0  0
 64 76  1  0  0  0  0
 66 67  1  0  0  0  0
M  CHG  1  76   1
M  ISO  4  39 100  61 101  75 100  85 101
M  END
> <Batch ID>
0004

> <Smiles>
CNC(C)C(=O)NC(C(=O)N1Cc2cc([101O:1][101CH2:1]CCOc3ccc(C(CCC(N)=O)[100NH:0][100C:0](=O)N4CCCC(n5nc(-c6ccc(Oc7ccc(F)cc7F)cc6)c(C(N)=O)c5N)C4)cc3)ccc2CC1C(=O)NC1CCCc2ccccc21)C(C)(C)C

> <Shape>
0.192

> <Color>
0.193

> <Negative vol penalty>
0.000

$$$$

  -OEChem-04052315243D

 89 97  0     1  0  0  0  0  0999 V2000
  -16.6052  -27.6927   21.7745 C   0  0  0  0  0  0  0  0  0  0  0  0
  -17.7032  -26.8875   22.0599 C   0  0  0  0  0  0  0  0  0  0  0  0
  -24.3419   -9.3025   21.6085 C   0  0  0  0  0  0  0  0  0  0  0  0
  -24.6574  -10.7111   23.5459 C   0  0  0  0  0  0  0  0  0  0  0  0
  -16.7972  -28.9783   21.2703 C   0  0  0  0  0  0  0  0  0  0  0  0
  -18.9940  -27.3671   21.8401 C   0  0  0  0  0  0  0  0  0  0  0  0
  -23.9907  -26.1455   25.1637 C   0  0  0  0  0  0  0  0  0  0  0  0
  -30.0688  -20.6081   20.3856 C   0  0  0  0  0  0  0  0  0  0  0  0
  -29.9595  -19.2502   20.0859 C   0  0  0  0  0  0  0  0  0  0  0  0
  -23.9999   -8.2359   22.4397 C   0  0  0  0  0  0  0  0  0  0  0  0
  -24.3154   -9.6444   24.3771 C   0  0  0  0  0  0  0  0  0  0  0  0
  -25.0381  -25.2427   24.9856 C   0  0  0  0  0  0  0  0  0  0  0  0
  -21.2937   -7.2076   24.1867 C   0  0  0  0  0  0  0  0  0  0  0  0
  -20.1805   -6.4437   23.8362 C   0  0  0  0  0  0  0  0  0  0  0  0
  -26.3609  -26.9865   23.9715 C   0  0  0  0  0  0  0  0  0  0  0  0
  -27.6625  -20.7704   20.5282 C   0  0  0  0  0  0  0  0  0  0  0  0
  -21.5769   -4.4779   23.6853 C   0  0  0  0  0  0  0  0  0  0  0  0
  -24.6707  -10.5401   22.1616 C   0  0  0  0  0  0  0  0  0  0  0  0
  -24.1556  -12.6006   20.7485 C   0  0  0  0  0  0  0  0  0  0  0  0
  -18.0912  -29.4775   21.0534 C   0  0  0  0  0  0  0  0  0  0  0  0
  -24.1168  -27.4752   24.7364 C   0  0  0  0  0  0  0  0  0  0  0  0
  -19.2035  -28.6602   21.3313 C   0  0  0  0  0  0  0  0  0  0  0  0
  -25.3147  -27.9049   24.1476 C   0  0  0  0  0  0  0  0  0  0  0  0
  -28.9203  -21.3682   20.6069 C   0  0  0  0  0  0  0  0  0  0  0  0
  -28.7016  -18.6525   20.0073 C   0  0  0  0  0  0  0  0  0  0  0  0
  -23.9866   -8.4068   23.8240 C   0  0  0  0  0  0  0  0  0  0  0  0
  -26.2223  -25.6623   24.3868 C   0  0  0  0  0  0  0  0  0  0  0  0
  -22.5486   -6.6067   24.2865 C   0  0  0  0  0  0  0  0  0  0  0  0
  -27.5531  -19.4126   20.2284 C   0  0  0  0  0  0  0  0  0  0  0  0
  -20.3221   -5.0789   23.5856 C   0  0  0  0  0  0  0  0  0  0  0  0
  -22.6902   -5.2418   24.0358 C   0  0  0  0  0  0  0  0  0  0  0  0
  -25.0247  -11.6422   21.3036 C   0  0  0  0  0  0  0  0  0  0  0  0
  -24.9755  -13.4247   20.0169 C   0  0  0  0  0  0  0  0  0  0  0  0
  -30.5921  -24.6713   21.2443 C   0  0  0  0  0  0  0  0  0  0  0  0
  -31.1466  -25.7537   20.6814 C   0  0  0  0  0  0  0  0  0  0  0  0
  -22.7344  -12.7341   20.8824 C   0  0  0  0  0  0  0  0  0  0  0  0
  -30.1434  -23.5293   20.3932 C   0  0  0  0  0  0  0  0  0  0  0  0
  -22.6054  -29.3045   22.6215 C   0  0  0  0  0  0  0  0  0  0  0  0
  -24.4931  -31.6298   23.8673 C   0  0  0  0  0  0  0  0  0  0  0  0
  -27.3654  -32.4573   25.5141 C   0  0  0  0  0  0  0  0  0  0  0  0
  -29.6562  -16.3875   19.4550 C   0  0  0  0  0  0  0  0  0  0  0  0
  -18.2478  -30.8562   20.4625 C   0  0  0  0  0  0  0  0  0  0  0  0
  -22.9877  -28.4434   24.9599 C   0  0  0  0  0  0  0  0  0  0  0  0
  -25.5079  -29.3267   23.6899 C   0  0  0  0  0  0  0  0  0  0  0  0
  -19.6561  -31.4262   20.6110 C   0  0  0  0  0  0  0  0  0  0  0  0
  -29.8369  -12.9119   18.7032 C   0  0  0  0  0  0  0  0  0  0  0  0
  -20.6981  -30.3839   20.2175 C   0  0  0  0  0  0  0  0  0  0  0  0
  -28.5295  -12.3506   19.2671 C   0  0  0  0  0  0  0  0  0  0  0  0
  -30.4050  -14.0217   19.5861 C   0  0  0  0  0  0  0  0  0  0  0  0
  -28.1620  -14.5495   20.4574 C   0  0  0  0  0  0  0  0  0  0  0  0
  -20.6197  -29.1538   21.1298 C   0  0  1  0  0  0  0  0  0  0  0  0
  -23.0356  -29.6444   24.0205 C   0  0  1  0  0  0  0  0  0  0  0  0
  -27.5176  -13.4735   19.5682 C   0  0  2  0  0  0  0  0  0  0  0  0
  -30.4703  -27.9746   21.5980 C   0  0  0  0  0  0  0  0  0  0  0  0
  -28.6524  -34.4408   26.3550 C   0  0  0  0  0  0  0  0  0  0  0  0
  -25.3982  -32.2469   21.0195 C   0  0  0  0  0  0  0  0  0  0  0  0
  -27.3231  -33.5256   21.9827 C   0  0  0  0  0  0  0  0  0  0  0  0
  -24.9844  -34.2616   22.4423 C   0  0  0  0  0  0  0  0  0  0  0  0
  -27.1909  -31.5278   28.3185 C   0  0  0  0  0  0  0  0  0  0  0  0
  -25.7797  -18.3013   21.3579 C   0  0  0  0  0  0  0  0  0  0  0  0
  -31.5902  -26.9545   21.4649 C   0  0  0  0  0  0  0  0  0  0  0  0
  -27.9448  -22.7603   23.1255 C   0  0  0  0  0  0  0  0  0  0  0  0
  -28.0299  -23.4056   21.7489 C   0  0  0  0  0  0  0  0  0  0  0  0
  -26.8989  -23.4118   24.0221 C   0  0  0  0  0  0  0  0  0  1  0  0
  -25.8677  -32.1714   23.5572 C   0  0  1  0  0  0  0  0  0  0  0  0
  -27.6204  -33.3767   26.6949 C   0  0  2  0  0  0  0  0  0  0  0  0
  -25.8893  -33.0240   22.2572 C   0  0  0  0  0  0  0  0  0  0  0  0
  -26.2989  -11.8380   20.9543 N   0  0  0  0  0  0  0  0  0  0  0  0
  -26.2366  -12.9289   20.1719 N   0  0  0  0  0  0  0  0  0  0  0  0
  -24.3725  -30.2341   23.9247 N   0  0  0  0  0  0  0  0  0  0  0  0
  -29.3919  -15.0518   19.8252 N   0  0  0  0  0  0  0  0  0  0  0  0
  -24.7334  -14.5177   19.2625 N   0  0  0  0  0  0  0  0  0  0  0  0
  -22.0471  -11.8016   21.6714 N   0  0  0  0  0  0  0  0  0  0  0  0
  -28.6068  -17.2723   19.7008 N   0  0  0  0  0  0  0  0  0  0  0  0
  -21.2464  -29.4295   22.4048 N   0  0  0  0  0  0  0  0  0  0  0  0
  -26.3021  -32.8899   24.7503 N   0  0  0  0  0  0  0  0  0  0  0  0
  -29.0358  -22.7987   20.9218 N   0  0  0  0  0  0  0  0  0  0  0  0
  -28.1182  -32.5950   27.8620 N   0  3  0  0  0  0  0  0  0  0  0  0
  -22.0907  -13.6433   20.3058 O   0  0  0  0  0  0  0  0  0  0  0  0
  -30.7360  -23.3066   19.3372 O   0  0  0  0  0  0  0  0  0  0  0  0
  -23.4445  -28.9562   21.7992 O   0  0  0  0  0  0  0  0  0  0  0  0
  -23.5623  -32.4162   24.0589 O   0  0  0  0  0  0  0  0  0  0  0  0
  -28.0442  -31.4576   25.2895 O   0  0  0  0  0  0  0  0  0  0  0  0
  -30.7237  -16.7168   18.9317 O   0  0  0  0  0  0  0  0  0  0  0  0
  -23.6526   -7.3662   24.6353 O   0  0  0  0  0  0  0  0  0  0  0  0
  -26.3143  -18.8485   20.1547 O   0  0  0  0  0  0  0  0  0  0  0  0
  -27.2459  -24.7830   24.2112 O   0  0  0  0  0  0  0  0  0  1  0  0
  -19.2527   -4.3452   23.2505 F   0  0  0  0  0  0  0  0  0  0  0  0
  -23.8929   -4.6587   24.1312 F   0  0  0  0  0  0  0  0  0  0  0  0
  1  2  1  0  0  0  0
  1  5  2  0  0  0  0
  2  6  2  0  0  0  0
  3 10  2  0  0  0  0
  3 18  1  0  0  0  0
  4 11  1  0  0  0  0
  4 18  2  0  0  0  0
  5 20  1  0  0  0  0
  6 22  1  0  0  0  0
  7 12  2  0  0  0  0
  7 21  1  0  0  0  0
  8  9  2  0  0  0  0
  8 24  1  0  0  0  0
  9 25  1  0  0  0  0
 10 26  1  0  0  0  0
 11 26  2  0  0  0  0
 12 27  1  0  0  0  0
 13 14  2  0  0  0  0
 13 28  1  0  0  0  0
 14 30  1  0  0  0  0
 15 23  1  0  0  0  0
 15 27  2  0  0  0  0
 16 24  2  0  0  0  0
 16 29  1  0  0  0  0
 17 30  2  0  0  0  0
 17 31  1  0  0  0  0
 18 32  1  0  0  0  0
 19 32  1  0  0  0  0
 19 33  2  0  0  0  0
 19 36  1  0  0  0  0
 20 22  2  0  0  0  0
 20 42  1  0  0  0  0
 21 23  2  0  0  0  0
 21 43  1  0  0  0  0
 22 51  1  0  0  0  0
 23 44  1  0  0  0  0
 24 77  1  0  0  0  0
 25 29  2  0  0  0  0
 25 74  1  0  0  0  0
 26 85  1  0  0  0  0
 27 87  1  0  0  0  0
 28 31  2  0  0  0  0
 28 85  1  0  0  0  0
 29 86  1  0  0  0  0
 30 88  1  0  0  0  0
 31 89  1  0  0  0  0
 32 68  2  0  0  0  0
 33 69  1  0  0  0  0
 33 72  1  0  0  0  0
 34 35  2  0  0  0  0
 34 37  1  0  0  0  0
 35 61  1  0  0  0  0
 36 73  1  0  0  0  0
 36 79  2  0  0  0  0
 37 77  1  0  0  0  0
 37 80  2  0  0  0  0
 38 52  1  0  0  0  0
 38 75  1  0  0  0  0
 38 81  2  0  0  0  0
 39 65  1  0  0  0  0
 39 70  1  0  0  0  0
 39 82  2  0  0  0  0
 40 66  1  0  0  0  0
 40 76  1  0  0  0  0
 40 83  2  0  0  0  0
 41 71  1  0  0  0  0
 41 74  1  0  0  0  0
 41 84  2  0  0  0  0
 42 45  1  0  0  0  0
 43 52  1  0  0  0  0
 44 70  1  0  0  0  0
 45 47  1  0  0  0  0
 46 48  1  0  0  0  0
 46 49  1  0  0  0  0
 47 51  1  0  0  0  0
 48 53  1  0  0  0  0
 49 71  1  0  0  0  0
 50 53  1  0  0  0  0
 50 71  1  0  0  0  0
 51 75  1  0  0  0  0
 52 70  1  0  0  0  0
 53 69  1  0  0  0  0
 54 61  1  0  0  0  0
 55 66  1  0  0  0  0
 56 67  1  0  0  0  0
 57 67  1  0  0  0  0
 58 67  1  0  0  0  0
 59 78  1  0  0  0  0
 60 86  1  0  0  0  0
 62 63  1  0  0  0  0
 62 64  1  0  0  0  0
 63 77  1  0  0  0  0
 64 87  1  0  0  0  0
 65 67  1  0  0  0  0
 65 76  1  0  0  0  0
 66 78  1  0  0  0  0
 68 69  1  0  0  0  0
M  CHG  1  78   1
M  ISO  4  41 100  64 101  74 100  87 101
M  END
> <Batch ID>
0004

> <Smiles>
CCC=CC(=O)N(CC[101CH2:1][101O:1]c1ccc2c(c1)CN(C(=O)C(NC(=O)C(C)NC)C(C)(C)C)C(C(=O)NC1CCCc3ccccc31)C2)c1ccc([100NH:0][100C:0](=O)N2CCCC(n3nc(-c4ccc(Oc5ccc(F)cc5F)cc4)c(C(N)=O)c3N)C2)c(OC)c1

> <Shape>
0.323

> <Color>
0.115

> <Negative vol penalty>
0.000

$$$$

  -OEChem-04052315243D

 96104  0     1  0  0  0  0  0999 V2000
  -20.6428  -29.6156   14.7807 C   0  0  0  0  0  0  0  0  0  0  0  0
  -21.9280  -29.2921   15.2039 C   0  0  0  0  0  0  0  0  0  0  0  0
  -28.9873  -10.8539   19.3854 C   0  0  0  0  0  0  0  0  0  0  0  0
  -29.8532  -12.4386   17.7804 C   0  0  0  0  0  0  0  0  0  0  0  0
  -20.0168  -30.7613   15.2699 C   0  0  0  0  0  0  0  0  0  0  0  0
  -22.5884  -30.1148   16.1157 C   0  0  0  0  0  0  0  0  0  0  0  0
  -24.8862  -27.4927   19.7885 C   0  0  0  0  0  0  0  0  0  0  0  0
  -29.7596   -9.8464   18.8073 C   0  0  0  0  0  0  0  0  0  0  0  0
  -30.6255  -11.4311   17.2023 C   0  0  0  0  0  0  0  0  0  0  0  0
  -26.0990  -26.8824   19.4719 C   0  0  0  0  0  0  0  0  0  0  0  0
  -33.5291   -9.8326   17.8614 C   0  0  0  0  0  0  0  0  0  0  0  0
  -34.8575  -10.1302   17.5573 C   0  0  0  0  0  0  0  0  0  0  0  0
  -27.2824  -28.6961   20.5345 C   0  0  0  0  0  0  0  0  0  0  0  0
  -34.4303   -9.6560   15.2271 C   0  0  0  0  0  0  0  0  0  0  0  0
  -29.0340  -12.1500   18.8719 C   0  0  0  0  0  0  0  0  0  0  0  0
  -26.8338  -13.2241   19.5880 C   0  0  0  0  0  0  0  0  0  0  0  0
  -20.6661  -31.5934   16.1955 C   0  0  0  0  0  0  0  0  0  0  0  0
  -24.8625  -28.7169   20.4721 C   0  0  0  0  0  0  0  0  0  0  0  0
  -21.9710  -31.2735   16.6167 C   0  0  0  0  0  0  0  0  0  0  0  0
  -26.0679  -29.3187   20.8608 C   0  0  0  0  0  0  0  0  0  0  0  0
  -30.5787  -10.1350   17.7158 C   0  0  0  0  0  0  0  0  0  0  0  0
  -27.2974  -27.4855   19.8423 C   0  0  0  0  0  0  0  0  0  0  0  0
  -32.6513   -9.4466   16.8483 C   0  0  0  0  0  0  0  0  0  0  0  0
  -35.3081  -10.0419   16.2402 C   0  0  0  0  0  0  0  0  0  0  0  0
  -33.1019   -9.3583   15.5312 C   0  0  0  0  0  0  0  0  0  0  0  0
  -28.2361  -13.1910   19.4682 C   0  0  0  0  0  0  0  0  0  0  0  0
  -26.5714  -14.4138   20.2221 C   0  0  0  0  0  0  0  0  0  0  0  0
  -31.4203  -21.4424   19.0002 C   0  0  0  0  0  0  0  0  0  0  0  0
  -32.0411  -22.5285   18.2764 C   0  0  0  0  0  0  0  0  0  0  0  0
  -29.0084  -22.0935   16.7290 C   0  0  0  0  0  0  0  0  0  0  0  0
  -30.7371  -20.3724   16.9184 C   0  0  0  0  0  0  0  0  0  0  0  0
  -29.0809  -23.2016   17.4834 C   0  0  0  0  0  0  0  0  0  0  0  0
  -30.8250  -20.4177   18.3660 C   0  0  0  0  0  0  0  0  0  0  0  0
  -29.9848  -21.1870   16.1507 C   0  0  0  0  0  0  0  0  0  0  0  0
  -31.4452  -23.6217   17.7617 C   0  0  0  0  0  0  0  0  0  0  0  0
  -25.8559  -12.2650   19.1642 C   0  0  0  0  0  0  0  0  0  0  0  0
  -23.8022  -31.6383   19.8052 C   0  0  0  0  0  0  0  0  0  0  0  0
  -29.8819  -25.2153   18.6556 C   0  0  0  0  0  0  0  0  0  0  0  0
  -24.6148  -32.2155   22.8921 C   0  0  0  0  0  0  0  0  0  0  0  0
  -24.9810  -33.2052   25.8580 C   0  0  0  0  0  0  0  0  0  0  0  0
  -29.8301  -19.5311   20.3686 C   0  0  0  0  0  0  0  0  0  0  0  0
  -19.9674  -32.8466   16.6601 C   0  0  0  0  0  0  0  0  0  0  0  0
  -23.5454  -29.3491   20.8297 C   0  0  0  0  0  0  0  0  0  0  0  0
  -26.0964  -30.6227   21.6139 C   0  0  0  0  0  0  0  0  0  0  0  0
  -20.5905  -33.4640   17.9094 C   0  0  0  0  0  0  0  0  0  0  0  0
  -28.9931  -17.2967   23.2813 C   0  0  0  0  0  0  0  0  0  0  0  0
  -22.1082  -33.5301   17.7720 C   0  0  0  0  0  0  0  0  0  0  0  0
  -28.1631  -16.1875   22.6341 C   0  0  0  0  0  0  0  0  0  0  0  0
  -28.9683  -18.5819   22.4682 C   0  0  0  0  0  0  0  0  0  0  0  0
  -29.2864  -17.0486   20.5185 C   0  0  0  0  0  0  0  0  0  0  0  0
  -22.7104  -32.1277   17.6236 C   0  0  1  0  0  0  0  0  0  0  0  0
  -23.6508  -30.8509   21.0760 C   0  0  1  0  0  0  0  0  0  0  0  0
  -28.0566  -16.3332   21.1047 C   0  0  1  0  0  0  0  0  0  0  0  0
  -23.5222  -35.2348   26.0810 C   0  0  0  0  0  0  0  0  0  0  0  0
  -30.4413  -16.2443   15.8857 C   0  0  0  0  0  0  0  0  0  0  0  0
  -27.9911  -15.9062   16.2649 C   0  0  0  0  0  0  0  0  0  0  0  0
  -31.3183  -22.2637   13.1120 C   0  0  0  0  0  0  0  0  0  0  0  0
  -31.3025  -19.7493   13.2644 C   0  0  0  0  0  0  0  0  0  0  0  0
  -27.3447  -32.2478   21.5294 C   0  0  0  0  0  0  0  0  0  0  0  0
  -28.1814  -33.6924   23.3952 C   0  0  0  0  0  0  0  0  0  0  0  0
  -26.3451  -34.5073   21.9165 C   0  0  0  0  0  0  0  0  0  0  0  0
  -28.7819  -21.3198   14.0073 C   0  0  0  0  0  0  0  0  0  0  0  0
  -26.8913  -34.5191   27.6973 C   0  0  0  0  0  0  0  0  0  0  0  0
  -32.2944  -24.6160   17.0025 C   0  0  0  0  0  0  0  0  0  0  0  0
  -28.4481  -25.6635   18.8363 C   0  0  0  0  0  0  0  0  0  1  0  0
  -29.2104  -17.6005   17.6637 C   0  0  0  0  0  0  0  0  0  0  0  0
  -30.4644  -18.0312   18.4216 C   0  0  0  0  0  0  0  0  0  0  0  0
  -32.9716  -25.5874   17.9412 C   0  0  0  0  0  0  0  0  0  0  0  0
  -25.8640  -32.6828   23.5993 C   0  0  1  0  0  0  0  0  0  0  0  0
  -24.5879  -34.3748   26.7423 C   0  0  2  0  0  0  0  0  0  0  0  0
  -29.3261  -16.2483   16.9323 C   0  0  0  0  0  0  0  0  0  0  0  0
  -31.2420  -21.0584   14.0378 C   0  0  0  0  0  0  0  0  0  0  0  0
  -26.9222  -33.2572   22.6155 C   0  0  0  0  0  0  0  0  0  0  0  0
  -28.8234  -14.2738   19.9846 N   0  0  0  0  0  0  0  0  0  0  0  0
  -27.7851  -14.9984   20.4349 N   0  0  0  0  0  0  0  0  0  0  0  0
  -30.1153  -23.9929   17.9798 N   0  0  0  0  0  0  0  0  0  0  0  0
  -24.7827  -31.2048   21.9349 N   0  0  0  0  0  0  0  0  0  0  0  0
  -29.4705  -18.3879   21.1050 N   0  0  0  0  0  0  0  0  0  0  0  0
  -25.4231  -15.0065   20.6128 N   0  0  0  0  0  0  0  0  0  0  0  0
  -25.3202  -12.3825   17.8744 N   0  0  0  0  0  0  0  0  0  0  0  0
  -22.7660  -31.4630   18.9079 N   0  0  0  0  0  0  0  0  0  0  0  0
  -25.4253  -33.6258   24.6223 N   0  0  0  0  0  0  0  0  0  0  0  0
  -30.3145  -19.3412   19.0621 N   0  0  0  0  0  0  0  0  0  0  0  0
  -29.9939  -21.1081   14.7824 N   0  0  3  0  0  0  0  0  0  0  0  0
  -25.7740  -35.2314   27.0257 N   0  3  0  0  0  0  0  0  0  0  0  0
  -25.4566  -11.3413   19.9130 O   0  0  0  0  0  0  0  0  0  0  0  0
  -24.7854  -32.3531   19.6508 O   0  0  0  0  0  0  0  0  0  0  0  0
  -30.7764  -25.9300   19.1220 O   0  0  0  0  0  0  0  0  0  0  0  0
  -23.5291  -32.7232   23.1835 O   0  0  0  0  0  0  0  0  0  0  0  0
  -24.9053  -32.0355   26.2278 O   0  0  0  0  0  0  0  0  0  0  0  0
  -29.7229  -20.6622   20.8634 O   0  0  0  0  0  0  0  0  0  0  0  0
  -31.3326   -9.1522   17.1517 O   0  0  0  0  0  0  0  0  0  0  0  0
  -28.4975  -26.8847   19.5300 O   0  0  0  0  0  0  0  0  0  1  0  0
  -36.5833  -10.3293   15.9481 F   0  0  0  0  0  0  0  0  0  0  0  0
  -32.2630   -8.9893   14.5535 F   0  0  0  0  0  0  0  0  0  0  0  0
  -33.8059  -24.9080   18.7735 F   0  0  0  0  0  0  0  0  0  0  0  0
  1  2  1  0  0  0  0
  1  5  2  0  0  0  0
  2  6  2  0  0  0  0
  3  8  2  0  0  0  0
  3 15  1  0  0  0  0
  4  9  1  0  0  0  0
  4 15  2  0  0  0  0
  5 17  1  0  0  0  0
  6 19  1  0  0  0  0
  7 10  2  0  0  0  0
  7 18  1  0  0  0  0
  8 21  1  0  0  0  0
  9 21  2  0  0  0  0
 10 22  1  0  0  0  0
 11 12  2  0  0  0  0
 11 23  1  0  0  0  0
 12 24  1  0  0  0  0
 13 20  1  0  0  0  0
 13 22  2  0  0  0  0
 14 24  2  0  0  0  0
 14 25  1  0  0  0  0
 15 26  1  0  0  0  0
 16 26  1  0  0  0  0
 16 27  2  0  0  0  0
 16 36  1  0  0  0  0
 17 19  2  0  0  0  0
 17 42  1  0  0  0  0
 18 20  2  0  0  0  0
 18 43  1  0  0  0  0
 19 51  1  0  0  0  0
 20 44  1  0  0  0  0
 21 92  1  0  0  0  0
 22 93  1  0  0  0  0
 23 25  2  0  0  0  0
 23 92  1  0  0  0  0
 24 94  1  0  0  0  0
 25 95  1  0  0  0  0
 26 74  2  0  0  0  0
 27 75  1  0  0  0  0
 27 79  1  0  0  0  0
 28 29  1  0  0  0  0
 28 33  2  0  0  0  0
 29 35  2  0  0  0  0
 30 32  2  0  0  0  0
 30 34  1  0  0  0  0
 31 33  1  0  0  0  0
 31 34  2  0  0  0  0
 32 76  1  0  0  0  0
 33 83  1  0  0  0  0
 34 84  1  0  0  0  0
 35 64  1  0  0  0  0
 35 76  1  0  0  0  0
 36 80  1  0  0  0  0
 36 86  2  0  0  0  0
 37 52  1  0  0  0  0
 37 81  1  0  0  0  0
 37 87  2  0  0  0  0
 38 65  1  0  0  0  0
 38 76  1  0  0  0  0
 38 88  2  0  0  0  0
 39 69  1  0  0  0  0
 39 77  1  0  0  0  0
 39 89  2  0  0  0  0
 40 70  1  0  0  0  0
 40 82  1  0  0  0  0
 40 90  2  0  0  0  0
 41 78  1  0  0  0  0
 41 83  1  0  0  0  0
 41 91  2  0  0  0  0
 42 45  1  0  0  0  0
 43 52  1  0  0  0  0
 44 77  1  0  0  0  0
 45 47  1  0  0  0  0
 46 48  1  0  0  0  0
 46 49  1  0  0  0  0
 47 51  1  0  0  0  0
 48 53  1  0  0  0  0
 49 78  1  0  0  0  0
 50 53  1  0  0  0  0
 50 78  1  0  0  0  0
 51 81  1  0  0  0  0
 52 77  1  0  0  0  0
 53 75  1  0  0  0  0
 54 70  1  0  0  0  0
 55 71  1  0  0  0  0
 56 71  1  0  0  0  0
 57 72  1  0  0  0  0
 58 72  1  0  0  0  0
 59 73  1  0  0  0  0
 60 73  1  0  0  0  0
 61 73  1  0  0  0  0
 62 84  1  0  0  0  0
 63 85  1  0  0  0  0
 64 68  1  0  0  0  0
 65 93  1  0  0  0  0
 66 67  1  0  0  0  0
 66 71  1  0  0  0  0
 67 83  1  0  0  0  0
 68 96  1  0  0  0  0
 69 73  1  0  0  0  0
 69 82  1  0  0  0  0
 70 85  1  0  0  0  0
 72 84  1  0  0  0  0
 74 75  1  0  0  0  0
M  CHG  1  85   1
M  ISO  4  41 100  65 101  83 100  93 101
M  END
> <Batch ID>
0004

> <Smiles>
CNC(C)C(=O)NC(C(=O)N1Cc2cc([101O:1][101CH2:1]C(=O)n3ccc(N(C)C(C)C)cc([100N:0](CCC(C)C)[100C:0](=O)N4CCCC(n5nc(-c6ccc(Oc7ccc(F)cc7F)cc6)c(C(N)=O)c5N)C4)ccc3CCF)ccc2CC1C(=O)NC1CCCc2ccccc21)C(C)(C)C

> <Shape>
0.249

> <Color>
0.153

> <Negative vol penalty>
0.000

$$$$

  -OEChem-04052315243D

 86 94  0     1  0  0  0  0  0999 V2000
  -34.4668  -21.7834   16.5448 C   0  0  0  0  0  0  0  0  0  0  0  0
  -27.6205  -34.8777   24.3153 C   0  0  0  0  0  0  0  0  0  0  0  0
  -27.8729  -33.5637   23.9343 C   0  0  0  0  0  0  0  0  0  0  0  0
  -24.5356  -17.2768   19.2681 C   0  0  0  0  0  0  0  0  0  0  0  0
  -23.7581  -17.8517   21.4821 C   0  0  0  0  0  0  0  0  0  0  0  0
  -26.3474  -35.2438   24.7504 C   0  0  0  0  0  0  0  0  0  0  0  0
  -26.8526  -32.6148   23.9890 C   0  0  0  0  0  0  0  0  0  0  0  0
  -26.6796  -29.7071   19.8466 C   0  0  0  0  0  0  0  0  0  0  0  0
  -23.8708  -16.0535   19.3522 C   0  0  0  0  0  0  0  0  0  0  0  0
  -23.0931  -16.6284   21.5662 C   0  0  0  0  0  0  0  0  0  0  0  0
  -27.6186  -28.6812   19.7491 C   0  0  0  0  0  0  0  0  0  0  0  0
  -20.7050  -14.9115   19.0258 C   0  0  0  0  0  0  0  0  0  0  0  0
  -19.9609  -14.5008   17.9198 C   0  0  0  0  0  0  0  0  0  0  0  0
  -25.9540  -27.0960   20.4809 C   0  0  0  0  0  0  0  0  0  0  0  0
  -21.3329  -12.5210   17.7320 C   0  0  0  0  0  0  0  0  0  0  0  0
  -24.4793  -18.1759   20.3331 C   0  0  0  0  0  0  0  0  0  0  0  0
  -24.6542  -20.6537   19.7520 C   0  0  0  0  0  0  0  0  0  0  0  0
  -25.3085  -34.3011   24.8013 C   0  0  0  0  0  0  0  0  0  0  0  0
  -25.3714  -29.4364   20.2732 C   0  0  0  0  0  0  0  0  0  0  0  0
  -25.5648  -32.9684   24.4264 C   0  0  0  0  0  0  0  0  0  0  0  0
  -24.9995  -28.1198   20.5805 C   0  0  0  0  0  0  0  0  0  0  0  0
  -23.1495  -15.7293   20.5012 C   0  0  0  0  0  0  0  0  0  0  0  0
  -27.2567  -27.3759   20.0690 C   0  0  0  0  0  0  0  0  0  0  0  0
  -21.7631  -14.1271   19.4849 C   0  0  0  0  0  0  0  0  0  0  0  0
  -20.2748  -13.3055   17.2729 C   0  0  0  0  0  0  0  0  0  0  0  0
  -22.0770  -12.9318   18.8380 C   0  0  0  0  0  0  0  0  0  0  0  0
  -25.1664  -19.4395   20.2470 C   0  0  0  0  0  0  0  0  0  0  0  0
  -25.6914  -21.5440   19.8861 C   0  0  0  0  0  0  0  0  0  0  0  0
  -23.3567  -20.9503   19.2188 C   0  0  0  0  0  0  0  0  0  0  0  0
  -23.5810  -30.3494   22.7358 C   0  0  0  0  0  0  0  0  0  0  0  0
  -32.2082  -20.9097   17.0829 C   0  0  0  0  0  0  0  0  0  0  0  0
  -21.2657  -28.7155   21.1571 C   0  0  0  0  0  0  0  0  0  0  0  0
  -20.4597  -26.2727   18.9144 C   0  0  0  0  0  0  0  0  0  0  0  0
  -31.5996  -20.9157   20.1311 C   0  0  0  0  0  0  0  0  0  0  0  0
  -23.9612  -34.7332   25.3233 C   0  0  0  0  0  0  0  0  0  0  0  0
  -24.3629  -30.5499   20.3474 C   0  0  0  0  0  0  0  0  0  0  0  0
  -23.6024  -27.7734   21.0239 C   0  0  0  0  0  0  0  0  0  0  0  0
  -22.8380  -33.7525   24.9960 C   0  0  0  0  0  0  0  0  0  0  0  0
  -32.6723  -17.7483   18.7813 C   0  0  0  0  0  0  0  0  0  0  0  0
  -29.5542  -22.4386   22.5404 C   0  0  0  0  0  0  0  0  0  0  0  0
  -23.2715  -32.3226   25.3034 C   0  0  0  0  0  0  0  0  0  0  0  0
  -33.1166  -18.6462   17.6336 C   0  0  0  0  0  0  0  0  0  0  0  0
  -28.1484  -21.9487   22.2006 C   0  0  0  0  0  0  0  0  0  0  0  0
  -30.5778  -21.3275   22.3449 C   0  0  0  0  0  0  0  0  0  0  0  0
  -31.4785  -18.4908   19.3584 C   0  0  0  0  0  0  0  0  0  0  0  0
  -29.1848  -20.2678   20.5924 C   0  0  0  0  0  0  0  0  0  0  0  0
  -24.4777  -31.9159   24.4483 C   0  0  1  0  0  0  0  0  0  0  0  0
  -23.2006  -30.2417   21.2862 C   0  0  1  0  0  0  0  0  0  0  0  0
  -32.8295  -20.0559   18.1427 C   0  0  2  0  0  0  0  0  0  0  0  0
  -28.1051  -21.3526   20.7841 C   0  0  1  0  0  0  0  0  0  0  0  0
  -18.4839  -25.1421   17.8584 C   0  0  0  0  0  0  0  0  0  0  0  0
  -20.7844  -27.1548   23.7344 C   0  0  0  0  0  0  0  0  0  0  0  0
  -19.5264  -25.4583   22.3899 C   0  0  0  0  0  0  0  0  0  0  0  0
  -18.7057  -27.8110   22.5085 C   0  0  0  0  0  0  0  0  0  0  0  0
  -21.2759  -27.1247   16.2002 C   0  0  0  0  0  0  0  0  0  0  0  0
  -31.1470  -23.8592   16.9253 C   0  0  0  0  0  0  0  0  0  0  0  0
  -30.7462  -25.2429   17.4406 C   0  0  0  0  0  0  0  0  0  0  0  0
  -32.2361  -23.9571   15.8570 C   0  0  0  0  0  0  0  0  0  0  0  0
  -29.6342  -25.1443   18.4890 C   0  0  0  0  0  0  0  0  0  0  0  0
  -32.6081  -22.5815   15.3168 C   0  0  0  0  0  0  0  0  0  0  0  0
  -29.1947  -26.5135   18.9936 C   0  0  0  0  0  0  0  0  0  1  0  0
  -20.7765  -27.2873   21.1559 C   0  0  1  0  0  0  0  0  0  0  0  0
  -19.5037  -26.2634   17.7352 C   0  0  2  0  0  0  0  0  0  0  0  0
  -19.9752  -26.9344   22.4407 C   0  0  0  0  0  0  0  0  0  0  0  0
  -35.6162  -21.8473   16.6912 N   0  0  0  0  0  0  0  0  0  0  0  0
  -26.4309  -19.5452   20.6642 N   0  0  0  0  0  0  0  0  0  0  0  0
  -26.7219  -20.8364   20.4316 N   0  0  0  0  0  0  0  0  0  0  0  0
  -22.6541  -28.8978   21.0869 N   0  0  0  0  0  0  0  0  0  0  0  0
  -30.5078  -20.7640   20.9958 N   0  0  0  0  0  0  0  0  0  0  0  0
  -31.8272  -19.9021   19.1958 N   0  0  0  0  0  0  0  0  0  0  0  0
  -25.8135  -22.8553   19.5892 N   0  0  0  0  0  0  0  0  0  0  0  0
  -22.4097  -19.9193   19.1532 N   0  0  0  0  0  0  0  0  0  0  0  0
  -24.0570  -31.5940   23.1016 N   0  0  0  0  0  0  0  0  0  0  0  0
  -20.0259  -27.1140   19.9170 N   0  0  0  0  0  0  0  0  0  0  0  0
  -33.1170  -21.7089   16.3729 N   0  0  0  0  0  0  0  0  0  0  0  0
  -20.2544  -26.0781   16.4612 N   0  3  0  0  0  0  0  0  0  0  0  0
  -23.0517  -22.0918   18.7975 O   0  0  0  0  0  0  0  0  0  0  0  0
  -23.4509  -29.3758   23.4685 O   0  0  0  0  0  0  0  0  0  0  0  0
  -30.9922  -20.8755   16.8918 O   0  0  0  0  0  0  0  0  0  0  0  0
  -20.4458  -29.6355   21.2109 O   0  0  0  0  0  0  0  0  0  0  0  0
  -21.4865  -25.5980   18.9447 O   0  0  0  0  0  0  0  0  0  0  0  0
  -32.3484  -21.8986   20.2049 O   0  0  0  0  0  0  0  0  0  0  0  0
  -22.5003  -14.5359   20.5835 O   0  0  0  0  0  0  0  0  0  0  0  0
  -28.1784  -26.3652   19.9747 O   0  0  0  0  0  0  0  0  0  1  0  0
  -19.5593  -12.9104   16.2118 F   0  0  0  0  0  0  0  0  0  0  0  0
  -23.0916  -12.1734   19.2752 F   0  0  0  0  0  0  0  0  0  0  0  0
  1 65  3  0  0  0  0
  1 75  1  0  0  0  0
  2  3  1  0  0  0  0
  2  6  2  0  0  0  0
  3  7  2  0  0  0  0
  4  9  2  0  0  0  0
  4 16  1  0  0  0  0
  5 10  1  0  0  0  0
  5 16  2  0  0  0  0
  6 18  1  0  0  0  0
  7 20  1  0  0  0  0
  8 11  2  0  0  0  0
  8 19  1  0  0  0  0
  9 22  1  0  0  0  0
 10 22  2  0  0  0  0
 11 23  1  0  0  0  0
 12 13  2  0  0  0  0
 12 24  1  0  0  0  0
 13 25  1  0  0  0  0
 14 21  1  0  0  0  0
 14 23  2  0  0  0  0
 15 25  2  0  0  0  0
 15 26  1  0  0  0  0
 16 27  1  0  0  0  0
 17 27  1  0  0  0  0
 17 28  2  0  0  0  0
 17 29  1  0  0  0  0
 18 20  2  0  0  0  0
 18 35  1  0  0  0  0
 19 21  2  0  0  0  0
 19 36  1  0  0  0  0
 20 47  1  0  0  0  0
 21 37  1  0  0  0  0
 22 83  1  0  0  0  0
 23 84  1  0  0  0  0
 24 26  2  0  0  0  0
 24 83  1  0  0  0  0
 25 85  1  0  0  0  0
 26 86  1  0  0  0  0
 27 66  2  0  0  0  0
 28 67  1  0  0  0  0
 28 71  1  0  0  0  0
 29 72  1  0  0  0  0
 29 77  2  0  0  0  0
 30 48  1  0  0  0  0
 30 73  1  0  0  0  0
 30 78  2  0  0  0  0
 31 49  1  0  0  0  0
 31 75  1  0  0  0  0
 31 79  2  0  0  0  0
 32 62  1  0  0  0  0
 32 68  1  0  0  0  0
 32 80  2  0  0  0  0
 33 63  1  0  0  0  0
 33 74  1  0  0  0  0
 33 81  2  0  0  0  0
 34 69  1  0  0  0  0
 34 70  1  0  0  0  0
 34 82  2  0  0  0  0
 35 38  1  0  0  0  0
 36 48  1  0  0  0  0
 37 68  1  0  0  0  0
 38 41  1  0  0  0  0
 39 42  1  0  0  0  0
 39 45  1  0  0  0  0
 40 43  1  0  0  0  0
 40 44  1  0  0  0  0
 41 47  1  0  0  0  0
 42 49  1  0  0  0  0
 43 50  1  0  0  0  0
 44 69  1  0  0  0  0
 45 70  1  0  0  0  0
 46 50  1  0  0  0  0
 46 69  1  0  0  0  0
 47 73  1  0  0  0  0
 48 68  1  0  0  0  0
 49 70  1  0  0  0  0
 50 67  1  0  0  0  0
 51 63  1  0  0  0  0
 52 64  1  0  0  0  0
 53 64  1  0  0  0  0
 54 64  1  0  0  0  0
 55 76  1  0  0  0  0
 56 57  1  0  0  0  0
 56 58  1  0  0  0  0
 57 59  1  0  0  0  0
 58 60  1  0  0  0  0
 59 61  1  0  0  0  0
 60 75  1  0  0  0  0
 61 84  1  0  0  0  0
 62 64  1  0  0  0  0
 62 74  1  0  0  0  0
 63 76  1  0  0  0  0
 66 67  1  0  0  0  0
M  CHG  1  76   1
M  ISO  4  34 100  61 101  70 100  84 101
M  END
> <Batch ID>
0004

> <Smiles>
CNC(C)C(=O)NC(C(=O)N1Cc2cc([101O:1][101CH2:1]CCCCCN(C#N)C(=O)C3CCC[100N:0]3[100C:0](=O)N3CCCC(n4nc(-c5ccc(Oc6ccc(F)cc6F)cc5)c(C(N)=O)c4N)C3)ccc2CC1C(=O)NC1CCCc2ccccc21)C(C)(C)C

> <Shape>
0.201

> <Color>
0.070

> <Negative vol penalty>
0.000

$$$$

  -OEChem-04052315243D

100108  0     1  0  0  0  0  0999 V2000
  -24.2917  -30.8029   21.8970 C   0  0  0  0  0  0  0  0  0  0  0  0
  -24.1613  -29.4891   22.3355 C   0  0  0  0  0  0  0  0  0  0  0  0
  -15.9730  -22.0903   26.0570 C   0  0  0  0  0  0  0  0  0  0  0  0
  -23.7971   -9.8933   19.9356 C   0  0  0  0  0  0  0  0  0  0  0  0
  -24.3039   -9.7944   22.2957 C   0  0  0  0  0  0  0  0  0  0  0  0
  -24.9747  -31.0768   20.7127 C   0  0  0  0  0  0  0  0  0  0  0  0
  -24.7128  -28.4482   21.5893 C   0  0  0  0  0  0  0  0  0  0  0  0
  -27.1765  -25.0879   24.4674 C   0  0  0  0  0  0  0  0  0  0  0  0
  -16.9462  -21.8957   27.0370 C   0  0  0  0  0  0  0  0  0  0  0  0
  -15.7717  -21.1233   25.0721 C   0  0  0  0  0  0  0  0  0  0  0  0
  -23.5139   -8.5276   19.9391 C   0  0  0  0  0  0  0  0  0  0  0  0
  -24.0207   -8.4286   22.2993 C   0  0  0  0  0  0  0  0  0  0  0  0
  -26.4042  -24.1646   25.1709 C   0  0  0  0  0  0  0  0  0  0  0  0
  -23.0829   -4.9882   23.0080 C   0  0  0  0  0  0  0  0  0  0  0  0
  -22.3003   -4.4900   24.0496 C   0  0  0  0  0  0  0  0  0  0  0  0
  -26.8652  -22.5028   23.4842 C   0  0  0  0  0  0  0  0  0  0  0  0
  -17.5171  -19.7669   26.0472 C   0  0  0  0  0  0  0  0  0  0  0  0
  -20.4944   -5.9544   23.3930 C   0  0  0  0  0  0  0  0  0  0  0  0
  -24.1921  -10.5268   21.1139 C   0  0  0  0  0  0  0  0  0  0  0  0
  -23.5851  -12.9934   21.3485 C   0  0  0  0  0  0  0  0  0  0  0  0
  -25.5432  -30.0396   19.9567 C   0  0  0  0  0  0  0  0  0  0  0  0
  -27.7911  -24.7281   23.2594 C   0  0  0  0  0  0  0  0  0  0  0  0
  -25.4029  -28.7084   20.3931 C   0  0  0  0  0  0  0  0  0  0  0  0
  -27.6469  -23.4225   22.7686 C   0  0  0  0  0  0  0  0  0  0  0  0
  -17.7183  -20.7340   27.0321 C   0  0  0  0  0  0  0  0  0  0  0  0
  -16.5438  -19.9616   25.0672 C   0  0  0  0  0  0  0  0  0  0  0  0
  -23.6257   -7.7952   21.1209 C   0  0  0  0  0  0  0  0  0  0  0  0
  -26.2460  -22.8727   24.6779 C   0  0  0  0  0  0  0  0  0  0  0  0
  -22.5713   -5.9695   22.1589 C   0  0  0  0  0  0  0  0  0  0  0  0
  -21.0060   -4.9732   24.2421 C   0  0  0  0  0  0  0  0  0  0  0  0
  -21.2770   -6.4526   22.3514 C   0  0  0  0  0  0  0  0  0  0  0  0
  -24.4853  -11.9375   21.1108 C   0  0  0  0  0  0  0  0  0  0  0  0
  -24.3493  -14.1287   21.2329 C   0  0  0  0  0  0  0  0  0  0  0  0
  -22.1834  -12.9516   21.6473 C   0  0  0  0  0  0  0  0  0  0  0  0
  -27.5660  -25.7163   20.2466 C   0  0  0  0  0  0  0  0  0  0  0  0
  -30.0467  -23.6743   19.8011 C   0  0  0  0  0  0  0  0  0  0  0  0
  -21.0095  -20.8792   27.0966 C   0  0  0  0  0  0  0  0  0  0  0  0
  -31.7592  -20.9204   20.8643 C   0  0  0  0  0  0  0  0  0  0  0  0
  -29.2209  -16.6646   22.7006 C   0  0  0  0  0  0  0  0  0  0  0  0
  -26.2314  -30.3805   18.6587 C   0  0  0  0  0  0  0  0  0  0  0  0
  -28.6429  -25.7277   22.5262 C   0  0  0  0  0  0  0  0  0  0  0  0
  -28.3025  -22.9802   21.4868 C   0  0  0  0  0  0  0  0  0  0  0  0
  -27.1098  -29.2539   18.1208 C   0  0  0  0  0  0  0  0  0  0  0  0
  -29.0489  -14.7943   19.5109 C   0  0  0  0  0  0  0  0  0  0  0  0
  -26.3665  -27.9231   18.1794 C   0  0  0  0  0  0  0  0  0  0  0  0
  -27.8092  -13.9223   19.7025 C   0  0  0  0  0  0  0  0  0  0  0  0
  -29.7224  -15.1225   20.8399 C   0  0  0  0  0  0  0  0  0  0  0  0
  -27.5711  -14.8688   22.0323 C   0  0  0  0  0  0  0  0  0  0  0  0
  -26.0087  -27.5543   19.6242 C   0  0  1  0  0  0  0  0  0  0  0  0
  -28.8010  -25.4046   21.0436 C   0  0  1  0  0  0  0  0  0  0  0  0
  -26.8423  -14.5585   20.7162 C   0  0  2  0  0  0  0  0  0  0  0  0
  -16.1987  -17.3027   21.5456 C   0  0  0  0  0  0  0  0  0  0  0  0
  -33.7210  -19.4712   20.2739 C   0  0  0  0  0  0  0  0  0  0  0  0
  -28.4131  -22.3732   17.5766 C   0  0  0  0  0  0  0  0  0  0  0  0
  -29.9629  -20.4097   17.6821 C   0  0  0  0  0  0  0  0  0  0  0  0
  -30.8426  -22.6585   17.0565 C   0  0  0  0  0  0  0  0  0  0  0  0
  -28.7084  -18.6668   24.0452 C   0  0  0  0  0  0  0  0  0  0  0  0
  -33.1326  -21.5421   23.4111 C   0  0  0  0  0  0  0  0  0  0  0  0
  -21.0414  -22.0482   20.4608 C   0  0  0  0  0  0  0  0  0  0  0  0
  -18.7647  -20.5245   28.0882 C   0  0  0  0  0  0  0  0  0  0  0  0
  -16.3290  -18.9279   24.0135 C   0  0  0  0  0  0  0  0  0  0  0  0
  -22.1100  -21.9212   27.0054 C   0  0  0  0  0  0  0  0  0  0  0  0
  -23.2977  -21.4439   26.1774 C   0  0  0  0  0  0  0  0  0  0  0  0
  -25.6906  -19.0611   20.6770 C   0  0  0  0  0  0  0  0  0  0  0  0
  -24.6093  -19.5971   21.6205 C   0  0  0  0  0  0  0  0  0  0  0  0
  -27.0475  -18.8611   21.3600 C   0  0  0  0  0  0  0  0  0  0  0  0
  -23.2740  -19.8676   20.9242 C   0  0  0  0  0  0  0  0  0  0  0  0
  -18.5385  -20.2525   21.2045 C   0  0  0  0  0  0  0  0  0  0  0  0
  -26.9871  -17.8337   22.4868 C   0  0  0  0  0  0  0  0  0  0  0  0
  -17.4963  -17.5865   22.2704 C   0  0  0  0  0  0  0  0  0  0  0  0
  -22.2515  -20.4215   21.9066 C   0  0  0  0  0  0  0  0  0  0  0  0
  -19.7708  -20.5956   22.0347 C   0  0  0  0  0  0  0  0  0  0  0  0
  -17.2453  -20.0476   21.9866 C   0  0  0  0  0  0  0  0  0  0  0  0
  -24.4092  -22.4825   26.1372 C   0  0  0  0  0  0  0  0  0  1  0  0
  -30.1777  -22.2109   19.4543 C   0  0  1  0  0  0  0  0  0  0  0  0
  -33.2428  -20.6746   21.0714 C   0  0  2  0  0  0  0  0  0  0  0  0
  -29.8350  -21.9216   17.9656 C   0  0  0  0  0  0  0  0  0  0  0  0
  -25.7264  -12.3641   20.8626 N   0  0  0  0  0  0  0  0  0  0  0  0
  -25.6115  -13.7006   20.9438 N   0  0  0  0  0  0  0  0  0  0  0  0
  -29.1202  -23.9959   20.8031 N   0  0  0  0  0  0  0  0  0  0  0  0
  -28.7716  -15.6856   21.7992 N   0  0  0  0  0  0  0  0  0  0  0  0
  -24.0579  -15.4416   21.3512 N   0  0  0  0  0  0  0  0  0  0  0  0
  -21.5547  -11.7017   21.7292 N   0  0  0  0  0  0  0  0  0  0  0  0
  -27.1701  -27.0384   20.3166 N   0  0  0  0  0  0  0  0  0  0  0  0
  -19.9385  -21.3316   27.8533 N   0  0  0  0  0  0  0  0  0  0  0  0
  -31.5278  -21.8183   19.8438 N   0  0  0  0  0  0  0  0  0  0  0  0
  -28.2874  -17.6245   23.1199 N   0  0  0  0  0  0  0  0  0  0  0  0
  -33.5308  -20.4280   22.5126 N   0  3  0  0  0  0  0  0  0  0  0  0
  -20.9671  -20.7170   21.1696 N   0  3  1  0  0  0  0  0  0  0  0  0
  -17.3925  -18.9165   22.9715 N   0  3  1  0  0  0  0  0  0  0  0  0
  -21.5050  -13.9925   21.8200 O   0  0  0  0  0  0  0  0  0  0  0  0
  -27.0140  -24.8238   19.6139 O   0  0  0  0  0  0  0  0  0  0  0  0
  -30.7460  -24.5008   19.2099 O   0  0  0  0  0  0  0  0  0  0  0  0
  -21.0775  -19.7772   26.5589 O   0  0  0  0  0  0  0  0  0  0  0  0
  -30.8921  -20.3680   21.5378 O   0  0  0  0  0  0  0  0  0  0  0  0
  -30.3922  -16.6854   23.1000 O   0  0  0  0  0  0  0  0  0  0  0  0
  -23.3493   -6.4625   21.1248 O   0  0  0  0  0  0  0  0  0  0  0  0
  -25.4922  -21.9698   25.3622 O   0  0  0  0  0  0  0  0  0  1  0  0
  -20.2540   -4.4936   25.2415 F   0  0  0  0  0  0  0  0  0  0  0  0
  -20.7796   -7.3945   21.5382 F   0  0  0  0  0  0  0  0  0  0  0  0
  1  2  1  0  0  0  0
  1  6  2  0  0  0  0
  2  7  2  0  0  0  0
  3  9  1  0  0  0  0
  3 10  2  0  0  0  0
  4 11  2  0  0  0  0
  4 19  1  0  0  0  0
  5 12  1  0  0  0  0
  5 19  2  0  0  0  0
  6 21  1  0  0  0  0
  7 23  1  0  0  0  0
  8 13  2  0  0  0  0
  8 22  1  0  0  0  0
  9 25  2  0  0  0  0
 10 26  1  0  0  0  0
 11 27  1  0  0  0  0
 12 27  2  0  0  0  0
 13 28  1  0  0  0  0
 14 15  2  0  0  0  0
 14 29  1  0  0  0  0
 15 30  1  0  0  0  0
 16 24  1  0  0  0  0
 16 28  2  0  0  0  0
 17 25  1  0  0  0  0
 17 26  2  0  0  0  0
 18 30  2  0  0  0  0
 18 31  1  0  0  0  0
 19 32  1  0  0  0  0
 20 32  1  0  0  0  0
 20 33  2  0  0  0  0
 20 34  1  0  0  0  0
 21 23  2  0  0  0  0
 21 40  1  0  0  0  0
 22 24  2  0  0  0  0
 22 41  1  0  0  0  0
 23 49  1  0  0  0  0
 24 42  1  0  0  0  0
 25 60  1  0  0  0  0
 26 61  1  0  0  0  0
 27 97  1  0  0  0  0
 28 98  1  0  0  0  0
 29 31  2  0  0  0  0
 29 97  1  0  0  0  0
 30 99  1  0  0  0  0
 31100  1  0  0  0  0
 32 78  2  0  0  0  0
 33 79  1  0  0  0  0
 33 82  1  0  0  0  0
 34 83  1  0  0  0  0
 34 91  2  0  0  0  0
 35 50  1  0  0  0  0
 35 84  1  0  0  0  0
 35 92  2  0  0  0  0
 36 75  1  0  0  0  0
 36 80  1  0  0  0  0
 36 93  2  0  0  0  0
 37 62  1  0  0  0  0
 37 85  1  0  0  0  0
 37 94  2  0  0  0  0
 38 76  1  0  0  0  0
 38 86  1  0  0  0  0
 38 95  2  0  0  0  0
 39 81  1  0  0  0  0
 39 87  1  0  0  0  0
 39 96  2  0  0  0  0
 40 43  1  0  0  0  0
 41 50  1  0  0  0  0
 42 80  1  0  0  0  0
 43 45  1  0  0  0  0
 44 46  1  0  0  0  0
 44 47  1  0  0  0  0
 45 49  1  0  0  0  0
 46 51  1  0  0  0  0
 47 81  1  0  0  0  0
 48 51  1  0  0  0  0
 48 81  1  0  0  0  0
 49 84  1  0  0  0  0
 50 80  1  0  0  0  0
 51 79  1  0  0  0  0
 52 70  1  0  0  0  0
 53 76  1  0  0  0  0
 54 77  1  0  0  0  0
 55 77  1  0  0  0  0
 56 77  1  0  0  0  0
 57 87  1  0  0  0  0
 58 88  1  0  0  0  0
 59 89  1  0  0  0  0
 60 85  1  0  0  0  0
 61 90  1  0  0  0  0
 62 63  1  0  0  0  0
 63 74  1  0  0  0  0
 64 65  1  0  0  0  0
 64 66  1  0  0  0  0
 65 67  1  0  0  0  0
 66 69  1  0  0  0  0
 67 71  1  0  0  0  0
 68 72  1  0  0  0  0
 68 73  1  0  0  0  0
 69 87  1  0  0  0  0
 70 90  1  0  0  0  0
 71 89  1  0  0  0  0
 72 89  1  0  0  0  0
 73 90  1  0  0  0  0
 74 98  1  0  0  0  0
 75 77  1  0  0  0  0
 75 86  1  0  0  0  0
 76 88  1  0  0  0  0
 78 79  1  0  0  0  0
M  CHG  3  88   1  89   1  90   1
M  ISO  4  39 100  74 101  87 100  98 101
M  END
> <Batch ID>
0004

> <Smiles>
CCN(CCCN(C)CCCCCC[100N:0](C)[100C:0](=O)N1CCCC(n2nc(-c3ccc(Oc4ccc(F)cc4F)cc3)c(C(N)=O)c2N)C1)Cc1cccc(CNC(=O)CC[101CH2:1][101O:1]c2ccc3c(c2)CN(C(=O)C(NC(=O)C(C)NC)C(C)(C)C)C(C(=O)NC2CCCc4ccccc42)C3)c1

> <Shape>
0.215

> <Color>
0.081

> <Negative vol penalty>
0.000

$$$$

  -OEChem-04052315243D

 91 99  0     1  0  0  0  0  0999 V2000
  -18.8043  -33.1806   20.6441 C   0  0  0  0  0  0  0  0  0  0  0  0
  -20.0862  -32.8257   20.2362 C   0  0  0  0  0  0  0  0  0  0  0  0
  -25.6299  -13.5914   21.6228 C   0  0  0  0  0  0  0  0  0  0  0  0
  -26.6645  -13.3514   19.4528 C   0  0  0  0  0  0  0  0  0  0  0  0
  -18.3008  -32.7012   21.8526 C   0  0  0  0  0  0  0  0  0  0  0  0
  -20.8657  -31.9921   21.0373 C   0  0  0  0  0  0  0  0  0  0  0  0
  -24.8841  -27.7750   19.1466 C   0  0  0  0  0  0  0  0  0  0  0  0
  -32.2646  -19.7558   15.3971 C   0  0  0  0  0  0  0  0  0  0  0  0
  -24.6123  -12.7203   21.2341 C   0  0  0  0  0  0  0  0  0  0  0  0
  -25.6468  -12.4803   19.0640 C   0  0  0  0  0  0  0  0  0  0  0  0
  -26.2717  -27.7950   19.0129 C   0  0  0  0  0  0  0  0  0  0  0  0
  -33.0417  -20.8913   15.6264 C   0  0  0  0  0  0  0  0  0  0  0  0
  -24.1825   -9.3832   20.8994 C   0  0  0  0  0  0  0  0  0  0  0  0
  -23.8028   -8.3873   21.7991 C   0  0  0  0  0  0  0  0  0  0  0  0
  -26.4896  -26.7662   21.1839 C   0  0  0  0  0  0  0  0  0  0  0  0
  -31.5877  -21.5177   17.4514 C   0  0  0  0  0  0  0  0  0  0  0  0
  -21.5574   -9.2783   21.8378 C   0  0  0  0  0  0  0  0  0  0  0  0
  -26.6560  -13.9070   20.7322 C   0  0  0  0  0  0  0  0  0  0  0  0
  -28.9260  -14.4694   21.7512 C   0  0  0  0  0  0  0  0  0  0  0  0
  -19.0709  -31.8534   22.6643 C   0  0  0  0  0  0  0  0  0  0  0  0
  -24.2881  -27.2595   20.3066 C   0  0  0  0  0  0  0  0  0  0  0  0
  -20.3725  -31.5019   22.2585 C   0  0  0  0  0  0  0  0  0  0  0  0
  -25.0941  -26.7384   21.3288 C   0  0  0  0  0  0  0  0  0  0  0  0
  -31.1490  -19.5013   16.1949 C   0  0  0  0  0  0  0  0  0  0  0  0
  -30.8106  -20.3823   17.2221 C   0  0  0  0  0  0  0  0  0  0  0  0
  -24.6207  -12.1647   19.9546 C   0  0  0  0  0  0  0  0  0  0  0  0
  -27.0748  -27.2932   20.0329 C   0  0  0  0  0  0  0  0  0  0  0  0
  -32.7032  -21.7722   16.6536 C   0  0  0  0  0  0  0  0  0  0  0  0
  -23.2497  -10.3268   20.4689 C   0  0  0  0  0  0  0  0  0  0  0  0
  -22.4902   -8.3348   22.2683 C   0  0  0  0  0  0  0  0  0  0  0  0
  -21.9371  -10.2743   20.9381 C   0  0  0  0  0  0  0  0  0  0  0  0
  -27.7072  -14.8072   21.1330 C   0  0  0  0  0  0  0  0  0  0  0  0
  -29.5683  -15.6712   21.9235 C   0  0  0  0  0  0  0  0  0  0  0  0
  -29.4324  -13.1842   22.1352 C   0  0  0  0  0  0  0  0  0  0  0  0
  -22.4316  -28.4523   22.5945 C   0  0  0  0  0  0  0  0  0  0  0  0
  -22.3229  -25.3629   23.5774 C   0  0  0  0  0  0  0  0  0  0  0  0
  -32.3107  -25.7185   17.3033 C   0  0  0  0  0  0  0  0  0  0  0  0
  -23.7891  -22.2815   23.6157 C   0  0  0  0  0  0  0  0  0  0  0  0
  -29.2226  -20.9263   19.1005 C   0  0  0  0  0  0  0  0  0  0  0  0
  -18.5016  -31.3985   23.9847 C   0  0  0  0  0  0  0  0  0  0  0  0
  -22.7891  -27.2207   20.4239 C   0  0  0  0  0  0  0  0  0  0  0  0
  -24.5030  -26.1555   22.5855 C   0  0  0  0  0  0  0  0  0  0  0  0
  -19.2506  -30.2173   24.5964 C   0  0  0  0  0  0  0  0  0  0  0  0
  -28.6808  -20.3327   22.5691 C   0  0  0  0  0  0  0  0  0  0  0  0
  -20.7567  -30.4522   24.5380 C   0  0  0  0  0  0  0  0  0  0  0  0
  -28.4866  -18.8169   22.6516 C   0  0  0  0  0  0  0  0  0  0  0  0
  -28.0639  -20.9153   21.2988 C   0  0  0  0  0  0  0  0  0  0  0  0
  -28.2995  -18.7584   20.1319 C   0  0  0  0  0  0  0  0  0  0  0  0
  -21.2393  -30.5797   23.0881 C   0  0  1  0  0  0  0  0  0  0  0  0
  -22.3046  -27.1430   21.8684 C   0  0  1  0  0  0  0  0  0  0  0  0
  -28.9609  -18.1171   21.3628 C   0  0  2  0  0  0  0  0  0  0  0  0
  -23.4838  -19.9659   24.5335 C   0  0  0  0  0  0  0  0  0  0  0  0
  -23.2206  -26.3368   26.3262 C   0  0  0  0  0  0  0  0  0  0  0  0
  -23.8069  -23.9704   26.8960 C   0  0  0  0  0  0  0  0  0  0  0  0
  -21.4446  -24.5766   26.3718 C   0  0  0  0  0  0  0  0  0  0  0  0
  -32.3673  -26.0096   14.8140 C   0  0  0  0  0  0  0  0  0  0  0  0
  -23.6582  -21.0992   20.9057 C   0  0  0  0  0  0  0  0  0  0  0  0
  -30.9396  -26.3805   17.2612 C   0  0  0  0  0  0  0  0  0  0  0  0
  -30.3057  -26.5072   18.6448 C   0  0  0  0  0  0  0  0  0  0  0  0
  -34.2761  -24.9496   15.9558 C   0  0  0  0  0  0  0  0  0  0  0  0
  -28.9588  -27.2131   18.5838 C   0  0  0  0  0  0  0  0  0  1  0  0
  -34.1223  -23.4536   15.7509 C   0  0  0  0  0  0  0  0  0  0  0  0
  -23.1495  -24.5068   24.5062 C   0  0  1  0  0  0  0  0  0  0  0  0
  -23.2269  -20.8952   23.3574 C   0  0  2  0  0  0  0  0  0  0  0  0
  -30.3351  -18.2774   15.9263 C   0  0  0  0  0  0  0  0  0  0  0  0
  -22.9169  -24.8603   26.0023 C   0  0  0  0  0  0  0  0  0  0  0  0
  -27.5804  -16.1208   20.9267 N   0  0  0  0  0  0  0  0  0  0  0  0
  -28.7277  -16.6189   21.4181 N   0  0  0  0  0  0  0  0  0  0  0  0
  -23.0325  -26.1458   22.6558 N   0  0  0  0  0  0  0  0  0  0  0  0
  -28.5625  -20.2060   20.1185 N   0  0  0  0  0  0  0  0  0  0  0  0
  -30.7644  -15.9991   22.4567 N   0  0  0  0  0  0  0  0  0  0  0  0
  -28.6433  -12.0532   21.8849 N   0  0  0  0  0  0  0  0  0  0  0  0
  -29.6813  -20.1412   18.0433 N   0  0  0  0  0  0  0  0  0  0  0  0
  -21.3284  -29.2748   22.4685 N   0  0  0  0  0  0  0  0  0  0  0  0
  -22.8439  -23.1217   24.1650 N   0  0  0  0  0  0  0  0  0  0  0  0
  -32.9598  -25.5649   16.0734 N   0  0  0  0  0  0  0  0  0  0  0  0
  -23.8530  -20.3003   22.1429 N   0  3  0  0  0  0  0  0  0  0  0  0
  -30.5443  -13.0445   22.6989 O   0  0  0  0  0  0  0  0  0  0  0  0
  -23.4542  -28.6976   23.2237 O   0  0  0  0  0  0  0  0  0  0  0  0
  -21.0926  -25.3326   23.6616 O   0  0  0  0  0  0  0  0  0  0  0  0
  -32.7944  -25.3496   18.3767 O   0  0  0  0  0  0  0  0  0  0  0  0
  -24.9516  -22.5872   23.3594 O   0  0  0  0  0  0  0  0  0  0  0  0
  -29.3940  -22.1457   19.1751 O   0  0  0  0  0  0  0  0  0  0  0  0
  -23.6280  -11.3144   19.5750 O   0  0  0  0  0  0  0  0  0  0  0  0
  -28.4295  -27.3121   19.9053 O   0  0  0  0  0  0  0  0  0  1  0  0
  -33.4669  -22.8875   16.8787 O   0  0  0  0  0  0  0  0  0  0  0  0
  -22.1253   -7.3774   23.1311 F   0  0  0  0  0  0  0  0  0  0  0  0
  -21.0362  -11.1772   20.5272 F   0  0  0  0  0  0  0  0  0  0  0  0
  -30.8057  -17.5275   14.8875 F   0  0  0  0  0  0  0  0  0  0  0  0
  -30.2737  -17.4213   16.9874 F   0  0  0  0  0  0  0  0  0  0  0  0
  -29.0403  -18.5695   15.6130 F   0  0  0  0  0  0  0  0  0  0  0  0
  1  2  1  0  0  0  0
  1  5  2  0  0  0  0
  2  6  2  0  0  0  0
  3  9  2  0  0  0  0
  3 18  1  0  0  0  0
  4 10  1  0  0  0  0
  4 18  2  0  0  0  0
  5 20  1  0  0  0  0
  6 22  1  0  0  0  0
  7 11  2  0  0  0  0
  7 21  1  0  0  0  0
  8 12  2  0  0  0  0
  8 24  1  0  0  0  0
  9 26  1  0  0  0  0
 10 26  2  0  0  0  0
 11 27  1  0  0  0  0
 12 28  1  0  0  0  0
 13 14  2  0  0  0  0
 13 29  1  0  0  0  0
 14 30  1  0  0  0  0
 15 23  1  0  0  0  0
 15 27  2  0  0  0  0
 16 25  1  0  0  0  0
 16 28  2  0  0  0  0
 17 30  2  0  0  0  0
 17 31  1  0  0  0  0
 18 32  1  0  0  0  0
 19 32  1  0  0  0  0
 19 33  2  0  0  0  0
 19 34  1  0  0  0  0
 20 22  2  0  0  0  0
 20 40  1  0  0  0  0
 21 23  2  0  0  0  0
 21 41  1  0  0  0  0
 22 49  1  0  0  0  0
 23 42  1  0  0  0  0
 24 25  2  0  0  0  0
 24 65  1  0  0  0  0
 25 73  1  0  0  0  0
 26 84  1  0  0  0  0
 27 85  1  0  0  0  0
 28 86  1  0  0  0  0
 29 31  2  0  0  0  0
 29 84  1  0  0  0  0
 30 87  1  0  0  0  0
 31 88  1  0  0  0  0
 32 67  2  0  0  0  0
 33 68  1  0  0  0  0
 33 71  1  0  0  0  0
 34 72  1  0  0  0  0
 34 78  2  0  0  0  0
 35 50  1  0  0  0  0
 35 74  1  0  0  0  0
 35 79  2  0  0  0  0
 36 63  1  0  0  0  0
 36 69  1  0  0  0  0
 36 80  2  0  0  0  0
 37 58  1  0  0  0  0
 37 76  1  0  0  0  0
 37 81  2  0  0  0  0
 38 64  1  0  0  0  0
 38 75  1  0  0  0  0
 38 82  2  0  0  0  0
 39 70  1  0  0  0  0
 39 73  1  0  0  0  0
 39 83  2  0  0  0  0
 40 43  1  0  0  0  0
 41 50  1  0  0  0  0
 42 69  1  0  0  0  0
 43 45  1  0  0  0  0
 44 46  1  0  0  0  0
 44 47  1  0  0  0  0
 45 49  1  0  0  0  0
 46 51  1  0  0  0  0
 47 70  1  0  0  0  0
 48 51  1  0  0  0  0
 48 70  1  0  0  0  0
 49 74  1  0  0  0  0
 50 69  1  0  0  0  0
 51 68  1  0  0  0  0
 52 64  1  0  0  0  0
 53 66  1  0  0  0  0
 54 66  1  0  0  0  0
 55 66  1  0  0  0  0
 56 76  1  0  0  0  0
 57 77  1  0  0  0  0
 58 59  1  0  0  0  0
 59 61  1  0  0  0  0
 60 62  1  0  0  0  0
 60 76  1  0  0  0  0
 61 85  1  0  0  0  0
 62 86  1  0  0  0  0
 63 66  1  0  0  0  0
 63 75  1  0  0  0  0
 64 77  1  0  0  0  0
 65 89  1  0  0  0  0
 65 90  1  0  0  0  0
 65 91  1  0  0  0  0
 67 68  1  0  0  0  0
M  CHG  1  77   1
M  ISO  4  39 100  61 101  73 100  85 101
M  END
> <Batch ID>
0004

> <Smiles>
CNC(C)C(=O)NC(C(=O)N1Cc2cc([101O:1][101CH2:1]CCC(=O)N(C)CCOc3ccc(C(F)(F)F)c([100NH:0][100C:0](=O)N4CCCC(n5nc(-c6ccc(Oc7ccc(F)cc7F)cc6)c(C(N)=O)c5N)C4)c3)ccc2CC1C(=O)NC1CCCc2ccccc21)C(C)(C)C

> <Shape>
0.215

> <Color>
0.097

> <Negative vol penalty>
0.000

$$$$

  -OEChem-04052315243D

 84 92  0     1  0  0  0  0  0999 V2000
  -25.5654  -23.7195   28.5291 C   0  0  0  0  0  0  0  0  0  0  0  0
  -26.1398  -22.6534   27.8442 C   0  0  0  0  0  0  0  0  0  0  0  0
  -23.2864   -9.8009   19.9130 C   0  0  0  0  0  0  0  0  0  0  0  0
  -23.7373   -9.9419   22.2824 C   0  0  0  0  0  0  0  0  0  0  0  0
  -24.6551  -23.4768   29.5569 C   0  0  0  0  0  0  0  0  0  0  0  0
  -25.8050  -21.3441   28.1875 C   0  0  0  0  0  0  0  0  0  0  0  0
  -25.3182  -16.5552   24.4012 C   0  0  0  0  0  0  0  0  0  0  0  0
  -33.5975  -11.9598   24.7828 C   0  0  0  0  0  0  0  0  0  0  0  0
  -32.8120  -12.2740   23.6738 C   0  0  0  0  0  0  0  0  0  0  0  0
  -22.5598   -8.6286   20.1210 C   0  0  0  0  0  0  0  0  0  0  0  0
  -23.0107   -8.7695   22.4904 C   0  0  0  0  0  0  0  0  0  0  0  0
  -26.1932  -15.5169   24.0848 C   0  0  0  0  0  0  0  0  0  0  0  0
  -23.2127   -5.3542   20.6469 C   0  0  0  0  0  0  0  0  0  0  0  0
  -23.4409   -4.2882   19.7767 C   0  0  0  0  0  0  0  0  0  0  0  0
  -25.1020  -14.1096   25.7120 C   0  0  0  0  0  0  0  0  0  0  0  0
  -31.6870  -12.2802   26.2267 C   0  0  0  0  0  0  0  0  0  0  0  0
  -21.1188   -4.3344   19.1112 C   0  0  0  0  0  0  0  0  0  0  0  0
  -23.8752  -10.4576   20.9937 C   0  0  0  0  0  0  0  0  0  0  0  0
  -24.1351  -12.9875   20.7947 C   0  0  0  0  0  0  0  0  0  0  0  0
  -24.3016  -22.1640   29.9065 C   0  0  0  0  0  0  0  0  0  0  0  0
  -24.3339  -16.3818   25.3848 C   0  0  0  0  0  0  0  0  0  0  0  0
  -24.8901  -21.0836   29.2219 C   0  0  0  0  0  0  0  0  0  0  0  0
  -24.2142  -15.1464   26.0373 C   0  0  0  0  0  0  0  0  0  0  0  0
  -33.0350  -11.9629   26.0593 C   0  0  0  0  0  0  0  0  0  0  0  0
  -31.4641  -12.5913   23.8412 C   0  0  0  0  0  0  0  0  0  0  0  0
  -22.4219   -8.1129   21.4097 C   0  0  0  0  0  0  0  0  0  0  0  0
  -26.0870  -14.2948   24.7422 C   0  0  0  0  0  0  0  0  0  0  0  0
  -21.9375   -5.9103   20.7493 C   0  0  0  0  0  0  0  0  0  0  0  0
  -30.9016  -12.5944   25.1176 C   0  0  0  0  0  0  0  0  0  0  0  0
  -22.3939   -3.7783   19.0089 C   0  0  0  0  0  0  0  0  0  0  0  0
  -20.8906   -5.4004   19.9814 C   0  0  0  0  0  0  0  0  0  0  0  0
  -24.6264  -11.6683   20.7794 C   0  0  0  0  0  0  0  0  0  0  0  0
  -25.2367  -13.7671   20.5395 C   0  0  0  0  0  0  0  0  0  0  0  0
  -22.8022  -13.4654   21.0195 C   0  0  0  0  0  0  0  0  0  0  0  0
  -23.6966  -17.7439   28.1852 C   0  0  0  0  0  0  0  0  0  0  0  0
  -21.0439  -15.8821   28.0464 C   0  0  0  0  0  0  0  0  0  0  0  0
  -19.5278  -13.0868   26.8078 C   0  0  0  0  0  0  0  0  0  0  0  0
  -31.0970  -12.9517   21.3751 C   0  0  0  0  0  0  0  0  0  0  0  0
  -23.3489  -21.9504   31.0561 C   0  0  0  0  0  0  0  0  0  0  0  0
  -23.3806  -17.5029   25.6956 C   0  0  0  0  0  0  0  0  0  0  0  0
  -23.1616  -14.9025   27.0866 C   0  0  0  0  0  0  0  0  0  0  0  0
  -22.7634  -20.5416   31.1082 C   0  0  0  0  0  0  0  0  0  0  0  0
  -29.4635  -13.6559   18.2908 C   0  0  0  0  0  0  0  0  0  0  0  0
  -23.8614  -19.4998   30.9187 C   0  0  0  0  0  0  0  0  0  0  0  0
  -27.9921  -13.3520   18.5821 C   0  0  0  0  0  0  0  0  0  0  0  0
  -30.3965  -12.6807   19.0064 C   0  0  0  0  0  0  0  0  0  0  0  0
  -28.7033  -12.2533   20.7441 C   0  0  0  0  0  0  0  0  0  0  0  0
  -24.5335  -19.6496   29.5485 C   0  0  1  0  0  0  0  0  0  0  0  0
  -22.7471  -17.3826   27.0782 C   0  0  1  0  0  0  0  0  0  0  0  0
  -27.7271  -13.2493   20.0970 C   0  0  2  0  0  0  0  0  0  0  0  0
  -17.3698  -11.8096   26.9039 C   0  0  0  0  0  0  0  0  0  0  0  0
  -21.8009  -14.8152   30.8030 C   0  0  0  0  0  0  0  0  0  0  0  0
  -20.2069  -12.9208   30.4306 C   0  0  0  0  0  0  0  0  0  0  0  0
  -19.3607  -15.2666   30.4931 C   0  0  0  0  0  0  0  0  0  0  0  0
  -19.0622  -13.4279   23.9051 C   0  0  0  0  0  0  0  0  0  0  0  0
  -27.2552  -12.3588   25.4791 C   0  0  0  0  0  0  0  0  0  1  0  0
  -28.6566  -11.8225   25.2599 C   0  0  0  0  0  0  0  0  0  0  0  0
  -20.6951  -14.4831   28.4937 C   0  0  1  0  0  0  0  0  0  0  0  0
  -18.1659  -12.8780   26.1707 C   0  0  2  0  0  0  0  0  0  0  0  0
  -33.8751  -11.6269   27.2447 C   0  0  0  0  0  0  0  0  0  0  0  0
  -20.5371  -14.3763   30.0367 C   0  0  0  0  0  0  0  0  0  0  0  0
  -25.9380  -11.6093   20.5338 N   0  0  0  0  0  0  0  0  0  0  0  0
  -26.2802  -12.9012   20.3923 N   0  0  0  0  0  0  0  0  0  0  0  0
  -22.2572  -16.0317   27.3598 N   0  0  0  0  0  0  0  0  0  0  0  0
  -30.0897  -12.6391   20.4378 N   0  0  0  0  0  0  0  0  0  0  0  0
  -25.4050  -15.1020   20.4288 N   0  0  0  0  0  0  0  0  0  0  0  0
  -21.7894  -12.5288   21.2672 N   0  0  0  0  0  0  0  0  0  0  0  0
  -30.6798  -12.9105   22.7051 N   0  0  0  0  0  0  0  0  0  0  0  0
  -23.6965  -19.0868   28.5107 N   0  0  0  0  0  0  0  0  0  0  0  0
  -19.5043  -14.0996   27.7431 N   0  0  0  0  0  0  0  0  0  0  0  0
  -18.3180  -12.4578   24.7489 N   0  3  0  0  0  0  0  0  0  0  0  0
  -22.5146  -14.6859   20.9850 O   0  0  0  0  0  0  0  0  0  0  0  0
  -24.3779  -16.8688   28.7066 O   0  0  0  0  0  0  0  0  0  0  0  0
  -20.2651  -16.8070   28.2908 O   0  0  0  0  0  0  0  0  0  0  0  0
  -20.5131  -12.4158   26.5086 O   0  0  0  0  0  0  0  0  0  0  0  0
  -32.2379  -13.2617   21.0226 O   0  0  0  0  0  0  0  0  0  0  0  0
  -21.7128   -6.9691   21.6130 O   0  0  0  0  0  0  0  0  0  0  0  0
  -26.9402  -13.2799   24.4358 O   0  0  0  0  0  0  0  0  0  1  0  0
  -29.5799  -12.9037   25.3039 O   0  0  0  0  0  0  0  0  0  0  0  0
  -22.6136   -2.7557   18.1722 F   0  0  0  0  0  0  0  0  0  0  0  0
  -19.6637   -5.9313   20.0746 F   0  0  0  0  0  0  0  0  0  0  0  0
  -35.1730  -11.3378   26.9319 F   0  0  0  0  0  0  0  0  0  0  0  0
  -33.9468  -12.6322   28.1667 F   0  0  0  0  0  0  0  0  0  0  0  0
  -33.4117  -10.5384   27.9254 F   0  0  0  0  0  0  0  0  0  0  0  0
  1  2  1  0  0  0  0
  1  5  2  0  0  0  0
  2  6  2  0  0  0  0
  3 10  2  0  0  0  0
  3 18  1  0  0  0  0
  4 11  1  0  0  0  0
  4 18  2  0  0  0  0
  5 20  1  0  0  0  0
  6 22  1  0  0  0  0
  7 12  2  0  0  0  0
  7 21  1  0  0  0  0
  8  9  2  0  0  0  0
  8 24  1  0  0  0  0
  9 25  1  0  0  0  0
 10 26  1  0  0  0  0
 11 26  2  0  0  0  0
 12 27  1  0  0  0  0
 13 14  2  0  0  0  0
 13 28  1  0  0  0  0
 14 30  1  0  0  0  0
 15 23  1  0  0  0  0
 15 27  2  0  0  0  0
 16 24  2  0  0  0  0
 16 29  1  0  0  0  0
 17 30  2  0  0  0  0
 17 31  1  0  0  0  0
 18 32  1  0  0  0  0
 19 32  1  0  0  0  0
 19 33  2  0  0  0  0
 19 34  1  0  0  0  0
 20 22  2  0  0  0  0
 20 39  1  0  0  0  0
 21 23  2  0  0  0  0
 21 40  1  0  0  0  0
 22 48  1  0  0  0  0
 23 41  1  0  0  0  0
 24 60  1  0  0  0  0
 25 29  2  0  0  0  0
 25 68  1  0  0  0  0
 26 77  1  0  0  0  0
 27 78  1  0  0  0  0
 28 31  2  0  0  0  0
 28 77  1  0  0  0  0
 29 79  1  0  0  0  0
 30 80  1  0  0  0  0
 31 81  1  0  0  0  0
 32 62  2  0  0  0  0
 33 63  1  0  0  0  0
 33 66  1  0  0  0  0
 34 67  1  0  0  0  0
 34 72  2  0  0  0  0
 35 49  1  0  0  0  0
 35 69  1  0  0  0  0
 35 73  2  0  0  0  0
 36 58  1  0  0  0  0
 36 64  1  0  0  0  0
 36 74  2  0  0  0  0
 37 59  1  0  0  0  0
 37 70  1  0  0  0  0
 37 75  2  0  0  0  0
 38 65  1  0  0  0  0
 38 68  1  0  0  0  0
 38 76  2  0  0  0  0
 39 42  1  0  0  0  0
 40 49  1  0  0  0  0
 41 64  1  0  0  0  0
 42 44  1  0  0  0  0
 43 45  1  0  0  0  0
 43 46  1  0  0  0  0
 44 48  1  0  0  0  0
 45 50  1  0  0  0  0
 46 65  1  0  0  0  0
 47 50  1  0  0  0  0
 47 65  1  0  0  0  0
 48 69  1  0  0  0  0
 49 64  1  0  0  0  0
 50 63  1  0  0  0  0
 51 59  1  0  0  0  0
 52 61  1  0  0  0  0
 53 61  1  0  0  0  0
 54 61  1  0  0  0  0
 55 71  1  0  0  0  0
 56 57  1  0  0  0  0
 56 78  1  0  0  0  0
 57 79  1  0  0  0  0
 58 61  1  0  0  0  0
 58 70  1  0  0  0  0
 59 71  1  0  0  0  0
 60 82  1  0  0  0  0
 60 83  1  0  0  0  0
 60 84  1  0  0  0  0
 62 63  1  0  0  0  0
M  CHG  1  71   1
M  ISO  4  38 100  56 101  68 100  78 101
M  END
> <Batch ID>
0004

> <Smiles>
CNC(C)C(=O)NC(C(=O)N1Cc2cc([101O:1][101CH2:1]COc3cc(C(F)(F)F)ccc3[100NH:0][100C:0](=O)N3CCCC(n4nc(-c5ccc(Oc6ccc(F)cc6F)cc5)c(C(N)=O)c4N)C3)ccc2CC1C(=O)NC1CCCc2ccccc21)C(C)(C)C

> <Shape>
0.120

> <Color>
0.178

> <Negative vol penalty>
0.000

$$$$

  -OEChem-04052315243D

 74 81  0     1  0  0  0  0  0999 V2000
  -30.4399  -33.7265   24.7531 C   0  0  0  0  0  0  0  0  0  0  0  0
  -30.8552  -32.6196   24.0196 C   0  0  0  0  0  0  0  0  0  0  0  0
  -24.7392  -10.5888   23.2612 C   0  0  0  0  0  0  0  0  0  0  0  0
  -24.4865  -12.3726   24.8710 C   0  0  0  0  0  0  0  0  0  0  0  0
  -29.1567  -33.7591   25.2973 C   0  0  0  0  0  0  0  0  0  0  0  0
  -29.9877  -31.5443   23.8309 C   0  0  0  0  0  0  0  0  0  0  0  0
  -28.3188  -26.4931   19.0334 C   0  0  0  0  0  0  0  0  0  0  0  0
  -24.3436   -9.6622   24.2259 C   0  0  0  0  0  0  0  0  0  0  0  0
  -24.0909  -11.4460   25.8356 C   0  0  0  0  0  0  0  0  0  0  0  0
  -28.1571  -25.1117   18.9358 C   0  0  0  0  0  0  0  0  0  0  0  0
  -21.2946   -9.7249   26.6350 C   0  0  0  0  0  0  0  0  0  0  0  0
  -20.1862  -10.0422   27.4201 C   0  0  0  0  0  0  0  0  0  0  0  0
  -25.9361  -25.3128   19.8555 C   0  0  0  0  0  0  0  0  0  0  0  0
  -21.5557   -9.9120   29.4062 C   0  0  0  0  0  0  0  0  0  0  0  0
  -24.8106  -11.9440   23.5838 C   0  0  0  0  0  0  0  0  0  0  0  0
  -24.3916  -13.5975   21.6869 C   0  0  0  0  0  0  0  0  0  0  0  0
  -28.2697  -32.6878   25.1070 C   0  0  0  0  0  0  0  0  0  0  0  0
  -27.2927  -27.2948   19.5538 C   0  0  0  0  0  0  0  0  0  0  0  0
  -28.6919  -31.5621   24.3743 C   0  0  0  0  0  0  0  0  0  0  0  0
  -26.0863  -26.7043   19.9563 C   0  0  0  0  0  0  0  0  0  0  0  0
  -24.0195  -10.0908   25.5131 C   0  0  0  0  0  0  0  0  0  0  0  0
  -26.9667  -24.5210   19.3496 C   0  0  0  0  0  0  0  0  0  0  0  0
  -22.5336   -9.5011   27.2355 C   0  0  0  0  0  0  0  0  0  0  0  0
  -20.3168  -10.1357   28.8057 C   0  0  0  0  0  0  0  0  0  0  0  0
  -22.6641   -9.5947   28.6211 C   0  0  0  0  0  0  0  0  0  0  0  0
  -25.2197  -12.9016   22.5879 C   0  0  0  0  0  0  0  0  0  0  0  0
  -25.2559  -14.3781   20.9589 C   0  0  0  0  0  0  0  0  0  0  0  0
  -22.9683  -13.5433   21.5229 C   0  0  0  0  0  0  0  0  0  0  0  0
  -27.0058  -29.2198   22.0669 C   0  0  0  0  0  0  0  0  0  0  0  0
  -29.6268  -17.8647   20.7905 C   0  0  0  0  0  0  0  0  0  0  0  0
  -24.1313  -29.9001   20.7266 C   0  0  0  0  0  0  0  0  0  0  0  0
  -21.5851  -28.9183   18.6772 C   0  0  0  0  0  0  0  0  0  0  0  0
  -26.9089  -32.7482   25.7546 C   0  0  0  0  0  0  0  0  0  0  0  0
  -27.4727  -28.7863   19.6276 C   0  0  0  0  0  0  0  0  0  0  0  0
  -24.9464  -27.5229   20.5031 C   0  0  0  0  0  0  0  0  0  0  0  0
  -25.9209  -31.7296   25.1920 C   0  0  0  0  0  0  0  0  0  0  0  0
  -30.2990  -14.3466   20.6848 C   0  0  0  0  0  0  0  0  0  0  0  0
  -26.5741  -30.3553   25.0846 C   0  0  0  0  0  0  0  0  0  0  0  0
  -28.9789  -13.7155   21.1256 C   0  0  0  0  0  0  0  0  0  0  0  0
  -30.5601  -15.6612   21.4133 C   0  0  0  0  0  0  0  0  0  0  0  0
  -28.1332  -16.0290   21.7236 C   0  0  0  0  0  0  0  0  0  0  0  0
  -27.7713  -30.3868   24.1268 C   0  0  1  0  0  0  0  0  0  0  0  0
  -26.5562  -29.4487   20.6516 C   0  0  1  0  0  0  0  0  0  0  0  0
  -27.8160  -14.7143   20.9892 C   0  0  2  0  0  0  0  0  0  0  0  0
  -19.3538  -29.6698   17.8089 C   0  0  0  0  0  0  0  0  0  0  0  0
  -22.8567  -29.2096   23.4115 C   0  0  0  0  0  0  0  0  0  0  0  0
  -20.6479  -29.0511   22.2434 C   0  0  0  0  0  0  0  0  0  0  0  0
  -21.8845  -31.2172   22.2808 C   0  0  0  0  0  0  0  0  0  0  0  0
  -22.5365  -28.8913   15.8748 C   0  0  0  0  0  0  0  0  0  0  0  0
  -28.4077  -18.7449   20.6767 C   0  0  0  0  0  0  0  0  0  0  0  0
  -28.8085  -20.1099   20.1306 C   0  0  0  0  0  0  0  0  0  0  0  0
  -27.5941  -21.0185   19.9601 C   0  0  0  0  0  0  0  0  0  0  0  0
  -27.9800  -22.3696   19.3749 C   0  0  0  0  0  0  0  0  0  1  0  0
  -22.7387  -29.3272   20.8351 C   0  0  1  0  0  0  0  0  0  0  0  0
  -20.8541  -29.6425   17.5612 C   0  0  2  0  0  0  0  0  0  0  0  0
  -22.0540  -29.6853   22.1842 C   0  0  0  0  0  0  0  0  0  0  0  0
  -26.5110  -13.2125   22.4468 N   0  0  0  0  0  0  0  0  0  0  0  0
  -26.5008  -14.1123   21.4487 N   0  0  0  0  0  0  0  0  0  0  0  0
  -25.1731  -28.9764   20.5614 N   0  0  0  0  0  0  0  0  0  0  0  0
  -29.4234  -16.5738   21.2786 N   0  0  0  0  0  0  0  0  0  0  0  0
  -25.0650  -15.2589   19.9539 N   0  0  0  0  0  0  0  0  0  0  0  0
  -22.2320  -12.6880   22.3540 N   0  0  0  0  0  0  0  0  0  0  0  0
  -27.3190  -30.3782   22.7521 N   0  0  0  0  0  0  0  0  0  0  0  0
  -22.0143  -29.7894   19.6561 N   0  0  0  0  0  0  0  0  0  0  0  0
  -21.1026  -28.9678   16.2559 N   0  3  0  0  0  0  0  0  0  0  0  0
  -22.3689  -14.2206   20.6537 O   0  0  0  0  0  0  0  0  0  0  0  0
  -27.0629  -28.0769   22.5054 O   0  0  0  0  0  0  0  0  0  0  0  0
  -30.7259  -18.3119   20.4524 O   0  0  0  0  0  0  0  0  0  0  0  0
  -24.2881  -31.1225   20.7793 O   0  0  0  0  0  0  0  0  0  0  0  0
  -21.7551  -27.7011   18.6820 O   0  0  0  0  0  0  0  0  0  0  0  0
  -23.6332   -9.1870   26.4546 O   0  0  0  0  0  0  0  0  0  0  0  0
  -26.8066  -23.1729   19.2560 O   0  0  0  0  0  0  0  0  0  1  0  0
  -19.2526  -10.4420   29.5594 F   0  0  0  0  0  0  0  0  0  0  0  0
  -23.8521   -9.3820   29.2036 F   0  0  0  0  0  0  0  0  0  0  0  0
  1  2  1  0  0  0  0
  1  5  2  0  0  0  0
  2  6  2  0  0  0  0
  3  8  2  0  0  0  0
  3 15  1  0  0  0  0
  4  9  1  0  0  0  0
  4 15  2  0  0  0  0
  5 17  1  0  0  0  0
  6 19  1  0  0  0  0
  7 10  2  0  0  0  0
  7 18  1  0  0  0  0
  8 21  1  0  0  0  0
  9 21  2  0  0  0  0
 10 22  1  0  0  0  0
 11 12  2  0  0  0  0
 11 23  1  0  0  0  0
 12 24  1  0  0  0  0
 13 20  1  0  0  0  0
 13 22  2  0  0  0  0
 14 24  2  0  0  0  0
 14 25  1  0  0  0  0
 15 26  1  0  0  0  0
 16 26  1  0  0  0  0
 16 27  2  0  0  0  0
 16 28  1  0  0  0  0
 17 19  2  0  0  0  0
 17 33  1  0  0  0  0
 18 20  2  0  0  0  0
 18 34  1  0  0  0  0
 19 42  1  0  0  0  0
 20 35  1  0  0  0  0
 21 71  1  0  0  0  0
 22 72  1  0  0  0  0
 23 25  2  0  0  0  0
 23 71  1  0  0  0  0
 24 73  1  0  0  0  0
 25 74  1  0  0  0  0
 26 57  2  0  0  0  0
 27 58  1  0  0  0  0
 27 61  1  0  0  0  0
 28 62  1  0  0  0  0
 28 66  2  0  0  0  0
 29 43  1  0  0  0  0
 29 63  1  0  0  0  0
 29 67  2  0  0  0  0
 30 50  1  0  0  0  0
 30 60  1  0  0  0  0
 30 68  2  0  0  0  0
 31 54  1  0  0  0  0
 31 59  1  0  0  0  0
 31 69  2  0  0  0  0
 32 55  1  0  0  0  0
 32 64  1  0  0  0  0
 32 70  2  0  0  0  0
 33 36  1  0  0  0  0
 34 43  1  0  0  0  0
 35 59  1  0  0  0  0
 36 38  1  0  0  0  0
 37 39  1  0  0  0  0
 37 40  1  0  0  0  0
 38 42  1  0  0  0  0
 39 44  1  0  0  0  0
 40 60  1  0  0  0  0
 41 44  1  0  0  0  0
 41 60  1  0  0  0  0
 42 63  1  0  0  0  0
 43 59  1  0  0  0  0
 44 58  1  0  0  0  0
 45 55  1  0  0  0  0
 46 56  1  0  0  0  0
 47 56  1  0  0  0  0
 48 56  1  0  0  0  0
 49 65  1  0  0  0  0
 50 51  1  0  0  0  0
 51 52  1  0  0  0  0
 52 53  1  0  0  0  0
 53 72  1  0  0  0  0
 54 56  1  0  0  0  0
 54 64  1  0  0  0  0
 55 65  1  0  0  0  0
 57 58  1  0  0  0  0
M  CHG  1  65   1
M  ISO  4  30 100  50 100  53 101  72 101
M  END
> <Batch ID>
0004

> <Smiles>
CNC(C)C(=O)NC(C(=O)N1Cc2cc([101O:1][101CH2:1]CC[100CH2:0][100C:0](=O)N3CCCC(n4nc(-c5ccc(Oc6ccc(F)cc6F)cc5)c(C(N)=O)c4N)C3)ccc2CC1C(=O)NC1CCCc2ccccc21)C(C)(C)C

> <Shape>
0.240

> <Color>
0.099

> <Negative vol penalty>
0.000

$$$$

  -OEChem-04052315243D

 74 81  0     1  0  0  0  0  0999 V2000
  -28.2370  -24.4861   17.1417 C   0  0  0  0  0  0  0  0  0  0  0  0
  -27.0905  -25.1970   17.4776 C   0  0  0  0  0  0  0  0  0  0  0  0
  -23.9976  -17.2212   19.7044 C   0  0  0  0  0  0  0  0  0  0  0  0
  -21.6114  -17.5982   19.7372 C   0  0  0  0  0  0  0  0  0  0  0  0
  -29.3729  -24.5840   17.9426 C   0  0  0  0  0  0  0  0  0  0  0  0
  -27.0832  -26.0153   18.6078 C   0  0  0  0  0  0  0  0  0  0  0  0
  -23.1087  -28.8301   19.3032 C   0  0  0  0  0  0  0  0  0  0  0  0
  -23.7896  -15.8777   20.0166 C   0  0  0  0  0  0  0  0  0  0  0  0
  -21.4034  -16.2547   20.0494 C   0  0  0  0  0  0  0  0  0  0  0  0
  -21.8764  -28.3102   19.6969 C   0  0  0  0  0  0  0  0  0  0  0  0
  -23.8696  -12.2693   20.4498 C   0  0  0  0  0  0  0  0  0  0  0  0
  -24.5945  -11.3172   19.7332 C   0  0  0  0  0  0  0  0  0  0  0  0
  -22.2606  -29.1131   21.9389 C   0  0  0  0  0  0  0  0  0  0  0  0
  -23.5960  -12.1033   17.6784 C   0  0  0  0  0  0  0  0  0  0  0  0
  -22.9085  -18.0814   19.5647 C   0  0  0  0  0  0  0  0  0  0  0  0
  -23.1955  -20.0430   17.9592 C   0  0  0  0  0  0  0  0  0  0  0  0
  -29.3747  -25.3944   19.0898 C   0  0  0  0  0  0  0  0  0  0  0  0
  -23.9324  -29.4870   20.2287 C   0  0  0  0  0  0  0  0  0  0  0  0
  -28.2273  -26.1461   19.4155 C   0  0  0  0  0  0  0  0  0  0  0  0
  -23.5017  -29.6426   21.5540 C   0  0  0  0  0  0  0  0  0  0  0  0
  -22.4925  -15.3945   20.1891 C   0  0  0  0  0  0  0  0  0  0  0  0
  -21.4534  -28.4491   21.0155 C   0  0  0  0  0  0  0  0  0  0  0  0
  -23.0077  -13.1384   19.7807 C   0  0  0  0  0  0  0  0  0  0  0  0
  -24.4578  -11.2342   18.3475 C   0  0  0  0  0  0  0  0  0  0  0  0
  -22.8709  -13.0554   18.3951 C   0  0  0  0  0  0  0  0  0  0  0  0
  -23.1227  -19.4695   19.2428 C   0  0  0  0  0  0  0  0  0  0  0  0
  -23.4090  -21.3796   18.1920 C   0  0  0  0  0  0  0  0  0  0  0  0
  -23.0803  -19.4229   16.6716 C   0  0  0  0  0  0  0  0  0  0  0  0
  -26.8422  -28.9749   21.4010 C   0  0  0  0  0  0  0  0  0  0  0  0
  -26.3567  -31.8553   22.8116 C   0  0  0  0  0  0  0  0  0  0  0  0
  -24.1398  -34.1868   23.9501 C   0  0  0  0  0  0  0  0  0  0  0  0
  -22.1653  -24.9610   22.8264 C   0  0  0  0  0  0  0  0  0  0  0  0
  -30.6340  -25.4698   19.9166 C   0  0  0  0  0  0  0  0  0  0  0  0
  -25.2470  -30.0656   19.7819 C   0  0  0  0  0  0  0  0  0  0  0  0
  -24.3398  -30.3572   22.5814 C   0  0  0  0  0  0  0  0  0  0  0  0
  -30.3902  -26.0052   21.3238 C   0  0  0  0  0  0  0  0  0  0  0  0
  -25.3644  -24.3589   21.3844 C   0  0  0  0  0  0  0  0  0  0  0  0
  -29.5719  -27.2861   21.2580 C   0  0  0  0  0  0  0  0  0  0  0  0
  -25.1592  -23.0892   20.5562 C   0  0  0  0  0  0  0  0  0  0  0  0
  -24.5549  -24.3253   22.6788 C   0  0  0  0  0  0  0  0  0  0  0  0
  -22.9098  -22.7899   21.6739 C   0  0  0  0  0  0  0  0  0  0  0  0
  -28.1862  -27.0186   20.6570 C   0  0  1  0  0  0  0  0  0  0  0  0
  -26.2328  -30.2646   20.9290 C   0  0  1  0  0  0  0  0  0  0  0  0
  -23.6624  -22.8016   20.3323 C   0  0  2  0  0  0  0  0  0  0  0  0
  -24.0417  -36.4211   25.0884 C   0  0  0  0  0  0  0  0  0  0  0  0
  -27.0386  -30.5268   25.4724 C   0  0  0  0  0  0  0  0  0  0  0  0
  -26.0199  -32.4953   26.6367 C   0  0  0  0  0  0  0  0  0  0  0  0
  -28.0109  -32.8106   25.1672 C   0  0  0  0  0  0  0  0  0  0  0  0
  -22.7535  -35.4283   21.6488 C   0  0  0  0  0  0  0  0  0  0  0  0
  -18.9463  -25.9462   21.6711 C   0  0  0  0  0  0  0  0  0  0  0  0
  -19.7364  -25.4678   22.8817 C   0  0  0  0  0  0  0  0  0  0  0  0
  -19.7817  -26.7851   20.7116 C   0  0  0  0  0  0  0  0  0  1  0  0
  -25.7630  -32.3184   24.1200 C   0  0  1  0  0  0  0  0  0  0  0  0
  -24.0705  -35.6906   23.7549 C   0  0  2  0  0  0  0  0  0  0  0  0
  -26.6930  -32.0226   25.3304 C   0  0  0  0  0  0  0  0  0  0  0  0
  -23.2776  -20.3682   20.2186 N   0  0  0  0  0  0  0  0  0  0  0  0
  -23.4499  -21.5200   19.5480 N   0  0  0  0  0  0  0  0  0  0  0  0
  -25.6199  -30.9000   22.0973 N   0  0  0  0  0  0  0  0  0  0  0  0
  -23.1441  -24.0498   22.3967 N   0  0  0  0  0  0  0  0  0  0  0  0
  -23.5640  -22.4369   17.3670 N   0  0  0  0  0  0  0  0  0  0  0  0
  -22.8617  -18.0397   16.6133 N   0  0  0  0  0  0  0  0  0  0  0  0
  -27.5233  -28.2817   20.4185 N   0  0  0  0  0  0  0  0  0  0  0  0
  -25.4410  -33.7306   23.9450 N   0  0  0  0  0  0  0  0  0  0  0  0
  -20.8535  -24.6272   22.5125 N   0  0  0  0  0  0  0  0  0  0  0  0
  -22.8445  -36.0579   22.9913 N   0  3  0  0  0  0  0  0  0  0  0  0
  -23.1849  -20.0734   15.6042 O   0  0  0  0  0  0  0  0  0  0  0  0
  -26.7060  -28.6345   22.5703 O   0  0  0  0  0  0  0  0  0  0  0  0
  -27.4311  -32.3292   22.4336 O   0  0  0  0  0  0  0  0  0  0  0  0
  -23.1399  -33.4873   24.0965 O   0  0  0  0  0  0  0  0  0  0  0  0
  -22.4405  -25.9981   23.4394 O   0  0  0  0  0  0  0  0  0  0  0  0
  -22.2892  -14.0836   20.4935 O   0  0  0  0  0  0  0  0  0  0  0  0
  -20.2514  -27.9420   21.4025 O   0  0  0  0  0  0  0  0  0  1  0  0
  -25.1552  -10.3209   17.6593 F   0  0  0  0  0  0  0  0  0  0  0  0
  -22.0454  -13.8884   17.7467 F   0  0  0  0  0  0  0  0  0  0  0  0
  1  2  1  0  0  0  0
  1  5  2  0  0  0  0
  2  6  2  0  0  0  0
  3  8  2  0  0  0  0
  3 15  1  0  0  0  0
  4  9  1  0  0  0  0
  4 15  2  0  0  0  0
  5 17  1  0  0  0  0
  6 19  1  0  0  0  0
  7 10  2  0  0  0  0
  7 18  1  0  0  0  0
  8 21  1  0  0  0  0
  9 21  2  0  0  0  0
 10 22  1  0  0  0  0
 11 12  2  0  0  0  0
 11 23  1  0  0  0  0
 12 24  1  0  0  0  0
 13 20  1  0  0  0  0
 13 22  2  0  0  0  0
 14 24  2  0  0  0  0
 14 25  1  0  0  0  0
 15 26  1  0  0  0  0
 16 26  1  0  0  0  0
 16 27  2  0  0  0  0
 16 28  1  0  0  0  0
 17 19  2  0  0  0  0
 17 33  1  0  0  0  0
 18 20  2  0  0  0  0
 18 34  1  0  0  0  0
 19 42  1  0  0  0  0
 20 35  1  0  0  0  0
 21 71  1  0  0  0  0
 22 72  1  0  0  0  0
 23 25  2  0  0  0  0
 23 71  1  0  0  0  0
 24 73  1  0  0  0  0
 25 74  1  0  0  0  0
 26 56  2  0  0  0  0
 27 57  1  0  0  0  0
 27 60  1  0  0  0  0
 28 61  1  0  0  0  0
 28 66  2  0  0  0  0
 29 43  1  0  0  0  0
 29 62  1  0  0  0  0
 29 67  2  0  0  0  0
 30 53  1  0  0  0  0
 30 58  1  0  0  0  0
 30 68  2  0  0  0  0
 31 54  1  0  0  0  0
 31 63  1  0  0  0  0
 31 69  2  0  0  0  0
 32 59  1  0  0  0  0
 32 64  1  0  0  0  0
 32 70  2  0  0  0  0
 33 36  1  0  0  0  0
 34 43  1  0  0  0  0
 35 58  1  0  0  0  0
 36 38  1  0  0  0  0
 37 39  1  0  0  0  0
 37 40  1  0  0  0  0
 38 42  1  0  0  0  0
 39 44  1  0  0  0  0
 40 59  1  0  0  0  0
 41 44  1  0  0  0  0
 41 59  1  0  0  0  0
 42 62  1  0  0  0  0
 43 58  1  0  0  0  0
 44 57  1  0  0  0  0
 45 54  1  0  0  0  0
 46 55  1  0  0  0  0
 47 55  1  0  0  0  0
 48 55  1  0  0  0  0
 49 65  1  0  0  0  0
 50 51  1  0  0  0  0
 50 52  1  0  0  0  0
 51 64  1  0  0  0  0
 52 72  1  0  0  0  0
 53 55  1  0  0  0  0
 53 63  1  0  0  0  0
 54 65  1  0  0  0  0
 56 57  1  0  0  0  0
M  CHG  1  65   1
M  ISO  4  32 100  52 101  64 100  72 101
M  END
> <Batch ID>
0004

> <Smiles>
CNC(C)C(=O)NC(C(=O)N1Cc2cc([101O:1][101CH2:1]CC[100NH:0][100C:0](=O)N3CCCC(n4nc(-c5ccc(Oc6ccc(F)cc6F)cc5)c(C(N)=O)c4N)C3)ccc2CC1C(=O)NC1CCCc2ccccc21)C(C)(C)C

> <Shape>
0.222

> <Color>
0.068

> <Negative vol penalty>
0.000

$$$$

  -OEChem-04052315243D

 81 89  0     1  0  0  0  0  0999 V2000
  -16.4621  -29.9642   23.4180 C   0  0  0  0  0  0  0  0  0  0  0  0
  -17.5222  -30.7447   23.8680 C   0  0  0  0  0  0  0  0  0  0  0  0
  -32.3569  -33.0984   20.3905 C   0  0  0  0  0  0  0  0  0  0  0  0
  -30.5468  -20.9270   21.0392 C   0  0  0  0  0  0  0  0  0  0  0  0
  -29.7261  -20.7182   18.7765 C   0  0  0  0  0  0  0  0  0  0  0  0
  -16.7069  -28.7012   22.8806 C   0  0  0  0  0  0  0  0  0  0  0  0
  -18.8276  -30.2622   23.7818 C   0  0  0  0  0  0  0  0  0  0  0  0
  -25.5523  -32.5058   22.7521 C   0  0  0  0  0  0  0  0  0  0  0  0
  -31.9301  -33.1921   21.7151 C   0  0  0  0  0  0  0  0  0  0  0  0
  -32.3547  -31.8630   19.7427 C   0  0  0  0  0  0  0  0  0  0  0  0
  -30.7547  -19.5487   21.0910 C   0  0  0  0  0  0  0  0  0  0  0  0
  -29.9340  -19.3399   18.8283 C   0  0  0  0  0  0  0  0  0  0  0  0
  -26.8176  -32.4181   23.3311 C   0  0  0  0  0  0  0  0  0  0  0  0
  -33.0559  -17.3333   19.9824 C   0  0  0  0  0  0  0  0  0  0  0  0
  -34.2611  -16.8791   20.5180 C   0  0  0  0  0  0  0  0  0  0  0  0
  -27.1276  -30.2539   22.3117 C   0  0  0  0  0  0  0  0  0  0  0  0
  -31.4992  -30.8150   21.7444 C   0  0  0  0  0  0  0  0  0  0  0  0
  -33.0484  -15.6766   22.2270 C   0  0  0  0  0  0  0  0  0  0  0  0
  -30.0324  -21.5118   19.8820 C   0  0  0  0  0  0  0  0  0  0  0  0
  -28.9778  -23.7003   20.6603 C   0  0  0  0  0  0  0  0  0  0  0  0
  -18.0168  -28.2068   22.7790 C   0  0  0  0  0  0  0  0  0  0  0  0
  -25.0600  -31.4616   21.9561 C   0  0  0  0  0  0  0  0  0  0  0  0
  -19.0900  -28.9908   23.2438 C   0  0  0  0  0  0  0  0  0  0  0  0
  -25.8568  -30.3319   21.7216 C   0  0  0  0  0  0  0  0  0  0  0  0
  -31.5013  -32.0504   22.3921 C   0  0  0  0  0  0  0  0  0  0  0  0
  -31.9259  -30.7213   20.4197 C   0  0  0  0  0  0  0  0  0  0  0  0
  -30.4483  -18.7552   19.9856 C   0  0  0  0  0  0  0  0  0  0  0  0
  -27.6043  -31.2908   23.1133 C   0  0  0  0  0  0  0  0  0  0  0  0
  -31.8470  -16.9592   20.5691 C   0  0  0  0  0  0  0  0  0  0  0  0
  -34.2573  -16.0508   21.6403 C   0  0  0  0  0  0  0  0  0  0  0  0
  -31.8432  -16.1308   21.6913 C   0  0  0  0  0  0  0  0  0  0  0  0
  -29.8169  -22.9354   19.8281 C   0  0  0  0  0  0  0  0  0  0  0  0
  -29.1243  -24.9879   20.2054 C   0  0  0  0  0  0  0  0  0  0  0  0
  -28.1408  -23.2840   21.7475 C   0  0  0  0  0  0  0  0  0  0  0  0
  -22.5811  -29.4801   22.1369 C   0  0  0  0  0  0  0  0  0  0  0  0
  -23.5932  -28.5682   19.1930 C   0  0  0  0  0  0  0  0  0  0  0  0
  -26.1578  -28.3399   16.9530 C   0  0  0  0  0  0  0  0  0  0  0  0
  -32.3142  -29.2003   18.4494 C   0  0  0  0  0  0  0  0  0  0  0  0
  -18.2277  -26.8163   22.2343 C   0  0  0  0  0  0  0  0  0  0  0  0
  -23.7039  -31.5832   21.3168 C   0  0  0  0  0  0  0  0  0  0  0  0
  -25.3827  -29.1924   20.8584 C   0  0  0  0  0  0  0  0  0  0  0  0
  -19.6730  -26.5318   21.8339 C   0  0  0  0  0  0  0  0  0  0  0  0
  -31.3581  -26.7714   16.0279 C   0  0  0  0  0  0  0  0  0  0  0  0
  -20.6311  -26.9986   22.9252 C   0  0  0  0  0  0  0  0  0  0  0  0
  -30.8029  -25.6198   16.8692 C   0  0  0  0  0  0  0  0  0  0  0  0
  -32.5497  -27.4457   16.7056 C   0  0  0  0  0  0  0  0  0  0  0  0
  -31.7558  -26.7354   18.9270 C   0  0  0  0  0  0  0  0  0  0  0  0
  -20.5222  -28.5124   23.1444 C   0  0  1  0  0  0  0  0  0  0  0  0
  -23.0961  -30.2346   20.9438 C   0  0  1  0  0  0  0  0  0  0  0  0
  -30.5136  -26.0669   18.3156 C   0  0  2  0  0  0  0  0  0  0  0  0
  -27.3101  -27.8809   14.7715 C   0  0  0  0  0  0  0  0  0  0  0  0
  -23.6289  -25.6993   20.2314 C   0  0  0  0  0  0  0  0  0  0  0  0
  -25.0351  -25.0757   18.2560 C   0  0  0  0  0  0  0  0  0  0  0  0
  -22.7274  -25.9585   17.9131 C   0  0  0  0  0  0  0  0  0  0  0  0
  -25.6040  -31.0699   15.9531 C   0  0  0  0  0  0  0  0  0  0  0  0
  -29.5420  -32.4249   23.8977 C   0  0  0  0  0  0  0  0  0  1  0  0
  -24.5570  -27.5319   18.6673 C   0  0  1  0  0  0  0  0  0  0  0  0
  -26.2452  -28.7023   15.4815 C   0  0  2  0  0  0  0  0  0  0  0  0
  -31.0398  -32.1523   23.8248 C   0  0  0  0  0  0  0  0  0  0  0  0
  -23.9956  -26.0868   18.7848 C   0  0  0  0  0  0  0  0  0  0  0  0
  -30.4495  -23.6754   18.9136 N   0  0  0  0  0  0  0  0  0  0  0  0
  -30.0075  -24.9187   19.1684 N   0  0  0  0  0  0  0  0  0  0  0  0
  -24.0472  -29.3555   20.2607 N   0  0  0  0  0  0  0  0  0  0  0  0
  -32.2004  -27.8460   18.0704 N   0  0  0  0  0  0  0  0  0  0  0  0
  -28.5823  -26.1613   20.5951 N   0  0  0  0  0  0  0  0  0  0  0  0
  -26.8166  -22.9190   21.4694 N   0  0  0  0  0  0  0  0  0  0  0  0
  -31.9232  -29.4667   19.7612 N   0  0  0  0  0  0  0  0  0  0  0  0
  -21.2234  -29.2262   22.0988 N   0  0  0  0  0  0  0  0  0  0  0  0
  -24.8874  -27.9357   17.3049 N   0  0  0  0  0  0  0  0  0  0  0  0
  -26.5812  -30.1455   15.3225 N   0  3  0  0  0  0  0  0  0  0  0  0
  -28.5502  -23.2529   22.9328 O   0  0  0  0  0  0  0  0  0  0  0  0
  -23.3584  -29.1514   23.0254 O   0  0  0  0  0  0  0  0  0  0  0  0
  -22.4813  -28.6800   18.6707 O   0  0  0  0  0  0  0  0  0  0  0  0
  -27.1212  -28.4051   17.7134 O   0  0  0  0  0  0  0  0  0  0  0  0
  -32.7022  -30.0648   17.6595 O   0  0  0  0  0  0  0  0  0  0  0  0
  -30.6513  -17.4102   20.0356 O   0  0  0  0  0  0  0  0  0  0  0  0
  -28.8393  -31.2025   23.6778 O   0  0  0  0  0  0  0  0  0  1  0  0
  -35.4147  -15.6135   22.1536 F   0  0  0  0  0  0  0  0  0  0  0  0
  -30.6849  -15.7671   22.2586 F   0  0  0  0  0  0  0  0  0  0  0  0
  -31.2979  -31.0125   24.5309 F   0  0  0  0  0  0  0  0  0  0  0  0
  -31.6847  -33.1462   24.5035 F   0  0  0  0  0  0  0  0  0  0  0  0
  1  2  1  0  0  0  0
  1  6  2  0  0  0  0
  2  7  2  0  0  0  0
  3  9  2  0  0  0  0
  3 10  1  0  0  0  0
  4 11  2  0  0  0  0
  4 19  1  0  0  0  0
  5 12  1  0  0  0  0
  5 19  2  0  0  0  0
  6 21  1  0  0  0  0
  7 23  1  0  0  0  0
  8 13  2  0  0  0  0
  8 22  1  0  0  0  0
  9 25  1  0  0  0  0
 10 26  2  0  0  0  0
 11 27  1  0  0  0  0
 12 27  2  0  0  0  0
 13 28  1  0  0  0  0
 14 15  2  0  0  0  0
 14 29  1  0  0  0  0
 15 30  1  0  0  0  0
 16 24  1  0  0  0  0
 16 28  2  0  0  0  0
 17 25  2  0  0  0  0
 17 26  1  0  0  0  0
 18 30  2  0  0  0  0
 18 31  1  0  0  0  0
 19 32  1  0  0  0  0
 20 32  1  0  0  0  0
 20 33  2  0  0  0  0
 20 34  1  0  0  0  0
 21 23  2  0  0  0  0
 21 39  1  0  0  0  0
 22 24  2  0  0  0  0
 22 40  1  0  0  0  0
 23 48  1  0  0  0  0
 24 41  1  0  0  0  0
 25 59  1  0  0  0  0
 26 67  1  0  0  0  0
 27 76  1  0  0  0  0
 28 77  1  0  0  0  0
 29 31  2  0  0  0  0
 29 76  1  0  0  0  0
 30 78  1  0  0  0  0
 31 79  1  0  0  0  0
 32 61  2  0  0  0  0
 33 62  1  0  0  0  0
 33 65  1  0  0  0  0
 34 66  1  0  0  0  0
 34 71  2  0  0  0  0
 35 49  1  0  0  0  0
 35 68  1  0  0  0  0
 35 72  2  0  0  0  0
 36 57  1  0  0  0  0
 36 63  1  0  0  0  0
 36 73  2  0  0  0  0
 37 58  1  0  0  0  0
 37 69  1  0  0  0  0
 37 74  2  0  0  0  0
 38 64  1  0  0  0  0
 38 67  1  0  0  0  0
 38 75  2  0  0  0  0
 39 42  1  0  0  0  0
 40 49  1  0  0  0  0
 41 63  1  0  0  0  0
 42 44  1  0  0  0  0
 43 45  1  0  0  0  0
 43 46  1  0  0  0  0
 44 48  1  0  0  0  0
 45 50  1  0  0  0  0
 46 64  1  0  0  0  0
 47 50  1  0  0  0  0
 47 64  1  0  0  0  0
 48 68  1  0  0  0  0
 49 63  1  0  0  0  0
 50 62  1  0  0  0  0
 51 58  1  0  0  0  0
 52 60  1  0  0  0  0
 53 60  1  0  0  0  0
 54 60  1  0  0  0  0
 55 70  1  0  0  0  0
 56 59  1  0  0  0  0
 56 77  1  0  0  0  0
 57 60  1  0  0  0  0
 57 69  1  0  0  0  0
 58 70  1  0  0  0  0
 59 80  1  0  0  0  0
 59 81  1  0  0  0  0
 61 62  1  0  0  0  0
M  CHG  1  70   1
M  ISO  4  38 100  56 101  67 100  77 101
M  END
> <Batch ID>
0004

> <Smiles>
CNC(C)C(=O)NC(C(=O)N1Cc2cc([101O:1][101CH2:1]C(F)(F)c3cccc([100NH:0][100C:0](=O)N4CCCC(n5nc(-c6ccc(Oc7ccc(F)cc7F)cc6)c(C(N)=O)c5N)C4)c3)ccc2CC1C(=O)NC1CCCc2ccccc21)C(C)(C)C

> <Shape>
0.251

> <Color>
0.125

> <Negative vol penalty>
0.000

$$$$

  -OEChem-04052315243D

 83 91  0     1  0  0  0  0  0999 V2000
  -29.4653  -30.3472   26.8416 C   0  0  0  0  0  0  0  0  0  0  0  0
  -29.0626  -29.4277   25.8783 C   0  0  0  0  0  0  0  0  0  0  0  0
  -30.4577  -21.6560   22.8334 C   0  0  0  0  0  0  0  0  0  0  0  0
  -26.6386  -10.8681   20.9056 C   0  0  0  0  0  0  0  0  0  0  0  0
  -25.6153  -12.9057   20.1067 C   0  0  0  0  0  0  0  0  0  0  0  0
  -28.5369  -31.2293   27.3928 C   0  0  0  0  0  0  0  0  0  0  0  0
  -27.7309  -29.3891   25.4665 C   0  0  0  0  0  0  0  0  0  0  0  0
  -27.2622  -29.0396   20.4363 C   0  0  0  0  0  0  0  0  0  0  0  0
  -29.4518  -22.1856   22.0252 C   0  0  0  0  0  0  0  0  0  0  0  0
  -30.9057  -20.3515   22.6248 C   0  0  0  0  0  0  0  0  0  0  0  0
  -25.3899  -10.4025   21.3176 C   0  0  0  0  0  0  0  0  0  0  0  0
  -24.3666  -12.4401   20.5187 C   0  0  0  0  0  0  0  0  0  0  0  0
  -27.4682  -27.7855   19.8632 C   0  0  0  0  0  0  0  0  0  0  0  0
  -22.6592   -9.0048   19.8955 C   0  0  0  0  0  0  0  0  0  0  0  0
  -22.3268   -7.6848   19.5911 C   0  0  0  0  0  0  0  0  0  0  0  0
  -25.0816  -27.4576   19.7375 C   0  0  0  0  0  0  0  0  0  0  0  0
  -22.0876   -7.2019   21.9463 C   0  0  0  0  0  0  0  0  0  0  0  0
  -26.7512  -12.1197   20.3002 C   0  0  0  0  0  0  0  0  0  0  0  0
  -28.6465  -12.4130   18.6180 C   0  0  0  0  0  0  0  0  0  0  0  0
  -27.1951  -31.2080   26.9806 C   0  0  0  0  0  0  0  0  0  0  0  0
  -25.9623  -29.5084   20.6747 C   0  0  0  0  0  0  0  0  0  0  0  0
  -26.7834  -30.2709   26.0138 C   0  0  0  0  0  0  0  0  0  0  0  0
  -24.8618  -28.7191   20.3113 C   0  0  0  0  0  0  0  0  0  0  0  0
  -28.8937  -21.4107   21.0084 C   0  0  0  0  0  0  0  0  0  0  0  0
  -30.3476  -19.5767   21.6080 C   0  0  0  0  0  0  0  0  0  0  0  0
  -24.2540  -11.1885   21.1242 C   0  0  0  0  0  0  0  0  0  0  0  0
  -26.3779  -26.9930   19.5164 C   0  0  0  0  0  0  0  0  0  0  0  0
  -22.7059   -9.4234   21.2253 C   0  0  0  0  0  0  0  0  0  0  0  0
  -22.0410   -6.7834   20.6165 C   0  0  0  0  0  0  0  0  0  0  0  0
  -22.4201   -8.5219   22.2507 C   0  0  0  0  0  0  0  0  0  0  0  0
  -29.3416  -20.1063   20.7998 C   0  0  0  0  0  0  0  0  0  0  0  0
  -28.0409  -12.6014   19.8748 C   0  0  0  0  0  0  0  0  0  0  0  0
  -29.8540  -13.0598   18.7184 C   0  0  0  0  0  0  0  0  0  0  0  0
  -28.1610  -11.7159   17.4631 C   0  0  0  0  0  0  0  0  0  0  0  0
  -24.3149  -30.3331   23.2650 C   0  0  0  0  0  0  0  0  0  0  0  0
  -22.0895  -31.2379   21.0852 C   0  0  0  0  0  0  0  0  0  0  0  0
  -27.3139  -23.2244   20.2609 C   0  0  0  0  0  0  0  0  0  0  0  0
  -20.8054  -30.8941   17.9420 C   0  0  0  0  0  0  0  0  0  0  0  0
  -31.7952  -17.5778   22.1133 C   0  0  0  0  0  0  0  0  0  0  0  0
  -26.2182  -32.1493   27.6395 C   0  0  0  0  0  0  0  0  0  0  0  0
  -25.7567  -30.8748   21.2690 C   0  0  0  0  0  0  0  0  0  0  0  0
  -23.4459  -29.1849   20.5277 C   0  0  0  0  0  0  0  0  0  0  0  0
  -24.9040  -32.2952   26.8767 C   0  0  0  0  0  0  0  0  0  0  0  0
  -33.1806  -14.3029   21.9313 C   0  0  0  0  0  0  0  0  0  0  0  0
  -24.3722  -30.9268   26.4629 C   0  0  0  0  0  0  0  0  0  0  0  0
  -32.0773  -13.4791   21.2634 C   0  0  0  0  0  0  0  0  0  0  0  0
  -32.6077  -15.3571   22.8770 C   0  0  0  0  0  0  0  0  0  0  0  0
  -30.4929  -15.4165   21.6147 C   0  0  0  0  0  0  0  0  0  0  0  0
  -25.3529  -30.2149   25.5232 C   0  0  1  0  0  0  0  0  0  0  0  0
  -24.3958  -31.0361   21.9395 C   0  0  1  0  0  0  0  0  0  0  0  0
  -31.0189  -14.3847   20.6036 C   0  0  2  0  0  0  0  0  0  0  0  0
  -18.9620  -31.7393   16.4639 C   0  0  0  0  0  0  0  0  0  0  0  0
  -20.0857  -29.5025   22.5962 C   0  0  0  0  0  0  0  0  0  0  0  0
  -18.5831  -29.6189   20.5970 C   0  0  0  0  0  0  0  0  0  0  0  0
  -19.1857  -31.7048   21.8253 C   0  0  0  0  0  0  0  0  0  0  0  0
  -22.7270  -31.9844   15.9727 C   0  0  0  0  0  0  0  0  0  0  0  0
  -26.2420  -23.3961   19.1906 C   0  0  0  0  0  0  0  0  0  0  0  0
  -25.5892  -24.7699   19.2137 C   0  0  0  0  0  0  0  0  0  1  0  0
  -20.9295  -30.5598   20.3971 C   0  0  1  0  0  0  0  0  0  0  0  0
  -20.4079  -31.9223   16.8983 C   0  0  2  0  0  0  0  0  0  0  0  0
  -19.7226  -30.3366   21.3515 C   0  0  0  0  0  0  0  0  0  0  0  0
  -28.8010  -13.3120   20.7122 N   0  0  0  0  0  0  0  0  0  0  0  0
  -29.8967  -13.5758   19.9802 N   0  0  0  0  0  0  0  0  0  0  0  0
  -23.2967  -30.5255   21.1176 N   0  0  0  0  0  0  0  0  0  0  0  0
  -31.6155  -16.1800   22.1819 N   0  0  0  0  0  0  0  0  0  0  0  0
  -30.8729  -13.2317   17.8496 N   0  0  0  0  0  0  0  0  0  0  0  0
  -26.8998  -11.1082   17.5307 N   0  0  0  0  0  0  0  0  0  0  0  0
  -27.8734  -21.9514   20.1902 N   0  0  0  0  0  0  0  0  0  0  0  0
  -30.8052  -18.2520   21.3992 N   0  0  0  0  0  0  0  0  0  0  0  0
  -25.2547  -30.7572   24.1850 N   0  0  0  0  0  0  0  0  0  0  0  0
  -20.6214  -31.3694   19.2232 N   0  0  0  0  0  0  0  0  0  0  0  0
  -21.2789  -31.8024   15.6951 N   0  3  0  0  0  0  0  0  0  0  0  0
  -28.8328  -11.6203   16.4081 O   0  0  0  0  0  0  0  0  0  0  0  0
  -23.4621  -29.4709   23.4405 O   0  0  0  0  0  0  0  0  0  0  0  0
  -21.9324  -32.3614   21.5697 O   0  0  0  0  0  0  0  0  0  0  0  0
  -27.5999  -24.1204   21.0481 O   0  0  0  0  0  0  0  0  0  0  0  0
  -21.2327  -29.7794   17.6500 O   0  0  0  0  0  0  0  0  0  0  0  0
  -32.7710  -18.1325   22.6252 O   0  0  0  0  0  0  0  0  0  0  0  0
  -23.0354  -10.7344   21.5259 O   0  0  0  0  0  0  0  0  0  0  0  0
  -26.5762  -25.7682   18.9575 O   0  0  0  0  0  0  0  0  0  1  0  0
  -21.7202   -5.5162   20.3239 F   0  0  0  0  0  0  0  0  0  0  0  0
  -22.4622   -8.9185   23.5300 F   0  0  0  0  0  0  0  0  0  0  0  0
  -28.8040  -19.3606   19.8222 F   0  0  0  0  0  0  0  0  0  0  0  0
  1  2  1  0  0  0  0
  1  6  2  0  0  0  0
  2  7  2  0  0  0  0
  3  9  2  0  0  0  0
  3 10  1  0  0  0  0
  4 11  2  0  0  0  0
  4 18  1  0  0  0  0
  5 12  1  0  0  0  0
  5 18  2  0  0  0  0
  6 20  1  0  0  0  0
  7 22  1  0  0  0  0
  8 13  2  0  0  0  0
  8 21  1  0  0  0  0
  9 24  1  0  0  0  0
 10 25  2  0  0  0  0
 11 26  1  0  0  0  0
 12 26  2  0  0  0  0
 13 27  1  0  0  0  0
 14 15  2  0  0  0  0
 14 28  1  0  0  0  0
 15 29  1  0  0  0  0
 16 23  1  0  0  0  0
 16 27  2  0  0  0  0
 17 29  2  0  0  0  0
 17 30  1  0  0  0  0
 18 32  1  0  0  0  0
 19 32  1  0  0  0  0
 19 33  2  0  0  0  0
 19 34  1  0  0  0  0
 20 22  2  0  0  0  0
 20 40  1  0  0  0  0
 21 23  2  0  0  0  0
 21 41  1  0  0  0  0
 22 49  1  0  0  0  0
 23 42  1  0  0  0  0
 24 31  2  0  0  0  0
 24 68  1  0  0  0  0
 25 31  1  0  0  0  0
 25 69  1  0  0  0  0
 26 79  1  0  0  0  0
 27 80  1  0  0  0  0
 28 30  2  0  0  0  0
 28 79  1  0  0  0  0
 29 81  1  0  0  0  0
 30 82  1  0  0  0  0
 31 83  1  0  0  0  0
 32 62  2  0  0  0  0
 33 63  1  0  0  0  0
 33 66  1  0  0  0  0
 34 67  1  0  0  0  0
 34 73  2  0  0  0  0
 35 50  1  0  0  0  0
 35 70  1  0  0  0  0
 35 74  2  0  0  0  0
 36 59  1  0  0  0  0
 36 64  1  0  0  0  0
 36 75  2  0  0  0  0
 37 57  1  0  0  0  0
 37 68  1  0  0  0  0
 37 76  2  0  0  0  0
 38 60  1  0  0  0  0
 38 71  1  0  0  0  0
 38 77  2  0  0  0  0
 39 65  1  0  0  0  0
 39 69  1  0  0  0  0
 39 78  2  0  0  0  0
 40 43  1  0  0  0  0
 41 50  1  0  0  0  0
 42 64  1  0  0  0  0
 43 45  1  0  0  0  0
 44 46  1  0  0  0  0
 44 47  1  0  0  0  0
 45 49  1  0  0  0  0
 46 51  1  0  0  0  0
 47 65  1  0  0  0  0
 48 51  1  0  0  0  0
 48 65  1  0  0  0  0
 49 70  1  0  0  0  0
 50 64  1  0  0  0  0
 51 63  1  0  0  0  0
 52 60  1  0  0  0  0
 53 61  1  0  0  0  0
 54 61  1  0  0  0  0
 55 61  1  0  0  0  0
 56 72  1  0  0  0  0
 57 58  1  0  0  0  0
 58 80  1  0  0  0  0
 59 61  1  0  0  0  0
 59 71  1  0  0  0  0
 60 72  1  0  0  0  0
 62 63  1  0  0  0  0
M  CHG  1  72   1
M  ISO  4  39 100  58 101  69 100  80 101
M  END
> <Batch ID>
0004

> <Smiles>
CNC(C)C(=O)NC(C(=O)N1Cc2cc([101O:1][101CH2:1]CC(=O)Nc3cccc([100NH:0][100C:0](=O)N4CCCC(n5nc(-c6ccc(Oc7ccc(F)cc7F)cc6)c(C(N)=O)c5N)C4)c3F)ccc2CC1C(=O)NC1CCCc2ccccc21)C(C)(C)C

> <Shape>
0.317

> <Color>
0.078

> <Negative vol penalty>
0.000

$$$$

  -OEChem-04052315243D

 84 92  0     1  0  0  0  0  0999 V2000
  -30.8275  -28.3669   18.4800 C   0  0  0  0  0  0  0  0  0  0  0  0
  -31.0018  -27.4922   19.5477 C   0  0  0  0  0  0  0  0  0  0  0  0
  -32.6519  -17.4883   23.4594 C   0  0  0  0  0  0  0  0  0  0  0  0
  -23.0751   -9.8682   19.9394 C   0  0  0  0  0  0  0  0  0  0  0  0
  -23.8348   -9.8732   22.2329 C   0  0  0  0  0  0  0  0  0  0  0  0
  -31.8539  -18.3545   24.2066 C   0  0  0  0  0  0  0  0  0  0  0  0
  -31.9301  -28.7868   17.7372 C   0  0  0  0  0  0  0  0  0  0  0  0
  -32.2789  -27.0360   19.8725 C   0  0  0  0  0  0  0  0  0  0  0  0
  -33.1825  -27.1731   24.8534 C   0  0  0  0  0  0  0  0  0  0  0  0
  -32.0642  -16.6047   22.5540 C   0  0  0  0  0  0  0  0  0  0  0  0
  -22.3308   -8.7151   20.1884 C   0  0  0  0  0  0  0  0  0  0  0  0
  -23.0904   -8.7201   22.4819 C   0  0  0  0  0  0  0  0  0  0  0  0
  -32.6295  -26.1552   25.6291 C   0  0  0  0  0  0  0  0  0  0  0  0
  -19.8620   -7.9229   23.0835 C   0  0  0  0  0  0  0  0  0  0  0  0
  -19.1049   -7.8823   24.2543 C   0  0  0  0  0  0  0  0  0  0  0  0
  -29.8804  -17.4537   23.1433 C   0  0  0  0  0  0  0  0  0  0  0  0
  -34.7587  -25.0215   25.6486 C   0  0  0  0  0  0  0  0  0  0  0  0
  -20.3456   -5.9439   24.9894 C   0  0  0  0  0  0  0  0  0  0  0  0
  -23.8271  -10.4473   20.9616 C   0  0  0  0  0  0  0  0  0  0  0  0
  -30.4682  -18.3372   24.0486 C   0  0  0  0  0  0  0  0  0  0  0  0
  -24.1698  -12.9724   20.8436 C   0  0  0  0  0  0  0  0  0  0  0  0
  -33.2225  -28.3431   18.0590 C   0  0  0  0  0  0  0  0  0  0  0  0
  -34.5273  -27.1173   24.4596 C   0  0  0  0  0  0  0  0  0  0  0  0
  -33.3997  -27.4492   19.1324 C   0  0  0  0  0  0  0  0  0  0  0  0
  -35.3271  -26.0412   24.8701 C   0  0  0  0  0  0  0  0  0  0  0  0
  -30.6784  -16.5874   22.3960 C   0  0  0  0  0  0  0  0  0  0  0  0
  -22.3385   -8.1411   21.4596 C   0  0  0  0  0  0  0  0  0  0  0  0
  -33.4168  -25.0777   26.0244 C   0  0  0  0  0  0  0  0  0  0  0  0
  -20.8608   -6.9739   22.8656 C   0  0  0  0  0  0  0  0  0  0  0  0
  -19.3467   -6.8928   25.2072 C   0  0  0  0  0  0  0  0  0  0  0  0
  -21.1026   -5.9845   23.8185 C   0  0  0  0  0  0  0  0  0  0  0  0
  -24.5966  -11.6381   20.7049 C   0  0  0  0  0  0  0  0  0  0  0  0
  -25.2622  -13.7218   20.4810 C   0  0  0  0  0  0  0  0  0  0  0  0
  -29.6195  -19.2605   24.8451 C   0  0  0  0  0  0  0  0  0  0  0  0
  -22.8994  -13.4883   21.2628 C   0  0  0  0  0  0  0  0  0  0  0  0
  -36.0436  -26.9751   21.6696 C   0  0  0  0  0  0  0  0  0  0  0  0
  -38.6818  -27.2969   23.5294 C   0  0  0  0  0  0  0  0  0  0  0  0
  -40.1284  -26.9153   26.5967 C   0  0  0  0  0  0  0  0  0  0  0  0
  -30.7287  -14.7654   20.6570 C   0  0  0  0  0  0  0  0  0  0  0  0
  -34.3780  -28.7872   17.1975 C   0  0  0  0  0  0  0  0  0  0  0  0
  -35.1157  -28.2367   23.6453 C   0  0  0  0  0  0  0  0  0  0  0  0
  -36.7815  -25.9443   24.4909 C   0  0  0  0  0  0  0  0  0  0  0  0
  -35.7425  -28.5520   17.8402 C   0  0  0  0  0  0  0  0  0  0  0  0
  -29.6138  -12.3538   18.2868 C   0  0  0  0  0  0  0  0  0  0  0  0
  -35.8203  -27.1469   18.4288 C   0  0  0  0  0  0  0  0  0  0  0  0
  -28.1740  -12.0624   18.7160 C   0  0  0  0  0  0  0  0  0  0  0  0
  -30.5288  -12.5814   19.4887 C   0  0  0  0  0  0  0  0  0  0  0  0
  -28.6220  -13.3054   20.8703 C   0  0  0  0  0  0  0  0  0  0  0  0
  -34.7721  -26.9517   19.5310 C   0  0  1  0  0  0  0  0  0  0  0  0
  -36.3621  -27.8205   22.8702 C   0  0  1  0  0  0  0  0  0  0  0  0
  -27.6492  -13.1334   19.6923 C   0  0  2  0  0  0  0  0  0  0  0  0
  -42.3083  -27.2297   27.7995 C   0  0  0  0  0  0  0  0  0  0  0  0
  -39.7835  -24.7903   22.1829 C   0  0  0  0  0  0  0  0  0  0  0  0
  -41.4577  -24.6151   24.0362 C   0  0  0  0  0  0  0  0  0  0  0  0
  -41.4637  -26.6086   22.5367 C   0  0  0  0  0  0  0  0  0  0  0  0
  -38.9369  -28.8520   28.4910 C   0  0  0  0  0  0  0  0  0  0  0  0
  -29.7269  -22.0089   26.7107 C   0  0  0  0  0  0  0  0  0  0  0  0
  -31.2055  -22.3461   26.9054 C   0  0  0  0  0  0  0  0  0  0  0  0
  -29.4252  -20.5353   26.9648 C   0  0  0  0  0  0  0  0  0  0  0  0
  -31.4889  -23.8129   26.6069 C   0  0  0  0  0  0  0  0  0  1  0  0
  -39.6128  -26.3433   24.2384 C   0  0  1  0  0  0  0  0  0  0  0  0
  -40.9713  -27.8574   27.4371 C   0  0  2  0  0  0  0  0  0  0  0  0
  -40.5515  -25.5899   23.2542 C   0  0  0  0  0  0  0  0  0  0  0  0
  -25.8615  -11.5421   20.2866 N   0  0  0  0  0  0  0  0  0  0  0  0
  -26.2388  -12.8257   20.1593 N   0  0  0  0  0  0  0  0  0  0  0  0
  -37.3090  -27.0604   23.6886 N   0  0  0  0  0  0  0  0  0  0  0  0
  -29.9701  -13.6117   20.3668 N   0  0  0  0  0  0  0  0  0  0  0  0
  -25.4731  -15.0532   20.4090 N   0  0  0  0  0  0  0  0  0  0  0  0
  -21.8872  -12.5792   21.5993 N   0  0  0  0  0  0  0  0  0  0  0  0
  -30.0816  -15.6901   21.4761 N   0  0  0  0  0  0  0  0  0  0  0  0
  -30.1371  -19.6642   26.0705 N   0  0  0  0  0  0  0  0  0  0  0  0
  -35.2044  -27.5864   20.7577 N   0  0  0  0  0  0  0  0  0  0  0  0
  -40.3130  -27.1308   25.2473 N   0  0  0  0  0  0  0  0  0  0  0  0
  -40.2580  -28.2050   28.6986 N   0  3  0  0  0  0  0  0  0  0  0  0
  -28.5232  -19.5974   24.4056 O   0  0  0  0  0  0  0  0  0  0  0  0
  -22.6636  -14.7189   21.3210 O   0  0  0  0  0  0  0  0  0  0  0  0
  -36.5248  -25.8519   21.5767 O   0  0  0  0  0  0  0  0  0  0  0  0
  -39.1550  -28.2221   22.8647 O   0  0  0  0  0  0  0  0  0  0  0  0
  -39.3837  -26.0699   27.0880 O   0  0  0  0  0  0  0  0  0  0  0  0
  -31.8579  -14.9341   20.1896 O   0  0  0  0  0  0  0  0  0  0  0  0
  -21.6121   -7.0160   21.7030 O   0  0  0  0  0  0  0  0  0  0  0  0
  -32.8793  -24.0825   26.7810 O   0  0  0  0  0  0  0  0  0  1  0  0
  -18.6206   -6.8549   26.3322 F   0  0  0  0  0  0  0  0  0  0  0  0
  -22.0617   -5.0708   23.6153 F   0  0  0  0  0  0  0  0  0  0  0  0
  1  2  1  0  0  0  0
  1  7  2  0  0  0  0
  2  8  2  0  0  0  0
  3  6  2  0  0  0  0
  3 10  1  0  0  0  0
  4 11  2  0  0  0  0
  4 19  1  0  0  0  0
  5 12  1  0  0  0  0
  5 19  2  0  0  0  0
  6 20  1  0  0  0  0
  7 22  1  0  0  0  0
  8 24  1  0  0  0  0
  9 13  2  0  0  0  0
  9 23  1  0  0  0  0
 10 26  2  0  0  0  0
 11 27  1  0  0  0  0
 12 27  2  0  0  0  0
 13 28  1  0  0  0  0
 14 15  2  0  0  0  0
 14 29  1  0  0  0  0
 15 30  1  0  0  0  0
 16 20  2  0  0  0  0
 16 26  1  0  0  0  0
 17 25  1  0  0  0  0
 17 28  2  0  0  0  0
 18 30  2  0  0  0  0
 18 31  1  0  0  0  0
 19 32  1  0  0  0  0
 20 34  1  0  0  0  0
 21 32  1  0  0  0  0
 21 33  2  0  0  0  0
 21 35  1  0  0  0  0
 22 24  2  0  0  0  0
 22 40  1  0  0  0  0
 23 25  2  0  0  0  0
 23 41  1  0  0  0  0
 24 49  1  0  0  0  0
 25 42  1  0  0  0  0
 26 70  1  0  0  0  0
 27 81  1  0  0  0  0
 28 82  1  0  0  0  0
 29 31  2  0  0  0  0
 29 81  1  0  0  0  0
 30 83  1  0  0  0  0
 31 84  1  0  0  0  0
 32 64  2  0  0  0  0
 33 65  1  0  0  0  0
 33 68  1  0  0  0  0
 34 71  1  0  0  0  0
 34 75  2  0  0  0  0
 35 69  1  0  0  0  0
 35 76  2  0  0  0  0
 36 50  1  0  0  0  0
 36 72  1  0  0  0  0
 36 77  2  0  0  0  0
 37 61  1  0  0  0  0
 37 66  1  0  0  0  0
 37 78  2  0  0  0  0
 38 62  1  0  0  0  0
 38 73  1  0  0  0  0
 38 79  2  0  0  0  0
 39 67  1  0  0  0  0
 39 70  1  0  0  0  0
 39 80  2  0  0  0  0
 40 43  1  0  0  0  0
 41 50  1  0  0  0  0
 42 66  1  0  0  0  0
 43 45  1  0  0  0  0
 44 46  1  0  0  0  0
 44 47  1  0  0  0  0
 45 49  1  0  0  0  0
 46 51  1  0  0  0  0
 47 67  1  0  0  0  0
 48 51  1  0  0  0  0
 48 67  1  0  0  0  0
 49 72  1  0  0  0  0
 50 66  1  0  0  0  0
 51 65  1  0  0  0  0
 52 62  1  0  0  0  0
 53 63  1  0  0  0  0
 54 63  1  0  0  0  0
 55 63  1  0  0  0  0
 56 74  1  0  0  0  0
 57 58  1  0  0  0  0
 57 59  1  0  0  0  0
 58 60  1  0  0  0  0
 59 71  1  0  0  0  0
 60 82  1  0  0  0  0
 61 63  1  0  0  0  0
 61 73  1  0  0  0  0
 62 74  1  0  0  0  0
 64 65  1  0  0  0  0
M  CHG  1  74   1
M  ISO  4  39 100  60 101  70 100  82 101
M  END
> <Batch ID>
0004

> <Smiles>
CNC(C)C(=O)NC(C(=O)N1Cc2cc([101O:1][101CH2:1]CCCNC(=O)c3cccc([100NH:0][100C:0](=O)N4CCCC(n5nc(-c6ccc(Oc7ccc(F)cc7F)cc6)c(C(N)=O)c5N)C4)c3)ccc2CC1C(=O)NC1CCCc2ccccc21)C(C)(C)C

> <Shape>
0.179

> <Color>
0.192

> <Negative vol penalty>
0.000

$$$$

  -OEChem-04052315243D

 78 86  0     1  0  0  0  0  0999 V2000
  -19.8111  -30.5728   25.1426 C   0  0  0  0  0  0  0  0  0  0  0  0
  -20.6365  -29.5511   25.6012 C   0  0  0  0  0  0  0  0  0  0  0  0
  -24.1435  -15.0093   25.3053 C   0  0  0  0  0  0  0  0  0  0  0  0
  -24.5124  -14.2463   24.1975 C   0  0  0  0  0  0  0  0  0  0  0  0
  -30.1948  -23.5483   19.4191 C   0  0  0  0  0  0  0  0  0  0  0  0
  -28.7893  -23.6793   21.3798 C   0  0  0  0  0  0  0  0  0  0  0  0
  -18.8942  -30.3218   24.1226 C   0  0  0  0  0  0  0  0  0  0  0  0
  -20.5447  -28.2776   25.0408 C   0  0  0  0  0  0  0  0  0  0  0  0
  -24.5796  -22.5796   23.4376 C   0  0  0  0  0  0  0  0  0  0  0  0
  -24.2205  -16.4010   25.2507 C   0  0  0  0  0  0  0  0  0  0  0  0
  -24.9584  -14.8750   23.0350 C   0  0  0  0  0  0  0  0  0  0  0  0
  -29.9468  -24.8945   19.1513 C   0  0  0  0  0  0  0  0  0  0  0  0
  -28.5412  -25.0256   21.1120 C   0  0  0  0  0  0  0  0  0  0  0  0
  -24.6209  -21.1998   23.6329 C   0  0  0  0  0  0  0  0  0  0  0  0
  -26.5793  -26.8320   19.0339 C   0  0  0  0  0  0  0  0  0  0  0  0
  -25.2625  -27.2809   19.1345 C   0  0  0  0  0  0  0  0  0  0  0  0
  -23.0552  -20.9027   21.8219 C   0  0  0  0  0  0  0  0  0  0  0  0
  -25.9289  -28.8521   20.8446 C   0  0  0  0  0  0  0  0  0  0  0  0
  -29.6160  -22.9407   20.5334 C   0  0  0  0  0  0  0  0  0  0  0  0
  -30.9129  -21.0162   21.5928 C   0  0  0  0  0  0  0  0  0  0  0  0
  -18.7979  -29.0470   23.5428 C   0  0  0  0  0  0  0  0  0  0  0  0
  -23.7661  -23.1331   22.4384 C   0  0  0  0  0  0  0  0  0  0  0  0
  -19.6248  -28.0090   24.0131 C   0  0  0  0  0  0  0  0  0  0  0  0
  -23.0073  -22.2897   21.6143 C   0  0  0  0  0  0  0  0  0  0  0  0
  -24.6665  -17.0297   24.0882 C   0  0  0  0  0  0  0  0  0  0  0  0
  -25.0355  -16.2667   22.9803 C   0  0  0  0  0  0  0  0  0  0  0  0
  -29.1200  -25.6332   19.9978 C   0  0  0  0  0  0  0  0  0  0  0  0
  -23.8564  -20.3613   22.8269 C   0  0  0  0  0  0  0  0  0  0  0  0
  -27.5709  -27.3931   19.8386 C   0  0  0  0  0  0  0  0  0  0  0  0
  -24.9373  -28.2909   20.0399 C   0  0  0  0  0  0  0  0  0  0  0  0
  -27.2457  -28.4032   20.7439 C   0  0  0  0  0  0  0  0  0  0  0  0
  -29.8714  -21.5499   20.8102 C   0  0  0  0  0  0  0  0  0  0  0  0
  -30.7172  -19.6576   21.5443 C   0  0  0  0  0  0  0  0  0  0  0  0
  -31.9632  -21.6885   22.3003 C   0  0  0  0  0  0  0  0  0  0  0  0
  -21.2902  -25.1263   22.4101 C   0  0  0  0  0  0  0  0  0  0  0  0
  -21.6688  -24.9318   19.1944 C   0  0  0  0  0  0  0  0  0  0  0  0
  -22.8224  -23.1609   16.5148 C   0  0  0  0  0  0  0  0  0  0  0  0
  -25.8918  -16.2591   20.6111 C   0  0  0  0  0  0  0  0  0  0  0  0
  -17.7587  -28.8117   22.4754 C   0  0  0  0  0  0  0  0  0  0  0  0
  -23.7532  -24.6216   22.2230 C   0  0  0  0  0  0  0  0  0  0  0  0
  -22.1332  -22.8324   20.5144 C   0  0  0  0  0  0  0  0  0  0  0  0
  -17.9847  -27.5301   21.6773 C   0  0  0  0  0  0  0  0  0  0  0  0
  -28.9121  -16.2324   18.7258 C   0  0  0  0  0  0  0  0  0  0  0  0
  -18.2891  -26.3649   22.6135 C   0  0  0  0  0  0  0  0  0  0  0  0
  -29.5985  -17.5415   19.1222 C   0  0  0  0  0  0  0  0  0  0  0  0
  -27.3953  -16.3915   18.6371 C   0  0  0  0  0  0  0  0  0  0  0  0
  -27.4465  -18.2720   20.2278 C   0  0  0  0  0  0  0  0  0  0  0  0
  -19.5722  -26.6206   23.4134 C   0  0  1  0  0  0  0  0  0  0  0  0
  -22.4952  -25.1117   21.5126 C   0  0  1  0  0  0  0  0  0  0  0  0
  -28.9697  -18.1451   20.3934 C   0  0  2  0  0  0  0  0  0  0  0  0
  -22.9529  -23.2397   14.0100 C   0  0  0  0  0  0  0  0  0  0  0  0
  -18.7199  -24.1681   19.0191 C   0  0  0  0  0  0  0  0  0  0  0  0
  -19.1418  -23.3510   16.6904 C   0  0  0  0  0  0  0  0  0  0  0  0
  -19.4931  -25.7566   17.2490 C   0  0  0  0  0  0  0  0  0  0  0  0
  -25.7816  -23.1410   16.5526 C   0  0  0  0  0  0  0  0  0  0  0  0
  -24.7392  -18.5281   24.0581 C   0  0  0  0  0  0  0  0  0  1  0  0
  -21.1316  -24.0329   18.1071 C   0  0  1  0  0  0  0  0  0  0  0  0
  -23.6556  -23.5765   15.3159 C   0  0  2  0  0  0  0  0  0  0  0  0
  -19.6365  -24.3167   17.7883 C   0  0  0  0  0  0  0  0  0  0  0  0
  -29.0734  -20.6073   20.3018 N   0  0  0  0  0  0  0  0  0  0  0  0
  -29.6136  -19.4675   20.7657 N   0  0  0  0  0  0  0  0  0  0  0  0
  -22.1497  -24.2951   20.3473 N   0  0  0  0  0  0  0  0  0  0  0  0
  -26.8695  -16.9645   19.8781 N   0  0  0  0  0  0  0  0  0  0  0  0
  -31.3832  -18.6190   22.0921 N   0  0  0  0  0  0  0  0  0  0  0  0
  -32.0172  -23.0879   22.2445 N   0  0  0  0  0  0  0  0  0  0  0  0
  -25.4913  -16.8864   21.7904 N   0  0  0  0  0  0  0  0  0  0  0  0
  -20.7376  -26.3800   22.5897 N   0  0  0  0  0  0  0  0  0  0  0  0
  -22.0265  -24.1925   16.9661 N   0  0  0  0  0  0  0  0  0  0  0  0
  -24.9729  -22.8798   15.3341 N   0  3  0  0  0  0  0  0  0  0  0  0
  -32.8379  -21.0657   22.9488 O   0  0  0  0  0  0  0  0  0  0  0  0
  -20.8905  -24.0775   22.9020 O   0  0  0  0  0  0  0  0  0  0  0  0
  -21.6686  -26.1535   19.0240 O   0  0  0  0  0  0  0  0  0  0  0  0
  -22.8697  -22.0327   17.0000 O   0  0  0  0  0  0  0  0  0  0  0  0
  -25.4628  -15.1651   20.2354 O   0  0  0  0  0  0  0  0  0  0  0  0
  -28.8779  -26.9469   19.7369 O   0  0  0  0  0  0  0  0  0  0  0  0
  -23.8943  -19.0142   23.0159 O   0  0  0  0  0  0  0  0  0  1  0  0
  -23.6730  -28.7230   20.1354 F   0  0  0  0  0  0  0  0  0  0  0  0
  -28.1943  -28.9469   21.5188 F   0  0  0  0  0  0  0  0  0  0  0  0
  1  2  1  0  0  0  0
  1  7  2  0  0  0  0
  2  8  2  0  0  0  0
  3  4  1  0  0  0  0
  3 10  2  0  0  0  0
  4 11  2  0  0  0  0
  5 12  2  0  0  0  0
  5 19  1  0  0  0  0
  6 13  1  0  0  0  0
  6 19  2  0  0  0  0
  7 21  1  0  0  0  0
  8 23  1  0  0  0  0
  9 14  2  0  0  0  0
  9 22  1  0  0  0  0
 10 25  1  0  0  0  0
 11 26  1  0  0  0  0
 12 27  1  0  0  0  0
 13 27  2  0  0  0  0
 14 28  1  0  0  0  0
 15 16  2  0  0  0  0
 15 29  1  0  0  0  0
 16 30  1  0  0  0  0
 17 24  1  0  0  0  0
 17 28  2  0  0  0  0
 18 30  2  0  0  0  0
 18 31  1  0  0  0  0
 19 32  1  0  0  0  0
 20 32  1  0  0  0  0
 20 33  2  0  0  0  0
 20 34  1  0  0  0  0
 21 23  2  0  0  0  0
 21 39  1  0  0  0  0
 22 24  2  0  0  0  0
 22 40  1  0  0  0  0
 23 48  1  0  0  0  0
 24 41  1  0  0  0  0
 25 26  2  0  0  0  0
 25 56  1  0  0  0  0
 26 66  1  0  0  0  0
 27 75  1  0  0  0  0
 28 76  1  0  0  0  0
 29 31  2  0  0  0  0
 29 75  1  0  0  0  0
 30 77  1  0  0  0  0
 31 78  1  0  0  0  0
 32 60  2  0  0  0  0
 33 61  1  0  0  0  0
 33 64  1  0  0  0  0
 34 65  1  0  0  0  0
 34 70  2  0  0  0  0
 35 49  1  0  0  0  0
 35 67  1  0  0  0  0
 35 71  2  0  0  0  0
 36 57  1  0  0  0  0
 36 62  1  0  0  0  0
 36 72  2  0  0  0  0
 37 58  1  0  0  0  0
 37 68  1  0  0  0  0
 37 73  2  0  0  0  0
 38 63  1  0  0  0  0
 38 66  1  0  0  0  0
 38 74  2  0  0  0  0
 39 42  1  0  0  0  0
 40 49  1  0  0  0  0
 41 62  1  0  0  0  0
 42 44  1  0  0  0  0
 43 45  1  0  0  0  0
 43 46  1  0  0  0  0
 44 48  1  0  0  0  0
 45 50  1  0  0  0  0
 46 63  1  0  0  0  0
 47 50  1  0  0  0  0
 47 63  1  0  0  0  0
 48 67  1  0  0  0  0
 49 62  1  0  0  0  0
 50 61  1  0  0  0  0
 51 58  1  0  0  0  0
 52 59  1  0  0  0  0
 53 59  1  0  0  0  0
 54 59  1  0  0  0  0
 55 69  1  0  0  0  0
 56 76  1  0  0  0  0
 57 59  1  0  0  0  0
 57 68  1  0  0  0  0
 58 69  1  0  0  0  0
 60 61  1  0  0  0  0
M  CHG  1  69   1
M  ISO  4  38 100  56 101  66 100  76 101
M  END
> <Batch ID>
0004

> <Smiles>
CNC(C)C(=O)NC(C(=O)N1Cc2cc([101O:1][101CH2:1]c3ccccc3[100NH:0][100C:0](=O)N3CCCC(n4nc(-c5ccc(Oc6ccc(F)cc6F)cc5)c(C(N)=O)c4N)C3)ccc2CC1C(=O)NC1CCCc2ccccc21)C(C)(C)C

> <Shape>
0.178

> <Color>
0.076

> <Negative vol penalty>
0.000

$$$$

  -OEChem-04052315243D

 90 98  0     1  0  0  0  0  0999 V2000
  -23.8777  -20.4514   23.7886 C   0  0  0  0  0  0  0  0  0  0  0  0
  -23.7573  -21.3446   22.7288 C   0  0  0  0  0  0  0  0  0  0  0  0
  -22.9892   -9.9746   19.9506 C   0  0  0  0  0  0  0  0  0  0  0  0
  -23.8143   -9.8761   22.2192 C   0  0  0  0  0  0  0  0  0  0  0  0
  -22.7577  -20.1199   24.5500 C   0  0  0  0  0  0  0  0  0  0  0  0
  -22.5166  -21.9061   22.4291 C   0  0  0  0  0  0  0  0  0  0  0  0
  -22.8006  -26.8831   21.5382 C   0  0  0  0  0  0  0  0  0  0  0  0
  -25.7565  -23.1469   17.4649 C   0  0  0  0  0  0  0  0  0  0  0  0
  -22.2359   -8.8222   20.1745 C   0  0  0  0  0  0  0  0  0  0  0  0
  -23.0610   -8.7237   22.4432 C   0  0  0  0  0  0  0  0  0  0  0  0
  -23.2741  -27.2802   20.2885 C   0  0  0  0  0  0  0  0  0  0  0  0
  -25.1047  -24.1413   16.7355 C   0  0  0  0  0  0  0  0  0  0  0  0
  -23.2871   -5.4241   21.7415 C   0  0  0  0  0  0  0  0  0  0  0  0
  -23.9078   -4.3617   22.3984 C   0  0  0  0  0  0  0  0  0  0  0  0
  -21.0066  -27.6531   19.5546 C   0  0  0  0  0  0  0  0  0  0  0  0
  -22.9796  -23.3802   17.5969 C   0  0  0  0  0  0  0  0  0  0  0  0
  -22.2586   -4.4872   24.1595 C   0  0  0  0  0  0  0  0  0  0  0  0
  -23.7784  -10.5016   20.9729 C   0  0  0  0  0  0  0  0  0  0  0  0
  -24.1537  -13.0247   20.9469 C   0  0  0  0  0  0  0  0  0  0  0  0
  -21.5045  -20.6850   24.2655 C   0  0  0  0  0  0  0  0  0  0  0  0
  -21.4237  -26.8575   21.8025 C   0  0  0  0  0  0  0  0  0  0  0  0
  -21.3786  -21.5808   23.1866 C   0  0  0  0  0  0  0  0  0  0  0  0
  -20.5183  -27.2577   20.8094 C   0  0  0  0  0  0  0  0  0  0  0  0
  -25.0198  -22.2691   18.2603 C   0  0  0  0  0  0  0  0  0  0  0  0
  -22.2718   -8.1968   21.4208 C   0  0  0  0  0  0  0  0  0  0  0  0
  -22.3770  -27.6625   19.2955 C   0  0  0  0  0  0  0  0  0  0  0  0
  -23.7163  -24.2580   16.8015 C   0  0  0  0  0  0  0  0  0  0  0  0
  -22.1522   -6.0182   22.2936 C   0  0  0  0  0  0  0  0  0  0  0  0
  -23.3935   -3.8932   23.6074 C   0  0  0  0  0  0  0  0  0  0  0  0
  -23.6314  -22.3858   18.3263 C   0  0  0  0  0  0  0  0  0  0  0  0
  -21.6379   -5.5497   23.5026 C   0  0  0  0  0  0  0  0  0  0  0  0
  -24.5572  -11.6916   20.7421 C   0  0  0  0  0  0  0  0  0  0  0  0
  -25.2458  -13.7738   20.5831 C   0  0  0  0  0  0  0  0  0  0  0  0
  -22.9034  -13.5397   21.4235 C   0  0  0  0  0  0  0  0  0  0  0  0
  -19.3299  -24.5948   22.5771 C   0  0  0  0  0  0  0  0  0  0  0  0
  -17.3112  -27.1148   22.8884 C   0  0  0  0  0  0  0  0  0  0  0  0
  -27.0518  -21.0070   19.0480 C   0  0  0  0  0  0  0  0  0  0  0  0
  -16.5381  -30.3294   22.0424 C   0  0  0  0  0  0  0  0  0  0  0  0
  -30.7471  -14.7102   20.6532 C   0  0  0  0  0  0  0  0  0  0  0  0
  -20.3132  -20.2599   25.0869 C   0  0  0  0  0  0  0  0  0  0  0  0
  -20.9304  -26.4522   23.1644 C   0  0  0  0  0  0  0  0  0  0  0  0
  -19.0314  -27.2674   21.0491 C   0  0  0  0  0  0  0  0  0  0  0  0
  -19.1092  -21.1865   24.9385 C   0  0  0  0  0  0  0  0  0  0  0  0
  -29.5069  -12.4424   18.2046 C   0  0  0  0  0  0  0  0  0  0  0  0
  -18.8565  -21.5021   23.4677 C   0  0  0  0  0  0  0  0  0  0  0  0
  -28.0783  -12.1503   18.6668 C   0  0  0  0  0  0  0  0  0  0  0  0
  -30.4611  -12.6008   19.3863 C   0  0  0  0  0  0  0  0  0  0  0  0
  -28.6107  -13.2992   20.8567 C   0  0  0  0  0  0  0  0  0  0  0  0
  -20.0546  -22.2298   22.8459 C   0  0  1  0  0  0  0  0  0  0  0  0
  -19.4821  -25.9726   23.1569 C   0  0  1  0  0  0  0  0  0  0  0  0
  -27.6008  -13.1868   19.7017 C   0  0  2  0  0  0  0  0  0  0  0  0
  -14.8063  -32.1048   22.4246 C   0  0  0  0  0  0  0  0  0  0  0  0
  -15.4113  -25.6669   20.9901 C   0  0  0  0  0  0  0  0  0  0  0  0
  -14.1967  -27.8321   20.6658 C   0  0  0  0  0  0  0  0  0  0  0  0
  -14.2964  -26.7867   22.9285 C   0  0  0  0  0  0  0  0  0  0  0  0
  -18.5198  -32.1655   23.2510 C   0  0  0  0  0  0  0  0  0  0  0  0
  -27.3434  -19.8289   19.9672 C   0  0  0  0  0  0  0  0  0  0  0  0
  -28.8339  -19.5079   20.0559 C   0  0  0  0  0  0  0  0  0  0  0  0
  -29.0975  -18.3460   21.0154 C   0  0  0  0  0  0  0  0  0  0  0  0
  -30.5886  -18.0009   21.0724 C   0  0  0  0  0  0  0  0  0  0  0  0
  -22.8330  -27.6010   15.7039 C   0  0  0  0  0  0  0  0  0  0  0  0
  -30.8798  -16.8065   21.9750 C   0  0  0  0  0  0  0  0  0  0  0  0
  -21.9896  -27.8016   16.9532 C   0  0  0  0  0  0  0  0  0  1  0  0
  -23.7995  -26.4363   15.8510 C   0  0  0  0  0  0  0  0  0  0  0  0
  -16.3750  -27.8552   21.9641 C   0  0  1  0  0  0  0  0  0  0  0  0
  -16.1334  -31.5238   22.8874 C   0  0  2  0  0  0  0  0  0  0  0  0
  -15.0977  -27.0333   21.6316 C   0  0  0  0  0  0  0  0  0  0  0  0
  -25.8080  -11.5962   20.2835 N   0  0  0  0  0  0  0  0  0  0  0  0
  -26.1999  -12.8788   20.1971 N   0  0  0  0  0  0  0  0  0  0  0  0
  -18.5979  -26.8567   22.3948 N   0  0  0  0  0  0  0  0  0  0  0  0
  -29.9512  -13.5990   20.3295 N   0  0  0  0  0  0  0  0  0  0  0  0
  -25.4736  -15.1042   20.5588 N   0  0  0  0  0  0  0  0  0  0  0  0
  -21.8883  -12.6311   21.7525 N   0  0  0  0  0  0  0  0  0  0  0  0
  -25.6747  -21.2755   18.9887 N   0  0  0  0  0  0  0  0  0  0  0  0
  -20.0581  -23.6232   23.2368 N   0  0  0  0  0  0  0  0  0  0  0  0
  -16.1093  -29.1423   22.5975 N   0  0  0  0  0  0  0  0  0  0  0  0
  -30.1859  -15.6113   21.5499 N   0  0  0  0  0  0  0  0  0  0  0  0
  -17.1689  -32.5923   22.8036 N   0  3  0  0  0  0  0  0  0  0  0  0
  -22.6869  -14.7700   21.5383 O   0  0  0  0  0  0  0  0  0  0  0  0
  -18.6043  -24.4255   21.6042 O   0  0  0  0  0  0  0  0  0  0  0  0
  -16.9178  -26.7842   24.0098 O   0  0  0  0  0  0  0  0  0  0  0  0
  -27.9433  -21.6095   18.4591 O   0  0  0  0  0  0  0  0  0  0  0  0
  -17.1682  -30.4388   20.9928 O   0  0  0  0  0  0  0  0  0  0  0  0
  -31.8721  -14.8891   20.1743 O   0  0  0  0  0  0  0  0  0  0  0  0
  -21.5367   -7.0724   21.6397 O   0  0  0  0  0  0  0  0  0  0  0  0
  -22.8364  -28.0500   18.0746 O   0  0  0  0  0  0  0  0  0  1  0  0
  -23.0760  -25.2358   16.0856 O   0  0  0  0  0  0  0  0  0  0  0  0
  -23.9887   -2.8719   24.2374 F   0  0  0  0  0  0  0  0  0  0  0  0
  -22.9133  -21.5474   19.0871 F   0  0  0  0  0  0  0  0  0  0  0  0
  -20.5472   -6.1156   24.0372 F   0  0  0  0  0  0  0  0  0  0  0  0
  1  2  1  0  0  0  0
  1  5  2  0  0  0  0
  2  6  2  0  0  0  0
  3  9  2  0  0  0  0
  3 18  1  0  0  0  0
  4 10  1  0  0  0  0
  4 18  2  0  0  0  0
  5 20  1  0  0  0  0
  6 22  1  0  0  0  0
  7 11  2  0  0  0  0
  7 21  1  0  0  0  0
  8 12  2  0  0  0  0
  8 24  1  0  0  0  0
  9 25  1  0  0  0  0
 10 25  2  0  0  0  0
 11 26  1  0  0  0  0
 12 27  1  0  0  0  0
 13 14  2  0  0  0  0
 13 28  1  0  0  0  0
 14 29  1  0  0  0  0
 15 23  1  0  0  0  0
 15 26  2  0  0  0  0
 16 27  2  0  0  0  0
 16 30  1  0  0  0  0
 17 29  2  0  0  0  0
 17 31  1  0  0  0  0
 18 32  1  0  0  0  0
 19 32  1  0  0  0  0
 19 33  2  0  0  0  0
 19 34  1  0  0  0  0
 20 22  2  0  0  0  0
 20 40  1  0  0  0  0
 21 23  2  0  0  0  0
 21 41  1  0  0  0  0
 22 49  1  0  0  0  0
 23 42  1  0  0  0  0
 24 30  2  0  0  0  0
 24 74  1  0  0  0  0
 25 85  1  0  0  0  0
 26 86  1  0  0  0  0
 27 87  1  0  0  0  0
 28 31  2  0  0  0  0
 28 85  1  0  0  0  0
 29 88  1  0  0  0  0
 30 89  1  0  0  0  0
 31 90  1  0  0  0  0
 32 68  2  0  0  0  0
 33 69  1  0  0  0  0
 33 72  1  0  0  0  0
 34 73  1  0  0  0  0
 34 79  2  0  0  0  0
 35 50  1  0  0  0  0
 35 75  1  0  0  0  0
 35 80  2  0  0  0  0
 36 65  1  0  0  0  0
 36 70  1  0  0  0  0
 36 81  2  0  0  0  0
 37 57  1  0  0  0  0
 37 74  1  0  0  0  0
 37 82  2  0  0  0  0
 38 66  1  0  0  0  0
 38 76  1  0  0  0  0
 38 83  2  0  0  0  0
 39 71  1  0  0  0  0
 39 77  1  0  0  0  0
 39 84  2  0  0  0  0
 40 43  1  0  0  0  0
 41 50  1  0  0  0  0
 42 70  1  0  0  0  0
 43 45  1  0  0  0  0
 44 46  1  0  0  0  0
 44 47  1  0  0  0  0
 45 49  1  0  0  0  0
 46 51  1  0  0  0  0
 47 71  1  0  0  0  0
 48 51  1  0  0  0  0
 48 71  1  0  0  0  0
 49 75  1  0  0  0  0
 50 70  1  0  0  0  0
 51 69  1  0  0  0  0
 52 66  1  0  0  0  0
 53 67  1  0  0  0  0
 54 67  1  0  0  0  0
 55 67  1  0  0  0  0
 56 78  1  0  0  0  0
 57 58  1  0  0  0  0
 58 59  1  0  0  0  0
 59 60  1  0  0  0  0
 60 62  1  0  0  0  0
 61 63  1  0  0  0  0
 61 64  1  0  0  0  0
 62 77  1  0  0  0  0
 63 86  1  0  0  0  0
 64 87  1  0  0  0  0
 65 67  1  0  0  0  0
 65 76  1  0  0  0  0
 66 78  1  0  0  0  0
 68 69  1  0  0  0  0
M  CHG  1  78   1
M  ISO  4  39 100  63 101  77 100  86 101
M  END
> <Batch ID>
0004

> <Smiles>
CNC(C)C(=O)NC(C(=O)N1Cc2cc([101O:1][101CH2:1]CCOc3ccc(NC(=O)CCCCC[100NH:0][100C:0](=O)N4CCCC(n5nc(-c6ccc(Oc7ccc(F)cc7F)cc6)c(C(N)=O)c5N)C4)c(F)c3)ccc2CC1C(=O)NC1CCCc2ccccc21)C(C)(C)C

> <Shape>
0.269

> <Color>
0.192

> <Negative vol penalty>
0.000

$$$$

  -OEChem-04052315243D

 90 98  0     1  0  0  0  0  0999 V2000
  -16.5253  -28.9688   22.8586 C   0  0  0  0  0  0  0  0  0  0  0  0
  -17.2366  -29.8831   22.0882 C   0  0  0  0  0  0  0  0  0  0  0  0
  -28.3333  -14.1254   19.0305 C   0  0  0  0  0  0  0  0  0  0  0  0
  -27.7777  -12.3616   20.5853 C   0  0  0  0  0  0  0  0  0  0  0  0
  -17.0697  -28.4897   24.0494 C   0  0  0  0  0  0  0  0  0  0  0  0
  -18.4923  -30.3198   22.5088 C   0  0  0  0  0  0  0  0  0  0  0  0
  -24.3224  -29.3664   18.3867 C   0  0  0  0  0  0  0  0  0  0  0  0
  -24.7596  -23.9809   22.1773 C   0  0  0  0  0  0  0  0  0  0  0  0
  -24.6695  -22.6117   22.4274 C   0  0  0  0  0  0  0  0  0  0  0  0
  -29.5740  -13.5313   18.7999 C   0  0  0  0  0  0  0  0  0  0  0  0
  -29.0184  -11.7674   20.3546 C   0  0  0  0  0  0  0  0  0  0  0  0
  -25.4489  -29.4100   17.5649 C   0  0  0  0  0  0  0  0  0  0  0  0
  -32.7435  -12.2844   17.5292 C   0  0  0  0  0  0  0  0  0  0  0  0
  -33.1770  -12.1804   16.2076 C   0  0  0  0  0  0  0  0  0  0  0  0
  -26.7375  -30.3837   19.3647 C   0  0  0  0  0  0  0  0  0  0  0  0
  -26.5950  -22.2279   21.0194 C   0  0  0  0  0  0  0  0  0  0  0  0
  -31.2367  -10.8425   15.6764 C   0  0  0  0  0  0  0  0  0  0  0  0
  -27.4351  -13.5405   19.9233 C   0  0  0  0  0  0  0  0  0  0  0  0
  -24.9540  -13.9167   19.4649 C   0  0  0  0  0  0  0  0  0  0  0  0
  -18.3369  -28.9134   24.4800 C   0  0  0  0  0  0  0  0  0  0  0  0
  -24.4034  -29.8177   19.7070 C   0  0  0  0  0  0  0  0  0  0  0  0
  -19.0536  -29.8470   23.7072 C   0  0  0  0  0  0  0  0  0  0  0  0
  -25.6157  -30.3310   20.1964 C   0  0  0  0  0  0  0  0  0  0  0  0
  -25.7673  -24.4737   21.3482 C   0  0  0  0  0  0  0  0  0  0  0  0
  -25.5872  -21.7351   21.8485 C   0  0  0  0  0  0  0  0  0  0  0  0
  -26.6850  -23.5972   20.7693 C   0  0  0  0  0  0  0  0  0  0  0  0
  -29.9166  -12.3523   19.4619 C   0  0  0  0  0  0  0  0  0  0  0  0
  -26.6533  -29.9176   18.0526 C   0  0  0  0  0  0  0  0  0  0  0  0
  -31.5566  -11.6673   17.9245 C   0  0  0  0  0  0  0  0  0  0  0  0
  -32.4237  -11.4595   15.2811 C   0  0  0  0  0  0  0  0  0  0  0  0
  -30.8032  -10.9464   16.9981 C   0  0  0  0  0  0  0  0  0  0  0  0
  -26.1535  -14.1541   20.1625 C   0  0  0  0  0  0  0  0  0  0  0  0
  -24.0359  -14.7390   20.0710 C   0  0  0  0  0  0  0  0  0  0  0  0
  -24.6930  -13.0320   18.3673 C   0  0  0  0  0  0  0  0  0  0  0  0
  -22.6383  -30.3602   22.9729 C   0  0  0  0  0  0  0  0  0  0  0  0
  -25.4451  -29.3171   23.6395 C   0  0  0  0  0  0  0  0  0  0  0  0
  -28.7653  -28.0941   24.3370 C   0  0  0  0  0  0  0  0  0  0  0  0
  -24.9747  -19.8278   23.3257 C   0  0  0  0  0  0  0  0  0  0  0  0
  -18.8637  -28.4037   25.7981 C   0  0  0  0  0  0  0  0  0  0  0  0
  -23.1995  -29.8466   20.6090 C   0  0  0  0  0  0  0  0  0  0  0  0
  -25.6470  -30.8374   21.6126 C   0  0  0  0  0  0  0  0  0  0  0  0
  -20.3617  -28.6309   25.9842 C   0  0  0  0  0  0  0  0  0  0  0  0
  -23.0461  -16.8234   24.2553 C   0  0  0  0  0  0  0  0  0  0  0  0
  -20.7377  -30.0572   25.5954 C   0  0  0  0  0  0  0  0  0  0  0  0
  -23.5758  -15.7660   23.2882 C   0  0  0  0  0  0  0  0  0  0  0  0
  -24.1021  -17.8765   24.5778 C   0  0  0  0  0  0  0  0  0  0  0  0
  -25.2157  -17.4729   22.4036 C   0  0  0  0  0  0  0  0  0  0  0  0
  -20.4293  -30.3256   24.1175 C   0  0  1  0  0  0  0  0  0  0  0  0
  -23.5420  -29.5596   22.0819 C   0  0  1  0  0  0  0  0  0  0  0  0
  -24.1614  -16.4216   22.0255 C   0  0  1  0  0  0  0  0  0  0  0  0
  -25.8405  -25.9448   21.0977 C   0  0  0  0  0  0  0  0  0  0  0  0
  -27.1081  -18.7927   21.0321 C   0  0  0  0  0  0  0  0  0  0  0  0
  -29.7260  -27.0801   26.4218 C   0  0  0  0  0  0  0  0  0  0  0  0
  -26.3315  -32.1671   24.2686 C   0  0  0  0  0  0  0  0  0  0  0  0
  -28.4612  -31.2259   25.1888 C   0  0  0  0  0  0  0  0  0  0  0  0
  -26.2793  -30.6309   26.2414 C   0  0  0  0  0  0  0  0  0  0  0  0
  -29.6532  -25.6708   22.8884 C   0  0  0  0  0  0  0  0  0  0  0  0
  -28.7348  -25.3778   14.1488 C   0  0  0  0  0  0  0  0  0  0  0  0
  -29.6118  -24.0171   18.3956 C   0  0  0  0  0  0  0  0  0  0  0  0
  -28.8615  -24.7569   17.2817 C   0  0  0  0  0  0  0  0  0  0  0  0
  -29.3241  -28.6487   15.9913 C   0  0  0  0  0  0  0  0  0  0  0  0
  -25.7147  -19.3870   20.9959 C   0  0  0  0  0  0  0  0  0  0  0  0
  -28.6741  -23.2316   19.3080 C   0  0  0  0  0  0  0  0  0  0  0  0
  -29.7709  -25.6061   16.4016 C   0  0  0  0  0  0  0  0  0  0  0  0
  -29.5636  -27.5962   14.9193 C   0  0  0  0  0  0  0  0  0  0  0  0
  -27.8505  -28.9435   16.2428 C   0  0  0  0  0  0  0  0  0  1  0  0
  -26.8726  -29.6586   23.9842 C   0  0  1  0  0  0  0  0  0  0  0  0
  -29.1276  -26.8044   25.0511 C   0  0  2  0  0  0  0  0  0  0  0  0
  -26.9783  -30.9150   24.8940 C   0  0  0  0  0  0  0  0  0  0  0  0
  -26.0133  -15.0566   21.1370 N   0  0  0  0  0  0  0  0  0  0  0  0
  -24.7149  -15.3937   21.0561 N   0  0  0  0  0  0  0  0  0  0  0  0
  -24.9109  -29.9158   22.4920 N   0  0  0  0  0  0  0  0  0  0  0  0
  -24.6749  -18.4511   23.3599 N   0  0  0  0  0  0  0  0  0  0  0  0
  -22.7220  -14.9588   19.8520 N   0  0  0  0  0  0  0  0  0  0  0  0
  -25.7493  -12.2589   17.8665 N   0  0  0  0  0  0  0  0  0  0  0  0
  -27.6944  -24.0712   19.9402 N   0  0  0  0  0  0  0  0  0  0  0  0
  -21.4445  -29.7326   23.2736 N   0  0  0  0  0  0  0  0  0  0  0  0
  -27.4528  -28.4515   24.5627 N   0  0  0  0  0  0  0  0  0  0  0  0
  -25.4931  -20.3178   22.1075 N   0  0  0  0  0  0  0  0  0  0  0  0
  -30.1197  -26.0310   24.2521 N   0  3  0  0  0  0  0  0  0  0  0  0
  -28.9739  -26.2979   15.3218 N   0  3  1  0  0  0  0  0  0  0  0  0
  -23.5605  -12.9421   17.8353 O   0  0  0  0  0  0  0  0  0  0  0  0
  -22.9973  -31.4658   23.3610 O   0  0  0  0  0  0  0  0  0  0  0  0
  -24.8165  -28.5452   24.3691 O   0  0  0  0  0  0  0  0  0  0  0  0
  -29.5674  -28.7235   23.6508 O   0  0  0  0  0  0  0  0  0  0  0  0
  -24.7672  -20.5650   24.2969 O   0  0  0  0  0  0  0  0  0  0  0  0
  -31.1271  -11.7722   19.2368 O   0  0  0  0  0  0  0  0  0  0  0  0
  -27.7503  -29.9530   17.2464 O   0  0  0  0  0  0  0  0  0  1  0  0
  -32.8393  -11.3610   14.0116 F   0  0  0  0  0  0  0  0  0  0  0  0
  -29.6615  -10.3525   17.3716 F   0  0  0  0  0  0  0  0  0  0  0  0
  1  2  1  0  0  0  0
  1  5  2  0  0  0  0
  2  6  2  0  0  0  0
  3 10  2  0  0  0  0
  3 18  1  0  0  0  0
  4 11  1  0  0  0  0
  4 18  2  0  0  0  0
  5 20  1  0  0  0  0
  6 22  1  0  0  0  0
  7 12  2  0  0  0  0
  7 21  1  0  0  0  0
  8  9  2  0  0  0  0
  8 24  1  0  0  0  0
  9 25  1  0  0  0  0
 10 27  1  0  0  0  0
 11 27  2  0  0  0  0
 12 28  1  0  0  0  0
 13 14  2  0  0  0  0
 13 29  1  0  0  0  0
 14 30  1  0  0  0  0
 15 23  1  0  0  0  0
 15 28  2  0  0  0  0
 16 25  2  0  0  0  0
 16 26  1  0  0  0  0
 17 30  2  0  0  0  0
 17 31  1  0  0  0  0
 18 32  1  0  0  0  0
 19 32  1  0  0  0  0
 19 33  2  0  0  0  0
 19 34  1  0  0  0  0
 20 22  2  0  0  0  0
 20 39  1  0  0  0  0
 21 23  2  0  0  0  0
 21 40  1  0  0  0  0
 22 48  1  0  0  0  0
 23 41  1  0  0  0  0
 24 26  2  0  0  0  0
 24 51  1  0  0  0  0
 25 79  1  0  0  0  0
 26 76  1  0  0  0  0
 27 87  1  0  0  0  0
 28 88  1  0  0  0  0
 29 31  2  0  0  0  0
 29 87  1  0  0  0  0
 30 89  1  0  0  0  0
 31 90  1  0  0  0  0
 32 70  2  0  0  0  0
 33 71  1  0  0  0  0
 33 74  1  0  0  0  0
 34 75  1  0  0  0  0
 34 82  2  0  0  0  0
 35 49  1  0  0  0  0
 35 77  1  0  0  0  0
 35 83  2  0  0  0  0
 36 67  1  0  0  0  0
 36 72  1  0  0  0  0
 36 84  2  0  0  0  0
 37 68  1  0  0  0  0
 37 78  1  0  0  0  0
 37 85  2  0  0  0  0
 38 73  1  0  0  0  0
 38 79  1  0  0  0  0
 38 86  2  0  0  0  0
 39 42  1  0  0  0  0
 40 49  1  0  0  0  0
 41 72  1  0  0  0  0
 42 44  1  0  0  0  0
 43 45  1  0  0  0  0
 43 46  1  0  0  0  0
 44 48  1  0  0  0  0
 45 50  1  0  0  0  0
 46 73  1  0  0  0  0
 47 50  1  0  0  0  0
 47 73  1  0  0  0  0
 48 77  1  0  0  0  0
 49 72  1  0  0  0  0
 50 71  1  0  0  0  0
 52 62  1  0  0  0  0
 53 68  1  0  0  0  0
 54 69  1  0  0  0  0
 55 69  1  0  0  0  0
 56 69  1  0  0  0  0
 57 80  1  0  0  0  0
 58 81  1  0  0  0  0
 59 60  1  0  0  0  0
 59 63  1  0  0  0  0
 60 64  1  0  0  0  0
 61 65  1  0  0  0  0
 61 66  1  0  0  0  0
 62 79  1  0  0  0  0
 63 76  1  0  0  0  0
 64 81  1  0  0  0  0
 65 81  1  0  0  0  0
 66 88  1  0  0  0  0
 67 69  1  0  0  0  0
 67 78  1  0  0  0  0
 68 80  1  0  0  0  0
 70 71  1  0  0  0  0
M  CHG  2  80   1  81   1
M  ISO  4  38 100  66 101  79 100  88 101
M  END
> <Batch ID>
0004

> <Smiles>
CC[100N:0](c1ccc(C)c(NCCCCN(C)CC[101CH2:1][101O:1]c2ccc3c(c2)CN(C(=O)C(NC(=O)C(C)NC)C(C)(C)C)C(C(=O)NC2CCCc4ccccc42)C3)c1)[100C:0](=O)N1CCCC(n2nc(-c3ccc(Oc4ccc(F)cc4F)cc3)c(C(N)=O)c2N)C1

> <Shape>
0.215

> <Color>
0.102

> <Negative vol penalty>
0.000

$$$$

  -OEChem-04052315243D

 99108  0     1  0  0  0  0  0999 V2000
  -32.5497  -29.6730   23.4740 C   0  0  0  0  0  0  0  0  0  0  0  0
  -17.5303  -26.5732   19.8488 C   0  0  0  0  0  0  0  0  0  0  0  0
  -18.7914  -26.9318   19.3834 C   0  0  0  0  0  0  0  0  0  0  0  0
  -32.8856  -29.3649   22.1557 C   0  0  0  0  0  0  0  0  0  0  0  0
  -32.5225  -28.6671   24.4401 C   0  0  0  0  0  0  0  0  0  0  0  0
  -24.6434   -8.8408   21.5268 C   0  0  0  0  0  0  0  0  0  0  0  0
  -22.9388  -10.1713   20.4492 C   0  0  0  0  0  0  0  0  0  0  0  0
  -17.2114  -26.7424   21.1955 C   0  0  0  0  0  0  0  0  0  0  0  0
  -19.7339  -27.4609   20.2644 C   0  0  0  0  0  0  0  0  0  0  0  0
  -24.3300  -25.4274   19.6433 C   0  0  0  0  0  0  0  0  0  0  0  0
  -33.1941  -28.0510   21.8034 C   0  0  0  0  0  0  0  0  0  0  0  0
  -32.8310  -27.3532   24.0878 C   0  0  0  0  0  0  0  0  0  0  0  0
  -23.7348   -7.7921   21.6692 C   0  0  0  0  0  0  0  0  0  0  0  0
  -22.0302   -9.1225   20.5917 C   0  0  0  0  0  0  0  0  0  0  0  0
  -25.0890  -25.8857   18.5674 C   0  0  0  0  0  0  0  0  0  0  0  0
  -21.1721   -6.9783   23.7173 C   0  0  0  0  0  0  0  0  0  0  0  0
  -21.1223   -6.3279   24.9502 C   0  0  0  0  0  0  0  0  0  0  0  0
  -26.3301  -27.3173   20.0605 C   0  0  0  0  0  0  0  0  0  0  0  0
  -21.7119   -4.2459   23.8757 C   0  0  0  0  0  0  0  0  0  0  0  0
  -24.2453  -10.0304   20.9168 C   0  0  0  0  0  0  0  0  0  0  0  0
  -26.4042  -11.0929   20.0694 C   0  0  0  0  0  0  0  0  0  0  0  0
  -18.1538  -27.2648   22.0953 C   0  0  0  0  0  0  0  0  0  0  0  0
  -24.5585  -25.9194   20.9364 C   0  0  0  0  0  0  0  0  0  0  0  0
  -19.4269  -27.6385   21.6241 C   0  0  0  0  0  0  0  0  0  0  0  0
  -25.5744  -26.8616   21.1515 C   0  0  0  0  0  0  0  0  0  0  0  0
  -33.1669  -27.0452   22.7695 C   0  0  0  0  0  0  0  0  0  0  0  0
  -22.4282   -7.9329   21.2017 C   0  0  0  0  0  0  0  0  0  0  0  0
  -26.0873  -26.8329   18.7754 C   0  0  0  0  0  0  0  0  0  0  0  0
  -21.4917   -6.2624   22.5635 C   0  0  0  0  0  0  0  0  0  0  0  0
  -21.3923   -4.9617   25.0295 C   0  0  0  0  0  0  0  0  0  0  0  0
  -21.7616   -4.8962   22.6428 C   0  0  0  0  0  0  0  0  0  0  0  0
  -25.1833  -11.1143   20.7698 C   0  0  0  0  0  0  0  0  0  0  0  0
  -26.9142  -12.3581   20.2295 C   0  0  0  0  0  0  0  0  0  0  0  0
  -27.0221  -10.0249   19.3392 C   0  0  0  0  0  0  0  0  0  0  0  0
  -22.8296  -27.5328   23.0605 C   0  0  0  0  0  0  0  0  0  0  0  0
  -31.5907  -25.0286   18.9251 C   0  0  0  0  0  0  0  0  0  0  0  0
  -29.5833  -22.6373   19.6305 C   0  0  0  0  0  0  0  0  0  0  0  0
  -25.3993  -27.0082   24.9694 C   0  0  0  0  0  0  0  0  0  0  0  0
  -27.9542  -26.9402   27.2309 C   0  0  0  0  0  0  0  0  0  0  0  0
  -24.2987  -17.5558   21.2290 C   0  0  0  0  0  0  0  0  0  0  0  0
  -17.7472  -27.4734   23.5326 C   0  0  0  0  0  0  0  0  0  0  0  0
  -23.7490  -25.3950   22.0906 C   0  0  0  0  0  0  0  0  0  0  0  0
  -25.8730  -27.4065   22.5236 C   0  0  0  0  0  0  0  0  0  0  0  0
  -18.9286  -27.6914   24.4743 C   0  0  0  0  0  0  0  0  0  0  0  0
  -26.8794  -16.0522   23.2726 C   0  0  0  0  0  0  0  0  0  0  0  0
  -19.9060  -28.7004   23.8799 C   0  0  0  0  0  0  0  0  0  0  0  0
  -26.8467  -14.6023   22.7858 C   0  0  0  0  0  0  0  0  0  0  0  0
  -33.1106  -23.5456   20.2028 C   0  0  0  0  0  0  0  0  0  0  0  0
  -25.4766  -16.6501   23.3231 C   0  0  0  0  0  0  0  0  0  0  0  0
  -24.6955  -15.1301   21.5474 C   0  0  0  0  0  0  0  0  0  0  0  0
  -31.2410  -22.8616   21.5423 C   0  0  0  0  0  0  0  0  0  0  0  0
  -20.4847  -28.1926   22.5537 C   0  0  1  0  0  0  0  0  0  0  0  0
  -23.7236  -26.3458   23.2834 C   0  0  1  0  0  0  0  0  0  0  0  0
  -31.8608  -23.5910   19.3266 C   0  0  1  0  0  0  0  0  0  0  0  0
  -26.0859  -14.4759   21.4526 C   0  0  2  0  0  0  0  0  0  0  0  0
  -32.5610  -23.6150   21.6270 C   0  0  2  0  0  0  0  0  0  0  0  0
  -28.8252  -28.1397   29.2557 C   0  0  0  0  0  0  0  0  0  0  0  0
  -26.4163  -29.2685   23.1899 C   0  0  0  0  0  0  0  0  0  0  0  0
  -28.0206  -29.8859   25.0101 C   0  0  0  0  0  0  0  0  0  0  0  0
  -25.5633  -30.0024   25.4234 C   0  0  0  0  0  0  0  0  0  0  0  0
  -27.7103  -24.5181   28.9140 C   0  0  0  0  0  0  0  0  0  0  0  0
  -33.4984  -25.6315   22.3911 C   0  0  0  0  0  0  0  0  0  0  0  0
  -28.6320  -21.9891   20.6043 C   0  0  0  0  0  0  0  0  0  0  0  0
  -27.3357  -21.6075   19.9081 C   0  0  0  0  0  0  0  0  0  0  0  0
  -26.3036  -21.0051   20.8674 C   0  0  0  0  0  0  0  0  0  0  0  0
  -29.5385  -26.5735   16.9353 C   0  0  0  0  0  0  0  0  0  0  0  0
  -25.0270  -20.6009   20.1232 C   0  0  0  0  0  0  0  0  0  0  0  0
  -30.8715  -26.8449   16.2317 C   0  0  0  0  0  0  0  0  0  0  0  0
  -28.3659  -26.6858   15.9628 C   0  0  0  0  0  0  0  0  0  0  0  0
  -32.0657  -26.7278   17.1731 C   0  0  0  0  0  0  0  0  0  0  0  0
  -23.9705  -20.0088   21.0502 C   0  0  0  0  0  0  0  0  0  0  0  0
  -27.0394  -26.3768   16.6444 C   0  0  0  0  0  0  0  0  0  1  0  0
  -26.6863  -27.7434   25.2557 C   0  0  1  0  0  0  0  0  0  0  0  0
  -27.9586  -26.9979   28.7478 C   0  0  2  0  0  0  0  0  0  0  0  0
  -26.6716  -29.1988   24.7088 C   0  0  0  0  0  0  0  0  0  0  0  0
  -24.9327  -12.2992   21.3332 N   0  0  0  0  0  0  0  0  0  0  0  0
  -26.0033  -13.0340   20.9870 N   0  0  0  0  0  0  0  0  0  0  0  0
  -25.0501  -26.8674   23.6188 N   0  0  0  0  0  0  0  0  0  0  0  0
  -30.8034  -23.0285   20.1567 N   0  0  0  0  0  0  0  0  0  0  0  0
  -24.8140  -16.5142   22.0183 N   0  0  0  0  0  0  0  0  0  0  0  0
  -28.0484  -12.9473   19.7950 N   0  0  0  0  0  0  0  0  0  0  0  0
  -26.7291   -9.8910   17.9751 N   0  0  0  0  0  0  0  0  0  0  0  0
  -21.5136  -27.2043   22.7967 N   0  0  0  0  0  0  0  0  0  0  0  0
  -32.1928  -25.4124   17.7365 N   0  0  0  0  0  0  0  0  0  0  0  0
  -26.8991  -27.6484   26.6959 N   0  0  0  0  0  0  0  0  0  0  0  0
  -24.4451  -18.8357   21.7498 N   0  0  0  0  0  0  0  0  0  0  0  0
  -28.4828  -25.7226   29.3132 N   0  3  0  0  0  0  0  0  0  0  0  0
  -27.7979   -9.2034   19.8839 O   0  0  0  0  0  0  0  0  0  0  0  0
  -23.2988  -28.6630   23.1246 O   0  0  0  0  0  0  0  0  0  0  0  0
  -30.8881  -25.7337   19.6398 O   0  0  0  0  0  0  0  0  0  0  0  0
  -29.2557  -22.7981   18.4535 O   0  0  0  0  0  0  0  0  0  0  0  0
  -24.7321  -26.5686   25.9092 O   0  0  0  0  0  0  0  0  0  0  0  0
  -28.8042  -26.3311   26.5851 O   0  0  0  0  0  0  0  0  0  0  0  0
  -23.7529  -17.3602   20.1377 O   0  0  0  0  0  0  0  0  0  0  0  0
  -21.5415   -6.9097   21.3403 O   0  0  0  0  0  0  0  0  0  0  0  0
  -26.8291  -27.2825   17.7268 O   0  0  0  0  0  0  0  0  0  1  0  0
  -32.3065  -24.9647   21.9981 O   0  0  0  0  0  0  0  0  0  0  0  0
  -21.3459   -4.3376   26.2137 F   0  0  0  0  0  0  0  0  0  0  0  0
  -22.0704   -4.2035   21.5380 F   0  0  0  0  0  0  0  0  0  0  0  0
  1  4  1  0  0  0  0
  1  5  2  0  0  0  0
  2  3  1  0  0  0  0
  2  8  2  0  0  0  0
  3  9  2  0  0  0  0
  4 11  2  0  0  0  0
  5 12  1  0  0  0  0
  6 13  2  0  0  0  0
  6 20  1  0  0  0  0
  7 14  1  0  0  0  0
  7 20  2  0  0  0  0
  8 22  1  0  0  0  0
  9 24  1  0  0  0  0
 10 15  2  0  0  0  0
 10 23  1  0  0  0  0
 11 26  1  0  0  0  0
 12 26  2  0  0  0  0
 13 27  1  0  0  0  0
 14 27  2  0  0  0  0
 15 28  1  0  0  0  0
 16 17  2  0  0  0  0
 16 29  1  0  0  0  0
 17 30  1  0  0  0  0
 18 25  1  0  0  0  0
 18 28  2  0  0  0  0
 19 30  2  0  0  0  0
 19 31  1  0  0  0  0
 20 32  1  0  0  0  0
 21 32  1  0  0  0  0
 21 33  2  0  0  0  0
 21 34  1  0  0  0  0
 22 24  2  0  0  0  0
 22 41  1  0  0  0  0
 23 25  2  0  0  0  0
 23 42  1  0  0  0  0
 24 52  1  0  0  0  0
 25 43  1  0  0  0  0
 26 62  1  0  0  0  0
 27 95  1  0  0  0  0
 28 96  1  0  0  0  0
 29 31  2  0  0  0  0
 29 95  1  0  0  0  0
 30 98  1  0  0  0  0
 31 99  1  0  0  0  0
 32 76  2  0  0  0  0
 33 77  1  0  0  0  0
 33 81  1  0  0  0  0
 34 82  1  0  0  0  0
 34 88  2  0  0  0  0
 35 53  1  0  0  0  0
 35 83  1  0  0  0  0
 35 89  2  0  0  0  0
 36 54  1  0  0  0  0
 36 84  1  0  0  0  0
 36 90  2  0  0  0  0
 37 63  1  0  0  0  0
 37 79  1  0  0  0  0
 37 91  2  0  0  0  0
 38 73  1  0  0  0  0
 38 78  1  0  0  0  0
 38 92  2  0  0  0  0
 39 74  1  0  0  0  0
 39 85  1  0  0  0  0
 39 93  2  0  0  0  0
 40 80  1  0  0  0  0
 40 86  1  0  0  0  0
 40 94  2  0  0  0  0
 41 44  1  0  0  0  0
 42 53  1  0  0  0  0
 43 78  1  0  0  0  0
 44 46  1  0  0  0  0
 45 47  1  0  0  0  0
 45 49  1  0  0  0  0
 46 52  1  0  0  0  0
 47 55  1  0  0  0  0
 48 54  1  0  0  0  0
 48 56  1  0  0  0  0
 49 80  1  0  0  0  0
 50 55  1  0  0  0  0
 50 80  1  0  0  0  0
 51 56  1  0  0  0  0
 51 79  1  0  0  0  0
 52 83  1  0  0  0  0
 53 78  1  0  0  0  0
 54 79  1  0  0  0  0
 55 77  1  0  0  0  0
 56 97  1  0  0  0  0
 57 74  1  0  0  0  0
 58 75  1  0  0  0  0
 59 75  1  0  0  0  0
 60 75  1  0  0  0  0
 61 87  1  0  0  0  0
 62 97  1  0  0  0  0
 63 64  1  0  0  0  0
 64 65  1  0  0  0  0
 65 67  1  0  0  0  0
 66 68  1  0  0  0  0
 66 69  1  0  0  0  0
 67 71  1  0  0  0  0
 68 70  1  0  0  0  0
 69 72  1  0  0  0  0
 70 84  1  0  0  0  0
 71 86  1  0  0  0  0
 72 96  1  0  0  0  0
 73 75  1  0  0  0  0
 73 85  1  0  0  0  0
 74 87  1  0  0  0  0
 76 77  1  0  0  0  0
M  CHG  1  87   1
M  ISO  4  40 100  72 101  86 100  96 101
M  END
> <Batch ID>
0004

> <Smiles>
CNC(C)C(=O)NC(C(=O)N1Cc2cc([101O:1][101CH2:1]CCCCNC(=O)C3CC(OCc4ccccc4)CN3C(=O)CCCCC[100NH:0][100C:0](=O)N3CCCC(n4nc(-c5ccc(Oc6ccc(F)cc6F)cc5)c(C(N)=O)c4N)C3)ccc2CC1C(=O)NC1CCCc2ccccc21)C(C)(C)C

> <Shape>
0.251

> <Color>
0.122

> <Negative vol penalty>
0.000

$$$$

  -OEChem-04052315243D

 84 92  0     1  0  0  0  0  0999 V2000
  -29.7108  -33.2504   26.9116 C   0  0  0  0  0  0  0  0  0  0  0  0
  -29.1303  -32.2768   26.1050 C   0  0  0  0  0  0  0  0  0  0  0  0
  -24.4108   -9.0433   21.4903 C   0  0  0  0  0  0  0  0  0  0  0  0
  -24.5599  -10.3854   23.4937 C   0  0  0  0  0  0  0  0  0  0  0  0
  -28.9472  -34.3260   27.3632 C   0  0  0  0  0  0  0  0  0  0  0  0
  -27.7855  -32.3776   25.7506 C   0  0  0  0  0  0  0  0  0  0  0  0
  -26.9927  -31.4156   20.8423 C   0  0  0  0  0  0  0  0  0  0  0  0
  -29.4076  -19.3902   20.5932 C   0  0  0  0  0  0  0  0  0  0  0  0
  -24.1098   -7.9222   22.2637 C   0  0  0  0  0  0  0  0  0  0  0  0
  -24.2589   -9.2643   24.2671 C   0  0  0  0  0  0  0  0  0  0  0  0
  -26.9889  -30.0783   20.4481 C   0  0  0  0  0  0  0  0  0  0  0  0
  -29.4156  -20.7376   20.9539 C   0  0  0  0  0  0  0  0  0  0  0  0
  -21.4150   -6.6470   23.8589 C   0  0  0  0  0  0  0  0  0  0  0  0
  -20.3688   -5.8282   23.4340 C   0  0  0  0  0  0  0  0  0  0  0  0
  -24.5767  -30.0892   20.4555 C   0  0  0  0  0  0  0  0  0  0  0  0
  -27.0002  -20.7368   21.0096 C   0  0  0  0  0  0  0  0  0  0  0  0
  -21.8974   -3.9653   23.2600 C   0  0  0  0  0  0  0  0  0  0  0  0
  -24.6359  -10.2749   22.1053 C   0  0  0  0  0  0  0  0  0  0  0  0
  -24.0378  -12.3560   20.7567 C   0  0  0  0  0  0  0  0  0  0  0  0
  -27.5948  -34.4451   27.0062 C   0  0  0  0  0  0  0  0  0  0  0  0
  -25.7865  -32.0978   21.0570 C   0  0  0  0  0  0  0  0  0  0  0  0
  -27.0027  -33.4550   26.1990 C   0  0  0  0  0  0  0  0  0  0  0  0
  -24.5678  -31.4359   20.8499 C   0  0  0  0  0  0  0  0  0  0  0  0
  -28.1960  -18.7161   20.4406 C   0  0  0  0  0  0  0  0  0  0  0  0
  -24.0338   -8.0327   23.6521 C   0  0  0  0  0  0  0  0  0  0  0  0
  -25.7808  -29.4141   20.2574 C   0  0  0  0  0  0  0  0  0  0  0  0
  -28.2118  -21.4109   21.1621 C   0  0  0  0  0  0  0  0  0  0  0  0
  -22.7024   -6.1250   23.9843 C   0  0  0  0  0  0  0  0  0  0  0  0
  -26.9923  -19.3894   20.6489 C   0  0  0  0  0  0  0  0  0  0  0  0
  -20.6099   -4.4874   23.1345 C   0  0  0  0  0  0  0  0  0  0  0  0
  -22.9436   -4.7842   23.6849 C   0  0  0  0  0  0  0  0  0  0  0  0
  -24.9474  -11.4332   21.3070 C   0  0  0  0  0  0  0  0  0  0  0  0
  -24.8277  -13.2620   20.0920 C   0  0  0  0  0  0  0  0  0  0  0  0
  -22.6069  -12.3912   20.8391 C   0  0  0  0  0  0  0  0  0  0  0  0
  -24.4178  -33.5013   23.5591 C   0  0  0  0  0  0  0  0  0  0  0  0
  -22.2228  -34.4152   21.3525 C   0  0  0  0  0  0  0  0  0  0  0  0
  -20.7299  -33.8364   18.3387 C   0  0  0  0  0  0  0  0  0  0  0  0
  -29.3188  -16.5434   19.8363 C   0  0  0  0  0  0  0  0  0  0  0  0
  -26.7975  -35.6005   27.5576 C   0  0  0  0  0  0  0  0  0  0  0  0
  -25.8075  -33.5478   21.4561 C   0  0  0  0  0  0  0  0  0  0  0  0
  -23.2453  -32.1290   21.0474 C   0  0  0  0  0  0  0  0  0  0  0  0
  -25.4761  -35.8315   26.8289 C   0  0  0  0  0  0  0  0  0  0  0  0
  -29.7578  -13.1222   18.9534 C   0  0  0  0  0  0  0  0  0  0  0  0
  -24.7358  -34.5120   26.6347 C   0  0  0  0  0  0  0  0  0  0  0  0
  -28.4706  -12.4537   19.4417 C   0  0  0  0  0  0  0  0  0  0  0  0
  -30.2178  -14.2277   19.9020 C   0  0  0  0  0  0  0  0  0  0  0  0
  -27.9138  -14.5713   20.7038 C   0  0  0  0  0  0  0  0  0  0  0  0
  -25.5533  -33.5425   25.7726 C   0  0  1  0  0  0  0  0  0  0  0  0
  -24.5222  -33.9968   22.1444 C   0  0  1  0  0  0  0  0  0  0  0  0
  -27.3758  -13.4947   19.7472 C   0  0  2  0  0  0  0  0  0  0  0  0
  -18.9433  -34.7320   16.8210 C   0  0  0  0  0  0  0  0  0  0  0  0
  -20.0833  -33.2151   23.1669 C   0  0  0  0  0  0  0  0  0  0  0  0
  -18.5026  -33.2756   21.2263 C   0  0  0  0  0  0  0  0  0  0  0  0
  -19.4587  -35.3990   22.1206 C   0  0  0  0  0  0  0  0  0  0  0  0
  -22.6722  -34.3538   16.1664 C   0  0  0  0  0  0  0  0  0  0  0  0
  -25.2587  -18.1177   21.6653 C   0  0  0  0  0  0  0  0  0  0  0  0
  -26.4266  -25.8539   20.4400 C   0  0  0  0  0  0  0  0  0  0  0  0
  -27.5675  -24.9575   20.9087 C   0  0  0  0  0  0  0  0  0  0  0  0
  -26.8739  -27.3023   20.2939 C   0  0  0  0  0  0  0  0  0  1  0  0
  -27.1106  -23.5177   21.0962 C   0  0  0  0  0  0  0  0  0  0  0  0
  -20.9428  -33.8265   20.8103 C   0  0  1  0  0  0  0  0  0  0  0  0
  -20.4226  -34.7591   17.1731 C   0  0  2  0  0  0  0  0  0  0  0  0
  -19.7716  -33.9151   21.8291 C   0  0  0  0  0  0  0  0  0  0  0  0
  -26.2179  -11.7259   21.0169 N   0  0  0  0  0  0  0  0  0  0  0  0
  -26.1123  -12.8429   20.2770 N   0  0  0  0  0  0  0  0  0  0  0  0
  -23.3184  -33.5450   21.4438 N   0  0  0  0  0  0  0  0  0  0  0  0
  -29.1303  -15.1789   20.1417 N   0  0  0  0  0  0  0  0  0  0  0  0
  -24.5417  -14.3683   19.3731 N   0  0  0  0  0  0  0  0  0  0  0  0
  -21.9543  -11.3833   21.5620 N   0  0  0  0  0  0  0  0  0  0  0  0
  -28.2045  -17.3470   20.0755 N   0  0  0  0  0  0  0  0  0  0  0  0
  -25.4575  -33.9051   24.3748 N   0  0  0  0  0  0  0  0  0  0  0  0
  -20.6860  -34.5043   19.5442 N   0  0  0  0  0  0  0  0  0  0  0  0
  -21.1998  -34.3495   15.9693 N   0  3  0  0  0  0  0  0  0  0  0  0
  -21.9261  -13.2806   20.2743 O   0  0  0  0  0  0  0  0  0  0  0  0
  -23.4638  -32.8054   23.8866 O   0  0  0  0  0  0  0  0  0  0  0  0
  -22.2517  -35.6052   21.6761 O   0  0  0  0  0  0  0  0  0  0  0  0
  -20.9801  -32.6417   18.1945 O   0  0  0  0  0  0  0  0  0  0  0  0
  -30.3808  -16.9633   19.3696 O   0  0  0  0  0  0  0  0  0  0  0  0
  -23.7399   -6.9390   24.4071 O   0  0  0  0  0  0  0  0  0  0  0  0
  -25.7971  -18.7494   20.5060 O   0  0  0  0  0  0  0  0  0  0  0  0
  -25.7743  -28.1086   19.8733 O   0  0  0  0  0  0  0  0  0  1  0  0
  -28.2190  -22.7348   21.5173 O   0  0  0  0  0  0  0  0  0  0  0  0
  -19.6048   -3.7008   22.7280 F   0  0  0  0  0  0  0  0  0  0  0  0
  -24.1781   -4.2767   23.8046 F   0  0  0  0  0  0  0  0  0  0  0  0
  1  2  1  0  0  0  0
  1  5  2  0  0  0  0
  2  6  2  0  0  0  0
  3  9  2  0  0  0  0
  3 18  1  0  0  0  0
  4 10  1  0  0  0  0
  4 18  2  0  0  0  0
  5 20  1  0  0  0  0
  6 22  1  0  0  0  0
  7 11  2  0  0  0  0
  7 21  1  0  0  0  0
  8 12  2  0  0  0  0
  8 24  1  0  0  0  0
  9 25  1  0  0  0  0
 10 25  2  0  0  0  0
 11 26  1  0  0  0  0
 12 27  1  0  0  0  0
 13 14  2  0  0  0  0
 13 28  1  0  0  0  0
 14 30  1  0  0  0  0
 15 23  1  0  0  0  0
 15 26  2  0  0  0  0
 16 27  2  0  0  0  0
 16 29  1  0  0  0  0
 17 30  2  0  0  0  0
 17 31  1  0  0  0  0
 18 32  1  0  0  0  0
 19 32  1  0  0  0  0
 19 33  2  0  0  0  0
 19 34  1  0  0  0  0
 20 22  2  0  0  0  0
 20 39  1  0  0  0  0
 21 23  2  0  0  0  0
 21 40  1  0  0  0  0
 22 48  1  0  0  0  0
 23 41  1  0  0  0  0
 24 29  2  0  0  0  0
 24 70  1  0  0  0  0
 25 79  1  0  0  0  0
 26 81  1  0  0  0  0
 27 82  1  0  0  0  0
 28 31  2  0  0  0  0
 28 79  1  0  0  0  0
 29 80  1  0  0  0  0
 30 83  1  0  0  0  0
 31 84  1  0  0  0  0
 32 64  2  0  0  0  0
 33 65  1  0  0  0  0
 33 68  1  0  0  0  0
 34 69  1  0  0  0  0
 34 74  2  0  0  0  0
 35 49  1  0  0  0  0
 35 71  1  0  0  0  0
 35 75  2  0  0  0  0
 36 61  1  0  0  0  0
 36 66  1  0  0  0  0
 36 76  2  0  0  0  0
 37 62  1  0  0  0  0
 37 72  1  0  0  0  0
 37 77  2  0  0  0  0
 38 67  1  0  0  0  0
 38 70  1  0  0  0  0
 38 78  2  0  0  0  0
 39 42  1  0  0  0  0
 40 49  1  0  0  0  0
 41 66  1  0  0  0  0
 42 44  1  0  0  0  0
 43 45  1  0  0  0  0
 43 46  1  0  0  0  0
 44 48  1  0  0  0  0
 45 50  1  0  0  0  0
 46 67  1  0  0  0  0
 47 50  1  0  0  0  0
 47 67  1  0  0  0  0
 48 71  1  0  0  0  0
 49 66  1  0  0  0  0
 50 65  1  0  0  0  0
 51 62  1  0  0  0  0
 52 63  1  0  0  0  0
 53 63  1  0  0  0  0
 54 63  1  0  0  0  0
 55 73  1  0  0  0  0
 56 80  1  0  0  0  0
 57 58  1  0  0  0  0
 57 59  1  0  0  0  0
 58 60  1  0  0  0  0
 59 81  1  0  0  0  0
 60 82  1  0  0  0  0
 61 63  1  0  0  0  0
 61 72  1  0  0  0  0
 62 73  1  0  0  0  0
 64 65  1  0  0  0  0
M  CHG  1  73   1
M  ISO  4  38 100  59 101  70 100  81 101
M  END
> <Batch ID>
0004

> <Smiles>
CNC(C)C(=O)NC(C(=O)N1Cc2cc([101O:1][101CH2:1]CCCOc3ccc([100NH:0][100C:0](=O)N4CCCC(n5nc(-c6ccc(Oc7ccc(F)cc7F)cc6)c(C(N)=O)c5N)C4)c(OC)c3)ccc2CC1C(=O)NC1CCCc2ccccc21)C(C)(C)C

> <Shape>
0.261

> <Color>
0.110

> <Negative vol penalty>
0.000

$$$$

  -OEChem-04052315243D

 82 90  0     1  0  0  0  0  0999 V2000
  -21.8538  -11.6999   19.8853 C   0  0  0  0  0  0  0  0  0  0  0  0
  -21.5972  -13.0351   20.1796 C   0  0  0  0  0  0  0  0  0  0  0  0
  -29.7925  -25.6249   20.2667 C   0  0  0  0  0  0  0  0  0  0  0  0
  -28.5620  -24.5229   22.0298 C   0  0  0  0  0  0  0  0  0  0  0  0
  -23.1418  -11.1886   20.0381 C   0  0  0  0  0  0  0  0  0  0  0  0
  -22.6285  -13.8596   20.6281 C   0  0  0  0  0  0  0  0  0  0  0  0
  -23.3616  -19.8205   19.4298 C   0  0  0  0  0  0  0  0  0  0  0  0
  -18.1396  -29.1458   21.9260 C   0  0  0  0  0  0  0  0  0  0  0  0
  -19.4946  -29.4360   22.0844 C   0  0  0  0  0  0  0  0  0  0  0  0
  -30.9806  -25.0836   20.7576 C   0  0  0  0  0  0  0  0  0  0  0  0
  -29.7501  -23.9815   22.5207 C   0  0  0  0  0  0  0  0  0  0  0  0
  -23.0555  -20.9685   20.1593 C   0  0  0  0  0  0  0  0  0  0  0  0
  -33.1493  -25.7082   23.2738 C   0  0  0  0  0  0  0  0  0  0  0  0
  -34.2526  -26.5554   23.3771 C   0  0  0  0  0  0  0  0  0  0  0  0
  -25.3214  -21.0416   20.9837 C   0  0  0  0  0  0  0  0  0  0  0  0
  -18.5483  -26.8644   22.6077 C   0  0  0  0  0  0  0  0  0  0  0  0
  -35.4871  -25.1323   21.8646 C   0  0  0  0  0  0  0  0  0  0  0  0
  -28.5832  -25.3446   20.9028 C   0  0  0  0  0  0  0  0  0  0  0  0
  -26.4934  -25.3356   19.4398 C   0  0  0  0  0  0  0  0  0  0  0  0
  -24.1915  -12.0096   20.4794 C   0  0  0  0  0  0  0  0  0  0  0  0
  -24.6492  -19.2673   19.4804 C   0  0  0  0  0  0  0  0  0  0  0  0
  -23.9315  -13.3585   20.7882 C   0  0  0  0  0  0  0  0  0  0  0  0
  -25.6420  -19.8881   20.2519 C   0  0  0  0  0  0  0  0  0  0  0  0
  -17.6663  -27.8600   22.1877 C   0  0  0  0  0  0  0  0  0  0  0  0
  -20.3766  -28.4403   22.5045 C   0  0  0  0  0  0  0  0  0  0  0  0
  -30.9594  -24.2619   21.8846 C   0  0  0  0  0  0  0  0  0  0  0  0
  -24.0346  -21.5776   20.9387 C   0  0  0  0  0  0  0  0  0  0  0  0
  -33.2150  -24.5730   22.4659 C   0  0  0  0  0  0  0  0  0  0  0  0
  -19.9034  -27.1545   22.7662 C   0  0  0  0  0  0  0  0  0  0  0  0
  -35.4215  -26.2675   22.6726 C   0  0  0  0  0  0  0  0  0  0  0  0
  -34.3839  -24.2851   21.7613 C   0  0  0  0  0  0  0  0  0  0  0  0
  -27.3556  -25.9039   20.3966 C   0  0  0  0  0  0  0  0  0  0  0  0
  -25.4787  -26.2513   19.3051 C   0  0  0  0  0  0  0  0  0  0  0  0
  -26.6002  -24.0911   18.7358 C   0  0  0  0  0  0  0  0  0  0  0  0
  -25.8613  -16.4904   20.4412 C   0  0  0  0  0  0  0  0  0  0  0  0
  -28.6046  -17.7056   19.2084 C   0  0  0  0  0  0  0  0  0  0  0  0
  -30.4130  -20.4623   18.3269 C   0  0  0  0  0  0  0  0  0  0  0  0
  -22.3698  -29.9794   22.4351 C   0  0  0  0  0  0  0  0  0  0  0  0
  -25.5572  -11.4001   20.6744 C   0  0  0  0  0  0  0  0  0  0  0  0
  -24.9707  -18.0439   18.6666 C   0  0  0  0  0  0  0  0  0  0  0  0
  -27.0451  -19.3454   20.3241 C   0  0  0  0  0  0  0  0  0  0  0  0
  -26.6737  -12.4338   20.7965 C   0  0  0  0  0  0  0  0  0  0  0  0
  -24.9862  -31.0766   20.2838 C   0  0  0  0  0  0  0  0  0  0  0  0
  -26.2695  -13.5449   21.7603 C   0  0  0  0  0  0  0  0  0  0  0  0
  -25.7807  -29.7999   19.9990 C   0  0  0  0  0  0  0  0  0  0  0  0
  -24.4631  -31.1107   21.7188 C   0  0  0  0  0  0  0  0  0  0  0  0
  -24.4911  -28.6505   21.8436 C   0  0  0  0  0  0  0  0  0  0  0  0
  -25.0291  -14.2907   21.2535 C   0  0  1  0  0  0  0  0  0  0  0  0
  -26.1752  -17.2727   19.1974 C   0  0  1  0  0  0  0  0  0  0  0  0
  -24.9833  -28.5406   20.3913 C   0  0  2  0  0  0  0  0  0  0  0  0
  -16.2175  -27.5502   22.0181 C   0  0  0  0  0  0  0  0  0  0  0  0
  -32.3033  -21.7923   17.3494 C   0  0  0  0  0  0  0  0  0  0  0  0
  -29.9220  -17.1289   21.8995 C   0  0  0  0  0  0  0  0  0  0  0  0
  -31.7925  -18.6532   21.2317 C   0  0  0  0  0  0  0  0  0  0  0  0
  -31.3358  -16.5884   19.9087 C   0  0  0  0  0  0  0  0  0  0  0  0
  -29.1524  -20.5044   15.6496 C   0  0  0  0  0  0  0  0  0  0  0  0
  -22.2489  -24.4287   22.4317 C   0  0  0  0  0  0  0  0  0  0  0  0
  -22.4042  -23.1951   21.5562 C   0  0  0  0  0  0  0  0  0  1  0  0
  -20.8468  -25.0115   22.3499 C   0  0  0  0  0  0  0  0  0  0  0  0
  -29.7398  -18.5425   19.7467 C   0  0  1  0  0  0  0  0  0  0  0  0
  -31.1889  -20.7970   17.0658 C   0  0  2  0  0  0  0  0  0  0  0  0
  -30.6707  -17.7376   20.6970 C   0  0  0  0  0  0  0  0  0  0  0  0
  -26.9261  -27.0890   20.8383 N   0  0  0  0  0  0  0  0  0  0  0  0
  -25.7830  -27.2729   20.1559 N   0  0  0  0  0  0  0  0  0  0  0  0
  -27.3085  -18.1437   19.5154 N   0  0  0  0  0  0  0  0  0  0  0  0
  -23.7145  -29.8880   22.0176 N   0  0  0  0  0  0  0  0  0  0  0  0
  -24.3647  -26.2743   18.5429 N   0  0  0  0  0  0  0  0  0  0  0  0
  -27.7066  -23.2703   18.9939 N   0  0  0  0  0  0  0  0  0  0  0  0
  -21.7507  -28.7500   22.6586 N   0  0  0  0  0  0  0  0  0  0  0  0
  -25.3902  -15.2140   20.1992 N   0  0  0  0  0  0  0  0  0  0  0  0
  -30.4170  -19.1077   18.5846 N   0  0  0  0  0  0  0  0  0  0  0  0
  -30.2820  -21.3865   16.0407 N   0  3  0  0  0  0  0  0  0  0  0  0
  -25.7485  -23.7256   17.8905 O   0  0  0  0  0  0  0  0  0  0  0  0
  -26.0350  -17.0060   21.5392 O   0  0  0  0  0  0  0  0  0  0  0  0
  -28.8582  -16.7043   18.5342 O   0  0  0  0  0  0  0  0  0  0  0  0
  -29.8620  -21.3174   19.0166 O   0  0  0  0  0  0  0  0  0  0  0  0
  -21.8007  -31.0671   22.5571 O   0  0  0  0  0  0  0  0  0  0  0  0
  -32.1186  -23.7333   22.3637 O   0  0  0  0  0  0  0  0  0  0  0  0
  -23.7383  -22.6978   21.6522 O   0  0  0  0  0  0  0  0  0  1  0  0
  -20.7533  -26.1617   23.1793 O   0  0  0  0  0  0  0  0  0  0  0  0
  -36.4803  -27.0820   22.7707 F   0  0  0  0  0  0  0  0  0  0  0  0
  -34.4525  -23.1966   20.9827 F   0  0  0  0  0  0  0  0  0  0  0  0
  1  2  1  0  0  0  0
  1  5  2  0  0  0  0
  2  6  2  0  0  0  0
  3 10  2  0  0  0  0
  3 18  1  0  0  0  0
  4 11  1  0  0  0  0
  4 18  2  0  0  0  0
  5 20  1  0  0  0  0
  6 22  1  0  0  0  0
  7 12  2  0  0  0  0
  7 21  1  0  0  0  0
  8  9  2  0  0  0  0
  8 24  1  0  0  0  0
  9 25  1  0  0  0  0
 10 26  1  0  0  0  0
 11 26  2  0  0  0  0
 12 27  1  0  0  0  0
 13 14  2  0  0  0  0
 13 28  1  0  0  0  0
 14 30  1  0  0  0  0
 15 23  1  0  0  0  0
 15 27  2  0  0  0  0
 16 24  2  0  0  0  0
 16 29  1  0  0  0  0
 17 30  2  0  0  0  0
 17 31  1  0  0  0  0
 18 32  1  0  0  0  0
 19 32  1  0  0  0  0
 19 33  2  0  0  0  0
 19 34  1  0  0  0  0
 20 22  2  0  0  0  0
 20 39  1  0  0  0  0
 21 23  2  0  0  0  0
 21 40  1  0  0  0  0
 22 48  1  0  0  0  0
 23 41  1  0  0  0  0
 24 51  1  0  0  0  0
 25 29  2  0  0  0  0
 25 69  1  0  0  0  0
 26 78  1  0  0  0  0
 27 79  1  0  0  0  0
 28 31  2  0  0  0  0
 28 78  1  0  0  0  0
 29 80  1  0  0  0  0
 30 81  1  0  0  0  0
 31 82  1  0  0  0  0
 32 63  2  0  0  0  0
 33 64  1  0  0  0  0
 33 67  1  0  0  0  0
 34 68  1  0  0  0  0
 34 73  2  0  0  0  0
 35 49  1  0  0  0  0
 35 70  1  0  0  0  0
 35 74  2  0  0  0  0
 36 60  1  0  0  0  0
 36 65  1  0  0  0  0
 36 75  2  0  0  0  0
 37 61  1  0  0  0  0
 37 71  1  0  0  0  0
 37 76  2  0  0  0  0
 38 66  1  0  0  0  0
 38 69  1  0  0  0  0
 38 77  2  0  0  0  0
 39 42  1  0  0  0  0
 40 49  1  0  0  0  0
 41 65  1  0  0  0  0
 42 44  1  0  0  0  0
 43 45  1  0  0  0  0
 43 46  1  0  0  0  0
 44 48  1  0  0  0  0
 45 50  1  0  0  0  0
 46 66  1  0  0  0  0
 47 50  1  0  0  0  0
 47 66  1  0  0  0  0
 48 70  1  0  0  0  0
 49 65  1  0  0  0  0
 50 64  1  0  0  0  0
 52 61  1  0  0  0  0
 53 62  1  0  0  0  0
 54 62  1  0  0  0  0
 55 62  1  0  0  0  0
 56 72  1  0  0  0  0
 57 58  1  0  0  0  0
 57 59  1  0  0  0  0
 58 79  1  0  0  0  0
 59 80  1  0  0  0  0
 60 62  1  0  0  0  0
 60 71  1  0  0  0  0
 61 72  1  0  0  0  0
 63 64  1  0  0  0  0
M  CHG  1  72   1
M  ISO  4  38 100  58 101  69 100  79 101
M  END
> <Batch ID>
0004

> <Smiles>
CNC(C)C(=O)NC(C(=O)N1Cc2cc([101O:1][101CH2:1]CCOc3cc(C)ccc3[100NH:0][100C:0](=O)N3CCCC(n4nc(-c5ccc(Oc6ccc(F)cc6F)cc5)c(C(N)=O)c4N)C3)ccc2CC1C(=O)NC1CCCc2ccccc21)C(C)(C)C

> <Shape>
0.231

> <Color>
0.084

> <Negative vol penalty>
0.000

$$$$

  -OEChem-04052315243D

 93101  0     1  0  0  0  0  0999 V2000
  -28.8720  -24.6075   17.0169 C   0  0  0  0  0  0  0  0  0  0  0  0
  -27.6788  -24.7013   17.7261 C   0  0  0  0  0  0  0  0  0  0  0  0
  -30.3515  -13.1675   19.6952 C   0  0  0  0  0  0  0  0  0  0  0  0
  -27.9916  -13.5280   20.0670 C   0  0  0  0  0  0  0  0  0  0  0  0
  -30.0093  -25.2695   17.4776 C   0  0  0  0  0  0  0  0  0  0  0  0
  -27.6225  -25.4565   18.8970 C   0  0  0  0  0  0  0  0  0  0  0  0
  -23.4986  -28.3869   19.1224 C   0  0  0  0  0  0  0  0  0  0  0  0
  -23.5078  -22.5502   21.7057 C   0  0  0  0  0  0  0  0  0  0  0  0
  -21.8414  -21.2985   22.9278 C   0  0  0  0  0  0  0  0  0  0  0  0
  -22.5215  -23.0130   20.8347 C   0  0  0  0  0  0  0  0  0  0  0  0
  -20.8550  -21.7614   22.0569 C   0  0  0  0  0  0  0  0  0  0  0  0
  -30.0575  -12.0533   18.9094 C   0  0  0  0  0  0  0  0  0  0  0  0
  -27.6976  -12.4137   19.2811 C   0  0  0  0  0  0  0  0  0  0  0  0
  -22.2976  -27.7703   19.4709 C   0  0  0  0  0  0  0  0  0  0  0  0
  -26.3386   -9.4535   17.6686 C   0  0  0  0  0  0  0  0  0  0  0  0
  -25.3815   -8.5580   18.1456 C   0  0  0  0  0  0  0  0  0  0  0  0
  -22.5442  -28.5803   21.7297 C   0  0  0  0  0  0  0  0  0  0  0  0
  -26.7359   -8.1542   20.1051 C   0  0  0  0  0  0  0  0  0  0  0  0
  -29.3185  -13.9049   20.2741 C   0  0  0  0  0  0  0  0  0  0  0  0
  -30.3860  -15.0844   22.2683 C   0  0  0  0  0  0  0  0  0  0  0  0
  -29.9644  -26.0410   18.6495 C   0  0  0  0  0  0  0  0  0  0  0  0
  -24.2381  -29.0968   20.0793 C   0  0  0  0  0  0  0  0  0  0  0  0
  -28.7606  -26.1284   19.3745 C   0  0  0  0  0  0  0  0  0  0  0  0
  -23.7529  -29.2071   21.3902 C   0  0  0  0  0  0  0  0  0  0  0  0
  -23.1678  -21.6928   22.7522 C   0  0  0  0  0  0  0  0  0  0  0  0
  -21.1951  -22.6187   21.0103 C   0  0  0  0  0  0  0  0  0  0  0  0
  -28.7306  -11.6764   18.7022 C   0  0  0  0  0  0  0  0  0  0  0  0
  -21.8217  -27.8645   20.7754 C   0  0  0  0  0  0  0  0  0  0  0  0
  -27.4944   -9.6994   18.4098 C   0  0  0  0  0  0  0  0  0  0  0  0
  -25.5801   -7.9084   19.3638 C   0  0  0  0  0  0  0  0  0  0  0  0
  -27.6930   -9.0498   19.6281 C   0  0  0  0  0  0  0  0  0  0  0  0
  -29.6216  -15.0557   21.0865 C   0  0  0  0  0  0  0  0  0  0  0  0
  -30.3764  -16.4034   22.6514 C   0  0  0  0  0  0  0  0  0  0  0  0
  -31.0457  -14.0146   22.9581 C   0  0  0  0  0  0  0  0  0  0  0  0
  -27.1382  -28.7993   21.3460 C   0  0  0  0  0  0  0  0  0  0  0  0
  -26.3855  -31.6212   22.7576 C   0  0  0  0  0  0  0  0  0  0  0  0
  -24.9488  -19.1669   20.8963 C   0  0  0  0  0  0  0  0  0  0  0  0
  -23.9589  -33.7652   23.8354 C   0  0  0  0  0  0  0  0  0  0  0  0
  -20.2789  -22.8043   18.7361 C   0  0  0  0  0  0  0  0  0  0  0  0
  -26.6443  -20.7867   21.8168 C   0  0  0  0  0  0  0  0  0  0  0  0
  -31.2317  -26.7000   19.1337 C   0  0  0  0  0  0  0  0  0  0  0  0
  -25.5182  -29.7787   19.6809 C   0  0  0  0  0  0  0  0  0  0  0  0
  -24.4988  -29.9747   22.4499 C   0  0  0  0  0  0  0  0  0  0  0  0
  -30.9924  -27.7849   20.1807 C   0  0  0  0  0  0  0  0  0  0  0  0
  -30.0499  -20.8265   20.8583 C   0  0  0  0  0  0  0  0  0  0  0  0
  -30.0193  -27.2922   21.2471 C   0  0  0  0  0  0  0  0  0  0  0  0
  -30.4047  -19.3404   20.9294 C   0  0  0  0  0  0  0  0  0  0  0  0
  -28.6543  -21.0466   20.2755 C   0  0  0  0  0  0  0  0  0  0  0  0
  -27.9342  -18.8117   21.0461 C   0  0  0  0  0  0  0  0  0  0  0  0
  -28.6534  -26.9580   20.6355 C   0  0  1  0  0  0  0  0  0  0  0  0
  -26.4472  -30.0426   20.8619 C   0  0  1  0  0  0  0  0  0  0  0  0
  -29.3145  -18.5411   21.6672 C   0  0  1  0  0  0  0  0  0  0  0  0
  -25.2689  -19.5461   19.4694 C   0  0  0  0  0  0  0  0  0  0  0  0
  -22.9571  -35.8658   24.7740 C   0  0  0  0  0  0  0  0  0  0  0  0
  -25.9509  -19.4206   24.2133 C   0  0  0  0  0  0  0  0  0  0  0  0
  -20.8109  -20.3045   19.1706 C   0  0  0  0  0  0  0  0  0  0  0  0
  -20.1560  -21.0983   16.9234 C   0  0  0  0  0  0  0  0  0  0  0  0
  -22.3908  -21.7396   17.7920 C   0  0  0  0  0  0  0  0  0  0  0  0
  -27.0791  -30.3253   25.4315 C   0  0  0  0  0  0  0  0  0  0  0  0
  -25.8736  -32.1992   26.5732 C   0  0  0  0  0  0  0  0  0  0  0  0
  -27.8820  -32.6797   25.1739 C   0  0  0  0  0  0  0  0  0  0  0  0
  -23.8018  -35.0233   21.1612 C   0  0  0  0  0  0  0  0  0  0  0  0
  -24.2359  -21.1917   23.6951 C   0  0  0  0  0  0  0  0  0  0  0  0
  -19.4939  -25.1666   21.3271 C   0  0  0  0  0  0  0  0  0  0  0  0
  -19.0544  -23.8773   20.6466 C   0  0  0  0  0  0  0  0  0  0  0  0
  -20.2930  -26.0805   20.4060 C   0  0  0  0  0  0  0  0  0  1  0  0
  -25.7148  -32.0256   24.0482 C   0  0  1  0  0  0  0  0  0  0  0  0
  -23.7804  -35.2610   23.6475 C   0  0  2  0  0  0  0  0  0  0  0  0
  -24.8802  -19.8772   23.2274 C   0  0  1  0  0  0  0  0  0  0  0  0
  -20.9330  -21.4949   18.2068 C   0  0  0  0  0  0  0  0  0  0  0  0
  -26.6241  -31.7913   25.2874 C   0  0  0  0  0  0  0  0  0  0  0  0
  -29.1598  -16.2606   20.7416 N   0  0  0  0  0  0  0  0  0  0  0  0
  -29.6354  -17.0589   21.7125 N   0  0  0  0  0  0  0  0  0  0  0  0
  -25.7486  -30.6185   22.0128 N   0  0  0  0  0  0  0  0  0  0  0  0
  -27.6624  -20.2499   21.0097 N   0  0  0  0  0  0  0  0  0  0  0  0
  -30.9295  -17.0548   23.6964 N   0  0  0  0  0  0  0  0  0  0  0  0
  -30.3347  -13.3158   23.9432 N   0  0  0  0  0  0  0  0  0  0  0  0
  -27.9029  -28.1693   20.3827 N   0  0  0  0  0  0  0  0  0  0  0  0
  -25.2909  -33.4103   23.8714 N   0  0  0  0  0  0  0  0  0  0  0  0
  -20.2083  -23.0817   20.1396 N   0  0  0  0  0  0  0  0  0  0  0  0
  -25.4634  -20.0160   21.9009 N   0  0  0  0  0  0  0  0  0  0  0  0
  -23.0897  -35.5421   22.3573 N   0  3  0  0  0  0  0  0  0  0  0  0
  -32.2361  -13.6987   22.7198 O   0  0  0  0  0  0  0  0  0  0  0  0
  -26.9898  -28.4390   22.5078 O   0  0  0  0  0  0  0  0  0  0  0  0
  -27.4321  -32.1795   22.4192 O   0  0  0  0  0  0  0  0  0  0  0  0
  -24.2850  -18.1530   21.1260 O   0  0  0  0  0  0  0  0  0  0  0  0
  -23.0116  -32.9897   23.9435 O   0  0  0  0  0  0  0  0  0  0  0  0
  -19.7963  -23.6011   17.9190 O   0  0  0  0  0  0  0  0  0  0  0  0
  -26.7551  -21.8558   22.4264 O   0  0  0  0  0  0  0  0  0  0  0  0
  -28.4433  -10.5893   17.9352 O   0  0  0  0  0  0  0  0  0  0  0  0
  -20.6418  -27.2588   21.1208 O   0  0  0  0  0  0  0  0  0  1  0  0
  -24.6601   -7.0496   19.8225 F   0  0  0  0  0  0  0  0  0  0  0  0
  -28.8008   -9.2828   20.3452 F   0  0  0  0  0  0  0  0  0  0  0  0
  1  2  1  0  0  0  0
  1  5  2  0  0  0  0
  2  6  2  0  0  0  0
  3 12  2  0  0  0  0
  3 19  1  0  0  0  0
  4 13  1  0  0  0  0
  4 19  2  0  0  0  0
  5 21  1  0  0  0  0
  6 23  1  0  0  0  0
  7 14  2  0  0  0  0
  7 22  1  0  0  0  0
  8 10  2  0  0  0  0
  8 25  1  0  0  0  0
  9 11  1  0  0  0  0
  9 25  2  0  0  0  0
 10 26  1  0  0  0  0
 11 26  2  0  0  0  0
 12 27  1  0  0  0  0
 13 27  2  0  0  0  0
 14 28  1  0  0  0  0
 15 16  2  0  0  0  0
 15 29  1  0  0  0  0
 16 30  1  0  0  0  0
 17 24  1  0  0  0  0
 17 28  2  0  0  0  0
 18 30  2  0  0  0  0
 18 31  1  0  0  0  0
 19 32  1  0  0  0  0
 20 32  1  0  0  0  0
 20 33  2  0  0  0  0
 20 34  1  0  0  0  0
 21 23  2  0  0  0  0
 21 41  1  0  0  0  0
 22 24  2  0  0  0  0
 22 42  1  0  0  0  0
 23 50  1  0  0  0  0
 24 43  1  0  0  0  0
 25 63  1  0  0  0  0
 26 80  1  0  0  0  0
 27 90  1  0  0  0  0
 28 91  1  0  0  0  0
 29 31  2  0  0  0  0
 29 90  1  0  0  0  0
 30 92  1  0  0  0  0
 31 93  1  0  0  0  0
 32 72  2  0  0  0  0
 33 73  1  0  0  0  0
 33 76  1  0  0  0  0
 34 77  1  0  0  0  0
 34 83  2  0  0  0  0
 35 51  1  0  0  0  0
 35 78  1  0  0  0  0
 35 84  2  0  0  0  0
 36 67  1  0  0  0  0
 36 74  1  0  0  0  0
 36 85  2  0  0  0  0
 37 53  1  0  0  0  0
 37 81  1  0  0  0  0
 37 86  2  0  0  0  0
 38 68  1  0  0  0  0
 38 79  1  0  0  0  0
 38 87  2  0  0  0  0
 39 70  1  0  0  0  0
 39 80  1  0  0  0  0
 39 88  2  0  0  0  0
 40 75  1  0  0  0  0
 40 81  1  0  0  0  0
 40 89  2  0  0  0  0
 41 44  1  0  0  0  0
 42 51  1  0  0  0  0
 43 74  1  0  0  0  0
 44 46  1  0  0  0  0
 45 47  1  0  0  0  0
 45 48  1  0  0  0  0
 46 50  1  0  0  0  0
 47 52  1  0  0  0  0
 48 75  1  0  0  0  0
 49 52  1  0  0  0  0
 49 75  1  0  0  0  0
 50 78  1  0  0  0  0
 51 74  1  0  0  0  0
 52 73  1  0  0  0  0
 54 68  1  0  0  0  0
 55 69  1  0  0  0  0
 56 70  1  0  0  0  0
 57 70  1  0  0  0  0
 58 70  1  0  0  0  0
 59 71  1  0  0  0  0
 60 71  1  0  0  0  0
 61 71  1  0  0  0  0
 62 82  1  0  0  0  0
 63 69  1  0  0  0  0
 64 65  1  0  0  0  0
 64 66  1  0  0  0  0
 65 80  1  0  0  0  0
 66 91  1  0  0  0  0
 67 71  1  0  0  0  0
 67 79  1  0  0  0  0
 68 82  1  0  0  0  0
 69 81  1  0  0  0  0
 72 73  1  0  0  0  0
M  CHG  1  82   1
M  ISO  4  40 100  66 101  81 100  91 101
M  END
> <Batch ID>
0004

> <Smiles>
CNC(C)C(=O)NC(C(=O)N1Cc2cc([101O:1][101CH2:1]CCN(C(=O)C(C)(C)C)c3ccc(CC(C)[100N:0](C(C)=O)[100C:0](=O)N4CCCC(n5nc(-c6ccc(Oc7ccc(F)cc7F)cc6)c(C(N)=O)c5N)C4)cc3)ccc2CC1C(=O)NC1CCCc2ccccc21)C(C)(C)C

> <Shape>
0.281

> <Color>
0.070

> <Negative vol penalty>
0.000

$$$$

  -OEChem-04052315243D

 82 90  0     1  0  0  0  0  0999 V2000
  -23.3379  -29.2174   24.4606 C   0  0  0  0  0  0  0  0  0  0  0  0
  -24.2966  -28.2121   24.5184 C   0  0  0  0  0  0  0  0  0  0  0  0
  -29.3590  -11.3840   19.0636 C   0  0  0  0  0  0  0  0  0  0  0  0
  -30.5095  -12.1623   19.1912 C   0  0  0  0  0  0  0  0  0  0  0  0
  -22.4844  -20.8904   21.0705 C   0  0  0  0  0  0  0  0  0  0  0  0
  -24.8876  -20.8766   21.3187 C   0  0  0  0  0  0  0  0  0  0  0  0
  -23.2404  -30.0177   23.3243 C   0  0  0  0  0  0  0  0  0  0  0  0
  -25.1658  -28.0146   23.4450 C   0  0  0  0  0  0  0  0  0  0  0  0
  -29.4340  -23.7624   22.5347 C   0  0  0  0  0  0  0  0  0  0  0  0
  -28.1360  -11.8653   19.5308 C   0  0  0  0  0  0  0  0  0  0  0  0
  -30.4370  -13.4218   19.7862 C   0  0  0  0  0  0  0  0  0  0  0  0
  -22.3954  -21.9347   21.9907 C   0  0  0  0  0  0  0  0  0  0  0  0
  -24.7986  -21.9210   22.2389 C   0  0  0  0  0  0  0  0  0  0  0  0
  -29.5224  -22.5033   21.9426 C   0  0  0  0  0  0  0  0  0  0  0  0
  -21.5646  -24.8459   24.0031 C   0  0  0  0  0  0  0  0  0  0  0  0
  -20.7239  -25.9145   23.6920 C   0  0  0  0  0  0  0  0  0  0  0  0
  -30.3604  -23.5193   19.9215 C   0  0  0  0  0  0  0  0  0  0  0  0
  -22.0189  -26.3534   21.7001 C   0  0  0  0  0  0  0  0  0  0  0  0
  -23.7306  -20.3612   20.7345 C   0  0  0  0  0  0  0  0  0  0  0  0
  -23.9682  -19.3887   18.3881 C   0  0  0  0  0  0  0  0  0  0  0  0
  -24.1010  -29.8211   22.2318 C   0  0  0  0  0  0  0  0  0  0  0  0
  -29.7984  -24.9123   21.8197 C   0  0  0  0  0  0  0  0  0  0  0  0
  -25.0989  -28.8276   22.2990 C   0  0  0  0  0  0  0  0  0  0  0  0
  -30.2781  -24.7915   20.5077 C   0  0  0  0  0  0  0  0  0  0  0  0
  -28.0635  -13.1248   20.1258 C   0  0  0  0  0  0  0  0  0  0  0  0
  -23.5524  -22.4501   22.5749 C   0  0  0  0  0  0  0  0  0  0  0  0
  -29.9829  -22.3818   20.6348 C   0  0  0  0  0  0  0  0  0  0  0  0
  -29.2140  -13.9031   20.2535 C   0  0  0  0  0  0  0  0  0  0  0  0
  -22.6326  -24.5311   23.1629 C   0  0  0  0  0  0  0  0  0  0  0  0
  -20.9510  -26.6682   22.5405 C   0  0  0  0  0  0  0  0  0  0  0  0
  -22.8597  -25.2848   22.0114 C   0  0  0  0  0  0  0  0  0  0  0  0
  -23.8232  -19.2820   19.7843 C   0  0  0  0  0  0  0  0  0  0  0  0
  -24.0072  -18.0886   17.9467 C   0  0  0  0  0  0  0  0  0  0  0  0
  -24.0596  -20.5583   17.5640 C   0  0  0  0  0  0  0  0  0  0  0  0
  -28.2752  -27.5296   20.8536 C   0  0  0  0  0  0  0  0  0  0  0  0
  -31.2465  -28.4461   19.9296 C   0  0  0  0  0  0  0  0  0  0  0  0
  -34.4056  -27.5357   19.0140 C   0  0  0  0  0  0  0  0  0  0  0  0
  -25.5854  -12.9422   20.5406 C   0  0  0  0  0  0  0  0  0  0  0  0
  -23.9568  -30.7212   21.0301 C   0  0  0  0  0  0  0  0  0  0  0  0
  -29.7225  -26.2607   22.4819 C   0  0  0  0  0  0  0  0  0  0  0  0
  -30.7010  -25.9932   19.7042 C   0  0  0  0  0  0  0  0  0  0  0  0
  -24.6177  -30.1526   19.7786 C   0  0  0  0  0  0  0  0  0  0  0  0
  -22.4361  -13.7052   19.0654 C   0  0  0  0  0  0  0  0  0  0  0  0
  -26.0372  -29.7074   20.0971 C   0  0  0  0  0  0  0  0  0  0  0  0
  -22.4501  -15.2312   18.9497 C   0  0  0  0  0  0  0  0  0  0  0  0
  -23.1248  -13.2269   20.3423 C   0  0  0  0  0  0  0  0  0  0  0  0
  -24.4979  -15.2705   20.4301 C   0  0  0  0  0  0  0  0  0  0  0  0
  -26.0351  -28.5743   21.1312 C   0  0  1  0  0  0  0  0  0  0  0  0
  -29.6337  -27.4119   21.4848 C   0  0  1  0  0  0  0  0  0  0  0  0
  -23.8727  -15.7968   19.1279 C   0  0  2  0  0  0  0  0  0  0  0  0
  -36.6005  -28.5057   18.2799 C   0  0  0  0  0  0  0  0  0  0  0  0
  -30.0892  -28.9576   17.1530 C   0  0  0  0  0  0  0  0  0  0  0  0
  -32.4282  -28.9933   16.2609 C   0  0  0  0  0  0  0  0  0  0  0  0
  -31.7106  -30.6901   17.9427 C   0  0  0  0  0  0  0  0  0  0  0  0
  -35.8194  -26.4084   21.3569 C   0  0  0  0  0  0  0  0  0  0  0  0
  -29.8569  -18.7488   20.0456 C   0  0  0  0  0  0  0  0  0  0  0  0
  -29.4243  -17.5241   20.8441 C   0  0  0  0  0  0  0  0  0  0  0  0
  -29.6720  -20.0332   20.8428 C   0  0  0  0  0  0  0  0  0  1  0  0
  -29.5684  -16.2443   20.0327 C   0  0  0  0  0  0  0  0  0  0  0  0
  -32.0690  -28.2962   18.6726 C   0  0  1  0  0  0  0  0  0  0  0  0
  -35.7674  -28.0348   19.4619 C   0  0  2  0  0  0  0  0  0  0  0  0
  -31.5645  -29.2116   17.5215 C   0  0  0  0  0  0  0  0  0  0  0  0
  -23.7733  -18.0143   20.2022 N   0  0  0  0  0  0  0  0  0  0  0  0
  -23.8875  -17.3125   19.0618 N   0  0  0  0  0  0  0  0  0  0  0  0
  -30.6025  -27.2904   20.3935 N   0  0  0  0  0  0  0  0  0  0  0  0
  -24.4692  -13.7995   20.4414 N   0  0  0  0  0  0  0  0  0  0  0  0
  -24.1318  -17.5451   16.7172 N   0  0  0  0  0  0  0  0  0  0  0  0
  -24.0024  -21.8159   18.1800 N   0  0  0  0  0  0  0  0  0  0  0  0
  -26.8141  -13.5995   20.5961 N   0  0  0  0  0  0  0  0  0  0  0  0
  -27.3934  -28.3246   21.5606 N   0  0  0  0  0  0  0  0  0  0  0  0
  -33.4551  -28.5335   19.0610 N   0  0  0  0  0  0  0  0  0  0  0  0
  -36.5131  -26.9495   20.1597 N   0  3  0  0  0  0  0  0  0  0  0  0
  -24.1716  -20.4904   16.3164 O   0  0  0  0  0  0  0  0  0  0  0  0
  -28.0447  -26.9439   19.8022 O   0  0  0  0  0  0  0  0  0  0  0  0
  -31.1838  -29.5465   20.4835 O   0  0  0  0  0  0  0  0  0  0  0  0
  -34.2058  -26.3775   18.6545 O   0  0  0  0  0  0  0  0  0  0  0  0
  -25.4625  -11.7147   20.5465 O   0  0  0  0  0  0  0  0  0  0  0  0
  -23.4659  -23.4694   23.4728 O   0  0  0  0  0  0  0  0  0  0  0  0
  -30.0696  -21.1541   20.0542 O   0  0  0  0  0  0  0  0  0  1  0  0
  -29.1649  -15.1433   20.8352 O   0  0  0  0  0  0  0  0  0  0  0  0
  -20.1426  -27.6934   22.2409 F   0  0  0  0  0  0  0  0  0  0  0  0
  -23.8833  -24.9864   21.1997 F   0  0  0  0  0  0  0  0  0  0  0  0
  1  2  1  0  0  0  0
  1  7  2  0  0  0  0
  2  8  2  0  0  0  0
  3  4  1  0  0  0  0
  3 10  2  0  0  0  0
  4 11  2  0  0  0  0
  5 12  2  0  0  0  0
  5 19  1  0  0  0  0
  6 13  1  0  0  0  0
  6 19  2  0  0  0  0
  7 21  1  0  0  0  0
  8 23  1  0  0  0  0
  9 14  2  0  0  0  0
  9 22  1  0  0  0  0
 10 25  1  0  0  0  0
 11 28  1  0  0  0  0
 12 26  1  0  0  0  0
 13 26  2  0  0  0  0
 14 27  1  0  0  0  0
 15 16  2  0  0  0  0
 15 29  1  0  0  0  0
 16 30  1  0  0  0  0
 17 24  1  0  0  0  0
 17 27  2  0  0  0  0
 18 30  2  0  0  0  0
 18 31  1  0  0  0  0
 19 32  1  0  0  0  0
 20 32  1  0  0  0  0
 20 33  2  0  0  0  0
 20 34  1  0  0  0  0
 21 23  2  0  0  0  0
 21 39  1  0  0  0  0
 22 24  2  0  0  0  0
 22 40  1  0  0  0  0
 23 48  1  0  0  0  0
 24 41  1  0  0  0  0
 25 28  2  0  0  0  0
 25 69  1  0  0  0  0
 26 78  1  0  0  0  0
 27 79  1  0  0  0  0
 28 80  1  0  0  0  0
 29 31  2  0  0  0  0
 29 78  1  0  0  0  0
 30 81  1  0  0  0  0
 31 82  1  0  0  0  0
 32 63  2  0  0  0  0
 33 64  1  0  0  0  0
 33 67  1  0  0  0  0
 34 68  1  0  0  0  0
 34 73  2  0  0  0  0
 35 49  1  0  0  0  0
 35 70  1  0  0  0  0
 35 74  2  0  0  0  0
 36 60  1  0  0  0  0
 36 65  1  0  0  0  0
 36 75  2  0  0  0  0
 37 61  1  0  0  0  0
 37 71  1  0  0  0  0
 37 76  2  0  0  0  0
 38 66  1  0  0  0  0
 38 69  1  0  0  0  0
 38 77  2  0  0  0  0
 39 42  1  0  0  0  0
 40 49  1  0  0  0  0
 41 65  1  0  0  0  0
 42 44  1  0  0  0  0
 43 45  1  0  0  0  0
 43 46  1  0  0  0  0
 44 48  1  0  0  0  0
 45 50  1  0  0  0  0
 46 66  1  0  0  0  0
 47 50  1  0  0  0  0
 47 66  1  0  0  0  0
 48 70  1  0  0  0  0
 49 65  1  0  0  0  0
 50 64  1  0  0  0  0
 51 61  1  0  0  0  0
 52 62  1  0  0  0  0
 53 62  1  0  0  0  0
 54 62  1  0  0  0  0
 55 72  1  0  0  0  0
 56 57  1  0  0  0  0
 56 58  1  0  0  0  0
 57 59  1  0  0  0  0
 58 79  1  0  0  0  0
 59 80  1  0  0  0  0
 60 62  1  0  0  0  0
 60 71  1  0  0  0  0
 61 72  1  0  0  0  0
 63 64  1  0  0  0  0
M  CHG  1  72   1
M  ISO  4  38 100  58 101  69 100  79 101
M  END
> <Batch ID>
0004

> <Smiles>
CNC(C)C(=O)NC(C(=O)N1Cc2cc([101O:1][101CH2:1]CCCOc3ccccc3[100NH:0][100C:0](=O)N3CCCC(n4nc(-c5ccc(Oc6ccc(F)cc6F)cc5)c(C(N)=O)c4N)C3)ccc2CC1C(=O)NC1CCCc2ccccc21)C(C)(C)C

> <Shape>
0.219

> <Color>
0.071

> <Negative vol penalty>
0.000

$$$$

  -OEChem-04052315243D

 83 91  0     1  0  0  0  0  0999 V2000
  -35.1005  -29.2160   18.4481 C   0  0  0  0  0  0  0  0  0  0  0  0
  -34.5698  -27.9313   18.5056 C   0  0  0  0  0  0  0  0  0  0  0  0
  -23.1182   -9.7008   20.0477 C   0  0  0  0  0  0  0  0  0  0  0  0
  -23.7549   -9.9604   22.3637 C   0  0  0  0  0  0  0  0  0  0  0  0
  -34.3657  -30.2950   18.9376 C   0  0  0  0  0  0  0  0  0  0  0  0
  -33.3044  -27.7248   19.0537 C   0  0  0  0  0  0  0  0  0  0  0  0
  -30.4607  -24.6055   16.2556 C   0  0  0  0  0  0  0  0  0  0  0  0
  -29.1499  -18.1610   21.9846 C   0  0  0  0  0  0  0  0  0  0  0  0
  -22.4014   -8.5494   20.3737 C   0  0  0  0  0  0  0  0  0  0  0  0
  -23.0382   -8.8091   22.6898 C   0  0  0  0  0  0  0  0  0  0  0  0
  -30.7212  -23.2399   16.3608 C   0  0  0  0  0  0  0  0  0  0  0  0
  -29.2696  -19.5454   21.8628 C   0  0  0  0  0  0  0  0  0  0  0  0
  -23.4701   -5.4624   22.4798 C   0  0  0  0  0  0  0  0  0  0  0  0
  -24.0809   -4.5365   23.3254 C   0  0  0  0  0  0  0  0  0  0  0  0
  -28.8472  -23.0042   17.8614 C   0  0  0  0  0  0  0  0  0  0  0  0
  -30.8775  -17.8652   20.3218 C   0  0  0  0  0  0  0  0  0  0  0  0
  -22.2867   -4.8093   24.9202 C   0  0  0  0  0  0  0  0  0  0  0  0
  -23.7950  -10.4062   21.0427 C   0  0  0  0  0  0  0  0  0  0  0  0
  -24.0573  -12.9190   20.6898 C   0  0  0  0  0  0  0  0  0  0  0  0
  -33.0867  -30.1029   19.4832 C   0  0  0  0  0  0  0  0  0  0  0  0
  -29.3963  -25.1836   16.9622 C   0  0  0  0  0  0  0  0  0  0  0  0
  -32.5523  -28.8021   19.5522 C   0  0  0  0  0  0  0  0  0  0  0  0
  -28.5737  -24.3769   17.7614 C   0  0  0  0  0  0  0  0  0  0  0  0
  -29.9539  -17.3209   21.2141 C   0  0  0  0  0  0  0  0  0  0  0  0
  -22.3614   -8.1036   21.6948 C   0  0  0  0  0  0  0  0  0  0  0  0
  -29.9162  -22.4396   17.1661 C   0  0  0  0  0  0  0  0  0  0  0  0
  -30.1933  -20.0897   20.9704 C   0  0  0  0  0  0  0  0  0  0  0  0
  -22.2675   -6.0618   22.8544 C   0  0  0  0  0  0  0  0  0  0  0  0
  -30.9972  -19.2496   20.1999 C   0  0  0  0  0  0  0  0  0  0  0  0
  -23.4893   -4.2099   24.5456 C   0  0  0  0  0  0  0  0  0  0  0  0
  -21.6759   -5.7352   24.0746 C   0  0  0  0  0  0  0  0  0  0  0  0
  -24.5360  -11.5953   20.7063 C   0  0  0  0  0  0  0  0  0  0  0  0
  -25.1413  -13.6714   20.3083 C   0  0  0  0  0  0  0  0  0  0  0  0
  -22.7498  -13.4235   20.9922 C   0  0  0  0  0  0  0  0  0  0  0  0
  -29.1481  -27.4034   19.2238 C   0  0  0  0  0  0  0  0  0  0  0  0
  -25.9686  -27.0097   18.7156 C   0  0  0  0  0  0  0  0  0  0  0  0
  -23.4368  -25.0012   17.6189 C   0  0  0  0  0  0  0  0  0  0  0  0
  -30.5522  -14.9402   20.6480 C   0  0  0  0  0  0  0  0  0  0  0  0
  -32.3498  -31.2939   20.0429 C   0  0  0  0  0  0  0  0  0  0  0  0
  -29.1122  -26.6535   16.8171 C   0  0  0  0  0  0  0  0  0  0  0  0
  -27.4062  -24.9451   18.5246 C   0  0  0  0  0  0  0  0  0  0  0  0
  -30.8613  -31.0394   20.2662 C   0  0  0  0  0  0  0  0  0  0  0  0
  -29.6467  -12.2659   18.4787 C   0  0  0  0  0  0  0  0  0  0  0  0
  -30.6479  -29.7026   20.9693 C   0  0  0  0  0  0  0  0  0  0  0  0
  -28.1970  -11.9620   18.8635 C   0  0  0  0  0  0  0  0  0  0  0  0
  -30.4887  -12.6459   19.6955 C   0  0  0  0  0  0  0  0  0  0  0  0
  -28.4880  -13.4269   20.9022 C   0  0  0  0  0  0  0  0  0  0  0  0
  -31.1728  -28.5410   20.1168 C   0  0  1  0  0  0  0  0  0  0  0  0
  -28.3159  -27.2264   17.9854 C   0  0  1  0  0  0  0  0  0  0  0  0
  -27.5852  -13.1022   19.7008 C   0  0  2  0  0  0  0  0  0  0  0  0
  -20.9411  -24.9394   17.3636 C   0  0  0  0  0  0  0  0  0  0  0  0
  -32.9844  -18.6725   17.5014 C   0  0  0  0  0  0  0  0  0  0  0  0
  -25.6762  -26.5275   21.7142 C   0  0  0  0  0  0  0  0  0  0  0  0
  -23.4126  -25.5559   21.2666 C   0  0  0  0  0  0  0  0  0  0  0  0
  -23.8773  -27.9414   20.7046 C   0  0  0  0  0  0  0  0  0  0  0  0
  -23.6287  -24.6965   14.6814 C   0  0  0  0  0  0  0  0  0  0  0  0
  -29.4421  -22.2306   21.6830 C   0  0  0  0  0  0  0  0  0  0  0  0
  -31.5259  -20.6893   17.1290 C   0  0  0  0  0  0  0  0  0  1  0  0
  -24.8975  -26.1129   19.2877 C   0  0  1  0  0  0  0  0  0  0  0  0
  -22.2648  -25.2726   16.6930 C   0  0  2  0  0  0  0  0  0  0  0  0
  -31.7395  -19.4217   17.9471 C   0  0  2  0  0  0  0  0  0  0  0  0
  -24.4890  -26.5238   20.7306 C   0  0  0  0  0  0  0  0  0  0  0  0
  -25.8238  -11.5083   20.3626 N   0  0  0  0  0  0  0  0  0  0  0  0
  -26.1634  -12.7869   20.1263 N   0  0  0  0  0  0  0  0  0  0  0  0
  -27.1730  -26.3889   18.3551 N   0  0  0  0  0  0  0  0  0  0  0  0
  -29.8496  -13.7348   20.4376 N   0  0  0  0  0  0  0  0  0  0  0  0
  -25.3102  -14.9966   20.1140 N   0  0  0  0  0  0  0  0  0  0  0  0
  -21.7527  -12.5130   21.3677 N   0  0  0  0  0  0  0  0  0  0  0  0
  -29.8315  -15.9147   21.3377 N   0  0  0  0  0  0  0  0  0  0  0  0
  -30.2404  -28.2325   19.0538 N   0  0  0  0  0  0  0  0  0  0  0  0
  -23.7983  -26.1268   18.3287 N   0  0  0  0  0  0  0  0  0  0  0  0
  -22.3832  -24.4533   15.4538 N   0  3  0  0  0  0  0  0  0  0  0  0
  -22.4694  -14.6438   20.9155 O   0  0  0  0  0  0  0  0  0  0  0  0
  -28.8225  -26.8314   20.2574 O   0  0  0  0  0  0  0  0  0  0  0  0
  -25.7424  -28.2154   18.5864 O   0  0  0  0  0  0  0  0  0  0  0  0
  -23.9752  -23.8999   17.7067 O   0  0  0  0  0  0  0  0  0  0  0  0
  -31.6981  -15.1063   20.2223 O   0  0  0  0  0  0  0  0  0  0  0  0
  -21.6619   -6.9803   22.0134 O   0  0  0  0  0  0  0  0  0  0  0  0
  -30.3003  -21.4432   20.8599 O   0  0  0  0  0  0  0  0  0  0  0  0
  -30.1687  -21.1065   17.2710 O   0  0  0  0  0  0  0  0  0  1  0  0
  -31.9060  -19.7713   19.3203 O   0  0  0  0  0  0  0  0  0  0  0  0
  -24.0752   -3.3195   25.3569 F   0  0  0  0  0  0  0  0  0  0  0  0
  -20.5200   -6.3069   24.4394 F   0  0  0  0  0  0  0  0  0  0  0  0
  1  2  1  0  0  0  0
  1  5  2  0  0  0  0
  2  6  2  0  0  0  0
  3  9  2  0  0  0  0
  3 18  1  0  0  0  0
  4 10  1  0  0  0  0
  4 18  2  0  0  0  0
  5 20  1  0  0  0  0
  6 22  1  0  0  0  0
  7 11  2  0  0  0  0
  7 21  1  0  0  0  0
  8 12  2  0  0  0  0
  8 24  1  0  0  0  0
  9 25  1  0  0  0  0
 10 25  2  0  0  0  0
 11 26  1  0  0  0  0
 12 27  1  0  0  0  0
 13 14  2  0  0  0  0
 13 28  1  0  0  0  0
 14 30  1  0  0  0  0
 15 23  1  0  0  0  0
 15 26  2  0  0  0  0
 16 24  2  0  0  0  0
 16 29  1  0  0  0  0
 17 30  2  0  0  0  0
 17 31  1  0  0  0  0
 18 32  1  0  0  0  0
 19 32  1  0  0  0  0
 19 33  2  0  0  0  0
 19 34  1  0  0  0  0
 20 22  2  0  0  0  0
 20 39  1  0  0  0  0
 21 23  2  0  0  0  0
 21 40  1  0  0  0  0
 22 48  1  0  0  0  0
 23 41  1  0  0  0  0
 24 69  1  0  0  0  0
 25 78  1  0  0  0  0
 26 80  1  0  0  0  0
 27 29  2  0  0  0  0
 27 79  1  0  0  0  0
 28 31  2  0  0  0  0
 28 78  1  0  0  0  0
 29 81  1  0  0  0  0
 30 82  1  0  0  0  0
 31 83  1  0  0  0  0
 32 63  2  0  0  0  0
 33 64  1  0  0  0  0
 33 67  1  0  0  0  0
 34 68  1  0  0  0  0
 34 73  2  0  0  0  0
 35 49  1  0  0  0  0
 35 70  1  0  0  0  0
 35 74  2  0  0  0  0
 36 59  1  0  0  0  0
 36 65  1  0  0  0  0
 36 75  2  0  0  0  0
 37 60  1  0  0  0  0
 37 71  1  0  0  0  0
 37 76  2  0  0  0  0
 38 66  1  0  0  0  0
 38 69  1  0  0  0  0
 38 77  2  0  0  0  0
 39 42  1  0  0  0  0
 40 49  1  0  0  0  0
 41 65  1  0  0  0  0
 42 44  1  0  0  0  0
 43 45  1  0  0  0  0
 43 46  1  0  0  0  0
 44 48  1  0  0  0  0
 45 50  1  0  0  0  0
 46 66  1  0  0  0  0
 47 50  1  0  0  0  0
 47 66  1  0  0  0  0
 48 70  1  0  0  0  0
 49 65  1  0  0  0  0
 50 64  1  0  0  0  0
 51 60  1  0  0  0  0
 52 61  1  0  0  0  0
 53 62  1  0  0  0  0
 54 62  1  0  0  0  0
 55 62  1  0  0  0  0
 56 72  1  0  0  0  0
 57 79  1  0  0  0  0
 58 61  1  0  0  0  0
 58 80  1  0  0  0  0
 59 62  1  0  0  0  0
 59 71  1  0  0  0  0
 60 72  1  0  0  0  0
 61 81  1  0  0  0  0
 63 64  1  0  0  0  0
M  CHG  1  72   1
M  ISO  4  38 100  58 101  69 100  80 101
M  END
> <Batch ID>
0004

> <Smiles>
CNC(C)C(=O)NC(C(=O)N1Cc2cc([101O:1][101CH2:1]C(C)Oc3cc([100NH:0][100C:0](=O)N4CCCC(n5nc(-c6ccc(Oc7ccc(F)cc7F)cc6)c(C(N)=O)c5N)C4)ccc3OC)ccc2CC1C(=O)NC1CCCc2ccccc21)C(C)(C)C

> <Shape>
0.264

> <Color>
0.207

> <Negative vol penalty>
0.000

$$$$

  -OEChem-04052315243D

 87 95  0     1  0  0  0  0  0999 V2000
  -16.8292  -28.2380   23.0436 C   0  0  0  0  0  0  0  0  0  0  0  0
  -17.5790  -27.8179   21.9497 C   0  0  0  0  0  0  0  0  0  0  0  0
  -28.0671  -19.9825   20.3953 C   0  0  0  0  0  0  0  0  0  0  0  0
  -27.1323  -19.8484   18.1715 C   0  0  0  0  0  0  0  0  0  0  0  0
  -17.3150  -29.2469   23.8742 C   0  0  0  0  0  0  0  0  0  0  0  0
  -18.8147  -28.4073   21.6850 C   0  0  0  0  0  0  0  0  0  0  0  0
  -22.3864  -25.0034   20.5446 C   0  0  0  0  0  0  0  0  0  0  0  0
  -28.4001  -21.3189   20.1747 C   0  0  0  0  0  0  0  0  0  0  0  0
  -27.4652  -21.1849   17.9509 C   0  0  0  0  0  0  0  0  0  0  0  0
  -22.3717  -24.4726   19.2555 C   0  0  0  0  0  0  0  0  0  0  0  0
  -28.3920  -24.4580   16.6712 C   0  0  0  0  0  0  0  0  0  0  0  0
  -28.9849  -24.7857   15.4519 C   0  0  0  0  0  0  0  0  0  0  0  0
  -24.1357  -25.9892   18.6173 C   0  0  0  0  0  0  0  0  0  0  0  0
  -30.8218  -23.2957   15.9447 C   0  0  0  0  0  0  0  0  0  0  0  0
  -27.4332  -19.2472   19.3936 C   0  0  0  0  0  0  0  0  0  0  0  0
  -25.8872  -17.3667   20.1560 C   0  0  0  0  0  0  0  0  0  0  0  0
  -18.5617  -29.8423   23.6252 C   0  0  0  0  0  0  0  0  0  0  0  0
  -23.2699  -26.0404   20.8773 C   0  0  0  0  0  0  0  0  0  0  0  0
  -19.3170  -29.4261   22.5123 C   0  0  0  0  0  0  0  0  0  0  0  0
  -24.1614  -26.5297   19.9121 C   0  0  0  0  0  0  0  0  0  0  0  0
  -28.0992  -21.9201   18.9526 C   0  0  0  0  0  0  0  0  0  0  0  0
  -23.2444  -24.9674   18.2909 C   0  0  0  0  0  0  0  0  0  0  0  0
  -29.0140  -23.5492   17.5273 C   0  0  0  0  0  0  0  0  0  0  0  0
  -30.1998  -24.2045   15.0886 C   0  0  0  0  0  0  0  0  0  0  0  0
  -30.2289  -22.9680   17.1640 C   0  0  0  0  0  0  0  0  0  0  0  0
  -27.0895  -17.8665   19.6207 C   0  0  0  0  0  0  0  0  0  0  0  0
  -26.0563  -16.0037   20.1662 C   0  0  0  0  0  0  0  0  0  0  0  0
  -24.7217  -18.0715   20.6039 C   0  0  0  0  0  0  0  0  0  0  0  0
  -22.9341  -29.0441   21.8613 C   0  0  0  0  0  0  0  0  0  0  0  0
  -26.1617  -28.8992   22.1511 C   0  0  0  0  0  0  0  0  0  0  0  0
  -24.3687  -18.3211   12.9028 C   0  0  0  0  0  0  0  0  0  0  0  0
  -29.0941  -27.4405   21.1917 C   0  0  0  0  0  0  0  0  0  0  0  0
  -29.2913  -12.2371   17.0421 C   0  0  0  0  0  0  0  0  0  0  0  0
  -19.0238  -30.9621   24.5237 C   0  0  0  0  0  0  0  0  0  0  0  0
  -23.2918  -26.5839   22.2797 C   0  0  0  0  0  0  0  0  0  0  0  0
  -25.1434  -27.6283   20.2241 C   0  0  0  0  0  0  0  0  0  0  0  0
  -20.5119  -31.2750   24.3908 C   0  0  0  0  0  0  0  0  0  0  0  0
  -29.4395  -12.6423   20.4725 C   0  0  0  0  0  0  0  0  0  0  0  0
  -20.9103  -31.3601   22.9208 C   0  0  0  0  0  0  0  0  0  0  0  0
  -28.7361  -13.9783   20.7108 C   0  0  0  0  0  0  0  0  0  0  0  0
  -26.4428  -12.5216   14.6901 C   0  0  0  0  0  0  0  0  0  0  0  0
  -27.7412  -14.6808   14.6666 C   0  0  0  0  0  0  0  0  0  0  0  0
  -30.3329  -12.7080   19.2390 C   0  0  0  0  0  0  0  0  0  0  0  0
  -27.6800  -11.8050   15.2239 C   0  0  0  0  0  0  0  0  0  0  0  0
  -28.9547  -13.9231   15.1952 C   0  0  0  0  0  0  0  0  0  0  0  0
  -28.9053  -14.4497   18.2173 C   0  0  0  0  0  0  0  0  0  0  0  0
  -20.6732  -30.0240   22.2067 C   0  0  1  0  0  0  0  0  0  0  0  0
  -23.8778  -27.9897   22.3665 C   0  0  1  0  0  0  0  0  0  0  0  0
  -26.8160  -13.7579   13.8620 C   0  0  0  0  0  0  0  0  0  0  0  0
  -27.9805  -14.4373   19.4511 C   0  0  2  0  0  0  0  0  0  0  0  0
  -31.5525  -26.9369   21.1887 C   0  0  0  0  0  0  0  0  0  0  0  0
  -26.3045  -31.4077   20.4200 C   0  0  0  0  0  0  0  0  0  0  0  0
  -28.7349  -30.9316   20.0529 C   0  0  0  0  0  0  0  0  0  0  0  0
  -27.8883  -31.3842   22.3553 C   0  0  0  0  0  0  0  0  0  0  0  0
  -28.7821  -25.3298   23.2427 C   0  0  0  0  0  0  0  0  0  0  0  0
  -23.5973  -18.9597   14.0457 C   0  0  0  0  0  0  0  0  0  0  0  0
  -25.5652  -14.5055   13.4064 C   0  0  0  0  0  0  0  0  0  0  0  0
  -23.9469  -20.4289   14.2776 C   0  0  0  0  0  0  0  0  0  0  0  0
  -25.8746  -15.4389   12.2366 C   0  0  0  0  0  0  0  0  0  0  0  0
  -23.2078  -21.0206   15.4816 C   0  0  0  0  0  0  0  0  0  0  0  0
  -23.5542  -22.4959   15.6732 C   0  0  0  0  0  0  0  0  0  0  0  0
  -24.6313  -16.1564   11.7217 C   0  0  0  0  0  0  0  0  0  0  0  0
  -22.8576  -23.0832   16.8924 C   0  0  0  0  0  0  0  0  0  1  0  0
  -27.3308  -29.1849   21.2398 C   0  0  1  0  0  0  0  0  0  0  0  0
  -30.2650  -26.9077   21.9976 C   0  0  2  0  0  0  0  0  0  0  0  0
  -27.5449  -30.7077   21.0103 C   0  0  0  0  0  0  0  0  0  0  0  0
  -27.9582  -16.8997   19.3132 N   0  0  0  0  0  0  0  0  0  0  0  0
  -27.3012  -15.7787   19.6565 N   0  0  0  0  0  0  0  0  0  0  0  0
  -25.1221  -28.1313   21.6076 N   0  0  0  0  0  0  0  0  0  0  0  0
  -29.5799  -13.1518   18.0661 N   0  0  0  0  0  0  0  0  0  0  0  0
  -28.5608  -12.7229   15.9450 N   0  0  0  0  0  0  0  0  0  0  0  0
  -25.2601  -14.9877   20.5614 N   0  0  0  0  0  0  0  0  0  0  0  0
  -24.7149  -19.4707   20.5232 N   0  0  0  0  0  0  0  0  0  0  0  0
  -21.7255  -29.0845   22.5300 N   0  0  0  0  0  0  0  0  0  0  0  0
  -24.0222  -16.9858   12.7243 N   0  0  0  0  0  0  0  0  0  0  0  0
  -28.4799  -28.5012   21.8233 N   0  0  0  0  0  0  0  0  0  0  0  0
  -30.0066  -25.5018   22.4192 N   0  3  0  0  0  0  0  0  0  0  0  0
  -23.7226  -17.4790   21.0774 O   0  0  0  0  0  0  0  0  0  0  0  0
  -23.2776  -29.7685   20.9345 O   0  0  0  0  0  0  0  0  0  0  0  0
  -26.1738  -29.3349   23.3050 O   0  0  0  0  0  0  0  0  0  0  0  0
  -25.2110  -18.9198   12.2393 O   0  0  0  0  0  0  0  0  0  0  0  0
  -28.7601  -26.9658   20.1083 O   0  0  0  0  0  0  0  0  0  0  0  0
  -29.6584  -11.0571   17.1037 O   0  0  0  0  0  0  0  0  0  0  0  0
  -28.4238  -23.2243   18.7371 O   0  0  0  0  0  0  0  0  0  0  0  0
  -23.2316  -24.4477   17.0224 O   0  0  0  0  0  0  0  0  0  1  0  0
  -30.7683  -24.5182   13.9170 F   0  0  0  0  0  0  0  0  0  0  0  0
  -30.8307  -22.0934   17.9817 F   0  0  0  0  0  0  0  0  0  0  0  0
  1  2  1  0  0  0  0
  1  5  2  0  0  0  0
  2  6  2  0  0  0  0
  3  8  2  0  0  0  0
  3 15  1  0  0  0  0
  4  9  1  0  0  0  0
  4 15  2  0  0  0  0
  5 17  1  0  0  0  0
  6 19  1  0  0  0  0
  7 10  2  0  0  0  0
  7 18  1  0  0  0  0
  8 21  1  0  0  0  0
  9 21  2  0  0  0  0
 10 22  1  0  0  0  0
 11 12  2  0  0  0  0
 11 23  1  0  0  0  0
 12 24  1  0  0  0  0
 13 20  1  0  0  0  0
 13 22  2  0  0  0  0
 14 24  2  0  0  0  0
 14 25  1  0  0  0  0
 15 26  1  0  0  0  0
 16 26  1  0  0  0  0
 16 27  2  0  0  0  0
 16 28  1  0  0  0  0
 17 19  2  0  0  0  0
 17 34  1  0  0  0  0
 18 20  2  0  0  0  0
 18 35  1  0  0  0  0
 19 47  1  0  0  0  0
 20 36  1  0  0  0  0
 21 84  1  0  0  0  0
 22 85  1  0  0  0  0
 23 25  2  0  0  0  0
 23 84  1  0  0  0  0
 24 86  1  0  0  0  0
 25 87  1  0  0  0  0
 26 67  2  0  0  0  0
 27 68  1  0  0  0  0
 27 72  1  0  0  0  0
 28 73  1  0  0  0  0
 28 78  2  0  0  0  0
 29 48  1  0  0  0  0
 29 74  1  0  0  0  0
 29 79  2  0  0  0  0
 30 64  1  0  0  0  0
 30 69  1  0  0  0  0
 30 80  2  0  0  0  0
 31 56  1  0  0  0  0
 31 75  1  0  0  0  0
 31 81  2  0  0  0  0
 32 65  1  0  0  0  0
 32 76  1  0  0  0  0
 32 82  2  0  0  0  0
 33 70  1  0  0  0  0
 33 71  1  0  0  0  0
 33 83  2  0  0  0  0
 34 37  1  0  0  0  0
 35 48  1  0  0  0  0
 36 69  1  0  0  0  0
 37 39  1  0  0  0  0
 38 40  1  0  0  0  0
 38 43  1  0  0  0  0
 39 47  1  0  0  0  0
 40 50  1  0  0  0  0
 41 44  1  0  0  0  0
 41 49  1  0  0  0  0
 42 45  1  0  0  0  0
 42 49  1  0  0  0  0
 43 70  1  0  0  0  0
 44 71  1  0  0  0  0
 45 71  1  0  0  0  0
 46 50  1  0  0  0  0
 46 70  1  0  0  0  0
 47 74  1  0  0  0  0
 48 69  1  0  0  0  0
 49 57  1  0  0  0  0
 50 68  1  0  0  0  0
 51 65  1  0  0  0  0
 52 66  1  0  0  0  0
 53 66  1  0  0  0  0
 54 66  1  0  0  0  0
 55 77  1  0  0  0  0
 56 58  1  0  0  0  0
 57 59  1  0  0  0  0
 58 60  1  0  0  0  0
 59 62  1  0  0  0  0
 60 61  1  0  0  0  0
 61 63  1  0  0  0  0
 62 75  1  0  0  0  0
 63 85  1  0  0  0  0
 64 66  1  0  0  0  0
 64 76  1  0  0  0  0
 65 77  1  0  0  0  0
 67 68  1  0  0  0  0
M  CHG  1  77   1
M  ISO  4  33 100  63 101  71 100  85 101
M  END
> <Batch ID>
0004

> <Smiles>
CNC(C)C(=O)NC(C(=O)N1Cc2cc([101O:1][101CH2:1]CCCCC(=O)NCCCC3CC[100N:0]([100C:0](=O)N4CCCC(n5nc(-c6ccc(Oc7ccc(F)cc7F)cc6)c(C(N)=O)c5N)C4)CC3)ccc2CC1C(=O)NC1CCCc2ccccc21)C(C)(C)C

> <Shape>
0.226

> <Color>
0.101

> <Negative vol penalty>
0.000

$$$$

  -OEChem-04052315243D

108116  0     1  0  0  0  0  0999 V2000
  -29.2236  -19.6719   15.2781 C   0  0  0  0  0  0  0  0  0  0  0  0
  -28.9253  -19.5819   13.9222 C   0  0  0  0  0  0  0  0  0  0  0  0
  -19.7163  -21.3986   10.6175 C   0  0  0  0  0  0  0  0  0  0  0  0
  -20.1212  -22.6539   10.1640 C   0  0  0  0  0  0  0  0  0  0  0  0
  -23.0654   -9.9123   19.9239 C   0  0  0  0  0  0  0  0  0  0  0  0
  -23.8419   -9.8766   22.2114 C   0  0  0  0  0  0  0  0  0  0  0  0
  -29.5196  -20.9109   15.8448 C   0  0  0  0  0  0  0  0  0  0  0  0
  -28.9219  -20.7312   13.1325 C   0  0  0  0  0  0  0  0  0  0  0  0
  -31.2886  -20.0544    8.7069 C   0  0  0  0  0  0  0  0  0  0  0  0
  -19.6567  -21.1373   11.9864 C   0  0  0  0  0  0  0  0  0  0  0  0
  -22.3153   -8.7604   20.1605 C   0  0  0  0  0  0  0  0  0  0  0  0
  -23.0918   -8.7247   22.4481 C   0  0  0  0  0  0  0  0  0  0  0  0
  -30.5908  -19.3753    7.7091 C   0  0  0  0  0  0  0  0  0  0  0  0
  -21.0975   -5.9799   23.7546 C   0  0  0  0  0  0  0  0  0  0  0  0
  -20.4666  -23.6481   11.0794 C   0  0  0  0  0  0  0  0  0  0  0  0
  -20.3494   -5.9224   24.9305 C   0  0  0  0  0  0  0  0  0  0  0  0
  -30.0388  -21.4813    6.6702 C   0  0  0  0  0  0  0  0  0  0  0  0
  -19.1132   -7.8799   24.2397 C   0  0  0  0  0  0  0  0  0  0  0  0
  -23.8287  -10.4704   20.9493 C   0  0  0  0  0  0  0  0  0  0  0  0
  -24.1874  -12.9948   20.8678 C   0  0  0  0  0  0  0  0  0  0  0  0
  -29.5292  -22.0745   15.0597 C   0  0  0  0  0  0  0  0  0  0  0  0
  -31.3576  -21.4549    8.7000 C   0  0  0  0  0  0  0  0  0  0  0  0
  -29.2170  -21.9871   13.6896 C   0  0  0  0  0  0  0  0  0  0  0  0
  -30.7403  -22.1756    7.6677 C   0  0  0  0  0  0  0  0  0  0  0  0
  -20.0021  -22.1315   12.9018 C   0  0  0  0  0  0  0  0  0  0  0  0
  -22.3284   -8.1666   21.4226 C   0  0  0  0  0  0  0  0  0  0  0  0
  -29.9634  -20.0889    6.6921 C   0  0  0  0  0  0  0  0  0  0  0  0
  -20.8535   -6.9874   22.8213 C   0  0  0  0  0  0  0  0  0  0  0  0
  -19.3573   -6.8724   25.1730 C   0  0  0  0  0  0  0  0  0  0  0  0
  -20.4071  -23.3869   12.4483 C   0  0  0  0  0  0  0  0  0  0  0  0
  -19.8613   -7.9374   23.0638 C   0  0  0  0  0  0  0  0  0  0  0  0
  -24.6042  -11.6600   20.7053 C   0  0  0  0  0  0  0  0  0  0  0  0
  -25.2821  -13.7425   20.5088 C   0  0  0  0  0  0  0  0  0  0  0  0
  -22.9236  -13.5124   21.3044 C   0  0  0  0  0  0  0  0  0  0  0  0
  -30.3967  -23.7580   10.6688 C   0  0  0  0  0  0  0  0  0  0  0  0
  -32.0011  -25.6659    8.5933 C   0  0  0  0  0  0  0  0  0  0  0  0
  -27.1179  -21.2136   19.1136 C   0  0  0  0  0  0  0  0  0  0  0  0
  -25.5438  -17.2624    5.4879 C   0  0  0  0  0  0  0  0  0  0  0  0
  -24.3125  -20.0612   14.5253 C   0  0  0  0  0  0  0  0  0  0  0  0
  -33.2314  -26.1314    5.4442 C   0  0  0  0  0  0  0  0  0  0  0  0
  -30.7740  -14.7206   20.6733 C   0  0  0  0  0  0  0  0  0  0  0  0
  -29.8089  -23.3980   15.7267 C   0  0  0  0  0  0  0  0  0  0  0  0
  -32.1368  -22.1712    9.7688 C   0  0  0  0  0  0  0  0  0  0  0  0
  -30.8017  -23.6792    7.6035 C   0  0  0  0  0  0  0  0  0  0  0  0
  -30.1508  -24.5151   14.7441 C   0  0  0  0  0  0  0  0  0  0  0  0
  -29.6025  -12.3832   18.2565 C   0  0  0  0  0  0  0  0  0  0  0  0
  -29.1644  -24.5230   13.5805 C   0  0  0  0  0  0  0  0  0  0  0  0
  -28.1662  -12.0924   18.6952 C   0  0  0  0  0  0  0  0  0  0  0  0
  -30.5298  -12.5781   19.4540 C   0  0  0  0  0  0  0  0  0  0  0  0
  -28.6434  -13.2996   20.8663 C   0  0  0  0  0  0  0  0  0  0  0  0
  -29.2273  -23.2076   12.7949 C   0  0  1  0  0  0  0  0  0  0  0  0
  -31.7083  -23.6243    9.9482 C   0  0  1  0  0  0  0  0  0  0  0  0
  -27.6595  -13.1509   19.6932 C   0  0  2  0  0  0  0  0  0  0  0  0
  -34.4623  -27.8060    4.0378 C   0  0  0  0  0  0  0  0  0  0  0  0
  -29.4534  -27.3264    8.3450 C   0  0  0  0  0  0  0  0  0  0  0  0
  -30.4131  -28.3622    6.2775 C   0  0  0  0  0  0  0  0  0  0  0  0
  -31.5625  -28.6644    8.4707 C   0  0  0  0  0  0  0  0  0  0  0  0
  -23.9617  -15.4600    6.2595 C   0  0  0  0  0  0  0  0  0  0  0  0
  -35.4813  -24.2645    4.9841 C   0  0  0  0  0  0  0  0  0  0  0  0
  -19.9363  -21.8453   14.3808 C   0  0  0  0  0  0  0  0  0  0  0  0
  -27.3823  -19.9672   19.9422 C   0  0  0  0  0  0  0  0  0  0  0  0
  -26.6196  -18.2647    5.8857 C   0  0  0  0  0  0  0  0  0  0  0  0
  -23.8718  -19.9113   13.0751 C   0  0  0  0  0  0  0  0  0  0  0  0
  -21.1373  -21.0530   14.9142 C   0  0  0  0  0  0  0  0  0  0  0  0
  -28.8617  -19.5987   20.0440 C   0  0  0  0  0  0  0  0  0  0  0  0
  -27.1335  -19.0768    4.6988 C   0  0  0  0  0  0  0  0  0  0  0  0
  -24.7107  -18.8873   12.3086 C   0  0  0  0  0  0  0  0  0  0  0  0
  -29.0987  -18.3824   20.9451 C   0  0  0  0  0  0  0  0  0  0  0  0
  -24.2204  -18.7323   10.8682 C   0  0  0  0  0  0  0  0  0  0  0  0
  -25.0799  -17.7329   10.0923 C   0  0  0  0  0  0  0  0  0  0  0  0
  -30.5863  -18.0220   21.0078 C   0  0  0  0  0  0  0  0  0  0  0  0
  -24.6105  -17.6029    8.6434 C   0  0  0  0  0  0  0  0  0  0  0  0
  -24.9210  -22.3527   16.8851 C   0  0  0  0  0  0  0  0  0  0  0  0
  -22.4824  -21.7588   14.7541 C   0  0  0  0  0  0  0  0  0  0  0  0
  -30.8639  -16.8502   21.9444 C   0  0  0  0  0  0  0  0  0  0  0  0
  -25.4417  -16.5792    7.8805 C   0  0  0  0  0  0  0  0  0  0  0  0
  -25.2438  -22.6565   18.3466 C   0  0  0  0  0  0  0  0  0  0  0  0
  -23.8998  -21.2324   16.6994 C   0  0  0  0  0  0  0  0  0  0  0  0
  -28.1725  -20.1030    5.1274 C   0  0  0  0  0  0  0  0  0  1  0  0
  -31.6430  -26.4098    7.3294 C   0  0  1  0  0  0  0  0  0  0  0  0
  -34.5897  -26.5975    4.9521 C   0  0  2  0  0  0  0  0  0  0  0  0
  -30.7650  -27.6625    7.6076 C   0  0  0  0  0  0  0  0  0  0  0  0
  -25.8653  -11.5623   20.2762 N   0  0  0  0  0  0  0  0  0  0  0  0
  -26.2503  -12.8452   20.1660 N   0  0  0  0  0  0  0  0  0  0  0  0
  -31.5702  -24.3342    8.6749 N   0  0  0  0  0  0  0  0  0  0  0  0
  -29.9929  -13.5958   20.3606 N   0  0  0  0  0  0  0  0  0  0  0  0
  -25.5013  -15.0736   20.4559 N   0  0  0  0  0  0  0  0  0  0  0  0
  -21.9078  -12.6049   21.6343 N   0  0  0  0  0  0  0  0  0  0  0  0
  -30.3867  -23.1911   11.9289 N   0  0  0  0  0  0  0  0  0  0  0  0
  -25.7608  -21.5128   19.0468 N   0  0  0  0  0  0  0  0  0  0  0  0
  -32.9040  -26.7015    6.6562 N   0  0  0  0  0  0  0  0  0  0  0  0
  -30.1875  -15.6397   21.5347 N   0  0  0  0  0  0  0  0  0  0  0  0
  -25.0050  -16.4633    6.5164 N   0  0  0  0  0  0  0  0  0  0  0  0
  -23.5939  -20.9809   15.2965 N   0  0  0  0  0  0  0  0  0  0  0  0
  -35.2695  -25.5069    4.1976 N   0  3  0  0  0  0  0  0  0  0  0  0
  -22.6964  -14.7435   21.3835 O   0  0  0  0  0  0  0  0  0  0  0  0
  -29.4632  -24.3341   10.1226 O   0  0  0  0  0  0  0  0  0  0  0  0
  -32.6458  -26.2429    9.4725 O   0  0  0  0  0  0  0  0  0  0  0  0
  -28.0096  -21.8784   18.5931 O   0  0  0  0  0  0  0  0  0  0  0  0
  -25.1769  -17.1719    4.3134 O   0  0  0  0  0  0  0  0  0  0  0  0
  -25.2536  -19.3953   14.9651 O   0  0  0  0  0  0  0  0  0  0  0  0
  -32.5292  -25.3435    4.8144 O   0  0  0  0  0  0  0  0  0  0  0  0
  -31.9079  -14.8956   20.2142 O   0  0  0  0  0  0  0  0  0  0  0  0
  -21.5964   -7.0427   21.6540 O   0  0  0  0  0  0  0  0  0  0  0  0
  -29.2761  -19.4237    5.7101 O   0  0  0  0  0  0  0  0  0  1  0  0
  -18.6379   -6.8161   26.3016 F   0  0  0  0  0  0  0  0  0  0  0  0
  -20.7408  -24.3485   13.3203 F   0  0  0  0  0  0  0  0  0  0  0  0
  -19.6215   -8.9069   22.1704 F   0  0  0  0  0  0  0  0  0  0  0  0
  1  2  1  0  0  0  0
  1  7  2  0  0  0  0
  2  8  2  0  0  0  0
  3  4  1  0  0  0  0
  3 10  2  0  0  0  0
  4 15  2  0  0  0  0
  5 11  2  0  0  0  0
  5 19  1  0  0  0  0
  6 12  1  0  0  0  0
  6 19  2  0  0  0  0
  7 21  1  0  0  0  0
  8 23  1  0  0  0  0
  9 13  2  0  0  0  0
  9 22  1  0  0  0  0
 10 25  1  0  0  0  0
 11 26  1  0  0  0  0
 12 26  2  0  0  0  0
 13 27  1  0  0  0  0
 14 16  2  0  0  0  0
 14 28  1  0  0  0  0
 15 30  1  0  0  0  0
 16 29  1  0  0  0  0
 17 24  1  0  0  0  0
 17 27  2  0  0  0  0
 18 29  2  0  0  0  0
 18 31  1  0  0  0  0
 19 32  1  0  0  0  0
 20 32  1  0  0  0  0
 20 33  2  0  0  0  0
 20 34  1  0  0  0  0
 21 23  2  0  0  0  0
 21 42  1  0  0  0  0
 22 24  2  0  0  0  0
 22 43  1  0  0  0  0
 23 51  1  0  0  0  0
 24 44  1  0  0  0  0
 25 30  2  0  0  0  0
 25 60  1  0  0  0  0
 26104  1  0  0  0  0
 27105  1  0  0  0  0
 28 31  2  0  0  0  0
 28104  1  0  0  0  0
 29106  1  0  0  0  0
 30107  1  0  0  0  0
 31108  1  0  0  0  0
 32 83  2  0  0  0  0
 33 84  1  0  0  0  0
 33 87  1  0  0  0  0
 34 88  1  0  0  0  0
 34 96  2  0  0  0  0
 35 52  1  0  0  0  0
 35 89  1  0  0  0  0
 35 97  2  0  0  0  0
 36 80  1  0  0  0  0
 36 85  1  0  0  0  0
 36 98  2  0  0  0  0
 37 61  1  0  0  0  0
 37 90  1  0  0  0  0
 37 99  2  0  0  0  0
 38 62  1  0  0  0  0
 38 93  1  0  0  0  0
 38100  2  0  0  0  0
 39 63  1  0  0  0  0
 39 94  1  0  0  0  0
 39101  2  0  0  0  0
 40 81  1  0  0  0  0
 40 91  1  0  0  0  0
 40102  2  0  0  0  0
 41 86  1  0  0  0  0
 41 92  1  0  0  0  0
 41103  2  0  0  0  0
 42 45  1  0  0  0  0
 43 52  1  0  0  0  0
 44 85  1  0  0  0  0
 45 47  1  0  0  0  0
 46 48  1  0  0  0  0
 46 49  1  0  0  0  0
 47 51  1  0  0  0  0
 48 53  1  0  0  0  0
 49 86  1  0  0  0  0
 50 53  1  0  0  0  0
 50 86  1  0  0  0  0
 51 89  1  0  0  0  0
 52 85  1  0  0  0  0
 53 84  1  0  0  0  0
 54 81  1  0  0  0  0
 55 82  1  0  0  0  0
 56 82  1  0  0  0  0
 57 82  1  0  0  0  0
 58 93  1  0  0  0  0
 59 95  1  0  0  0  0
 60 64  1  0  0  0  0
 61 65  1  0  0  0  0
 62 66  1  0  0  0  0
 63 67  1  0  0  0  0
 64 74  1  0  0  0  0
 65 68  1  0  0  0  0
 66 79  1  0  0  0  0
 67 69  1  0  0  0  0
 68 71  1  0  0  0  0
 69 70  1  0  0  0  0
 70 72  1  0  0  0  0
 71 75  1  0  0  0  0
 72 76  1  0  0  0  0
 73 77  1  0  0  0  0
 73 78  1  0  0  0  0
 74 94  1  0  0  0  0
 75 92  1  0  0  0  0
 76 93  1  0  0  0  0
 77 90  1  0  0  0  0
 78 94  1  0  0  0  0
 79105  1  0  0  0  0
 80 82  1  0  0  0  0
 80 91  1  0  0  0  0
 81 95  1  0  0  0  0
 83 84  1  0  0  0  0
M  CHG  1  95   1
M  ISO  4  41 100  79 101  92 100 105 101
M  END
> <Batch ID>
0004

> <Smiles>
CNC(C)C(=O)NC(C(=O)N1Cc2cc([101O:1][101CH2:1]CCC(=O)N(C)CCCCCCC(=O)N(CCCNC(=O)CCCCC[100NH:0][100C:0](=O)N3CCCC(n4nc(-c5ccc(Oc6ccc(F)cc6F)cc5)c(C(N)=O)c4N)C3)CCCc3ccccc3F)ccc2CC1C(=O)NC1CCCc2ccccc21)C(C)(C)C

> <Shape>
0.170

> <Color>
0.179

> <Negative vol penalty>
0.000

$$$$

  -OEChem-04052315243D

104112  0     1  0  0  0  0  0999 V2000
  -28.9923  -18.9318   24.0882 C   0  0  0  0  0  0  0  0  0  0  0  0
  -28.7697  -19.8495   24.8306 C   0  0  0  0  0  0  0  0  0  0  0  0
  -16.1120  -34.0730   23.9467 C   0  0  0  0  0  0  0  0  0  0  0  0
  -16.7310  -33.1133   24.7412 C   0  0  0  0  0  0  0  0  0  0  0  0
  -23.0474   -9.9046   20.0391 C   0  0  0  0  0  0  0  0  0  0  0  0
  -23.7719  -10.0423   22.3398 C   0  0  0  0  0  0  0  0  0  0  0  0
  -15.3477  -33.6800   22.8488 C   0  0  0  0  0  0  0  0  0  0  0  0
  -16.5851  -31.7599   24.4390 C   0  0  0  0  0  0  0  0  0  0  0  0
  -20.7660  -27.3484   25.1904 C   0  0  0  0  0  0  0  0  0  0  0  0
  -22.2863   -8.7768   20.3463 C   0  0  0  0  0  0  0  0  0  0  0  0
  -23.0108   -8.9145   22.6470 C   0  0  0  0  0  0  0  0  0  0  0  0
  -20.9558  -26.3966   26.1913 C   0  0  0  0  0  0  0  0  0  0  0  0
  -19.7646   -8.1895   23.2446 C   0  0  0  0  0  0  0  0  0  0  0  0
  -18.9893   -8.2287   24.4035 C   0  0  0  0  0  0  0  0  0  0  0  0
  -19.7495  -24.7771   24.8717 C   0  0  0  0  0  0  0  0  0  0  0  0
  -20.1964   -6.3262   25.2755 C   0  0  0  0  0  0  0  0  0  0  0  0
  -23.7902  -10.5373   21.0358 C   0  0  0  0  0  0  0  0  0  0  0  0
  -24.1634  -13.0468   20.7690 C   0  0  0  0  0  0  0  0  0  0  0  0
  -15.2003  -32.3215   22.5273 C   0  0  0  0  0  0  0  0  0  0  0  0
  -20.0559  -27.0243   24.0254 C   0  0  0  0  0  0  0  0  0  0  0  0
  -15.8170  -31.3482   23.3366 C   0  0  0  0  0  0  0  0  0  0  0  0
  -19.5543  -25.7259   23.8563 C   0  0  0  0  0  0  0  0  0  0  0  0
  -22.2679   -8.2817   21.6502 C   0  0  0  0  0  0  0  0  0  0  0  0
  -20.4450  -25.1116   26.0333 C   0  0  0  0  0  0  0  0  0  0  0  0
  -20.7558   -7.2185   23.1012 C   0  0  0  0  0  0  0  0  0  0  0  0
  -19.2052   -7.2971   25.4189 C   0  0  0  0  0  0  0  0  0  0  0  0
  -20.9717   -6.2870   24.1166 C   0  0  0  0  0  0  0  0  0  0  0  0
  -24.5771  -11.7021   20.7190 C   0  0  0  0  0  0  0  0  0  0  0  0
  -25.2697  -13.7610   20.3787 C   0  0  0  0  0  0  0  0  0  0  0  0
  -22.8928  -13.6007   21.1355 C   0  0  0  0  0  0  0  0  0  0  0  0
  -17.3769  -28.0660   22.6685 C   0  0  0  0  0  0  0  0  0  0  0  0
  -19.5749  -18.6516   24.3467 C   0  0  0  0  0  0  0  0  0  0  0  0
  -30.7801  -14.6699   20.6944 C   0  0  0  0  0  0  0  0  0  0  0  0
  -18.2827  -26.0825   20.2669 C   0  0  0  0  0  0  0  0  0  0  0  0
  -22.0268  -18.9756   26.3863 C   0  0  0  0  0  0  0  0  0  0  0  0
  -22.5769  -21.9694   27.1298 C   0  0  0  0  0  0  0  0  0  0  0  0
  -20.0680  -23.3431   19.2894 C   0  0  0  0  0  0  0  0  0  0  0  0
  -14.3255  -31.9429   21.3585 C   0  0  0  0  0  0  0  0  0  0  0  0
  -19.8829  -28.0546   22.9433 C   0  0  0  0  0  0  0  0  0  0  0  0
  -18.8023  -25.3216   22.6156 C   0  0  0  0  0  0  0  0  0  0  0  0
  -14.5283  -30.5055   20.8863 C   0  0  0  0  0  0  0  0  0  0  0  0
  -22.2589  -18.0382   22.8055 C   0  0  0  0  0  0  0  0  0  0  0  0
  -29.6269  -12.2392   18.3276 C   0  0  0  0  0  0  0  0  0  0  0  0
  -14.5436  -29.5501   22.0753 C   0  0  0  0  0  0  0  0  0  0  0  0
  -21.1938  -17.0839   23.3385 C   0  0  0  0  0  0  0  0  0  0  0  0
  -28.1864  -11.9710   18.7613 C   0  0  0  0  0  0  0  0  0  0  0  0
  -30.5312  -12.5043   19.5272 C   0  0  0  0  0  0  0  0  0  0  0  0
  -22.9556  -18.5196   24.0685 C   0  0  0  0  0  0  0  0  0  0  0  0
  -28.6153  -13.3429   20.8492 C   0  0  0  0  0  0  0  0  0  0  0  0
  -15.7027  -29.8715   23.0264 C   0  0  1  0  0  0  0  0  0  0  0  0
  -18.7003  -27.7635   22.0246 C   0  0  1  0  0  0  0  0  0  0  0  0
  -20.7506  -17.7395   24.6419 C   0  0  1  0  0  0  0  0  0  0  0  0
  -27.6620  -13.1006   19.6655 C   0  0  2  0  0  0  0  0  0  0  0  0
  -33.3468  -16.3713   25.6235 C   0  0  0  0  0  0  0  0  0  0  0  0
  -20.5826  -21.9449   17.2702 C   0  0  0  0  0  0  0  0  0  0  0  0
  -31.1319  -17.8896   20.7142 C   0  0  0  0  0  0  0  0  0  0  0  0
  -15.5244  -24.7925   20.4602 C   0  0  0  0  0  0  0  0  0  0  0  0
  -16.4132  -22.8585   19.1420 C   0  0  0  0  0  0  0  0  0  0  0  0
  -16.3541  -25.1361   18.1261 C   0  0  0  0  0  0  0  0  0  0  0  0
  -17.0880  -18.8518   24.2014 C   0  0  0  0  0  0  0  0  0  0  0  0
  -18.0964  -16.6932   24.8361 C   0  0  0  0  0  0  0  0  0  0  0  0
  -22.9607  -23.9426   19.4678 C   0  0  0  0  0  0  0  0  0  0  0  0
  -29.2591  -17.8150   23.1859 C   0  0  0  0  0  0  0  0  0  0  0  0
  -30.1493  -15.7261   21.5665 C   0  0  0  0  0  0  0  0  0  0  0  0
  -22.2404  -22.9125   28.2743 C   0  0  0  0  0  0  0  0  0  0  0  0
  -32.7503  -17.1092   24.4359 C   0  0  0  0  0  0  0  0  0  0  0  0
  -26.3739  -19.8575   26.5722 C   0  0  0  0  0  0  0  0  0  0  0  0
  -25.6199  -19.3529   27.8048 C   0  0  0  0  0  0  0  0  0  0  0  0
  -27.7070  -20.5058   26.9626 C   0  0  0  0  0  0  0  0  0  0  0  0
  -24.3062  -18.6702   27.4118 C   0  0  0  0  0  0  0  0  0  0  0  0
  -31.2548  -16.8580   24.3269 C   0  0  0  0  0  0  0  0  0  0  0  0
  -21.8097  -24.2919   27.8001 C   0  0  0  0  0  0  0  0  0  1  0  0
  -28.5024  -20.9735   25.7393 C   0  0  2  0  0  0  0  0  0  0  0  0
  -18.0468  -24.6290   19.9343 C   0  0  1  0  0  0  0  0  0  0  0  0
  -23.3410  -19.6323   26.7250 C   0  0  2  0  0  0  0  0  0  0  0  0
  -21.0192  -23.1229   18.1271 C   0  0  2  0  0  0  0  0  0  0  0  0
  -31.1271  -16.8655   21.8401 C   0  0  2  0  0  0  0  0  0  0  0  0
  -16.5971  -24.3619   19.4400 C   0  0  0  0  0  0  0  0  0  0  0  0
  -25.8470  -11.5675   20.3277 N   0  0  0  0  0  0  0  0  0  0  0  0
  -26.2409  -12.8368   20.1281 N   0  0  0  0  0  0  0  0  0  0  0  0
  -18.6537  -26.3663   21.5889 N   0  0  0  0  0  0  0  0  0  0  0  0
  -29.9871  -13.5681   20.3731 N   0  0  0  0  0  0  0  0  0  0  0  0
  -21.9232  -18.4754   25.0993 N   0  0  0  0  0  0  0  0  0  0  0  0
  -25.4968  -15.0833   20.2287 N   0  0  0  0  0  0  0  0  0  0  0  0
  -21.8652  -12.7245   21.5107 N   0  0  0  0  0  0  0  0  0  0  0  0
  -16.9497  -29.3682   22.4916 N   0  0  0  0  0  0  0  0  0  0  0  0
  -22.9671  -20.7165   27.5925 N   0  0  0  0  0  0  0  0  0  0  0  0
  -19.0828  -24.2559   18.9772 N   0  0  0  0  0  0  0  0  0  0  0  0
  -18.3030  -18.0886   24.4568 N   0  0  0  0  0  0  0  0  0  0  0  0
  -22.3966  -22.8542   18.6287 N   0  3  0  0  0  0  0  0  0  0  0  0
  -30.7211  -17.5728   23.1098 N   0  3  1  0  0  0  0  0  0  0  0  0
  -22.6701  -14.8350   21.1145 O   0  0  0  0  0  0  0  0  0  0  0  0
  -16.7862  -27.1829   23.2792 O   0  0  0  0  0  0  0  0  0  0  0  0
  -19.7882  -19.8247   24.0293 O   0  0  0  0  0  0  0  0  0  0  0  0
  -31.9420  -14.8228   20.3087 O   0  0  0  0  0  0  0  0  0  0  0  0
  -18.1499  -26.9341   19.3843 O   0  0  0  0  0  0  0  0  0  0  0  0
  -21.1260  -18.9154   27.2249 O   0  0  0  0  0  0  0  0  0  0  0  0
  -22.5064  -22.2930   25.9474 O   0  0  0  0  0  0  0  0  0  0  0  0
  -20.1849  -22.7607   20.3654 O   0  0  0  0  0  0  0  0  0  0  0  0
  -27.7548  -21.9749   25.0539 O   0  0  0  0  0  0  0  0  0  0  0  0
  -21.5252   -7.1814   21.9504 O   0  0  0  0  0  0  0  0  0  0  0  0
  -20.6296  -24.1743   27.0159 O   0  0  0  0  0  0  0  0  0  1  0  0
  -18.4616   -7.3359   26.5324 F   0  0  0  0  0  0  0  0  0  0  0  0
  -21.9233   -5.3526   23.9850 F   0  0  0  0  0  0  0  0  0  0  0  0
  1  2  3  0  0  0  0
  1 63  1  0  0  0  0
  2 73  1  0  0  0  0
  3  4  1  0  0  0  0
  3  7  2  0  0  0  0
  4  8  2  0  0  0  0
  5 10  2  0  0  0  0
  5 17  1  0  0  0  0
  6 11  1  0  0  0  0
  6 17  2  0  0  0  0
  7 19  1  0  0  0  0
  8 21  1  0  0  0  0
  9 12  2  0  0  0  0
  9 20  1  0  0  0  0
 10 23  1  0  0  0  0
 11 23  2  0  0  0  0
 12 24  1  0  0  0  0
 13 14  2  0  0  0  0
 13 25  1  0  0  0  0
 14 26  1  0  0  0  0
 15 22  1  0  0  0  0
 15 24  2  0  0  0  0
 16 26  2  0  0  0  0
 16 27  1  0  0  0  0
 17 28  1  0  0  0  0
 18 28  1  0  0  0  0
 18 29  2  0  0  0  0
 18 30  1  0  0  0  0
 19 21  2  0  0  0  0
 19 38  1  0  0  0  0
 20 22  2  0  0  0  0
 20 39  1  0  0  0  0
 21 50  1  0  0  0  0
 22 40  1  0  0  0  0
 23101  1  0  0  0  0
 24102  1  0  0  0  0
 25 27  2  0  0  0  0
 25101  1  0  0  0  0
 26103  1  0  0  0  0
 27104  1  0  0  0  0
 28 79  2  0  0  0  0
 29 80  1  0  0  0  0
 29 84  1  0  0  0  0
 30 85  1  0  0  0  0
 30 92  2  0  0  0  0
 31 51  1  0  0  0  0
 31 86  1  0  0  0  0
 31 93  2  0  0  0  0
 32 52  1  0  0  0  0
 32 89  1  0  0  0  0
 32 94  2  0  0  0  0
 33 64  1  0  0  0  0
 33 82  1  0  0  0  0
 33 95  2  0  0  0  0
 34 74  1  0  0  0  0
 34 81  1  0  0  0  0
 34 96  2  0  0  0  0
 35 75  1  0  0  0  0
 35 83  1  0  0  0  0
 35 97  2  0  0  0  0
 36 65  1  0  0  0  0
 36 87  1  0  0  0  0
 36 98  2  0  0  0  0
 37 76  1  0  0  0  0
 37 88  1  0  0  0  0
 37 99  2  0  0  0  0
 38 41  1  0  0  0  0
 39 51  1  0  0  0  0
 40 81  1  0  0  0  0
 41 44  1  0  0  0  0
 42 45  1  0  0  0  0
 42 48  1  0  0  0  0
 43 46  1  0  0  0  0
 43 47  1  0  0  0  0
 44 50  1  0  0  0  0
 45 52  1  0  0  0  0
 46 53  1  0  0  0  0
 47 82  1  0  0  0  0
 48 83  1  0  0  0  0
 49 53  1  0  0  0  0
 49 82  1  0  0  0  0
 50 86  1  0  0  0  0
 51 81  1  0  0  0  0
 52 83  1  0  0  0  0
 53 80  1  0  0  0  0
 54 66  1  0  0  0  0
 55 76  1  0  0  0  0
 56 77  1  0  0  0  0
 57 78  1  0  0  0  0
 58 78  1  0  0  0  0
 59 78  1  0  0  0  0
 60 89  1  0  0  0  0
 61 89  1  0  0  0  0
 62 90  1  0  0  0  0
 63 91  1  0  0  0  0
 64 77  1  0  0  0  0
 65 72  1  0  0  0  0
 66 71  1  0  0  0  0
 67 68  1  0  0  0  0
 67 69  1  0  0  0  0
 68 70  1  0  0  0  0
 69 73  1  0  0  0  0
 70 75  1  0  0  0  0
 71 91  1  0  0  0  0
 72102  1  0  0  0  0
 73100  1  0  0  0  0
 74 78  1  0  0  0  0
 74 88  1  0  0  0  0
 75 87  1  0  0  0  0
 76 90  1  0  0  0  0
 77 91  1  0  0  0  0
 79 80  1  0  0  0  0
M  CHG  2  90   1  91   1
M  ISO  4  33 100  64 100  72 101 102 101
M  END
> <Batch ID>
0004

> <Smiles>
CCCN(CC#CC(O)CCCCC(NC(=O)C[101CH2:1][101O:1]c1ccc2c(c1)CN(C(=O)C(NC(=O)C(C)NC)C(C)(C)C)C(C(=O)NC1CCCc3ccccc31)C2)C(=O)N1CCCC1C(=O)N(C)C)C(C)[100CH2:0][100C:0](=O)N1CCCC(n2nc(-c3ccc(Oc4ccc(F)cc4F)cc3)c(C(N)=O)c2N)C1

> <Shape>
0.220

> <Color>
0.170

> <Negative vol penalty>
0.000

$$$$

  -OEChem-04052315243D

 86 94  0     1  0  0  0  0  0999 V2000
  -32.3865  -14.8954   21.6554 C   0  0  0  0  0  0  0  0  0  0  0  0
  -31.4820  -15.9416   21.8059 C   0  0  0  0  0  0  0  0  0  0  0  0
  -18.8232  -27.7541   23.6256 C   0  0  0  0  0  0  0  0  0  0  0  0
  -29.2892  -23.7912   20.5518 C   0  0  0  0  0  0  0  0  0  0  0  0
  -27.2122  -23.3852   19.3863 C   0  0  0  0  0  0  0  0  0  0  0  0
  -18.2501  -27.2004   22.4808 C   0  0  0  0  0  0  0  0  0  0  0  0
  -31.9982  -13.7289   20.9979 C   0  0  0  0  0  0  0  0  0  0  0  0
  -30.1888  -15.8223   21.2980 C   0  0  0  0  0  0  0  0  0  0  0  0
  -25.0564  -18.1277   23.7163 C   0  0  0  0  0  0  0  0  0  0  0  0
  -20.1744  -28.1005   23.6313 C   0  0  0  0  0  0  0  0  0  0  0  0
  -29.6076  -22.4366   20.4563 C   0  0  0  0  0  0  0  0  0  0  0  0
  -27.5306  -22.0305   19.2908 C   0  0  0  0  0  0  0  0  0  0  0  0
  -24.3205  -19.2777   23.4336 C   0  0  0  0  0  0  0  0  0  0  0  0
  -29.5065  -20.0668   17.3776 C   0  0  0  0  0  0  0  0  0  0  0  0
  -29.3031  -19.4399   16.1483 C   0  0  0  0  0  0  0  0  0  0  0  0
  -20.3793  -27.3392   21.3476 C   0  0  0  0  0  0  0  0  0  0  0  0
  -22.8565  -17.9853   22.0173 C   0  0  0  0  0  0  0  0  0  0  0  0
  -27.7592  -17.9003   17.1890 C   0  0  0  0  0  0  0  0  0  0  0  0
  -28.0915  -24.2656   20.0168 C   0  0  0  0  0  0  0  0  0  0  0  0
  -19.0281  -26.9929   21.3418 C   0  0  0  0  0  0  0  0  0  0  0  0
  -28.0801  -26.6803   19.1942 C   0  0  0  0  0  0  0  0  0  0  0  0
  -30.6967  -13.5914   20.4901 C   0  0  0  0  0  0  0  0  0  0  0  0
  -24.7038  -16.8980   23.1420 C   0  0  0  0  0  0  0  0  0  0  0  0
  -29.7832  -14.6533   20.6319 C   0  0  0  0  0  0  0  0  0  0  0  0
  -23.5880  -16.8208   22.2963 C   0  0  0  0  0  0  0  0  0  0  0  0
  -20.9525  -27.8930   22.4924 C   0  0  0  0  0  0  0  0  0  0  0  0
  -28.7283  -21.5562   19.8258 C   0  0  0  0  0  0  0  0  0  0  0  0
  -23.2221  -19.2071   22.5817 C   0  0  0  0  0  0  0  0  0  0  0  0
  -28.8364  -19.6104   18.5127 C   0  0  0  0  0  0  0  0  0  0  0  0
  -28.4294  -18.3567   16.0540 C   0  0  0  0  0  0  0  0  0  0  0  0
  -27.9627  -18.5272   18.4183 C   0  0  0  0  0  0  0  0  0  0  0  0
  -27.7617  -25.6647   20.1156 C   0  0  0  0  0  0  0  0  0  0  0  0
  -27.5479  -27.8212   19.7432 C   0  0  0  0  0  0  0  0  0  0  0  0
  -18.4221  -26.4087   20.1349 C   0  0  0  0  0  0  0  0  0  0  0  0
  -28.7930  -26.5994   17.9528 C   0  0  0  0  0  0  0  0  0  0  0  0
  -26.1343  -14.8459   21.1808 C   0  0  0  0  0  0  0  0  0  0  0  0
  -23.5213  -13.0282   21.8061 C   0  0  0  0  0  0  0  0  0  0  0  0
  -20.2551  -12.8901   22.7857 C   0  0  0  0  0  0  0  0  0  0  0  0
  -23.0489  -28.8048   23.5506 C   0  0  0  0  0  0  0  0  0  0  0  0
  -30.3376  -12.3301   19.7453 C   0  0  0  0  0  0  0  0  0  0  0  0
  -25.4918  -15.6617   23.4782 C   0  0  0  0  0  0  0  0  0  0  0  0
  -23.1558  -15.5209   21.6703 C   0  0  0  0  0  0  0  0  0  0  0  0
  -28.8341  -12.1360   19.5656 C   0  0  0  0  0  0  0  0  0  0  0  0
  -26.4470  -29.7806   23.9721 C   0  0  0  0  0  0  0  0  0  0  0  0
  -28.1822  -13.4295   19.0875 C   0  0  0  0  0  0  0  0  0  0  0  0
  -27.1980  -28.9327   22.9429 C   0  0  0  0  0  0  0  0  0  0  0  0
  -25.2895  -29.0105   24.6053 C   0  0  0  0  0  0  0  0  0  0  0  0
  -25.0999  -27.5608   22.6224 C   0  0  0  0  0  0  0  0  0  0  0  0
  -28.3640  -14.5519   20.1164 C   0  0  1  0  0  0  0  0  0  0  0  0
  -25.3516  -14.5608   22.4314 C   0  0  1  0  0  0  0  0  0  0  0  0
  -26.2345  -28.3154   21.9104 C   0  0  2  0  0  0  0  0  0  0  0  0
  -18.3789  -11.2671   23.1640 C   0  0  0  0  0  0  0  0  0  0  0  0
  -23.1101  -12.8046   18.7910 C   0  0  0  0  0  0  0  0  0  0  0  0
  -20.7749  -12.0202   19.2379 C   0  0  0  0  0  0  0  0  0  0  0  0
  -22.7158  -10.6846   20.0577 C   0  0  0  0  0  0  0  0  0  0  0  0
  -17.8298  -24.4147   18.8131 C   0  0  0  0  0  0  0  0  0  0  0  0
  -20.0592  -13.6056   25.6508 C   0  0  0  0  0  0  0  0  0  0  0  0
  -21.1029  -22.7917   21.6387 C   0  0  0  0  0  0  0  0  0  0  0  0
  -20.4908  -23.7921   20.6537 C   0  0  0  0  0  0  0  0  0  0  0  0
  -22.5749  -22.5331   21.3225 C   0  0  0  0  0  0  0  0  0  0  0  0
  -19.0231  -24.0828   20.9496 C   0  0  0  0  0  0  0  0  0  0  0  0
  -23.2033  -21.5711   22.3221 C   0  0  0  0  0  0  0  0  0  1  0  0
  -22.1527  -12.8751   21.1878 C   0  0  1  0  0  0  0  0  0  0  0  0
  -19.5436  -12.0113   23.7985 C   0  0  2  0  0  0  0  0  0  0  0  0
  -22.1974  -12.1211   19.8287 C   0  0  0  0  0  0  0  0  0  0  0  0
  -27.0803  -26.1204   21.1702 N   0  0  0  0  0  0  0  0  0  0  0  0
  -26.9662  -27.4349   20.9148 N   0  0  0  0  0  0  0  0  0  0  0  0
  -23.9621  -14.3411   22.0247 N   0  0  0  0  0  0  0  0  0  0  0  0
  -24.4165  -28.4581   23.5672 N   0  0  0  0  0  0  0  0  0  0  0  0
  -27.5257  -29.1073   19.3334 N   0  0  0  0  0  0  0  0  0  0  0  0
  -29.2714  -25.3493   17.5373 N   0  0  0  0  0  0  0  0  0  0  0  0
  -22.3249  -28.2451   22.4984 N   0  0  0  0  0  0  0  0  0  0  0  0
  -27.4367  -14.3855   21.2150 N   0  0  0  0  0  0  0  0  0  0  0  0
  -21.3173  -12.2357   22.1986 N   0  0  0  0  0  0  0  0  0  0  0  0
  -18.4456  -25.0016   20.0082 N   0  0  0  0  0  0  0  0  0  0  0  0
  -19.0175  -12.8371   24.9219 N   0  3  0  0  0  0  0  0  0  0  0  0
  -17.9308  -27.2027   19.3335 O   0  0  0  0  0  0  0  0  0  0  0  0
  -29.0139  -27.6087   17.2415 O   0  0  0  0  0  0  0  0  0  0  0  0
  -25.5959  -15.4383   20.2530 O   0  0  0  0  0  0  0  0  0  0  0  0
  -24.1723  -12.0200   22.0915 O   0  0  0  0  0  0  0  0  0  0  0  0
  -19.9016  -14.0407   22.5374 O   0  0  0  0  0  0  0  0  0  0  0  0
  -22.5620  -29.5654   24.3911 O   0  0  0  0  0  0  0  0  0  0  0  0
  -29.0388  -20.2343   19.7323 O   0  0  0  0  0  0  0  0  0  0  0  0
  -22.5025  -20.3282   22.3036 O   0  0  0  0  0  0  0  0  0  1  0  0
  -28.2330  -17.7558   14.8731 F   0  0  0  0  0  0  0  0  0  0  0  0
  -27.3152  -18.0849   19.5050 F   0  0  0  0  0  0  0  0  0  0  0  0
  1  2  1  0  0  0  0
  1  7  2  0  0  0  0
  2  8  2  0  0  0  0
  3  6  2  0  0  0  0
  3 10  1  0  0  0  0
  4 11  2  0  0  0  0
  4 19  1  0  0  0  0
  5 12  1  0  0  0  0
  5 19  2  0  0  0  0
  6 20  1  0  0  0  0
  7 22  1  0  0  0  0
  8 24  1  0  0  0  0
  9 13  2  0  0  0  0
  9 23  1  0  0  0  0
 10 26  2  0  0  0  0
 11 27  1  0  0  0  0
 12 27  2  0  0  0  0
 13 28  1  0  0  0  0
 14 15  2  0  0  0  0
 14 29  1  0  0  0  0
 15 30  1  0  0  0  0
 16 20  2  0  0  0  0
 16 26  1  0  0  0  0
 17 25  1  0  0  0  0
 17 28  2  0  0  0  0
 18 30  2  0  0  0  0
 18 31  1  0  0  0  0
 19 32  1  0  0  0  0
 20 34  1  0  0  0  0
 21 32  1  0  0  0  0
 21 33  2  0  0  0  0
 21 35  1  0  0  0  0
 22 24  2  0  0  0  0
 22 40  1  0  0  0  0
 23 25  2  0  0  0  0
 23 41  1  0  0  0  0
 24 49  1  0  0  0  0
 25 42  1  0  0  0  0
 26 72  1  0  0  0  0
 27 83  1  0  0  0  0
 28 84  1  0  0  0  0
 29 31  2  0  0  0  0
 29 83  1  0  0  0  0
 30 85  1  0  0  0  0
 31 86  1  0  0  0  0
 32 66  2  0  0  0  0
 33 67  1  0  0  0  0
 33 70  1  0  0  0  0
 34 75  1  0  0  0  0
 34 77  2  0  0  0  0
 35 71  1  0  0  0  0
 35 78  2  0  0  0  0
 36 50  1  0  0  0  0
 36 73  1  0  0  0  0
 36 79  2  0  0  0  0
 37 63  1  0  0  0  0
 37 68  1  0  0  0  0
 37 80  2  0  0  0  0
 38 64  1  0  0  0  0
 38 74  1  0  0  0  0
 38 81  2  0  0  0  0
 39 69  1  0  0  0  0
 39 72  1  0  0  0  0
 39 82  2  0  0  0  0
 40 43  1  0  0  0  0
 41 50  1  0  0  0  0
 42 68  1  0  0  0  0
 43 45  1  0  0  0  0
 44 46  1  0  0  0  0
 44 47  1  0  0  0  0
 45 49  1  0  0  0  0
 46 51  1  0  0  0  0
 47 69  1  0  0  0  0
 48 51  1  0  0  0  0
 48 69  1  0  0  0  0
 49 73  1  0  0  0  0
 50 68  1  0  0  0  0
 51 67  1  0  0  0  0
 52 64  1  0  0  0  0
 53 65  1  0  0  0  0
 54 65  1  0  0  0  0
 55 65  1  0  0  0  0
 56 75  1  0  0  0  0
 57 76  1  0  0  0  0
 58 59  1  0  0  0  0
 58 60  1  0  0  0  0
 59 61  1  0  0  0  0
 60 62  1  0  0  0  0
 61 75  1  0  0  0  0
 62 84  1  0  0  0  0
 63 65  1  0  0  0  0
 63 74  1  0  0  0  0
 64 76  1  0  0  0  0
 66 67  1  0  0  0  0
M  CHG  1  76   1
M  ISO  4  39 100  62 101  72 100  84 101
M  END
> <Batch ID>
0004

> <Smiles>
CNC(C)C(=O)NC(C(=O)N1Cc2cc([101O:1][101CH2:1]CCCCN(C)C(=O)c3cccc([100NH:0][100C:0](=O)N4CCCC(n5nc(-c6ccc(Oc7ccc(F)cc7F)cc6)c(C(N)=O)c5N)C4)c3)ccc2CC1C(=O)NC1CCCc2ccccc21)C(C)(C)C

> <Shape>
0.244

> <Color>
0.074

> <Negative vol penalty>
0.000

$$$$

  -OEChem-04052315243D

 84 92  0     1  0  0  0  0  0999 V2000
  -27.0794  -38.0836   20.8364 C   0  0  0  0  0  0  0  0  0  0  0  0
  -27.5531  -36.9688   20.1523 C   0  0  0  0  0  0  0  0  0  0  0  0
  -24.3116   -8.6694   20.1216 C   0  0  0  0  0  0  0  0  0  0  0  0
  -23.0162  -10.5088   21.0023 C   0  0  0  0  0  0  0  0  0  0  0  0
  -26.4850  -37.9312   22.0884 C   0  0  0  0  0  0  0  0  0  0  0  0
  -27.4337  -35.7009   20.7202 C   0  0  0  0  0  0  0  0  0  0  0  0
  -26.4403  -28.8423   18.9064 C   0  0  0  0  0  0  0  0  0  0  0  0
  -27.4551  -18.6766   18.1008 C   0  0  0  0  0  0  0  0  0  0  0  0
  -29.0827  -19.1655   19.8180 C   0  0  0  0  0  0  0  0  0  0  0  0
  -23.4461   -7.7651   20.7371 C   0  0  0  0  0  0  0  0  0  0  0  0
  -22.1507   -9.6045   21.6178 C   0  0  0  0  0  0  0  0  0  0  0  0
  -27.0031  -27.5827   19.1075 C   0  0  0  0  0  0  0  0  0  0  0  0
  -20.3771   -6.4682   20.1609 C   0  0  0  0  0  0  0  0  0  0  0  0
  -19.9416   -5.3751   19.4118 C   0  0  0  0  0  0  0  0  0  0  0  0
  -27.2868  -20.0421   17.8714 C   0  0  0  0  0  0  0  0  0  0  0  0
  -28.9145  -20.5311   19.5886 C   0  0  0  0  0  0  0  0  0  0  0  0
  -25.8869  -27.4311   21.2407 C   0  0  0  0  0  0  0  0  0  0  0  0
  -20.9314   -3.8745   21.0260 C   0  0  0  0  0  0  0  0  0  0  0  0
  -24.0967  -10.0412   20.2543 C   0  0  0  0  0  0  0  0  0  0  0  0
  -24.8765  -11.5157   18.3241 C   0  0  0  0  0  0  0  0  0  0  0  0
  -26.3495  -36.6597   22.6676 C   0  0  0  0  0  0  0  0  0  0  0  0
  -25.6039  -29.4114   19.8775 C   0  0  0  0  0  0  0  0  0  0  0  0
  -26.8381  -35.5314   21.9816 C   0  0  0  0  0  0  0  0  0  0  0  0
  -25.3128  -28.6970   21.0484 C   0  0  0  0  0  0  0  0  0  0  0  0
  -28.3530  -18.2383   19.0741 C   0  0  0  0  0  0  0  0  0  0  0  0
  -22.3656   -8.2327   21.4851 C   0  0  0  0  0  0  0  0  0  0  0  0
  -26.7287  -26.8781   20.2760 C   0  0  0  0  0  0  0  0  0  0  0  0
  -21.0898   -6.2644   21.3426 C   0  0  0  0  0  0  0  0  0  0  0  0
  -20.2187   -4.0783   19.8443 C   0  0  0  0  0  0  0  0  0  0  0  0
  -21.3669   -4.9676   21.7751 C   0  0  0  0  0  0  0  0  0  0  0  0
  -28.0166  -20.9694   18.6153 C   0  0  0  0  0  0  0  0  0  0  0  0
  -24.9908  -10.9758   19.6192 C   0  0  0  0  0  0  0  0  0  0  0  0
  -25.9656  -12.3433   18.1998 C   0  0  0  0  0  0  0  0  0  0  0  0
  -23.8753  -11.2894   17.3230 C   0  0  0  0  0  0  0  0  0  0  0  0
  -25.7210  -32.0216   21.6878 C   0  0  0  0  0  0  0  0  0  0  0  0
  -22.7307  -31.0943   22.5365 C   0  0  0  0  0  0  0  0  0  0  0  0
  -20.4590  -28.5660   22.8432 C   0  0  0  0  0  0  0  0  0  0  0  0
  -29.3731  -16.2486   20.2346 C   0  0  0  0  0  0  0  0  0  0  0  0
  -25.7425  -36.5499   24.0440 C   0  0  0  0  0  0  0  0  0  0  0  0
  -24.9834  -30.7597   19.6336 C   0  0  0  0  0  0  0  0  0  0  0  0
  -24.4050  -29.2551   22.1128 C   0  0  0  0  0  0  0  0  0  0  0  0
  -25.3165  -35.1306   24.4104 C   0  0  0  0  0  0  0  0  0  0  0  0
  -30.0530  -12.8724   21.1382 C   0  0  0  0  0  0  0  0  0  0  0  0
  -26.4182  -34.1353   24.0602 C   0  0  0  0  0  0  0  0  0  0  0  0
  -28.7872  -12.1225   20.7171 C   0  0  0  0  0  0  0  0  0  0  0  0
  -29.7332  -14.2628   21.6845 C   0  0  0  0  0  0  0  0  0  0  0  0
  -27.6431  -14.3511   20.3833 C   0  0  0  0  0  0  0  0  0  0  0  0
  -26.7045  -34.1367   22.5537 C   0  0  1  0  0  0  0  0  0  0  0  0
  -24.5574  -31.4627   20.9188 C   0  0  1  0  0  0  0  0  0  0  0  0
  -27.9199  -12.9704   19.7661 C   0  0  2  0  0  0  0  0  0  0  0  0
  -18.1111  -28.1087   23.6019 C   0  0  0  0  0  0  0  0  0  0  0  0
  -23.6421  -31.2527   25.4442 C   0  0  0  0  0  0  0  0  0  0  0  0
  -21.6283  -29.9060   26.0759 C   0  0  0  0  0  0  0  0  0  0  0  0
  -21.3459  -32.1485   25.0203 C   0  0  0  0  0  0  0  0  0  0  0  0
  -25.2250  -22.4199   19.2440 C   0  0  0  0  0  0  0  0  0  0  0  0
  -19.6441  -27.6476   20.1503 C   0  0  0  0  0  0  0  0  0  0  0  0
  -26.8739  -23.3068   20.8424 C   0  0  0  0  0  0  0  0  0  0  0  0
  -26.5296  -24.7239   21.2638 C   0  0  0  0  0  0  0  0  0  1  0  0
  -22.1512  -30.2086   23.6130 C   0  0  1  0  0  0  0  0  0  0  0  0
  -19.0039  -28.4628   22.4228 C   0  0  2  0  0  0  0  0  0  0  0  0
  -22.2106  -30.8690   25.0194 C   0  0  0  0  0  0  0  0  0  0  0  0
  -26.0676  -11.4227   20.2710 N   0  0  0  0  0  0  0  0  0  0  0  0
  -26.6399  -12.2521   19.3818 N   0  0  0  0  0  0  0  0  0  0  0  0
  -23.8275  -30.5797   21.8308 N   0  0  0  0  0  0  0  0  0  0  0  0
  -28.9127  -15.0097   20.7285 N   0  0  0  0  0  0  0  0  0  0  0  0
  -26.4027  -13.1328   17.1958 N   0  0  0  0  0  0  0  0  0  0  0  0
  -22.8250  -10.4088   17.6155 N   0  0  0  0  0  0  0  0  0  0  0  0
  -28.5238  -16.8511   19.3071 N   0  0  0  0  0  0  0  0  0  0  0  0
  -25.6846  -33.3940   21.8447 N   0  0  0  0  0  0  0  0  0  0  0  0
  -20.8047  -29.8594   23.1732 N   0  0  0  0  0  0  0  0  0  0  0  0
  -26.5290  -23.1128   19.4153 N   0  0  1  0  0  0  0  0  0  0  0  0
  -18.8400  -27.4135   21.3774 N   0  3  0  0  0  0  0  0  0  0  0  0
  -23.9200  -11.8390   16.1963 O   0  0  0  0  0  0  0  0  0  0  0  0
  -26.5870  -31.2637   22.1089 O   0  0  0  0  0  0  0  0  0  0  0  0
  -22.2243  -32.1989   22.3246 O   0  0  0  0  0  0  0  0  0  0  0  0
  -21.2124  -27.5957   22.8789 O   0  0  0  0  0  0  0  0  0  0  0  0
  -30.4549  -16.7259   20.5866 O   0  0  0  0  0  0  0  0  0  0  0  0
  -29.0252  -23.3642   18.7424 O   0  0  0  0  0  0  0  0  0  0  0  0
  -27.3403  -22.8564   16.9572 O   0  0  0  0  0  0  0  0  0  0  0  0
  -21.5207   -7.3506   22.0856 O   0  0  0  0  0  0  0  0  0  0  0  0
  -27.2772  -25.6487   20.4750 O   0  0  0  0  0  0  0  0  0  1  0  0
  -19.7992   -3.0287   19.1256 F   0  0  0  0  0  0  0  0  0  0  0  0
  -22.0501   -4.7655   22.9101 F   0  0  0  0  0  0  0  0  0  0  0  0
  -27.8027  -22.7032   18.3243 S   0  0  0  0  0  0  0  0  0  0  0  0
  1  2  1  0  0  0  0
  1  5  2  0  0  0  0
  2  6  2  0  0  0  0
  3 10  2  0  0  0  0
  3 19  1  0  0  0  0
  4 11  1  0  0  0  0
  4 19  2  0  0  0  0
  5 21  1  0  0  0  0
  6 23  1  0  0  0  0
  7 12  2  0  0  0  0
  7 22  1  0  0  0  0
  8 15  2  0  0  0  0
  8 25  1  0  0  0  0
  9 16  1  0  0  0  0
  9 25  2  0  0  0  0
 10 26  1  0  0  0  0
 11 26  2  0  0  0  0
 12 27  1  0  0  0  0
 13 14  2  0  0  0  0
 13 28  1  0  0  0  0
 14 29  1  0  0  0  0
 15 31  1  0  0  0  0
 16 31  2  0  0  0  0
 17 24  1  0  0  0  0
 17 27  2  0  0  0  0
 18 29  2  0  0  0  0
 18 30  1  0  0  0  0
 19 32  1  0  0  0  0
 20 32  1  0  0  0  0
 20 33  2  0  0  0  0
 20 34  1  0  0  0  0
 21 23  2  0  0  0  0
 21 39  1  0  0  0  0
 22 24  2  0  0  0  0
 22 40  1  0  0  0  0
 23 48  1  0  0  0  0
 24 41  1  0  0  0  0
 25 68  1  0  0  0  0
 26 80  1  0  0  0  0
 27 81  1  0  0  0  0
 28 30  2  0  0  0  0
 28 80  1  0  0  0  0
 29 82  1  0  0  0  0
 30 83  1  0  0  0  0
 31 84  1  0  0  0  0
 32 62  2  0  0  0  0
 33 63  1  0  0  0  0
 33 66  1  0  0  0  0
 34 67  1  0  0  0  0
 34 73  2  0  0  0  0
 35 49  1  0  0  0  0
 35 69  1  0  0  0  0
 35 74  2  0  0  0  0
 36 59  1  0  0  0  0
 36 64  1  0  0  0  0
 36 75  2  0  0  0  0
 37 60  1  0  0  0  0
 37 70  1  0  0  0  0
 37 76  2  0  0  0  0
 38 65  1  0  0  0  0
 38 68  1  0  0  0  0
 38 77  2  0  0  0  0
 39 42  1  0  0  0  0
 40 49  1  0  0  0  0
 41 64  1  0  0  0  0
 42 44  1  0  0  0  0
 43 45  1  0  0  0  0
 43 46  1  0  0  0  0
 44 48  1  0  0  0  0
 45 50  1  0  0  0  0
 46 65  1  0  0  0  0
 47 50  1  0  0  0  0
 47 65  1  0  0  0  0
 48 69  1  0  0  0  0
 49 64  1  0  0  0  0
 50 63  1  0  0  0  0
 51 60  1  0  0  0  0
 52 61  1  0  0  0  0
 53 61  1  0  0  0  0
 54 61  1  0  0  0  0
 55 71  1  0  0  0  0
 56 72  1  0  0  0  0
 57 58  1  0  0  0  0
 57 71  1  0  0  0  0
 58 81  1  0  0  0  0
 59 61  1  0  0  0  0
 59 70  1  0  0  0  0
 60 72  1  0  0  0  0
 62 63  1  0  0  0  0
 71 84  1  0  0  0  0
 78 84  2  0  0  0  0
 79 84  2  0  0  0  0
M  CHG  1  72   1
M  ISO  4  38 100  58 101  68 100  81 101
M  END
> <Batch ID>
0004

> <Smiles>
CNC(C)C(=O)NC(C(=O)N1Cc2cc([101O:1][101CH2:1]CN(C)S(=O)(=O)c3ccc([100NH:0][100C:0](=O)N4CCCC(n5nc(-c6ccc(Oc7ccc(F)cc7F)cc6)c(C(N)=O)c5N)C4)cc3)ccc2CC1C(=O)NC1CCCc2ccccc21)C(C)(C)C

> <Shape>
0.303

> <Color>
0.117

> <Negative vol penalty>
0.000

$$$$

  -OEChem-04052315243D

 90 97  0     1  0  0  0  0  0999 V2000
  -18.6015  -25.2989   20.8393 C   0  0  0  0  0  0  0  0  0  0  0  0
  -19.9331  -25.4485   20.4654 C   0  0  0  0  0  0  0  0  0  0  0  0
  -28.3725  -10.2628   22.2828 C   0  0  0  0  0  0  0  0  0  0  0  0
  -26.4299  -11.3520   21.3463 C   0  0  0  0  0  0  0  0  0  0  0  0
  -17.8503  -26.4165   21.2006 C   0  0  0  0  0  0  0  0  0  0  0  0
  -20.5140  -26.7160   20.4514 C   0  0  0  0  0  0  0  0  0  0  0  0
  -25.1208  -26.7652   22.5539 C   0  0  0  0  0  0  0  0  0  0  0  0
  -27.5649   -9.6412   23.2352 C   0  0  0  0  0  0  0  0  0  0  0  0
  -25.6223  -10.7304   22.2986 C   0  0  0  0  0  0  0  0  0  0  0  0
  -26.1772  -26.2805   21.7840 C   0  0  0  0  0  0  0  0  0  0  0  0
  -22.9994   -9.1487   24.2575 C   0  0  0  0  0  0  0  0  0  0  0  0
  -21.8031   -8.5788   23.8219 C   0  0  0  0  0  0  0  0  0  0  0  0
  -26.8082  -28.5434   21.2360 C   0  0  0  0  0  0  0  0  0  0  0  0
  -23.0370   -7.1156   22.3476 C   0  0  0  0  0  0  0  0  0  0  0  0
  -27.8050  -11.1182   21.3384 C   0  0  0  0  0  0  0  0  0  0  0  0
  -28.9797  -11.2726   19.0792 C   0  0  0  0  0  0  0  0  0  0  0  0
  -18.4250  -27.6973   21.2003 C   0  0  0  0  0  0  0  0  0  0  0  0
  -24.8931  -28.1446   22.6620 C   0  0  0  0  0  0  0  0  0  0  0  0
  -19.7694  -27.8520   20.8117 C   0  0  0  0  0  0  0  0  0  0  0  0
  -25.7497  -29.0431   22.0100 C   0  0  0  0  0  0  0  0  0  0  0  0
  -26.1898   -9.8750   23.2431 C   0  0  0  0  0  0  0  0  0  0  0  0
  -27.0194  -27.1695   21.1226 C   0  0  0  0  0  0  0  0  0  0  0  0
  -24.2145   -8.7021   23.7380 C   0  0  0  0  0  0  0  0  0  0  0  0
  -21.8219   -7.5622   22.8670 C   0  0  0  0  0  0  0  0  0  0  0  0
  -24.2333   -7.6855   22.7832 C   0  0  0  0  0  0  0  0  0  0  0  0
  -28.6388  -11.7611   20.3547 C   0  0  0  0  0  0  0  0  0  0  0  0
  -29.7843  -12.2475   18.5419 C   0  0  0  0  0  0  0  0  0  0  0  0
  -28.6026  -10.0472   18.4374 C   0  0  0  0  0  0  0  0  0  0  0  0
  -22.5082  -30.0930   21.8748 C   0  0  0  0  0  0  0  0  0  0  0  0
  -24.3186  -32.2988   23.4173 C   0  0  0  0  0  0  0  0  0  0  0  0
  -29.4091  -24.9608   19.4127 C   0  0  0  0  0  0  0  0  0  0  0  0
  -27.2181  -19.7180   19.4691 C   0  0  0  0  0  0  0  0  0  0  0  0
  -27.4088  -33.2750   24.4871 C   0  0  0  0  0  0  0  0  0  0  0  0
  -30.2938  -18.1275   19.5505 C   0  0  0  0  0  0  0  0  0  0  0  0
  -17.5599  -28.8812   21.5531 C   0  0  0  0  0  0  0  0  0  0  0  0
  -23.7653  -28.6523   23.5180 C   0  0  0  0  0  0  0  0  0  0  0  0
  -25.5605  -30.5339   22.1103 C   0  0  0  0  0  0  0  0  0  0  0  0
  -18.3562  -30.1438   21.8724 C   0  0  0  0  0  0  0  0  0  0  0  0
  -32.8660  -15.6797   19.8123 C   0  0  0  0  0  0  0  0  0  0  0  0
  -19.4417  -30.3696   20.8249 C   0  0  0  0  0  0  0  0  0  0  0  0
  -32.1051  -14.3537   19.8659 C   0  0  0  0  0  0  0  0  0  0  0  0
  -32.1210  -16.7882   20.5526 C   0  0  0  0  0  0  0  0  0  0  0  0
  -29.9618  -15.6598   20.1807 C   0  0  0  0  0  0  0  0  0  0  0  0
  -20.4422  -29.2076   20.8078 C   0  0  1  0  0  0  0  0  0  0  0  0
  -23.3164  -30.0608   23.1411 C   0  0  1  0  0  0  0  0  0  0  0  0
  -30.6466  -14.5250   19.4001 C   0  0  2  0  0  0  0  0  0  0  0  0
  -28.5789  -35.1431   25.6864 C   0  0  0  0  0  0  0  0  0  0  0  0
  -28.2980  -18.4945   14.7184 C   0  0  0  0  0  0  0  0  0  0  0  0
  -30.0137  -19.8067   15.9795 C   0  0  0  0  0  0  0  0  0  0  0  0
  -24.1312  -34.0242   20.9077 C   0  0  0  0  0  0  0  0  0  0  0  0
  -26.0446  -35.3814   21.7823 C   0  0  0  0  0  0  0  0  0  0  0  0
  -23.9029  -35.2814   23.0574 C   0  0  0  0  0  0  0  0  0  0  0  0
  -30.8145  -23.1400   18.3941 C   0  0  0  0  0  0  0  0  0  0  0  0
  -28.3107  -31.4735   26.6550 C   0  0  0  0  0  0  0  0  0  0  0  0
  -28.2231  -25.2935   20.2933 C   0  0  0  0  0  0  0  0  0  1  0  0
  -24.5746  -21.7265   19.6113 C   0  0  0  0  0  0  0  0  0  0  0  0
  -27.8504  -19.0794   17.1214 C   0  0  0  0  0  0  0  0  0  0  0  0
  -25.8470  -21.5803   20.4418 C   0  0  0  0  0  0  0  0  0  0  0  0
  -28.9160  -22.5601   19.8527 C   0  0  0  0  0  0  0  0  0  0  0  0
  -27.7531  -22.1172   18.9807 C   0  0  0  0  0  0  0  0  0  0  0  0
  -23.4029  -22.2454   20.4352 C   0  0  0  0  0  0  0  0  0  0  0  0
  -25.4142  -33.2551   23.0121 C   0  0  1  0  0  0  0  0  0  0  0  0
  -28.3731  -19.3329   18.5421 C   0  0  2  0  0  0  0  0  0  0  0  0
  -27.8928  -33.7935   25.8293 C   0  0  2  0  0  0  0  0  0  0  0  0
  -28.9402  -18.7230   16.0897 C   0  0  0  0  0  0  0  0  0  0  0  0
  -24.8759  -34.4574   22.1862 C   0  0  0  0  0  0  0  0  0  0  0  0
  -29.1826  -12.9535   20.6124 N   0  0  0  0  0  0  0  0  0  0  0  0
  -29.8733  -13.2225   19.4914 N   0  0  0  0  0  0  0  0  0  0  0  0
  -24.4399  -30.9810   22.9540 N   0  0  0  0  0  0  0  0  0  0  0  0
  -30.7450  -16.8998   20.0627 N   0  0  0  0  0  0  0  0  0  0  0  0
  -30.4173  -12.3572   17.3546 N   0  0  0  0  0  0  0  0  0  0  0  0
  -27.7705   -9.1581   19.1312 N   0  0  0  0  0  0  0  0  0  0  0  0
  -21.3646  -29.3185   21.9175 N   0  0  0  0  0  0  0  0  0  0  0  0
  -26.1003  -33.6346   24.2424 N   0  0  0  0  0  0  0  0  0  0  0  0
  -28.9789  -18.1452   19.1016 N   0  0  0  0  0  0  0  0  0  0  0  0
  -29.6978  -23.5946   19.2304 N   0  0  0  0  0  0  0  0  0  0  0  0
  -26.9509  -21.0831   19.6238 N   0  0  0  0  0  0  0  0  0  0  0  0
  -23.7338  -23.5971   20.9493 N   0  3  0  0  0  0  0  0  0  0  0  0
  -28.8604  -32.8361   26.4360 N   0  3  0  0  0  0  0  0  0  0  0  0
  -29.0053   -9.7421   17.2892 O   0  0  0  0  0  0  0  0  0  0  0  0
  -22.8928  -30.7715   20.9297 O   0  0  0  0  0  0  0  0  0  0  0  0
  -23.3930  -32.7043   24.1248 O   0  0  0  0  0  0  0  0  0  0  0  0
  -30.0473  -25.8867   18.9025 O   0  0  0  0  0  0  0  0  0  0  0  0
  -26.5421  -18.8368   20.0114 O   0  0  0  0  0  0  0  0  0  0  0  0
  -28.1214  -32.6200   23.7297 O   0  0  0  0  0  0  0  0  0  0  0  0
  -31.0113  -19.1318   19.4924 O   0  0  0  0  0  0  0  0  0  0  0  0
  -25.4014   -9.2684   24.1721 O   0  0  0  0  0  0  0  0  0  0  0  0
  -28.0618  -26.6941   20.3621 O   0  0  0  0  0  0  0  0  0  1  0  0
  -20.6731   -7.0140   22.4500 F   0  0  0  0  0  0  0  0  0  0  0  0
  -25.3976   -7.2515   22.2814 F   0  0  0  0  0  0  0  0  0  0  0  0
  1  2  1  0  0  0  0
  1  5  2  0  0  0  0
  2  6  2  0  0  0  0
  3  8  2  0  0  0  0
  3 15  1  0  0  0  0
  4  9  1  0  0  0  0
  4 15  2  0  0  0  0
  5 17  1  0  0  0  0
  6 19  1  0  0  0  0
  7 10  2  0  0  0  0
  7 18  1  0  0  0  0
  8 21  1  0  0  0  0
  9 21  2  0  0  0  0
 10 22  1  0  0  0  0
 11 12  2  0  0  0  0
 11 23  1  0  0  0  0
 12 24  1  0  0  0  0
 13 20  1  0  0  0  0
 13 22  2  0  0  0  0
 14 24  2  0  0  0  0
 14 25  1  0  0  0  0
 15 26  1  0  0  0  0
 16 26  1  0  0  0  0
 16 27  2  0  0  0  0
 16 28  1  0  0  0  0
 17 19  2  0  0  0  0
 17 35  1  0  0  0  0
 18 20  2  0  0  0  0
 18 36  1  0  0  0  0
 19 44  1  0  0  0  0
 20 37  1  0  0  0  0
 21 87  1  0  0  0  0
 22 88  1  0  0  0  0
 23 25  2  0  0  0  0
 23 87  1  0  0  0  0
 24 89  1  0  0  0  0
 25 90  1  0  0  0  0
 26 67  2  0  0  0  0
 27 68  1  0  0  0  0
 27 71  1  0  0  0  0
 28 72  1  0  0  0  0
 28 80  2  0  0  0  0
 29 45  1  0  0  0  0
 29 73  1  0  0  0  0
 29 81  2  0  0  0  0
 30 62  1  0  0  0  0
 30 69  1  0  0  0  0
 30 82  2  0  0  0  0
 31 55  1  0  0  0  0
 31 76  1  0  0  0  0
 31 83  2  0  0  0  0
 32 63  1  0  0  0  0
 32 77  1  0  0  0  0
 32 84  2  0  0  0  0
 33 64  1  0  0  0  0
 33 74  1  0  0  0  0
 33 85  2  0  0  0  0
 34 70  1  0  0  0  0
 34 75  1  0  0  0  0
 34 86  2  0  0  0  0
 35 38  1  0  0  0  0
 36 45  1  0  0  0  0
 37 69  1  0  0  0  0
 38 40  1  0  0  0  0
 39 41  1  0  0  0  0
 39 42  1  0  0  0  0
 40 44  1  0  0  0  0
 41 46  1  0  0  0  0
 42 70  1  0  0  0  0
 43 46  1  0  0  0  0
 43 70  1  0  0  0  0
 44 73  1  0  0  0  0
 45 69  1  0  0  0  0
 46 68  1  0  0  0  0
 47 64  1  0  0  0  0
 48 65  1  0  0  0  0
 49 65  1  0  0  0  0
 50 66  1  0  0  0  0
 51 66  1  0  0  0  0
 52 66  1  0  0  0  0
 53 76  1  0  0  0  0
 54 79  1  0  0  0  0
 55 88  1  0  0  0  0
 56 58  1  0  0  0  0
 56 61  1  0  0  0  0
 57 63  1  0  0  0  0
 57 65  1  0  0  0  0
 58 77  1  0  0  0  0
 59 60  1  0  0  0  0
 59 76  1  0  0  0  0
 60 77  1  0  0  0  0
 61 78  1  0  0  0  0
 62 66  1  0  0  0  0
 62 74  1  0  0  0  0
 63 75  1  0  0  0  0
 64 79  1  0  0  0  0
 67 68  1  0  0  0  0
M  CHG  2  78   1  79   1
M  ISO  4  34 100  55 101  75 100  88 101
M  END
> <Batch ID>
0004

> <Smiles>
CNC(C)C(=O)NC(C(=O)N1Cc2cc([101O:1][101CH2:1]C(=O)N(C)CCN(CCCN)C(=O)C(CC(C)C)[100NH:0][100C:0](=O)N3CCCC(n4nc(-c5ccc(Oc6ccc(F)cc6F)cc5)c(C(N)=O)c4N)C3)ccc2CC1C(=O)NC1CCCc2ccccc21)C(C)(C)C

> <Shape>
0.302

> <Color>
0.078

> <Negative vol penalty>
0.000

$$$$

  -OEChem-04052315243D

 83 91  0     1  0  0  0  0  0999 V2000
  -28.7310  -36.6132   25.2152 C   0  0  0  0  0  0  0  0  0  0  0  0
  -29.0138  -36.0181   23.9899 C   0  0  0  0  0  0  0  0  0  0  0  0
  -23.7349  -11.1157   23.2766 C   0  0  0  0  0  0  0  0  0  0  0  0
  -22.9245  -13.3697   22.9602 C   0  0  0  0  0  0  0  0  0  0  0  0
  -28.1107  -35.8737   26.2213 C   0  0  0  0  0  0  0  0  0  0  0  0
  -28.6775  -34.6828   23.7705 C   0  0  0  0  0  0  0  0  0  0  0  0
  -26.5496  -30.2442   18.5659 C   0  0  0  0  0  0  0  0  0  0  0  0
  -22.9558  -10.9972   24.4275 C   0  0  0  0  0  0  0  0  0  0  0  0
  -22.1454  -13.2511   24.1110 C   0  0  0  0  0  0  0  0  0  0  0  0
  -26.8895  -29.0227   17.9862 C   0  0  0  0  0  0  0  0  0  0  0  0
  -19.7132  -10.4189   25.1918 C   0  0  0  0  0  0  0  0  0  0  0  0
  -18.9799   -9.2444   25.3600 C   0  0  0  0  0  0  0  0  0  0  0  0
  -25.7491  -27.8659   19.7696 C   0  0  0  0  0  0  0  0  0  0  0  0
  -29.4778  -20.1749   18.0487 C   0  0  0  0  0  0  0  0  0  0  0  0
  -28.6077  -20.7852   20.2184 C   0  0  0  0  0  0  0  0  0  0  0  0
  -20.1676   -8.7974   27.4159 C   0  0  0  0  0  0  0  0  0  0  0  0
  -23.7193  -12.3020   22.5429 C   0  0  0  0  0  0  0  0  0  0  0  0
  -24.1483  -12.1052   20.0360 C   0  0  0  0  0  0  0  0  0  0  0  0
  -27.7578  -34.5314   26.0108 C   0  0  0  0  0  0  0  0  0  0  0  0
  -25.8150  -30.2857   19.7597 C   0  0  0  0  0  0  0  0  0  0  0  0
  -28.0531  -33.9243   24.7752 C   0  0  0  0  0  0  0  0  0  0  0  0
  -25.3990  -29.0893   20.3611 C   0  0  0  0  0  0  0  0  0  0  0  0
  -29.3830  -18.8258   18.3902 C   0  0  0  0  0  0  0  0  0  0  0  0
  -28.5128  -19.4361   20.5598 C   0  0  0  0  0  0  0  0  0  0  0  0
  -28.9005  -18.4564   19.6457 C   0  0  0  0  0  0  0  0  0  0  0  0
  -22.1610  -12.0649   24.8447 C   0  0  0  0  0  0  0  0  0  0  0  0
  -26.4918  -27.8332   18.5896 C   0  0  0  0  0  0  0  0  0  0  0  0
  -20.6738  -10.7827   26.1356 C   0  0  0  0  0  0  0  0  0  0  0  0
  -29.0902  -21.1546   18.9629 C   0  0  0  0  0  0  0  0  0  0  0  0
  -19.2070   -8.4336   26.4721 C   0  0  0  0  0  0  0  0  0  0  0  0
  -20.9009   -9.9719   27.2477 C   0  0  0  0  0  0  0  0  0  0  0  0
  -24.5243  -12.4253   21.3543 C   0  0  0  0  0  0  0  0  0  0  0  0
  -25.2578  -12.3991   19.2816 C   0  0  0  0  0  0  0  0  0  0  0  0
  -22.9071  -11.5886   19.5379 C   0  0  0  0  0  0  0  0  0  0  0  0
  -26.3598  -31.3856   22.6917 C   0  0  0  0  0  0  0  0  0  0  0  0
  -23.2499  -30.5848   23.1491 C   0  0  0  0  0  0  0  0  0  0  0  0
  -20.5808  -28.6774   22.2086 C   0  0  0  0  0  0  0  0  0  0  0  0
  -29.8408  -16.1549   20.0527 C   0  0  0  0  0  0  0  0  0  0  0  0
  -27.1316  -33.7590   27.1447 C   0  0  0  0  0  0  0  0  0  0  0  0
  -25.4334  -31.6119   20.3580 C   0  0  0  0  0  0  0  0  0  0  0  0
  -24.5914  -29.0797   21.6324 C   0  0  0  0  0  0  0  0  0  0  0  0
  -26.4688  -32.4571   26.7019 C   0  0  0  0  0  0  0  0  0  0  0  0
  -30.0321  -12.6317   19.5758 C   0  0  0  0  0  0  0  0  0  0  0  0
  -27.3884  -31.6821   25.7636 C   0  0  0  0  0  0  0  0  0  0  0  0
  -28.6057  -12.1506   19.8518 C   0  0  0  0  0  0  0  0  0  0  0  0
  -30.4309  -13.7825   20.4980 C   0  0  0  0  0  0  0  0  0  0  0  0
  -28.0736  -14.4369   20.7880 C   0  0  0  0  0  0  0  0  0  0  0  0
  -27.6812  -32.4852   24.4905 C   0  0  1  0  0  0  0  0  0  0  0  0
  -25.1237  -31.5276   21.8494 C   0  0  1  0  0  0  0  0  0  0  0  0
  -27.6037  -13.3216   19.8398 C   0  0  2  0  0  0  0  0  0  0  0  0
  -29.8053  -17.7992   17.3895 C   0  0  0  0  0  0  0  0  0  0  0  0
  -27.9933  -19.0719   21.9131 C   0  0  0  0  0  0  0  0  0  0  0  0
  -18.1842  -28.2179   22.7939 C   0  0  0  0  0  0  0  0  0  0  0  0
  -24.1548  -28.9553   25.5649 C   0  0  0  0  0  0  0  0  0  0  0  0
  -21.9377  -27.7929   25.5237 C   0  0  0  0  0  0  0  0  0  0  0  0
  -22.0465  -30.2544   25.9134 C   0  0  0  0  0  0  0  0  0  0  0  0
  -19.6408  -29.5526   19.5422 C   0  0  0  0  0  0  0  0  0  0  0  0
  -28.0009  -24.5534   18.3125 C   0  0  0  0  0  0  0  0  0  0  0  0
  -27.0015  -25.5322   18.9085 C   0  0  0  0  0  0  0  0  0  1  0  0
  -28.2431  -23.3613   19.2250 C   0  0  0  0  0  0  0  0  0  0  0  0
  -22.5213  -29.3431   23.6034 C   0  0  1  0  0  0  0  0  0  0  0  0
  -19.1322  -29.0382   21.9329 C   0  0  2  0  0  0  0  0  0  0  0  0
  -22.6820  -29.0862   25.1284 C   0  0  0  0  0  0  0  0  0  0  0  0
  -25.7750  -12.8870   21.4361 N   0  0  0  0  0  0  0  0  0  0  0  0
  -26.1945  -12.8591   20.1597 N   0  0  0  0  0  0  0  0  0  0  0  0
  -24.2486  -30.4017   22.1822 N   0  0  0  0  0  0  0  0  0  0  0  0
  -29.4378  -14.8568   20.4311 N   0  0  0  0  0  0  0  0  0  0  0  0
  -25.5137  -12.3063   17.9593 N   0  0  0  0  0  0  0  0  0  0  0  0
  -21.8714  -11.3434   20.4497 N   0  0  0  0  0  0  0  0  0  0  0  0
  -28.8044  -17.0859   19.9927 N   0  0  0  0  0  0  0  0  0  0  0  0
  -26.5553  -32.4230   23.5834 N   0  0  0  0  0  0  0  0  0  0  0  0
  -21.1382  -29.4983   23.1660 N   0  0  0  0  0  0  0  0  0  0  0  0
  -18.8002  -28.7907   20.5013 N   0  3  0  0  0  0  0  0  0  0  0  0
  -22.7275  -11.3359   18.3224 O   0  0  0  0  0  0  0  0  0  0  0  0
  -27.0820  -30.4065   22.5446 O   0  0  0  0  0  0  0  0  0  0  0  0
  -22.9393  -31.6778   23.6291 O   0  0  0  0  0  0  0  0  0  0  0  0
  -21.1588  -27.7570   21.6348 O   0  0  0  0  0  0  0  0  0  0  0  0
  -31.0142  -16.4148   19.7740 O   0  0  0  0  0  0  0  0  0  0  0  0
  -21.4005  -11.9494   25.9676 O   0  0  0  0  0  0  0  0  0  0  0  0
  -26.8228  -26.6395   18.0263 O   0  0  0  0  0  0  0  0  0  1  0  0
  -29.1849  -22.4803   18.6279 O   0  0  0  0  0  0  0  0  0  0  0  0
  -18.5016   -7.3066   26.6343 F   0  0  0  0  0  0  0  0  0  0  0  0
  -21.8216  -10.3167   28.1583 F   0  0  0  0  0  0  0  0  0  0  0  0
  1  2  1  0  0  0  0
  1  5  2  0  0  0  0
  2  6  2  0  0  0  0
  3  8  2  0  0  0  0
  3 17  1  0  0  0  0
  4  9  1  0  0  0  0
  4 17  2  0  0  0  0
  5 19  1  0  0  0  0
  6 21  1  0  0  0  0
  7 10  2  0  0  0  0
  7 20  1  0  0  0  0
  8 26  1  0  0  0  0
  9 26  2  0  0  0  0
 10 27  1  0  0  0  0
 11 12  2  0  0  0  0
 11 28  1  0  0  0  0
 12 30  1  0  0  0  0
 13 22  1  0  0  0  0
 13 27  2  0  0  0  0
 14 23  2  0  0  0  0
 14 29  1  0  0  0  0
 15 24  1  0  0  0  0
 15 29  2  0  0  0  0
 16 30  2  0  0  0  0
 16 31  1  0  0  0  0
 17 32  1  0  0  0  0
 18 32  1  0  0  0  0
 18 33  2  0  0  0  0
 18 34  1  0  0  0  0
 19 21  2  0  0  0  0
 19 39  1  0  0  0  0
 20 22  2  0  0  0  0
 20 40  1  0  0  0  0
 21 48  1  0  0  0  0
 22 41  1  0  0  0  0
 23 25  1  0  0  0  0
 23 51  1  0  0  0  0
 24 25  2  0  0  0  0
 24 52  1  0  0  0  0
 25 70  1  0  0  0  0
 26 79  1  0  0  0  0
 27 80  1  0  0  0  0
 28 31  2  0  0  0  0
 28 79  1  0  0  0  0
 29 81  1  0  0  0  0
 30 82  1  0  0  0  0
 31 83  1  0  0  0  0
 32 64  2  0  0  0  0
 33 65  1  0  0  0  0
 33 68  1  0  0  0  0
 34 69  1  0  0  0  0
 34 74  2  0  0  0  0
 35 49  1  0  0  0  0
 35 71  1  0  0  0  0
 35 75  2  0  0  0  0
 36 61  1  0  0  0  0
 36 66  1  0  0  0  0
 36 76  2  0  0  0  0
 37 62  1  0  0  0  0
 37 72  1  0  0  0  0
 37 77  2  0  0  0  0
 38 67  1  0  0  0  0
 38 70  1  0  0  0  0
 38 78  2  0  0  0  0
 39 42  1  0  0  0  0
 40 49  1  0  0  0  0
 41 66  1  0  0  0  0
 42 44  1  0  0  0  0
 43 45  1  0  0  0  0
 43 46  1  0  0  0  0
 44 48  1  0  0  0  0
 45 50  1  0  0  0  0
 46 67  1  0  0  0  0
 47 50  1  0  0  0  0
 47 67  1  0  0  0  0
 48 71  1  0  0  0  0
 49 66  1  0  0  0  0
 50 65  1  0  0  0  0
 53 62  1  0  0  0  0
 54 63  1  0  0  0  0
 55 63  1  0  0  0  0
 56 63  1  0  0  0  0
 57 73  1  0  0  0  0
 58 59  1  0  0  0  0
 58 60  1  0  0  0  0
 59 80  1  0  0  0  0
 60 81  1  0  0  0  0
 61 63  1  0  0  0  0
 61 72  1  0  0  0  0
 62 73  1  0  0  0  0
 64 65  1  0  0  0  0
M  CHG  1  73   1
M  ISO  4  38 100  59 101  70 100  80 101
M  END
> <Batch ID>
0004

> <Smiles>
CNC(C)C(=O)NC(C(=O)N1Cc2cc([101O:1][101CH2:1]CCOc3cc(C)c([100NH:0][100C:0](=O)N4CCCC(n5nc(-c6ccc(Oc7ccc(F)cc7F)cc6)c(C(N)=O)c5N)C4)c(C)c3)ccc2CC1C(=O)NC1CCCc2ccccc21)C(C)(C)C

> <Shape>
0.285

> <Color>
0.088

> <Negative vol penalty>
0.000

$$$$

  -OEChem-04052315243D

 91 99  0     1  0  0  0  0  0999 V2000
  -21.1433  -36.3344   17.2647 C   0  0  0  0  0  0  0  0  0  0  0  0
  -21.4880  -35.0471   16.8653 C   0  0  0  0  0  0  0  0  0  0  0  0
  -23.0495   -7.4025   16.5313 C   0  0  0  0  0  0  0  0  0  0  0  0
  -25.1508   -7.0615   17.6739 C   0  0  0  0  0  0  0  0  0  0  0  0
  -21.8818  -36.9760   18.2581 C   0  0  0  0  0  0  0  0  0  0  0  0
  -22.5721  -34.4011   17.4584 C   0  0  0  0  0  0  0  0  0  0  0  0
  -24.8181  -27.8721   19.3672 C   0  0  0  0  0  0  0  0  0  0  0  0
  -30.1928  -13.4258   21.9008 C   0  0  0  0  0  0  0  0  0  0  0  0
  -28.8565  -13.0963   21.6743 C   0  0  0  0  0  0  0  0  0  0  0  0
  -23.4639   -6.5441   15.5129 C   0  0  0  0  0  0  0  0  0  0  0  0
  -25.5652   -6.2030   16.6556 C   0  0  0  0  0  0  0  0  0  0  0  0
  -25.9121  -27.0216   19.2131 C   0  0  0  0  0  0  0  0  0  0  0  0
  -25.0334   -2.9956   15.7335 C   0  0  0  0  0  0  0  0  0  0  0  0
  -25.6403   -1.7962   16.1059 C   0  0  0  0  0  0  0  0  0  0  0  0
  -27.0665  -28.1974   20.9750 C   0  0  0  0  0  0  0  0  0  0  0  0
  -28.4337  -15.3449   20.8981 C   0  0  0  0  0  0  0  0  0  0  0  0
  -27.6402   -2.4372   14.9115 C   0  0  0  0  0  0  0  0  0  0  0  0
  -23.8930   -7.6613   17.6117 C   0  0  0  0  0  0  0  0  0  0  0  0
  -22.7711   -8.2019   19.8381 C   0  0  0  0  0  0  0  0  0  0  0  0
  -22.9696  -36.3339   18.8705 C   0  0  0  0  0  0  0  0  0  0  0  0
  -24.8444  -28.9002   20.3204 C   0  0  0  0  0  0  0  0  0  0  0  0
  -23.3267  -35.0353   18.4600 C   0  0  0  0  0  0  0  0  0  0  0  0
  -25.9705  -29.0579   21.1409 C   0  0  0  0  0  0  0  0  0  0  0  0
  -30.6496  -14.7149   21.6260 C   0  0  0  0  0  0  0  0  0  0  0  0
  -27.9770  -14.0558   21.1729 C   0  0  0  0  0  0  0  0  0  0  0  0
  -29.7700  -15.6744   21.1247 C   0  0  0  0  0  0  0  0  0  0  0  0
  -24.7217   -5.9443   15.5751 C   0  0  0  0  0  0  0  0  0  0  0  0
  -27.0376  -27.1860   20.0151 C   0  0  0  0  0  0  0  0  0  0  0  0
  -25.7299   -3.9158   14.9500 C   0  0  0  0  0  0  0  0  0  0  0  0
  -26.9437   -1.5170   15.6950 C   0  0  0  0  0  0  0  0  0  0  0  0
  -27.0333   -3.6366   14.5390 C   0  0  0  0  0  0  0  0  0  0  0  0
  -23.4657   -8.5484   18.6637 C   0  0  0  0  0  0  0  0  0  0  0  0
  -22.6042   -9.3925   20.5022 C   0  0  0  0  0  0  0  0  0  0  0  0
  -31.5321  -17.5709   17.2251 C   0  0  0  0  0  0  0  0  0  0  0  0
  -31.1124  -18.6870   17.8318 C   0  0  0  0  0  0  0  0  0  0  0  0
  -22.3173   -6.9186   20.2885 C   0  0  0  0  0  0  0  0  0  0  0  0
  -24.6815  -32.0725   20.2033 C   0  0  0  0  0  0  0  0  0  0  0  0
  -24.6094  -31.7991   23.4348 C   0  0  0  0  0  0  0  0  0  0  0  0
  -29.7088  -21.7050   20.1455 C   0  0  0  0  0  0  0  0  0  0  0  0
  -29.4644  -18.0484   20.3402 C   0  0  0  0  0  0  0  0  0  0  0  0
  -25.3612  -29.9508   26.2034 C   0  0  0  0  0  0  0  0  0  0  0  0
  -25.6157  -14.5533   20.4494 C   0  0  0  0  0  0  0  0  0  0  0  0
  -23.7670  -37.0858   19.9065 C   0  0  0  0  0  0  0  0  0  0  0  0
  -23.6457  -29.7922   20.4924 C   0  0  0  0  0  0  0  0  0  0  0  0
  -26.0408  -30.1334   22.1929 C   0  0  0  0  0  0  0  0  0  0  0  0
  -24.6707  -36.1888   20.7486 C   0  0  0  0  0  0  0  0  0  0  0  0
  -22.1639  -14.0944   19.7067 C   0  0  0  0  0  0  0  0  0  0  0  0
  -25.4383  -35.2173   19.8577 C   0  0  0  0  0  0  0  0  0  0  0  0
  -22.0416  -12.5877   19.4678 C   0  0  0  0  0  0  0  0  0  0  0  0
  -23.4847  -14.6477   19.1746 C   0  0  0  0  0  0  0  0  0  0  0  0
  -24.5644  -12.4463   19.4146 C   0  0  0  0  0  0  0  0  0  0  0  0
  -24.4808  -34.2921   19.0970 C   0  0  1  0  0  0  0  0  0  0  0  0
  -23.9847  -31.1298   21.1432 C   0  0  1  0  0  0  0  0  0  0  0  0
  -23.2786  -11.8319   19.9915 C   0  0  2  0  0  0  0  0  0  0  0  0
  -32.0861  -15.0396   21.8784 C   0  0  0  0  0  0  0  0  0  0  0  0
  -25.2149  -30.0058   28.7080 C   0  0  0  0  0  0  0  0  0  0  0  0
  -26.9567  -33.7463   23.5267 C   0  0  0  0  0  0  0  0  0  0  0  0
  -27.3658  -33.0327   25.8914 C   0  0  0  0  0  0  0  0  0  0  0  0
  -25.2124  -34.1317   25.2769 C   0  0  0  0  0  0  0  0  0  0  0  0
  -23.6423  -27.5426   26.2717 C   0  0  0  0  0  0  0  0  0  0  0  0
  -31.5125  -19.0860   19.2258 C   0  0  0  0  0  0  0  0  0  0  0  0
  -28.6790  -22.6538   19.5586 C   0  0  0  0  0  0  0  0  0  0  0  0
  -28.9105  -24.0998   19.9819 C   0  0  0  0  0  0  0  0  0  0  0  0
  -27.8417  -25.0277   19.4228 C   0  0  0  0  0  0  0  0  0  1  0  0
  -25.6501  -31.7571   24.5276 C   0  0  1  0  0  0  0  0  0  0  0  0
  -30.3256  -19.3035   20.1741 C   0  0  1  0  0  0  0  0  0  0  0  0
  -24.5331  -29.5747   27.4188 C   0  0  2  0  0  0  0  0  0  0  0  0
  -26.2960  -33.1478   24.7846 C   0  0  0  0  0  0  0  0  0  0  0  0
  -23.7223   -9.8567   18.5833 N   0  0  0  0  0  0  0  0  0  0  0  0
  -23.1860  -10.3428   19.7157 N   0  0  0  0  0  0  0  0  0  0  0  0
  -24.8460  -30.9844   22.3185 N   0  0  0  0  0  0  0  0  0  0  0  0
  -24.6118  -13.8855   19.7166 N   0  0  0  0  0  0  0  0  0  0  0  0
  -22.0179   -9.7089   21.6763 N   0  0  0  0  0  0  0  0  0  0  0  0
  -22.5723   -5.7996   19.4839 N   0  0  0  0  0  0  0  0  0  0  0  0
  -30.2144  -16.9873   20.8399 N   0  0  0  0  0  0  0  0  0  0  0  0
  -26.6196  -13.7206   20.9430 N   0  0  0  0  0  0  0  0  0  0  0  0
  -23.9903  -33.2457   19.9682 N   0  0  0  0  0  0  0  0  0  0  0  0
  -24.9932  -31.1784   25.6947 N   0  0  0  0  0  0  0  0  0  0  0  0
  -29.4816  -20.3951   19.7493 N   0  0  0  0  0  0  0  0  0  0  0  0
  -24.3251  -28.0998   27.4676 N   0  3  0  0  0  0  0  0  0  0  0  0
  -21.6895   -6.7709   21.3644 O   0  0  0  0  0  0  0  0  0  0  0  0
  -25.7666  -31.7593   19.7278 O   0  0  0  0  0  0  0  0  0  0  0  0
  -23.6195  -32.5225   23.5699 O   0  0  0  0  0  0  0  0  0  0  0  0
  -30.6236  -22.0715   20.8784 O   0  0  0  0  0  0  0  0  0  0  0  0
  -28.2773  -18.0330   20.0271 O   0  0  0  0  0  0  0  0  0  0  0  0
  -26.2485  -29.2296   25.7528 O   0  0  0  0  0  0  0  0  0  0  0  0
  -25.5727  -15.7699   20.6492 O   0  0  0  0  0  0  0  0  0  0  0  0
  -25.1263   -5.1064   14.5817 O   0  0  0  0  0  0  0  0  0  0  0  0
  -28.1071  -26.3578   19.8664 O   0  0  0  0  0  0  0  0  0  1  0  0
  -27.5269   -0.3658   16.0540 F   0  0  0  0  0  0  0  0  0  0  0  0
  -27.7078   -4.5173   13.7872 F   0  0  0  0  0  0  0  0  0  0  0  0
  1  2  1  0  0  0  0
  1  5  2  0  0  0  0
  2  6  2  0  0  0  0
  3 10  2  0  0  0  0
  3 18  1  0  0  0  0
  4 11  1  0  0  0  0
  4 18  2  0  0  0  0
  5 20  1  0  0  0  0
  6 22  1  0  0  0  0
  7 12  2  0  0  0  0
  7 21  1  0  0  0  0
  8  9  2  0  0  0  0
  8 24  1  0  0  0  0
  9 25  1  0  0  0  0
 10 27  1  0  0  0  0
 11 27  2  0  0  0  0
 12 28  1  0  0  0  0
 13 14  2  0  0  0  0
 13 29  1  0  0  0  0
 14 30  1  0  0  0  0
 15 23  1  0  0  0  0
 15 28  2  0  0  0  0
 16 25  2  0  0  0  0
 16 26  1  0  0  0  0
 17 30  2  0  0  0  0
 17 31  1  0  0  0  0
 18 32  1  0  0  0  0
 19 32  1  0  0  0  0
 19 33  2  0  0  0  0
 19 36  1  0  0  0  0
 20 22  2  0  0  0  0
 20 43  1  0  0  0  0
 21 23  2  0  0  0  0
 21 44  1  0  0  0  0
 22 52  1  0  0  0  0
 23 45  1  0  0  0  0
 24 26  2  0  0  0  0
 24 55  1  0  0  0  0
 25 76  1  0  0  0  0
 26 75  1  0  0  0  0
 27 88  1  0  0  0  0
 28 89  1  0  0  0  0
 29 31  2  0  0  0  0
 29 88  1  0  0  0  0
 30 90  1  0  0  0  0
 31 91  1  0  0  0  0
 32 69  2  0  0  0  0
 33 70  1  0  0  0  0
 33 73  1  0  0  0  0
 34 35  2  0  0  0  0
 35 61  1  0  0  0  0
 36 74  1  0  0  0  0
 36 81  2  0  0  0  0
 37 53  1  0  0  0  0
 37 77  1  0  0  0  0
 37 82  2  0  0  0  0
 38 65  1  0  0  0  0
 38 71  1  0  0  0  0
 38 83  2  0  0  0  0
 39 62  1  0  0  0  0
 39 79  1  0  0  0  0
 39 84  2  0  0  0  0
 40 66  1  0  0  0  0
 40 75  1  0  0  0  0
 40 85  2  0  0  0  0
 41 67  1  0  0  0  0
 41 78  1  0  0  0  0
 41 86  2  0  0  0  0
 42 72  1  0  0  0  0
 42 76  1  0  0  0  0
 42 87  2  0  0  0  0
 43 46  1  0  0  0  0
 44 53  1  0  0  0  0
 45 71  1  0  0  0  0
 46 48  1  0  0  0  0
 47 49  1  0  0  0  0
 47 50  1  0  0  0  0
 48 52  1  0  0  0  0
 49 54  1  0  0  0  0
 50 72  1  0  0  0  0
 51 54  1  0  0  0  0
 51 72  1  0  0  0  0
 52 77  1  0  0  0  0
 53 71  1  0  0  0  0
 54 70  1  0  0  0  0
 56 67  1  0  0  0  0
 57 68  1  0  0  0  0
 58 68  1  0  0  0  0
 59 68  1  0  0  0  0
 60 80  1  0  0  0  0
 61 66  1  0  0  0  0
 62 63  1  0  0  0  0
 63 64  1  0  0  0  0
 64 89  1  0  0  0  0
 65 68  1  0  0  0  0
 65 78  1  0  0  0  0
 66 79  1  0  0  0  0
 67 80  1  0  0  0  0
 69 70  1  0  0  0  0
M  CHG  1  80   1
M  ISO  4  42 100  64 101  76 100  89 101
M  END
> <Batch ID>
0004

> <Smiles>
C=CCC(NC(=O)CC[101CH2:1][101O:1]c1ccc2c(c1)CN(C(=O)C(NC(=O)C(C)NC)C(C)(C)C)C(C(=O)NC1CCCc3ccccc31)C2)C(=O)Nc1cc([100NH:0][100C:0](=O)N2CCCC(n3nc(-c4ccc(Oc5ccc(F)cc5F)cc4)c(C(N)=O)c3N)C2)ccc1C

> <Shape>
0.262

> <Color>
0.096

> <Negative vol penalty>
0.000

$$$$

  -OEChem-04052315243D

 91 99  0     1  0  0  0  0  0999 V2000
  -33.1693  -22.3603   29.2351 C   0  0  0  0  0  0  0  0  0  0  0  0
  -32.2766  -21.5745   28.5133 C   0  0  0  0  0  0  0  0  0  0  0  0
  -28.5603  -12.9452   29.2743 C   0  0  0  0  0  0  0  0  0  0  0  0
  -23.2884   -9.7997   19.9128 C   0  0  0  0  0  0  0  0  0  0  0  0
  -23.7385   -9.9400   22.2824 C   0  0  0  0  0  0  0  0  0  0  0  0
  -33.2347  -22.2435   30.6229 C   0  0  0  0  0  0  0  0  0  0  0  0
  -31.4493  -20.6706   29.1790 C   0  0  0  0  0  0  0  0  0  0  0  0
  -26.6706  -20.8178   27.5095 C   0  0  0  0  0  0  0  0  0  0  0  0
  -22.5617   -8.6273   20.1202 C   0  0  0  0  0  0  0  0  0  0  0  0
  -23.0118   -8.7676   22.4898 C   0  0  0  0  0  0  0  0  0  0  0  0
  -26.3966  -20.1707   26.3054 C   0  0  0  0  0  0  0  0  0  0  0  0
  -20.9718   -6.0078   23.6898 C   0  0  0  0  0  0  0  0  0  0  0  0
  -20.0699   -5.9825   24.7535 C   0  0  0  0  0  0  0  0  0  0  0  0
  -29.5543  -12.6459   28.3102 C   0  0  0  0  0  0  0  0  0  0  0  0
  -25.5216  -18.2828   27.5259 C   0  0  0  0  0  0  0  0  0  0  0  0
  -18.8610   -7.8299   23.7723 C   0  0  0  0  0  0  0  0  0  0  0  0
  -27.3354  -12.7194   28.6860 C   0  0  0  0  0  0  0  0  0  0  0  0
  -23.8768  -10.4560   20.9939 C   0  0  0  0  0  0  0  0  0  0  0  0
  -24.1367  -12.9860   20.7955 C   0  0  0  0  0  0  0  0  0  0  0  0
  -32.4010  -21.3447   31.3068 C   0  0  0  0  0  0  0  0  0  0  0  0
  -26.3817  -20.1967   28.7331 C   0  0  0  0  0  0  0  0  0  0  0  0
  -31.5045  -20.5408   30.5771 C   0  0  0  0  0  0  0  0  0  0  0  0
  -25.7906  -18.9252   28.7442 C   0  0  0  0  0  0  0  0  0  0  0  0
  -22.4234   -8.1112   21.4087 C   0  0  0  0  0  0  0  0  0  0  0  0
  -25.8247  -18.9018   26.3135 C   0  0  0  0  0  0  0  0  0  0  0  0
  -20.8184   -6.9441   22.6673 C   0  0  0  0  0  0  0  0  0  0  0  0
  -19.0145   -6.8936   24.7947 C   0  0  0  0  0  0  0  0  0  0  0  0
  -19.7630   -7.8552   22.7086 C   0  0  0  0  0  0  0  0  0  0  0  0
  -24.6280  -11.6668   20.7801 C   0  0  0  0  0  0  0  0  0  0  0  0
  -28.9066  -12.2466   27.1620 C   0  0  0  0  0  0  0  0  0  0  0  0
  -25.2384  -13.7657   20.5409 C   0  0  0  0  0  0  0  0  0  0  0  0
  -22.8037  -13.4638   21.0200 C   0  0  0  0  0  0  0  0  0  0  0  0
  -29.4972  -11.8466   25.9212 C   0  0  0  0  0  0  0  0  0  0  0  0
  -28.1066  -19.2427   31.2268 C   0  0  0  0  0  0  0  0  0  0  0  0
  -25.1927  -18.6211   32.5096 C   0  0  0  0  0  0  0  0  0  0  0  0
  -26.1291  -15.2869   24.4186 C   0  0  0  0  0  0  0  0  0  0  0  0
  -21.8902  -17.9290   31.9988 C   0  0  0  0  0  0  0  0  0  0  0  0
  -31.1090  -12.9216   21.3623 C   0  0  0  0  0  0  0  0  0  0  0  0
  -32.5410  -21.2197   32.8033 C   0  0  0  0  0  0  0  0  0  0  0  0
  -26.6587  -20.9191   30.0230 C   0  0  0  0  0  0  0  0  0  0  0  0
  -25.4425  -18.2237   30.0307 C   0  0  0  0  0  0  0  0  0  0  0  0
  -31.3658  -20.5069   33.4675 C   0  0  0  0  0  0  0  0  0  0  0  0
  -29.4612  -13.6615   18.2941 C   0  0  0  0  0  0  0  0  0  0  0  0
  -31.0073  -19.2388   32.6993 C   0  0  0  0  0  0  0  0  0  0  0  0
  -27.9913  -13.3532   18.5847 C   0  0  0  0  0  0  0  0  0  0  0  0
  -30.3941  -12.6819   19.0026 C   0  0  0  0  0  0  0  0  0  0  0  0
  -28.7068  -12.2527   20.7470 C   0  0  0  0  0  0  0  0  0  0  0  0
  -30.5732  -19.5666   31.2655 C   0  0  1  0  0  0  0  0  0  0  0  0
  -26.7969  -19.9791   31.2166 C   0  0  1  0  0  0  0  0  0  0  0  0
  -27.7292  -13.2481   20.0991 C   0  0  2  0  0  0  0  0  0  0  0  0
  -19.7663  -17.4339   33.2403 C   0  0  0  0  0  0  0  0  0  0  0  0
  -26.1794  -15.7872   33.0624 C   0  0  0  0  0  0  0  0  0  0  0  0
  -23.7964  -15.0985   33.4017 C   0  0  0  0  0  0  0  0  0  0  0  0
  -24.8275  -16.7996   34.9069 C   0  0  0  0  0  0  0  0  0  0  0  0
  -28.4214  -16.0117   23.6692 C   0  0  0  0  0  0  0  0  0  0  0  0
  -20.5470  -20.3211   30.8886 C   0  0  0  0  0  0  0  0  0  0  0  0
  -26.8036  -14.0838   25.0656 C   0  0  0  0  0  0  0  0  0  0  0  0
  -25.8056  -13.1574   25.7674 C   0  0  0  0  0  0  0  0  0  0  0  0
  -32.4132  -11.8851   24.2365 C   0  0  0  0  0  0  0  0  0  0  0  0
  -26.4727  -11.9402   26.4174 C   0  0  0  0  0  0  0  0  0  0  0  0
  -31.5014  -10.7964   24.7982 C   0  0  0  0  0  0  0  0  0  0  0  0
  -31.6702  -13.1350   23.7703 C   0  0  0  0  0  0  0  0  0  0  0  0
  -26.4496  -17.3729   23.0944 C   0  0  0  0  0  0  0  0  0  0  0  0
  -26.4052  -18.5664   24.0317 C   0  0  0  0  0  0  0  0  0  1  0  0
  -24.2630  -17.4319   32.5250 C   0  0  1  0  0  0  0  0  0  0  0  0
  -20.6315  -18.5155   32.6123 C   0  0  2  0  0  0  0  0  0  0  0  0
  -24.7748  -16.2914   33.4496 C   0  0  0  0  0  0  0  0  0  0  0  0
  -25.9397  -11.6080   20.5350 N   0  0  0  0  0  0  0  0  0  0  0  0
  -27.5582  -12.2953   27.4020 N   0  0  0  0  0  0  0  0  0  0  0  0
  -26.2819  -12.8999   20.3939 N   0  0  0  0  0  0  0  0  0  0  0  0
  -25.7384  -18.9685   31.2657 N   0  0  0  0  0  0  0  0  0  0  0  0
  -30.0943  -12.6304   20.4356 N   0  0  0  0  0  0  0  0  0  0  0  0
  -25.4066  -15.1006   20.4307 N   0  0  0  0  0  0  0  0  0  0  0  0
  -21.7909  -12.5271   21.2671 N   0  0  0  0  0  0  0  0  0  0  0  0
  -30.7670  -11.2342   25.9634 N   0  0  0  0  0  0  0  0  0  0  0  0
  -29.2154  -20.0670   31.2504 N   0  0  0  0  0  0  0  0  0  0  0  0
  -22.9466  -17.9475   32.8848 N   0  0  0  0  0  0  0  0  0  0  0  0
  -30.7389  -12.8560   22.7000 N   0  0  0  0  0  0  0  0  0  0  0  0
  -26.9661  -16.1991   23.7471 N   0  0  0  0  0  0  0  0  0  0  0  0
  -19.8265  -19.2164   31.5723 N   0  3  0  0  0  0  0  0  0  0  0  0
  -22.5160  -14.6843   20.9857 O   0  0  0  0  0  0  0  0  0  0  0  0
  -28.9187  -12.0500   24.8254 O   0  0  0  0  0  0  0  0  0  0  0  0
  -28.1108  -18.0173   31.2158 O   0  0  0  0  0  0  0  0  0  0  0  0
  -25.4207  -19.2242   33.5613 O   0  0  0  0  0  0  0  0  0  0  0  0
  -24.9061  -15.4328   24.4911 O   0  0  0  0  0  0  0  0  0  0  0  0
  -21.9311  -17.4944   30.8499 O   0  0  0  0  0  0  0  0  0  0  0  0
  -32.2582  -13.2232   21.0225 O   0  0  0  0  0  0  0  0  0  0  0  0
  -21.7142   -6.9674   21.6116 O   0  0  0  0  0  0  0  0  0  0  0  0
  -25.5568  -18.2677   25.1396 O   0  0  0  0  0  0  0  0  0  1  0  0
  -18.1475   -6.8683   25.8155 F   0  0  0  0  0  0  0  0  0  0  0  0
  -19.6098   -8.7563   21.7286 F   0  0  0  0  0  0  0  0  0  0  0  0
  1  2  1  0  0  0  0
  1  6  2  0  0  0  0
  2  7  2  0  0  0  0
  3 14  1  0  0  0  0
  3 17  2  0  0  0  0
  4  9  2  0  0  0  0
  4 18  1  0  0  0  0
  5 10  1  0  0  0  0
  5 18  2  0  0  0  0
  6 20  1  0  0  0  0
  7 22  1  0  0  0  0
  8 11  2  0  0  0  0
  8 21  1  0  0  0  0
  9 24  1  0  0  0  0
 10 24  2  0  0  0  0
 11 25  1  0  0  0  0
 12 13  2  0  0  0  0
 12 26  1  0  0  0  0
 13 27  1  0  0  0  0
 14 30  2  0  0  0  0
 15 23  1  0  0  0  0
 15 25  2  0  0  0  0
 16 27  2  0  0  0  0
 16 28  1  0  0  0  0
 17 69  1  0  0  0  0
 18 29  1  0  0  0  0
 19 29  1  0  0  0  0
 19 31  2  0  0  0  0
 19 32  1  0  0  0  0
 20 22  2  0  0  0  0
 20 39  1  0  0  0  0
 21 23  2  0  0  0  0
 21 40  1  0  0  0  0
 22 48  1  0  0  0  0
 23 41  1  0  0  0  0
 24 88  1  0  0  0  0
 25 89  1  0  0  0  0
 26 28  2  0  0  0  0
 26 88  1  0  0  0  0
 27 90  1  0  0  0  0
 28 91  1  0  0  0  0
 29 68  2  0  0  0  0
 30 33  1  0  0  0  0
 30 69  1  0  0  0  0
 31 70  1  0  0  0  0
 31 73  1  0  0  0  0
 32 74  1  0  0  0  0
 32 81  2  0  0  0  0
 33 75  1  0  0  0  0
 33 82  2  0  0  0  0
 34 49  1  0  0  0  0
 34 76  1  0  0  0  0
 34 83  2  0  0  0  0
 35 65  1  0  0  0  0
 35 71  1  0  0  0  0
 35 84  2  0  0  0  0
 36 57  1  0  0  0  0
 36 79  1  0  0  0  0
 36 85  2  0  0  0  0
 37 66  1  0  0  0  0
 37 77  1  0  0  0  0
 37 86  2  0  0  0  0
 38 72  1  0  0  0  0
 38 78  1  0  0  0  0
 38 87  2  0  0  0  0
 39 42  1  0  0  0  0
 40 49  1  0  0  0  0
 41 71  1  0  0  0  0
 42 44  1  0  0  0  0
 43 45  1  0  0  0  0
 43 46  1  0  0  0  0
 44 48  1  0  0  0  0
 45 50  1  0  0  0  0
 46 72  1  0  0  0  0
 47 50  1  0  0  0  0
 47 72  1  0  0  0  0
 48 76  1  0  0  0  0
 49 71  1  0  0  0  0
 50 70  1  0  0  0  0
 51 66  1  0  0  0  0
 52 67  1  0  0  0  0
 53 67  1  0  0  0  0
 54 67  1  0  0  0  0
 55 79  1  0  0  0  0
 56 80  1  0  0  0  0
 57 58  1  0  0  0  0
 58 60  1  0  0  0  0
 59 61  1  0  0  0  0
 59 62  1  0  0  0  0
 60 69  1  0  0  0  0
 61 75  1  0  0  0  0
 62 78  1  0  0  0  0
 63 64  1  0  0  0  0
 63 79  1  0  0  0  0
 64 89  1  0  0  0  0
 65 67  1  0  0  0  0
 65 77  1  0  0  0  0
 66 80  1  0  0  0  0
 68 70  1  0  0  0  0
M  CHG  1  80   1
M  ISO  4  38 100  64 101  78 100  89 101
M  END
> <Batch ID>
0004

> <Smiles>
CNC(C)C(=O)NC(C(=O)N1Cc2cc([101O:1][101CH2:1]CN(C)C(=O)CCCn3cccc3C(=O)NCCC[100NH:0][100C:0](=O)N3CCCC(n4nc(-c5ccc(Oc6ccc(F)cc6F)cc5)c(C(N)=O)c4N)C3)ccc2CC1C(=O)NC1CCCc2ccccc21)C(C)(C)C

> <Shape>
0.125

> <Color>
0.170

> <Negative vol penalty>
0.000

$$$$

  -OEChem-04052315243D

 86 94  0     1  0  0  0  0  0999 V2000
  -22.9121  -30.4930   13.3110 C   0  0  0  0  0  0  0  0  0  0  0  0
  -23.8167  -29.8285   14.1330 C   0  0  0  0  0  0  0  0  0  0  0  0
  -24.5687   -8.7959   21.4205 C   0  0  0  0  0  0  0  0  0  0  0  0
  -23.5056  -10.8241   22.1907 C   0  0  0  0  0  0  0  0  0  0  0  0
  -22.6626  -31.8508   13.5055 C   0  0  0  0  0  0  0  0  0  0  0  0
  -24.4731  -30.5218   15.1493 C   0  0  0  0  0  0  0  0  0  0  0  0
  -24.5431  -27.9604   19.5172 C   0  0  0  0  0  0  0  0  0  0  0  0
  -29.6728  -18.2730   21.6989 C   0  0  0  0  0  0  0  0  0  0  0  0
  -23.9348   -8.0784   22.4350 C   0  0  0  0  0  0  0  0  0  0  0  0
  -22.8717  -10.1067   23.2051 C   0  0  0  0  0  0  0  0  0  0  0  0
  -25.4705  -26.9259   19.6339 C   0  0  0  0  0  0  0  0  0  0  0  0
  -29.6173  -19.6336   22.0010 C   0  0  0  0  0  0  0  0  0  0  0  0
  -22.3145   -5.6491   24.6002 C   0  0  0  0  0  0  0  0  0  0  0  0
  -21.7290   -4.4288   24.2630 C   0  0  0  0  0  0  0  0  0  0  0  0
  -26.9267  -28.3812   20.8912 C   0  0  0  0  0  0  0  0  0  0  0  0
  -27.3031  -19.6927   21.3096 C   0  0  0  0  0  0  0  0  0  0  0  0
  -20.2841   -5.5568   22.6892 C   0  0  0  0  0  0  0  0  0  0  0  0
  -24.3541  -10.1688   21.2984 C   0  0  0  0  0  0  0  0  0  0  0  0
  -24.5266  -11.1517   18.9507 C   0  0  0  0  0  0  0  0  0  0  0  0
  -23.3090  -32.5590   14.5308 C   0  0  0  0  0  0  0  0  0  0  0  0
  -24.8058  -29.2184   20.0782 C   0  0  0  0  0  0  0  0  0  0  0  0
  -24.2330  -31.8908   15.3568 C   0  0  0  0  0  0  0  0  0  0  0  0
  -25.9999  -29.4292   20.7824 C   0  0  0  0  0  0  0  0  0  0  0  0
  -28.5435  -17.6223   21.2021 C   0  0  0  0  0  0  0  0  0  0  0  0
  -27.3587  -18.3321   21.0074 C   0  0  0  0  0  0  0  0  0  0  0  0
  -23.0863   -8.7338   23.3273 C   0  0  0  0  0  0  0  0  0  0  0  0
  -26.6637  -27.1371   20.3185 C   0  0  0  0  0  0  0  0  0  0  0  0
  -28.4325  -20.3435   21.8063 C   0  0  0  0  0  0  0  0  0  0  0  0
  -21.8847   -6.8233   23.9819 C   0  0  0  0  0  0  0  0  0  0  0  0
  -20.7139   -4.3826   23.3075 C   0  0  0  0  0  0  0  0  0  0  0  0
  -20.8696   -6.7772   23.0264 C   0  0  0  0  0  0  0  0  0  0  0  0
  -25.0090  -10.9105   20.2511 C   0  0  0  0  0  0  0  0  0  0  0  0
  -25.5125  -11.8970   18.3515 C   0  0  0  0  0  0  0  0  0  0  0  0
  -23.2972  -10.7390   18.3392 C   0  0  0  0  0  0  0  0  0  0  0  0
  -25.1510  -32.1606   18.9257 C   0  0  0  0  0  0  0  0  0  0  0  0
  -25.2736  -32.9575   22.0677 C   0  0  0  0  0  0  0  0  0  0  0  0
  -25.9176  -31.9947   25.2779 C   0  0  0  0  0  0  0  0  0  0  0  0
  -29.7497  -15.5302   20.4847 C   0  0  0  0  0  0  0  0  0  0  0  0
  -23.0423  -34.0366   14.6723 C   0  0  0  0  0  0  0  0  0  0  0  0
  -23.7834  -30.3160   19.9665 C   0  0  0  0  0  0  0  0  0  0  0  0
  -26.3208  -30.7553   21.4203 C   0  0  0  0  0  0  0  0  0  0  0  0
  -23.4983  -34.6125   16.0105 C   0  0  0  0  0  0  0  0  0  0  0  0
  -30.2425  -12.6363   18.4698 C   0  0  0  0  0  0  0  0  0  0  0  0
  -24.9053  -34.1294   16.3478 C   0  0  0  0  0  0  0  0  0  0  0  0
  -28.9104  -11.8904   18.5747 C   0  0  0  0  0  0  0  0  0  0  0  0
  -30.6208  -13.3097   19.7878 C   0  0  0  0  0  0  0  0  0  0  0  0
  -28.2549  -13.4372   20.4627 C   0  0  0  0  0  0  0  0  0  0  0  0
  -24.9462  -32.6027   16.4858 C   0  0  1  0  0  0  0  0  0  0  0  0
  -24.3817  -31.7092   20.1349 C   0  0  1  0  0  0  0  0  0  0  0  0
  -27.8000  -12.7969   19.1411 C   0  0  2  0  0  0  0  0  0  0  0  0
  -24.9408  -16.4646   22.1735 C   0  0  0  0  0  0  0  0  0  0  0  0
  -25.8179  -18.0377   18.1382 C   0  0  0  0  0  0  0  0  0  0  0  0
  -25.9669  -32.8767   27.6267 C   0  0  0  0  0  0  0  0  0  0  0  0
  -27.9058  -34.3824   21.4749 C   0  0  0  0  0  0  0  0  0  0  0  0
  -28.3667  -34.4060   23.9357 C   0  0  0  0  0  0  0  0  0  0  0  0
  -26.3805  -35.6125   23.0289 C   0  0  0  0  0  0  0  0  0  0  0  0
  -23.8409  -30.0812   26.1635 C   0  0  0  0  0  0  0  0  0  0  0  0
  -27.9899  -23.9033   21.2647 C   0  0  0  0  0  0  0  0  0  0  0  0
  -24.9849  -17.6648   21.2902 C   0  0  0  0  0  0  0  0  0  0  0  0
  -26.2190  -17.0704   19.1993 C   0  0  0  0  0  0  0  0  0  0  0  0
  -27.0615  -24.7964   20.4568 C   0  0  0  0  0  0  0  0  0  1  0  0
  -27.4811  -22.4722   21.3380 C   0  0  0  0  0  0  0  0  0  0  0  0
  -26.3712  -33.0852   23.0962 C   0  0  1  0  0  0  0  0  0  0  0  0
  -25.1312  -32.1822   26.5627 C   0  0  2  0  0  0  0  0  0  0  0  0
  -27.2511  -34.3470   22.8704 C   0  0  0  0  0  0  0  0  0  0  0  0
  -26.2082  -11.4581   20.4660 N   0  0  0  0  0  0  0  0  0  0  0  0
  -26.4876  -12.0506   19.2925 N   0  0  0  0  0  0  0  0  0  0  0  0
  -25.2921  -31.7990   21.2782 N   0  0  0  0  0  0  0  0  0  0  0  0
  -29.5231  -14.1556   20.2615 N   0  0  0  0  0  0  0  0  0  0  0  0
  -25.6317  -12.4292   17.1166 N   0  0  0  0  0  0  0  0  0  0  0  0
  -22.3964   -9.9782   19.0970 N   0  0  0  0  0  0  0  0  0  0  0  0
  -28.6242  -16.2397   20.9024 N   0  0  0  0  0  0  0  0  0  0  0  0
  -24.4033  -32.1960   17.7642 N   0  0  0  0  0  0  0  0  0  0  0  0
  -25.7170  -33.0384   24.3994 N   0  0  0  0  0  0  0  0  0  0  0  0
  -26.2024  -17.6926   20.5069 N   0  0  0  0  0  0  0  0  0  0  0  0
  -24.6911  -30.8628   27.0979 N   0  3  0  0  0  0  0  0  0  0  0  0
  -23.0134  -11.0221   17.1506 O   0  0  0  0  0  0  0  0  0  0  0  0
  -26.3348  -32.4563   19.0385 O   0  0  0  0  0  0  0  0  0  0  0  0
  -24.4266  -33.8494   21.9733 O   0  0  0  0  0  0  0  0  0  0  0  0
  -26.6407  -31.0218   25.0754 O   0  0  0  0  0  0  0  0  0  0  0  0
  -30.8537  -16.0456   20.2914 O   0  0  0  0  0  0  0  0  0  0  0  0
  -22.4675   -8.0340   24.3171 O   0  0  0  0  0  0  0  0  0  0  0  0
  -27.5709  -26.1292   20.4333 O   0  0  0  0  0  0  0  0  0  1  0  0
  -28.3778  -21.6801   22.1050 O   0  0  0  0  0  0  0  0  0  0  0  0
  -20.1529   -3.2105   22.9827 F   0  0  0  0  0  0  0  0  0  0  0  0
  -20.4533   -7.9017   22.4281 F   0  0  0  0  0  0  0  0  0  0  0  0
  1  2  1  0  0  0  0
  1  5  2  0  0  0  0
  2  6  2  0  0  0  0
  3  9  2  0  0  0  0
  3 18  1  0  0  0  0
  4 10  1  0  0  0  0
  4 18  2  0  0  0  0
  5 20  1  0  0  0  0
  6 22  1  0  0  0  0
  7 11  2  0  0  0  0
  7 21  1  0  0  0  0
  8 12  2  0  0  0  0
  8 24  1  0  0  0  0
  9 26  1  0  0  0  0
 10 26  2  0  0  0  0
 11 27  1  0  0  0  0
 12 28  1  0  0  0  0
 13 14  2  0  0  0  0
 13 29  1  0  0  0  0
 14 30  1  0  0  0  0
 15 23  1  0  0  0  0
 15 27  2  0  0  0  0
 16 25  1  0  0  0  0
 16 28  2  0  0  0  0
 17 30  2  0  0  0  0
 17 31  1  0  0  0  0
 18 32  1  0  0  0  0
 19 32  1  0  0  0  0
 19 33  2  0  0  0  0
 19 34  1  0  0  0  0
 20 22  2  0  0  0  0
 20 39  1  0  0  0  0
 21 23  2  0  0  0  0
 21 40  1  0  0  0  0
 22 48  1  0  0  0  0
 23 41  1  0  0  0  0
 24 25  2  0  0  0  0
 24 72  1  0  0  0  0
 25 75  1  0  0  0  0
 26 82  1  0  0  0  0
 27 83  1  0  0  0  0
 28 84  1  0  0  0  0
 29 31  2  0  0  0  0
 29 82  1  0  0  0  0
 30 85  1  0  0  0  0
 31 86  1  0  0  0  0
 32 66  2  0  0  0  0
 33 67  1  0  0  0  0
 33 70  1  0  0  0  0
 34 71  1  0  0  0  0
 34 77  2  0  0  0  0
 35 49  1  0  0  0  0
 35 73  1  0  0  0  0
 35 78  2  0  0  0  0
 36 63  1  0  0  0  0
 36 68  1  0  0  0  0
 36 79  2  0  0  0  0
 37 64  1  0  0  0  0
 37 74  1  0  0  0  0
 37 80  2  0  0  0  0
 38 69  1  0  0  0  0
 38 72  1  0  0  0  0
 38 81  2  0  0  0  0
 39 42  1  0  0  0  0
 40 49  1  0  0  0  0
 41 68  1  0  0  0  0
 42 44  1  0  0  0  0
 43 45  1  0  0  0  0
 43 46  1  0  0  0  0
 44 48  1  0  0  0  0
 45 50  1  0  0  0  0
 46 69  1  0  0  0  0
 47 50  1  0  0  0  0
 47 69  1  0  0  0  0
 48 73  1  0  0  0  0
 49 68  1  0  0  0  0
 50 67  1  0  0  0  0
 51 59  1  0  0  0  0
 52 60  1  0  0  0  0
 53 64  1  0  0  0  0
 54 65  1  0  0  0  0
 55 65  1  0  0  0  0
 56 65  1  0  0  0  0
 57 76  1  0  0  0  0
 58 61  1  0  0  0  0
 58 62  1  0  0  0  0
 59 75  1  0  0  0  0
 60 75  1  0  0  0  0
 61 83  1  0  0  0  0
 62 84  1  0  0  0  0
 63 65  1  0  0  0  0
 63 74  1  0  0  0  0
 64 76  1  0  0  0  0
 66 67  1  0  0  0  0
M  CHG  1  76   1
M  ISO  4  38 100  61 101  72 100  83 101
M  END
> <Batch ID>
0004

> <Smiles>
CCN(CC)c1cc(OCC[101CH2:1][101O:1]c2ccc3c(c2)CN(C(=O)C(NC(=O)C(C)NC)C(C)(C)C)C(C(=O)NC2CCCc4ccccc42)C3)ccc1[100NH:0][100C:0](=O)N1CCCC(n2nc(-c3ccc(Oc4ccc(F)cc4F)cc3)c(C(N)=O)c2N)C1

> <Shape>
0.284

> <Color>
0.104

> <Negative vol penalty>
0.000

$$$$

  -OEChem-04052315243D

 86 95  0     1  0  0  0  0  0999 V2000
  -35.1070  -24.2834   19.2319 C   0  0  0  0  0  0  0  0  0  0  0  0
  -34.2201  -23.6015   20.0651 C   0  0  0  0  0  0  0  0  0  0  0  0
  -34.6183  -25.1335   18.2398 C   0  0  0  0  0  0  0  0  0  0  0  0
  -18.1548  -31.5834   19.6435 C   0  0  0  0  0  0  0  0  0  0  0  0
  -19.4412  -31.2349   19.2448 C   0  0  0  0  0  0  0  0  0  0  0  0
  -28.8862  -22.2628   16.7969 C   0  0  0  0  0  0  0  0  0  0  0  0
  -25.8576  -13.0700   21.9486 C   0  0  0  0  0  0  0  0  0  0  0  0
  -25.6906  -13.9155   19.6915 C   0  0  0  0  0  0  0  0  0  0  0  0
  -32.8446  -23.7697   19.9061 C   0  0  0  0  0  0  0  0  0  0  0  0
  -33.2427  -25.3016   18.0809 C   0  0  0  0  0  0  0  0  0  0  0  0
  -29.7329  -23.3299   17.0968 C   0  0  0  0  0  0  0  0  0  0  0  0
  -17.8162  -31.5645   20.9959 C   0  0  0  0  0  0  0  0  0  0  0  0
  -20.3903  -30.8684   20.1984 C   0  0  0  0  0  0  0  0  0  0  0  0
  -24.8295  -26.6979   19.5608 C   0  0  0  0  0  0  0  0  0  0  0  0
  -28.3003  -21.5265   17.8266 C   0  0  0  0  0  0  0  0  0  0  0  0
  -24.7384  -12.2667   21.7305 C   0  0  0  0  0  0  0  0  0  0  0  0
  -24.5714  -13.1121   19.4734 C   0  0  0  0  0  0  0  0  0  0  0  0
  -26.1859  -26.8106   19.2587 C   0  0  0  0  0  0  0  0  0  0  0  0
  -24.0380   -9.3323   20.2035 C   0  0  0  0  0  0  0  0  0  0  0  0
  -24.0967   -8.0075   20.6361 C   0  0  0  0  0  0  0  0  0  0  0  0
  -29.4081  -22.9244   19.4563 C   0  0  0  0  0  0  0  0  0  0  0  0
  -26.7096  -26.7421   21.6125 C   0  0  0  0  0  0  0  0  0  0  0  0
  -22.2013   -8.3959   22.0830 C   0  0  0  0  0  0  0  0  0  0  0  0
  -26.3337  -13.8945   20.9291 C   0  0  0  0  0  0  0  0  0  0  0  0
  -32.3559  -24.6197   18.9140 C   0  0  0  0  0  0  0  0  0  0  0  0
  -29.9939  -23.6607   18.4265 C   0  0  0  0  0  0  0  0  0  0  0  0
  -28.8368  -14.3863   20.9271 C   0  0  0  0  0  0  0  0  0  0  0  0
  -18.7588  -31.1883   21.9657 C   0  0  0  0  0  0  0  0  0  0  0  0
  -24.4014  -26.6174   20.8937 C   0  0  0  0  0  0  0  0  0  0  0  0
  -20.0644  -30.8457   21.5652 C   0  0  0  0  0  0  0  0  0  0  0  0
  -25.3474  -26.6259   21.9287 C   0  0  0  0  0  0  0  0  0  0  0  0
  -28.5613  -21.8573   19.1563 C   0  0  0  0  0  0  0  0  0  0  0  0
  -24.0953  -12.2876   20.4929 C   0  0  0  0  0  0  0  0  0  0  0  0
  -27.1260  -26.8356   20.2848 C   0  0  0  0  0  0  0  0  0  0  0  0
  -23.0609  -10.1889   20.7107 C   0  0  0  0  0  0  0  0  0  0  0  0
  -23.1784   -7.5393   21.5759 C   0  0  0  0  0  0  0  0  0  0  0  0
  -22.1425   -9.7207   21.6504 C   0  0  0  0  0  0  0  0  0  0  0  0
  -27.4894  -14.7251   21.1540 C   0  0  0  0  0  0  0  0  0  0  0  0
  -29.5394  -15.5080   21.2944 C   0  0  0  0  0  0  0  0  0  0  0  0
  -30.3364  -26.0208   18.8849 C   0  0  0  0  0  0  0  0  0  0  0  0
  -30.8961  -24.7985   18.7448 C   0  0  0  0  0  0  0  0  0  0  0  0
  -29.4028  -13.1669   20.4289 C   0  0  0  0  0  0  0  0  0  0  0  0
  -22.5640  -28.4066   22.7715 C   0  0  0  0  0  0  0  0  0  0  0  0
  -22.9778  -25.9550   24.8550 C   0  0  0  0  0  0  0  0  0  0  0  0
  -24.8752  -23.3076   25.8737 C   0  0  0  0  0  0  0  0  0  0  0  0
  -28.1185  -21.3052   21.5741 C   0  0  0  0  0  0  0  0  0  0  0  0
  -18.3600  -31.2286   23.4197 C   0  0  0  0  0  0  0  0  0  0  0  0
  -22.9366  -26.4694   21.2017 C   0  0  0  0  0  0  0  0  0  0  0  0
  -24.9410  -26.5220   23.3753 C   0  0  0  0  0  0  0  0  0  0  0  0
  -19.3155  -30.4671   24.3347 C   0  0  0  0  0  0  0  0  0  0  0  0
  -29.3073  -19.2729   24.2449 C   0  0  0  0  0  0  0  0  0  0  0  0
  -20.7631  -30.8181   24.0058 C   0  0  0  0  0  0  0  0  0  0  0  0
  -29.1043  -17.8453   23.7323 C   0  0  0  0  0  0  0  0  0  0  0  0
  -28.1789  -20.2013   23.7995 C   0  0  0  0  0  0  0  0  0  0  0  0
  -27.7106  -18.7799   21.8426 C   0  0  0  0  0  0  0  0  0  0  0  0
  -21.1145  -30.4186   22.5676 C   0  0  1  0  0  0  0  0  0  0  0  0
  -22.5758  -26.9121   22.6163 C   0  0  1  0  0  0  0  0  0  0  0  0
  -28.8557  -17.8227   22.2113 C   0  0  2  0  0  0  0  0  0  0  0  0
  -25.5112  -21.2689   27.1916 C   0  0  0  0  0  0  0  0  0  0  0  0
  -23.9234  -28.0152   26.8974 C   0  0  0  0  0  0  0  0  0  0  0  0
  -24.8877  -26.1365   28.2424 C   0  0  0  0  0  0  0  0  0  0  0  0
  -22.4304  -26.2362   27.8248 C   0  0  0  0  0  0  0  0  0  0  0  0
  -23.4834  -21.5076   23.9811 C   0  0  0  0  0  0  0  0  0  0  0  0
  -28.8903  -26.3947   18.7522 C   0  0  0  0  0  0  0  0  0  1  0  0
  -23.9860  -25.6229   25.9285 C   0  0  1  0  0  0  0  0  0  0  0  0
  -24.5031  -21.8797   26.2306 C   0  0  2  0  0  0  0  0  0  0  0  0
  -23.8147  -26.5066   27.1962 C   0  0  0  0  0  0  0  0  0  0  0  0
  -27.3423  -15.9649   21.6287 N   0  0  0  0  0  0  0  0  0  0  0  0
  -28.6064  -16.4149   21.7033 N   0  0  0  0  0  0  0  0  0  0  0  0
  -23.4967  -26.3852   23.6256 N   0  0  0  0  0  0  0  0  0  0  0  0
  -28.0039  -20.1305   22.3472 N   0  0  0  0  0  0  0  0  0  0  0  0
  -30.8580  -15.7970   21.3043 N   0  0  0  0  0  0  0  0  0  0  0  0
  -28.5378  -12.1144   20.0995 N   0  0  0  0  0  0  0  0  0  0  0  0
  -27.9651  -21.1096   20.2019 N   0  0  0  0  0  0  0  0  0  0  0  0
  -21.3467  -28.9927   22.4815 N   0  0  0  0  0  0  0  0  0  0  0  0
  -23.8607  -24.1908   26.1771 N   0  0  0  0  0  0  0  0  0  0  0  0
  -24.4523  -21.0355   25.0036 N   0  3  0  0  0  0  0  0  0  0  0  0
  -30.6401  -13.0091   20.2957 O   0  0  0  0  0  0  0  0  0  0  0  0
  -23.5834  -28.9849   23.1294 O   0  0  0  0  0  0  0  0  0  0  0  0
  -21.7745  -25.8302   25.0961 O   0  0  0  0  0  0  0  0  0  0  0  0
  -25.9590  -23.6097   25.3790 O   0  0  0  0  0  0  0  0  0  0  0  0
  -28.3637  -22.3994   22.0886 O   0  0  0  0  0  0  0  0  0  0  0  0
  -23.0034  -11.5036   20.2797 O   0  0  0  0  0  0  0  0  0  0  0  0
  -28.4505  -26.9461   19.9928 O   0  0  0  0  0  0  0  0  0  1  0  0
  -23.2340   -6.2667   21.9900 F   0  0  0  0  0  0  0  0  0  0  0  0
  -21.2008  -10.5386   22.1404 F   0  0  0  0  0  0  0  0  0  0  0  0
  1  2  1  0  0  0  0
  1  3  2  0  0  0  0
  2  9  2  0  0  0  0
  3 10  1  0  0  0  0
  4  5  1  0  0  0  0
  4 12  2  0  0  0  0
  5 13  2  0  0  0  0
  6 11  2  0  0  0  0
  6 15  1  0  0  0  0
  7 16  2  0  0  0  0
  7 24  1  0  0  0  0
  8 17  1  0  0  0  0
  8 24  2  0  0  0  0
  9 25  1  0  0  0  0
 10 25  2  0  0  0  0
 11 26  1  0  0  0  0
 12 28  1  0  0  0  0
 13 30  1  0  0  0  0
 14 18  2  0  0  0  0
 14 29  1  0  0  0  0
 15 32  2  0  0  0  0
 16 33  1  0  0  0  0
 17 33  2  0  0  0  0
 18 34  1  0  0  0  0
 19 20  2  0  0  0  0
 19 35  1  0  0  0  0
 20 36  1  0  0  0  0
 21 26  2  0  0  0  0
 21 32  1  0  0  0  0
 22 31  1  0  0  0  0
 22 34  2  0  0  0  0
 23 36  2  0  0  0  0
 23 37  1  0  0  0  0
 24 38  1  0  0  0  0
 25 41  1  0  0  0  0
 26 41  1  0  0  0  0
 27 38  1  0  0  0  0
 27 39  2  0  0  0  0
 27 42  1  0  0  0  0
 28 30  2  0  0  0  0
 28 47  1  0  0  0  0
 29 31  2  0  0  0  0
 29 48  1  0  0  0  0
 30 56  1  0  0  0  0
 31 49  1  0  0  0  0
 32 74  1  0  0  0  0
 33 83  1  0  0  0  0
 34 84  1  0  0  0  0
 35 37  2  0  0  0  0
 35 83  1  0  0  0  0
 36 85  1  0  0  0  0
 37 86  1  0  0  0  0
 38 68  2  0  0  0  0
 39 69  1  0  0  0  0
 39 72  1  0  0  0  0
 40 41  2  0  0  0  0
 40 64  1  0  0  0  0
 42 73  1  0  0  0  0
 42 78  2  0  0  0  0
 43 57  1  0  0  0  0
 43 75  1  0  0  0  0
 43 79  2  0  0  0  0
 44 65  1  0  0  0  0
 44 70  1  0  0  0  0
 44 80  2  0  0  0  0
 45 66  1  0  0  0  0
 45 76  1  0  0  0  0
 45 81  2  0  0  0  0
 46 71  1  0  0  0  0
 46 74  1  0  0  0  0
 46 82  2  0  0  0  0
 47 50  1  0  0  0  0
 48 57  1  0  0  0  0
 49 70  1  0  0  0  0
 50 52  1  0  0  0  0
 51 53  1  0  0  0  0
 51 54  1  0  0  0  0
 52 56  1  0  0  0  0
 53 58  1  0  0  0  0
 54 71  1  0  0  0  0
 55 58  1  0  0  0  0
 55 71  1  0  0  0  0
 56 75  1  0  0  0  0
 57 70  1  0  0  0  0
 58 69  1  0  0  0  0
 59 66  1  0  0  0  0
 60 67  1  0  0  0  0
 61 67  1  0  0  0  0
 62 67  1  0  0  0  0
 63 77  1  0  0  0  0
 64 84  1  0  0  0  0
 65 67  1  0  0  0  0
 65 76  1  0  0  0  0
 66 77  1  0  0  0  0
 68 69  1  0  0  0  0
M  CHG  1  77   1
M  ISO  4  46 100  64 101  74 100  84 101
M  END
> <Batch ID>
0004

> <Smiles>
CNC(C)C(=O)NC(C(=O)N1Cc2cc([101O:1][101CH2:1]C=C(c3ccccc3)c3cccc([100NH:0][100C:0](=O)N4CCCC(n5nc(-c6ccc(Oc7ccc(F)cc7F)cc6)c(C(N)=O)c5N)C4)c3)ccc2CC1C(=O)NC1CCCc2ccccc21)C(C)(C)C

> <Shape>
0.230

> <Color>
0.090

> <Negative vol penalty>
0.000

$$$$

  -OEChem-04052315243D

105113  0     1  0  0  0  0  0999 V2000
  -18.3964  -25.4833   21.9696 C   0  0  0  0  0  0  0  0  0  0  0  0
  -19.3948  -25.7963   21.0528 C   0  0  0  0  0  0  0  0  0  0  0  0
  -29.6572  -16.6520   19.1670 C   0  0  0  0  0  0  0  0  0  0  0  0
  -30.2014  -16.0431   21.4408 C   0  0  0  0  0  0  0  0  0  0  0  0
  -17.9210  -26.4616   22.8419 C   0  0  0  0  0  0  0  0  0  0  0  0
  -19.9178  -27.0881   21.0072 C   0  0  0  0  0  0  0  0  0  0  0  0
  -24.9714  -27.1277   20.6829 C   0  0  0  0  0  0  0  0  0  0  0  0
  -26.9745  -20.6175   15.1522 C   0  0  0  0  0  0  0  0  0  0  0  0
  -24.7995  -20.8572   16.1764 C   0  0  0  0  0  0  0  0  0  0  0  0
  -30.0571  -17.9636   19.4225 C   0  0  0  0  0  0  0  0  0  0  0  0
  -30.6013  -17.3548   21.6963 C   0  0  0  0  0  0  0  0  0  0  0  0
  -25.5313  -26.8646   19.4335 C   0  0  0  0  0  0  0  0  0  0  0  0
  -27.0269  -21.9952   14.9409 C   0  0  0  0  0  0  0  0  0  0  0  0
  -24.8519  -22.2350   15.9651 C   0  0  0  0  0  0  0  0  0  0  0  0
  -30.5970  -21.5563   19.5805 C   0  0  0  0  0  0  0  0  0  0  0  0
  -29.7748  -22.5869   19.1252 C   0  0  0  0  0  0  0  0  0  0  0  0
  -25.8599  -29.2296   19.0895 C   0  0  0  0  0  0  0  0  0  0  0  0
  -27.9623  -21.7391   20.4792 C   0  0  0  0  0  0  0  0  0  0  0  0
  -29.7293  -15.6917   20.1762 C   0  0  0  0  0  0  0  0  0  0  0  0
  -30.1166  -13.2806   19.4387 C   0  0  0  0  0  0  0  0  0  0  0  0
  -18.4452  -27.7635   22.8135 C   0  0  0  0  0  0  0  0  0  0  0  0
  -24.8413  -28.4467   21.1411 C   0  0  0  0  0  0  0  0  0  0  0  0
  -19.4481  -28.0851   21.8790 C   0  0  0  0  0  0  0  0  0  0  0  0
  -25.3003  -29.5066   20.3461 C   0  0  0  0  0  0  0  0  0  0  0  0
  -25.8607  -20.0485   15.7699 C   0  0  0  0  0  0  0  0  0  0  0  0
  -30.5292  -18.3150   20.6871 C   0  0  0  0  0  0  0  0  0  0  0  0
  -25.9656  -22.8040   15.3473 C   0  0  0  0  0  0  0  0  0  0  0  0
  -25.9730  -27.9158   18.6353 C   0  0  0  0  0  0  0  0  0  0  0  0
  -30.1019  -20.6170   20.4851 C   0  0  0  0  0  0  0  0  0  0  0  0
  -28.4574  -22.6784   19.5745 C   0  0  0  0  0  0  0  0  0  0  0  0
  -28.7845  -20.7084   20.9344 C   0  0  0  0  0  0  0  0  0  0  0  0
  -29.3159  -14.3368   19.9130 C   0  0  0  0  0  0  0  0  0  0  0  0
  -29.2601  -12.2099   19.3579 C   0  0  0  0  0  0  0  0  0  0  0  0
  -31.5101  -13.2683   19.1015 C   0  0  0  0  0  0  0  0  0  0  0  0
  -22.3952  -30.3130   21.9394 C   0  0  0  0  0  0  0  0  0  0  0  0
  -24.7506  -32.3531   22.8408 C   0  0  0  0  0  0  0  0  0  0  0  0
  -29.8404   -9.3920   14.8435 C   0  0  0  0  0  0  0  0  0  0  0  0
  -26.8916  -17.8172   15.5701 C   0  0  0  0  0  0  0  0  0  0  0  0
  -27.9927  -33.3647   22.5058 C   0  0  0  0  0  0  0  0  0  0  0  0
  -25.1886   -9.0609   21.5149 C   0  0  0  0  0  0  0  0  0  0  0  0
  -17.8664  -28.7996   23.7441 C   0  0  0  0  0  0  0  0  0  0  0  0
  -24.2596  -28.7120   22.5026 C   0  0  0  0  0  0  0  0  0  0  0  0
  -25.2019  -30.9391   20.8006 C   0  0  0  0  0  0  0  0  0  0  0  0
  -18.7368  -30.0458   23.8851 C   0  0  0  0  0  0  0  0  0  0  0  0
  -24.2208  -11.9892   19.7358 C   0  0  0  0  0  0  0  0  0  0  0  0
  -19.2010  -30.5304   22.5153 C   0  0  0  0  0  0  0  0  0  0  0  0
  -25.5244  -12.7762   19.5899 C   0  0  0  0  0  0  0  0  0  0  0  0
  -24.1459  -11.2651   21.0782 C   0  0  0  0  0  0  0  0  0  0  0  0
  -26.6042  -11.1855   21.2338 C   0  0  0  0  0  0  0  0  0  0  0  0
  -20.0581  -29.4686   21.8157 C   0  0  1  0  0  0  0  0  0  0  0  0
  -23.7056  -30.1258   22.6504 C   0  0  1  0  0  0  0  0  0  0  0  0
  -26.7505  -11.8875   19.8729 C   0  0  2  0  0  0  0  0  0  0  0  0
  -22.4804  -16.7643   21.0256 C   0  0  0  0  0  0  0  0  0  0  0  0
  -29.6170  -35.0830   23.3462 C   0  0  0  0  0  0  0  0  0  0  0  0
  -23.4231  -34.4643   21.0827 C   0  0  0  0  0  0  0  0  0  0  0  0
  -25.5415  -35.7936   21.1998 C   0  0  0  0  0  0  0  0  0  0  0  0
  -24.2561  -35.3126   23.2829 C   0  0  0  0  0  0  0  0  0  0  0  0
  -29.7871  -31.2920   23.6207 C   0  0  0  0  0  0  0  0  0  0  0  0
  -30.0020  -10.8884   14.6413 C   0  0  0  0  0  0  0  0  0  0  0  0
  -26.7436  -16.3148   15.7979 C   0  0  0  0  0  0  0  0  0  0  0  0
  -23.6951  -17.3838   20.3530 C   0  0  0  0  0  0  0  0  0  0  0  0
  -28.8089  -11.6810   15.1702 C   0  0  0  0  0  0  0  0  0  0  0  0
  -27.9475  -15.4937   15.3258 C   0  0  0  0  0  0  0  0  0  0  0  0
  -23.5468  -17.3975   18.8319 C   0  0  0  0  0  0  0  0  0  0  0  0
  -29.0147  -13.1862   14.9874 C   0  0  0  0  0  0  0  0  0  0  0  0
  -27.8025  -13.9751   15.4878 C   0  0  0  0  0  0  0  0  0  0  0  0
  -27.7990   -5.5347   18.5838 C   0  0  0  0  0  0  0  0  0  0  0  0
  -29.0553   -5.8410   17.7668 C   0  0  0  0  0  0  0  0  0  0  0  0
  -27.7271   -6.4036   19.8413 C   0  0  0  0  0  0  0  0  0  0  0  0
  -24.7841  -17.9902   18.1575 C   0  0  0  0  0  0  0  0  0  0  0  0
  -29.0690   -7.2938   17.2910 C   0  0  0  0  0  0  0  0  0  0  0  0
  -26.4534   -6.1169   20.6419 C   0  0  0  0  0  0  0  0  0  0  0  0
  -27.1969  -26.1988   15.6145 C   0  0  0  0  0  0  0  0  0  0  0  0
  -30.3384   -7.6096   16.5092 C   0  0  0  0  0  0  0  0  0  0  0  0
  -26.3791   -6.9240   21.9339 C   0  0  0  0  0  0  0  0  0  0  0  0
  -24.6209  -18.0390   16.6432 C   0  0  0  0  0  0  0  0  0  0  0  0
  -27.3071  -24.7571   15.1436 C   0  0  0  0  0  0  0  0  0  0  0  0
  -26.6101  -26.2968   17.0140 C   0  0  0  0  0  0  0  0  0  1  0  0
  -25.5377  -33.4458   22.1584 C   0  0  1  0  0  0  0  0  0  0  0  0
  -29.0611  -33.6804   23.5370 C   0  0  2  0  0  0  0  0  0  0  0  0
  -24.6898  -34.7273   21.9213 C   0  0  0  0  0  0  0  0  0  0  0  0
  -28.0480  -13.9704   20.1189 N   0  0  0  0  0  0  0  0  0  0  0  0
  -28.0456  -12.6720   19.7722 N   0  0  0  0  0  0  0  0  0  0  0  0
  -24.6200  -31.1477   22.1368 N   0  0  0  0  0  0  0  0  0  0  0  0
  -25.3376  -10.4385   21.2844 N   0  0  0  0  0  0  0  0  0  0  0  0
  -29.4349  -10.9277   18.9735 N   0  0  0  0  0  0  0  0  0  0  0  0
  -32.2423  -14.4550   19.2432 N   0  0  0  0  0  0  0  0  0  0  0  0
  -21.3970  -29.4575   22.3649 N   0  0  0  0  0  0  0  0  0  0  0  0
  -30.3594   -8.9839   16.0636 N   0  0  0  0  0  0  0  0  0  0  0  0
  -26.7293  -33.6598   22.9725 N   0  0  0  0  0  0  0  0  0  0  0  0
  -26.3689   -8.3499   21.6939 N   0  0  0  0  0  0  0  0  0  0  0  0
  -25.8061  -18.6152   15.9898 N   0  0  0  0  0  0  0  0  0  0  0  0
  -30.1871  -32.7100   23.4301 N   0  3  0  0  0  0  0  0  0  0  0  0
  -32.0851  -12.2398   18.6711 O   0  0  0  0  0  0  0  0  0  0  0  0
  -22.2967  -31.1711   21.0702 O   0  0  0  0  0  0  0  0  0  0  0  0
  -24.2754  -32.5591   23.9603 O   0  0  0  0  0  0  0  0  0  0  0  0
  -29.3135   -8.6546   14.0148 O   0  0  0  0  0  0  0  0  0  0  0  0
  -27.9064  -18.2509   15.0188 O   0  0  0  0  0  0  0  0  0  0  0  0
  -28.2533  -32.9058   21.3958 O   0  0  0  0  0  0  0  0  0  0  0  0
  -24.0858   -8.5049   21.5525 O   0  0  0  0  0  0  0  0  0  0  0  0
  -30.9197  -19.5948   20.9367 O   0  0  0  0  0  0  0  0  0  0  0  0
  -26.0167  -24.1484   15.1412 O   0  0  0  0  0  0  0  0  0  0  0  0
  -26.5233  -27.6600   17.4063 O   0  0  0  0  0  0  0  0  0  1  0  0
  -27.6684  -23.6690   19.1384 F   0  0  0  0  0  0  0  0  0  0  0  0
  -28.3036  -19.8096   21.8043 F   0  0  0  0  0  0  0  0  0  0  0  0
  1  2  1  0  0  0  0
  1  5  2  0  0  0  0
  2  6  2  0  0  0  0
  3 10  2  0  0  0  0
  3 19  1  0  0  0  0
  4 11  1  0  0  0  0
  4 19  2  0  0  0  0
  5 21  1  0  0  0  0
  6 23  1  0  0  0  0
  7 12  2  0  0  0  0
  7 22  1  0  0  0  0
  8 13  2  0  0  0  0
  8 25  1  0  0  0  0
  9 14  1  0  0  0  0
  9 25  2  0  0  0  0
 10 26  1  0  0  0  0
 11 26  2  0  0  0  0
 12 28  1  0  0  0  0
 13 27  1  0  0  0  0
 14 27  2  0  0  0  0
 15 16  2  0  0  0  0
 15 29  1  0  0  0  0
 16 30  1  0  0  0  0
 17 24  1  0  0  0  0
 17 28  2  0  0  0  0
 18 30  2  0  0  0  0
 18 31  1  0  0  0  0
 19 32  1  0  0  0  0
 20 32  1  0  0  0  0
 20 33  2  0  0  0  0
 20 34  1  0  0  0  0
 21 23  2  0  0  0  0
 21 41  1  0  0  0  0
 22 24  2  0  0  0  0
 22 42  1  0  0  0  0
 23 50  1  0  0  0  0
 24 43  1  0  0  0  0
 25 92  1  0  0  0  0
 26101  1  0  0  0  0
 27102  1  0  0  0  0
 28103  1  0  0  0  0
 29 31  2  0  0  0  0
 29101  1  0  0  0  0
 30104  1  0  0  0  0
 31105  1  0  0  0  0
 32 82  2  0  0  0  0
 33 83  1  0  0  0  0
 33 86  1  0  0  0  0
 34 87  1  0  0  0  0
 34 94  2  0  0  0  0
 35 51  1  0  0  0  0
 35 88  1  0  0  0  0
 35 95  2  0  0  0  0
 36 79  1  0  0  0  0
 36 84  1  0  0  0  0
 36 96  2  0  0  0  0
 37 59  1  0  0  0  0
 37 89  1  0  0  0  0
 37 97  2  0  0  0  0
 38 60  1  0  0  0  0
 38 92  1  0  0  0  0
 38 98  2  0  0  0  0
 39 80  1  0  0  0  0
 39 90  1  0  0  0  0
 39 99  2  0  0  0  0
 40 85  1  0  0  0  0
 40 91  1  0  0  0  0
 40100  2  0  0  0  0
 41 44  1  0  0  0  0
 42 51  1  0  0  0  0
 43 84  1  0  0  0  0
 44 46  1  0  0  0  0
 45 47  1  0  0  0  0
 45 48  1  0  0  0  0
 46 50  1  0  0  0  0
 47 52  1  0  0  0  0
 48 85  1  0  0  0  0
 49 52  1  0  0  0  0
 49 85  1  0  0  0  0
 50 88  1  0  0  0  0
 51 84  1  0  0  0  0
 52 83  1  0  0  0  0
 53 61  1  0  0  0  0
 54 80  1  0  0  0  0
 55 81  1  0  0  0  0
 56 81  1  0  0  0  0
 57 81  1  0  0  0  0
 58 93  1  0  0  0  0
 59 62  1  0  0  0  0
 60 63  1  0  0  0  0
 61 64  1  0  0  0  0
 62 65  1  0  0  0  0
 63 66  1  0  0  0  0
 64 70  1  0  0  0  0
 65 66  1  0  0  0  0
 67 68  1  0  0  0  0
 67 69  1  0  0  0  0
 68 71  1  0  0  0  0
 69 72  1  0  0  0  0
 70 76  1  0  0  0  0
 71 74  1  0  0  0  0
 72 75  1  0  0  0  0
 73 77  1  0  0  0  0
 73 78  1  0  0  0  0
 74 89  1  0  0  0  0
 75 91  1  0  0  0  0
 76 92  1  0  0  0  0
 77102  1  0  0  0  0
 78103  1  0  0  0  0
 79 81  1  0  0  0  0
 79 90  1  0  0  0  0
 80 93  1  0  0  0  0
 82 83  1  0  0  0  0
M  CHG  1  93   1
M  ISO  4  40 100  78 101  91 100 103 101
M  END
> <Batch ID>
0004

> <Smiles>
CCCCCN(C(=O)CCCCCCC(=O)NCCCCCCC[100NH:0][100C:0](=O)N1CCCC(n2nc(-c3ccc(Oc4ccc(F)cc4F)cc3)c(C(N)=O)c2N)C1)c1ccc(OCC[101CH2:1][101O:1]c2ccc3c(c2)CN(C(=O)C(NC(=O)C(C)NC)C(C)(C)C)C(C(=O)NC2CCCc4ccccc42)C3)cc1

> <Shape>
0.285

> <Color>
0.076

> <Negative vol penalty>
0.000

$$$$

  -OEChem-04052315243D

 83 90  0     1  0  0  0  0  0999 V2000
  -20.0556   -8.5430   19.1435 C   0  0  0  0  0  0  0  0  0  0  0  0
  -19.8407   -9.8847   19.4418 C   0  0  0  0  0  0  0  0  0  0  0  0
  -28.7247  -26.2664   19.9113 C   0  0  0  0  0  0  0  0  0  0  0  0
  -26.7125  -25.5394   18.7890 C   0  0  0  0  0  0  0  0  0  0  0  0
  -21.1920   -7.8959   19.6268 C   0  0  0  0  0  0  0  0  0  0  0  0
  -20.7618  -10.5799   20.2245 C   0  0  0  0  0  0  0  0  0  0  0  0
  -22.3303  -16.4766   19.7003 C   0  0  0  0  0  0  0  0  0  0  0  0
  -29.2996  -25.0148   19.6914 C   0  0  0  0  0  0  0  0  0  0  0  0
  -27.2875  -24.2877   18.5690 C   0  0  0  0  0  0  0  0  0  0  0  0
  -21.9239  -17.6199   20.3869 C   0  0  0  0  0  0  0  0  0  0  0  0
  -27.8588  -21.4631   20.3370 C   0  0  0  0  0  0  0  0  0  0  0  0
  -27.0764  -20.3368   20.5918 C   0  0  0  0  0  0  0  0  0  0  0  0
  -23.8440  -17.4260   21.8341 C   0  0  0  0  0  0  0  0  0  0  0  0
  -27.3061  -19.6556   18.2852 C   0  0  0  0  0  0  0  0  0  0  0  0
  -27.4311  -26.5287   19.4602 C   0  0  0  0  0  0  0  0  0  0  0  0
  -26.9001  -28.9466   18.8441 C   0  0  0  0  0  0  0  0  0  0  0  0
  -22.1324   -8.5861   20.4079 C   0  0  0  0  0  0  0  0  0  0  0  0
  -23.4927  -15.7920   20.0830 C   0  0  0  0  0  0  0  0  0  0  0  0
  -21.9113   -9.9411   20.7199 C   0  0  0  0  0  0  0  0  0  0  0  0
  -24.2644  -16.2757   21.1491 C   0  0  0  0  0  0  0  0  0  0  0  0
  -28.5811  -24.0254   19.0202 C   0  0  0  0  0  0  0  0  0  0  0  0
  -22.6792  -18.0931   21.4558 C   0  0  0  0  0  0  0  0  0  0  0  0
  -28.3647  -21.6858   19.0563 C   0  0  0  0  0  0  0  0  0  0  0  0
  -26.8001  -19.4330   19.5659 C   0  0  0  0  0  0  0  0  0  0  0  0
  -28.0884  -20.7820   18.0304 C   0  0  0  0  0  0  0  0  0  0  0  0
  -26.8364  -27.8213   19.6876 C   0  0  0  0  0  0  0  0  0  0  0  0
  -26.1813  -29.9124   19.5052 C   0  0  0  0  0  0  0  0  0  0  0  0
  -27.5507  -29.1048   17.5763 C   0  0  0  0  0  0  0  0  0  0  0  0
  -24.1221  -12.8687   21.1608 C   0  0  0  0  0  0  0  0  0  0  0  0
  -27.2015  -13.8430   20.8600 C   0  0  0  0  0  0  0  0  0  0  0  0
  -20.7713  -21.0442   22.5470 C   0  0  0  0  0  0  0  0  0  0  0  0
  -29.4217  -16.4315   20.7298 C   0  0  0  0  0  0  0  0  0  0  0  0
  -21.7864  -29.6618   23.5640 C   0  0  0  0  0  0  0  0  0  0  0  0
  -23.3218   -7.8317   20.9472 C   0  0  0  0  0  0  0  0  0  0  0  0
  -23.9319  -14.5755   19.3152 C   0  0  0  0  0  0  0  0  0  0  0  0
  -25.5313  -15.5888   21.5867 C   0  0  0  0  0  0  0  0  0  0  0  0
  -24.4383   -8.7390   21.4574 C   0  0  0  0  0  0  0  0  0  0  0  0
  -24.9330  -31.2907   23.9135 C   0  0  0  0  0  0  0  0  0  0  0  0
  -23.8664   -9.8465   22.3368 C   0  0  0  0  0  0  0  0  0  0  0  0
  -25.7834  -30.6878   22.7940 C   0  0  0  0  0  0  0  0  0  0  0  0
  -23.9905  -30.2567   24.5255 C   0  0  0  0  0  0  0  0  0  0  0  0
  -23.9813  -28.9489   22.4367 C   0  0  0  0  0  0  0  0  0  0  0  0
  -22.8999  -10.7358   21.5453 C   0  0  1  0  0  0  0  0  0  0  0  0
  -24.8550  -13.6636   20.1175 C   0  0  1  0  0  0  0  0  0  0  0  0
  -24.9081  -29.9674   21.7509 C   0  0  2  0  0  0  0  0  0  0  0  0
  -31.6240  -17.5975   20.4340 C   0  0  0  0  0  0  0  0  0  0  0  0
  -27.6129  -13.0263   23.7710 C   0  0  0  0  0  0  0  0  0  0  0  0
  -29.7222  -14.3751   23.7785 C   0  0  0  0  0  0  0  0  0  0  0  0
  -29.4976  -12.4229   22.2419 C   0  0  0  0  0  0  0  0  0  0  0  0
  -29.0138  -16.7104   17.8118 C   0  0  0  0  0  0  0  0  0  0  0  0
  -21.0862  -19.8441   21.6847 C   0  0  0  0  0  0  0  0  0  1  0  0
  -19.5596  -26.4654   22.6024 C   0  0  0  0  0  0  0  0  0  0  0  0
  -19.0647  -27.7917   23.1869 C   0  0  0  0  0  0  0  0  0  0  0  0
  -18.9382  -25.2728   23.3298 C   0  0  0  0  0  0  0  0  0  0  0  0
  -19.6574  -29.0022   22.4725 C   0  0  0  0  0  0  0  0  0  0  0  0
  -19.3997  -23.9557   22.7253 C   0  0  0  0  0  0  0  0  0  0  0  0
  -28.1962  -14.5361   21.7595 C   0  0  1  0  0  0  0  0  0  0  0  0
  -30.5605  -16.7346   19.7729 C   0  0  2  0  0  0  0  0  0  0  0  0
  -28.7324  -13.6022   22.8810 C   0  0  0  0  0  0  0  0  0  0  0  0
  -26.1329  -28.0497   20.7997 N   0  0  0  0  0  0  0  0  0  0  0  0
  -25.7480  -29.3297   20.6597 N   0  0  0  0  0  0  0  0  0  0  0  0
  -25.9157  -14.3996   20.8084 N   0  0  0  0  0  0  0  0  0  0  0  0
  -23.1879  -29.6114   23.4838 N   0  0  0  0  0  0  0  0  0  0  0  0
  -25.8841  -31.1948   19.2059 N   0  0  0  0  0  0  0  0  0  0  0  0
  -28.2453  -28.0115   17.0408 N   0  0  0  0  0  0  0  0  0  0  0  0
  -23.6342  -11.6584   20.7062 N   0  0  0  0  0  0  0  0  0  0  0  0
  -29.2319  -15.0745   20.8843 N   0  0  0  0  0  0  0  0  0  0  0  0
  -19.3664  -21.2968   22.6590 N   0  0  0  0  0  0  0  0  0  0  0  0
  -21.1018  -29.0305   22.5327 N   0  0  0  0  0  0  0  0  0  0  0  0
  -30.0503  -17.4550   18.5722 N   0  3  0  0  0  0  0  0  0  0  0  0
  -27.5309  -30.1885   16.9449 O   0  0  0  0  0  0  0  0  0  0  0  0
  -24.0090  -13.3193   22.2948 O   0  0  0  0  0  0  0  0  0  0  0  0
  -27.5544  -12.8486   20.2211 O   0  0  0  0  0  0  0  0  0  0  0  0
  -21.6323  -21.7230   23.0947 O   0  0  0  0  0  0  0  0  0  0  0  0
  -28.7685  -17.3106   21.2876 O   0  0  0  0  0  0  0  0  0  0  0  0
  -21.1895  -30.2319   24.4835 O   0  0  0  0  0  0  0  0  0  0  0  0
  -17.2321  -22.6162   23.3132 O   0  0  0  0  0  0  0  0  0  0  0  0
  -19.1894  -22.5369   24.9037 O   0  0  0  0  0  0  0  0  0  0  0  0
  -29.1419  -22.8040   18.8052 O   0  0  0  0  0  0  0  0  0  0  0  0
  -22.2844  -19.2085   22.1281 O   0  0  0  0  0  0  0  0  0  1  0  0
  -26.0501  -18.3506   19.8110 F   0  0  0  0  0  0  0  0  0  0  0  0
  -28.5727  -20.9899   16.7983 F   0  0  0  0  0  0  0  0  0  0  0  0
  -18.6607  -22.5691   23.5538 S   0  0  0  0  0  0  0  0  0  0  0  0
  1  2  1  0  0  0  0
  1  5  2  0  0  0  0
  2  6  2  0  0  0  0
  3  8  2  0  0  0  0
  3 15  1  0  0  0  0
  4  9  1  0  0  0  0
  4 15  2  0  0  0  0
  5 17  1  0  0  0  0
  6 19  1  0  0  0  0
  7 10  2  0  0  0  0
  7 18  1  0  0  0  0
  8 21  1  0  0  0  0
  9 21  2  0  0  0  0
 10 22  1  0  0  0  0
 11 12  2  0  0  0  0
 11 23  1  0  0  0  0
 12 24  1  0  0  0  0
 13 20  1  0  0  0  0
 13 22  2  0  0  0  0
 14 24  2  0  0  0  0
 14 25  1  0  0  0  0
 15 26  1  0  0  0  0
 16 26  1  0  0  0  0
 16 27  2  0  0  0  0
 16 28  1  0  0  0  0
 17 19  2  0  0  0  0
 17 34  1  0  0  0  0
 18 20  2  0  0  0  0
 18 35  1  0  0  0  0
 19 43  1  0  0  0  0
 20 36  1  0  0  0  0
 21 79  1  0  0  0  0
 22 80  1  0  0  0  0
 23 25  2  0  0  0  0
 23 79  1  0  0  0  0
 24 81  1  0  0  0  0
 25 82  1  0  0  0  0
 26 60  2  0  0  0  0
 27 61  1  0  0  0  0
 27 64  1  0  0  0  0
 28 65  1  0  0  0  0
 28 71  2  0  0  0  0
 29 44  1  0  0  0  0
 29 66  1  0  0  0  0
 29 72  2  0  0  0  0
 30 57  1  0  0  0  0
 30 62  1  0  0  0  0
 30 73  2  0  0  0  0
 31 51  1  0  0  0  0
 31 68  1  0  0  0  0
 31 74  2  0  0  0  0
 32 58  1  0  0  0  0
 32 67  1  0  0  0  0
 32 75  2  0  0  0  0
 33 63  1  0  0  0  0
 33 69  1  0  0  0  0
 33 76  2  0  0  0  0
 34 37  1  0  0  0  0
 35 44  1  0  0  0  0
 36 62  1  0  0  0  0
 37 39  1  0  0  0  0
 38 40  1  0  0  0  0
 38 41  1  0  0  0  0
 39 43  1  0  0  0  0
 40 45  1  0  0  0  0
 41 63  1  0  0  0  0
 42 45  1  0  0  0  0
 42 63  1  0  0  0  0
 43 66  1  0  0  0  0
 44 62  1  0  0  0  0
 45 61  1  0  0  0  0
 46 58  1  0  0  0  0
 47 59  1  0  0  0  0
 48 59  1  0  0  0  0
 49 59  1  0  0  0  0
 50 70  1  0  0  0  0
 51 80  1  0  0  0  0
 52 53  1  0  0  0  0
 52 54  1  0  0  0  0
 53 55  1  0  0  0  0
 54 56  1  0  0  0  0
 55 69  1  0  0  0  0
 56 83  1  0  0  0  0
 57 59  1  0  0  0  0
 57 67  1  0  0  0  0
 58 70  1  0  0  0  0
 60 61  1  0  0  0  0
 68 83  1  0  0  0  0
 77 83  2  0  0  0  0
 78 83  2  0  0  0  0
M  CHG  1  70   1
M  ISO  4  33 100  51 101  69 100  80 101
M  END
> <Batch ID>
0004

> <Smiles>
CNC(C)C(=O)NC(C(=O)N1Cc2cc([101O:1][101CH2:1]C(=O)NS(=O)(=O)CCCCC[100NH:0][100C:0](=O)N3CCCC(n4nc(-c5ccc(Oc6ccc(F)cc6F)cc5)c(C(N)=O)c4N)C3)ccc2CC1C(=O)NC1CCCc2ccccc21)C(C)(C)C

> <Shape>
0.259

> <Color>
0.063

> <Negative vol penalty>
0.000

$$$$

  -OEChem-04052315243D

 82 90  0     1  0  0  0  0  0999 V2000
  -28.4353  -32.7061   28.2182 C   0  0  0  0  0  0  0  0  0  0  0  0
  -28.3458  -31.6820   27.2809 C   0  0  0  0  0  0  0  0  0  0  0  0
  -24.6068   -8.6828   21.4336 C   0  0  0  0  0  0  0  0  0  0  0  0
  -23.1647  -10.6099   21.2236 C   0  0  0  0  0  0  0  0  0  0  0  0
  -27.3849  -33.6115   28.3622 C   0  0  0  0  0  0  0  0  0  0  0  0
  -27.2053  -31.5621   26.4876 C   0  0  0  0  0  0  0  0  0  0  0  0
  -28.3058  -30.6897   21.6222 C   0  0  0  0  0  0  0  0  0  0  0  0
  -26.1556  -18.0367   19.7879 C   0  0  0  0  0  0  0  0  0  0  0  0
  -28.3999  -18.4803   20.5646 C   0  0  0  0  0  0  0  0  0  0  0  0
  -23.7770   -8.1705   22.4309 C   0  0  0  0  0  0  0  0  0  0  0  0
  -22.3349  -10.0975   22.2208 C   0  0  0  0  0  0  0  0  0  0  0  0
  -28.6745  -29.3905   21.2758 C   0  0  0  0  0  0  0  0  0  0  0  0
  -25.7701  -19.3223   20.1677 C   0  0  0  0  0  0  0  0  0  0  0  0
  -28.0144  -19.7659   20.9444 C   0  0  0  0  0  0  0  0  0  0  0  0
  -20.8206   -6.5402   22.6173 C   0  0  0  0  0  0  0  0  0  0  0  0
  -20.4844   -5.1882   22.5496 C   0  0  0  0  0  0  0  0  0  0  0  0
  -26.4414  -28.9805   20.4607 C   0  0  0  0  0  0  0  0  0  0  0  0
  -21.5037   -4.8265   24.7100 C   0  0  0  0  0  0  0  0  0  0  0  0
  -24.3007   -9.9026   20.8300 C   0  0  0  0  0  0  0  0  0  0  0  0
  -25.0599  -10.2084   18.4139 C   0  0  0  0  0  0  0  0  0  0  0  0
  -26.2350  -33.5084   27.5636 C   0  0  0  0  0  0  0  0  0  0  0  0
  -26.9969  -31.1413   21.4000 C   0  0  0  0  0  0  0  0  0  0  0  0
  -26.1379  -32.4662   26.6220 C   0  0  0  0  0  0  0  0  0  0  0  0
  -26.0593  -30.2867   20.8028 C   0  0  0  0  0  0  0  0  0  0  0  0
  -27.4705  -17.6157   19.9865 C   0  0  0  0  0  0  0  0  0  0  0  0
  -22.6410   -8.8778   22.8245 C   0  0  0  0  0  0  0  0  0  0  0  0
  -26.6994  -20.1869   20.7459 C   0  0  0  0  0  0  0  0  0  0  0  0
  -27.7415  -28.5347   20.6976 C   0  0  0  0  0  0  0  0  0  0  0  0
  -21.4985   -7.0354   23.7313 C   0  0  0  0  0  0  0  0  0  0  0  0
  -20.8259   -4.3313   23.5960 C   0  0  0  0  0  0  0  0  0  0  0  0
  -21.8400   -6.1786   24.7777 C   0  0  0  0  0  0  0  0  0  0  0  0
  -25.1578  -10.4326   19.8002 C   0  0  0  0  0  0  0  0  0  0  0  0
  -26.0985  -10.9280   17.8755 C   0  0  0  0  0  0  0  0  0  0  0  0
  -24.1145   -9.4203   17.6785 C   0  0  0  0  0  0  0  0  0  0  0  0
  -24.6350  -32.1752   23.2590 C   0  0  0  0  0  0  0  0  0  0  0  0
  -23.1907  -32.7871   20.4197 C   0  0  0  0  0  0  0  0  0  0  0  0
  -22.9348  -32.0878   17.0892 C   0  0  0  0  0  0  0  0  0  0  0  0
  -29.1265  -15.7349   19.7276 C   0  0  0  0  0  0  0  0  0  0  0  0
  -25.1055  -34.4823   27.7882 C   0  0  0  0  0  0  0  0  0  0  0  0
  -26.6224  -32.5541   21.7548 C   0  0  0  0  0  0  0  0  0  0  0  0
  -24.6469  -30.7295   20.5247 C   0  0  0  0  0  0  0  0  0  0  0  0
  -24.0901  -34.5107   26.6487 C   0  0  0  0  0  0  0  0  0  0  0  0
  -30.4822  -12.5399   18.9334 C   0  0  0  0  0  0  0  0  0  0  0  0
  -23.7074  -33.0920   26.2391 C   0  0  0  0  0  0  0  0  0  0  0  0
  -29.2609  -11.6176   18.9334 C   0  0  0  0  0  0  0  0  0  0  0  0
  -30.3839  -13.6113   20.0179 C   0  0  0  0  0  0  0  0  0  0  0  0
  -27.9240  -13.4777   20.0009 C   0  0  0  0  0  0  0  0  0  0  0  0
  -24.9276  -32.3180   25.7258 C   0  0  1  0  0  0  0  0  0  0  0  0
  -25.1217  -32.7420   21.9554 C   0  0  1  0  0  0  0  0  0  0  0  0
  -27.9472  -12.4222   18.8833 C   0  0  2  0  0  0  0  0  0  0  0  0
  -21.6379  -32.7230   15.0369 C   0  0  0  0  0  0  0  0  0  0  0  0
  -20.8142  -31.1552   21.4192 C   0  0  0  0  0  0  0  0  0  0  0  0
  -19.9998  -31.0231   19.0554 C   0  0  0  0  0  0  0  0  0  0  0  0
  -20.2013  -33.2399   20.1813 C   0  0  0  0  0  0  0  0  0  0  0  0
  -25.3721  -33.0292   15.6991 C   0  0  0  0  0  0  0  0  0  0  0  0
  -26.6764  -23.8123   20.7993 C   0  0  0  0  0  0  0  0  0  0  0  0
  -27.7164  -24.9244   20.7195 C   0  0  0  0  0  0  0  0  0  0  0  0
  -27.3204  -22.4594   21.0714 C   0  0  0  0  0  0  0  0  0  0  0  0
  -27.0778  -26.2698   20.4050 C   0  0  0  0  0  0  0  0  0  1  0  0
  -22.2967  -32.0084   19.4852 C   0  0  1  0  0  0  0  0  0  0  0  0
  -22.8805  -32.9923   15.8712 C   0  0  2  0  0  0  0  0  0  0  0  0
  -20.8540  -31.8474   20.0422 C   0  0  0  0  0  0  0  0  0  0  0  0
  -26.1782  -11.2319   20.1225 N   0  0  0  0  0  0  0  0  0  0  0  0
  -26.7310  -11.5163   18.9310 N   0  0  0  0  0  0  0  0  0  0  0  0
  -24.3273  -32.1181   20.8953 N   0  0  0  0  0  0  0  0  0  0  0  0
  -29.1157  -14.3353   19.9056 N   0  0  0  0  0  0  0  0  0  0  0  0
  -26.5234  -11.1086   16.6069 N   0  0  0  0  0  0  0  0  0  0  0  0
  -23.1114   -8.7460   18.3881 N   0  0  0  0  0  0  0  0  0  0  0  0
  -27.8623  -16.3097   19.6008 N   0  0  0  0  0  0  0  0  0  0  0  0
  -25.2473  -32.7184   24.3723 N   0  0  0  0  0  0  0  0  0  0  0  0
  -22.3669  -32.6850   18.1946 N   0  0  0  0  0  0  0  0  0  0  0  0
  -24.0791  -32.7769   15.0123 N   0  3  0  0  0  0  0  0  0  0  0  0
  -24.1679   -9.3037   16.4307 O   0  0  0  0  0  0  0  0  0  0  0  0
  -23.7670  -31.3102   23.2552 O   0  0  0  0  0  0  0  0  0  0  0  0
  -22.8953  -33.9488   20.7110 O   0  0  0  0  0  0  0  0  0  0  0  0
  -23.4280  -30.9624   17.0617 O   0  0  0  0  0  0  0  0  0  0  0  0
  -30.1805  -16.3728   19.6632 O   0  0  0  0  0  0  0  0  0  0  0  0
  -21.8309   -8.3781   23.7974 O   0  0  0  0  0  0  0  0  0  0  0  0
  -26.3207  -21.4501   21.1190 O   0  0  0  0  0  0  0  0  0  0  0  0
  -28.0986  -27.2660   20.3592 O   0  0  0  0  0  0  0  0  0  1  0  0
  -20.5016   -3.0333   23.5315 F   0  0  0  0  0  0  0  0  0  0  0  0
  -22.4902   -6.6487   25.8510 F   0  0  0  0  0  0  0  0  0  0  0  0
  1  2  1  0  0  0  0
  1  5  2  0  0  0  0
  2  6  2  0  0  0  0
  3 10  2  0  0  0  0
  3 19  1  0  0  0  0
  4 11  1  0  0  0  0
  4 19  2  0  0  0  0
  5 21  1  0  0  0  0
  6 23  1  0  0  0  0
  7 12  2  0  0  0  0
  7 22  1  0  0  0  0
  8 13  2  0  0  0  0
  8 25  1  0  0  0  0
  9 14  1  0  0  0  0
  9 25  2  0  0  0  0
 10 26  1  0  0  0  0
 11 26  2  0  0  0  0
 12 28  1  0  0  0  0
 13 27  1  0  0  0  0
 14 27  2  0  0  0  0
 15 16  2  0  0  0  0
 15 29  1  0  0  0  0
 16 30  1  0  0  0  0
 17 24  1  0  0  0  0
 17 28  2  0  0  0  0
 18 30  2  0  0  0  0
 18 31  1  0  0  0  0
 19 32  1  0  0  0  0
 20 32  1  0  0  0  0
 20 33  2  0  0  0  0
 20 34  1  0  0  0  0
 21 23  2  0  0  0  0
 21 39  1  0  0  0  0
 22 24  2  0  0  0  0
 22 40  1  0  0  0  0
 23 48  1  0  0  0  0
 24 41  1  0  0  0  0
 25 69  1  0  0  0  0
 26 78  1  0  0  0  0
 27 79  1  0  0  0  0
 28 80  1  0  0  0  0
 29 31  2  0  0  0  0
 29 78  1  0  0  0  0
 30 81  1  0  0  0  0
 31 82  1  0  0  0  0
 32 63  2  0  0  0  0
 33 64  1  0  0  0  0
 33 67  1  0  0  0  0
 34 68  1  0  0  0  0
 34 73  2  0  0  0  0
 35 49  1  0  0  0  0
 35 70  1  0  0  0  0
 35 74  2  0  0  0  0
 36 60  1  0  0  0  0
 36 65  1  0  0  0  0
 36 75  2  0  0  0  0
 37 61  1  0  0  0  0
 37 71  1  0  0  0  0
 37 76  2  0  0  0  0
 38 66  1  0  0  0  0
 38 69  1  0  0  0  0
 38 77  2  0  0  0  0
 39 42  1  0  0  0  0
 40 49  1  0  0  0  0
 41 65  1  0  0  0  0
 42 44  1  0  0  0  0
 43 45  1  0  0  0  0
 43 46  1  0  0  0  0
 44 48  1  0  0  0  0
 45 50  1  0  0  0  0
 46 66  1  0  0  0  0
 47 50  1  0  0  0  0
 47 66  1  0  0  0  0
 48 70  1  0  0  0  0
 49 65  1  0  0  0  0
 50 64  1  0  0  0  0
 51 61  1  0  0  0  0
 52 62  1  0  0  0  0
 53 62  1  0  0  0  0
 54 62  1  0  0  0  0
 55 72  1  0  0  0  0
 56 57  1  0  0  0  0
 56 58  1  0  0  0  0
 57 59  1  0  0  0  0
 58 79  1  0  0  0  0
 59 80  1  0  0  0  0
 60 62  1  0  0  0  0
 60 71  1  0  0  0  0
 61 72  1  0  0  0  0
 63 64  1  0  0  0  0
M  CHG  1  72   1
M  ISO  4  38 100  59 101  69 100  80 101
M  END
> <Batch ID>
0004

> <Smiles>
CNC(C)C(=O)NC(C(=O)N1Cc2cc([101O:1][101CH2:1]CCCOc3ccc([100NH:0][100C:0](=O)N4CCCC(n5nc(-c6ccc(Oc7ccc(F)cc7F)cc6)c(C(N)=O)c5N)C4)cc3)ccc2CC1C(=O)NC1CCCc2ccccc21)C(C)(C)C

> <Shape>
0.243

> <Color>
0.082

> <Negative vol penalty>
0.000

$$$$

  -OEChem-04052315243D

 82 90  0     1  0  0  0  0  0999 V2000
  -32.3647  -14.6853   20.6314 C   0  0  0  0  0  0  0  0  0  0  0  0
  -31.4985  -15.6914   21.0473 C   0  0  0  0  0  0  0  0  0  0  0  0
  -28.7236  -24.3626   21.8931 C   0  0  0  0  0  0  0  0  0  0  0  0
  -28.3911  -24.3961   19.5003 C   0  0  0  0  0  0  0  0  0  0  0  0
  -31.8735  -13.5983   19.9097 C   0  0  0  0  0  0  0  0  0  0  0  0
  -30.1406  -15.6115   20.7406 C   0  0  0  0  0  0  0  0  0  0  0  0
  -25.4658  -17.5302   24.2006 C   0  0  0  0  0  0  0  0  0  0  0  0
  -22.3985  -28.0385   23.7305 C   0  0  0  0  0  0  0  0  0  0  0  0
  -24.1190  -27.3104   25.2624 C   0  0  0  0  0  0  0  0  0  0  0  0
  -28.8235  -22.9718   21.8598 C   0  0  0  0  0  0  0  0  0  0  0  0
  -28.4910  -23.0052   19.4669 C   0  0  0  0  0  0  0  0  0  0  0  0
  -24.6972  -18.6931   24.1774 C   0  0  0  0  0  0  0  0  0  0  0  0
  -21.8566  -26.7532   23.7283 C   0  0  0  0  0  0  0  0  0  0  0  0
  -23.5771  -26.0251   25.2602 C   0  0  0  0  0  0  0  0  0  0  0  0
  -26.5167  -20.3484   20.1556 C   0  0  0  0  0  0  0  0  0  0  0  0
  -25.5791  -19.6493   19.3955 C   0  0  0  0  0  0  0  0  0  0  0  0
  -23.0226  -17.5530   22.8678 C   0  0  0  0  0  0  0  0  0  0  0  0
  -27.3586  -18.7369   18.0397 C   0  0  0  0  0  0  0  0  0  0  0  0
  -28.5073  -25.0748   20.7133 C   0  0  0  0  0  0  0  0  0  0  0  0
  -29.4506  -27.4429   20.6145 C   0  0  0  0  0  0  0  0  0  0  0  0
  -30.5073  -13.5002   19.6023 C   0  0  0  0  0  0  0  0  0  0  0  0
  -25.0230  -16.3711   23.5472 C   0  0  0  0  0  0  0  0  0  0  0  0
  -29.6308  -14.5228   20.0129 C   0  0  0  0  0  0  0  0  0  0  0  0
  -23.7863  -16.3759   22.8863 C   0  0  0  0  0  0  0  0  0  0  0  0
  -23.5298  -28.3171   24.4976 C   0  0  0  0  0  0  0  0  0  0  0  0
  -28.7072  -22.2930   20.6467 C   0  0  0  0  0  0  0  0  0  0  0  0
  -22.4458  -25.7465   24.4931 C   0  0  0  0  0  0  0  0  0  0  0  0
  -23.4767  -18.7055   23.5085 C   0  0  0  0  0  0  0  0  0  0  0  0
  -27.8753  -20.2418   19.8577 C   0  0  0  0  0  0  0  0  0  0  0  0
  -26.0000  -18.8435   18.3376 C   0  0  0  0  0  0  0  0  0  0  0  0
  -28.2962  -19.4360   18.7998 C   0  0  0  0  0  0  0  0  0  0  0  0
  -28.4034  -26.5115   20.7471 C   0  0  0  0  0  0  0  0  0  0  0  0
  -28.8363  -28.6671   20.7161 C   0  0  0  0  0  0  0  0  0  0  0  0
  -30.8533  -27.2213   20.4169 C   0  0  0  0  0  0  0  0  0  0  0  0
  -26.1168  -14.5888   21.1533 C   0  0  0  0  0  0  0  0  0  0  0  0
  -23.6326  -12.6671   21.9645 C   0  0  0  0  0  0  0  0  0  0  0  0
  -20.5643  -12.3603   23.4268 C   0  0  0  0  0  0  0  0  0  0  0  0
  -23.9839  -30.4891   23.3718 C   0  0  0  0  0  0  0  0  0  0  0  0
  -30.0306  -12.3299   18.7791 C   0  0  0  0  0  0  0  0  0  0  0  0
  -25.8514  -15.1170   23.6042 C   0  0  0  0  0  0  0  0  0  0  0  0
  -23.2565  -15.1520   22.1865 C   0  0  0  0  0  0  0  0  0  0  0  0
  -28.5173  -12.1335   18.8186 C   0  0  0  0  0  0  0  0  0  0  0  0
  -24.6677  -30.8527   19.9014 C   0  0  0  0  0  0  0  0  0  0  0  0
  -27.8007  -13.4635   18.6077 C   0  0  0  0  0  0  0  0  0  0  0  0
  -25.8084  -29.8537   19.7106 C   0  0  0  0  0  0  0  0  0  0  0  0
  -23.5991  -30.3253   20.8595 C   0  0  0  0  0  0  0  0  0  0  0  0
  -25.2722  -28.8863   21.9795 C   0  0  0  0  0  0  0  0  0  0  0  0
  -28.1472  -14.4595   19.7210 C   0  0  1  0  0  0  0  0  0  0  0  0
  -25.5431  -14.1452   22.4693 C   0  0  1  0  0  0  0  0  0  0  0  0
  -26.3896  -29.4137   21.0658 C   0  0  1  0  0  0  0  0  0  0  0  0
  -18.7685  -10.6732   23.9021 C   0  0  0  0  0  0  0  0  0  0  0  0
  -22.7447  -12.7942   19.0481 C   0  0  0  0  0  0  0  0  0  0  0  0
  -20.5089  -11.9240   19.7635 C   0  0  0  0  0  0  0  0  0  0  0  0
  -22.5523  -10.5333   20.0996 C   0  0  0  0  0  0  0  0  0  0  0  0
  -24.5618  -30.2062   25.7720 C   0  0  0  0  0  0  0  0  0  0  0  0
  -20.8301  -12.7293   26.3513 C   0  0  0  0  0  0  0  0  0  0  0  0
  -22.3037  -22.1602   23.9922 C   0  0  0  0  0  0  0  0  0  0  0  0
  -22.8174  -23.4063   24.6961 C   0  0  0  0  0  0  0  0  0  0  0  0
  -23.2470  -20.9800   24.1641 C   0  0  0  0  0  0  0  0  0  1  0  0
  -22.1824  -12.5654   21.5576 C   0  0  1  0  0  0  0  0  0  0  0  0
  -20.0214  -11.3564   24.4278 C   0  0  2  0  0  0  0  0  0  0  0  0
  -22.0077  -11.9780   20.1286 C   0  0  0  0  0  0  0  0  0  0  0  0
  -27.2140  -27.0941   20.9201 N   0  0  0  0  0  0  0  0  0  0  0  0
  -27.5101  -28.4048   20.8968 N   0  0  0  0  0  0  0  0  0  0  0  0
  -24.1060  -13.9521   22.2652 N   0  0  0  0  0  0  0  0  0  0  0  0
  -24.2053  -29.8800   22.1221 N   0  0  0  0  0  0  0  0  0  0  0  0
  -29.3065  -29.9316   20.6677 N   0  0  0  0  0  0  0  0  0  0  0  0
  -31.3161  -25.9009   20.3349 N   0  0  0  0  0  0  0  0  0  0  0  0
  -27.4068  -14.1492   20.9252 N   0  0  0  0  0  0  0  0  0  0  0  0
  -21.5175  -11.7974   22.6047 N   0  0  0  0  0  0  0  0  0  0  0  0
  -24.0910  -29.6476   24.5000 N   0  0  0  0  0  0  0  0  0  0  0  0
  -19.6835  -12.0351   25.7108 N   0  3  0  0  0  0  0  0  0  0  0  0
  -31.6743  -28.1659   20.3325 O   0  0  0  0  0  0  0  0  0  0  0  0
  -25.4388  -15.2776   20.4001 O   0  0  0  0  0  0  0  0  0  0  0  0
  -24.3182  -11.6431   22.0207 O   0  0  0  0  0  0  0  0  0  0  0  0
  -20.1786  -13.5262   23.3767 O   0  0  0  0  0  0  0  0  0  0  0  0
  -23.7358  -31.6965   23.4739 O   0  0  0  0  0  0  0  0  0  0  0  0
  -28.8050  -20.9359   20.6138 O   0  0  0  0  0  0  0  0  0  0  0  0
  -21.9134  -24.4836   24.4909 O   0  0  0  0  0  0  0  0  0  0  0  0
  -22.7248  -19.8394   23.4838 O   0  0  0  0  0  0  0  0  0  1  0  0
  -25.0997  -18.1710   17.6087 F   0  0  0  0  0  0  0  0  0  0  0  0
  -29.6001  -19.3287   18.5096 F   0  0  0  0  0  0  0  0  0  0  0  0
  1  2  1  0  0  0  0
  1  5  2  0  0  0  0
  2  6  2  0  0  0  0
  3 10  2  0  0  0  0
  3 19  1  0  0  0  0
  4 11  1  0  0  0  0
  4 19  2  0  0  0  0
  5 21  1  0  0  0  0
  6 23  1  0  0  0  0
  7 12  2  0  0  0  0
  7 22  1  0  0  0  0
  8 13  2  0  0  0  0
  8 25  1  0  0  0  0
  9 14  1  0  0  0  0
  9 25  2  0  0  0  0
 10 26  1  0  0  0  0
 11 26  2  0  0  0  0
 12 28  1  0  0  0  0
 13 27  1  0  0  0  0
 14 27  2  0  0  0  0
 15 16  2  0  0  0  0
 15 29  1  0  0  0  0
 16 30  1  0  0  0  0
 17 24  1  0  0  0  0
 17 28  2  0  0  0  0
 18 30  2  0  0  0  0
 18 31  1  0  0  0  0
 19 32  1  0  0  0  0
 20 32  1  0  0  0  0
 20 33  2  0  0  0  0
 20 34  1  0  0  0  0
 21 23  2  0  0  0  0
 21 39  1  0  0  0  0
 22 24  2  0  0  0  0
 22 40  1  0  0  0  0
 23 48  1  0  0  0  0
 24 41  1  0  0  0  0
 25 71  1  0  0  0  0
 26 78  1  0  0  0  0
 27 79  1  0  0  0  0
 28 80  1  0  0  0  0
 29 31  2  0  0  0  0
 29 78  1  0  0  0  0
 30 81  1  0  0  0  0
 31 82  1  0  0  0  0
 32 63  2  0  0  0  0
 33 64  1  0  0  0  0
 33 67  1  0  0  0  0
 34 68  1  0  0  0  0
 34 73  2  0  0  0  0
 35 49  1  0  0  0  0
 35 69  1  0  0  0  0
 35 74  2  0  0  0  0
 36 60  1  0  0  0  0
 36 65  1  0  0  0  0
 36 75  2  0  0  0  0
 37 61  1  0  0  0  0
 37 70  1  0  0  0  0
 37 76  2  0  0  0  0
 38 66  1  0  0  0  0
 38 71  1  0  0  0  0
 38 77  2  0  0  0  0
 39 42  1  0  0  0  0
 40 49  1  0  0  0  0
 41 65  1  0  0  0  0
 42 44  1  0  0  0  0
 43 45  1  0  0  0  0
 43 46  1  0  0  0  0
 44 48  1  0  0  0  0
 45 50  1  0  0  0  0
 46 66  1  0  0  0  0
 47 50  1  0  0  0  0
 47 66  1  0  0  0  0
 48 69  1  0  0  0  0
 49 65  1  0  0  0  0
 50 64  1  0  0  0  0
 51 61  1  0  0  0  0
 52 62  1  0  0  0  0
 53 62  1  0  0  0  0
 54 62  1  0  0  0  0
 55 71  1  0  0  0  0
 56 72  1  0  0  0  0
 57 58  1  0  0  0  0
 57 59  1  0  0  0  0
 58 79  1  0  0  0  0
 59 80  1  0  0  0  0
 60 62  1  0  0  0  0
 60 70  1  0  0  0  0
 61 72  1  0  0  0  0
 63 64  1  0  0  0  0
M  CHG  1  72   1
M  ISO  4  38 100  59 101  71 100  80 101
M  END
> <Batch ID>
0004

> <Smiles>
CNC(C)C(=O)NC(C(=O)N1Cc2cc([101O:1][101CH2:1]CCOc3ccc([100N:0](C)[100C:0](=O)N4CCCC(n5nc(-c6ccc(Oc7ccc(F)cc7F)cc6)c(C(N)=O)c5N)C4)cc3)ccc2CC1C(=O)NC1CCCc2ccccc21)C(C)(C)C

> <Shape>
0.249

> <Color>
0.077

> <Negative vol penalty>
0.000

$$$$

  -OEChem-04052315243D

 78 86  0     1  0  0  0  0  0999 V2000
  -26.7739  -32.6995   28.1675 C   0  0  0  0  0  0  0  0  0  0  0  0
  -27.2042  -31.6974   27.3039 C   0  0  0  0  0  0  0  0  0  0  0  0
  -27.9925  -22.3141   16.9447 C   0  0  0  0  0  0  0  0  0  0  0  0
  -26.5064  -12.7174   21.6170 C   0  0  0  0  0  0  0  0  0  0  0  0
  -26.0125  -13.7464   19.4877 C   0  0  0  0  0  0  0  0  0  0  0  0
  -25.4236  -33.0436   28.2165 C   0  0  0  0  0  0  0  0  0  0  0  0
  -26.2843  -31.0379   26.4894 C   0  0  0  0  0  0  0  0  0  0  0  0
  -27.2352  -28.9309   20.8182 C   0  0  0  0  0  0  0  0  0  0  0  0
  -27.8815  -23.5924   17.4918 C   0  0  0  0  0  0  0  0  0  0  0  0
  -28.5263  -21.2739   17.7054 C   0  0  0  0  0  0  0  0  0  0  0  0
  -25.2502  -12.1112   21.6155 C   0  0  0  0  0  0  0  0  0  0  0  0
  -24.7563  -13.1402   19.4860 C   0  0  0  0  0  0  0  0  0  0  0  0
  -27.5382  -27.6615   20.3277 C   0  0  0  0  0  0  0  0  0  0  0  0
  -23.7752   -9.4401   20.1584 C   0  0  0  0  0  0  0  0  0  0  0  0
  -23.7052   -8.0929   20.5128 C   0  0  0  0  0  0  0  0  0  0  0  0
  -25.1982  -27.2824   19.8806 C   0  0  0  0  0  0  0  0  0  0  0  0
  -28.8381  -22.7902   19.5602 C   0  0  0  0  0  0  0  0  0  0  0  0
  -22.2435   -8.6529   22.3531 C   0  0  0  0  0  0  0  0  0  0  0  0
  -26.8875  -13.5351   20.5531 C   0  0  0  0  0  0  0  0  0  0  0  0
  -29.3811  -13.6417   20.0253 C   0  0  0  0  0  0  0  0  0  0  0  0
  -24.4882  -32.3946   27.3953 C   0  0  0  0  0  0  0  0  0  0  0  0
  -25.9080  -29.3822   20.8538 C   0  0  0  0  0  0  0  0  0  0  0  0
  -24.9201  -31.3726   26.5285 C   0  0  0  0  0  0  0  0  0  0  0  0
  -24.8813  -28.5589   20.3697 C   0  0  0  0  0  0  0  0  0  0  0  0
  -28.3043  -23.8305   18.7995 C   0  0  0  0  0  0  0  0  0  0  0  0
  -28.9491  -21.5119   19.0131 C   0  0  0  0  0  0  0  0  0  0  0  0
  -24.3751  -12.3225   20.5500 C   0  0  0  0  0  0  0  0  0  0  0  0
  -26.5193  -26.8359   19.8615 C   0  0  0  0  0  0  0  0  0  0  0  0
  -23.0795  -10.3938   20.9015 C   0  0  0  0  0  0  0  0  0  0  0  0
  -22.9393   -7.6992   21.6101 C   0  0  0  0  0  0  0  0  0  0  0  0
  -22.3136  -10.0001   21.9988 C   0  0  0  0  0  0  0  0  0  0  0  0
  -28.1848  -14.1621   20.5545 C   0  0  0  0  0  0  0  0  0  0  0  0
  -30.3189  -14.6133   20.2763 C   0  0  0  0  0  0  0  0  0  0  0  0
  -29.6229  -12.3918   19.3657 C   0  0  0  0  0  0  0  0  0  0  0  0
  -23.8999  -30.2656   23.1541 C   0  0  0  0  0  0  0  0  0  0  0  0
  -21.9913  -31.0484   20.6508 C   0  0  0  0  0  0  0  0  0  0  0  0
  -21.1684  -30.5681   17.3737 C   0  0  0  0  0  0  0  0  0  0  0  0
  -29.9572  -20.5208   21.0983 C   0  0  0  0  0  0  0  0  0  0  0  0
  -23.0321  -32.7683   27.5176 C   0  0  0  0  0  0  0  0  0  0  0  0
  -25.6007  -30.7644   21.3612 C   0  0  0  0  0  0  0  0  0  0  0  0
  -23.4424  -29.0040   20.3674 C   0  0  0  0  0  0  0  0  0  0  0  0
  -22.1777  -32.2795   26.3509 C   0  0  0  0  0  0  0  0  0  0  0  0
  -31.3281  -18.1363   23.3592 C   0  0  0  0  0  0  0  0  0  0  0  0
  -22.4919  -30.8209   26.0335 C   0  0  0  0  0  0  0  0  0  0  0  0
  -30.7915  -16.7986   22.8447 C   0  0  0  0  0  0  0  0  0  0  0  0
  -30.2992  -19.2555   23.2095 C   0  0  0  0  0  0  0  0  0  0  0  0
  -29.2062  -18.0732   21.3449 C   0  0  0  0  0  0  0  0  0  0  0  0
  -23.9563  -30.6512   25.6115 C   0  0  1  0  0  0  0  0  0  0  0  0
  -24.1568  -30.9225   21.8274 C   0  0  1  0  0  0  0  0  0  0  0  0
  -30.2305  -16.9288   21.4151 C   0  0  2  0  0  0  0  0  0  0  0  0
  -19.5398  -31.3237   15.6205 C   0  0  0  0  0  0  0  0  0  0  0  0
  -19.8198  -29.3285   21.9301 C   0  0  0  0  0  0  0  0  0  0  0  0
  -18.6126  -29.3443   19.7367 C   0  0  0  0  0  0  0  0  0  0  0  0
  -19.0056  -31.4839   20.9576 C   0  0  0  0  0  0  0  0  0  0  0  0
  -23.3324  -31.6255   15.6538 C   0  0  0  0  0  0  0  0  0  0  0  0
  -28.1847  -25.2057   19.3875 C   0  0  0  0  0  0  0  0  0  1  0  0
  -20.9499  -30.3236   19.8328 C   0  0  1  0  0  0  0  0  0  0  0  0
  -20.9071  -31.5505   16.2463 C   0  0  2  0  0  0  0  0  0  0  0  0
  -19.6238  -30.1106   20.6160 C   0  0  0  0  0  0  0  0  0  0  0  0
  -28.3453  -15.3704   21.1006 N   0  0  0  0  0  0  0  0  0  0  0  0
  -29.6533  -15.6173   20.9160 N   0  0  0  0  0  0  0  0  0  0  0  0
  -23.1921  -30.3615   20.8793 N   0  0  0  0  0  0  0  0  0  0  0  0
  -29.8156  -19.3219   21.8287 N   0  0  0  0  0  0  0  0  0  0  0  0
  -31.6396  -14.6981   20.0102 N   0  0  0  0  0  0  0  0  0  0  0  0
  -28.5477  -11.5102   19.1899 N   0  0  0  0  0  0  0  0  0  0  0  0
  -29.4906  -20.4548   19.7858 N   0  0  0  0  0  0  0  0  0  0  0  0
  -24.1410  -31.0823   24.2423 N   0  0  0  0  0  0  0  0  0  0  0  0
  -20.7987  -31.0848   18.5974 N   0  0  0  0  0  0  0  0  0  0  0  0
  -21.9408  -31.4053   15.1827 N   0  3  0  0  0  0  0  0  0  0  0  0
  -30.7622  -12.0595   18.9593 O   0  0  0  0  0  0  0  0  0  0  0  0
  -23.5105  -29.1042   23.1878 O   0  0  0  0  0  0  0  0  0  0  0  0
  -21.7511  -32.1850   21.0655 O   0  0  0  0  0  0  0  0  0  0  0  0
  -21.6488  -29.4523   17.1870 O   0  0  0  0  0  0  0  0  0  0  0  0
  -30.4803  -21.5233   21.5915 O   0  0  0  0  0  0  0  0  0  0  0  0
  -23.1494  -11.7309   20.5480 O   0  0  0  0  0  0  0  0  0  0  0  0
  -26.8122  -25.5962   19.3828 O   0  0  0  0  0  0  0  0  0  1  0  0
  -22.8709   -6.4052   21.9493 F   0  0  0  0  0  0  0  0  0  0  0  0
  -21.6420  -10.9116   22.7158 F   0  0  0  0  0  0  0  0  0  0  0  0
  1  2  1  0  0  0  0
  1  6  2  0  0  0  0
  2  7  2  0  0  0  0
  3  9  2  0  0  0  0
  3 10  1  0  0  0  0
  4 11  2  0  0  0  0
  4 19  1  0  0  0  0
  5 12  1  0  0  0  0
  5 19  2  0  0  0  0
  6 21  1  0  0  0  0
  7 23  1  0  0  0  0
  8 13  2  0  0  0  0
  8 22  1  0  0  0  0
  9 25  1  0  0  0  0
 10 26  2  0  0  0  0
 11 27  1  0  0  0  0
 12 27  2  0  0  0  0
 13 28  1  0  0  0  0
 14 15  2  0  0  0  0
 14 29  1  0  0  0  0
 15 30  1  0  0  0  0
 16 24  1  0  0  0  0
 16 28  2  0  0  0  0
 17 25  2  0  0  0  0
 17 26  1  0  0  0  0
 18 30  2  0  0  0  0
 18 31  1  0  0  0  0
 19 32  1  0  0  0  0
 20 32  1  0  0  0  0
 20 33  2  0  0  0  0
 20 34  1  0  0  0  0
 21 23  2  0  0  0  0
 21 39  1  0  0  0  0
 22 24  2  0  0  0  0
 22 40  1  0  0  0  0
 23 48  1  0  0  0  0
 24 41  1  0  0  0  0
 25 56  1  0  0  0  0
 26 66  1  0  0  0  0
 27 75  1  0  0  0  0
 28 76  1  0  0  0  0
 29 31  2  0  0  0  0
 29 75  1  0  0  0  0
 30 77  1  0  0  0  0
 31 78  1  0  0  0  0
 32 60  2  0  0  0  0
 33 61  1  0  0  0  0
 33 64  1  0  0  0  0
 34 65  1  0  0  0  0
 34 70  2  0  0  0  0
 35 49  1  0  0  0  0
 35 67  1  0  0  0  0
 35 71  2  0  0  0  0
 36 57  1  0  0  0  0
 36 62  1  0  0  0  0
 36 72  2  0  0  0  0
 37 58  1  0  0  0  0
 37 68  1  0  0  0  0
 37 73  2  0  0  0  0
 38 63  1  0  0  0  0
 38 66  1  0  0  0  0
 38 74  2  0  0  0  0
 39 42  1  0  0  0  0
 40 49  1  0  0  0  0
 41 62  1  0  0  0  0
 42 44  1  0  0  0  0
 43 45  1  0  0  0  0
 43 46  1  0  0  0  0
 44 48  1  0  0  0  0
 45 50  1  0  0  0  0
 46 63  1  0  0  0  0
 47 50  1  0  0  0  0
 47 63  1  0  0  0  0
 48 67  1  0  0  0  0
 49 62  1  0  0  0  0
 50 61  1  0  0  0  0
 51 58  1  0  0  0  0
 52 59  1  0  0  0  0
 53 59  1  0  0  0  0
 54 59  1  0  0  0  0
 55 69  1  0  0  0  0
 56 76  1  0  0  0  0
 57 59  1  0  0  0  0
 57 68  1  0  0  0  0
 58 69  1  0  0  0  0
 60 61  1  0  0  0  0
M  CHG  1  69   1
M  ISO  4  38 100  56 101  66 100  76 101
M  END
> <Batch ID>
0004

> <Smiles>
CNC(C)C(=O)NC(C(=O)N1Cc2cc([101O:1][101CH2:1]c3cccc([100NH:0][100C:0](=O)N4CCCC(n5nc(-c6ccc(Oc7ccc(F)cc7F)cc6)c(C(N)=O)c5N)C4)c3)ccc2CC1C(=O)NC1CCCc2ccccc21)C(C)(C)C

> <Shape>
0.294

> <Color>
0.112

> <Negative vol penalty>
0.000

$$$$

  -OEChem-04052315243D

 99106  0     1  0  0  0  0  0999 V2000
  -16.6132  -28.9450   23.0912 C   0  0  0  0  0  0  0  0  0  0  0  0
  -17.4857  -29.3374   22.0812 C   0  0  0  0  0  0  0  0  0  0  0  0
  -21.8114  -16.5781   21.0666 C   0  0  0  0  0  0  0  0  0  0  0  0
  -23.8517  -15.7623   20.0622 C   0  0  0  0  0  0  0  0  0  0  0  0
  -16.9445  -29.1757   24.4257 C   0  0  0  0  0  0  0  0  0  0  0  0
  -18.6897  -29.9619   22.4051 C   0  0  0  0  0  0  0  0  0  0  0  0
  -24.9966  -27.1385   20.3697 C   0  0  0  0  0  0  0  0  0  0  0  0
  -22.5098  -17.6566   21.6093 C   0  0  0  0  0  0  0  0  0  0  0  0
  -24.5501  -16.8410   20.6049 C   0  0  0  0  0  0  0  0  0  0  0  0
  -26.2329  -26.7736   19.8364 C   0  0  0  0  0  0  0  0  0  0  0  0
  -24.9938  -20.1195   19.9157 C   0  0  0  0  0  0  0  0  0  0  0  0
  -25.8887  -20.7940   19.0853 C   0  0  0  0  0  0  0  0  0  0  0  0
  -27.2979  -28.5793   21.0419 C   0  0  0  0  0  0  0  0  0  0  0  0
  -27.6970  -20.2506   20.5926 C   0  0  0  0  0  0  0  0  0  0  0  0
  -22.4824  -15.6309   20.2930 C   0  0  0  0  0  0  0  0  0  0  0  0
  -21.1227  -14.4605   18.4794 C   0  0  0  0  0  0  0  0  0  0  0  0
  -18.1575  -29.7946   24.7666 C   0  0  0  0  0  0  0  0  0  0  0  0
  -24.9085  -28.2171   21.2543 C   0  0  0  0  0  0  0  0  0  0  0  0
  -19.0369  -30.2023   23.7454 C   0  0  0  0  0  0  0  0  0  0  0  0
  -26.0642  -28.9417   21.5890 C   0  0  0  0  0  0  0  0  0  0  0  0
  -23.8791  -17.7881   21.3785 C   0  0  0  0  0  0  0  0  0  0  0  0
  -27.3807  -27.4923   20.1715 C   0  0  0  0  0  0  0  0  0  0  0  0
  -25.4504  -19.5105   21.0847 C   0  0  0  0  0  0  0  0  0  0  0  0
  -27.2403  -20.8596   19.4237 C   0  0  0  0  0  0  0  0  0  0  0  0
  -26.8020  -19.5761   21.4231 C   0  0  0  0  0  0  0  0  0  0  0  0
  -21.7617  -14.5162   19.7326 C   0  0  0  0  0  0  0  0  0  0  0  0
  -20.5897  -13.1960   18.4216 C   0  0  0  0  0  0  0  0  0  0  0  0
  -21.0203  -15.4623   17.4588 C   0  0  0  0  0  0  0  0  0  0  0  0
  -22.7156  -30.3461   23.4301 C   0  0  0  0  0  0  0  0  0  0  0  0
  -25.3230  -29.8800   24.9776 C   0  0  0  0  0  0  0  0  0  0  0  0
  -29.4190  -11.3117   18.9506 C   0  0  0  0  0  0  0  0  0  0  0  0
  -26.8200   -9.5531   19.5968 C   0  0  0  0  0  0  0  0  0  0  0  0
  -28.1630  -28.7835   26.5168 C   0  0  0  0  0  0  0  0  0  0  0  0
  -22.0337   -8.0364   21.0946 C   0  0  0  0  0  0  0  0  0  0  0  0
  -18.4507  -30.0656   26.2210 C   0  0  0  0  0  0  0  0  0  0  0  0
  -23.5883  -28.6838   21.8047 C   0  0  0  0  0  0  0  0  0  0  0  0
  -25.9164  -30.1161   22.5174 C   0  0  0  0  0  0  0  0  0  0  0  0
  -19.9156  -30.3950   26.4959 C   0  0  0  0  0  0  0  0  0  0  0  0
  -18.8964   -9.7142   21.2324 C   0  0  0  0  0  0  0  0  0  0  0  0
  -20.4322  -31.4147   25.4859 C   0  0  0  0  0  0  0  0  0  0  0  0
  -19.2173  -11.1301   20.7506 C   0  0  0  0  0  0  0  0  0  0  0  0
  -20.0347   -9.1302   22.0662 C   0  0  0  0  0  0  0  0  0  0  0  0
  -21.6784  -10.5750   20.9328 C   0  0  0  0  0  0  0  0  0  0  0  0
  -20.3635  -30.8602   24.0578 C   0  0  1  0  0  0  0  0  0  0  0  0
  -23.6903  -29.2207   23.2437 C   0  0  1  0  0  0  0  0  0  0  0  0
  -20.5835  -11.1847   20.0409 C   0  0  2  0  0  0  0  0  0  0  0  0
  -24.9455   -9.6408   15.5501 C   0  0  0  0  0  0  0  0  0  0  0  0
  -29.4358  -28.9759   28.6710 C   0  0  0  0  0  0  0  0  0  0  0  0
  -27.9251   -9.1813   15.8759 C   0  0  0  0  0  0  0  0  0  0  0  0
  -26.2801  -32.6582   24.1596 C   0  0  0  0  0  0  0  0  0  0  0  0
  -28.1878  -32.3944   25.7593 C   0  0  0  0  0  0  0  0  0  0  0  0
  -25.8416  -32.3840   26.6064 C   0  0  0  0  0  0  0  0  0  0  0  0
  -27.9351  -25.8805   27.0455 C   0  0  0  0  0  0  0  0  0  0  0  0
  -29.8100  -12.7556   18.7065 C   0  0  0  0  0  0  0  0  0  0  0  0
  -25.7187  -10.0608   16.7937 C   0  0  0  0  0  0  0  0  0  0  0  0
  -31.0770  -13.1552   19.4613 C   0  0  0  0  0  0  0  0  0  0  0  0
  -31.4776  -14.6108   19.1997 C   0  0  0  0  0  0  0  0  0  0  0  0
  -32.7292  -14.9919   19.9946 C   0  0  0  0  0  0  0  0  0  0  0  0
  -33.1789  -16.4375   19.7594 C   0  0  0  0  0  0  0  0  0  0  0  0
  -32.0930  -17.4685   20.0771 C   0  0  0  0  0  0  0  0  0  0  0  0
  -32.5454  -18.9151   19.8502 C   0  0  0  0  0  0  0  0  0  0  0  0
  -31.5214  -19.9969   20.2082 C   0  0  0  0  0  0  0  0  0  0  0  0
  -32.0176  -21.4198   19.9384 C   0  0  0  0  0  0  0  0  0  0  0  0
  -30.9410  -22.4537   20.2790 C   0  0  0  0  0  0  0  0  0  0  0  0
  -31.3879  -23.8986   20.0388 C   0  0  0  0  0  0  0  0  0  0  0  0
  -30.3215  -24.9337   20.4029 C   0  0  0  0  0  0  0  0  0  0  0  0
  -30.8106  -26.3537   20.1222 C   0  0  0  0  0  0  0  0  0  0  0  0
  -25.1223   -6.8139   21.1412 C   0  0  0  0  0  0  0  0  0  0  0  0
  -26.0822   -7.9771   21.3818 C   0  0  0  0  0  0  0  0  0  0  0  0
  -24.0792   -7.0858   20.0596 C   0  0  0  0  0  0  0  0  0  0  0  0
  -29.7420  -27.3896   20.4415 C   0  0  0  0  0  0  0  0  0  1  0  0
  -26.7019  -30.3881   25.3148 C   0  0  1  0  0  0  0  0  0  0  0  0
  -27.7099   -9.6136   18.3560 C   0  0  1  0  0  0  0  0  0  0  0  0
  -28.3966  -28.1846   27.8921 C   0  0  2  0  0  0  0  0  0  0  0  0
  -26.9617   -9.1862   17.0702 C   0  0  2  0  0  0  0  0  0  0  0  0
  -26.7486  -31.9372   25.4392 C   0  0  0  0  0  0  0  0  0  0  0  0
  -21.6461  -13.3776   20.4213 N   0  0  0  0  0  0  0  0  0  0  0  0
  -20.9283  -12.5946   19.5980 N   0  0  0  0  0  0  0  0  0  0  0  0
  -25.0027  -29.7740   23.6187 N   0  0  0  0  0  0  0  0  0  0  0  0
  -21.3018   -9.2109   21.3356 N   0  0  0  0  0  0  0  0  0  0  0  0
  -19.8691  -12.5510   17.4798 N   0  0  0  0  0  0  0  0  0  0  0  0
  -21.6260  -16.7066   17.6806 N   0  0  0  0  0  0  0  0  0  0  0  0
  -21.4541  -29.9390   23.8203 N   0  0  0  0  0  0  0  0  0  0  0  0
  -26.8581   -8.3081   20.2084 N   0  0  0  0  0  0  0  0  0  0  0  0
  -27.1145  -29.6790   26.5212 N   0  0  0  0  0  0  0  0  0  0  0  0
  -28.2715  -10.9412   18.2701 N   0  0  0  0  0  0  0  0  0  0  0  0
  -23.2199   -8.2008   20.3900 N   0  0  0  0  0  0  0  0  0  0  0  0
  -28.8717  -26.7773   27.7703 N   0  3  0  0  0  0  0  0  0  0  0  0
  -20.3956  -15.2656   16.3889 O   0  0  0  0  0  0  0  0  0  0  0  0
  -23.0804  -31.4998   23.2359 O   0  0  0  0  0  0  0  0  0  0  0  0
  -24.5468  -29.5895   25.8922 O   0  0  0  0  0  0  0  0  0  0  0  0
  -30.0785  -10.5809   19.6866 O   0  0  0  0  0  0  0  0  0  0  0  0
  -26.1351  -10.5017   19.9742 O   0  0  0  0  0  0  0  0  0  0  0  0
  -28.8449  -28.4893   25.5376 O   0  0  0  0  0  0  0  0  0  0  0  0
  -21.6551   -6.9231   21.4742 O   0  0  0  0  0  0  0  0  0  0  0  0
  -24.5608  -18.8406   21.9077 O   0  0  0  0  0  0  0  0  0  0  0  0
  -28.5940  -27.1252   19.6470 O   0  0  0  0  0  0  0  0  0  1  0  0
  -28.0999  -21.5060   18.6253 F   0  0  0  0  0  0  0  0  0  0  0  0
  -27.2468  -18.9920   22.5442 F   0  0  0  0  0  0  0  0  0  0  0  0
  1  2  1  0  0  0  0
  1  5  2  0  0  0  0
  2  6  2  0  0  0  0
  3  8  2  0  0  0  0
  3 15  1  0  0  0  0
  4  9  1  0  0  0  0
  4 15  2  0  0  0  0
  5 17  1  0  0  0  0
  6 19  1  0  0  0  0
  7 10  2  0  0  0  0
  7 18  1  0  0  0  0
  8 21  1  0  0  0  0
  9 21  2  0  0  0  0
 10 22  1  0  0  0  0
 11 12  2  0  0  0  0
 11 23  1  0  0  0  0
 12 24  1  0  0  0  0
 13 20  1  0  0  0  0
 13 22  2  0  0  0  0
 14 24  2  0  0  0  0
 14 25  1  0  0  0  0
 15 26  1  0  0  0  0
 16 26  1  0  0  0  0
 16 27  2  0  0  0  0
 16 28  1  0  0  0  0
 17 19  2  0  0  0  0
 17 35  1  0  0  0  0
 18 20  2  0  0  0  0
 18 36  1  0  0  0  0
 19 44  1  0  0  0  0
 20 37  1  0  0  0  0
 21 96  1  0  0  0  0
 22 97  1  0  0  0  0
 23 25  2  0  0  0  0
 23 96  1  0  0  0  0
 24 98  1  0  0  0  0
 25 99  1  0  0  0  0
 26 77  2  0  0  0  0
 27 78  1  0  0  0  0
 27 81  1  0  0  0  0
 28 82  1  0  0  0  0
 28 89  2  0  0  0  0
 29 45  1  0  0  0  0
 29 83  1  0  0  0  0
 29 90  2  0  0  0  0
 30 72  1  0  0  0  0
 30 79  1  0  0  0  0
 30 91  2  0  0  0  0
 31 54  1  0  0  0  0
 31 86  1  0  0  0  0
 31 92  2  0  0  0  0
 32 73  1  0  0  0  0
 32 84  1  0  0  0  0
 32 93  2  0  0  0  0
 33 74  1  0  0  0  0
 33 85  1  0  0  0  0
 33 94  2  0  0  0  0
 34 80  1  0  0  0  0
 34 87  1  0  0  0  0
 34 95  2  0  0  0  0
 35 38  1  0  0  0  0
 36 45  1  0  0  0  0
 37 79  1  0  0  0  0
 38 40  1  0  0  0  0
 39 41  1  0  0  0  0
 39 42  1  0  0  0  0
 40 44  1  0  0  0  0
 41 46  1  0  0  0  0
 42 80  1  0  0  0  0
 43 46  1  0  0  0  0
 43 80  1  0  0  0  0
 44 83  1  0  0  0  0
 45 79  1  0  0  0  0
 46 78  1  0  0  0  0
 47 55  1  0  0  0  0
 48 74  1  0  0  0  0
 49 75  1  0  0  0  0
 50 76  1  0  0  0  0
 51 76  1  0  0  0  0
 52 76  1  0  0  0  0
 53 88  1  0  0  0  0
 54 56  1  0  0  0  0
 55 75  1  0  0  0  0
 56 57  1  0  0  0  0
 57 58  1  0  0  0  0
 58 59  1  0  0  0  0
 59 60  1  0  0  0  0
 60 61  1  0  0  0  0
 61 62  1  0  0  0  0
 62 63  1  0  0  0  0
 63 64  1  0  0  0  0
 64 65  1  0  0  0  0
 65 66  1  0  0  0  0
 66 67  1  0  0  0  0
 67 71  1  0  0  0  0
 68 69  1  0  0  0  0
 68 70  1  0  0  0  0
 69 84  1  0  0  0  0
 70 87  1  0  0  0  0
 71 97  1  0  0  0  0
 72 76  1  0  0  0  0
 72 85  1  0  0  0  0
 73 75  1  0  0  0  0
 73 86  1  0  0  0  0
 74 88  1  0  0  0  0
 77 78  1  0  0  0  0
M  CHG  1  88   1
M  ISO  4  34 100  71 101  87 100  97 101
M  END
> <Batch ID>
0004

> <Smiles>
CCC(C)C(NC(=O)CCCCCCCCCCCCC[101CH2:1][101O:1]c1ccc2c(c1)CN(C(=O)C(NC(=O)C(C)NC)C(C)(C)C)C(C(=O)NC1CCCc3ccccc31)C2)C(=O)NCCC[100NH:0][100C:0](=O)N1CCCC(n2nc(-c3ccc(Oc4ccc(F)cc4F)cc3)c(C(N)=O)c2N)C1

> <Shape>
0.236

> <Color>
0.084

> <Negative vol penalty>
0.000

$$$$

  -OEChem-04052315243D

 93101  0     1  0  0  0  0  0999 V2000
  -16.5699  -30.1005   23.3796 C   0  0  0  0  0  0  0  0  0  0  0  0
  -17.6545  -30.8627   23.8015 C   0  0  0  0  0  0  0  0  0  0  0  0
  -30.8512  -11.8789   18.5021 C   0  0  0  0  0  0  0  0  0  0  0  0
  -30.4715  -13.8461   17.1519 C   0  0  0  0  0  0  0  0  0  0  0  0
  -16.7703  -28.7994   22.9202 C   0  0  0  0  0  0  0  0  0  0  0  0
  -18.9401  -30.3239   23.7653 C   0  0  0  0  0  0  0  0  0  0  0  0
  -25.7655  -32.2317   22.7211 C   0  0  0  0  0  0  0  0  0  0  0  0
  -29.6688  -22.7410   22.4140 C   0  0  0  0  0  0  0  0  0  0  0  0
  -30.3431  -21.5471   22.6702 C   0  0  0  0  0  0  0  0  0  0  0  0
  -29.8628  -11.1994   17.7901 C   0  0  0  0  0  0  0  0  0  0  0  0
  -29.4831  -13.1666   16.4399 C   0  0  0  0  0  0  0  0  0  0  0  0
  -27.0176  -32.1272   23.3254 C   0  0  0  0  0  0  0  0  0  0  0  0
  -26.2461  -12.2968   16.8830 C   0  0  0  0  0  0  0  0  0  0  0  0
  -25.0482  -12.9674   16.6364 C   0  0  0  0  0  0  0  0  0  0  0  0
  -27.2531  -29.8965   22.4379 C   0  0  0  0  0  0  0  0  0  0  0  0
  -30.1805  -22.5256   20.0627 C   0  0  0  0  0  0  0  0  0  0  0  0
  -25.4093  -12.7380   14.2585 C   0  0  0  0  0  0  0  0  0  0  0  0
  -31.1556  -13.2023   18.1830 C   0  0  0  0  0  0  0  0  0  0  0  0
  -33.5504  -13.9651   18.6194 C   0  0  0  0  0  0  0  0  0  0  0  0
  -18.0601  -28.2478   22.8693 C   0  0  0  0  0  0  0  0  0  0  0  0
  -25.2423  -31.1634   21.9784 C   0  0  0  0  0  0  0  0  0  0  0  0
  -19.1578  -29.0138   23.3061 C   0  0  0  0  0  0  0  0  0  0  0  0
  -25.9953  -29.9909   21.8230 C   0  0  0  0  0  0  0  0  0  0  0  0
  -29.5875  -23.2302   21.1103 C   0  0  0  0  0  0  0  0  0  0  0  0
  -30.9361  -20.8425   21.6226 C   0  0  0  0  0  0  0  0  0  0  0  0
  -29.1787  -11.8433   16.7590 C   0  0  0  0  0  0  0  0  0  0  0  0
  -27.7604  -30.9585   23.1862 C   0  0  0  0  0  0  0  0  0  0  0  0
  -27.0257  -11.8468   15.8174 C   0  0  0  0  0  0  0  0  0  0  0  0
  -24.6298  -13.1880   15.3242 C   0  0  0  0  0  0  0  0  0  0  0  0
  -30.8549  -21.3317   20.3188 C   0  0  0  0  0  0  0  0  0  0  0  0
  -26.6073  -12.0674   14.5052 C   0  0  0  0  0  0  0  0  0  0  0  0
  -32.1761  -13.9049   18.9185 C   0  0  0  0  0  0  0  0  0  0  0  0
  -34.0837  -14.7504   19.6121 C   0  0  0  0  0  0  0  0  0  0  0  0
  -34.2797  -13.3650   17.5407 C   0  0  0  0  0  0  0  0  0  0  0  0
  -22.6817  -29.2971   22.2316 C   0  0  0  0  0  0  0  0  0  0  0  0
  -23.6980  -28.1750   19.3627 C   0  0  0  0  0  0  0  0  0  0  0  0
  -33.7918  -30.0459   22.9589 C   0  0  0  0  0  0  0  0  0  0  0  0
  -31.3562  -30.5270   23.4049 C   0  0  0  0  0  0  0  0  0  0  0  0
  -26.2831  -27.7136   17.1831 C   0  0  0  0  0  0  0  0  0  0  0  0
  -31.7928  -19.0087   23.1225 C   0  0  0  0  0  0  0  0  0  0  0  0
  -18.2216  -26.8205   22.4095 C   0  0  0  0  0  0  0  0  0  0  0  0
  -23.9017  -31.3019   21.3106 C   0  0  0  0  0  0  0  0  0  0  0  0
  -25.4873  -28.8229   21.0191 C   0  0  0  0  0  0  0  0  0  0  0  0
  -19.6597  -26.4552   22.0505 C   0  0  0  0  0  0  0  0  0  0  0  0
  -33.3805  -16.0026   24.1807 C   0  0  0  0  0  0  0  0  0  0  0  0
  -20.6203  -26.9461   23.1290 C   0  0  0  0  0  0  0  0  0  0  0  0
  -33.3824  -15.1314   22.9225 C   0  0  0  0  0  0  0  0  0  0  0  0
  -32.1060  -16.8378   24.2903 C   0  0  0  0  0  0  0  0  0  0  0  0
  -31.7915  -16.7748   21.8477 C   0  0  0  0  0  0  0  0  0  0  0  0
  -20.5705  -28.4732   23.2586 C   0  0  1  0  0  0  0  0  0  0  0  0
  -23.2444  -29.9593   21.0058 C   0  0  1  0  0  0  0  0  0  0  0  0
  -33.0841  -15.9638   21.6601 C   0  0  2  0  0  0  0  0  0  0  0  0
  -34.1691  -31.2837   23.7342 C   0  0  0  0  0  0  0  0  0  0  0  0
  -26.8130  -26.7326   14.9349 C   0  0  0  0  0  0  0  0  0  0  0  0
  -23.6008  -25.3725   20.5654 C   0  0  0  0  0  0  0  0  0  0  0  0
  -25.0086  -24.5786   18.6533 C   0  0  0  0  0  0  0  0  0  0  0  0
  -22.7442  -25.5319   18.2212 C   0  0  0  0  0  0  0  0  0  0  0  0
  -28.2871  -25.1653   21.9616 C   0  0  0  0  0  0  0  0  0  0  0  0
  -27.1437  -30.3352   16.1129 C   0  0  0  0  0  0  0  0  0  0  0  0
  -29.9452  -30.0207   23.1308 C   0  0  0  0  0  0  0  0  0  1  0  0
  -30.3165  -26.9516   20.0778 C   0  0  0  0  0  0  0  0  0  0  0  0
  -31.5555  -27.7396   19.6455 C   0  0  0  0  0  0  0  0  0  0  0  0
  -30.0505  -25.7767   19.1304 C   0  0  0  0  0  0  0  0  0  0  0  0
  -31.8666  -28.9339   20.5550 C   0  0  0  0  0  0  0  0  0  0  0  0
  -28.8133  -24.9762   19.5252 C   0  0  0  0  0  0  0  0  0  0  0  0
  -32.0756  -28.5841   22.0255 C   0  0  0  0  0  0  0  0  0  0  0  0
  -24.6258  -27.0719   18.9140 C   0  0  1  0  0  0  0  0  0  0  0  0
  -26.4066  -27.9856   15.6947 C   0  0  2  0  0  0  0  0  0  0  0  0
  -24.0039  -25.6598   19.1053 C   0  0  0  0  0  0  0  0  0  0  0  0
  -31.8563  -14.5966   20.0155 N   0  0  0  0  0  0  0  0  0  0  0  0
  -33.0373  -15.0989   20.4144 N   0  0  0  0  0  0  0  0  0  0  0  0
  -24.1684  -29.0044   20.3907 N   0  0  0  0  0  0  0  0  0  0  0  0
  -31.8904  -17.6026   23.0601 N   0  0  0  0  0  0  0  0  0  0  0  0
  -35.3411  -15.1698   19.8683 N   0  0  0  0  0  0  0  0  0  0  0  0
  -33.5766  -12.5890   16.6091 N   0  0  0  0  0  0  0  0  0  0  0  0
  -31.6208  -19.6302   21.8861 N   0  0  0  0  0  0  0  0  0  0  0  0
  -21.3154  -29.0961   22.1854 N   0  0  0  0  0  0  0  0  0  0  0  0
  -24.9922  -27.3819   17.5363 N   0  0  0  0  0  0  0  0  0  0  0  0
  -28.9075  -24.4328   20.8523 N   0  0  3  0  0  0  0  0  0  0  0  0
  -32.4087  -29.7556   22.8426 N   0  0  0  0  0  0  0  0  0  0  0  0
  -27.4296  -29.0399   15.4440 N   0  3  0  0  0  0  0  0  0  0  0  0
  -35.5207  -13.4990   17.4162 O   0  0  0  0  0  0  0  0  0  0  0  0
  -23.4319  -28.9898   23.1506 O   0  0  0  0  0  0  0  0  0  0  0  0
  -22.5992  -28.3007   18.8163 O   0  0  0  0  0  0  0  0  0  0  0  0
  -34.6910  -29.3614   22.4619 O   0  0  0  0  0  0  0  0  0  0  0  0
  -31.5086  -31.5535   24.0699 O   0  0  0  0  0  0  0  0  0  0  0  0
  -27.2373  -27.7843   17.9545 O   0  0  0  0  0  0  0  0  0  0  0  0
  -31.8844  -19.6188   24.1909 O   0  0  0  0  0  0  0  0  0  0  0  0
  -28.2144  -11.1805   16.0639 O   0  0  0  0  0  0  0  0  0  0  0  0
  -28.9825  -30.8536   23.7756 O   0  0  0  0  0  0  0  0  0  1  0  0
  -23.4786  -13.8307   15.0875 F   0  0  0  0  0  0  0  0  0  0  0  0
  -31.4215  -20.6629   19.3044 F   0  0  0  0  0  0  0  0  0  0  0  0
  -27.3513  -11.6364   13.4774 F   0  0  0  0  0  0  0  0  0  0  0  0
  1  2  1  0  0  0  0
  1  5  2  0  0  0  0
  2  6  2  0  0  0  0
  3 10  2  0  0  0  0
  3 18  1  0  0  0  0
  4 11  1  0  0  0  0
  4 18  2  0  0  0  0
  5 20  1  0  0  0  0
  6 22  1  0  0  0  0
  7 12  2  0  0  0  0
  7 21  1  0  0  0  0
  8  9  2  0  0  0  0
  8 24  1  0  0  0  0
  9 25  1  0  0  0  0
 10 26  1  0  0  0  0
 11 26  2  0  0  0  0
 12 27  1  0  0  0  0
 13 14  2  0  0  0  0
 13 28  1  0  0  0  0
 14 29  1  0  0  0  0
 15 23  1  0  0  0  0
 15 27  2  0  0  0  0
 16 24  2  0  0  0  0
 16 30  1  0  0  0  0
 17 29  2  0  0  0  0
 17 31  1  0  0  0  0
 18 32  1  0  0  0  0
 19 32  1  0  0  0  0
 19 33  2  0  0  0  0
 19 34  1  0  0  0  0
 20 22  2  0  0  0  0
 20 41  1  0  0  0  0
 21 23  2  0  0  0  0
 21 42  1  0  0  0  0
 22 50  1  0  0  0  0
 23 43  1  0  0  0  0
 24 79  1  0  0  0  0
 25 30  2  0  0  0  0
 25 76  1  0  0  0  0
 26 89  1  0  0  0  0
 27 90  1  0  0  0  0
 28 31  2  0  0  0  0
 28 89  1  0  0  0  0
 29 91  1  0  0  0  0
 30 92  1  0  0  0  0
 31 93  1  0  0  0  0
 32 70  2  0  0  0  0
 33 71  1  0  0  0  0
 33 74  1  0  0  0  0
 34 75  1  0  0  0  0
 34 82  2  0  0  0  0
 35 51  1  0  0  0  0
 35 77  1  0  0  0  0
 35 83  2  0  0  0  0
 36 67  1  0  0  0  0
 36 72  1  0  0  0  0
 36 84  2  0  0  0  0
 37 53  1  0  0  0  0
 37 80  1  0  0  0  0
 37 85  2  0  0  0  0
 38 60  1  0  0  0  0
 38 80  1  0  0  0  0
 38 86  2  0  0  0  0
 39 68  1  0  0  0  0
 39 78  1  0  0  0  0
 39 87  2  0  0  0  0
 40 73  1  0  0  0  0
 40 76  1  0  0  0  0
 40 88  2  0  0  0  0
 41 44  1  0  0  0  0
 42 51  1  0  0  0  0
 43 72  1  0  0  0  0
 44 46  1  0  0  0  0
 45 47  1  0  0  0  0
 45 48  1  0  0  0  0
 46 50  1  0  0  0  0
 47 52  1  0  0  0  0
 48 73  1  0  0  0  0
 49 52  1  0  0  0  0
 49 73  1  0  0  0  0
 50 77  1  0  0  0  0
 51 72  1  0  0  0  0
 52 71  1  0  0  0  0
 54 68  1  0  0  0  0
 55 69  1  0  0  0  0
 56 69  1  0  0  0  0
 57 69  1  0  0  0  0
 58 79  1  0  0  0  0
 59 81  1  0  0  0  0
 60 90  1  0  0  0  0
 61 62  1  0  0  0  0
 61 63  1  0  0  0  0
 62 64  1  0  0  0  0
 63 65  1  0  0  0  0
 64 66  1  0  0  0  0
 65 79  1  0  0  0  0
 66 80  1  0  0  0  0
 67 69  1  0  0  0  0
 67 78  1  0  0  0  0
 68 81  1  0  0  0  0
 70 71  1  0  0  0  0
M  CHG  1  81   1
M  ISO  4  40 100  60 101  76 100  90 101
M  END
> <Batch ID>
0004

> <Smiles>
CNC(C)C(=O)NC(C(=O)N1Cc2cc([101O:1][101CH2:1]C(=O)N(CCCCCCN(C)c3ccc([100NH:0][100C:0](=O)N4CCCC(n5nc(-c6ccc(Oc7ccc(F)cc7F)cc6)c(C(N)=O)c5N)C4)c(F)c3)C(C)=O)ccc2CC1C(=O)NC1CCCc2ccccc21)C(C)(C)C

> <Shape>
0.228

> <Color>
0.110

> <Negative vol penalty>
0.000

$$$$

  -OEChem-04052315243D

 83 91  0     1  0  0  0  0  0999 V2000
  -32.4349  -14.3477   20.9949 C   0  0  0  0  0  0  0  0  0  0  0  0
  -31.6242  -15.4741   20.8978 C   0  0  0  0  0  0  0  0  0  0  0  0
  -26.7160  -28.0303   20.3153 C   0  0  0  0  0  0  0  0  0  0  0  0
  -24.4779  -27.3737   19.6854 C   0  0  0  0  0  0  0  0  0  0  0  0
  -31.9265  -13.0934   20.6600 C   0  0  0  0  0  0  0  0  0  0  0  0
  -30.3048  -15.3469   20.4647 C   0  0  0  0  0  0  0  0  0  0  0  0
  -25.4827  -18.6240   22.3392 C   0  0  0  0  0  0  0  0  0  0  0  0
  -19.3805  -28.0226   22.3341 C   0  0  0  0  0  0  0  0  0  0  0  0
  -21.4721  -27.6624   23.4884 C   0  0  0  0  0  0  0  0  0  0  0  0
  -27.2127  -26.8343   19.7972 C   0  0  0  0  0  0  0  0  0  0  0  0
  -24.9746  -26.1777   19.1673 C   0  0  0  0  0  0  0  0  0  0  0  0
  -24.8294  -19.7280   21.7932 C   0  0  0  0  0  0  0  0  0  0  0  0
  -19.5149  -26.7852   21.7045 C   0  0  0  0  0  0  0  0  0  0  0  0
  -21.6065  -26.4250   22.8589 C   0  0  0  0  0  0  0  0  0  0  0  0
  -27.4111  -23.5983   20.7529 C   0  0  0  0  0  0  0  0  0  0  0  0
  -28.3430  -22.8985   21.5192 C   0  0  0  0  0  0  0  0  0  0  0  0
  -23.2068  -18.2588   20.7793 C   0  0  0  0  0  0  0  0  0  0  0  0
  -29.9581  -23.0933   19.7329 C   0  0  0  0  0  0  0  0  0  0  0  0
  -25.3486  -28.3000   20.2595 C   0  0  0  0  0  0  0  0  0  0  0  0
  -24.6692  -30.7544   20.1113 C   0  0  0  0  0  0  0  0  0  0  0  0
  -30.5973  -12.9495   20.2319 C   0  0  0  0  0  0  0  0  0  0  0  0
  -25.0084  -17.3262   22.1000 C   0  0  0  0  0  0  0  0  0  0  0  0
  -29.7786  -14.0897   20.1225 C   0  0  0  0  0  0  0  0  0  0  0  0
  -23.8544  -17.1402   21.3256 C   0  0  0  0  0  0  0  0  0  0  0  0
  -20.3591  -28.4613   23.2260 C   0  0  0  0  0  0  0  0  0  0  0  0
  -26.3421  -25.9080   19.2232 C   0  0  0  0  0  0  0  0  0  0  0  0
  -20.6278  -25.9864   21.9669 C   0  0  0  0  0  0  0  0  0  0  0  0
  -23.6930  -19.5454   21.0107 C   0  0  0  0  0  0  0  0  0  0  0  0
  -27.7526  -24.0456   19.4766 C   0  0  0  0  0  0  0  0  0  0  0  0
  -29.6166  -22.6460   21.0093 C   0  0  0  0  0  0  0  0  0  0  0  0
  -29.0261  -23.7931   18.9666 C   0  0  0  0  0  0  0  0  0  0  0  0
  -24.8348  -29.5350   20.7950 C   0  0  0  0  0  0  0  0  0  0  0  0
  -24.1522  -31.6092   21.0539 C   0  0  0  0  0  0  0  0  0  0  0  0
  -24.9570  -31.0849   18.7461 C   0  0  0  0  0  0  0  0  0  0  0  0
  -26.1840  -14.7335   20.6858 C   0  0  0  0  0  0  0  0  0  0  0  0
  -23.4638  -13.3658   21.8049 C   0  0  0  0  0  0  0  0  0  0  0  0
  -20.2426  -13.7638   22.8594 C   0  0  0  0  0  0  0  0  0  0  0  0
  -21.1478  -30.2232   26.2105 C   0  0  0  0  0  0  0  0  0  0  0  0
  -30.1066  -11.5795   19.8357 C   0  0  0  0  0  0  0  0  0  0  0  0
  -25.7090  -16.1475   22.7183 C   0  0  0  0  0  0  0  0  0  0  0  0
  -23.2930  -15.7689   21.0557 C   0  0  0  0  0  0  0  0  0  0  0  0
  -28.5861  -11.4803   19.7436 C   0  0  0  0  0  0  0  0  0  0  0  0
  -24.0955  -32.4171   25.7634 C   0  0  0  0  0  0  0  0  0  0  0  0
  -28.0195  -12.6669   18.9706 C   0  0  0  0  0  0  0  0  0  0  0  0
  -24.6398  -31.9713   24.4073 C   0  0  0  0  0  0  0  0  0  0  0  0
  -23.3582  -31.2883   26.4775 C   0  0  0  0  0  0  0  0  0  0  0  0
  -22.8174  -30.2248   24.3117 C   0  0  0  0  0  0  0  0  0  0  0  0
  -28.3348  -13.9891   19.6805 C   0  0  1  0  0  0  0  0  0  0  0  0
  -25.4360  -14.8380   21.9848 C   0  0  1  0  0  0  0  0  0  0  0  0
  -23.5257  -31.3521   23.5455 C   0  0  2  0  0  0  0  0  0  0  0  0
  -18.2609  -12.4575   23.6743 C   0  0  0  0  0  0  0  0  0  0  0  0
  -22.9056  -12.4378   18.9523 C   0  0  0  0  0  0  0  0  0  0  0  0
  -20.5368  -11.9980   19.6332 C   0  0  0  0  0  0  0  0  0  0  0  0
  -22.3985  -10.7420   20.7191 C   0  0  0  0  0  0  0  0  0  0  0  0
  -18.9334  -29.1788   25.9187 C   0  0  0  0  0  0  0  0  0  0  0  0
  -20.2289  -15.1826   25.4567 C   0  0  0  0  0  0  0  0  0  0  0  0
  -20.2153  -29.7839   23.8997 C   0  0  0  0  0  0  0  0  0  0  0  0
  -21.8917  -22.6895   20.9155 C   0  0  0  0  0  0  0  0  0  0  0  0
  -21.9188  -24.0120   21.6656 C   0  0  0  0  0  0  0  0  0  0  0  0
  -23.1237  -21.8463   21.2043 C   0  0  0  0  0  0  0  0  0  1  0  0
  -22.0617  -13.1852   21.2751 C   0  0  1  0  0  0  0  0  0  0  0  0
  -19.5077  -13.2302   24.0759 C   0  0  2  0  0  0  0  0  0  0  0  0
  -21.9871  -12.1166   20.1482 C   0  0  0  0  0  0  0  0  0  0  0  0
  -24.4540  -29.6048   22.0733 N   0  0  0  0  0  0  0  0  0  0  0  0
  -24.0441  -30.8784   22.2004 N   0  0  0  0  0  0  0  0  0  0  0  0
  -24.0171  -14.6477   21.6770 N   0  0  0  0  0  0  0  0  0  0  0  0
  -22.3344  -30.6892   25.6208 N   0  0  0  0  0  0  0  0  0  0  0  0
  -23.7843  -32.9071   21.0057 N   0  0  0  0  0  0  0  0  0  0  0  0
  -25.4845  -30.0878   17.9142 N   0  0  0  0  0  0  0  0  0  0  0  0
  -27.4457  -14.1830   20.8058 N   0  0  0  0  0  0  0  0  0  0  0  0
  -21.2226  -12.8931   22.4322 N   0  0  0  0  0  0  0  0  0  0  0  0
  -20.1849  -29.6655   25.3558 N   0  0  0  0  0  0  0  0  0  0  0  0
  -19.0985  -14.3522   24.9673 N   0  3  0  0  0  0  0  0  0  0  0  0
  -24.7678  -32.2349   18.2822 O   0  0  0  0  0  0  0  0  0  0  0  0
  -25.6549  -15.1222   19.6511 O   0  0  0  0  0  0  0  0  0  0  0  0
  -24.0439  -12.4066   22.3198 O   0  0  0  0  0  0  0  0  0  0  0  0
  -19.9716  -14.8433   22.3380 O   0  0  0  0  0  0  0  0  0  0  0  0
  -20.9559  -30.3100   27.4302 O   0  0  0  0  0  0  0  0  0  0  0  0
  -26.8265  -24.7410   18.7173 O   0  0  0  0  0  0  0  0  0  0  0  0
  -20.7590  -24.7699   21.3491 O   0  0  0  0  0  0  0  0  0  0  0  0
  -23.0538  -20.6212   20.4760 O   0  0  0  0  0  0  0  0  0  1  0  0
  -30.5119  -21.9753   21.7459 F   0  0  0  0  0  0  0  0  0  0  0  0
  -29.3604  -24.2214   17.7416 F   0  0  0  0  0  0  0  0  0  0  0  0
  1  2  1  0  0  0  0
  1  5  2  0  0  0  0
  2  6  2  0  0  0  0
  3 10  2  0  0  0  0
  3 19  1  0  0  0  0
  4 11  1  0  0  0  0
  4 19  2  0  0  0  0
  5 21  1  0  0  0  0
  6 23  1  0  0  0  0
  7 12  2  0  0  0  0
  7 22  1  0  0  0  0
  8 13  2  0  0  0  0
  8 25  1  0  0  0  0
  9 14  1  0  0  0  0
  9 25  2  0  0  0  0
 10 26  1  0  0  0  0
 11 26  2  0  0  0  0
 12 28  1  0  0  0  0
 13 27  1  0  0  0  0
 14 27  2  0  0  0  0
 15 16  2  0  0  0  0
 15 29  1  0  0  0  0
 16 30  1  0  0  0  0
 17 24  1  0  0  0  0
 17 28  2  0  0  0  0
 18 30  2  0  0  0  0
 18 31  1  0  0  0  0
 19 32  1  0  0  0  0
 20 32  1  0  0  0  0
 20 33  2  0  0  0  0
 20 34  1  0  0  0  0
 21 23  2  0  0  0  0
 21 39  1  0  0  0  0
 22 24  2  0  0  0  0
 22 40  1  0  0  0  0
 23 48  1  0  0  0  0
 24 41  1  0  0  0  0
 25 57  1  0  0  0  0
 26 79  1  0  0  0  0
 27 80  1  0  0  0  0
 28 81  1  0  0  0  0
 29 31  2  0  0  0  0
 29 79  1  0  0  0  0
 30 82  1  0  0  0  0
 31 83  1  0  0  0  0
 32 64  2  0  0  0  0
 33 65  1  0  0  0  0
 33 68  1  0  0  0  0
 34 69  1  0  0  0  0
 34 74  2  0  0  0  0
 35 49  1  0  0  0  0
 35 70  1  0  0  0  0
 35 75  2  0  0  0  0
 36 61  1  0  0  0  0
 36 66  1  0  0  0  0
 36 76  2  0  0  0  0
 37 62  1  0  0  0  0
 37 71  1  0  0  0  0
 37 77  2  0  0  0  0
 38 67  1  0  0  0  0
 38 72  1  0  0  0  0
 38 78  2  0  0  0  0
 39 42  1  0  0  0  0
 40 49  1  0  0  0  0
 41 66  1  0  0  0  0
 42 44  1  0  0  0  0
 43 45  1  0  0  0  0
 43 46  1  0  0  0  0
 44 48  1  0  0  0  0
 45 50  1  0  0  0  0
 46 67  1  0  0  0  0
 47 50  1  0  0  0  0
 47 67  1  0  0  0  0
 48 70  1  0  0  0  0
 49 66  1  0  0  0  0
 50 65  1  0  0  0  0
 51 62  1  0  0  0  0
 52 63  1  0  0  0  0
 53 63  1  0  0  0  0
 54 63  1  0  0  0  0
 55 72  1  0  0  0  0
 56 73  1  0  0  0  0
 57 72  1  0  0  0  0
 58 59  1  0  0  0  0
 58 60  1  0  0  0  0
 59 80  1  0  0  0  0
 60 81  1  0  0  0  0
 61 63  1  0  0  0  0
 61 71  1  0  0  0  0
 62 73  1  0  0  0  0
 64 65  1  0  0  0  0
M  CHG  1  73   1
M  ISO  4  38 100  60 101  72 100  81 101
M  END
> <Batch ID>
0004

> <Smiles>
CNC(C)C(=O)NC(C(=O)N1Cc2cc([101O:1][101CH2:1]CCOc3ccc(C[100N:0](C)[100C:0](=O)N4CCCC(n5nc(-c6ccc(Oc7ccc(F)cc7F)cc6)c(C(N)=O)c5N)C4)cc3)ccc2CC1C(=O)NC1CCCc2ccccc21)C(C)(C)C

> <Shape>
0.265

> <Color>
0.062

> <Negative vol penalty>
0.000

$$$$

  -OEChem-04052315243D

 82 90  0     1  0  0  0  0  0999 V2000
  -28.1442  -36.8223   19.4965 C   0  0  0  0  0  0  0  0  0  0  0  0
  -28.2679  -35.5189   19.0263 C   0  0  0  0  0  0  0  0  0  0  0  0
  -24.5429   -9.2826   21.4367 C   0  0  0  0  0  0  0  0  0  0  0  0
  -22.7016  -10.6424   20.6638 C   0  0  0  0  0  0  0  0  0  0  0  0
  -27.8553  -37.0528   20.8408 C   0  0  0  0  0  0  0  0  0  0  0  0
  -28.1038  -34.4450   19.9006 C   0  0  0  0  0  0  0  0  0  0  0  0
  -25.6457  -28.9870   18.6071 C   0  0  0  0  0  0  0  0  0  0  0  0
  -23.6847   -8.1899   21.5590 C   0  0  0  0  0  0  0  0  0  0  0  0
  -21.8433   -9.5497   20.7860 C   0  0  0  0  0  0  0  0  0  0  0  0
  -26.2138  -27.7529   18.2938 C   0  0  0  0  0  0  0  0  0  0  0  0
  -21.9037   -5.1377   22.4172 C   0  0  0  0  0  0  0  0  0  0  0  0
  -21.9939   -4.3668   23.5761 C   0  0  0  0  0  0  0  0  0  0  0  0
  -26.0261  -27.0865   20.6046 C   0  0  0  0  0  0  0  0  0  0  0  0
  -26.0564  -20.7149   21.3111 C   0  0  0  0  0  0  0  0  0  0  0  0
  -26.0733  -20.7921   18.5224 C   0  0  0  0  0  0  0  0  0  0  0  0
  -21.4507   -6.3072   24.9091 C   0  0  0  0  0  0  0  0  0  0  0  0
  -24.0514  -10.5089   20.9891 C   0  0  0  0  0  0  0  0  0  0  0  0
  -25.6864  -12.0087   19.7302 C   0  0  0  0  0  0  0  0  0  0  0  0
  -27.6780  -35.9811   21.7300 C   0  0  0  0  0  0  0  0  0  0  0  0
  -25.2730  -29.2847   19.9258 C   0  0  0  0  0  0  0  0  0  0  0  0
  -27.8136  -34.6614   21.2584 C   0  0  0  0  0  0  0  0  0  0  0  0
  -25.4512  -28.3241   20.9316 C   0  0  0  0  0  0  0  0  0  0  0  0
  -25.8563  -21.9243   20.6457 C   0  0  0  0  0  0  0  0  0  0  0  0
  -26.2651  -19.5440   20.5822 C   0  0  0  0  0  0  0  0  0  0  0  0
  -22.3349   -8.3234   21.2336 C   0  0  0  0  0  0  0  0  0  0  0  0
  -26.4067  -26.8036   19.2930 C   0  0  0  0  0  0  0  0  0  0  0  0
  -21.5871   -6.4934   22.5042 C   0  0  0  0  0  0  0  0  0  0  0  0
  -25.8647  -21.9629   19.2514 C   0  0  0  0  0  0  0  0  0  0  0  0
  -21.7674   -4.9515   24.8220 C   0  0  0  0  0  0  0  0  0  0  0  0
  -26.2735  -19.5826   19.1879 C   0  0  0  0  0  0  0  0  0  0  0  0
  -21.3605   -7.0781   23.7502 C   0  0  0  0  0  0  0  0  0  0  0  0
  -24.9374  -11.6381   20.8631 C   0  0  0  0  0  0  0  0  0  0  0  0
  -26.3589  -13.1416   20.1187 C   0  0  0  0  0  0  0  0  0  0  0  0
  -25.7670  -11.3848   18.4418 C   0  0  0  0  0  0  0  0  0  0  0  0
  -26.1528  -31.4616   22.0684 C   0  0  0  0  0  0  0  0  0  0  0  0
  -23.7195  -30.1829   23.7907 C   0  0  0  0  0  0  0  0  0  0  0  0
  -21.6967  -27.5025   24.3996 C   0  0  0  0  0  0  0  0  0  0  0  0
  -26.4898  -18.1054   22.6380 C   0  0  0  0  0  0  0  0  0  0  0  0
  -27.4136  -36.2806   23.1843 C   0  0  0  0  0  0  0  0  0  0  0  0
  -24.6369  -30.6103   20.2426 C   0  0  0  0  0  0  0  0  0  0  0  0
  -25.0494  -28.5868   22.3592 C   0  0  0  0  0  0  0  0  0  0  0  0
  -26.8842  -35.0814   23.9667 C   0  0  0  0  0  0  0  0  0  0  0  0
  -26.9227  -15.2313   24.6944 C   0  0  0  0  0  0  0  0  0  0  0  0
  -27.7087  -33.8359   23.6570 C   0  0  0  0  0  0  0  0  0  0  0  0
  -26.5064  -14.0707   23.7878 C   0  0  0  0  0  0  0  0  0  0  0  0
  -26.0615  -16.4711   24.4602 C   0  0  0  0  0  0  0  0  0  0  0  0
  -25.5635  -15.7548   22.1563 C   0  0  0  0  0  0  0  0  0  0  0  0
  -27.6181  -33.4699   22.1707 C   0  0  1  0  0  0  0  0  0  0  0  0
  -24.7680  -31.0001   21.7117 C   0  0  1  0  0  0  0  0  0  0  0  0
  -26.4445  -14.5043   22.3100 C   0  0  2  0  0  0  0  0  0  0  0  0
  -25.6354  -23.1685   21.4410 C   0  0  0  0  0  0  0  0  0  0  0  0
  -19.8287  -26.7435   25.8935 C   0  0  0  0  0  0  0  0  0  0  0  0
  -25.7068  -29.7908   26.0725 C   0  0  0  0  0  0  0  0  0  0  0  0
  -24.0757  -28.2124   27.1291 C   0  0  0  0  0  0  0  0  0  0  0  0
  -23.4503  -30.6022   26.7824 C   0  0  0  0  0  0  0  0  0  0  0  0
  -19.8657  -27.1146   22.1071 C   0  0  0  0  0  0  0  0  0  0  0  0
  -26.7316  -25.0893   17.6769 C   0  0  0  0  0  0  0  0  0  1  0  0
  -26.7245  -23.5738   17.7277 C   0  0  0  0  0  0  0  0  0  0  0  0
  -23.5917  -29.0560   24.7871 C   0  0  1  0  0  0  0  0  0  0  0  0
  -20.1919  -27.3938   24.5676 C   0  0  2  0  0  0  0  0  0  0  0  0
  -24.2156  -29.4108   26.1663 C   0  0  0  0  0  0  0  0  0  0  0  0
  -25.1170  -12.4681   21.8941 N   0  0  0  0  0  0  0  0  0  0  0  0
  -25.9865  -13.3715   21.4105 N   0  0  0  0  0  0  0  0  0  0  0  0
  -24.4373  -29.9002   22.6200 N   0  0  0  0  0  0  0  0  0  0  0  0
  -26.0534  -16.8250   23.0391 N   0  0  0  0  0  0  0  0  0  0  0  0
  -27.2265  -13.9535   19.4780 N   0  0  0  0  0  0  0  0  0  0  0  0
  -25.0104  -10.2278   18.2112 N   0  0  0  0  0  0  0  0  0  0  0  0
  -26.4684  -18.3162   21.2597 N   0  0  0  0  0  0  0  0  0  0  0  0
  -26.3586  -32.8159   21.8870 N   0  0  0  0  0  0  0  0  0  0  0  0
  -22.1735  -28.7184   24.8419 N   0  0  0  0  0  0  0  0  0  0  0  0
  -19.6056  -26.5773   23.4674 N   0  3  0  0  0  0  0  0  0  0  0  0
  -26.5013  -11.8305   17.5277 O   0  0  0  0  0  0  0  0  0  0  0  0
  -26.9733  -30.6493   22.4792 O   0  0  0  0  0  0  0  0  0  0  0  0
  -23.1954  -31.2717   24.0387 O   0  0  0  0  0  0  0  0  0  0  0  0
  -22.3813  -26.5978   23.9270 O   0  0  0  0  0  0  0  0  0  0  0  0
  -26.8814  -18.9430   23.4548 O   0  0  0  0  0  0  0  0  0  0  0  0
  -21.4971   -7.2573   21.3526 O   0  0  0  0  0  0  0  0  0  0  0  0
  -26.9616  -25.5985   18.9900 O   0  0  0  0  0  0  0  0  0  1  0  0
  -25.6718  -23.1424   18.5815 O   0  0  0  0  0  0  0  0  0  0  0  0
  -21.8525   -4.2107   25.9348 F   0  0  0  0  0  0  0  0  0  0  0  0
  -26.4755  -18.4637   18.4774 F   0  0  0  0  0  0  0  0  0  0  0  0
  -21.0548   -8.3798   23.8400 F   0  0  0  0  0  0  0  0  0  0  0  0
  1  2  1  0  0  0  0
  1  5  2  0  0  0  0
  2  6  2  0  0  0  0
  3  8  2  0  0  0  0
  3 17  1  0  0  0  0
  4  9  1  0  0  0  0
  4 17  2  0  0  0  0
  5 19  1  0  0  0  0
  6 21  1  0  0  0  0
  7 10  2  0  0  0  0
  7 20  1  0  0  0  0
  8 25  1  0  0  0  0
  9 25  2  0  0  0  0
 10 26  1  0  0  0  0
 11 12  2  0  0  0  0
 11 27  1  0  0  0  0
 12 29  1  0  0  0  0
 13 22  1  0  0  0  0
 13 26  2  0  0  0  0
 14 23  1  0  0  0  0
 14 24  2  0  0  0  0
 15 28  1  0  0  0  0
 15 30  2  0  0  0  0
 16 29  2  0  0  0  0
 16 31  1  0  0  0  0
 17 32  1  0  0  0  0
 18 32  1  0  0  0  0
 18 33  2  0  0  0  0
 18 34  1  0  0  0  0
 19 21  2  0  0  0  0
 19 39  1  0  0  0  0
 20 22  2  0  0  0  0
 20 40  1  0  0  0  0
 21 48  1  0  0  0  0
 22 41  1  0  0  0  0
 23 28  2  0  0  0  0
 23 51  1  0  0  0  0
 24 30  1  0  0  0  0
 24 68  1  0  0  0  0
 25 77  1  0  0  0  0
 26 78  1  0  0  0  0
 27 31  2  0  0  0  0
 27 77  1  0  0  0  0
 28 79  1  0  0  0  0
 29 80  1  0  0  0  0
 30 81  1  0  0  0  0
 31 82  1  0  0  0  0
 32 62  2  0  0  0  0
 33 63  1  0  0  0  0
 33 66  1  0  0  0  0
 34 67  1  0  0  0  0
 34 72  2  0  0  0  0
 35 49  1  0  0  0  0
 35 69  1  0  0  0  0
 35 73  2  0  0  0  0
 36 59  1  0  0  0  0
 36 64  1  0  0  0  0
 36 74  2  0  0  0  0
 37 60  1  0  0  0  0
 37 70  1  0  0  0  0
 37 75  2  0  0  0  0
 38 65  1  0  0  0  0
 38 68  1  0  0  0  0
 38 76  2  0  0  0  0
 39 42  1  0  0  0  0
 40 49  1  0  0  0  0
 41 64  1  0  0  0  0
 42 44  1  0  0  0  0
 43 45  1  0  0  0  0
 43 46  1  0  0  0  0
 44 48  1  0  0  0  0
 45 50  1  0  0  0  0
 46 65  1  0  0  0  0
 47 50  1  0  0  0  0
 47 65  1  0  0  0  0
 48 69  1  0  0  0  0
 49 64  1  0  0  0  0
 50 63  1  0  0  0  0
 52 60  1  0  0  0  0
 53 61  1  0  0  0  0
 54 61  1  0  0  0  0
 55 61  1  0  0  0  0
 56 71  1  0  0  0  0
 57 58  1  0  0  0  0
 57 78  1  0  0  0  0
 58 79  1  0  0  0  0
 59 61  1  0  0  0  0
 59 70  1  0  0  0  0
 60 71  1  0  0  0  0
 62 63  1  0  0  0  0
M  CHG  1  71   1
M  ISO  4  38 100  57 101  68 100  78 101
M  END
> <Batch ID>
0004

> <Smiles>
CNC(C)C(=O)NC(C(=O)N1Cc2cc([101O:1][101CH2:1]COc3cc(F)c([100NH:0][100C:0](=O)N4CCCC(n5nc(-c6ccc(Oc7ccc(F)cc7F)cc6)c(C(N)=O)c5N)C4)cc3C)ccc2CC1C(=O)NC1CCCc2ccccc21)C(C)(C)C

> <Shape>
0.233

> <Color>
0.106

> <Negative vol penalty>
0.000

$$$$

  -OEChem-04052315243D

 91 99  0     1  0  0  0  0  0999 V2000
  -27.6392  -24.3296   17.0753 C   0  0  0  0  0  0  0  0  0  0  0  0
  -26.4896  -24.5947   17.8125 C   0  0  0  0  0  0  0  0  0  0  0  0
  -26.6530  -18.7428   20.0007 C   0  0  0  0  0  0  0  0  0  0  0  0
  -28.7831  -17.6166   20.1785 C   0  0  0  0  0  0  0  0  0  0  0  0
  -28.8685  -24.8342   17.4974 C   0  0  0  0  0  0  0  0  0  0  0  0
  -26.5688  -25.3637   18.9731 C   0  0  0  0  0  0  0  0  0  0  0  0
  -22.8934  -28.8357   19.2576 C   0  0  0  0  0  0  0  0  0  0  0  0
  -27.2101  -19.8868   20.5719 C   0  0  0  0  0  0  0  0  0  0  0  0
  -29.3402  -18.7607   20.7497 C   0  0  0  0  0  0  0  0  0  0  0  0
  -21.6290  -28.3942   19.6452 C   0  0  0  0  0  0  0  0  0  0  0  0
  -31.4154  -21.5055   21.9236 C   0  0  0  0  0  0  0  0  0  0  0  0
  -32.6643  -21.9199   21.4607 C   0  0  0  0  0  0  0  0  0  0  0  0
  -22.0448  -29.1882   21.8848 C   0  0  0  0  0  0  0  0  0  0  0  0
  -31.7567  -22.1696   19.2356 C   0  0  0  0  0  0  0  0  0  0  0  0
  -19.2346  -14.0442   20.9612 C   0  0  0  0  0  0  0  0  0  0  0  0
  -18.7388  -13.4998   23.5434 C   0  0  0  0  0  0  0  0  0  0  0  0
  -27.4394  -17.6076   19.8041 C   0  0  0  0  0  0  0  0  0  0  0  0
  -26.8066  -16.0996   17.8462 C   0  0  0  0  0  0  0  0  0  0  0  0
  -28.9613  -25.6178   18.6584 C   0  0  0  0  0  0  0  0  0  0  0  0
  -23.7486  -29.4480   20.1850 C   0  0  0  0  0  0  0  0  0  0  0  0
  -27.8007  -25.8781   19.4118 C   0  0  0  0  0  0  0  0  0  0  0  0
  -23.3186  -29.6389   21.5059 C   0  0  0  0  0  0  0  0  0  0  0  0
  -28.5538  -19.8958   20.9464 C   0  0  0  0  0  0  0  0  0  0  0  0
  -21.2057  -28.5678   20.9596 C   0  0  0  0  0  0  0  0  0  0  0  0
  -30.3372  -21.4230   21.0424 C   0  0  0  0  0  0  0  0  0  0  0  0
  -32.8349  -22.2520   20.1168 C   0  0  0  0  0  0  0  0  0  0  0  0
  -30.5079  -21.7551   19.6984 C   0  0  0  0  0  0  0  0  0  0  0  0
  -26.8643  -16.4253   19.2146 C   0  0  0  0  0  0  0  0  0  0  0  0
  -18.0431  -14.3847   21.5685 C   0  0  0  0  0  0  0  0  0  0  0  0
  -20.1547  -13.4059   21.7676 C   0  0  0  0  0  0  0  0  0  0  0  0
  -26.1680  -14.8842   17.8092 C   0  0  0  0  0  0  0  0  0  0  0  0
  -27.2873  -16.8304   16.7102 C   0  0  0  0  0  0  0  0  0  0  0  0
  -26.6135  -28.7690   21.3831 C   0  0  0  0  0  0  0  0  0  0  0  0
  -26.2932  -31.6835   22.7707 C   0  0  0  0  0  0  0  0  0  0  0  0
  -24.2134  -34.1530   23.8766 C   0  0  0  0  0  0  0  0  0  0  0  0
  -22.4141  -12.3744   21.9298 C   0  0  0  0  0  0  0  0  0  0  0  0
  -30.3195  -26.1018   19.1009 C   0  0  0  0  0  0  0  0  0  0  0  0
  -25.0991  -29.9428   19.7446 C   0  0  0  0  0  0  0  0  0  0  0  0
  -24.1908  -30.3087   22.5350 C   0  0  0  0  0  0  0  0  0  0  0  0
  -30.2594  -27.2210   20.1371 C   0  0  0  0  0  0  0  0  0  0  0  0
  -25.4510  -10.9374   20.4058 C   0  0  0  0  0  0  0  0  0  0  0  0
  -29.2570  -26.8790   21.2348 C   0  0  0  0  0  0  0  0  0  0  0  0
  -26.1785  -12.1693   19.8699 C   0  0  0  0  0  0  0  0  0  0  0  0
  -24.6101  -11.2662   21.6357 C   0  0  0  0  0  0  0  0  0  0  0  0
  -24.3704  -13.6134   20.8851 C   0  0  0  0  0  0  0  0  0  0  0  0
  -27.8422  -26.7289   20.6626 C   0  0  1  0  0  0  0  0  0  0  0  0
  -26.0868  -30.0900   20.8979 C   0  0  1  0  0  0  0  0  0  0  0  0
  -25.1924  -13.3235   19.6201 C   0  0  1  0  0  0  0  0  0  0  0  0
  -24.2425  -36.3971   24.9993 C   0  0  0  0  0  0  0  0  0  0  0  0
  -26.8738  -30.3351   25.4455 C   0  0  0  0  0  0  0  0  0  0  0  0
  -25.9679  -32.3699   26.5888 C   0  0  0  0  0  0  0  0  0  0  0  0
  -27.9850  -32.5536   25.1327 C   0  0  0  0  0  0  0  0  0  0  0  0
  -21.5611  -13.1192   19.7191 C   0  0  0  0  0  0  0  0  0  0  0  0
  -22.9217  -35.4598   21.5565 C   0  0  0  0  0  0  0  0  0  0  0  0
  -17.6499  -20.7589   20.4996 C   0  0  0  0  0  0  0  0  0  0  0  0
  -17.3015  -21.9904   21.3399 C   0  0  0  0  0  0  0  0  0  0  0  0
  -16.5414  -19.7002   20.4928 C   0  0  0  0  0  0  0  0  0  0  0  0
  -18.3820  -23.0759   21.3000 C   0  0  0  0  0  0  0  0  0  0  0  0
  -16.8988  -18.4574   19.6741 C   0  0  0  0  0  0  0  0  0  0  0  0
  -18.0045  -24.3374   22.0796 C   0  0  0  0  0  0  0  0  0  0  0  0
  -15.7619  -17.4325   19.6009 C   0  0  0  0  0  0  0  0  0  0  0  0
  -19.1065  -25.3959   21.9873 C   0  0  0  0  0  0  0  0  0  0  0  0
  -16.0845  -16.1307   18.8563 C   0  0  0  0  0  0  0  0  0  0  0  0
  -18.7476  -26.6438   22.7995 C   0  0  0  0  0  0  0  0  0  0  0  0
  -17.2814  -15.3538   19.3992 C   0  0  0  0  0  0  0  0  0  0  0  0
  -19.8157  -27.7257   22.6959 C   0  0  0  0  0  0  0  0  0  1  0  0
  -25.7191  -32.1910   24.0715 C   0  0  1  0  0  0  0  0  0  0  0  0
  -24.2367  -35.6568   23.6709 C   0  0  2  0  0  0  0  0  0  0  0  0
  -26.6205  -31.8480   25.2910 C   0  0  0  0  0  0  0  0  0  0  0  0
  -17.7607  -14.1267   22.8623 N   0  0  0  0  0  0  0  0  0  0  0  0
  -19.9392  -13.1171   23.0678 N   0  0  0  0  0  0  0  0  0  0  0  0
  -26.3067  -15.4922   19.9907 N   0  0  0  0  0  0  0  0  0  0  0  0
  -25.8925  -14.5682   19.1071 N   0  0  0  0  0  0  0  0  0  0  0  0
  -25.5050  -30.7695   22.0572 N   0  0  0  0  0  0  0  0  0  0  0  0
  -23.7140  -12.3959   21.3856 N   0  0  0  0  0  0  0  0  0  0  0  0
  -25.8209  -14.0656   16.7934 N   0  0  0  0  0  0  0  0  0  0  0  0
  -27.9197  -18.0622   16.9269 N   0  0  0  0  0  0  0  0  0  0  0  0
  -17.0917  -15.0273   20.7917 N   0  0  0  0  0  0  0  0  0  0  0  0
  -27.2584  -28.0290   20.4106 N   0  0  0  0  0  0  0  0  0  0  0  0
  -25.4845  -33.6188   23.8846 N   0  0  0  0  0  0  0  0  0  0  0  0
  -21.4172  -13.0307   21.1759 N   0  0  0  0  0  0  0  0  0  0  0  0
  -23.0409  -36.0922   22.8955 N   0  3  0  0  0  0  0  0  0  0  0  0
  -27.1453  -16.4114   15.5364 O   0  0  0  0  0  0  0  0  0  0  0  0
  -26.4483  -28.4458   22.5536 O   0  0  0  0  0  0  0  0  0  0  0  0
  -27.3970  -32.0887   22.3979 O   0  0  0  0  0  0  0  0  0  0  0  0
  -23.1719  -33.5164   24.0199 O   0  0  0  0  0  0  0  0  0  0  0  0
  -22.1600  -11.7895   22.9895 O   0  0  0  0  0  0  0  0  0  0  0  0
  -29.0978  -21.0121   21.5036 O   0  0  0  0  0  0  0  0  0  0  0  0
  -19.9630  -28.1339   21.3436 O   0  0  0  0  0  0  0  0  0  1  0  0
  -34.0339  -22.6515   19.6728 F   0  0  0  0  0  0  0  0  0  0  0  0
  -29.4755  -21.6790   18.8474 F   0  0  0  0  0  0  0  0  0  0  0  0
  1  2  1  0  0  0  0
  1  5  2  0  0  0  0
  2  6  2  0  0  0  0
  3  8  2  0  0  0  0
  3 17  1  0  0  0  0
  4  9  1  0  0  0  0
  4 17  2  0  0  0  0
  5 19  1  0  0  0  0
  6 21  1  0  0  0  0
  7 10  2  0  0  0  0
  7 20  1  0  0  0  0
  8 23  1  0  0  0  0
  9 23  2  0  0  0  0
 10 24  1  0  0  0  0
 11 12  2  0  0  0  0
 11 25  1  0  0  0  0
 12 26  1  0  0  0  0
 13 22  1  0  0  0  0
 13 24  2  0  0  0  0
 14 26  2  0  0  0  0
 14 27  1  0  0  0  0
 15 29  1  0  0  0  0
 15 30  2  0  0  0  0
 16 70  1  0  0  0  0
 16 71  2  0  0  0  0
 17 28  1  0  0  0  0
 18 28  1  0  0  0  0
 18 31  2  0  0  0  0
 18 32  1  0  0  0  0
 19 21  2  0  0  0  0
 19 37  1  0  0  0  0
 20 22  2  0  0  0  0
 20 38  1  0  0  0  0
 21 46  1  0  0  0  0
 22 39  1  0  0  0  0
 23 88  1  0  0  0  0
 24 89  1  0  0  0  0
 25 27  2  0  0  0  0
 25 88  1  0  0  0  0
 26 90  1  0  0  0  0
 27 91  1  0  0  0  0
 28 72  2  0  0  0  0
 29 70  2  0  0  0  0
 29 78  1  0  0  0  0
 30 71  1  0  0  0  0
 30 81  1  0  0  0  0
 31 73  1  0  0  0  0
 31 76  1  0  0  0  0
 32 77  1  0  0  0  0
 32 83  2  0  0  0  0
 33 47  1  0  0  0  0
 33 79  1  0  0  0  0
 33 84  2  0  0  0  0
 34 67  1  0  0  0  0
 34 74  1  0  0  0  0
 34 85  2  0  0  0  0
 35 68  1  0  0  0  0
 35 80  1  0  0  0  0
 35 86  2  0  0  0  0
 36 75  1  0  0  0  0
 36 81  1  0  0  0  0
 36 87  2  0  0  0  0
 37 40  1  0  0  0  0
 38 47  1  0  0  0  0
 39 74  1  0  0  0  0
 40 42  1  0  0  0  0
 41 43  1  0  0  0  0
 41 44  1  0  0  0  0
 42 46  1  0  0  0  0
 43 48  1  0  0  0  0
 44 75  1  0  0  0  0
 45 48  1  0  0  0  0
 45 75  1  0  0  0  0
 46 79  1  0  0  0  0
 47 74  1  0  0  0  0
 48 73  1  0  0  0  0
 49 68  1  0  0  0  0
 50 69  1  0  0  0  0
 51 69  1  0  0  0  0
 52 69  1  0  0  0  0
 53 81  1  0  0  0  0
 54 82  1  0  0  0  0
 55 56  1  0  0  0  0
 55 57  1  0  0  0  0
 56 58  1  0  0  0  0
 57 59  1  0  0  0  0
 58 60  1  0  0  0  0
 59 61  1  0  0  0  0
 60 62  1  0  0  0  0
 61 63  1  0  0  0  0
 62 64  1  0  0  0  0
 63 65  1  0  0  0  0
 64 66  1  0  0  0  0
 65 78  1  0  0  0  0
 66 89  1  0  0  0  0
 67 69  1  0  0  0  0
 67 80  1  0  0  0  0
 68 82  1  0  0  0  0
 72 73  1  0  0  0  0
M  CHG  1  82   1
M  ISO  4  36 100  66 101  81 100  89 101
M  END
> <Batch ID>
0004

> <Smiles>
CNC(C)C(=O)NC(C(=O)N1Cc2cc([101O:1][101CH2:1]CCCCCCCCCCCNc3cc([100N:0](C)[100C:0](=O)N4CCCC(n5nc(-c6ccc(Oc7ccc(F)cc7F)cc6)c(C(N)=O)c5N)C4)ncn3)ccc2CC1C(=O)NC1CCCc2ccccc21)C(C)(C)C

> <Shape>
0.304

> <Color>
0.075

> <Negative vol penalty>
0.000

$$$$

  -OEChem-04052315243D

 81 89  0     1  0  0  0  0  0999 V2000
  -41.0892  -25.4031   19.4277 C   0  0  0  0  0  0  0  0  0  0  0  0
  -39.9203  -24.6561   19.5329 C   0  0  0  0  0  0  0  0  0  0  0  0
  -23.1222   -9.7454   19.9944 C   0  0  0  0  0  0  0  0  0  0  0  0
  -23.8267   -9.8804   22.3014 C   0  0  0  0  0  0  0  0  0  0  0  0
  -41.1795  -26.6460   20.0530 C   0  0  0  0  0  0  0  0  0  0  0  0
  -38.8413  -25.1511   20.2644 C   0  0  0  0  0  0  0  0  0  0  0  0
  -34.4254  -24.5531   17.8587 C   0  0  0  0  0  0  0  0  0  0  0  0
  -30.4458  -18.9088   23.3808 C   0  0  0  0  0  0  0  0  0  0  0  0
  -22.3985   -8.5884   20.2830 C   0  0  0  0  0  0  0  0  0  0  0  0
  -23.1029   -8.7234   22.5901 C   0  0  0  0  0  0  0  0  0  0  0  0
  -33.8521  -23.2825   17.8866 C   0  0  0  0  0  0  0  0  0  0  0  0
  -31.3621  -19.5865   22.5767 C   0  0  0  0  0  0  0  0  0  0  0  0
  -19.4349   -7.7936   21.7037 C   0  0  0  0  0  0  0  0  0  0  0  0
  -18.1414   -7.6935   21.1916 C   0  0  0  0  0  0  0  0  0  0  0  0
  -32.3712  -23.9961   19.6521 C   0  0  0  0  0  0  0  0  0  0  0  0
  -31.3385  -17.7527   21.0039 C   0  0  0  0  0  0  0  0  0  0  0  0
  -18.7758   -5.7027   19.9784 C   0  0  0  0  0  0  0  0  0  0  0  0
  -23.8364  -10.3913   21.0036 C   0  0  0  0  0  0  0  0  0  0  0  0
  -24.1245  -12.9151   20.7688 C   0  0  0  0  0  0  0  0  0  0  0  0
  -40.0976  -27.1608   20.7845 C   0  0  0  0  0  0  0  0  0  0  0  0
  -33.9826  -25.5532   18.7363 C   0  0  0  0  0  0  0  0  0  0  0  0
  -38.9177  -26.4015   20.9012 C   0  0  0  0  0  0  0  0  0  0  0  0
  -32.9388  -25.2793   19.6316 C   0  0  0  0  0  0  0  0  0  0  0  0
  -29.9758  -17.6529   22.9965 C   0  0  0  0  0  0  0  0  0  0  0  0
  -30.4222  -17.0749   21.8081 C   0  0  0  0  0  0  0  0  0  0  0  0
  -22.3888   -8.0775   21.5809 C   0  0  0  0  0  0  0  0  0  0  0  0
  -32.8268  -23.0030   18.7854 C   0  0  0  0  0  0  0  0  0  0  0  0
  -31.8085  -19.0085   21.3883 C   0  0  0  0  0  0  0  0  0  0  0  0
  -20.3989   -6.8483   21.3531 C   0  0  0  0  0  0  0  0  0  0  0  0
  -17.8118   -6.6480   20.3289 C   0  0  0  0  0  0  0  0  0  0  0  0
  -20.0693   -5.8029   20.4905 C   0  0  0  0  0  0  0  0  0  0  0  0
  -24.5846  -11.5861   20.7059 C   0  0  0  0  0  0  0  0  0  0  0  0
  -25.2080  -13.6717   20.3946 C   0  0  0  0  0  0  0  0  0  0  0  0
  -22.8332  -13.4205   21.1331 C   0  0  0  0  0  0  0  0  0  0  0  0
  -35.3248  -27.2482   21.0663 C   0  0  0  0  0  0  0  0  0  0  0  0
  -32.4780  -28.8031   21.0455 C   0  0  0  0  0  0  0  0  0  0  0  0
  -29.1480  -28.7405   20.3011 C   0  0  0  0  0  0  0  0  0  0  0  0
  -30.6438  -14.8524   20.6429 C   0  0  0  0  0  0  0  0  0  0  0  0
  -40.2591  -28.4881   21.4823 C   0  0  0  0  0  0  0  0  0  0  0  0
  -34.5932  -26.9265   18.6753 C   0  0  0  0  0  0  0  0  0  0  0  0
  -32.4133  -26.3242   20.5806 C   0  0  0  0  0  0  0  0  0  0  0  0
  -38.9365  -29.1077   21.9263 C   0  0  0  0  0  0  0  0  0  0  0  0
  -29.6405  -12.3021   18.3699 C   0  0  0  0  0  0  0  0  0  0  0  0
  -38.0643  -28.0652   22.6186 C   0  0  0  0  0  0  0  0  0  0  0  0
  -28.1978  -11.9978   18.7802 C   0  0  0  0  0  0  0  0  0  0  0  0
  -30.5213  -12.6097   19.5796 C   0  0  0  0  0  0  0  0  0  0  0  0
  -28.5661  -13.3548   20.8802 C   0  0  0  0  0  0  0  0  0  0  0  0
  -37.7168  -26.9156   21.6652 C   0  0  1  0  0  0  0  0  0  0  0  0
  -34.4143  -27.7178   19.9672 C   0  0  1  0  0  0  0  0  0  0  0  0
  -27.6259  -13.1024   19.6903 C   0  0  2  0  0  0  0  0  0  0  0  0
  -28.9947  -16.9500   23.8775 C   0  0  0  0  0  0  0  0  0  0  0  0
  -27.0733  -30.1460   20.4330 C   0  0  0  0  0  0  0  0  0  0  0  0
  -32.2935  -28.2455   24.0396 C   0  0  0  0  0  0  0  0  0  0  0  0
  -29.8549  -28.8001   23.9219 C   0  0  0  0  0  0  0  0  0  0  0  0
  -31.5556  -30.5356   23.3576 C   0  0  0  0  0  0  0  0  0  0  0  0
  -28.8002  -28.7093   17.3622 C   0  0  0  0  0  0  0  0  0  0  0  0
  -33.1008  -20.6640   18.4541 C   0  0  0  0  0  0  0  0  0  1  0  0
  -32.6400  -19.4266   19.1998 C   0  0  0  0  0  0  0  0  0  0  0  0
  -31.1564  -28.6233   21.7527 C   0  0  1  0  0  0  0  0  0  0  0  0
  -28.2594  -29.7342   19.5749 C   0  0  2  0  0  0  0  0  0  0  0  0
  -31.2261  -29.0306   23.2515 C   0  0  0  0  0  0  0  0  0  0  0  0
  -25.8609  -11.5000   20.3217 N   0  0  0  0  0  0  0  0  0  0  0  0
  -26.2121  -12.7844   20.1398 N   0  0  0  0  0  0  0  0  0  0  0  0
  -33.0470  -27.6497   20.4871 N   0  0  0  0  0  0  0  0  0  0  0  0
  -29.9186  -13.6681   20.3929 N   0  0  0  0  0  0  0  0  0  0  0  0
  -25.3904  -15.0027   20.2618 N   0  0  0  0  0  0  0  0  0  0  0  0
  -21.8340  -12.5051   21.4910 N   0  0  0  0  0  0  0  0  0  0  0  0
  -29.9565  -15.8002   21.4004 N   0  0  0  0  0  0  0  0  0  0  0  0
  -36.6685  -27.3162   20.7513 N   0  0  0  0  0  0  0  0  0  0  0  0
  -30.1728  -29.3698   20.9757 N   0  0  0  0  0  0  0  0  0  0  0  0
  -27.7408  -29.1382   18.3113 N   0  3  0  0  0  0  0  0  0  0  0  0
  -22.5682  -14.6466   21.1252 O   0  0  0  0  0  0  0  0  0  0  0  0
  -34.8439  -26.8547   22.1225 O   0  0  0  0  0  0  0  0  0  0  0  0
  -32.9832  -29.9268   20.9844 O   0  0  0  0  0  0  0  0  0  0  0  0
  -28.9505  -27.5277   20.2758 O   0  0  0  0  0  0  0  0  0  0  0  0
  -31.7797  -15.0249   20.1935 O   0  0  0  0  0  0  0  0  0  0  0  0
  -21.6825   -6.9487   21.8630 O   0  0  0  0  0  0  0  0  0  0  0  0
  -32.2659  -21.7635   18.8152 O   0  0  0  0  0  0  0  0  0  1  0  0
  -32.7084  -19.6747   20.5987 O   0  0  0  0  0  0  0  0  0  0  0  0
  -16.5691   -6.5511   19.8385 F   0  0  0  0  0  0  0  0  0  0  0  0
  -20.9909   -4.8911   20.1510 F   0  0  0  0  0  0  0  0  0  0  0  0
  1  2  1  0  0  0  0
  1  5  2  0  0  0  0
  2  6  2  0  0  0  0
  3  9  2  0  0  0  0
  3 18  1  0  0  0  0
  4 10  1  0  0  0  0
  4 18  2  0  0  0  0
  5 20  1  0  0  0  0
  6 22  1  0  0  0  0
  7 11  2  0  0  0  0
  7 21  1  0  0  0  0
  8 12  2  0  0  0  0
  8 24  1  0  0  0  0
  9 26  1  0  0  0  0
 10 26  2  0  0  0  0
 11 27  1  0  0  0  0
 12 28  1  0  0  0  0
 13 14  2  0  0  0  0
 13 29  1  0  0  0  0
 14 30  1  0  0  0  0
 15 23  1  0  0  0  0
 15 27  2  0  0  0  0
 16 25  1  0  0  0  0
 16 28  2  0  0  0  0
 17 30  2  0  0  0  0
 17 31  1  0  0  0  0
 18 32  1  0  0  0  0
 19 32  1  0  0  0  0
 19 33  2  0  0  0  0
 19 34  1  0  0  0  0
 20 22  2  0  0  0  0
 20 39  1  0  0  0  0
 21 23  2  0  0  0  0
 21 40  1  0  0  0  0
 22 48  1  0  0  0  0
 23 41  1  0  0  0  0
 24 25  2  0  0  0  0
 24 51  1  0  0  0  0
 25 68  1  0  0  0  0
 26 77  1  0  0  0  0
 27 78  1  0  0  0  0
 28 79  1  0  0  0  0
 29 31  2  0  0  0  0
 29 77  1  0  0  0  0
 30 80  1  0  0  0  0
 31 81  1  0  0  0  0
 32 62  2  0  0  0  0
 33 63  1  0  0  0  0
 33 66  1  0  0  0  0
 34 67  1  0  0  0  0
 34 72  2  0  0  0  0
 35 49  1  0  0  0  0
 35 69  1  0  0  0  0
 35 73  2  0  0  0  0
 36 59  1  0  0  0  0
 36 64  1  0  0  0  0
 36 74  2  0  0  0  0
 37 60  1  0  0  0  0
 37 70  1  0  0  0  0
 37 75  2  0  0  0  0
 38 65  1  0  0  0  0
 38 68  1  0  0  0  0
 38 76  2  0  0  0  0
 39 42  1  0  0  0  0
 40 49  1  0  0  0  0
 41 64  1  0  0  0  0
 42 44  1  0  0  0  0
 43 45  1  0  0  0  0
 43 46  1  0  0  0  0
 44 48  1  0  0  0  0
 45 50  1  0  0  0  0
 46 65  1  0  0  0  0
 47 50  1  0  0  0  0
 47 65  1  0  0  0  0
 48 69  1  0  0  0  0
 49 64  1  0  0  0  0
 50 63  1  0  0  0  0
 52 60  1  0  0  0  0
 53 61  1  0  0  0  0
 54 61  1  0  0  0  0
 55 61  1  0  0  0  0
 56 71  1  0  0  0  0
 57 58  1  0  0  0  0
 57 78  1  0  0  0  0
 58 79  1  0  0  0  0
 59 61  1  0  0  0  0
 59 70  1  0  0  0  0
 60 71  1  0  0  0  0
 62 63  1  0  0  0  0
M  CHG  1  71   1
M  ISO  4  38 100  57 101  68 100  78 101
M  END
> <Batch ID>
0004

> <Smiles>
CNC(C)C(=O)NC(C(=O)N1Cc2cc([101O:1][101CH2:1]COc3ccc(C)c([100NH:0][100C:0](=O)N4CCCC(n5nc(-c6ccc(Oc7ccc(F)cc7F)cc6)c(C(N)=O)c5N)C4)c3)ccc2CC1C(=O)NC1CCCc2ccccc21)C(C)(C)C

> <Shape>
0.183

> <Color>
0.202

> <Negative vol penalty>
0.000

$$$$

  -OEChem-04052315243D

 81 89  0     1  0  0  0  0  0999 V2000
  -19.1917  -30.2117   18.1528 C   0  0  0  0  0  0  0  0  0  0  0  0
  -20.5773  -30.1230   18.2401 C   0  0  0  0  0  0  0  0  0  0  0  0
  -25.9946  -14.1320   21.6324 C   0  0  0  0  0  0  0  0  0  0  0  0
  -25.8606  -15.5778   19.7014 C   0  0  0  0  0  0  0  0  0  0  0  0
  -18.4249  -30.2919   19.3145 C   0  0  0  0  0  0  0  0  0  0  0  0
  -21.1971  -30.1157   19.4892 C   0  0  0  0  0  0  0  0  0  0  0  0
  -24.8143  -26.5892   19.8424 C   0  0  0  0  0  0  0  0  0  0  0  0
  -30.5195  -22.2091   19.0092 C   0  0  0  0  0  0  0  0  0  0  0  0
  -31.2376  -23.2594   21.0630 C   0  0  0  0  0  0  0  0  0  0  0  0
  -30.3289  -23.4651   18.4334 C   0  0  0  0  0  0  0  0  0  0  0  0
  -31.0471  -24.5155   20.4872 C   0  0  0  0  0  0  0  0  0  0  0  0
  -24.6154  -13.9314   21.5779 C   0  0  0  0  0  0  0  0  0  0  0  0
  -24.4813  -15.3771   19.6468 C   0  0  0  0  0  0  0  0  0  0  0  0
  -26.0409  -26.8731   19.2435 C   0  0  0  0  0  0  0  0  0  0  0  0
  -22.4375  -12.0740   19.7779 C   0  0  0  0  0  0  0  0  0  0  0  0
  -21.9659  -10.7696   19.9247 C   0  0  0  0  0  0  0  0  0  0  0  0
  -26.9432  -27.4850   21.3954 C   0  0  0  0  0  0  0  0  0  0  0  0
  -20.7078  -11.4439   21.8740 C   0  0  0  0  0  0  0  0  0  0  0  0
  -26.6173  -14.9553   20.6941 C   0  0  0  0  0  0  0  0  0  0  0  0
  -29.0381  -14.4017   20.1106 C   0  0  0  0  0  0  0  0  0  0  0  0
  -19.0350  -30.2758   20.5787 C   0  0  0  0  0  0  0  0  0  0  0  0
  -24.6394  -26.7618   21.2230 C   0  0  0  0  0  0  0  0  0  0  0  0
  -20.4378  -30.1971   20.6689 C   0  0  0  0  0  0  0  0  0  0  0  0
  -25.7141  -27.2002   22.0098 C   0  0  0  0  0  0  0  0  0  0  0  0
  -30.9738  -22.1061   20.3240 C   0  0  0  0  0  0  0  0  0  0  0  0
  -30.5927  -24.6184   19.1724 C   0  0  0  0  0  0  0  0  0  0  0  0
  -23.8587  -14.5539   20.5852 C   0  0  0  0  0  0  0  0  0  0  0  0
  -27.1047  -27.3238   20.0196 C   0  0  0  0  0  0  0  0  0  0  0  0
  -22.0444  -13.0634   20.6791 C   0  0  0  0  0  0  0  0  0  0  0  0
  -21.1010  -10.4545   20.9728 C   0  0  0  0  0  0  0  0  0  0  0  0
  -21.1795  -12.7484   21.7272 C   0  0  0  0  0  0  0  0  0  0  0  0
  -28.0419  -15.1634   20.7502 C   0  0  0  0  0  0  0  0  0  0  0  0
  -30.2178  -15.0021   20.4772 C   0  0  0  0  0  0  0  0  0  0  0  0
  -28.9087  -13.2540   19.2609 C   0  0  0  0  0  0  0  0  0  0  0  0
  -22.7727  -28.5864   23.0368 C   0  0  0  0  0  0  0  0  0  0  0  0
  -24.0713  -26.8443   25.4453 C   0  0  0  0  0  0  0  0  0  0  0  0
  -26.6648  -24.9282   26.5631 C   0  0  0  0  0  0  0  0  0  0  0  0
  -31.6107  -20.5512   22.2010 C   0  0  0  0  0  0  0  0  0  0  0  0
  -18.1677  -30.4123   21.8051 C   0  0  0  0  0  0  0  0  0  0  0  0
  -23.3179  -26.4257   21.8578 C   0  0  0  0  0  0  0  0  0  0  0  0
  -25.5840  -27.3825   23.4992 C   0  0  0  0  0  0  0  0  0  0  0  0
  -18.8765  -30.0208   23.0991 C   0  0  0  0  0  0  0  0  0  0  0  0
  -32.1785  -17.5483   24.0278 C   0  0  0  0  0  0  0  0  0  0  0  0
  -20.2634  -30.6529   23.1604 C   0  0  0  0  0  0  0  0  0  0  0  0
  -31.2774  -16.5252   23.3326 C   0  0  0  0  0  0  0  0  0  0  0  0
  -31.5299  -18.9304   24.0828 C   0  0  0  0  0  0  0  0  0  0  0  0
  -30.1644  -18.4270   22.0951 C   0  0  0  0  0  0  0  0  0  0  0  0
  -21.1453  -30.1612   22.0062 C   0  0  1  0  0  0  0  0  0  0  0  0
  -23.1010  -27.1287   23.1943 C   0  0  1  0  0  0  0  0  0  0  0  0
  -30.8022  -17.0349   21.9578 C   0  0  2  0  0  0  0  0  0  0  0  0
  -27.4598  -23.6768   28.5877 C   0  0  0  0  0  0  0  0  0  0  0  0
  -24.8401  -29.4827   26.7712 C   0  0  0  0  0  0  0  0  0  0  0  0
  -26.4152  -28.2055   28.2396 C   0  0  0  0  0  0  0  0  0  0  0  0
  -23.9661  -27.7424   28.3403 C   0  0  0  0  0  0  0  0  0  0  0  0
  -29.9262  -25.9896   17.2140 C   0  0  0  0  0  0  0  0  0  0  0  0
  -26.6787  -22.3511   25.1079 C   0  0  0  0  0  0  0  0  0  0  0  0
  -30.6527  -27.0943   19.3354 C   0  0  0  0  0  0  0  0  0  0  0  0
  -29.4713  -27.4163   20.2352 C   0  0  0  0  0  0  0  0  0  1  0  0
  -25.2900  -26.9796   26.3259 C   0  0  1  0  0  0  0  0  0  0  0  0
  -26.6930  -23.5890   27.2773 C   0  0  2  0  0  0  0  0  0  0  0  0
  -25.1301  -28.1011   27.3909 C   0  0  0  0  0  0  0  0  0  0  0  0
  -28.5449  -16.1707   21.4689 N   0  0  0  0  0  0  0  0  0  0  0  0
  -29.8700  -16.0460   21.2831 N   0  0  0  0  0  0  0  0  0  0  0  0
  -24.2701  -27.0467   24.0722 N   0  0  0  0  0  0  0  0  0  0  0  0
  -31.1090  -19.3496   22.7442 N   0  0  0  0  0  0  0  0  0  0  0  0
  -31.5083  -14.7335   20.1857 N   0  0  0  0  0  0  0  0  0  0  0  0
  -27.6234  -12.7673   18.9866 N   0  0  0  0  0  0  0  0  0  0  0  0
  -31.1658  -20.8300   20.9091 N   0  0  0  0  0  0  0  0  0  0  0  0
  -21.6417  -28.8299   22.2811 N   0  0  0  0  0  0  0  0  0  0  0  0
  -25.5384  -25.6553   26.8854 N   0  0  0  0  0  0  0  0  0  0  0  0
  -30.4019  -25.8800   18.5933 N   0  0  3  0  0  0  0  0  0  0  0  0
  -27.3439  -22.5583   26.4200 N   0  3  0  0  0  0  0  0  0  0  0  0
  -29.9044  -12.6674   18.7730 O   0  0  0  0  0  0  0  0  0  0  0  0
  -23.4914  -29.4279   23.5632 O   0  0  0  0  0  0  0  0  0  0  0  0
  -22.9845  -26.5622   25.9560 O   0  0  0  0  0  0  0  0  0  0  0  0
  -27.5549  -25.2944   25.7987 O   0  0  0  0  0  0  0  0  0  0  0  0
  -32.3998  -21.2657   22.8246 O   0  0  0  0  0  0  0  0  0  0  0  0
  -22.5128  -14.3582   20.5315 O   0  0  0  0  0  0  0  0  0  0  0  0
  -28.3028  -27.6022   19.4375 O   0  0  0  0  0  0  0  0  0  1  0  0
  -20.6470   -9.2021   21.1127 F   0  0  0  0  0  0  0  0  0  0  0  0
  -20.7973  -13.6949   22.5954 F   0  0  0  0  0  0  0  0  0  0  0  0
  1  2  1  0  0  0  0
  1  5  2  0  0  0  0
  2  6  2  0  0  0  0
  3 12  2  0  0  0  0
  3 19  1  0  0  0  0
  4 13  1  0  0  0  0
  4 19  2  0  0  0  0
  5 21  1  0  0  0  0
  6 23  1  0  0  0  0
  7 14  2  0  0  0  0
  7 22  1  0  0  0  0
  8 10  2  0  0  0  0
  8 25  1  0  0  0  0
  9 11  1  0  0  0  0
  9 25  2  0  0  0  0
 10 26  1  0  0  0  0
 11 26  2  0  0  0  0
 12 27  1  0  0  0  0
 13 27  2  0  0  0  0
 14 28  1  0  0  0  0
 15 16  2  0  0  0  0
 15 29  1  0  0  0  0
 16 30  1  0  0  0  0
 17 24  1  0  0  0  0
 17 28  2  0  0  0  0
 18 30  2  0  0  0  0
 18 31  1  0  0  0  0
 19 32  1  0  0  0  0
 20 32  1  0  0  0  0
 20 33  2  0  0  0  0
 20 34  1  0  0  0  0
 21 23  2  0  0  0  0
 21 39  1  0  0  0  0
 22 24  2  0  0  0  0
 22 40  1  0  0  0  0
 23 48  1  0  0  0  0
 24 41  1  0  0  0  0
 25 68  1  0  0  0  0
 26 71  1  0  0  0  0
 27 78  1  0  0  0  0
 28 79  1  0  0  0  0
 29 31  2  0  0  0  0
 29 78  1  0  0  0  0
 30 80  1  0  0  0  0
 31 81  1  0  0  0  0
 32 62  2  0  0  0  0
 33 63  1  0  0  0  0
 33 66  1  0  0  0  0
 34 67  1  0  0  0  0
 34 73  2  0  0  0  0
 35 49  1  0  0  0  0
 35 69  1  0  0  0  0
 35 74  2  0  0  0  0
 36 59  1  0  0  0  0
 36 64  1  0  0  0  0
 36 75  2  0  0  0  0
 37 60  1  0  0  0  0
 37 70  1  0  0  0  0
 37 76  2  0  0  0  0
 38 65  1  0  0  0  0
 38 68  1  0  0  0  0
 38 77  2  0  0  0  0
 39 42  1  0  0  0  0
 40 49  1  0  0  0  0
 41 64  1  0  0  0  0
 42 44  1  0  0  0  0
 43 45  1  0  0  0  0
 43 46  1  0  0  0  0
 44 48  1  0  0  0  0
 45 50  1  0  0  0  0
 46 65  1  0  0  0  0
 47 50  1  0  0  0  0
 47 65  1  0  0  0  0
 48 69  1  0  0  0  0
 49 64  1  0  0  0  0
 50 63  1  0  0  0  0
 51 60  1  0  0  0  0
 52 61  1  0  0  0  0
 53 61  1  0  0  0  0
 54 61  1  0  0  0  0
 55 71  1  0  0  0  0
 56 72  1  0  0  0  0
 57 58  1  0  0  0  0
 57 71  1  0  0  0  0
 58 79  1  0  0  0  0
 59 61  1  0  0  0  0
 59 70  1  0  0  0  0
 60 72  1  0  0  0  0
 62 63  1  0  0  0  0
M  CHG  1  72   1
M  ISO  4  38 100  58 101  68 100  79 101
M  END
> <Batch ID>
0004

> <Smiles>
CNC(C)C(=O)NC(C(=O)N1Cc2cc([101O:1][101CH2:1]CN(C)c3ccc([100NH:0][100C:0](=O)N4CCCC(n5nc(-c6ccc(Oc7ccc(F)cc7F)cc6)c(C(N)=O)c5N)C4)cc3)ccc2CC1C(=O)NC1CCCc2ccccc21)C(C)(C)C

> <Shape>
0.226

> <Color>
0.074

> <Negative vol penalty>
0.000

$$$$

  -OEChem-04052315243D

 87 95  0     1  0  0  0  0  0999 V2000
  -21.6971  -11.7536   19.9336 C   0  0  0  0  0  0  0  0  0  0  0  0
  -21.4894  -13.0435   20.4117 C   0  0  0  0  0  0  0  0  0  0  0  0
  -21.2517  -24.5195   19.6075 C   0  0  0  0  0  0  0  0  0  0  0  0
  -21.8800  -25.3648   17.4332 C   0  0  0  0  0  0  0  0  0  0  0  0
  -22.9856  -11.2220   19.9025 C   0  0  0  0  0  0  0  0  0  0  0  0
  -22.5701  -13.8021   20.8600 C   0  0  0  0  0  0  0  0  0  0  0  0
  -23.2832  -19.8621   20.3371 C   0  0  0  0  0  0  0  0  0  0  0  0
  -20.0786  -23.9953   19.0647 C   0  0  0  0  0  0  0  0  0  0  0  0
  -20.7069  -24.8406   16.8904 C   0  0  0  0  0  0  0  0  0  0  0  0
  -23.0631  -20.9127   21.2268 C   0  0  0  0  0  0  0  0  0  0  0  0
  -19.1638  -21.2919   17.2515 C   0  0  0  0  0  0  0  0  0  0  0  0
  -18.8069  -19.9926   17.6119 C   0  0  0  0  0  0  0  0  0  0  0  0
  -25.3959  -20.8742   21.8400 C   0  0  0  0  0  0  0  0  0  0  0  0
  -27.1291  -27.2942   25.3282 C   0  0  0  0  0  0  0  0  0  0  0  0
  -24.7566  -27.7448   25.3979 C   0  0  0  0  0  0  0  0  0  0  0  0
  -26.2758  -29.4037   24.5165 C   0  0  0  0  0  0  0  0  0  0  0  0
  -16.7349  -20.8191   18.5398 C   0  0  0  0  0  0  0  0  0  0  0  0
  -22.1524  -25.2043   18.7917 C   0  0  0  0  0  0  0  0  0  0  0  0
  -24.6117  -25.1036   19.4623 C   0  0  0  0  0  0  0  0  0  0  0  0
  -24.0839  -11.9780   20.3416 C   0  0  0  0  0  0  0  0  0  0  0  0
  -24.5612  -19.3015   20.1999 C   0  0  0  0  0  0  0  0  0  0  0  0
  -23.8744  -13.2796   20.8359 C   0  0  0  0  0  0  0  0  0  0  0  0
  -25.6301  -19.8183   20.9459 C   0  0  0  0  0  0  0  0  0  0  0  0
  -25.8318  -26.8915   25.6453 C   0  0  0  0  0  0  0  0  0  0  0  0
  -27.3511  -28.5504   24.7639 C   0  0  0  0  0  0  0  0  0  0  0  0
  -24.9786  -29.0010   24.8335 C   0  0  0  0  0  0  0  0  0  0  0  0
  -19.8062  -24.1558   17.7062 C   0  0  0  0  0  0  0  0  0  0  0  0
  -24.1189  -21.4170   21.9806 C   0  0  0  0  0  0  0  0  0  0  0  0
  -18.3063  -22.3549   17.5353 C   0  0  0  0  0  0  0  0  0  0  0  0
  -17.5924  -19.7561   18.2560 C   0  0  0  0  0  0  0  0  0  0  0  0
  -17.0918  -22.1185   18.1794 C   0  0  0  0  0  0  0  0  0  0  0  0
  -23.3642  -25.7465   19.3519 C   0  0  0  0  0  0  0  0  0  0  0  0
  -25.4263  -26.0348   20.0588 C   0  0  0  0  0  0  0  0  0  0  0  0
  -24.9995  -23.7828   19.0613 C   0  0  0  0  0  0  0  0  0  0  0  0
  -25.8128  -16.4223   20.6970 C   0  0  0  0  0  0  0  0  0  0  0  0
  -28.4502  -17.7687   19.3728 C   0  0  0  0  0  0  0  0  0  0  0  0
  -24.6296  -24.0232   24.5329 C   0  0  0  0  0  0  0  0  0  0  0  0
  -30.2130  -20.6054   18.6711 C   0  0  0  0  0  0  0  0  0  0  0  0
  -23.8527  -30.8248   23.5307 C   0  0  0  0  0  0  0  0  0  0  0  0
  -25.4520  -11.3434   20.3329 C   0  0  0  0  0  0  0  0  0  0  0  0
  -24.7876  -18.1864   19.2162 C   0  0  0  0  0  0  0  0  0  0  0  0
  -27.0253  -19.2650   20.8207 C   0  0  0  0  0  0  0  0  0  0  0  0
  -26.5911  -12.3495   20.4764 C   0  0  0  0  0  0  0  0  0  0  0  0
  -26.0341  -30.7512   20.5425 C   0  0  0  0  0  0  0  0  0  0  0  0
  -26.2942  -13.3350   21.6022 C   0  0  0  0  0  0  0  0  0  0  0  0
  -25.6377  -29.4406   19.8653 C   0  0  0  0  0  0  0  0  0  0  0  0
  -24.8793  -31.3478   21.3414 C   0  0  0  0  0  0  0  0  0  0  0  0
  -23.9056  -29.0928   21.6709 C   0  0  0  0  0  0  0  0  0  0  0  0
  -25.0244  -14.1427   21.3078 C   0  0  1  0  0  0  0  0  0  0  0  0
  -26.0236  -17.3506   19.5345 C   0  0  1  0  0  0  0  0  0  0  0  0
  -25.0640  -28.4510   20.8928 C   0  0  1  0  0  0  0  0  0  0  0  0
  -32.3508  -21.3851   17.6132 C   0  0  0  0  0  0  0  0  0  0  0  0
  -29.9995  -16.8592   21.8391 C   0  0  0  0  0  0  0  0  0  0  0  0
  -31.8245  -18.4464   21.1921 C   0  0  0  0  0  0  0  0  0  0  0  0
  -31.2164  -16.5623   19.6745 C   0  0  0  0  0  0  0  0  0  0  0  0
  -22.8248  -29.9852   25.5972 C   0  0  0  0  0  0  0  0  0  0  0  0
  -28.7631  -22.1812   16.6282 C   0  0  0  0  0  0  0  0  0  0  0  0
  -25.5930  -25.5394   26.2529 C   0  0  0  0  0  0  0  0  0  0  0  0
  -25.0335  -22.9094   23.5905 C   0  0  0  0  0  0  0  0  0  1  0  0
  -29.6429  -18.5281   19.9017 C   0  0  1  0  0  0  0  0  0  0  0  0
  -30.8752  -21.0898   17.3939 C   0  0  2  0  0  0  0  0  0  0  0  0
  -28.7382  -28.9808   24.4249 C   0  0  0  0  0  0  0  0  0  0  0  0
  -30.6442  -17.6083   20.6558 C   0  0  0  0  0  0  0  0  0  0  0  0
  -23.3800  -26.9900   19.8394 N   0  0  0  0  0  0  0  0  0  0  0  0
  -24.6474  -27.1358   20.2619 N   0  0  0  0  0  0  0  0  0  0  0  0
  -27.1947  -18.1710   19.8501 N   0  0  0  0  0  0  0  0  0  0  0  0
  -24.3042  -30.3757   22.2726 N   0  0  0  0  0  0  0  0  0  0  0  0
  -26.7256  -26.0110   20.4242 N   0  0  0  0  0  0  0  0  0  0  0  0
  -24.0381  -22.9568   18.4632 N   0  0  0  0  0  0  0  0  0  0  0  0
  -25.3017  -15.1875   20.3454 N   0  0  0  0  0  0  0  0  0  0  0  0
  -25.7061  -24.4805   25.2768 N   0  0  0  0  0  0  0  0  0  0  0  0
  -30.2194  -19.2294   18.7596 N   0  0  0  0  0  0  0  0  0  0  0  0
  -23.8666  -29.8835   24.5776 N   0  0  0  0  0  0  0  0  0  0  0  0
  -30.2142  -22.3336   16.9072 N   0  3  0  0  0  0  0  0  0  0  0  0
  -26.1598  -23.3422   19.2434 O   0  0  0  0  0  0  0  0  0  0  0  0
  -26.0944  -16.7979   21.8289 O   0  0  0  0  0  0  0  0  0  0  0  0
  -28.6254  -16.8571   18.5605 O   0  0  0  0  0  0  0  0  0  0  0  0
  -23.4793  -24.4466   24.6066 O   0  0  0  0  0  0  0  0  0  0  0  0
  -29.7408  -21.3713   19.5084 O   0  0  0  0  0  0  0  0  0  0  0  0
  -23.4143  -31.9695   23.6982 O   0  0  0  0  0  0  0  0  0  0  0  0
  -18.6617  -23.6442   17.1761 O   0  0  0  0  0  0  0  0  0  0  0  0
  -23.9067  -22.4420   22.8502 O   0  0  0  0  0  0  0  0  0  1  0  0
  -17.2491  -18.5081   18.6006 F   0  0  0  0  0  0  0  0  0  0  0  0
  -16.2634  -23.1355   18.4536 F   0  0  0  0  0  0  0  0  0  0  0  0
  -29.6893  -28.0460   24.7208 F   0  0  0  0  0  0  0  0  0  0  0  0
  -28.9151  -29.2614   23.0998 F   0  0  0  0  0  0  0  0  0  0  0  0
  -29.1154  -30.1103   25.0918 F   0  0  0  0  0  0  0  0  0  0  0  0
  1  2  1  0  0  0  0
  1  5  2  0  0  0  0
  2  6  2  0  0  0  0
  3  8  2  0  0  0  0
  3 18  1  0  0  0  0
  4  9  1  0  0  0  0
  4 18  2  0  0  0  0
  5 20  1  0  0  0  0
  6 22  1  0  0  0  0
  7 10  2  0  0  0  0
  7 21  1  0  0  0  0
  8 27  1  0  0  0  0
  9 27  2  0  0  0  0
 10 28  1  0  0  0  0
 11 12  2  0  0  0  0
 11 29  1  0  0  0  0
 12 30  1  0  0  0  0
 13 23  1  0  0  0  0
 13 28  2  0  0  0  0
 14 24  2  0  0  0  0
 14 25  1  0  0  0  0
 15 24  1  0  0  0  0
 15 26  2  0  0  0  0
 16 25  2  0  0  0  0
 16 26  1  0  0  0  0
 17 30  2  0  0  0  0
 17 31  1  0  0  0  0
 18 32  1  0  0  0  0
 19 32  1  0  0  0  0
 19 33  2  0  0  0  0
 19 34  1  0  0  0  0
 20 22  2  0  0  0  0
 20 40  1  0  0  0  0
 21 23  2  0  0  0  0
 21 41  1  0  0  0  0
 22 49  1  0  0  0  0
 23 42  1  0  0  0  0
 24 58  1  0  0  0  0
 25 62  1  0  0  0  0
 26 73  1  0  0  0  0
 27 81  1  0  0  0  0
 28 82  1  0  0  0  0
 29 31  2  0  0  0  0
 29 81  1  0  0  0  0
 30 83  1  0  0  0  0
 31 84  1  0  0  0  0
 32 64  2  0  0  0  0
 33 65  1  0  0  0  0
 33 68  1  0  0  0  0
 34 69  1  0  0  0  0
 34 75  2  0  0  0  0
 35 50  1  0  0  0  0
 35 70  1  0  0  0  0
 35 76  2  0  0  0  0
 36 60  1  0  0  0  0
 36 66  1  0  0  0  0
 36 77  2  0  0  0  0
 37 59  1  0  0  0  0
 37 71  1  0  0  0  0
 37 78  2  0  0  0  0
 38 61  1  0  0  0  0
 38 72  1  0  0  0  0
 38 79  2  0  0  0  0
 39 67  1  0  0  0  0
 39 73  1  0  0  0  0
 39 80  2  0  0  0  0
 40 43  1  0  0  0  0
 41 50  1  0  0  0  0
 42 66  1  0  0  0  0
 43 45  1  0  0  0  0
 44 46  1  0  0  0  0
 44 47  1  0  0  0  0
 45 49  1  0  0  0  0
 46 51  1  0  0  0  0
 47 67  1  0  0  0  0
 48 51  1  0  0  0  0
 48 67  1  0  0  0  0
 49 70  1  0  0  0  0
 50 66  1  0  0  0  0
 51 65  1  0  0  0  0
 52 61  1  0  0  0  0
 53 63  1  0  0  0  0
 54 63  1  0  0  0  0
 55 63  1  0  0  0  0
 56 73  1  0  0  0  0
 57 74  1  0  0  0  0
 58 71  1  0  0  0  0
 59 82  1  0  0  0  0
 60 63  1  0  0  0  0
 60 72  1  0  0  0  0
 61 74  1  0  0  0  0
 62 85  1  0  0  0  0
 62 86  1  0  0  0  0
 62 87  1  0  0  0  0
 64 65  1  0  0  0  0
M  CHG  1  74   1
M  ISO  4  39 100  59 101  73 100  82 101
M  END
> <Batch ID>
0004

> <Smiles>
CNC(C)C(=O)NC(C(=O)N1Cc2cc([101O:1][101CH2:1]C(=O)NCc3cc([100N:0](C)[100C:0](=O)N4CCCC(n5nc(-c6ccc(Oc7ccc(F)cc7F)cc6)c(C(N)=O)c5N)C4)cc(C(F)(F)F)c3)ccc2CC1C(=O)NC1CCCc2ccccc21)C(C)(C)C

> <Shape>
0.169

> <Color>
0.082

> <Negative vol penalty>
0.000

$$$$

  -OEChem-04052315243D

 84 92  0     1  0  0  0  0  0999 V2000
  -25.9171  -37.3771   17.7985 C   0  0  0  0  0  0  0  0  0  0  0  0
  -26.6310  -36.1844   17.8551 C   0  0  0  0  0  0  0  0  0  0  0  0
  -24.5964  -10.4893   23.0488 C   0  0  0  0  0  0  0  0  0  0  0  0
  -24.5302  -12.2281   24.7249 C   0  0  0  0  0  0  0  0  0  0  0  0
  -24.9925  -37.6828   18.7963 C   0  0  0  0  0  0  0  0  0  0  0  0
  -26.4215  -35.2971   18.9102 C   0  0  0  0  0  0  0  0  0  0  0  0
  -26.6134  -29.1806   18.6702 C   0  0  0  0  0  0  0  0  0  0  0  0
  -29.6852  -20.5104   20.5071 C   0  0  0  0  0  0  0  0  0  0  0  0
  -24.2110   -9.5514   24.0065 C   0  0  0  0  0  0  0  0  0  0  0  0
  -24.1448  -11.2902   25.6827 C   0  0  0  0  0  0  0  0  0  0  0  0
  -27.6065  -28.2596   19.0009 C   0  0  0  0  0  0  0  0  0  0  0  0
  -29.6616  -21.9037   20.5682 C   0  0  0  0  0  0  0  0  0  0  0  0
  -21.3564   -8.5866   25.5406 C   0  0  0  0  0  0  0  0  0  0  0  0
  -20.3607   -7.6745   25.1908 C   0  0  0  0  0  0  0  0  0  0  0  0
  -26.5988  -27.9615   21.1722 C   0  0  0  0  0  0  0  0  0  0  0  0
  -27.2546  -21.8720   20.3622 C   0  0  0  0  0  0  0  0  0  0  0  0
  -21.8953   -5.8496   25.5809 C   0  0  0  0  0  0  0  0  0  0  0  0
  -24.7561  -11.8277   23.4080 C   0  0  0  0  0  0  0  0  0  0  0  0
  -24.3122  -13.5630   21.5915 C   0  0  0  0  0  0  0  0  0  0  0  0
  -24.7646  -36.7944   19.8591 C   0  0  0  0  0  0  0  0  0  0  0  0
  -25.6101  -29.5076   19.5937 C   0  0  0  0  0  0  0  0  0  0  0  0
  -25.4940  -35.5918   19.9239 C   0  0  0  0  0  0  0  0  0  0  0  0
  -25.5926  -28.8850   20.8499 C   0  0  0  0  0  0  0  0  0  0  0  0
  -27.2782  -20.4787   20.3010 C   0  0  0  0  0  0  0  0  0  0  0  0
  -28.4935  -19.7979   20.3734 C   0  0  0  0  0  0  0  0  0  0  0  0
  -23.9851   -9.9518   25.3235 C   0  0  0  0  0  0  0  0  0  0  0  0
  -27.6010  -27.6521   20.2530 C   0  0  0  0  0  0  0  0  0  0  0  0
  -28.4463  -22.5845   20.4958 C   0  0  0  0  0  0  0  0  0  0  0  0
  -22.6216   -8.1302   25.9105 C   0  0  0  0  0  0  0  0  0  0  0  0
  -20.6301   -6.3061   25.2110 C   0  0  0  0  0  0  0  0  0  0  0  0
  -22.8910   -6.7617   25.9307 C   0  0  0  0  0  0  0  0  0  0  0  0
  -25.1548  -12.7970   22.4192 C   0  0  0  0  0  0  0  0  0  0  0  0
  -25.1714  -14.3240   20.8371 C   0  0  0  0  0  0  0  0  0  0  0  0
  -22.8808  -13.5847   21.5118 C   0  0  0  0  0  0  0  0  0  0  0  0
  -24.7079  -32.1704   21.0767 C   0  0  0  0  0  0  0  0  0  0  0  0
  -22.2758  -30.2982   22.1265 C   0  0  0  0  0  0  0  0  0  0  0  0
  -21.1206  -27.1594   22.8047 C   0  0  0  0  0  0  0  0  0  0  0  0
  -29.6706  -17.5706   20.3683 C   0  0  0  0  0  0  0  0  0  0  0  0
  -23.7895  -37.1899   20.9395 C   0  0  0  0  0  0  0  0  0  0  0  0
  -24.5306  -30.4831   19.2119 C   0  0  0  0  0  0  0  0  0  0  0  0
  -24.5259  -29.1864   21.8696 C   0  0  0  0  0  0  0  0  0  0  0  0
  -23.3545  -36.0242   21.8239 C   0  0  0  0  0  0  0  0  0  0  0  0
  -30.1956  -14.0500   20.2856 C   0  0  0  0  0  0  0  0  0  0  0  0
  -24.5638  -35.1997   22.2534 C   0  0  0  0  0  0  0  0  0  0  0  0
  -28.8616  -13.4732   20.7652 C   0  0  0  0  0  0  0  0  0  0  0  0
  -30.5523  -15.3408   21.0206 C   0  0  0  0  0  0  0  0  0  0  0  0
  -28.1757  -15.7978   21.4811 C   0  0  0  0  0  0  0  0  0  0  0  0
  -25.2768  -34.5924   21.0393 C   0  0  1  0  0  0  0  0  0  0  0  0
  -23.8523  -31.1257   20.4178 C   0  0  1  0  0  0  0  0  0  0  0  0
  -27.7423  -14.5320   20.7238 C   0  0  2  0  0  0  0  0  0  0  0  0
  -19.1076  -25.9494   23.6885 C   0  0  0  0  0  0  0  0  0  0  0  0
  -23.0174  -31.1415   24.9635 C   0  0  0  0  0  0  0  0  0  0  0  0
  -21.6509  -29.2247   25.8159 C   0  0  0  0  0  0  0  0  0  0  0  0
  -20.5594  -31.0495   24.5115 C   0  0  0  0  0  0  0  0  0  0  0  0
  -20.7517  -25.6805   20.2679 C   0  0  0  0  0  0  0  0  0  0  0  0
  -29.1304  -25.9882   19.5125 C   0  0  0  0  0  0  0  0  0  1  0  0
  -29.5619  -24.6362   20.0469 C   0  0  0  0  0  0  0  0  0  0  0  0
  -22.0572  -29.3984   23.3187 C   0  0  1  0  0  0  0  0  0  0  0  0
  -19.8182  -26.4663   22.4473 C   0  0  2  0  0  0  0  0  0  0  0  0
  -25.9862  -19.7418   20.1575 C   0  0  0  0  0  0  0  0  0  0  0  0
  -21.8426  -30.1991   24.6341 C   0  0  0  0  0  0  0  0  0  0  0  0
  -26.4499  -13.0483   22.2103 N   0  0  0  0  0  0  0  0  0  0  0  0
  -26.4275  -13.9807   21.2427 N   0  0  0  0  0  0  0  0  0  0  0  0
  -23.4959  -30.1516   21.4515 N   0  0  0  0  0  0  0  0  0  0  0  0
  -29.4472  -16.2980   20.9353 N   0  0  0  0  0  0  0  0  0  0  0  0
  -24.9674  -15.2466   19.8730 N   0  0  0  0  0  0  0  0  0  0  0  0
  -22.1515  -12.7393   22.3590 N   0  0  0  0  0  0  0  0  0  0  0  0
  -28.5386  -18.3830   20.3110 N   0  0  0  0  0  0  0  0  0  0  0  0
  -24.5512  -33.4390   20.5518 N   0  0  0  0  0  0  0  0  0  0  0  0
  -20.9483  -28.5177   22.9676 N   0  0  0  0  0  0  0  0  0  0  0  0
  -20.0773  -25.3131   21.5395 N   0  3  0  0  0  0  0  0  0  0  0  0
  -22.2671  -14.3198   20.7015 O   0  0  0  0  0  0  0  0  0  0  0  0
  -25.4539  -31.8496   21.9945 O   0  0  0  0  0  0  0  0  0  0  0  0
  -21.3934  -31.0967   21.8017 O   0  0  0  0  0  0  0  0  0  0  0  0
  -22.1837  -26.5556   22.9308 O   0  0  0  0  0  0  0  0  0  0  0  0
  -30.7778  -17.9043   19.9386 O   0  0  0  0  0  0  0  0  0  0  0  0
  -23.6088   -9.0369   26.2583 O   0  0  0  0  0  0  0  0  0  0  0  0
  -28.5695  -26.7533   20.5785 O   0  0  0  0  0  0  0  0  0  1  0  0
  -28.4231  -23.9530   20.5565 O   0  0  0  0  0  0  0  0  0  0  0  0
  -19.6734   -5.4303   24.8765 F   0  0  0  0  0  0  0  0  0  0  0  0
  -24.1041   -6.3172   26.2863 F   0  0  0  0  0  0  0  0  0  0  0  0
  -24.8955  -20.5605   20.1018 F   0  0  0  0  0  0  0  0  0  0  0  0
  -25.9185  -18.9772   19.0291 F   0  0  0  0  0  0  0  0  0  0  0  0
  -25.7536  -18.8884   21.1956 F   0  0  0  0  0  0  0  0  0  0  0  0
  1  2  1  0  0  0  0
  1  5  2  0  0  0  0
  2  6  2  0  0  0  0
  3  9  2  0  0  0  0
  3 18  1  0  0  0  0
  4 10  1  0  0  0  0
  4 18  2  0  0  0  0
  5 20  1  0  0  0  0
  6 22  1  0  0  0  0
  7 11  2  0  0  0  0
  7 21  1  0  0  0  0
  8 12  2  0  0  0  0
  8 25  1  0  0  0  0
  9 26  1  0  0  0  0
 10 26  2  0  0  0  0
 11 27  1  0  0  0  0
 12 28  1  0  0  0  0
 13 14  2  0  0  0  0
 13 29  1  0  0  0  0
 14 30  1  0  0  0  0
 15 23  1  0  0  0  0
 15 27  2  0  0  0  0
 16 24  1  0  0  0  0
 16 28  2  0  0  0  0
 17 30  2  0  0  0  0
 17 31  1  0  0  0  0
 18 32  1  0  0  0  0
 19 32  1  0  0  0  0
 19 33  2  0  0  0  0
 19 34  1  0  0  0  0
 20 22  2  0  0  0  0
 20 39  1  0  0  0  0
 21 23  2  0  0  0  0
 21 40  1  0  0  0  0
 22 48  1  0  0  0  0
 23 41  1  0  0  0  0
 24 25  2  0  0  0  0
 24 60  1  0  0  0  0
 25 68  1  0  0  0  0
 26 77  1  0  0  0  0
 27 78  1  0  0  0  0
 28 79  1  0  0  0  0
 29 31  2  0  0  0  0
 29 77  1  0  0  0  0
 30 80  1  0  0  0  0
 31 81  1  0  0  0  0
 32 62  2  0  0  0  0
 33 63  1  0  0  0  0
 33 66  1  0  0  0  0
 34 67  1  0  0  0  0
 34 72  2  0  0  0  0
 35 49  1  0  0  0  0
 35 69  1  0  0  0  0
 35 73  2  0  0  0  0
 36 58  1  0  0  0  0
 36 64  1  0  0  0  0
 36 74  2  0  0  0  0
 37 59  1  0  0  0  0
 37 70  1  0  0  0  0
 37 75  2  0  0  0  0
 38 65  1  0  0  0  0
 38 68  1  0  0  0  0
 38 76  2  0  0  0  0
 39 42  1  0  0  0  0
 40 49  1  0  0  0  0
 41 64  1  0  0  0  0
 42 44  1  0  0  0  0
 43 45  1  0  0  0  0
 43 46  1  0  0  0  0
 44 48  1  0  0  0  0
 45 50  1  0  0  0  0
 46 65  1  0  0  0  0
 47 50  1  0  0  0  0
 47 65  1  0  0  0  0
 48 69  1  0  0  0  0
 49 64  1  0  0  0  0
 50 63  1  0  0  0  0
 51 59  1  0  0  0  0
 52 61  1  0  0  0  0
 53 61  1  0  0  0  0
 54 61  1  0  0  0  0
 55 71  1  0  0  0  0
 56 57  1  0  0  0  0
 56 78  1  0  0  0  0
 57 79  1  0  0  0  0
 58 61  1  0  0  0  0
 58 70  1  0  0  0  0
 59 71  1  0  0  0  0
 60 82  1  0  0  0  0
 60 83  1  0  0  0  0
 60 84  1  0  0  0  0
 62 63  1  0  0  0  0
M  CHG  1  71   1
M  ISO  4  38 100  56 101  68 100  78 101
M  END
> <Batch ID>
0004

> <Smiles>
CNC(C)C(=O)NC(C(=O)N1Cc2cc([101O:1][101CH2:1]COc3ccc([100NH:0][100C:0](=O)N4CCCC(n5nc(-c6ccc(Oc7ccc(F)cc7F)cc6)c(C(N)=O)c5N)C4)c(C(F)(F)F)c3)ccc2CC1C(=O)NC1CCCc2ccccc21)C(C)(C)C

> <Shape>
0.274

> <Color>
0.132

> <Negative vol penalty>
0.000

$$$$

  -OEChem-04052315243D

 92100  0     1  0  0  0  0  0999 V2000
  -32.2425  -14.9548   19.6218 C   0  0  0  0  0  0  0  0  0  0  0  0
  -31.2745  -15.9474   19.7366 C   0  0  0  0  0  0  0  0  0  0  0  0
  -29.7903  -21.2055   19.7437 C   0  0  0  0  0  0  0  0  0  0  0  0
  -27.8857  -22.1027   18.5587 C   0  0  0  0  0  0  0  0  0  0  0  0
  -31.8599  -13.6180   19.5197 C   0  0  0  0  0  0  0  0  0  0  0  0
  -29.9231  -15.6037   19.7482 C   0  0  0  0  0  0  0  0  0  0  0  0
  -27.3270  -18.0519   23.3415 C   0  0  0  0  0  0  0  0  0  0  0  0
  -25.2188  -29.6721   19.8839 C   0  0  0  0  0  0  0  0  0  0  0  0
  -29.1694  -19.9577   19.7971 C   0  0  0  0  0  0  0  0  0  0  0  0
  -27.2647  -20.8548   18.6120 C   0  0  0  0  0  0  0  0  0  0  0  0
  -26.9803  -19.3777   23.0851 C   0  0  0  0  0  0  0  0  0  0  0  0
  -23.9574  -30.2672   19.8695 C   0  0  0  0  0  0  0  0  0  0  0  0
  -25.3321  -17.8150   18.1189 C   0  0  0  0  0  0  0  0  0  0  0  0
  -24.7245  -17.3419   16.9559 C   0  0  0  0  0  0  0  0  0  0  0  0
  -24.7550  -18.6718   22.4775 C   0  0  0  0  0  0  0  0  0  0  0  0
  -25.6371  -30.6115   22.0702 C   0  0  0  0  0  0  0  0  0  0  0  0
  -26.8495  -17.4303   15.8098 C   0  0  0  0  0  0  0  0  0  0  0  0
  -29.1485  -22.2781   19.1245 C   0  0  0  0  0  0  0  0  0  0  0  0
  -30.6440  -24.0496   18.0603 C   0  0  0  0  0  0  0  0  0  0  0  0
  -30.5034  -13.2570   19.5398 C   0  0  0  0  0  0  0  0  0  0  0  0
  -26.3920  -17.0232   23.1571 C   0  0  0  0  0  0  0  0  0  0  0  0
  -29.5219  -14.2609   19.6449 C   0  0  0  0  0  0  0  0  0  0  0  0
  -25.0916  -17.3340   22.7347 C   0  0  0  0  0  0  0  0  0  0  0  0
  -26.0587  -29.8442   20.9843 C   0  0  0  0  0  0  0  0  0  0  0  0
  -27.9065  -19.7823   19.2313 C   0  0  0  0  0  0  0  0  0  0  0  0
  -25.6950  -19.6875   22.6502 C   0  0  0  0  0  0  0  0  0  0  0  0
  -26.6985  -18.0959   18.1273 C   0  0  0  0  0  0  0  0  0  0  0  0
  -23.5358  -31.0345   20.9554 C   0  0  0  0  0  0  0  0  0  0  0  0
  -25.4832  -17.1495   15.8014 C   0  0  0  0  0  0  0  0  0  0  0  0
  -24.3757  -31.2066   22.0558 C   0  0  0  0  0  0  0  0  0  0  0  0
  -27.4571  -17.9034   16.9728 C   0  0  0  0  0  0  0  0  0  0  0  0
  -29.7892  -23.5675   19.0696 C   0  0  0  0  0  0  0  0  0  0  0  0
  -30.9825  -25.3153   18.4727 C   0  0  0  0  0  0  0  0  0  0  0  0
  -31.0919  -23.4106   16.8575 C   0  0  0  0  0  0  0  0  0  0  0  0
  -26.2172  -14.4597   21.2858 C   0  0  0  0  0  0  0  0  0  0  0  0
  -23.5577  -13.8435   23.0377 C   0  0  0  0  0  0  0  0  0  0  0  0
  -19.0870  -29.5477   23.0418 C   0  0  0  0  0  0  0  0  0  0  0  0
  -21.0355  -15.0471   24.9966 C   0  0  0  0  0  0  0  0  0  0  0  0
  -28.2961  -29.3106   22.0118 C   0  0  0  0  0  0  0  0  0  0  0  0
  -30.1368  -11.8029   19.3790 C   0  0  0  0  0  0  0  0  0  0  0  0
  -26.7738  -15.6010   23.4638 C   0  0  0  0  0  0  0  0  0  0  0  0
  -24.0448  -16.2686   22.5408 C   0  0  0  0  0  0  0  0  0  0  0  0
  -28.6963  -11.4904   19.7762 C   0  0  0  0  0  0  0  0  0  0  0  0
  -31.5512  -27.9336   22.4420 C   0  0  0  0  0  0  0  0  0  0  0  0
  -27.7415  -12.5143   19.1706 C   0  0  0  0  0  0  0  0  0  0  0  0
  -31.5486  -26.7050   21.5295 C   0  0  0  0  0  0  0  0  0  0  0  0
  -30.1948  -28.1451   23.1123 C   0  0  0  0  0  0  0  0  0  0  0  0
  -29.0466  -26.9611   21.2823 C   0  0  0  0  0  0  0  0  0  0  0  0
  -28.0468  -13.9258   19.6862 C   0  0  1  0  0  0  0  0  0  0  0  0
  -25.8954  -14.5790   22.7486 C   0  0  1  0  0  0  0  0  0  0  0  0
  -30.3722  -26.7446   20.5344 C   0  0  2  0  0  0  0  0  0  0  0  0
  -18.9914  -14.3080   26.2507 C   0  0  0  0  0  0  0  0  0  0  0  0
  -22.0301  -13.6122   20.4066 C   0  0  0  0  0  0  0  0  0  0  0  0
  -19.9001  -13.8268   21.7049 C   0  0  0  0  0  0  0  0  0  0  0  0
  -21.4226  -11.8948   22.1201 C   0  0  0  0  0  0  0  0  0  0  0  0
  -22.1509  -15.9574   27.5824 C   0  0  0  0  0  0  0  0  0  0  0  0
  -18.9273  -30.9537   22.4880 C   0  0  0  0  0  0  0  0  0  0  0  0
  -19.9721  -31.3217   21.4391 C   0  0  0  0  0  0  0  0  0  0  0  0
  -22.2237  -24.7766   22.1951 C   0  0  0  0  0  0  0  0  0  0  0  0
  -20.7801  -25.2359   22.4110 C   0  0  0  0  0  0  0  0  0  0  0  0
  -22.3756  -23.2789   22.4708 C   0  0  0  0  0  0  0  0  0  0  0  0
  -20.5756  -26.7319   22.1613 C   0  0  0  0  0  0  0  0  0  0  0  0
  -23.8218  -22.8239   22.2880 C   0  0  0  0  0  0  0  0  0  0  0  0
  -19.1243  -27.1760   22.2995 C   0  0  0  0  0  0  0  0  0  0  0  0
  -21.3969  -31.2406   21.9744 C   0  0  0  0  0  0  0  0  0  0  0  0
  -23.9892  -21.3440   22.6020 C   0  0  0  0  0  0  0  0  0  1  0  0
  -22.0947  -14.1969   22.9206 C   0  0  1  0  0  0  0  0  0  0  0  0
  -20.4858  -14.5783   26.3317 C   0  0  2  0  0  0  0  0  0  0  0  0
  -21.3819  -13.4028   21.7897 C   0  0  0  0  0  0  0  0  0  0  0  0
  -29.5967  -24.4544   20.0495 N   0  0  0  0  0  0  0  0  0  0  0  0
  -30.3354  -25.5066   19.6579 N   0  0  0  0  0  0  0  0  0  0  0  0
  -24.4684  -14.8924   22.8477 N   0  0  0  0  0  0  0  0  0  0  0  0
  -29.1293  -28.1761   22.1080 N   0  0  0  0  0  0  0  0  0  0  0  0
  -31.7677  -26.2719   17.9336 N   0  0  0  0  0  0  0  0  0  0  0  0
  -30.6479  -22.1090   16.5872 N   0  0  0  0  0  0  0  0  0  0  0  0
  -27.3401  -29.2397   20.9990 N   0  0  0  0  0  0  0  0  0  0  0  0
  -27.5253  -14.0986   21.0251 N   0  0  0  0  0  0  0  0  0  0  0  0
  -18.9846  -28.5837   22.0442 N   0  0  0  0  0  0  0  0  0  0  0  0
  -21.5189  -13.9963   24.2459 N   0  0  0  0  0  0  0  0  0  0  0  0
  -20.7204  -15.6112   27.3800 N   0  3  0  0  0  0  0  0  0  0  0  0
  -31.8761  -23.9709   16.0546 O   0  0  0  0  0  0  0  0  0  0  0  0
  -25.3431  -14.6777   20.4551 O   0  0  0  0  0  0  0  0  0  0  0  0
  -23.8803  -12.6812   23.2957 O   0  0  0  0  0  0  0  0  0  0  0  0
  -19.3035  -29.3104   24.2270 O   0  0  0  0  0  0  0  0  0  0  0  0
  -21.0328  -16.2269   24.6523 O   0  0  0  0  0  0  0  0  0  0  0  0
  -28.4389  -30.2856   22.7541 O   0  0  0  0  0  0  0  0  0  0  0  0
  -27.3004  -18.5647   19.2830 O   0  0  0  0  0  0  0  0  0  0  0  0
  -25.3541  -20.9807   22.3985 O   0  0  0  0  0  0  0  0  0  1  0  0
  -22.2958  -31.6179   20.9398 O   0  0  0  0  0  0  0  0  0  0  0  0
  -24.8999  -16.6937   14.6851 F   0  0  0  0  0  0  0  0  0  0  0  0
  -23.9757  -31.9416   23.1024 F   0  0  0  0  0  0  0  0  0  0  0  0
  -28.7704  -18.1703   16.9751 F   0  0  0  0  0  0  0  0  0  0  0  0
  1  2  1  0  0  0  0
  1  5  2  0  0  0  0
  2  6  2  0  0  0  0
  3  9  2  0  0  0  0
  3 18  1  0  0  0  0
  4 10  1  0  0  0  0
  4 18  2  0  0  0  0
  5 20  1  0  0  0  0
  6 22  1  0  0  0  0
  7 11  2  0  0  0  0
  7 21  1  0  0  0  0
  8 12  2  0  0  0  0
  8 24  1  0  0  0  0
  9 25  1  0  0  0  0
 10 25  2  0  0  0  0
 11 26  1  0  0  0  0
 12 28  1  0  0  0  0
 13 14  2  0  0  0  0
 13 27  1  0  0  0  0
 14 29  1  0  0  0  0
 15 23  1  0  0  0  0
 15 26  2  0  0  0  0
 16 24  2  0  0  0  0
 16 30  1  0  0  0  0
 17 29  2  0  0  0  0
 17 31  1  0  0  0  0
 18 32  1  0  0  0  0
 19 32  1  0  0  0  0
 19 33  2  0  0  0  0
 19 34  1  0  0  0  0
 20 22  2  0  0  0  0
 20 40  1  0  0  0  0
 21 23  2  0  0  0  0
 21 41  1  0  0  0  0
 22 49  1  0  0  0  0
 23 42  1  0  0  0  0
 24 76  1  0  0  0  0
 25 87  1  0  0  0  0
 26 88  1  0  0  0  0
 27 31  2  0  0  0  0
 27 87  1  0  0  0  0
 28 30  2  0  0  0  0
 28 89  1  0  0  0  0
 29 90  1  0  0  0  0
 30 91  1  0  0  0  0
 31 92  1  0  0  0  0
 32 70  2  0  0  0  0
 33 71  1  0  0  0  0
 33 74  1  0  0  0  0
 34 75  1  0  0  0  0
 34 81  2  0  0  0  0
 35 50  1  0  0  0  0
 35 77  1  0  0  0  0
 35 82  2  0  0  0  0
 36 67  1  0  0  0  0
 36 72  1  0  0  0  0
 36 83  2  0  0  0  0
 37 57  1  0  0  0  0
 37 78  1  0  0  0  0
 37 84  2  0  0  0  0
 38 68  1  0  0  0  0
 38 79  1  0  0  0  0
 38 85  2  0  0  0  0
 39 73  1  0  0  0  0
 39 76  1  0  0  0  0
 39 86  2  0  0  0  0
 40 43  1  0  0  0  0
 41 50  1  0  0  0  0
 42 72  1  0  0  0  0
 43 45  1  0  0  0  0
 44 46  1  0  0  0  0
 44 47  1  0  0  0  0
 45 49  1  0  0  0  0
 46 51  1  0  0  0  0
 47 73  1  0  0  0  0
 48 51  1  0  0  0  0
 48 73  1  0  0  0  0
 49 77  1  0  0  0  0
 50 72  1  0  0  0  0
 51 71  1  0  0  0  0
 52 68  1  0  0  0  0
 53 69  1  0  0  0  0
 54 69  1  0  0  0  0
 55 69  1  0  0  0  0
 56 80  1  0  0  0  0
 57 58  1  0  0  0  0
 58 65  1  0  0  0  0
 59 60  1  0  0  0  0
 59 61  1  0  0  0  0
 60 62  1  0  0  0  0
 61 63  1  0  0  0  0
 62 64  1  0  0  0  0
 63 66  1  0  0  0  0
 64 78  1  0  0  0  0
 65 89  1  0  0  0  0
 66 88  1  0  0  0  0
 67 69  1  0  0  0  0
 67 79  1  0  0  0  0
 68 80  1  0  0  0  0
 70 71  1  0  0  0  0
M  CHG  1  80   1
M  ISO  4  39 100  66 101  76 100  88 101
M  END
> <Batch ID>
0004

> <Smiles>
CNC(C)C(=O)NC(C(=O)N1Cc2cc([101O:1][101CH2:1]CCCCCCNC(=O)CCCOc3ccc([100NH:0][100C:0](=O)N4CCCC(n5nc(-c6ccc(Oc7ccc(F)cc7F)cc6)c(C(N)=O)c5N)C4)cc3F)ccc2CC1C(=O)NC1CCCc2ccccc21)C(C)(C)C

> <Shape>
0.264

> <Color>
0.050

> <Negative vol penalty>
0.000

$$$$

  -OEChem-04052315243D

 97105  0     1  0  0  0  0  0999 V2000
  -21.5858  -36.5553   17.6901 C   0  0  0  0  0  0  0  0  0  0  0  0
  -22.4497  -35.4658   17.7368 C   0  0  0  0  0  0  0  0  0  0  0  0
  -24.3072   -9.3685   22.2186 C   0  0  0  0  0  0  0  0  0  0  0  0
  -24.2827   -8.8475   19.8596 C   0  0  0  0  0  0  0  0  0  0  0  0
  -28.6507  -15.4332   12.8102 C   0  0  0  0  0  0  0  0  0  0  0  0
  -21.6793  -37.5594   18.6529 C   0  0  0  0  0  0  0  0  0  0  0  0
  -23.4083  -35.3804   18.7459 C   0  0  0  0  0  0  0  0  0  0  0  0
  -23.6654  -30.7564   20.7947 C   0  0  0  0  0  0  0  0  0  0  0  0
  -27.8069  -14.3538   13.0720 C   0  0  0  0  0  0  0  0  0  0  0  0
  -23.1882   -8.5580   22.4093 C   0  0  0  0  0  0  0  0  0  0  0  0
  -23.1636   -8.0369   20.0503 C   0  0  0  0  0  0  0  0  0  0  0  0
  -24.3477  -29.7775   20.0736 C   0  0  0  0  0  0  0  0  0  0  0  0
  -22.5233   -5.2544   22.6870 C   0  0  0  0  0  0  0  0  0  0  0  0
  -22.5343   -4.3792   23.7730 C   0  0  0  0  0  0  0  0  0  0  0  0
  -28.1623  -16.3445   14.9938 C   0  0  0  0  0  0  0  0  0  0  0  0
  -26.2838  -30.1028   21.4754 C   0  0  0  0  0  0  0  0  0  0  0  0
  -20.5673   -5.4619   24.6653 C   0  0  0  0  0  0  0  0  0  0  0  0
  -24.8545   -9.5133   20.9438 C   0  0  0  0  0  0  0  0  0  0  0  0
  -28.8285  -16.4285   13.7712 C   0  0  0  0  0  0  0  0  0  0  0  0
  -27.3620   -9.9646   20.8170 C   0  0  0  0  0  0  0  0  0  0  0  0
  -22.6331  -37.4814   19.6799 C   0  0  0  0  0  0  0  0  0  0  0  0
  -24.2920  -31.4247   21.8565 C   0  0  0  0  0  0  0  0  0  0  0  0
  -23.5155  -36.3851   19.7225 C   0  0  0  0  0  0  0  0  0  0  0  0
  -25.6064  -31.0880   22.2100 C   0  0  0  0  0  0  0  0  0  0  0  0
  -27.1408  -14.2698   14.2946 C   0  0  0  0  0  0  0  0  0  0  0  0
  -27.3185  -15.2651   15.2556 C   0  0  0  0  0  0  0  0  0  0  0  0
  -22.6163   -7.8922   21.3252 C   0  0  0  0  0  0  0  0  0  0  0  0
  -25.6580  -29.4526   20.4120 C   0  0  0  0  0  0  0  0  0  0  0  0
  -21.5344   -6.2334   22.5901 C   0  0  0  0  0  0  0  0  0  0  0  0
  -21.5563   -4.4829   24.7622 C   0  0  0  0  0  0  0  0  0  0  0  0
  -20.5564   -6.3371   23.5793 C   0  0  0  0  0  0  0  0  0  0  0  0
  -26.0101  -10.3508   20.7461 C   0  0  0  0  0  0  0  0  0  0  0  0
  -28.0624  -11.1166   20.5545 C   0  0  0  0  0  0  0  0  0  0  0  0
  -29.7279  -17.5774   13.4917 C   0  0  0  0  0  0  0  0  0  0  0  0
  -27.9336   -8.6795   21.0953 C   0  0  0  0  0  0  0  0  0  0  0  0
  -25.0730  -34.4470   22.4559 C   0  0  0  0  0  0  0  0  0  0  0  0
  -25.9093  -33.2482   25.3517 C   0  0  0  0  0  0  0  0  0  0  0  0
  -27.2144  -23.5801   17.1942 C   0  0  0  0  0  0  0  0  0  0  0  0
  -26.8700  -30.5454   27.2007 C   0  0  0  0  0  0  0  0  0  0  0  0
  -26.7304  -16.1099   17.5549 C   0  0  0  0  0  0  0  0  0  0  0  0
  -22.7274  -38.6146   20.6706 C   0  0  0  0  0  0  0  0  0  0  0  0
  -23.5333  -32.4593   22.6415 C   0  0  0  0  0  0  0  0  0  0  0  0
  -26.3171  -31.7617   23.3544 C   0  0  0  0  0  0  0  0  0  0  0  0
  -23.5234  -38.2626   21.9247 C   0  0  0  0  0  0  0  0  0  0  0  0
  -27.7307  -15.8765   20.9640 C   0  0  0  0  0  0  0  0  0  0  0  0
  -24.8258  -37.5619   21.5511 C   0  0  0  0  0  0  0  0  0  0  0  0
  -27.5318  -14.3967   21.2997 C   0  0  0  0  0  0  0  0  0  0  0  0
  -26.6457  -16.3952   20.0219 C   0  0  0  0  0  0  0  0  0  0  0  0
  -26.2636  -14.1308   19.1299 C   0  0  0  0  0  0  0  0  0  0  0  0
  -24.5522  -36.2443   20.8159 C   0  0  1  0  0  0  0  0  0  0  0  0
  -24.4439  -33.4389   23.3754 C   0  0  1  0  0  0  0  0  0  0  0  0
  -27.3690  -13.5465   20.0244 C   0  0  2  0  0  0  0  0  0  0  0  0
  -26.2423  -13.1028   14.5472 C   0  0  0  0  0  0  0  0  0  0  0  0
  -24.3646  -19.0048   21.8510 C   0  0  0  0  0  0  0  0  0  0  0  0
  -27.5177  -29.8840   29.5332 C   0  0  0  0  0  0  0  0  0  0  0  0
  -28.6479  -34.5333   24.9531 C   0  0  0  0  0  0  0  0  0  0  0  0
  -29.5208  -33.0798   26.7952 C   0  0  0  0  0  0  0  0  0  0  0  0
  -27.7235  -34.7440   27.2674 C   0  0  0  0  0  0  0  0  0  0  0  0
  -24.6075  -28.6498   27.4157 C   0  0  0  0  0  0  0  0  0  0  0  0
  -28.0747  -22.3213   17.1786 C   0  0  0  0  0  0  0  0  0  0  0  0
  -24.3720  -19.8804   20.6081 C   0  0  0  0  0  0  0  0  0  0  0  0
  -28.8547  -22.1186   15.8771 C   0  0  0  0  0  0  0  0  0  0  0  0
  -25.4289  -20.9804   20.7044 C   0  0  0  0  0  0  0  0  0  0  0  0
  -29.6445  -20.8052   15.8666 C   0  0  0  0  0  0  0  0  0  0  0  0
  -25.4107  -21.8791   19.4678 C   0  0  0  0  0  0  0  0  0  0  0  0
  -30.4321  -20.6444   14.5625 C   0  0  0  0  0  0  0  0  0  0  0  0
  -26.4029  -26.1887   19.0479 C   0  0  0  0  0  0  0  0  0  0  0  0
  -31.1839  -19.3188   14.4934 C   0  0  0  0  0  0  0  0  0  0  0  0
  -26.4896  -22.9526   19.5463 C   0  0  0  0  0  0  0  0  0  0  0  0
  -25.6476  -25.0013   18.4661 C   0  0  0  0  0  0  0  0  0  0  0  0
  -25.5497  -27.4482   19.1366 C   0  0  0  0  0  0  0  0  0  1  0  0
  -27.1689  -32.6629   25.9432 C   0  0  1  0  0  0  0  0  0  0  0  0
  -26.3785  -30.0108   28.5338 C   0  0  2  0  0  0  0  0  0  0  0  0
  -28.2528  -33.7435   26.2169 C   0  0  0  0  0  0  0  0  0  0  0  0
  -25.8584  -11.6468   20.4609 N   0  0  0  0  0  0  0  0  0  0  0  0
  -27.1240  -12.0851   20.3505 N   0  0  0  0  0  0  0  0  0  0  0  0
  -25.5353  -32.7710   24.0875 N   0  0  0  0  0  0  0  0  0  0  0  0
  -26.5517  -15.5431   18.8345 N   0  0  0  0  0  0  0  0  0  0  0  0
  -29.3833  -11.3855   20.4806 N   0  0  0  0  0  0  0  0  0  0  0  0
  -27.0702   -7.6036   21.3427 N   0  0  0  0  0  0  0  0  0  0  0  0
  -26.6512  -15.1970   16.5037 N   0  0  0  0  0  0  0  0  0  0  0  0
  -30.3107  -18.1823   14.5994 N   0  0  0  0  0  0  0  0  0  0  0  0
  -24.1623  -35.2136   21.7541 N   0  0  0  0  0  0  0  0  0  0  0  0
  -26.7558  -31.9176   27.1273 N   0  0  0  0  0  0  0  0  0  0  0  0
  -26.4812  -23.8100   18.3635 N   0  0  0  0  0  0  0  0  0  0  0  0
  -25.7575  -28.6677   28.3560 N   0  3  0  0  0  0  0  0  0  0  0  0
  -29.8932  -17.9413   12.3303 O   0  0  0  0  0  0  0  0  0  0  0  0
  -29.1735   -8.4945   21.1400 O   0  0  0  0  0  0  0  0  0  0  0  0
  -26.2941  -34.5248   22.3893 O   0  0  0  0  0  0  0  0  0  0  0  0
  -25.2766  -34.0924   25.9910 O   0  0  0  0  0  0  0  0  0  0  0  0
  -27.1800  -24.3297   16.2150 O   0  0  0  0  0  0  0  0  0  0  0  0
  -27.3146  -29.8189   26.3147 O   0  0  0  0  0  0  0  0  0  0  0  0
  -26.9655  -17.3116   17.4045 O   0  0  0  0  0  0  0  0  0  0  0  0
  -21.5245   -7.1011   21.5109 O   0  0  0  0  0  0  0  0  0  0  0  0
  -26.3313  -28.4911   19.7044 O   0  0  0  0  0  0  0  0  0  1  0  0
  -21.5660   -3.6413   25.8042 F   0  0  0  0  0  0  0  0  0  0  0  0
  -19.6032   -7.2748   23.4911 F   0  0  0  0  0  0  0  0  0  0  0  0
  1  2  1  0  0  0  0
  1  6  2  0  0  0  0
  2  7  2  0  0  0  0
  3 10  2  0  0  0  0
  3 18  1  0  0  0  0
  4 11  1  0  0  0  0
  4 18  2  0  0  0  0
  5  9  2  0  0  0  0
  5 19  1  0  0  0  0
  6 21  1  0  0  0  0
  7 23  1  0  0  0  0
  8 12  2  0  0  0  0
  8 22  1  0  0  0  0
  9 25  1  0  0  0  0
 10 27  1  0  0  0  0
 11 27  2  0  0  0  0
 12 28  1  0  0  0  0
 13 14  2  0  0  0  0
 13 29  1  0  0  0  0
 14 30  1  0  0  0  0
 15 19  2  0  0  0  0
 15 26  1  0  0  0  0
 16 24  1  0  0  0  0
 16 28  2  0  0  0  0
 17 30  2  0  0  0  0
 17 31  1  0  0  0  0
 18 32  1  0  0  0  0
 19 34  1  0  0  0  0
 20 32  1  0  0  0  0
 20 33  2  0  0  0  0
 20 35  1  0  0  0  0
 21 23  2  0  0  0  0
 21 41  1  0  0  0  0
 22 24  2  0  0  0  0
 22 42  1  0  0  0  0
 23 50  1  0  0  0  0
 24 43  1  0  0  0  0
 25 26  2  0  0  0  0
 25 53  1  0  0  0  0
 26 81  1  0  0  0  0
 27 94  1  0  0  0  0
 28 95  1  0  0  0  0
 29 31  2  0  0  0  0
 29 94  1  0  0  0  0
 30 96  1  0  0  0  0
 31 97  1  0  0  0  0
 32 75  2  0  0  0  0
 33 76  1  0  0  0  0
 33 79  1  0  0  0  0
 34 82  1  0  0  0  0
 34 87  2  0  0  0  0
 35 80  1  0  0  0  0
 35 88  2  0  0  0  0
 36 51  1  0  0  0  0
 36 83  1  0  0  0  0
 36 89  2  0  0  0  0
 37 72  1  0  0  0  0
 37 77  1  0  0  0  0
 37 90  2  0  0  0  0
 38 60  1  0  0  0  0
 38 85  1  0  0  0  0
 38 91  2  0  0  0  0
 39 73  1  0  0  0  0
 39 84  1  0  0  0  0
 39 92  2  0  0  0  0
 40 78  1  0  0  0  0
 40 81  1  0  0  0  0
 40 93  2  0  0  0  0
 41 44  1  0  0  0  0
 42 51  1  0  0  0  0
 43 77  1  0  0  0  0
 44 46  1  0  0  0  0
 45 47  1  0  0  0  0
 45 48  1  0  0  0  0
 46 50  1  0  0  0  0
 47 52  1  0  0  0  0
 48 78  1  0  0  0  0
 49 52  1  0  0  0  0
 49 78  1  0  0  0  0
 50 83  1  0  0  0  0
 51 77  1  0  0  0  0
 52 76  1  0  0  0  0
 54 61  1  0  0  0  0
 55 73  1  0  0  0  0
 56 74  1  0  0  0  0
 57 74  1  0  0  0  0
 58 74  1  0  0  0  0
 59 86  1  0  0  0  0
 60 62  1  0  0  0  0
 61 63  1  0  0  0  0
 62 64  1  0  0  0  0
 63 65  1  0  0  0  0
 64 66  1  0  0  0  0
 65 69  1  0  0  0  0
 66 68  1  0  0  0  0
 67 70  1  0  0  0  0
 67 71  1  0  0  0  0
 68 82  1  0  0  0  0
 69 85  1  0  0  0  0
 70 85  1  0  0  0  0
 71 95  1  0  0  0  0
 72 74  1  0  0  0  0
 72 84  1  0  0  0  0
 73 86  1  0  0  0  0
 75 76  1  0  0  0  0
M  CHG  1  86   1
M  ISO  4  40 100  71 101  81 100  95 101
M  END
> <Batch ID>
0004

> <Smiles>
CCCCCN(CC[101CH2:1][101O:1]c1ccc2c(c1)CN(C(=O)C(NC(=O)C(C)NC)C(C)(C)C)C(C(=O)NC1CCCc3ccccc31)C2)C(=O)CCCCCNC(=O)c1ccc(C)c([100NH:0][100C:0](=O)N2CCCC(n3nc(-c4ccc(Oc5ccc(F)cc5F)cc4)c(C(N)=O)c3N)C2)c1

> <Shape>
0.218

> <Color>
0.094

> <Negative vol penalty>
0.000

$$$$

  -OEChem-04052315243D

 83 91  0     1  0  0  0  0  0999 V2000
  -16.9849  -29.9563   24.6169 C   0  0  0  0  0  0  0  0  0  0  0  0
  -17.5453  -28.8534   23.9805 C   0  0  0  0  0  0  0  0  0  0  0  0
  -24.6031   -8.8517   21.6314 C   0  0  0  0  0  0  0  0  0  0  0  0
  -22.9137   -9.8834   20.2463 C   0  0  0  0  0  0  0  0  0  0  0  0
  -17.4305  -31.2402   24.3055 C   0  0  0  0  0  0  0  0  0  0  0  0
  -18.5508  -29.0338   23.0314 C   0  0  0  0  0  0  0  0  0  0  0  0
  -22.3895  -25.7849   23.6264 C   0  0  0  0  0  0  0  0  0  0  0  0
  -23.8096   -7.7106   21.7493 C   0  0  0  0  0  0  0  0  0  0  0  0
  -22.1202   -8.7423   20.3642 C   0  0  0  0  0  0  0  0  0  0  0  0
  -22.1987  -24.4828   23.1661 C   0  0  0  0  0  0  0  0  0  0  0  0
  -21.1104   -6.7275   23.5304 C   0  0  0  0  0  0  0  0  0  0  0  0
  -20.9741   -6.1621   24.7982 C   0  0  0  0  0  0  0  0  0  0  0  0
  -23.4431  -25.0130   21.1687 C   0  0  0  0  0  0  0  0  0  0  0  0
  -20.8739  -20.3868   20.5834 C   0  0  0  0  0  0  0  0  0  0  0  0
  -21.5968  -18.0853   20.4522 C   0  0  0  0  0  0  0  0  0  0  0  0
  -22.5145  -19.5450   22.1445 C   0  0  0  0  0  0  0  0  0  0  0  0
  -21.9337   -4.1005   23.9819 C   0  0  0  0  0  0  0  0  0  0  0  0
  -24.1551   -9.9381   20.8799 C   0  0  0  0  0  0  0  0  0  0  0  0
  -25.9434  -11.3810   19.7719 C   0  0  0  0  0  0  0  0  0  0  0  0
  -18.4487  -31.4359   23.3591 C   0  0  0  0  0  0  0  0  0  0  0  0
  -23.1004  -26.7155   22.8550 C   0  0  0  0  0  0  0  0  0  0  0  0
  -19.0095  -30.3217   22.7060 C   0  0  0  0  0  0  0  0  0  0  0  0
  -23.6437  -26.3255   21.6226 C   0  0  0  0  0  0  0  0  0  0  0  0
  -20.8090  -19.1330   19.9755 C   0  0  0  0  0  0  0  0  0  0  0  0
  -21.7267  -20.5928   21.6679 C   0  0  0  0  0  0  0  0  0  0  0  0
  -22.4495  -18.2912   21.5367 C   0  0  0  0  0  0  0  0  0  0  0  0
  -22.5682   -7.6559   21.1157 C   0  0  0  0  0  0  0  0  0  0  0  0
  -22.7231  -24.0975   21.9358 C   0  0  0  0  0  0  0  0  0  0  0  0
  -21.6583   -5.9794   22.4883 C   0  0  0  0  0  0  0  0  0  0  0  0
  -21.3857   -4.8486   25.0239 C   0  0  0  0  0  0  0  0  0  0  0  0
  -22.0700   -4.6660   22.7141 C   0  0  0  0  0  0  0  0  0  0  0  0
  -24.9741  -11.1173   20.7581 C   0  0  0  0  0  0  0  0  0  0  0  0
  -26.4343  -12.6221   20.0961 C   0  0  0  0  0  0  0  0  0  0  0  0
  -26.3625  -10.5761   18.6619 C   0  0  0  0  0  0  0  0  0  0  0  0
  -22.3984  -29.4971   21.4862 C   0  0  0  0  0  0  0  0  0  0  0  0
  -25.5741  -29.5297   20.8254 C   0  0  0  0  0  0  0  0  0  0  0  0
  -17.9112  -17.6089   19.5488 C   0  0  0  0  0  0  0  0  0  0  0  0
  -28.4552  -27.7602   20.3620 C   0  0  0  0  0  0  0  0  0  0  0  0
  -24.1482  -17.2627   23.0868 C   0  0  0  0  0  0  0  0  0  0  0  0
  -18.8645  -32.8457   23.0211 C   0  0  0  0  0  0  0  0  0  0  0  0
  -23.3203  -28.1086   23.3778 C   0  0  0  0  0  0  0  0  0  0  0  0
  -24.4319  -27.2808   20.7655 C   0  0  0  0  0  0  0  0  0  0  0  0
  -20.1949  -32.9265   22.2770 C   0  0  0  0  0  0  0  0  0  0  0  0
  -27.1464  -15.5027   23.8551 C   0  0  0  0  0  0  0  0  0  0  0  0
  -20.2369  -31.9042   21.1457 C   0  0  0  0  0  0  0  0  0  0  0  0
  -27.0206  -14.2050   23.0535 C   0  0  0  0  0  0  0  0  0  0  0  0
  -25.7985  -15.9591   24.4106 C   0  0  0  0  0  0  0  0  0  0  0  0
  -24.5977  -14.7745   22.6150 C   0  0  0  0  0  0  0  0  0  0  0  0
  -20.1195  -30.4750   21.6890 C   0  0  1  0  0  0  0  0  0  0  0  0
  -23.6200  -29.1200   22.2757 C   0  0  1  0  0  0  0  0  0  0  0  0
  -25.9189  -14.3099   21.9808 C   0  0  2  0  0  0  0  0  0  0  0  0
  -16.4750  -17.7360   19.9356 C   0  0  0  0  0  0  0  0  0  0  0  0
  -30.8816  -28.0599   19.7962 C   0  0  0  0  0  0  0  0  0  0  0  0
  -24.8335  -29.9826   17.9003 C   0  0  0  0  0  0  0  0  0  0  0  0
  -27.1696  -29.3297   17.2802 C   0  0  0  0  0  0  0  0  0  0  0  0
  -26.7747  -31.3375   18.7068 C   0  0  0  0  0  0  0  0  0  0  0  0
  -29.3201  -26.6003   22.9438 C   0  0  0  0  0  0  0  0  0  0  0  0
  -19.8974  -18.9129   18.8159 C   0  0  0  0  0  0  0  0  0  0  0  0
  -21.7963  -21.9415   22.3217 C   0  0  0  0  0  0  0  0  0  1  0  0
  -26.4348  -29.0328   19.6891 C   0  0  1  0  0  0  0  0  0  0  0  0
  -29.8560  -27.9537   20.9140 C   0  0  2  0  0  0  0  0  0  0  0  0
  -26.2867  -29.9030   18.4091 C   0  0  0  0  0  0  0  0  0  0  0  0
  -24.8549  -12.1110   21.6427 N   0  0  0  0  0  0  0  0  0  0  0  0
  -25.7559  -13.0111   21.2135 N   0  0  0  0  0  0  0  0  0  0  0  0
  -24.6144  -28.6336   21.3172 N   0  0  0  0  0  0  0  0  0  0  0  0
  -24.8057  -16.0396   23.3370 N   0  0  0  0  0  0  0  0  0  0  0  0
  -27.3759  -13.4078   19.5316 N   0  0  0  0  0  0  0  0  0  0  0  0
  -25.7544   -9.3273   18.4748 N   0  0  0  0  0  0  0  0  0  0  0  0
  -23.2497  -17.2268   22.0210 N   0  0  0  0  0  0  0  0  0  0  0  0
  -21.3821  -30.0415   22.2479 N   0  0  0  0  0  0  0  0  0  0  0  0
  -18.5172  -18.8082   19.2164 N   0  0  0  0  0  0  0  0  0  0  0  0
  -27.7960  -28.9616   20.2090 N   0  0  0  0  0  0  0  0  0  0  0  0
  -30.2311  -26.8068   21.7886 N   0  3  0  0  0  0  0  0  0  0  0  0
  -27.2616  -10.9460   17.8692 O   0  0  0  0  0  0  0  0  0  0  0  0
  -22.3799  -29.3095   20.2753 O   0  0  0  0  0  0  0  0  0  0  0  0
  -25.7516  -30.6684   21.2654 O   0  0  0  0  0  0  0  0  0  0  0  0
  -18.4418  -16.5043   19.5504 O   0  0  0  0  0  0  0  0  0  0  0  0
  -27.9933  -26.6542   20.0899 O   0  0  0  0  0  0  0  0  0  0  0  0
  -24.3862  -18.2750   23.7506 O   0  0  0  0  0  0  0  0  0  0  0  0
  -21.7937   -6.5425   21.2304 O   0  0  0  0  0  0  0  0  0  0  0  0
  -22.5378  -22.8273   21.4839 O   0  0  0  0  0  0  0  0  0  1  0  0
  -21.2562   -4.3062   26.2418 F   0  0  0  0  0  0  0  0  0  0  0  0
  -22.5981   -3.9428   21.7172 F   0  0  0  0  0  0  0  0  0  0  0  0
  1  2  1  0  0  0  0
  1  5  2  0  0  0  0
  2  6  2  0  0  0  0
  3  8  2  0  0  0  0
  3 18  1  0  0  0  0
  4  9  1  0  0  0  0
  4 18  2  0  0  0  0
  5 20  1  0  0  0  0
  6 22  1  0  0  0  0
  7 10  2  0  0  0  0
  7 21  1  0  0  0  0
  8 27  1  0  0  0  0
  9 27  2  0  0  0  0
 10 28  1  0  0  0  0
 11 12  2  0  0  0  0
 11 29  1  0  0  0  0
 12 30  1  0  0  0  0
 13 23  1  0  0  0  0
 13 28  2  0  0  0  0
 14 24  2  0  0  0  0
 14 25  1  0  0  0  0
 15 24  1  0  0  0  0
 15 26  2  0  0  0  0
 16 25  2  0  0  0  0
 16 26  1  0  0  0  0
 17 30  2  0  0  0  0
 17 31  1  0  0  0  0
 18 32  1  0  0  0  0
 19 32  1  0  0  0  0
 19 33  2  0  0  0  0
 19 34  1  0  0  0  0
 20 22  2  0  0  0  0
 20 40  1  0  0  0  0
 21 23  2  0  0  0  0
 21 41  1  0  0  0  0
 22 49  1  0  0  0  0
 23 42  1  0  0  0  0
 24 58  1  0  0  0  0
 25 59  1  0  0  0  0
 26 69  1  0  0  0  0
 27 80  1  0  0  0  0
 28 81  1  0  0  0  0
 29 31  2  0  0  0  0
 29 80  1  0  0  0  0
 30 82  1  0  0  0  0
 31 83  1  0  0  0  0
 32 63  2  0  0  0  0
 33 64  1  0  0  0  0
 33 67  1  0  0  0  0
 34 68  1  0  0  0  0
 34 74  2  0  0  0  0
 35 50  1  0  0  0  0
 35 70  1  0  0  0  0
 35 75  2  0  0  0  0
 36 60  1  0  0  0  0
 36 65  1  0  0  0  0
 36 76  2  0  0  0  0
 37 52  1  0  0  0  0
 37 71  1  0  0  0  0
 37 77  2  0  0  0  0
 38 61  1  0  0  0  0
 38 72  1  0  0  0  0
 38 78  2  0  0  0  0
 39 66  1  0  0  0  0
 39 69  1  0  0  0  0
 39 79  2  0  0  0  0
 40 43  1  0  0  0  0
 41 50  1  0  0  0  0
 42 65  1  0  0  0  0
 43 45  1  0  0  0  0
 44 46  1  0  0  0  0
 44 47  1  0  0  0  0
 45 49  1  0  0  0  0
 46 51  1  0  0  0  0
 47 66  1  0  0  0  0
 48 51  1  0  0  0  0
 48 66  1  0  0  0  0
 49 70  1  0  0  0  0
 50 65  1  0  0  0  0
 51 64  1  0  0  0  0
 53 61  1  0  0  0  0
 54 62  1  0  0  0  0
 55 62  1  0  0  0  0
 56 62  1  0  0  0  0
 57 73  1  0  0  0  0
 58 71  1  0  0  0  0
 59 81  1  0  0  0  0
 60 62  1  0  0  0  0
 60 72  1  0  0  0  0
 61 73  1  0  0  0  0
 63 64  1  0  0  0  0
M  CHG  1  73   1
M  ISO  4  39 100  59 101  69 100  81 101
M  END
> <Batch ID>
0004

> <Smiles>
CNC(C)C(=O)NC(C(=O)N1Cc2cc([101O:1][101CH2:1]c3cc(CNC(C)=O)cc([100NH:0][100C:0](=O)N4CCCC(n5nc(-c6ccc(Oc7ccc(F)cc7F)cc6)c(C(N)=O)c5N)C4)c3)ccc2CC1C(=O)NC1CCCc2ccccc21)C(C)(C)C

> <Shape>
0.226

> <Color>
0.103

> <Negative vol penalty>
0.000

$$$$

  -OEChem-04052315243D

 83 90  0     1  0  0  0  0  0999 V2000
  -23.5340  -23.7446   17.7340 C   0  0  0  0  0  0  0  0  0  0  0  0
  -24.4469  -22.6961   17.7168 C   0  0  0  0  0  0  0  0  0  0  0  0
  -25.1792  -27.0635   19.8237 C   0  0  0  0  0  0  0  0  0  0  0  0
  -27.1716  -27.9977   20.8208 C   0  0  0  0  0  0  0  0  0  0  0  0
  -22.4377  -23.6951   18.5924 C   0  0  0  0  0  0  0  0  0  0  0  0
  -24.2574  -21.5925   18.5492 C   0  0  0  0  0  0  0  0  0  0  0  0
  -27.3119  -17.7840   17.9414 C   0  0  0  0  0  0  0  0  0  0  0  0
  -24.5181  -28.2779   20.0068 C   0  0  0  0  0  0  0  0  0  0  0  0
  -26.5105  -29.2123   21.0038 C   0  0  0  0  0  0  0  0  0  0  0  0
  -28.6502  -17.8217   18.3302 C   0  0  0  0  0  0  0  0  0  0  0  0
  -23.0144  -29.9381   22.5380 C   0  0  0  0  0  0  0  0  0  0  0  0
  -21.7178  -29.8985   23.0508 C   0  0  0  0  0  0  0  0  0  0  0  0
  -28.1191  -16.4849   20.2667 C   0  0  0  0  0  0  0  0  0  0  0  0
  -20.8951  -30.9822   21.0544 C   0  0  0  0  0  0  0  0  0  0  0  0
  -26.5060  -26.9233   20.2308 C   0  0  0  0  0  0  0  0  0  0  0  0
  -27.9387  -25.2692   18.9198 C   0  0  0  0  0  0  0  0  0  0  0  0
  -22.2422  -22.5956   19.4444 C   0  0  0  0  0  0  0  0  0  0  0  0
  -26.3635  -17.1045   18.7195 C   0  0  0  0  0  0  0  0  0  0  0  0
  -23.1442  -21.5130   19.4054 C   0  0  0  0  0  0  0  0  0  0  0  0
  -26.7698  -16.4379   19.8842 C   0  0  0  0  0  0  0  0  0  0  0  0
  -25.1837  -29.3524   20.5968 C   0  0  0  0  0  0  0  0  0  0  0  0
  -29.0535  -17.1746   19.4945 C   0  0  0  0  0  0  0  0  0  0  0  0
  -23.2513  -30.4998   21.2834 C   0  0  0  0  0  0  0  0  0  0  0  0
  -20.6582  -30.4205   22.3090 C   0  0  0  0  0  0  0  0  0  0  0  0
  -22.1917  -31.0218   20.5416 C   0  0  0  0  0  0  0  0  0  0  0  0
  -27.1893  -25.6688   20.0425 C   0  0  0  0  0  0  0  0  0  0  0  0
  -28.3765  -24.0052   19.2315 C   0  0  0  0  0  0  0  0  0  0  0  0
  -28.2146  -25.9772   17.7040 C   0  0  0  0  0  0  0  0  0  0  0  0
  -33.5877  -20.2064   21.0503 C   0  0  0  0  0  0  0  0  0  0  0  0
  -33.4285  -18.7570   20.7079 C   0  0  0  0  0  0  0  0  0  0  0  0
  -23.7430  -17.9505   20.3072 C   0  0  0  0  0  0  0  0  0  0  0  0
  -23.4480  -14.7504   20.7481 C   0  0  0  0  0  0  0  0  0  0  0  0
  -24.9607  -11.6949   20.8987 C   0  0  0  0  0  0  0  0  0  0  0  0
  -29.3402  -21.1894   24.4271 C   0  0  0  0  0  0  0  0  0  0  0  0
  -21.0343  -22.5903   20.3478 C   0  0  0  0  0  0  0  0  0  0  0  0
  -24.9284  -17.0507   18.2722 C   0  0  0  0  0  0  0  0  0  0  0  0
  -25.7945  -15.6774   20.7438 C   0  0  0  0  0  0  0  0  0  0  0  0
  -21.1579  -21.5985   21.4999 C   0  0  0  0  0  0  0  0  0  0  0  0
  -27.1720  -20.1526   21.8002 C   0  0  0  0  0  0  0  0  0  0  0  0
  -21.5865  -20.2380   20.9708 C   0  0  0  0  0  0  0  0  0  0  0  0
  -26.9982  -21.4127   20.9505 C   0  0  0  0  0  0  0  0  0  0  0  0
  -27.2566  -20.4829   23.2887 C   0  0  0  0  0  0  0  0  0  0  0  0
  -28.1076  -22.7424   22.7945 C   0  0  0  0  0  0  0  0  0  0  0  0
  -22.9751  -20.3163   20.3239 C   0  0  1  0  0  0  0  0  0  0  0  0
  -23.9575  -16.7622   19.4130 C   0  0  1  0  0  0  0  0  0  0  0  0
  -28.0734  -22.4651   21.2818 C   0  0  2  0  0  0  0  0  0  0  0  0
  -24.4657   -9.2700   21.3137 C   0  0  0  0  0  0  0  0  0  0  0  0
  -23.2340  -15.3088   23.7402 C   0  0  0  0  0  0  0  0  0  0  0  0
  -23.6974  -12.8836   24.1551 C   0  0  0  0  0  0  0  0  0  0  0  0
  -21.6581  -13.5631   22.8894 C   0  0  0  0  0  0  0  0  0  0  0  0
  -25.8851  -10.9237   18.1950 C   0  0  0  0  0  0  0  0  0  0  0  0
  -33.0989  -22.3018   23.5832 C   0  0  0  0  0  0  0  0  0  0  0  0
  -32.6350  -21.4423   24.7654 C   0  0  0  0  0  0  0  0  0  0  0  0
  -34.3173  -21.7135   22.8775 C   0  0  0  0  0  0  0  0  0  0  0  0
  -31.4233  -22.0344   25.4787 C   0  0  0  0  0  0  0  0  0  0  0  0
  -32.1808  -16.7197   21.3670 C   0  0  0  0  0  0  0  0  0  0  0  0
  -30.7025  -16.5256   21.0805 C   0  0  0  0  0  0  0  0  0  1  0  0
  -23.9251  -13.7661   21.7886 C   0  0  1  0  0  0  0  0  0  0  0  0
  -24.6046  -10.3623   20.2647 C   0  0  2  0  0  0  0  0  0  0  0  0
  -23.1469  -13.8963   23.1284 C   0  0  0  0  0  0  0  0  0  0  0  0
  -27.1508  -24.7344   20.9961 N   0  0  0  0  0  0  0  0  0  0  0  0
  -27.8816  -23.7349   20.4734 N   0  0  0  0  0  0  0  0  0  0  0  0
  -24.4014  -15.6592   20.2678 N   0  0  0  0  0  0  0  0  0  0  0  0
  -28.2959  -21.4852   23.5354 N   0  0  0  0  0  0  0  0  0  0  0  0
  -29.1325  -23.1096   18.5617 N   0  0  0  0  0  0  0  0  0  0  0  0
  -27.6876  -27.2664   17.5473 N   0  0  0  0  0  0  0  0  0  0  0  0
  -34.0616  -20.4028   22.3274 N   0  0  0  0  0  0  0  0  0  0  0  0
  -32.5183  -18.1103   21.5172 N   0  0  0  0  0  0  0  0  0  0  0  0
  -23.2548  -19.0657   19.6534 N   0  0  0  0  0  0  0  0  0  0  0  0
  -23.8376  -12.4465   21.1726 N   0  0  0  0  0  0  0  0  0  0  0  0
  -30.2867  -22.1920   24.5988 N   0  0  0  0  0  0  0  0  0  0  0  0
  -25.6594   -9.9515   19.2954 N   0  3  0  0  0  0  0  0  0  0  0  0
  -28.8943  -25.4749   16.7770 O   0  0  0  0  0  0  0  0  0  0  0  0
  -33.3100  -21.0302   20.1935 O   0  0  0  0  0  0  0  0  0  0  0  0
  -34.0797  -18.3151   19.7749 O   0  0  0  0  0  0  0  0  0  0  0  0
  -24.0000  -17.8617   21.5021 O   0  0  0  0  0  0  0  0  0  0  0  0
  -22.2745  -14.7095   20.3701 O   0  0  0  0  0  0  0  0  0  0  0  0
  -26.1191  -12.0336   21.1312 O   0  0  0  0  0  0  0  0  0  0  0  0
  -29.4257  -20.1096   25.0218 O   0  0  0  0  0  0  0  0  0  0  0  0
  -24.5390  -30.5377   20.7753 O   0  0  0  0  0  0  0  0  0  0  0  0
  -30.3591  -17.2104   19.8766 O   0  0  0  0  0  0  0  0  0  1  0  0
  -19.4129  -30.3810   22.8009 F   0  0  0  0  0  0  0  0  0  0  0  0
  -22.4130  -31.5617   19.3352 F   0  0  0  0  0  0  0  0  0  0  0  0
  1  2  1  0  0  0  0
  1  5  2  0  0  0  0
  2  6  2  0  0  0  0
  3  8  2  0  0  0  0
  3 15  1  0  0  0  0
  4  9  1  0  0  0  0
  4 15  2  0  0  0  0
  5 17  1  0  0  0  0
  6 19  1  0  0  0  0
  7 10  2  0  0  0  0
  7 18  1  0  0  0  0
  8 21  1  0  0  0  0
  9 21  2  0  0  0  0
 10 22  1  0  0  0  0
 11 12  2  0  0  0  0
 11 23  1  0  0  0  0
 12 24  1  0  0  0  0
 13 20  1  0  0  0  0
 13 22  2  0  0  0  0
 14 24  2  0  0  0  0
 14 25  1  0  0  0  0
 15 26  1  0  0  0  0
 16 26  1  0  0  0  0
 16 27  2  0  0  0  0
 16 28  1  0  0  0  0
 17 19  2  0  0  0  0
 17 35  1  0  0  0  0
 18 20  2  0  0  0  0
 18 36  1  0  0  0  0
 19 44  1  0  0  0  0
 20 37  1  0  0  0  0
 21 80  1  0  0  0  0
 22 81  1  0  0  0  0
 23 25  2  0  0  0  0
 23 80  1  0  0  0  0
 24 82  1  0  0  0  0
 25 83  1  0  0  0  0
 26 61  2  0  0  0  0
 27 62  1  0  0  0  0
 27 65  1  0  0  0  0
 28 66  1  0  0  0  0
 28 73  2  0  0  0  0
 29 30  1  0  0  0  0
 29 67  1  0  0  0  0
 29 74  2  0  0  0  0
 30 68  1  0  0  0  0
 30 75  2  0  0  0  0
 31 45  1  0  0  0  0
 31 69  1  0  0  0  0
 31 76  2  0  0  0  0
 32 58  1  0  0  0  0
 32 63  1  0  0  0  0
 32 77  2  0  0  0  0
 33 59  1  0  0  0  0
 33 70  1  0  0  0  0
 33 78  2  0  0  0  0
 34 64  1  0  0  0  0
 34 71  1  0  0  0  0
 34 79  2  0  0  0  0
 35 38  1  0  0  0  0
 36 45  1  0  0  0  0
 37 63  1  0  0  0  0
 38 40  1  0  0  0  0
 39 41  1  0  0  0  0
 39 42  1  0  0  0  0
 40 44  1  0  0  0  0
 41 46  1  0  0  0  0
 42 64  1  0  0  0  0
 43 46  1  0  0  0  0
 43 64  1  0  0  0  0
 44 69  1  0  0  0  0
 45 63  1  0  0  0  0
 46 62  1  0  0  0  0
 47 59  1  0  0  0  0
 48 60  1  0  0  0  0
 49 60  1  0  0  0  0
 50 60  1  0  0  0  0
 51 72  1  0  0  0  0
 52 53  1  0  0  0  0
 52 54  1  0  0  0  0
 53 55  1  0  0  0  0
 54 67  1  0  0  0  0
 55 71  1  0  0  0  0
 56 57  1  0  0  0  0
 56 68  1  0  0  0  0
 57 81  1  0  0  0  0
 58 60  1  0  0  0  0
 58 70  1  0  0  0  0
 59 72  1  0  0  0  0
 61 62  1  0  0  0  0
M  CHG  1  72   1
M  ISO  4  34 100  57 101  71 100  81 101
M  END
> <Batch ID>
0004

> <Smiles>
CNC(C)C(=O)NC(C(=O)N1Cc2cc([101O:1][101CH2:1]CNC(=O)C(=O)NCCCC[100NH:0][100C:0](=O)N3CCCC(n4nc(-c5ccc(Oc6ccc(F)cc6F)cc5)c(C(N)=O)c4N)C3)ccc2CC1C(=O)NC1CCCc2ccccc21)C(C)(C)C

> <Shape>
0.184

> <Color>
0.077

> <Negative vol penalty>
0.000

$$$$

  -OEChem-04052315243D

 95103  0     1  0  0  0  0  0999 V2000
  -23.5558   -8.9236   20.0035 C   0  0  0  0  0  0  0  0  0  0  0  0
  -22.9892  -10.0250   19.3702 C   0  0  0  0  0  0  0  0  0  0  0  0
  -29.5996  -17.1273   19.4318 C   0  0  0  0  0  0  0  0  0  0  0  0
  -27.7858  -17.6545   20.9382 C   0  0  0  0  0  0  0  0  0  0  0  0
  -23.5946   -8.8651   21.3960 C   0  0  0  0  0  0  0  0  0  0  0  0
  -22.4600  -11.0684   20.1291 C   0  0  0  0  0  0  0  0  0  0  0  0
  -21.5700  -18.1752   19.9964 C   0  0  0  0  0  0  0  0  0  0  0  0
  -25.4187  -26.9556   19.2924 C   0  0  0  0  0  0  0  0  0  0  0  0
  -24.4133  -27.9135   19.4238 C   0  0  0  0  0  0  0  0  0  0  0  0
  -29.6656  -15.8390   19.9621 C   0  0  0  0  0  0  0  0  0  0  0  0
  -27.8517  -16.3660   21.4685 C   0  0  0  0  0  0  0  0  0  0  0  0
  -20.5731  -19.1387   20.1431 C   0  0  0  0  0  0  0  0  0  0  0  0
  -30.0716  -12.2965   20.6701 C   0  0  0  0  0  0  0  0  0  0  0  0
  -30.1841  -11.2321   19.7758 C   0  0  0  0  0  0  0  0  0  0  0  0
  -20.7670  -18.9656   22.5413 C   0  0  0  0  0  0  0  0  0  0  0  0
  -26.8416  -28.2484   20.7556 C   0  0  0  0  0  0  0  0  0  0  0  0
  -28.0844  -11.8631   18.7607 C   0  0  0  0  0  0  0  0  0  0  0  0
  -28.6597  -18.0352   19.9199 C   0  0  0  0  0  0  0  0  0  0  0  0
  -27.8119  -19.7988   18.2833 C   0  0  0  0  0  0  0  0  0  0  0  0
  -23.0744   -9.9127   22.1723 C   0  0  0  0  0  0  0  0  0  0  0  0
  -22.1663  -17.5907   21.1231 C   0  0  0  0  0  0  0  0  0  0  0  0
  -22.4908  -11.0233   21.5333 C   0  0  0  0  0  0  0  0  0  0  0  0
  -21.7731  -17.9967   22.4063 C   0  0  0  0  0  0  0  0  0  0  0  0
  -25.8362  -29.2063   20.8870 C   0  0  0  0  0  0  0  0  0  0  0  0
  -26.6329  -27.1231   19.9583 C   0  0  0  0  0  0  0  0  0  0  0  0
  -24.6220  -29.0388   20.2211 C   0  0  0  0  0  0  0  0  0  0  0  0
  -28.7917  -15.4583   20.9804 C   0  0  0  0  0  0  0  0  0  0  0  0
  -20.1694  -19.5320   21.4156 C   0  0  0  0  0  0  0  0  0  0  0  0
  -28.9655  -13.1443   20.6098 C   0  0  0  0  0  0  0  0  0  0  0  0
  -29.1905  -11.0154   18.8210 C   0  0  0  0  0  0  0  0  0  0  0  0
  -27.9720  -12.9276   19.6551 C   0  0  0  0  0  0  0  0  0  0  0  0
  -28.5914  -19.3664   19.3729 C   0  0  0  0  0  0  0  0  0  0  0  0
  -28.1005  -21.1363   18.1640 C   0  0  0  0  0  0  0  0  0  0  0  0
  -26.9078  -19.0577   17.4532 C   0  0  0  0  0  0  0  0  0  0  0  0
  -22.3504  -14.6381   22.2858 C   0  0  0  0  0  0  0  0  0  0  0  0
  -24.3514  -16.0251   24.4293 C   0  0  0  0  0  0  0  0  0  0  0  0
  -17.9071  -25.1499   20.6984 C   0  0  0  0  0  0  0  0  0  0  0  0
  -25.3550  -18.8601   26.0425 C   0  0  0  0  0  0  0  0  0  0  0  0
  -28.9165  -26.1629   20.4159 C   0  0  0  0  0  0  0  0  0  0  0  0
  -23.0965   -9.7830   23.6748 C   0  0  0  0  0  0  0  0  0  0  0  0
  -23.2591  -16.5721   20.9479 C   0  0  0  0  0  0  0  0  0  0  0  0
  -22.3960  -17.4147   23.6479 C   0  0  0  0  0  0  0  0  0  0  0  0
  -22.8516  -11.1018   24.4036 C   0  0  0  0  0  0  0  0  0  0  0  0
  -31.6966  -23.9391   20.3627 C   0  0  0  0  0  0  0  0  0  0  0  0
  -21.6638  -11.8374   23.7914 C   0  0  0  0  0  0  0  0  0  0  0  0
  -31.0725  -22.5868   20.0108 C   0  0  0  0  0  0  0  0  0  0  0  0
  -30.7858  -24.7654   21.2689 C   0  0  0  0  0  0  0  0  0  0  0  0
  -28.7912  -23.5939   20.4215 C   0  0  0  0  0  0  0  0  0  0  0  0
  -21.9287  -12.1862   22.3218 C   0  0  1  0  0  0  0  0  0  0  0  0
  -23.4359  -15.6701   22.1654 C   0  0  1  0  0  0  0  0  0  0  0  0
  -29.6435  -22.7525   19.4575 C   0  0  2  0  0  0  0  0  0  0  0  0
  -26.9884  -19.6727   27.7656 C   0  0  0  0  0  0  0  0  0  0  0  0
  -22.6171  -14.8267   26.6352 C   0  0  0  0  0  0  0  0  0  0  0  0
  -23.6937  -16.4116   28.2468 C   0  0  0  0  0  0  0  0  0  0  0  0
  -25.0783  -14.7076   27.0626 C   0  0  0  0  0  0  0  0  0  0  0  0
  -23.5369  -31.1128   19.3956 C   0  0  0  0  0  0  0  0  0  0  0  0
  -26.6683  -20.6760   24.1095 C   0  0  0  0  0  0  0  0  0  0  0  0
  -18.4086  -23.8469   20.1021 C   0  0  0  0  0  0  0  0  0  0  0  0
  -18.5377  -22.7408   21.1432 C   0  0  0  0  0  0  0  0  0  0  0  0
  -19.4999  -28.5884   19.3057 C   0  0  0  0  0  0  0  0  0  0  0  0
  -20.6369  -29.5220   19.7285 C   0  0  0  0  0  0  0  0  0  0  0  0
  -18.4806  -28.4117   20.4364 C   0  0  0  0  0  0  0  0  0  0  0  0
  -21.4150  -29.0208   20.9507 C   0  0  0  0  0  0  0  0  0  0  0  0
  -17.3388  -27.4756   20.0527 C   0  0  0  0  0  0  0  0  0  0  0  0
  -22.5935  -29.8968   21.3654 C   0  0  0  0  0  0  0  0  0  0  0  0
  -19.0863  -21.4578   20.5359 C   0  0  0  0  0  0  0  0  0  1  0  0
  -24.1831  -16.6901   25.7741 C   0  0  1  0  0  0  0  0  0  0  0  0
  -26.7339  -19.4475   26.2833 C   0  0  2  0  0  0  0  0  0  0  0  0
  -26.0869  -30.4026   21.7464 C   0  0  0  0  0  0  0  0  0  0  0  0
  -23.8797  -15.6687   26.9065 C   0  0  0  0  0  0  0  0  0  0  0  0
  -29.3205  -20.3495   19.9076 N   0  0  0  0  0  0  0  0  0  0  0  0
  -29.0005  -21.4129   19.1507 N   0  0  0  0  0  0  0  0  0  0  0  0
  -23.4559  -16.4176   23.4245 N   0  0  0  0  0  0  0  0  0  0  0  0
  -29.4508  -24.8837   20.6786 N   0  0  0  0  0  0  0  0  0  0  0  0
  -27.6697  -22.0910   17.3123 N   0  0  0  0  0  0  0  0  0  0  0  0
  -26.7283  -17.6923   17.7137 N   0  0  0  0  0  0  0  0  0  0  0  0
  -27.6540  -26.1499   19.8239 N   0  0  0  0  0  0  0  0  0  0  0  0
  -22.8044  -13.3344   22.2249 N   0  0  0  0  0  0  0  0  0  0  0  0
  -17.7963  -26.1433   19.7364 N   0  0  0  0  0  0  0  0  0  0  0  0
  -25.3885  -17.4826   25.9914 N   0  0  0  0  0  0  0  0  0  0  0  0
  -23.5976  -29.9935   20.3423 N   0  0  3  0  0  0  0  0  0  0  0  0
  -26.8705  -20.7539   25.5792 N   0  3  0  0  0  0  0  0  0  0  0  0
  -26.2902  -19.5869   16.4982 O   0  0  0  0  0  0  0  0  0  0  0  0
  -21.1874  -14.9980   22.4253 O   0  0  0  0  0  0  0  0  0  0  0  0
  -25.2492  -15.1934   24.2742 O   0  0  0  0  0  0  0  0  0  0  0  0
  -17.6372  -25.2876   21.8885 O   0  0  0  0  0  0  0  0  0  0  0  0
  -24.3482  -19.5536   25.9165 O   0  0  0  0  0  0  0  0  0  0  0  0
  -29.5450  -27.1935   20.6704 O   0  0  0  0  0  0  0  0  0  0  0  0
  -28.8557  -14.2011   21.4980 O   0  0  0  0  0  0  0  0  0  0  0  0
  -19.1961  -20.4718   21.5616 O   0  0  0  0  0  0  0  0  0  1  0  0
  -29.2995   -9.9941   17.9612 F   0  0  0  0  0  0  0  0  0  0  0  0
  -26.9076  -13.7393   19.5915 F   0  0  0  0  0  0  0  0  0  0  0  0
  -27.3243  -30.4101   22.3223 F   0  0  0  0  0  0  0  0  0  0  0  0
  -25.9986  -31.5855   21.0714 F   0  0  0  0  0  0  0  0  0  0  0  0
  -25.2000  -30.4998   22.7779 F   0  0  0  0  0  0  0  0  0  0  0  0
  1  2  1  0  0  0  0
  1  5  2  0  0  0  0
  2  6  2  0  0  0  0
  3 10  2  0  0  0  0
  3 18  1  0  0  0  0
  4 11  1  0  0  0  0
  4 18  2  0  0  0  0
  5 20  1  0  0  0  0
  6 22  1  0  0  0  0
  7 12  2  0  0  0  0
  7 21  1  0  0  0  0
  8  9  2  0  0  0  0
  8 25  1  0  0  0  0
  9 26  1  0  0  0  0
 10 27  1  0  0  0  0
 11 27  2  0  0  0  0
 12 28  1  0  0  0  0
 13 14  2  0  0  0  0
 13 29  1  0  0  0  0
 14 30  1  0  0  0  0
 15 23  1  0  0  0  0
 15 28  2  0  0  0  0
 16 24  1  0  0  0  0
 16 25  2  0  0  0  0
 17 30  2  0  0  0  0
 17 31  1  0  0  0  0
 18 32  1  0  0  0  0
 19 32  1  0  0  0  0
 19 33  2  0  0  0  0
 19 34  1  0  0  0  0
 20 22  2  0  0  0  0
 20 40  1  0  0  0  0
 21 23  2  0  0  0  0
 21 41  1  0  0  0  0
 22 49  1  0  0  0  0
 23 42  1  0  0  0  0
 24 26  2  0  0  0  0
 24 69  1  0  0  0  0
 25 77  1  0  0  0  0
 26 81  1  0  0  0  0
 27 89  1  0  0  0  0
 28 90  1  0  0  0  0
 29 31  2  0  0  0  0
 29 89  1  0  0  0  0
 30 91  1  0  0  0  0
 31 92  1  0  0  0  0
 32 71  2  0  0  0  0
 33 72  1  0  0  0  0
 33 75  1  0  0  0  0
 34 76  1  0  0  0  0
 34 83  2  0  0  0  0
 35 50  1  0  0  0  0
 35 78  1  0  0  0  0
 35 84  2  0  0  0  0
 36 67  1  0  0  0  0
 36 73  1  0  0  0  0
 36 85  2  0  0  0  0
 37 58  1  0  0  0  0
 37 79  1  0  0  0  0
 37 86  2  0  0  0  0
 38 68  1  0  0  0  0
 38 80  1  0  0  0  0
 38 87  2  0  0  0  0
 39 74  1  0  0  0  0
 39 77  1  0  0  0  0
 39 88  2  0  0  0  0
 40 43  1  0  0  0  0
 41 50  1  0  0  0  0
 42 73  1  0  0  0  0
 43 45  1  0  0  0  0
 44 46  1  0  0  0  0
 44 47  1  0  0  0  0
 45 49  1  0  0  0  0
 46 51  1  0  0  0  0
 47 74  1  0  0  0  0
 48 51  1  0  0  0  0
 48 74  1  0  0  0  0
 49 78  1  0  0  0  0
 50 73  1  0  0  0  0
 51 72  1  0  0  0  0
 52 68  1  0  0  0  0
 53 70  1  0  0  0  0
 54 70  1  0  0  0  0
 55 70  1  0  0  0  0
 56 81  1  0  0  0  0
 57 82  1  0  0  0  0
 58 59  1  0  0  0  0
 59 66  1  0  0  0  0
 60 61  1  0  0  0  0
 60 62  1  0  0  0  0
 61 63  1  0  0  0  0
 62 64  1  0  0  0  0
 63 65  1  0  0  0  0
 64 79  1  0  0  0  0
 65 81  1  0  0  0  0
 66 90  1  0  0  0  0
 67 70  1  0  0  0  0
 67 80  1  0  0  0  0
 68 82  1  0  0  0  0
 69 93  1  0  0  0  0
 69 94  1  0  0  0  0
 69 95  1  0  0  0  0
 71 72  1  0  0  0  0
M  CHG  1  82   1
M  ISO  4  39 100  66 101  77 100  90 101
M  END
> <Batch ID>
0004

> <Smiles>
CNC(C)C(=O)NC(C(=O)N1Cc2cc([101O:1][101CH2:1]CCC(=O)NCCCCCCN(C)c3ccc([100NH:0][100C:0](=O)N4CCCC(n5nc(-c6ccc(Oc7ccc(F)cc7F)cc6)c(C(N)=O)c5N)C4)cc3C(F)(F)F)ccc2CC1C(=O)NC1CCCc2ccccc21)C(C)(C)C

> <Shape>
0.256

> <Color>
0.065

> <Negative vol penalty>
0.000

$$$$

  -OEChem-04052315243D

 82 90  0     1  0  0  0  0  0999 V2000
  -24.9259  -38.2132   21.3574 C   0  0  0  0  0  0  0  0  0  0  0  0
  -25.5992  -37.2950   20.5579 C   0  0  0  0  0  0  0  0  0  0  0  0
  -26.7710  -12.4701   20.9555 C   0  0  0  0  0  0  0  0  0  0  0  0
  -26.8221  -13.9303   22.8796 C   0  0  0  0  0  0  0  0  0  0  0  0
  -24.4969  -37.8437   22.6315 C   0  0  0  0  0  0  0  0  0  0  0  0
  -25.8447  -36.0070   21.0326 C   0  0  0  0  0  0  0  0  0  0  0  0
  -26.4188  -29.2363   18.7646 C   0  0  0  0  0  0  0  0  0  0  0  0
  -30.9072  -24.8856   20.0369 C   0  0  0  0  0  0  0  0  0  0  0  0
  -27.2071  -11.4092   21.7490 C   0  0  0  0  0  0  0  0  0  0  0  0
  -27.2582  -12.8693   23.6732 C   0  0  0  0  0  0  0  0  0  0  0  0
  -27.2895  -28.1492   18.8283 C   0  0  0  0  0  0  0  0  0  0  0  0
  -31.6805  -23.7484   20.2697 C   0  0  0  0  0  0  0  0  0  0  0  0
  -25.8662   -9.2539   23.9827 C   0  0  0  0  0  0  0  0  0  0  0  0
  -25.2196   -8.0266   23.8366 C   0  0  0  0  0  0  0  0  0  0  0  0
  -26.4321  -27.5983   21.0147 C   0  0  0  0  0  0  0  0  0  0  0  0
  -29.5356  -23.6363   18.4893 C   0  0  0  0  0  0  0  0  0  0  0  0
  -27.3116   -7.0007   23.1976 C   0  0  0  0  0  0  0  0  0  0  0  0
  -26.5785  -13.7308   21.5208 C   0  0  0  0  0  0  0  0  0  0  0  0
  -24.7974  -15.2085   20.4477 C   0  0  0  0  0  0  0  0  0  0  0  0
  -24.7287  -36.5476   23.1183 C   0  0  0  0  0  0  0  0  0  0  0  0
  -25.5545  -29.5194   19.8319 C   0  0  0  0  0  0  0  0  0  0  0  0
  -25.4195  -35.6203   22.3149 C   0  0  0  0  0  0  0  0  0  0  0  0
  -25.5496  -28.6880   20.9610 C   0  0  0  0  0  0  0  0  0  0  0  0
  -29.8347  -24.8296   19.1467 C   0  0  0  0  0  0  0  0  0  0  0  0
  -30.3090  -22.4990   18.7220 C   0  0  0  0  0  0  0  0  0  0  0  0
  -27.4507  -11.6087   23.1079 C   0  0  0  0  0  0  0  0  0  0  0  0
  -27.2982  -27.3317   19.9547 C   0  0  0  0  0  0  0  0  0  0  0  0
  -31.3814  -22.5551   19.6122 C   0  0  0  0  0  0  0  0  0  0  0  0
  -27.2354   -9.3546   23.7363 C   0  0  0  0  0  0  0  0  0  0  0  0
  -25.9423   -6.9000   23.4441 C   0  0  0  0  0  0  0  0  0  0  0  0
  -27.9581   -8.2280   23.3437 C   0  0  0  0  0  0  0  0  0  0  0  0
  -26.1286  -14.8273   20.7014 C   0  0  0  0  0  0  0  0  0  0  0  0
  -24.9044  -16.2985   19.6188 C   0  0  0  0  0  0  0  0  0  0  0  0
  -23.5735  -14.6293   20.9192 C   0  0  0  0  0  0  0  0  0  0  0  0
  -25.1800  -31.9655   21.8269 C   0  0  0  0  0  0  0  0  0  0  0  0
  -29.2876  -20.2457   18.9245 C   0  0  0  0  0  0  0  0  0  0  0  0
  -22.5941  -30.2682   22.8040 C   0  0  0  0  0  0  0  0  0  0  0  0
  -21.0496  -27.2364   23.0684 C   0  0  0  0  0  0  0  0  0  0  0  0
  -24.2877  -36.2090   24.5202 C   0  0  0  0  0  0  0  0  0  0  0  0
  -24.6025  -30.6800   19.7364 C   0  0  0  0  0  0  0  0  0  0  0  0
  -24.6270  -28.9370   22.1252 C   0  0  0  0  0  0  0  0  0  0  0  0
  -24.2573  -34.7094   24.8037 C   0  0  0  0  0  0  0  0  0  0  0  0
  -27.7586  -18.2311   16.3109 C   0  0  0  0  0  0  0  0  0  0  0  0
  -25.5359  -34.0453   24.3028 C   0  0  0  0  0  0  0  0  0  0  0  0
  -27.0661  -17.1426   17.1298 C   0  0  0  0  0  0  0  0  0  0  0  0
  -29.0774  -18.6600   16.9489 C   0  0  0  0  0  0  0  0  0  0  0  0
  -28.2513  -18.0149   19.1907 C   0  0  0  0  0  0  0  0  0  0  0  0
  -25.6828  -34.2061   22.7849 C   0  0  1  0  0  0  0  0  0  0  0  0
  -24.1283  -31.1775   21.0984 C   0  0  1  0  0  0  0  0  0  0  0  0
  -26.9023  -17.5759   18.5971 C   0  0  2  0  0  0  0  0  0  0  0  0
  -18.9606  -26.1600   23.9484 C   0  0  0  0  0  0  0  0  0  0  0  0
  -23.6841  -30.4818   25.6459 C   0  0  0  0  0  0  0  0  0  0  0  0
  -22.1256  -28.6375   26.3077 C   0  0  0  0  0  0  0  0  0  0  0  0
  -21.2105  -30.7942   25.4511 C   0  0  0  0  0  0  0  0  0  0  0  0
  -20.2583  -26.3004   20.3746 C   0  0  0  0  0  0  0  0  0  0  0  0
  -29.9739  -21.2296   18.0107 C   0  0  0  0  0  0  0  0  0  0  0  0
  -29.0023  -26.0529   18.8979 C   0  0  0  0  0  0  0  0  0  1  0  0
  -32.2005  -20.9792   21.1939 C   0  0  0  0  0  0  0  0  0  0  0  0
  -32.4281  -19.4843   21.1736 C   0  0  0  0  0  0  0  0  0  0  0  0
  -22.3449  -29.2043   23.8457 C   0  0  1  0  0  0  0  0  0  0  0  0
  -19.6343  -26.7951   22.7420 C   0  0  2  0  0  0  0  0  0  0  0  0
  -22.3601  -29.7756   25.2916 C   0  0  0  0  0  0  0  0  0  0  0  0
  -27.0161  -15.6112   20.0836 N   0  0  0  0  0  0  0  0  0  0  0  0
  -26.2411  -16.4959   19.4334 N   0  0  0  0  0  0  0  0  0  0  0  0
  -23.7192  -30.0879   21.9870 N   0  0  0  0  0  0  0  0  0  0  0  0
  -28.8834  -19.0387   18.3536 N   0  0  0  0  0  0  0  0  0  0  0  0
  -23.9846  -17.0976   19.0377 N   0  0  0  0  0  0  0  0  0  0  0  0
  -23.6445  -13.5129   21.7636 N   0  0  0  0  0  0  0  0  0  0  0  0
  -24.8204  -33.2731   22.0919 N   0  0  0  0  0  0  0  0  0  0  0  0
  -21.0933  -28.5538   23.4734 N   0  0  0  0  0  0  0  0  0  0  0  0
  -19.6448  -25.8008   21.6320 N   0  3  0  0  0  0  0  0  0  0  0  0
  -22.4500  -15.0781   20.5880 O   0  0  0  0  0  0  0  0  0  0  0  0
  -26.2387  -31.4266   22.1276 O   0  0  0  0  0  0  0  0  0  0  0  0
  -29.1143  -20.5441   20.1090 O   0  0  0  0  0  0  0  0  0  0  0  0
  -21.8150  -31.2203   22.7136 O   0  0  0  0  0  0  0  0  0  0  0  0
  -22.0190  -26.4864   22.9771 O   0  0  0  0  0  0  0  0  0  0  0  0
  -27.8760  -10.5736   23.8826 O   0  0  0  0  0  0  0  0  0  0  0  0
  -28.1475  -26.2704   20.0197 O   0  0  0  0  0  0  0  0  0  1  0  0
  -32.1483  -21.4542   19.8502 O   0  0  0  0  0  0  0  0  0  0  0  0
  -25.3216   -5.7212   23.3053 F   0  0  0  0  0  0  0  0  0  0  0  0
  -29.2740   -8.3183   23.1067 F   0  0  0  0  0  0  0  0  0  0  0  0
  -33.6206  -19.2346   20.5664 F   0  0  0  0  0  0  0  0  0  0  0  0
  1  2  1  0  0  0  0
  1  5  2  0  0  0  0
  2  6  2  0  0  0  0
  3  9  2  0  0  0  0
  3 18  1  0  0  0  0
  4 10  1  0  0  0  0
  4 18  2  0  0  0  0
  5 20  1  0  0  0  0
  6 22  1  0  0  0  0
  7 11  2  0  0  0  0
  7 21  1  0  0  0  0
  8 12  2  0  0  0  0
  8 24  1  0  0  0  0
  9 26  1  0  0  0  0
 10 26  2  0  0  0  0
 11 27  1  0  0  0  0
 12 28  1  0  0  0  0
 13 14  2  0  0  0  0
 13 29  1  0  0  0  0
 14 30  1  0  0  0  0
 15 23  1  0  0  0  0
 15 27  2  0  0  0  0
 16 24  2  0  0  0  0
 16 25  1  0  0  0  0
 17 30  2  0  0  0  0
 17 31  1  0  0  0  0
 18 32  1  0  0  0  0
 19 32  1  0  0  0  0
 19 33  2  0  0  0  0
 19 34  1  0  0  0  0
 20 22  2  0  0  0  0
 20 39  1  0  0  0  0
 21 23  2  0  0  0  0
 21 40  1  0  0  0  0
 22 48  1  0  0  0  0
 23 41  1  0  0  0  0
 24 57  1  0  0  0  0
 25 28  2  0  0  0  0
 25 56  1  0  0  0  0
 26 77  1  0  0  0  0
 27 78  1  0  0  0  0
 28 79  1  0  0  0  0
 29 31  2  0  0  0  0
 29 77  1  0  0  0  0
 30 80  1  0  0  0  0
 31 81  1  0  0  0  0
 32 63  2  0  0  0  0
 33 64  1  0  0  0  0
 33 67  1  0  0  0  0
 34 68  1  0  0  0  0
 34 72  2  0  0  0  0
 35 49  1  0  0  0  0
 35 69  1  0  0  0  0
 35 73  2  0  0  0  0
 36 56  1  0  0  0  0
 36 66  1  0  0  0  0
 36 74  2  0  0  0  0
 37 60  1  0  0  0  0
 37 65  1  0  0  0  0
 37 75  2  0  0  0  0
 38 61  1  0  0  0  0
 38 70  1  0  0  0  0
 38 76  2  0  0  0  0
 39 42  1  0  0  0  0
 40 49  1  0  0  0  0
 41 65  1  0  0  0  0
 42 44  1  0  0  0  0
 43 45  1  0  0  0  0
 43 46  1  0  0  0  0
 44 48  1  0  0  0  0
 45 50  1  0  0  0  0
 46 66  1  0  0  0  0
 47 50  1  0  0  0  0
 47 66  1  0  0  0  0
 48 69  1  0  0  0  0
 49 65  1  0  0  0  0
 50 64  1  0  0  0  0
 51 61  1  0  0  0  0
 52 62  1  0  0  0  0
 53 62  1  0  0  0  0
 54 62  1  0  0  0  0
 55 71  1  0  0  0  0
 57 78  1  0  0  0  0
 58 59  1  0  0  0  0
 58 79  1  0  0  0  0
 59 82  1  0  0  0  0
 60 62  1  0  0  0  0
 60 70  1  0  0  0  0
 61 71  1  0  0  0  0
 63 64  1  0  0  0  0
M  CHG  1  71   1
M  ISO  4  36 100  56 100  57 101  78 101
M  END
> <Batch ID>
0004

> <Smiles>
CNC(C)C(=O)NC(C(=O)N1Cc2cc([101O:1][101CH2:1]c3ccc(OCCF)c([100CH2:0][100C:0](=O)N4CCCC(n5nc(-c6ccc(Oc7ccc(F)cc7F)cc6)c(C(N)=O)c5N)C4)c3)ccc2CC1C(=O)NC1CCCc2ccccc21)C(C)(C)C

> <Shape>
0.260

> <Color>
0.089

> <Negative vol penalty>
0.000

$$$$

  -OEChem-04052315243D

 85 93  0     1  0  0  0  0  0999 V2000
  -24.1753  -35.3610   21.3949 C   0  0  0  0  0  0  0  0  0  0  0  0
  -25.0291  -34.2632   21.3606 C   0  0  0  0  0  0  0  0  0  0  0  0
  -23.1168  -15.0332   23.9085 C   0  0  0  0  0  0  0  0  0  0  0  0
  -22.9973  -16.0276   21.7099 C   0  0  0  0  0  0  0  0  0  0  0  0
  -22.9655  -35.2805   22.0833 C   0  0  0  0  0  0  0  0  0  0  0  0
  -24.6741  -33.0845   22.0156 C   0  0  0  0  0  0  0  0  0  0  0  0
  -25.5342  -28.9632   19.2014 C   0  0  0  0  0  0  0  0  0  0  0  0
  -31.5600  -21.4484   18.0446 C   0  0  0  0  0  0  0  0  0  0  0  0
  -29.1746  -21.7261   18.3090 C   0  0  0  0  0  0  0  0  0  0  0  0
  -22.1800  -15.9547   24.3762 C   0  0  0  0  0  0  0  0  0  0  0  0
  -22.0604  -16.9491   22.1776 C   0  0  0  0  0  0  0  0  0  0  0  0
  -26.8508  -28.5121   19.1187 C   0  0  0  0  0  0  0  0  0  0  0  0
  -31.3933  -20.0646   17.9931 C   0  0  0  0  0  0  0  0  0  0  0  0
  -29.0078  -20.3422   18.2574 C   0  0  0  0  0  0  0  0  0  0  0  0
  -22.1420  -19.1908   25.3512 C   0  0  0  0  0  0  0  0  0  0  0  0
  -22.3968  -19.8081   26.5757 C   0  0  0  0  0  0  0  0  0  0  0  0
  -26.3714  -26.8270   20.7769 C   0  0  0  0  0  0  0  0  0  0  0  0
  -20.3447  -18.8930   27.4640 C   0  0  0  0  0  0  0  0  0  0  0  0
  -23.5255  -15.0697   22.5753 C   0  0  0  0  0  0  0  0  0  0  0  0
  -24.2357  -12.8523   21.5329 C   0  0  0  0  0  0  0  0  0  0  0  0
  -22.5911  -34.0971   22.7390 C   0  0  0  0  0  0  0  0  0  0  0  0
  -24.6277  -28.3555   20.0820 C   0  0  0  0  0  0  0  0  0  0  0  0
  -23.4588  -32.9885   22.7146 C   0  0  0  0  0  0  0  0  0  0  0  0
  -25.0431  -27.2706   20.8671 C   0  0  0  0  0  0  0  0  0  0  0  0
  -30.4507  -22.2792   18.2027 C   0  0  0  0  0  0  0  0  0  0  0  0
  -21.6517  -16.9126   23.5108 C   0  0  0  0  0  0  0  0  0  0  0  0
  -30.1172  -19.5114   18.0994 C   0  0  0  0  0  0  0  0  0  0  0  0
  -27.2704  -27.4458   19.9086 C   0  0  0  0  0  0  0  0  0  0  0  0
  -20.9885  -18.4247   25.1829 C   0  0  0  0  0  0  0  0  0  0  0  0
  -21.4982  -19.6592   27.6321 C   0  0  0  0  0  0  0  0  0  0  0  0
  -20.0899  -18.2758   26.2393 C   0  0  0  0  0  0  0  0  0  0  0  0
  -24.4937  -14.1184   22.0917 C   0  0  0  0  0  0  0  0  0  0  0  0
  -25.4784  -12.3482   21.2364 C   0  0  0  0  0  0  0  0  0  0  0  0
  -22.9845  -12.1911   21.3024 C   0  0  0  0  0  0  0  0  0  0  0  0
  -22.9492  -29.3307   22.5991 C   0  0  0  0  0  0  0  0  0  0  0  0
  -21.6581  -26.3617   22.3980 C   0  0  0  0  0  0  0  0  0  0  0  0
  -29.6316  -24.6522   18.4072 C   0  0  0  0  0  0  0  0  0  0  0  0
  -21.9792  -23.1271   21.3583 C   0  0  0  0  0  0  0  0  0  0  0  0
  -30.7568  -14.9291   20.0836 C   0  0  0  0  0  0  0  0  0  0  0  0
  -21.2950  -34.0732   23.5099 C   0  0  0  0  0  0  0  0  0  0  0  0
  -23.2038  -28.8367   20.1400 C   0  0  0  0  0  0  0  0  0  0  0  0
  -24.1035  -26.5708   21.8136 C   0  0  0  0  0  0  0  0  0  0  0  0
  -20.8222  -32.6653   23.8630 C   0  0  0  0  0  0  0  0  0  0  0  0
  -30.0436  -12.5680   22.6513 C   0  0  0  0  0  0  0  0  0  0  0  0
  -21.9754  -31.8403   24.4254 C   0  0  0  0  0  0  0  0  0  0  0  0
  -28.5170  -12.5834   22.7486 C   0  0  0  0  0  0  0  0  0  0  0  0
  -30.6043  -13.9577   22.3572 C   0  0  0  0  0  0  0  0  0  0  0  0
  -28.4986  -14.6370   21.2718 C   0  0  0  0  0  0  0  0  0  0  0  0
  -23.0976  -31.6844   23.3920 C   0  0  1  0  0  0  0  0  0  0  0  0
  -22.5038  -28.4757   21.4465 C   0  0  1  0  0  0  0  0  0  0  0  0
  -27.8830  -13.2479   21.5118 C   0  0  2  0  0  0  0  0  0  0  0  0
  -20.7755  -20.9252   21.3709 C   0  0  0  0  0  0  0  0  0  0  0  0
  -22.3936  -25.9792   25.3344 C   0  0  0  0  0  0  0  0  0  0  0  0
  -22.0550  -23.5177   25.0265 C   0  0  0  0  0  0  0  0  0  0  0  0
  -20.1452  -25.0884   24.6976 C   0  0  0  0  0  0  0  0  0  0  0  0
  -21.8802  -23.0325   18.4020 C   0  0  0  0  0  0  0  0  0  0  0  0
  -30.2479  -26.0466   18.4122 C   0  0  0  0  0  0  0  0  0  0  0  0
  -30.7461  -15.9046   17.8016 C   0  0  0  0  0  0  0  0  0  0  0  0
  -29.2183  -27.1544   18.5757 C   0  0  0  0  0  0  0  0  0  1  0  0
  -31.1311  -17.3708   17.8861 C   0  0  0  0  0  0  0  0  0  0  0  0
  -21.9946  -25.0082   22.9756 C   0  0  1  0  0  0  0  0  0  0  0  0
  -21.0312  -22.2129   20.6033 C   0  0  2  0  0  0  0  0  0  0  0  0
  -21.6656  -24.9126   24.4922 C   0  0  0  0  0  0  0  0  0  0  0  0
  -25.7978  -14.4011   22.1481 N   0  0  0  0  0  0  0  0  0  0  0  0
  -26.3705  -13.3055   21.6210 N   0  0  0  0  0  0  0  0  0  0  0  0
  -22.7231  -27.0821   21.8390 N   0  0  0  0  0  0  0  0  0  0  0  0
  -29.9627  -14.5314   21.1719 N   0  0  0  0  0  0  0  0  0  0  0  0
  -25.8842  -11.1838   20.6869 N   0  0  0  0  0  0  0  0  0  0  0  0
  -21.8029  -12.8513   21.6660 N   0  0  0  0  0  0  0  0  0  0  0  0
  -30.6198  -23.6833   18.2551 N   0  0  0  0  0  0  0  0  0  0  0  0
  -22.7434  -30.6837   22.4083 N   0  0  0  0  0  0  0  0  0  0  0  0
  -21.2982  -24.0274   22.1501 N   0  0  0  0  0  0  0  0  0  0  0  0
  -30.0686  -15.4570   18.9980 N   0  0  0  0  0  0  0  0  0  0  0  0
  -21.6012  -21.8612   19.2720 N   0  3  0  0  0  0  0  0  0  0  0  0
  -22.9173  -11.0418   20.8042 O   0  0  0  0  0  0  0  0  0  0  0  0
  -23.4418  -28.8019   23.5887 O   0  0  0  0  0  0  0  0  0  0  0  0
  -20.4918  -26.7619   22.4348 O   0  0  0  0  0  0  0  0  0  0  0  0
  -28.4241  -24.4718   18.5244 O   0  0  0  0  0  0  0  0  0  0  0  0
  -23.2016  -23.0478   21.2587 O   0  0  0  0  0  0  0  0  0  0  0  0
  -31.9873  -14.8169   20.0776 O   0  0  0  0  0  0  0  0  0  0  0  0
  -20.7374  -17.8118   23.9668 O   0  0  0  0  0  0  0  0  0  0  0  0
  -29.9544  -18.1611   18.0491 O   0  0  0  0  0  0  0  0  0  0  0  0
  -28.5551  -27.0039   19.8302 O   0  0  0  0  0  0  0  0  0  1  0  0
  -21.7437  -20.2508   28.8085 F   0  0  0  0  0  0  0  0  0  0  0  0
  -18.9807  -17.5400   26.0841 F   0  0  0  0  0  0  0  0  0  0  0  0
  1  2  1  0  0  0  0
  1  5  2  0  0  0  0
  2  6  2  0  0  0  0
  3 10  2  0  0  0  0
  3 19  1  0  0  0  0
  4 11  1  0  0  0  0
  4 19  2  0  0  0  0
  5 21  1  0  0  0  0
  6 23  1  0  0  0  0
  7 12  2  0  0  0  0
  7 22  1  0  0  0  0
  8 13  2  0  0  0  0
  8 25  1  0  0  0  0
  9 14  1  0  0  0  0
  9 25  2  0  0  0  0
 10 26  1  0  0  0  0
 11 26  2  0  0  0  0
 12 28  1  0  0  0  0
 13 27  1  0  0  0  0
 14 27  2  0  0  0  0
 15 16  2  0  0  0  0
 15 29  1  0  0  0  0
 16 30  1  0  0  0  0
 17 24  1  0  0  0  0
 17 28  2  0  0  0  0
 18 30  2  0  0  0  0
 18 31  1  0  0  0  0
 19 32  1  0  0  0  0
 20 32  1  0  0  0  0
 20 33  2  0  0  0  0
 20 34  1  0  0  0  0
 21 23  2  0  0  0  0
 21 40  1  0  0  0  0
 22 24  2  0  0  0  0
 22 41  1  0  0  0  0
 23 49  1  0  0  0  0
 24 42  1  0  0  0  0
 25 70  1  0  0  0  0
 26 81  1  0  0  0  0
 27 82  1  0  0  0  0
 28 83  1  0  0  0  0
 29 31  2  0  0  0  0
 29 81  1  0  0  0  0
 30 84  1  0  0  0  0
 31 85  1  0  0  0  0
 32 64  2  0  0  0  0
 33 65  1  0  0  0  0
 33 68  1  0  0  0  0
 34 69  1  0  0  0  0
 34 75  2  0  0  0  0
 35 50  1  0  0  0  0
 35 71  1  0  0  0  0
 35 76  2  0  0  0  0
 36 61  1  0  0  0  0
 36 66  1  0  0  0  0
 36 77  2  0  0  0  0
 37 57  1  0  0  0  0
 37 70  1  0  0  0  0
 37 78  2  0  0  0  0
 38 62  1  0  0  0  0
 38 72  1  0  0  0  0
 38 79  2  0  0  0  0
 39 67  1  0  0  0  0
 39 73  1  0  0  0  0
 39 80  2  0  0  0  0
 40 43  1  0  0  0  0
 41 50  1  0  0  0  0
 42 66  1  0  0  0  0
 43 45  1  0  0  0  0
 44 46  1  0  0  0  0
 44 47  1  0  0  0  0
 45 49  1  0  0  0  0
 46 51  1  0  0  0  0
 47 67  1  0  0  0  0
 48 51  1  0  0  0  0
 48 67  1  0  0  0  0
 49 71  1  0  0  0  0
 50 66  1  0  0  0  0
 51 65  1  0  0  0  0
 52 62  1  0  0  0  0
 53 63  1  0  0  0  0
 54 63  1  0  0  0  0
 55 63  1  0  0  0  0
 56 74  1  0  0  0  0
 57 59  1  0  0  0  0
 58 60  1  0  0  0  0
 58 73  1  0  0  0  0
 59 83  1  0  0  0  0
 60 82  1  0  0  0  0
 61 63  1  0  0  0  0
 61 72  1  0  0  0  0
 62 74  1  0  0  0  0
 64 65  1  0  0  0  0
M  CHG  1  74   1
M  ISO  4  39 100  59 101  73 100  83 101
M  END
> <Batch ID>
0004

> <Smiles>
CNC(C)C(=O)NC(C(=O)N1Cc2cc([101O:1][101CH2:1]CC(=O)Nc3ccc(OCC[100NH:0][100C:0](=O)N4CCCC(n5nc(-c6ccc(Oc7ccc(F)cc7F)cc6)c(C(N)=O)c5N)C4)cc3)ccc2CC1C(=O)NC1CCCc2ccccc21)C(C)(C)C

> <Shape>
0.195

> <Color>
0.108

> <Negative vol penalty>
0.000

$$$$

  -OEChem-04052315243D

 95103  0     1  0  0  0  0  0999 V2000
  -26.0121  -38.5687   21.8013 C   0  0  0  0  0  0  0  0  0  0  0  0
  -26.6932  -37.6230   21.0416 C   0  0  0  0  0  0  0  0  0  0  0  0
  -26.4643  -24.8422   17.2297 C   0  0  0  0  0  0  0  0  0  0  0  0
  -26.4811  -24.3517   15.9240 C   0  0  0  0  0  0  0  0  0  0  0  0
  -23.3403  -13.1856   18.8827 C   0  0  0  0  0  0  0  0  0  0  0  0
  -24.5779  -14.7329   20.2652 C   0  0  0  0  0  0  0  0  0  0  0  0
  -25.3709  -38.1852   22.9784 C   0  0  0  0  0  0  0  0  0  0  0  0
  -26.7343  -36.2932   21.4593 C   0  0  0  0  0  0  0  0  0  0  0  0
  -26.9202  -29.6248   18.8488 C   0  0  0  0  0  0  0  0  0  0  0  0
  -25.8293  -24.1180   18.2387 C   0  0  0  0  0  0  0  0  0  0  0  0
  -25.8628  -23.1371   15.6273 C   0  0  0  0  0  0  0  0  0  0  0  0
  -24.1557  -12.1421   19.3207 C   0  0  0  0  0  0  0  0  0  0  0  0
  -25.3933  -13.6894   20.7032 C   0  0  0  0  0  0  0  0  0  0  0  0
  -27.6558  -28.4455   18.9580 C   0  0  0  0  0  0  0  0  0  0  0  0
  -24.4307  -10.1762   22.0579 C   0  0  0  0  0  0  0  0  0  0  0  0
  -23.8127   -8.9810   22.4254 C   0  0  0  0  0  0  0  0  0  0  0  0
  -26.4447  -27.8833   20.9671 C   0  0  0  0  0  0  0  0  0  0  0  0
  -25.0624   -7.8106   20.7208 C   0  0  0  0  0  0  0  0  0  0  0  0
  -23.5515  -14.4811   19.3549 C   0  0  0  0  0  0  0  0  0  0  0  0
  -21.5070  -16.0011   19.4854 C   0  0  0  0  0  0  0  0  0  0  0  0
  -25.3960  -36.8483   23.4056 C   0  0  0  0  0  0  0  0  0  0  0  0
  -25.9473  -29.9481   19.8055 C   0  0  0  0  0  0  0  0  0  0  0  0
  -26.0939  -35.8917   22.6439 C   0  0  0  0  0  0  0  0  0  0  0  0
  -25.6964  -29.0661   20.8663 C   0  0  0  0  0  0  0  0  0  0  0  0
  -25.2110  -22.9034   17.9420 C   0  0  0  0  0  0  0  0  0  0  0  0
  -25.2278  -22.4129   16.6363 C   0  0  0  0  0  0  0  0  0  0  0  0
  -25.1822  -12.3940   20.2309 C   0  0  0  0  0  0  0  0  0  0  0  0
  -27.4201  -27.5760   20.0189 C   0  0  0  0  0  0  0  0  0  0  0  0
  -25.3646  -10.1887   21.0218 C   0  0  0  0  0  0  0  0  0  0  0  0
  -24.1285   -7.7982   21.7569 C   0  0  0  0  0  0  0  0  0  0  0  0
  -25.6805   -9.0059   20.3533 C   0  0  0  0  0  0  0  0  0  0  0  0
  -22.7098  -15.5595   18.9025 C   0  0  0  0  0  0  0  0  0  0  0  0
  -21.1000  -17.0416   18.6865 C   0  0  0  0  0  0  0  0  0  0  0  0
  -20.8190  -15.5144   20.6453 C   0  0  0  0  0  0  0  0  0  0  0  0
  -25.5490  -32.3161   21.8882 C   0  0  0  0  0  0  0  0  0  0  0  0
  -22.6891  -30.8706   22.3922 C   0  0  0  0  0  0  0  0  0  0  0  0
  -25.4183  -20.5416   20.7421 C   0  0  0  0  0  0  0  0  0  0  0  0
  -20.8173  -28.0208   22.2447 C   0  0  0  0  0  0  0  0  0  0  0  0
  -24.0255  -20.8199   15.0990 C   0  0  0  0  0  0  0  0  0  0  0  0
  -29.2456  -22.2377   18.7739 C   0  0  0  0  0  0  0  0  0  0  0  0
  -24.7281  -36.4902   24.7096 C   0  0  0  0  0  0  0  0  0  0  0  0
  -25.1438  -31.2111   19.6587 C   0  0  0  0  0  0  0  0  0  0  0  0
  -24.6489  -29.3571   21.9087 C   0  0  0  0  0  0  0  0  0  0  0  0
  -24.5027  -34.9909   24.8870 C   0  0  0  0  0  0  0  0  0  0  0  0
  -21.3742  -18.6297   14.1769 C   0  0  0  0  0  0  0  0  0  0  0  0
  -25.7637  -34.2145   24.5211 C   0  0  0  0  0  0  0  0  0  0  0  0
  -21.3023  -17.6376   15.3400 C   0  0  0  0  0  0  0  0  0  0  0  0
  -22.8137  -19.0352   13.8655 C   0  0  0  0  0  0  0  0  0  0  0  0
  -23.5084  -18.5428   16.1772 C   0  0  0  0  0  0  0  0  0  0  0  0
  -26.1402  -34.4349   23.0510 C   0  0  1  0  0  0  0  0  0  0  0  0
  -24.5354  -31.6885   20.9737 C   0  0  1  0  0  0  0  0  0  0  0  0
  -22.0736  -18.1547   16.5702 C   0  0  2  0  0  0  0  0  0  0  0  0
  -18.7793  -26.5636   22.3877 C   0  0  0  0  0  0  0  0  0  0  0  0
  -21.2258  -24.1462   19.7411 C   0  0  0  0  0  0  0  0  0  0  0  0
  -21.5354  -22.1498   18.2662 C   0  0  0  0  0  0  0  0  0  0  0  0
  -23.3814  -30.8164   25.3633 C   0  0  0  0  0  0  0  0  0  0  0  0
  -21.5625  -29.1264   25.6851 C   0  0  0  0  0  0  0  0  0  0  0  0
  -21.0062  -31.4126   24.8564 C   0  0  0  0  0  0  0  0  0  0  0  0
  -20.0744  -28.5852   19.4361 C   0  0  0  0  0  0  0  0  0  0  0  0
  -26.6357  -20.3126   21.6228 C   0  0  0  0  0  0  0  0  0  0  0  0
  -27.7383  -19.4936   20.9491 C   0  0  0  0  0  0  0  0  0  0  0  0
  -30.3233  -25.4846   20.4353 C   0  0  0  0  0  0  0  0  0  0  0  0
  -23.4333  -22.9452   19.7779 C   0  0  0  0  0  0  0  0  0  0  0  0
  -28.2535  -20.1059   19.6483 C   0  0  0  0  0  0  0  0  0  0  0  0
  -29.7986  -24.0558   20.4115 C   0  0  0  0  0  0  0  0  0  0  0  0
  -29.4665  -26.4354   19.6094 C   0  0  0  0  0  0  0  0  0  1  0  0
  -24.5291  -22.1388   19.0580 C   0  0  2  0  0  0  0  0  0  0  0  0
  -22.1860  -29.7897   23.3181 C   0  0  1  0  0  0  0  0  0  0  0  0
  -19.4246  -27.7575   21.7013 C   0  0  2  0  0  0  0  0  0  0  0  0
  -22.2319  -23.3547   18.9003 C   0  0  0  0  0  0  0  0  0  0  0  0
  -22.0552  -30.2814   24.7873 C   0  0  0  0  0  0  0  0  0  0  0  0
  -23.0451  -16.2619   17.8170 N   0  0  0  0  0  0  0  0  0  0  0  0
  -22.0468  -17.1554   17.7115 N   0  0  0  0  0  0  0  0  0  0  0  0
  -23.8939  -30.6076   21.7250 N   0  0  0  0  0  0  0  0  0  0  0  0
  -23.4803  -19.5188   15.0766 N   0  0  0  0  0  0  0  0  0  0  0  0
  -20.0282  -17.8612   18.7300 N   0  0  0  0  0  0  0  0  0  0  0  0
  -21.3759  -14.4383   21.3499 N   0  0  0  0  0  0  0  0  0  0  0  0
  -29.2074  -21.7576   17.4644 N   0  0  0  0  0  0  0  0  0  0  0  0
  -24.6053  -21.1813   16.3146 N   0  0  0  0  0  0  0  0  0  0  0  0
  -25.2928  -33.6405   22.1877 N   0  0  0  0  0  0  0  0  0  0  0  0
  -25.5392  -21.7041   19.9945 N   0  0  0  0  0  0  0  0  0  0  0  0
  -20.9392  -29.3027   22.7377 N   0  0  0  0  0  0  0  0  0  0  0  0
  -28.7891  -21.4533   19.8396 N   0  0  0  0  0  0  0  0  0  0  0  0
  -29.7418  -23.5169   19.0546 N   0  3  0  0  0  0  0  0  0  0  0  0
  -19.4829  -27.4831   20.2376 N   0  3  0  0  0  0  0  0  0  0  0  0
  -19.7339  -16.0080   21.0357 O   0  0  0  0  0  0  0  0  0  0  0  0
  -26.4929  -31.6478   22.2934 O   0  0  0  0  0  0  0  0  0  0  0  0
  -22.0335  -31.9072   22.2601 O   0  0  0  0  0  0  0  0  0  0  0  0
  -24.4651  -19.7689   20.6956 O   0  0  0  0  0  0  0  0  0  0  0  0
  -21.7070  -27.1729   22.2363 O   0  0  0  0  0  0  0  0  0  0  0  0
  -23.9572  -21.5691   14.1212 O   0  0  0  0  0  0  0  0  0  0  0  0
  -25.9779  -11.3759   20.6587 O   0  0  0  0  0  0  0  0  0  0  0  0
  -28.1372  -26.4246   20.1282 O   0  0  0  0  0  0  0  0  0  1  0  0
  -23.5361   -6.6502   22.1109 F   0  0  0  0  0  0  0  0  0  0  0  0
  -26.5777   -9.0114   19.3580 F   0  0  0  0  0  0  0  0  0  0  0  0
  1  2  1  0  0  0  0
  1  7  2  0  0  0  0
  2  8  2  0  0  0  0
  3  4  1  0  0  0  0
  3 10  2  0  0  0  0
  4 11  2  0  0  0  0
  5 12  2  0  0  0  0
  5 19  1  0  0  0  0
  6 13  1  0  0  0  0
  6 19  2  0  0  0  0
  7 21  1  0  0  0  0
  8 23  1  0  0  0  0
  9 14  2  0  0  0  0
  9 22  1  0  0  0  0
 10 25  1  0  0  0  0
 11 26  1  0  0  0  0
 12 27  1  0  0  0  0
 13 27  2  0  0  0  0
 14 28  1  0  0  0  0
 15 16  2  0  0  0  0
 15 29  1  0  0  0  0
 16 30  1  0  0  0  0
 17 24  1  0  0  0  0
 17 28  2  0  0  0  0
 18 30  2  0  0  0  0
 18 31  1  0  0  0  0
 19 32  1  0  0  0  0
 20 32  1  0  0  0  0
 20 33  2  0  0  0  0
 20 34  1  0  0  0  0
 21 23  2  0  0  0  0
 21 41  1  0  0  0  0
 22 24  2  0  0  0  0
 22 42  1  0  0  0  0
 23 50  1  0  0  0  0
 24 43  1  0  0  0  0
 25 26  2  0  0  0  0
 25 67  1  0  0  0  0
 26 79  1  0  0  0  0
 27 92  1  0  0  0  0
 28 93  1  0  0  0  0
 29 31  2  0  0  0  0
 29 92  1  0  0  0  0
 30 94  1  0  0  0  0
 31 95  1  0  0  0  0
 32 72  2  0  0  0  0
 33 73  1  0  0  0  0
 33 76  1  0  0  0  0
 34 77  1  0  0  0  0
 34 86  2  0  0  0  0
 35 51  1  0  0  0  0
 35 80  1  0  0  0  0
 35 87  2  0  0  0  0
 36 68  1  0  0  0  0
 36 74  1  0  0  0  0
 36 88  2  0  0  0  0
 37 60  1  0  0  0  0
 37 81  1  0  0  0  0
 37 89  2  0  0  0  0
 38 69  1  0  0  0  0
 38 82  1  0  0  0  0
 38 90  2  0  0  0  0
 39 75  1  0  0  0  0
 39 79  1  0  0  0  0
 39 91  2  0  0  0  0
 40 78  1  0  0  0  0
 40 83  1  0  0  0  0
 40 84  2  0  0  0  0
 41 44  1  0  0  0  0
 42 51  1  0  0  0  0
 43 74  1  0  0  0  0
 44 46  1  0  0  0  0
 45 47  1  0  0  0  0
 45 48  1  0  0  0  0
 46 50  1  0  0  0  0
 47 52  1  0  0  0  0
 48 75  1  0  0  0  0
 49 52  1  0  0  0  0
 49 75  1  0  0  0  0
 50 80  1  0  0  0  0
 51 74  1  0  0  0  0
 52 73  1  0  0  0  0
 53 69  1  0  0  0  0
 54 70  1  0  0  0  0
 55 70  1  0  0  0  0
 56 71  1  0  0  0  0
 57 71  1  0  0  0  0
 58 71  1  0  0  0  0
 59 85  1  0  0  0  0
 60 61  1  0  0  0  0
 61 64  1  0  0  0  0
 62 65  1  0  0  0  0
 62 66  1  0  0  0  0
 63 67  1  0  0  0  0
 63 70  1  0  0  0  0
 64 83  1  0  0  0  0
 65 84  1  0  0  0  0
 66 93  1  0  0  0  0
 67 81  1  0  0  0  0
 68 71  1  0  0  0  0
 68 82  1  0  0  0  0
 69 85  1  0  0  0  0
 72 73  1  0  0  0  0
M  CHG  2  84   1  85   1
M  ISO  4  39 100  66 101  79 100  93 101
M  END
> <Batch ID>
0004

> <Smiles>
CNC(C)C(=O)NC(C(=O)N1Cc2cc([101O:1][101CH2:1]CCNC(=N)NCCCC(=O)NC(CC(C)C)c3ccccc3[100NH:0][100C:0](=O)N3CCCC(n4nc(-c5ccc(Oc6ccc(F)cc6F)cc5)c(C(N)=O)c4N)C3)ccc2CC1C(=O)NC1CCCc2ccccc21)C(C)(C)C

> <Shape>
0.246

> <Color>
0.071

> <Negative vol penalty>
0.000

$$$$

  -OEChem-04052315243D

 83 91  0     1  0  0  0  0  0999 V2000
  -23.4817  -36.0489   22.6496 C   0  0  0  0  0  0  0  0  0  0  0  0
  -24.4603  -35.0632   22.5705 C   0  0  0  0  0  0  0  0  0  0  0  0
  -32.5093  -22.5140   21.4042 C   0  0  0  0  0  0  0  0  0  0  0  0
  -26.1302  -13.0912   19.5973 C   0  0  0  0  0  0  0  0  0  0  0  0
  -24.1497  -13.3278   20.9607 C   0  0  0  0  0  0  0  0  0  0  0  0
  -22.1960  -35.7203   23.0774 C   0  0  0  0  0  0  0  0  0  0  0  0
  -24.1540  -33.7486   22.9203 C   0  0  0  0  0  0  0  0  0  0  0  0
  -25.9678  -30.3822   19.6002 C   0  0  0  0  0  0  0  0  0  0  0  0
  -32.6210  -23.3295   20.2781 C   0  0  0  0  0  0  0  0  0  0  0  0
  -31.2725  -21.9707   21.7520 C   0  0  0  0  0  0  0  0  0  0  0  0
  -26.2821  -11.7792   20.0456 C   0  0  0  0  0  0  0  0  0  0  0  0
  -24.3016  -12.0157   21.4090 C   0  0  0  0  0  0  0  0  0  0  0  0
  -27.3263  -30.0790   19.6787 C   0  0  0  0  0  0  0  0  0  0  0  0
  -23.9629   -8.6100   22.6358 C   0  0  0  0  0  0  0  0  0  0  0  0
  -22.8270   -7.8015   22.6745 C   0  0  0  0  0  0  0  0  0  0  0  0
  -26.7990  -28.0551   20.8807 C   0  0  0  0  0  0  0  0  0  0  0  0
  -30.2591  -23.0585   19.8476 C   0  0  0  0  0  0  0  0  0  0  0  0
  -22.5400   -8.0909   20.2931 C   0  0  0  0  0  0  0  0  0  0  0  0
  -25.0640  -13.8656   20.0549 C   0  0  0  0  0  0  0  0  0  0  0  0
  -24.1833  -15.6567   18.4662 C   0  0  0  0  0  0  0  0  0  0  0  0
  -21.8712  -34.3991   23.4234 C   0  0  0  0  0  0  0  0  0  0  0  0
  -25.0137  -29.5282   20.1719 C   0  0  0  0  0  0  0  0  0  0  0  0
  -22.8632  -33.4023   23.3544 C   0  0  0  0  0  0  0  0  0  0  0  0
  -25.4288  -28.3484   20.8059 C   0  0  0  0  0  0  0  0  0  0  0  0
  -31.4959  -23.6018   19.4998 C   0  0  0  0  0  0  0  0  0  0  0  0
  -25.3679  -11.2414   20.9515 C   0  0  0  0  0  0  0  0  0  0  0  0
  -27.7423  -28.9167   20.3215 C   0  0  0  0  0  0  0  0  0  0  0  0
  -30.1474  -22.2430   20.9737 C   0  0  0  0  0  0  0  0  0  0  0  0
  -24.3873   -9.1591   21.4258 C   0  0  0  0  0  0  0  0  0  0  0  0
  -22.1155   -7.5419   21.5031 C   0  0  0  0  0  0  0  0  0  0  0  0
  -23.6759   -8.8995   20.2545 C   0  0  0  0  0  0  0  0  0  0  0  0
  -24.9068  -15.2211   19.5925 C   0  0  0  0  0  0  0  0  0  0  0  0
  -24.3425  -17.0209   18.4623 C   0  0  0  0  0  0  0  0  0  0  0  0
  -23.4341  -14.8961   17.5092 C   0  0  0  0  0  0  0  0  0  0  0  0
  -22.8407  -29.8138   22.4742 C   0  0  0  0  0  0  0  0  0  0  0  0
  -21.9809  -26.8432   21.4951 C   0  0  0  0  0  0  0  0  0  0  0  0
  -30.6435  -26.7183   18.7914 C   0  0  0  0  0  0  0  0  0  0  0  0
  -22.8684  -23.9308   19.9531 C   0  0  0  0  0  0  0  0  0  0  0  0
  -28.6496  -20.4504   20.7465 C   0  0  0  0  0  0  0  0  0  0  0  0
  -20.4806  -34.1011   23.9254 C   0  0  0  0  0  0  0  0  0  0  0  0
  -23.5504  -29.8560   20.0554 C   0  0  0  0  0  0  0  0  0  0  0  0
  -24.4431  -27.3882   21.4182 C   0  0  0  0  0  0  0  0  0  0  0  0
  -20.1367  -32.6138   23.9197 C   0  0  0  0  0  0  0  0  0  0  0  0
  -25.0787  -20.7252   21.3855 C   0  0  0  0  0  0  0  0  0  0  0  0
  -21.2775  -31.7998   24.5221 C   0  0  0  0  0  0  0  0  0  0  0  0
  -24.5747  -19.3576   20.9253 C   0  0  0  0  0  0  0  0  0  0  0  0
  -26.4671  -20.6306   22.0118 C   0  0  0  0  0  0  0  0  0  0  0  0
  -26.9807  -18.6136   20.6613 C   0  0  0  0  0  0  0  0  0  0  0  0
  -22.5629  -31.9602   23.7015 C   0  0  1  0  0  0  0  0  0  0  0  0
  -22.6986  -29.1745   21.1218 C   0  0  1  0  0  0  0  0  0  0  0  0
  -25.5957  -18.6770   19.9965 C   0  0  1  0  0  0  0  0  0  0  0  0
  -22.5888  -21.6451   18.9558 C   0  0  0  0  0  0  0  0  0  0  0  0
  -22.2726  -25.9392   24.3947 C   0  0  0  0  0  0  0  0  0  0  0  0
  -22.2991  -23.5716   23.5809 C   0  0  0  0  0  0  0  0  0  0  0  0
  -20.2865  -24.9962   23.2027 C   0  0  0  0  0  0  0  0  0  0  0  0
  -22.1522  -25.0461   17.3070 C   0  0  0  0  0  0  0  0  0  0  0  0
  -31.6163  -24.4800   18.2881 C   0  0  0  0  0  0  0  0  0  0  0  0
  -31.0741  -28.1280   19.1655 C   0  0  0  0  0  0  0  0  0  0  0  0
  -29.9015  -29.0811   19.3383 C   0  0  0  0  0  0  0  0  0  1  0  0
  -22.3860  -25.4367   21.8647 C   0  0  1  0  0  0  0  0  0  0  0  0
  -22.1773  -23.1073   18.8814 C   0  0  2  0  0  0  0  0  0  0  0  0
  -21.8300  -25.0048   23.2510 C   0  0  0  0  0  0  0  0  0  0  0  0
  -25.4830  -16.2271   20.2559 N   0  0  0  0  0  0  0  0  0  0  0  0
  -25.1217  -17.3083   19.5442 N   0  0  0  0  0  0  0  0  0  0  0  0
  -23.0239  -27.7560   21.2837 N   0  0  0  0  0  0  0  0  0  0  0  0
  -27.4019  -19.9391   21.1185 N   0  0  0  0  0  0  0  0  0  0  0  0
  -23.8907  -17.9907   17.6390 N   0  0  0  0  0  0  0  0  0  0  0  0
  -23.3737  -13.5042   17.6617 N   0  0  0  0  0  0  0  0  0  0  0  0
  -22.5009  -31.1529   22.5020 N   0  0  0  0  0  0  0  0  0  0  0  0
  -31.7359  -25.8762   18.6417 N   0  0  0  0  0  0  0  0  0  0  0  0
  -21.9609  -24.5854   20.7588 N   0  0  0  0  0  0  0  0  0  0  0  0
  -22.5230  -23.6245   17.5272 N   0  3  0  0  0  0  0  0  0  0  0  0
  -22.8495  -15.4332   16.5379 O   0  0  0  0  0  0  0  0  0  0  0  0
  -23.2285  -29.1415   23.4225 O   0  0  0  0  0  0  0  0  0  0  0  0
  -20.7834  -27.1198   21.3905 O   0  0  0  0  0  0  0  0  0  0  0  0
  -29.4695  -26.3891   18.6453 O   0  0  0  0  0  0  0  0  0  0  0  0
  -24.0910  -23.9849   20.0667 O   0  0  0  0  0  0  0  0  0  0  0  0
  -29.4380  -19.8748   19.9973 O   0  0  0  0  0  0  0  0  0  0  0  0
  -25.5157   -9.9610   21.3890 O   0  0  0  0  0  0  0  0  0  0  0  0
  -28.9075  -21.6977   21.3221 O   0  0  0  0  0  0  0  0  0  0  0  0
  -29.0678  -28.6187   20.4001 O   0  0  0  0  0  0  0  0  0  1  0  0
  -21.0256   -6.7641   21.5401 F   0  0  0  0  0  0  0  0  0  0  0  0
  -24.0795   -9.4232   19.0888 F   0  0  0  0  0  0  0  0  0  0  0  0
  1  2  1  0  0  0  0
  1  6  2  0  0  0  0
  2  7  2  0  0  0  0
  3  9  2  0  0  0  0
  3 10  1  0  0  0  0
  4 11  2  0  0  0  0
  4 19  1  0  0  0  0
  5 12  1  0  0  0  0
  5 19  2  0  0  0  0
  6 21  1  0  0  0  0
  7 23  1  0  0  0  0
  8 13  2  0  0  0  0
  8 22  1  0  0  0  0
  9 25  1  0  0  0  0
 10 28  2  0  0  0  0
 11 26  1  0  0  0  0
 12 26  2  0  0  0  0
 13 27  1  0  0  0  0
 14 15  2  0  0  0  0
 14 29  1  0  0  0  0
 15 30  1  0  0  0  0
 16 24  1  0  0  0  0
 16 27  2  0  0  0  0
 17 25  2  0  0  0  0
 17 28  1  0  0  0  0
 18 30  2  0  0  0  0
 18 31  1  0  0  0  0
 19 32  1  0  0  0  0
 20 32  1  0  0  0  0
 20 33  2  0  0  0  0
 20 34  1  0  0  0  0
 21 23  2  0  0  0  0
 21 40  1  0  0  0  0
 22 24  2  0  0  0  0
 22 41  1  0  0  0  0
 23 49  1  0  0  0  0
 24 42  1  0  0  0  0
 25 57  1  0  0  0  0
 26 79  1  0  0  0  0
 27 81  1  0  0  0  0
 28 80  1  0  0  0  0
 29 31  2  0  0  0  0
 29 79  1  0  0  0  0
 30 82  1  0  0  0  0
 31 83  1  0  0  0  0
 32 63  2  0  0  0  0
 33 64  1  0  0  0  0
 33 67  1  0  0  0  0
 34 68  1  0  0  0  0
 34 73  2  0  0  0  0
 35 50  1  0  0  0  0
 35 69  1  0  0  0  0
 35 74  2  0  0  0  0
 36 60  1  0  0  0  0
 36 65  1  0  0  0  0
 36 75  2  0  0  0  0
 37 58  1  0  0  0  0
 37 70  1  0  0  0  0
 37 76  2  0  0  0  0
 38 61  1  0  0  0  0
 38 71  1  0  0  0  0
 38 77  2  0  0  0  0
 39 66  1  0  0  0  0
 39 78  2  0  0  0  0
 39 80  1  0  0  0  0
 40 43  1  0  0  0  0
 41 50  1  0  0  0  0
 42 65  1  0  0  0  0
 43 45  1  0  0  0  0
 44 46  1  0  0  0  0
 44 47  1  0  0  0  0
 45 49  1  0  0  0  0
 46 51  1  0  0  0  0
 47 66  1  0  0  0  0
 48 51  1  0  0  0  0
 48 66  1  0  0  0  0
 49 69  1  0  0  0  0
 50 65  1  0  0  0  0
 51 64  1  0  0  0  0
 52 61  1  0  0  0  0
 53 62  1  0  0  0  0
 54 62  1  0  0  0  0
 55 62  1  0  0  0  0
 56 72  1  0  0  0  0
 57 70  1  0  0  0  0
 58 59  1  0  0  0  0
 59 81  1  0  0  0  0
 60 62  1  0  0  0  0
 60 71  1  0  0  0  0
 61 72  1  0  0  0  0
 63 64  1  0  0  0  0
M  CHG  1  72   1
M  ISO  4  39 100  59 101  80 100  81 101
M  END
> <Batch ID>
0004

> <Smiles>
CNC(C)C(=O)NC(C(=O)N1Cc2cc([101O:1][101CH2:1]CC(=O)NCc3cccc([100O:0][100C:0](=O)N4CCCC(n5nc(-c6ccc(Oc7ccc(F)cc7F)cc6)c(C(N)=O)c5N)C4)c3)ccc2CC1C(=O)NC1CCCc2ccccc21)C(C)(C)C

> <Shape>
0.232

> <Color>
0.076

> <Negative vol penalty>
0.000

$$$$

  -OEChem-04052315243D

 82 90  0     1  0  0  0  0  0999 V2000
  -23.1973  -20.6407   22.3230 C   0  0  0  0  0  0  0  0  0  0  0  0
  -24.3582  -21.3983   22.2052 C   0  0  0  0  0  0  0  0  0  0  0  0
  -24.8048  -12.1781   22.9824 C   0  0  0  0  0  0  0  0  0  0  0  0
  -23.5852  -11.5142   21.0054 C   0  0  0  0  0  0  0  0  0  0  0  0
  -21.9967  -21.1216   21.8024 C   0  0  0  0  0  0  0  0  0  0  0  0
  -24.3193  -22.6368   21.5656 C   0  0  0  0  0  0  0  0  0  0  0  0
  -26.8565  -26.2125   24.0998 C   0  0  0  0  0  0  0  0  0  0  0  0
  -23.9618  -11.3910   23.7668 C   0  0  0  0  0  0  0  0  0  0  0  0
  -22.7421  -10.7271   21.7898 C   0  0  0  0  0  0  0  0  0  0  0  0
  -28.2462  -26.2069   23.9886 C   0  0  0  0  0  0  0  0  0  0  0  0
  -20.4930   -8.2591   23.2281 C   0  0  0  0  0  0  0  0  0  0  0  0
  -20.1969   -6.9737   22.7746 C   0  0  0  0  0  0  0  0  0  0  0  0
  -28.1168  -27.9778   22.3557 C   0  0  0  0  0  0  0  0  0  0  0  0
  -22.5459   -6.4116   22.8344 C   0  0  0  0  0  0  0  0  0  0  0  0
  -24.6165  -12.2397   21.6017 C   0  0  0  0  0  0  0  0  0  0  0  0
  -26.6921  -12.6597   20.1792 C   0  0  0  0  0  0  0  0  0  0  0  0
  -21.9410  -22.3709   21.1646 C   0  0  0  0  0  0  0  0  0  0  0  0
  -26.0845  -27.0948   23.3304 C   0  0  0  0  0  0  0  0  0  0  0  0
  -23.1170  -23.1342   21.0348 C   0  0  0  0  0  0  0  0  0  0  0  0
  -26.7176  -27.9944   22.4608 C   0  0  0  0  0  0  0  0  0  0  0  0
  -22.9304  -10.6655   23.1705 C   0  0  0  0  0  0  0  0  0  0  0  0
  -28.8764  -27.0876   23.1144 C   0  0  0  0  0  0  0  0  0  0  0  0
  -21.8155   -8.6209   23.4847 C   0  0  0  0  0  0  0  0  0  0  0  0
  -21.2234   -6.0500   22.5778 C   0  0  0  0  0  0  0  0  0  0  0  0
  -22.8419   -7.6971   23.2879 C   0  0  0  0  0  0  0  0  0  0  0  0
  -25.4867  -13.0531   20.7909 C   0  0  0  0  0  0  0  0  0  0  0  0
  -27.1310  -13.7870   19.5289 C   0  0  0  0  0  0  0  0  0  0  0  0
  -27.3556  -11.3888   20.1972 C   0  0  0  0  0  0  0  0  0  0  0  0
  -23.8480  -26.7556   21.0972 C   0  0  0  0  0  0  0  0  0  0  0  0
  -23.6355  -29.9807   21.3730 C   0  0  0  0  0  0  0  0  0  0  0  0
  -31.0578  -24.7014   20.4933 C   0  0  0  0  0  0  0  0  0  0  0  0
  -25.1336  -32.9183   22.2521 C   0  0  0  0  0  0  0  0  0  0  0  0
  -28.1535  -19.0489   19.2492 C   0  0  0  0  0  0  0  0  0  0  0  0
  -20.6298  -22.8277   20.5759 C   0  0  0  0  0  0  0  0  0  0  0  0
  -24.5880  -27.1068   23.4816 C   0  0  0  0  0  0  0  0  0  0  0  0
  -25.9355  -28.9755   21.6276 C   0  0  0  0  0  0  0  0  0  0  0  0
  -20.5972  -24.3173   20.2437 C   0  0  0  0  0  0  0  0  0  0  0  0
  -24.8141  -18.1785   18.5968 C   0  0  0  0  0  0  0  0  0  0  0  0
  -21.8665  -24.7270   19.5034 C   0  0  0  0  0  0  0  0  0  0  0  0
  -24.7828  -16.7234   19.0634 C   0  0  0  0  0  0  0  0  0  0  0  0
  -28.3546  -22.1937   20.8127 C   0  0  0  0  0  0  0  0  0  0  0  0
  -30.2155  -21.8293   19.1467 C   0  0  0  0  0  0  0  0  0  0  0  0
  -25.6354  -19.0638   19.5359 C   0  0  0  0  0  0  0  0  0  0  0  0
  -27.4167  -21.3811   19.9156 C   0  0  0  0  0  0  0  0  0  0  0  0
  -29.2357  -21.0509   18.2736 C   0  0  0  0  0  0  0  0  0  0  0  0
  -26.9772  -17.1112   20.2475 C   0  0  0  0  0  0  0  0  0  0  0  0
  -23.1101  -24.4936   20.3697 C   0  0  1  0  0  0  0  0  0  0  0  0
  -23.8698  -27.6940   22.2705 C   0  0  1  0  0  0  0  0  0  0  0  0
  -26.2068  -16.1862   19.2926 C   0  0  1  0  0  0  0  0  0  0  0  0
  -29.4748  -22.8571   20.0071 C   0  0  0  0  0  0  0  0  0  0  0  0
  -24.7233  -35.3928   22.3298 C   0  0  0  0  0  0  0  0  0  0  0  0
  -24.0406  -30.1402   18.3530 C   0  0  0  0  0  0  0  0  0  0  0  0
  -24.5685  -32.5727   18.6224 C   0  0  0  0  0  0  0  0  0  0  0  0
  -22.3164  -31.7091   19.2585 C   0  0  0  0  0  0  0  0  0  0  0  0
  -25.4818  -33.0011   25.1899 C   0  0  0  0  0  0  0  0  0  0  0  0
  -31.9554  -25.2275   21.5990 C   0  0  0  0  0  0  0  0  0  0  0  0
  -32.1148  -26.7427   21.5493 C   0  0  0  0  0  0  0  0  0  0  0  0
  -30.7840  -27.4550   21.7425 C   0  0  0  0  0  0  0  0  0  1  0  0
  -24.3110  -31.1572   20.7107 C   0  0  1  0  0  0  0  0  0  0  0  0
  -24.6495  -34.0823   23.0978 C   0  0  2  0  0  0  0  0  0  0  0  0
  -23.8240  -31.3751   19.2503 C   0  0  0  0  0  0  0  0  0  0  0  0
  -25.1796  -14.3306   20.5508 N   0  0  0  0  0  0  0  0  0  0  0  0
  -26.1984  -14.7497   19.7810 N   0  0  0  0  0  0  0  0  0  0  0  0
  -24.4744  -28.9442   21.8062 N   0  0  0  0  0  0  0  0  0  0  0  0
  -26.9705  -18.4907   19.7562 N   0  0  0  0  0  0  0  0  0  0  0  0
  -28.1791  -20.4416   19.0814 N   0  0  0  0  0  0  0  0  0  0  0  0
  -28.2199  -14.0388   18.7717 N   0  0  0  0  0  0  0  0  0  0  0  0
  -26.7672  -10.3379   20.9140 N   0  0  0  0  0  0  0  0  0  0  0  0
  -23.2412  -25.5420   21.3587 N   0  0  0  0  0  0  0  0  0  0  0  0
  -30.3890  -23.5493   20.8816 N   0  0  0  0  0  0  0  0  0  0  0  0
  -24.0936  -32.3008   21.5900 N   0  0  0  0  0  0  0  0  0  0  0  0
  -25.4817  -34.2106   24.3274 N   0  3  0  0  0  0  0  0  0  0  0  0
  -28.4466  -11.1955   19.6091 O   0  0  0  0  0  0  0  0  0  0  0  0
  -24.3436  -27.1072   20.0331 O   0  0  0  0  0  0  0  0  0  0  0  0
  -22.4093  -29.9846   21.5076 O   0  0  0  0  0  0  0  0  0  0  0  0
  -30.9496  -25.2435   19.3967 O   0  0  0  0  0  0  0  0  0  0  0  0
  -26.3165  -32.5920   22.1827 O   0  0  0  0  0  0  0  0  0  0  0  0
  -29.1299  -18.3446   18.9634 O   0  0  0  0  0  0  0  0  0  0  0  0
  -22.1077   -9.8971   23.9356 O   0  0  0  0  0  0  0  0  0  0  0  0
  -30.2427  -27.0838   23.0027 O   0  0  0  0  0  0  0  0  0  1  0  0
  -20.9388   -4.8151   22.1438 F   0  0  0  0  0  0  0  0  0  0  0  0
  -24.1143   -8.0384   23.5338 F   0  0  0  0  0  0  0  0  0  0  0  0
  1  2  1  0  0  0  0
  1  5  2  0  0  0  0
  2  6  2  0  0  0  0
  3  8  2  0  0  0  0
  3 15  1  0  0  0  0
  4  9  1  0  0  0  0
  4 15  2  0  0  0  0
  5 17  1  0  0  0  0
  6 19  1  0  0  0  0
  7 10  2  0  0  0  0
  7 18  1  0  0  0  0
  8 21  1  0  0  0  0
  9 21  2  0  0  0  0
 10 22  1  0  0  0  0
 11 12  2  0  0  0  0
 11 23  1  0  0  0  0
 12 24  1  0  0  0  0
 13 20  1  0  0  0  0
 13 22  2  0  0  0  0
 14 24  2  0  0  0  0
 14 25  1  0  0  0  0
 15 26  1  0  0  0  0
 16 26  1  0  0  0  0
 16 27  2  0  0  0  0
 16 28  1  0  0  0  0
 17 19  2  0  0  0  0
 17 34  1  0  0  0  0
 18 20  2  0  0  0  0
 18 35  1  0  0  0  0
 19 47  1  0  0  0  0
 20 36  1  0  0  0  0
 21 79  1  0  0  0  0
 22 80  1  0  0  0  0
 23 25  2  0  0  0  0
 23 79  1  0  0  0  0
 24 81  1  0  0  0  0
 25 82  1  0  0  0  0
 26 62  2  0  0  0  0
 27 63  1  0  0  0  0
 27 67  1  0  0  0  0
 28 68  1  0  0  0  0
 28 73  2  0  0  0  0
 29 48  1  0  0  0  0
 29 69  1  0  0  0  0
 29 74  2  0  0  0  0
 30 59  1  0  0  0  0
 30 64  1  0  0  0  0
 30 75  2  0  0  0  0
 31 56  1  0  0  0  0
 31 70  1  0  0  0  0
 31 76  2  0  0  0  0
 32 60  1  0  0  0  0
 32 71  1  0  0  0  0
 32 77  2  0  0  0  0
 33 65  1  0  0  0  0
 33 66  1  0  0  0  0
 33 78  2  0  0  0  0
 34 37  1  0  0  0  0
 35 48  1  0  0  0  0
 36 64  1  0  0  0  0
 37 39  1  0  0  0  0
 38 40  1  0  0  0  0
 38 43  1  0  0  0  0
 39 47  1  0  0  0  0
 40 49  1  0  0  0  0
 41 44  1  0  0  0  0
 41 50  1  0  0  0  0
 42 45  1  0  0  0  0
 42 50  1  0  0  0  0
 43 65  1  0  0  0  0
 44 66  1  0  0  0  0
 45 66  1  0  0  0  0
 46 49  1  0  0  0  0
 46 65  1  0  0  0  0
 47 69  1  0  0  0  0
 48 64  1  0  0  0  0
 49 63  1  0  0  0  0
 50 70  1  0  0  0  0
 51 60  1  0  0  0  0
 52 61  1  0  0  0  0
 53 61  1  0  0  0  0
 54 61  1  0  0  0  0
 55 72  1  0  0  0  0
 56 57  1  0  0  0  0
 57 58  1  0  0  0  0
 58 80  1  0  0  0  0
 59 61  1  0  0  0  0
 59 71  1  0  0  0  0
 60 72  1  0  0  0  0
 62 63  1  0  0  0  0
M  CHG  1  72   1
M  ISO  4  33 100  58 101  66 100  80 101
M  END
> <Batch ID>
0004

> <Smiles>
CNC(C)C(=O)NC(C(=O)N1Cc2cc([101O:1][101CH2:1]CCC(=O)NC3CC[100N:0]([100C:0](=O)N4CCCC(n5nc(-c6ccc(Oc7ccc(F)cc7F)cc6)c(C(N)=O)c5N)C4)CC3)ccc2CC1C(=O)NC1CCCc2ccccc21)C(C)(C)C

> <Shape>
0.233

> <Color>
0.047

> <Negative vol penalty>
0.000

$$$$

  -OEChem-04052315243D

 90 98  0     1  0  0  0  0  0999 V2000
  -25.4587  -22.7683   20.6102 C   0  0  0  0  0  0  0  0  0  0  0  0
  -26.0582  -22.8959   21.8580 C   0  0  0  0  0  0  0  0  0  0  0  0
  -23.0011   -9.8928   19.9818 C   0  0  0  0  0  0  0  0  0  0  0  0
  -23.7244   -9.9466   22.2864 C   0  0  0  0  0  0  0  0  0  0  0  0
  -25.9273  -23.5214   19.5357 C   0  0  0  0  0  0  0  0  0  0  0  0
  -27.1187  -23.7853   22.0348 C   0  0  0  0  0  0  0  0  0  0  0  0
  -30.6175  -24.8600   26.9062 C   0  0  0  0  0  0  0  0  0  0  0  0
  -31.3822  -18.9886   20.5460 C   0  0  0  0  0  0  0  0  0  0  0  0
  -29.7262  -19.2480   22.2859 C   0  0  0  0  0  0  0  0  0  0  0  0
  -31.1922  -17.6070   20.5710 C   0  0  0  0  0  0  0  0  0  0  0  0
  -29.5360  -17.8664   22.3109 C   0  0  0  0  0  0  0  0  0  0  0  0
  -22.2345   -8.7585   20.2489 C   0  0  0  0  0  0  0  0  0  0  0  0
  -22.9577   -8.8123   22.5535 C   0  0  0  0  0  0  0  0  0  0  0  0
  -31.8248  -24.3976   27.4282 C   0  0  0  0  0  0  0  0  0  0  0  0
  -23.2027   -5.4728   22.0857 C   0  0  0  0  0  0  0  0  0  0  0  0
  -23.7897   -4.4566   22.8395 C   0  0  0  0  0  0  0  0  0  0  0  0
  -32.9698  -26.2656   26.4188 C   0  0  0  0  0  0  0  0  0  0  0  0
  -22.0644   -4.7013   24.5130 C   0  0  0  0  0  0  0  0  0  0  0  0
  -23.7461  -10.4868   21.0006 C   0  0  0  0  0  0  0  0  0  0  0  0
  -24.1313  -13.0022   20.8219 C   0  0  0  0  0  0  0  0  0  0  0  0
  -27.0021  -24.4111   19.6973 C   0  0  0  0  0  0  0  0  0  0  0  0
  -30.5790  -26.0246   26.1260 C   0  0  0  0  0  0  0  0  0  0  0  0
  -27.5904  -24.5719   20.9683 C   0  0  0  0  0  0  0  0  0  0  0  0
  -31.7604  -26.7420   25.8901 C   0  0  0  0  0  0  0  0  0  0  0  0
  -30.6493  -19.8091   21.4035 C   0  0  0  0  0  0  0  0  0  0  0  0
  -30.2690  -17.0459   21.4534 C   0  0  0  0  0  0  0  0  0  0  0  0
  -22.2127   -8.2183   21.5347 C   0  0  0  0  0  0  0  0  0  0  0  0
  -33.0016  -25.0988   27.1822 C   0  0  0  0  0  0  0  0  0  0  0  0
  -22.0466   -6.1034   22.5456 C   0  0  0  0  0  0  0  0  0  0  0  0
  -23.2206   -4.0708   24.0531 C   0  0  0  0  0  0  0  0  0  0  0  0
  -21.4774   -5.7176   23.7592 C   0  0  0  0  0  0  0  0  0  0  0  0
  -24.5387  -11.6581   20.7252 C   0  0  0  0  0  0  0  0  0  0  0  0
  -25.2413  -13.7245   20.4576 C   0  0  0  0  0  0  0  0  0  0  0  0
  -22.8630  -13.5490   21.2067 C   0  0  0  0  0  0  0  0  0  0  0  0
  -29.7632  -26.6893   23.1266 C   0  0  0  0  0  0  0  0  0  0  0  0
  -30.2350  -29.7512   24.0883 C   0  0  0  0  0  0  0  0  0  0  0  0
  -34.2300  -22.0561   24.9915 C   0  0  0  0  0  0  0  0  0  0  0  0
  -31.7524  -31.9057   26.2569 C   0  0  0  0  0  0  0  0  0  0  0  0
  -30.7205  -14.6864   20.6949 C   0  0  0  0  0  0  0  0  0  0  0  0
  -27.4640  -25.2074   18.5024 C   0  0  0  0  0  0  0  0  0  0  0  0
  -29.2646  -26.5248   25.5924 C   0  0  0  0  0  0  0  0  0  0  0  0
  -31.7696  -28.0090   25.0758 C   0  0  0  0  0  0  0  0  0  0  0  0
  -28.8645  -25.7852   18.6782 C   0  0  0  0  0  0  0  0  0  0  0  0
  -29.6044  -12.2306   18.3710 C   0  0  0  0  0  0  0  0  0  0  0  0
  -28.9688  -26.4960   20.0193 C   0  0  0  0  0  0  0  0  0  0  0  0
  -28.1535  -11.9733   18.7843 C   0  0  0  0  0  0  0  0  0  0  0  0
  -30.5039  -12.4755   19.5812 C   0  0  0  0  0  0  0  0  0  0  0  0
  -28.5873  -13.2658   20.9122 C   0  0  0  0  0  0  0  0  0  0  0  0
  -28.7651  -25.5105   21.1770 C   0  0  1  0  0  0  0  0  0  0  0  0
  -29.4206  -27.4403   24.3821 C   0  0  1  0  0  0  0  0  0  0  0  0
  -27.6307  -13.0779   19.7235 C   0  0  2  0  0  0  0  0  0  0  0  0
  -31.9766  -34.3519   26.7697 C   0  0  0  0  0  0  0  0  0  0  0  0
  -30.5238  -21.8730   19.9588 C   0  0  0  0  0  0  0  0  0  0  0  0
  -29.9358  -22.1077   22.3524 C   0  0  0  0  0  0  0  0  0  0  0  0
  -32.1275  -30.0725   21.7165 C   0  0  0  0  0  0  0  0  0  0  0  0
  -33.0232  -32.1436   22.8011 C   0  0  0  0  0  0  0  0  0  0  0  0
  -30.6249  -32.0295   22.1248 C   0  0  0  0  0  0  0  0  0  0  0  0
  -36.6124  -22.6742   24.4572 C   0  0  0  0  0  0  0  0  0  0  0  0
  -30.5852  -31.5655   28.9552 C   0  0  0  0  0  0  0  0  0  0  0  0
  -34.0284  -22.0205   23.4926 C   0  0  0  0  0  0  0  0  0  0  0  0
  -36.3887  -23.8445   27.2018 C   0  0  0  0  0  0  0  0  0  0  0  0
  -35.8900  -22.4618   26.8043 C   0  0  0  0  0  0  0  0  0  0  0  0
  -32.3353  -21.7149   21.6819 C   0  0  0  0  0  0  0  0  0  0  0  0
  -35.3627  -24.9414   26.9446 C   0  0  0  0  0  0  0  0  0  1  0  0
  -31.4151  -30.6922   24.1195 C   0  0  1  0  0  0  0  0  0  0  0  0
  -31.2098  -33.0718   27.0632 C   0  0  2  0  0  0  0  0  0  0  0  0
  -30.8596  -21.3370   21.3758 C   0  0  0  0  0  0  0  0  0  0  0  0
  -31.7981  -31.2095   22.7043 C   0  0  0  0  0  0  0  0  0  0  0  0
  -25.8083  -11.5313   20.3302 N   0  0  0  0  0  0  0  0  0  0  0  0
  -26.2083  -12.8049   20.1754 N   0  0  0  0  0  0  0  0  0  0  0  0
  -30.4604  -28.4541   24.5705 N   0  0  0  0  0  0  0  0  0  0  0  0
  -29.9480  -13.5374   20.4228 N   0  0  0  0  0  0  0  0  0  0  0  0
  -25.4748  -15.0501   20.3541 N   0  0  0  0  0  0  0  0  0  0  0  0
  -21.8310  -12.6651   21.5504 N   0  0  0  0  0  0  0  0  0  0  0  0
  -30.0755  -15.6424   21.4788 N   0  0  0  0  0  0  0  0  0  0  0  0
  -28.6627  -26.2512   22.4150 N   0  0  0  0  0  0  0  0  0  0  0  0
  -31.0718  -31.7459   25.0683 N   0  0  0  0  0  0  0  0  0  0  0  0
  -35.5366  -22.3869   25.4137 N   0  0  0  0  0  0  0  0  0  0  0  0
  -31.3136  -32.7857   28.5220 N   0  3  0  0  0  0  0  0  0  0  0  0
  -32.6185  -21.7101   23.1422 N   0  3  0  0  0  0  0  0  0  0  0  0
  -22.6461  -14.7843   21.2288 O   0  0  0  0  0  0  0  0  0  0  0  0
  -30.9390  -26.5211   22.8250 O   0  0  0  0  0  0  0  0  0  0  0  0
  -29.1512  -30.1544   23.6588 O   0  0  0  0  0  0  0  0  0  0  0  0
  -33.2934  -21.8068   25.7549 O   0  0  0  0  0  0  0  0  0  0  0  0
  -32.6889  -31.2086   26.6411 O   0  0  0  0  0  0  0  0  0  0  0  0
  -31.8595  -14.8249   20.2417 O   0  0  0  0  0  0  0  0  0  0  0  0
  -21.4646   -7.1117   21.7957 O   0  0  0  0  0  0  0  0  0  0  0  0
  -34.1814  -24.6494   27.6900 O   0  0  0  0  0  0  0  0  0  1  0  0
  -23.7835   -3.0938   24.7762 F   0  0  0  0  0  0  0  0  0  0  0  0
  -20.3661   -6.3189   24.2056 F   0  0  0  0  0  0  0  0  0  0  0  0
  1  2  1  0  0  0  0
  1  5  2  0  0  0  0
  2  6  2  0  0  0  0
  3 12  2  0  0  0  0
  3 19  1  0  0  0  0
  4 13  1  0  0  0  0
  4 19  2  0  0  0  0
  5 21  1  0  0  0  0
  6 23  1  0  0  0  0
  7 14  2  0  0  0  0
  7 22  1  0  0  0  0
  8 10  2  0  0  0  0
  8 25  1  0  0  0  0
  9 11  1  0  0  0  0
  9 25  2  0  0  0  0
 10 26  1  0  0  0  0
 11 26  2  0  0  0  0
 12 27  1  0  0  0  0
 13 27  2  0  0  0  0
 14 28  1  0  0  0  0
 15 16  2  0  0  0  0
 15 29  1  0  0  0  0
 16 30  1  0  0  0  0
 17 24  1  0  0  0  0
 17 28  2  0  0  0  0
 18 30  2  0  0  0  0
 18 31  1  0  0  0  0
 19 32  1  0  0  0  0
 20 32  1  0  0  0  0
 20 33  2  0  0  0  0
 20 34  1  0  0  0  0
 21 23  2  0  0  0  0
 21 40  1  0  0  0  0
 22 24  2  0  0  0  0
 22 41  1  0  0  0  0
 23 49  1  0  0  0  0
 24 42  1  0  0  0  0
 25 67  1  0  0  0  0
 26 75  1  0  0  0  0
 27 87  1  0  0  0  0
 28 88  1  0  0  0  0
 29 31  2  0  0  0  0
 29 87  1  0  0  0  0
 30 89  1  0  0  0  0
 31 90  1  0  0  0  0
 32 69  2  0  0  0  0
 33 70  1  0  0  0  0
 33 73  1  0  0  0  0
 34 74  1  0  0  0  0
 34 81  2  0  0  0  0
 35 50  1  0  0  0  0
 35 76  1  0  0  0  0
 35 82  2  0  0  0  0
 36 65  1  0  0  0  0
 36 71  1  0  0  0  0
 36 83  2  0  0  0  0
 37 60  1  0  0  0  0
 37 78  1  0  0  0  0
 37 84  2  0  0  0  0
 38 66  1  0  0  0  0
 38 77  1  0  0  0  0
 38 85  2  0  0  0  0
 39 72  1  0  0  0  0
 39 75  1  0  0  0  0
 39 86  2  0  0  0  0
 40 43  1  0  0  0  0
 41 50  1  0  0  0  0
 42 71  1  0  0  0  0
 43 45  1  0  0  0  0
 44 46  1  0  0  0  0
 44 47  1  0  0  0  0
 45 49  1  0  0  0  0
 46 51  1  0  0  0  0
 47 72  1  0  0  0  0
 48 51  1  0  0  0  0
 48 72  1  0  0  0  0
 49 76  1  0  0  0  0
 50 71  1  0  0  0  0
 51 70  1  0  0  0  0
 52 66  1  0  0  0  0
 53 67  1  0  0  0  0
 54 67  1  0  0  0  0
 55 68  1  0  0  0  0
 56 68  1  0  0  0  0
 57 68  1  0  0  0  0
 58 78  1  0  0  0  0
 59 79  1  0  0  0  0
 60 80  1  0  0  0  0
 61 62  1  0  0  0  0
 61 64  1  0  0  0  0
 62 78  1  0  0  0  0
 63 67  1  0  0  0  0
 63 80  1  0  0  0  0
 64 88  1  0  0  0  0
 65 68  1  0  0  0  0
 65 77  1  0  0  0  0
 66 79  1  0  0  0  0
 69 70  1  0  0  0  0
M  CHG  2  79   1  80   1
M  ISO  4  39 100  64 101  75 100  88 101
M  END
> <Batch ID>
0004

> <Smiles>
CNC(C)C(=O)NC(C(=O)N1Cc2cc([101O:1][101CH2:1]CCN(C)C(=O)CNCC(C)(C)c3ccc([100NH:0][100C:0](=O)N4CCCC(n5nc(-c6ccc(Oc7ccc(F)cc7F)cc6)c(C(N)=O)c5N)C4)cc3)ccc2CC1C(=O)NC1CCCc2ccccc21)C(C)(C)C

> <Shape>
0.211

> <Color>
0.189

> <Negative vol penalty>
0.000

$$$$

  -OEChem-04052315243D

 90 98  0     1  0  0  0  0  0999 V2000
  -20.4579  -34.9507   16.2652 C   0  0  0  0  0  0  0  0  0  0  0  0
  -19.7837  -33.9195   16.9114 C   0  0  0  0  0  0  0  0  0  0  0  0
  -28.9369  -17.1292   18.3589 C   0  0  0  0  0  0  0  0  0  0  0  0
  -23.1478   -9.8437   19.9335 C   0  0  0  0  0  0  0  0  0  0  0  0
  -23.6276   -9.9833   22.2973 C   0  0  0  0  0  0  0  0  0  0  0  0
  -20.8436  -34.8030   14.9335 C   0  0  0  0  0  0  0  0  0  0  0  0
  -19.4938  -32.7404   16.2258 C   0  0  0  0  0  0  0  0  0  0  0  0
  -21.9175  -26.3831   18.5926 C   0  0  0  0  0  0  0  0  0  0  0  0
  -27.7597  -17.6648   17.8366 C   0  0  0  0  0  0  0  0  0  0  0  0
  -29.4352  -15.9244   17.8629 C   0  0  0  0  0  0  0  0  0  0  0  0
  -22.3868   -8.6960   20.1557 C   0  0  0  0  0  0  0  0  0  0  0  0
  -22.8665   -8.8356   22.5195 C   0  0  0  0  0  0  0  0  0  0  0  0
  -22.1667  -25.1063   19.0964 C   0  0  0  0  0  0  0  0  0  0  0  0
  -23.2436   -5.4926   22.1834 C   0  0  0  0  0  0  0  0  0  0  0  0
  -23.7753   -4.5152   23.0246 C   0  0  0  0  0  0  0  0  0  0  0  0
  -21.1625  -24.1222   17.1289 C   0  0  0  0  0  0  0  0  0  0  0  0
  -27.5789  -15.7910   16.3224 C   0  0  0  0  0  0  0  0  0  0  0  0
  -21.8807   -4.7579   24.5040 C   0  0  0  0  0  0  0  0  0  0  0  0
  -23.7682  -10.4873   21.0043 C   0  0  0  0  0  0  0  0  0  0  0  0
  -24.1057  -13.0066   20.7880 C   0  0  0  0  0  0  0  0  0  0  0  0
  -20.5667  -33.6177   14.2342 C   0  0  0  0  0  0  0  0  0  0  0  0
  -21.3030  -26.5344   17.3465 C   0  0  0  0  0  0  0  0  0  0  0  0
  -19.8749  -32.5772   14.8832 C   0  0  0  0  0  0  0  0  0  0  0  0
  -20.9216  -25.3986   16.6134 C   0  0  0  0  0  0  0  0  0  0  0  0
  -27.0807  -16.9957   16.8184 C   0  0  0  0  0  0  0  0  0  0  0  0
  -28.7561  -15.2553   16.8447 C   0  0  0  0  0  0  0  0  0  0  0  0
  -22.2462   -8.1920   21.4487 C   0  0  0  0  0  0  0  0  0  0  0  0
  -21.7899  -23.9787   18.3664 C   0  0  0  0  0  0  0  0  0  0  0  0
  -22.0304   -6.1027   22.5025 C   0  0  0  0  0  0  0  0  0  0  0  0
  -23.0938   -4.1479   24.1849 C   0  0  0  0  0  0  0  0  0  0  0  0
  -21.3490   -5.7353   23.6628 C   0  0  0  0  0  0  0  0  0  0  0  0
  -24.5549  -11.6725   20.7754 C   0  0  0  0  0  0  0  0  0  0  0  0
  -25.2286  -13.7496   20.5170 C   0  0  0  0  0  0  0  0  0  0  0  0
  -22.7908  -13.5276   21.0236 C   0  0  0  0  0  0  0  0  0  0  0  0
  -20.0367  -28.8896   14.7148 C   0  0  0  0  0  0  0  0  0  0  0  0
  -21.4011  -26.5658   13.2489 C   0  0  0  0  0  0  0  0  0  0  0  0
  -23.8740  -16.2258   17.1354 C   0  0  0  0  0  0  0  0  0  0  0  0
  -23.3574  -24.0483   12.0356 C   0  0  0  0  0  0  0  0  0  0  0  0
  -30.0193  -13.1045   17.1089 C   0  0  0  0  0  0  0  0  0  0  0  0
  -20.9616  -33.5226   12.7817 C   0  0  0  0  0  0  0  0  0  0  0  0
  -20.9595  -27.8905   16.7925 C   0  0  0  0  0  0  0  0  0  0  0  0
  -20.2320  -25.6097   15.2933 C   0  0  0  0  0  0  0  0  0  0  0  0
  -20.9473  -32.0960   12.2387 C   0  0  0  0  0  0  0  0  0  0  0  0
  -30.0968  -12.9986   20.8070 C   0  0  0  0  0  0  0  0  0  0  0  0
  -19.6665  -31.3794   12.6543 C   0  0  0  0  0  0  0  0  0  0  0  0
  -28.6461  -12.6846   21.1679 C   0  0  0  0  0  0  0  0  0  0  0  0
  -30.4776  -12.4284   19.4441 C   0  0  0  0  0  0  0  0  0  0  0  0
  -28.1165  -12.5525   18.7014 C   0  0  0  0  0  0  0  0  0  0  0  0
  -19.5641  -31.2733   14.1807 C   0  0  1  0  0  0  0  0  0  0  0  0
  -21.0861  -27.9663   15.2604 C   0  0  1  0  0  0  0  0  0  0  0  0
  -27.6964  -13.1510   20.0522 C   0  0  1  0  0  0  0  0  0  0  0  0
  -24.2270  -23.0915    9.8848 C   0  0  0  0  0  0  0  0  0  0  0  0
  -22.0261  -15.1343   14.9508 C   0  0  0  0  0  0  0  0  0  0  0  0
  -23.6408  -13.2526   14.6197 C   0  0  0  0  0  0  0  0  0  0  0  0
  -18.6648  -25.3380   12.6930 C   0  0  0  0  0  0  0  0  0  0  0  0
  -19.7880  -23.7009   11.1678 C   0  0  0  0  0  0  0  0  0  0  0  0
  -19.8805  -26.1415   10.6606 C   0  0  0  0  0  0  0  0  0  0  0  0
  -29.2411  -13.7999   14.8857 C   0  0  0  0  0  0  0  0  0  0  0  0
  -26.1695  -24.5213   12.8273 C   0  0  0  0  0  0  0  0  0  0  0  0
  -25.8136  -17.5728   16.2566 C   0  0  0  0  0  0  0  0  0  0  0  0
  -24.2845  -15.1775   16.1049 C   0  0  0  0  0  0  0  0  0  0  0  0
  -23.4725  -19.5104   17.5234 C   0  0  0  0  0  0  0  0  0  0  0  0
  -23.1872  -20.6383   18.5155 C   0  0  0  0  0  0  0  0  0  0  0  0
  -24.4255  -18.4620   18.0887 C   0  0  0  0  0  0  0  0  0  0  0  0
  -22.2662  -21.6926   17.9143 C   0  0  0  0  0  0  0  0  0  1  0  0
  -21.2417  -25.2226   12.5827 C   0  0  1  0  0  0  0  0  0  0  0  0
  -24.4969  -24.0519   11.0327 C   0  0  2  0  0  0  0  0  0  0  0  0
  -23.1230  -14.2957   15.6128 C   0  0  0  0  0  0  0  0  0  0  0  0
  -19.9018  -25.1030   11.8033 C   0  0  0  0  0  0  0  0  0  0  0  0
  -25.8614  -11.5708   20.5167 N   0  0  0  0  0  0  0  0  0  0  0  0
  -26.2426  -12.8505   20.3642 N   0  0  0  0  0  0  0  0  0  0  0  0
  -20.8940  -26.6917   14.5480 N   0  0  0  0  0  0  0  0  0  0  0  0
  -29.5308  -12.8317   18.4032 N   0  0  0  0  0  0  0  0  0  0  0  0
  -25.4376  -15.0779   20.3969 N   0  0  0  0  0  0  0  0  0  0  0  0
  -21.7517  -12.6247   21.2870 N   0  0  0  0  0  0  0  0  0  0  0  0
  -20.4214  -30.2161   14.6724 N   0  0  0  0  0  0  0  0  0  0  0  0
  -22.4310  -25.0316   11.7596 N   0  0  0  0  0  0  0  0  0  0  0  0
  -29.2720  -14.0098   16.3315 N   0  0  0  0  0  0  0  0  0  0  0  0
  -24.6759  -17.3891   17.1658 N   0  0  0  0  0  0  0  0  0  0  0  0
  -25.7701  -23.6481   11.6938 N   0  3  0  0  0  0  0  0  0  0  0  0
  -22.5415  -14.7564   20.9850 O   0  0  0  0  0  0  0  0  0  0  0  0
  -18.9573  -28.4330   14.3568 O   0  0  0  0  0  0  0  0  0  0  0  0
  -21.9547  -27.4819   12.6345 O   0  0  0  0  0  0  0  0  0  0  0  0
  -22.9104  -16.0319   17.8807 O   0  0  0  0  0  0  0  0  0  0  0  0
  -23.2933  -23.2503   12.9682 O   0  0  0  0  0  0  0  0  0  0  0  0
  -31.0215  -12.5386   16.6550 O   0  0  0  0  0  0  0  0  0  0  0  0
  -21.5035   -7.0723   21.6659 O   0  0  0  0  0  0  0  0  0  0  0  0
  -22.0403  -22.7352   18.8621 O   0  0  0  0  0  0  0  0  0  1  0  0
  -23.6038   -3.2082   24.9918 F   0  0  0  0  0  0  0  0  0  0  0  0
  -20.1826   -6.3170   23.9740 F   0  0  0  0  0  0  0  0  0  0  0  0
  1  2  1  0  0  0  0
  1  6  2  0  0  0  0
  2  7  2  0  0  0  0
  3  9  2  0  0  0  0
  3 10  1  0  0  0  0
  4 11  2  0  0  0  0
  4 19  1  0  0  0  0
  5 12  1  0  0  0  0
  5 19  2  0  0  0  0
  6 21  1  0  0  0  0
  7 23  1  0  0  0  0
  8 13  2  0  0  0  0
  8 22  1  0  0  0  0
  9 25  1  0  0  0  0
 10 26  2  0  0  0  0
 11 27  1  0  0  0  0
 12 27  2  0  0  0  0
 13 28  1  0  0  0  0
 14 15  2  0  0  0  0
 14 29  1  0  0  0  0
 15 30  1  0  0  0  0
 16 24  1  0  0  0  0
 16 28  2  0  0  0  0
 17 25  2  0  0  0  0
 17 26  1  0  0  0  0
 18 30  2  0  0  0  0
 18 31  1  0  0  0  0
 19 32  1  0  0  0  0
 20 32  1  0  0  0  0
 20 33  2  0  0  0  0
 20 34  1  0  0  0  0
 21 23  2  0  0  0  0
 21 40  1  0  0  0  0
 22 24  2  0  0  0  0
 22 41  1  0  0  0  0
 23 49  1  0  0  0  0
 24 42  1  0  0  0  0
 25 60  1  0  0  0  0
 26 78  1  0  0  0  0
 27 87  1  0  0  0  0
 28 88  1  0  0  0  0
 29 31  2  0  0  0  0
 29 87  1  0  0  0  0
 30 89  1  0  0  0  0
 31 90  1  0  0  0  0
 32 70  2  0  0  0  0
 33 71  1  0  0  0  0
 33 74  1  0  0  0  0
 34 75  1  0  0  0  0
 34 81  2  0  0  0  0
 35 50  1  0  0  0  0
 35 76  1  0  0  0  0
 35 82  2  0  0  0  0
 36 66  1  0  0  0  0
 36 72  1  0  0  0  0
 36 83  2  0  0  0  0
 37 61  1  0  0  0  0
 37 79  1  0  0  0  0
 37 84  2  0  0  0  0
 38 67  1  0  0  0  0
 38 77  1  0  0  0  0
 38 85  2  0  0  0  0
 39 73  1  0  0  0  0
 39 78  1  0  0  0  0
 39 86  2  0  0  0  0
 40 43  1  0  0  0  0
 41 50  1  0  0  0  0
 42 72  1  0  0  0  0
 43 45  1  0  0  0  0
 44 46  1  0  0  0  0
 44 47  1  0  0  0  0
 45 49  1  0  0  0  0
 46 51  1  0  0  0  0
 47 73  1  0  0  0  0
 48 51  1  0  0  0  0
 48 73  1  0  0  0  0
 49 76  1  0  0  0  0
 50 72  1  0  0  0  0
 51 71  1  0  0  0  0
 52 67  1  0  0  0  0
 53 68  1  0  0  0  0
 54 68  1  0  0  0  0
 55 69  1  0  0  0  0
 56 69  1  0  0  0  0
 57 69  1  0  0  0  0
 58 78  1  0  0  0  0
 59 80  1  0  0  0  0
 60 79  1  0  0  0  0
 61 68  1  0  0  0  0
 62 63  1  0  0  0  0
 62 64  1  0  0  0  0
 63 65  1  0  0  0  0
 64 79  1  0  0  0  0
 65 88  1  0  0  0  0
 66 69  1  0  0  0  0
 66 77  1  0  0  0  0
 67 80  1  0  0  0  0
 70 71  1  0  0  0  0
M  CHG  1  80   1
M  ISO  4  39 100  65 101  78 100  88 101
M  END
> <Batch ID>
0004

> <Smiles>
CNC(C)C(=O)NC(C(=O)N1Cc2cc([101O:1][101CH2:1]CCCN(Cc3cccc([100N:0](C)[100C:0](=O)N4CCCC(n5nc(-c6ccc(Oc7ccc(F)cc7F)cc6)c(C(N)=O)c5N)C4)c3)C(=O)CC(C)C)ccc2CC1C(=O)NC1CCCc2ccccc21)C(C)(C)C

> <Shape>
0.151

> <Color>
0.184

> <Negative vol penalty>
0.000

$$$$

  -OEChem-04052315243D

 86 94  0     1  0  0  0  0  0999 V2000
  -25.7054  -35.2965   23.5334 C   0  0  0  0  0  0  0  0  0  0  0  0
  -26.3040  -34.0828   23.2108 C   0  0  0  0  0  0  0  0  0  0  0  0
  -26.7930  -13.7641   18.3338 C   0  0  0  0  0  0  0  0  0  0  0  0
  -27.8771  -14.5511   16.3233 C   0  0  0  0  0  0  0  0  0  0  0  0
  -24.4205  -35.3168   24.0740 C   0  0  0  0  0  0  0  0  0  0  0  0
  -25.6182  -32.8885   23.4297 C   0  0  0  0  0  0  0  0  0  0  0  0
  -25.9806  -29.6947   19.5165 C   0  0  0  0  0  0  0  0  0  0  0  0
  -34.4441  -22.4046   20.5330 C   0  0  0  0  0  0  0  0  0  0  0  0
  -33.3418  -21.9247   19.8257 C   0  0  0  0  0  0  0  0  0  0  0  0
  -26.1362  -12.7803   17.5946 C   0  0  0  0  0  0  0  0  0  0  0  0
  -27.2204  -13.5674   15.5840 C   0  0  0  0  0  0  0  0  0  0  0  0
  -27.1702  -28.9794   19.3866 C   0  0  0  0  0  0  0  0  0  0  0  0
  -23.4616  -12.5807   15.5376 C   0  0  0  0  0  0  0  0  0  0  0  0
  -22.1010  -12.3904   15.7784 C   0  0  0  0  0  0  0  0  0  0  0  0
  -31.9018  -23.4318   21.0472 C   0  0  0  0  0  0  0  0  0  0  0  0
  -26.1140  -27.0535   20.3838 C   0  0  0  0  0  0  0  0  0  0  0  0
  -22.5344  -10.1012   16.4177 C   0  0  0  0  0  0  0  0  0  0  0  0
  -27.6635  -14.6495   17.6982 C   0  0  0  0  0  0  0  0  0  0  0  0
  -33.0041  -23.9117   21.7545 C   0  0  0  0  0  0  0  0  0  0  0  0
  -29.5944  -15.5598   19.0947 C   0  0  0  0  0  0  0  0  0  0  0  0
  -23.7148  -34.1228   24.2907 C   0  0  0  0  0  0  0  0  0  0  0  0
  -24.8500  -29.0972   20.0921 C   0  0  0  0  0  0  0  0  0  0  0  0
  -24.3231  -32.8929   23.9750 C   0  0  0  0  0  0  0  0  0  0  0  0
  -24.9105  -27.7625   20.5176 C   0  0  0  0  0  0  0  0  0  0  0  0
  -34.2752  -23.3981   21.4975 C   0  0  0  0  0  0  0  0  0  0  0  0
  -32.0707  -22.4383   20.0828 C   0  0  0  0  0  0  0  0  0  0  0  0
  -26.3499  -12.6820   16.2197 C   0  0  0  0  0  0  0  0  0  0  0  0
  -27.2379  -27.6595   19.8229 C   0  0  0  0  0  0  0  0  0  0  0  0
  -24.3587  -11.5312   15.7368 C   0  0  0  0  0  0  0  0  0  0  0  0
  -21.6373  -11.1506   16.2185 C   0  0  0  0  0  0  0  0  0  0  0  0
  -23.8950  -10.2915   16.1769 C   0  0  0  0  0  0  0  0  0  0  0  0
  -28.3418  -15.6663   18.4612 C   0  0  0  0  0  0  0  0  0  0  0  0
  -29.7890  -16.7874   19.6792 C   0  0  0  0  0  0  0  0  0  0  0  0
  -32.7980  -24.9605   22.7659 C   0  0  0  0  0  0  0  0  0  0  0  0
  -30.5011  -14.4505   19.1499 C   0  0  0  0  0  0  0  0  0  0  0  0
  -23.0740  -29.6716   22.6650 C   0  0  0  0  0  0  0  0  0  0  0  0
  -21.2269  -27.3036   21.4389 C   0  0  0  0  0  0  0  0  0  0  0  0
  -21.0023  -24.5409   19.4481 C   0  0  0  0  0  0  0  0  0  0  0  0
  -29.6219  -22.3500   19.4979 C   0  0  0  0  0  0  0  0  0  0  0  0
  -22.3465  -34.1924   24.9213 C   0  0  0  0  0  0  0  0  0  0  0  0
  -23.5665  -29.8739   20.2007 C   0  0  0  0  0  0  0  0  0  0  0  0
  -23.7191  -27.0687   21.1238 C   0  0  0  0  0  0  0  0  0  0  0  0
  -21.5416  -32.9038   24.7736 C   0  0  0  0  0  0  0  0  0  0  0  0
  -26.6013  -20.6635   20.3399 C   0  0  0  0  0  0  0  0  0  0  0  0
  -22.4021  -31.6937   25.1229 C   0  0  0  0  0  0  0  0  0  0  0  0
  -26.8879  -19.2043   19.9783 C   0  0  0  0  0  0  0  0  0  0  0  0
  -27.2480  -21.6307   19.3498 C   0  0  0  0  0  0  0  0  0  0  0  0
  -28.9729  -19.9693   18.7722 C   0  0  0  0  0  0  0  0  0  0  0  0
  -23.6017  -31.5776   24.1747 C   0  0  1  0  0  0  0  0  0  0  0  0
  -22.6271  -29.3288   21.2720 C   0  0  1  0  0  0  0  0  0  0  0  0
  -28.3963  -18.9592   19.7777 C   0  0  2  0  0  0  0  0  0  0  0  0
  -35.4728  -23.8941   22.2404 C   0  0  0  0  0  0  0  0  0  0  0  0
  -19.3713  -22.7976   18.6744 C   0  0  0  0  0  0  0  0  0  0  0  0
  -21.4384  -25.9086   24.1443 C   0  0  0  0  0  0  0  0  0  0  0  0
  -20.6349  -23.8074   23.0454 C   0  0  0  0  0  0  0  0  0  0  0  0
  -19.1669  -25.8235   23.1014 C   0  0  0  0  0  0  0  0  0  0  0  0
  -32.6664  -27.3531   23.3421 C   0  0  0  0  0  0  0  0  0  0  0  0
  -21.3083  -25.3448   16.6163 C   0  0  0  0  0  0  0  0  0  0  0  0
  -32.0498  -27.5909   20.4106 C   0  0  0  0  0  0  0  0  0  0  0  0
  -30.7298  -26.8255   20.3119 C   0  0  0  0  0  0  0  0  0  0  0  0
  -33.1728  -26.7452   21.0027 C   0  0  0  0  0  0  0  0  0  0  0  0
  -29.6148  -27.7024   19.7560 C   0  0  0  0  0  0  0  0  0  1  0  0
  -21.1840  -25.8010   21.5773 C   0  0  1  0  0  0  0  0  0  0  0  0
  -20.0001  -24.1500   18.3769 C   0  0  2  0  0  0  0  0  0  0  0  0
  -20.6293  -25.3485   22.9575 C   0  0  0  0  0  0  0  0  0  0  0  0
  -27.7801  -16.8666   18.6276 N   0  0  0  0  0  0  0  0  0  0  0  0
  -28.6840  -17.5257   19.3725 N   0  0  0  0  0  0  0  0  0  0  0  0
  -22.4887  -27.8721   21.2143 N   0  0  0  0  0  0  0  0  0  0  0  0
  -28.6772  -21.3412   19.2141 N   0  0  0  0  0  0  0  0  0  0  0  0
  -30.7958  -17.2966   20.4206 N   0  0  0  0  0  0  0  0  0  0  0  0
  -30.1455  -13.2638   18.4945 N   0  0  0  0  0  0  0  0  0  0  0  0
  -30.9509  -21.9490   19.3655 N   0  0  0  0  0  0  0  0  0  0  0  0
  -23.1880  -31.0283   22.9013 N   0  0  0  0  0  0  0  0  0  0  0  0
  -20.4211  -25.3076   20.4358 N   0  0  0  0  0  0  0  0  0  0  0  0
  -32.8853  -26.3046   22.3401 N   0  0  0  0  0  0  0  0  0  0  0  0
  -20.6669  -24.0757   17.0462 N   0  3  0  0  0  0  0  0  0  0  0  0
  -32.5535  -24.5745   23.9084 O   0  0  0  0  0  0  0  0  0  0  0  0
  -31.5867  -14.5045   19.7760 O   0  0  0  0  0  0  0  0  0  0  0  0
  -23.2974  -28.7719   23.4664 O   0  0  0  0  0  0  0  0  0  0  0  0
  -20.1785  -27.9486   21.5197 O   0  0  0  0  0  0  0  0  0  0  0  0
  -22.1818  -24.1971   19.4140 O   0  0  0  0  0  0  0  0  0  0  0  0
  -29.2778  -23.4780   19.8600 O   0  0  0  0  0  0  0  0  0  0  0  0
  -25.7093  -11.7220   15.4981 O   0  0  0  0  0  0  0  0  0  0  0  0
  -28.3980  -26.9592   19.6978 O   0  0  0  0  0  0  0  0  0  1  0  0
  -20.3309  -10.9684   16.4511 F   0  0  0  0  0  0  0  0  0  0  0  0
  -24.7522   -9.2799   16.3712 F   0  0  0  0  0  0  0  0  0  0  0  0
  1  2  1  0  0  0  0
  1  5  2  0  0  0  0
  2  6  2  0  0  0  0
  3 10  2  0  0  0  0
  3 18  1  0  0  0  0
  4 11  1  0  0  0  0
  4 18  2  0  0  0  0
  5 21  1  0  0  0  0
  6 23  1  0  0  0  0
  7 12  2  0  0  0  0
  7 22  1  0  0  0  0
  8  9  2  0  0  0  0
  8 25  1  0  0  0  0
  9 26  1  0  0  0  0
 10 27  1  0  0  0  0
 11 27  2  0  0  0  0
 12 28  1  0  0  0  0
 13 14  2  0  0  0  0
 13 29  1  0  0  0  0
 14 30  1  0  0  0  0
 15 19  1  0  0  0  0
 15 26  2  0  0  0  0
 16 24  1  0  0  0  0
 16 28  2  0  0  0  0
 17 30  2  0  0  0  0
 17 31  1  0  0  0  0
 18 32  1  0  0  0  0
 19 25  2  0  0  0  0
 19 34  1  0  0  0  0
 20 32  1  0  0  0  0
 20 33  2  0  0  0  0
 20 35  1  0  0  0  0
 21 23  2  0  0  0  0
 21 40  1  0  0  0  0
 22 24  2  0  0  0  0
 22 41  1  0  0  0  0
 23 49  1  0  0  0  0
 24 42  1  0  0  0  0
 25 52  1  0  0  0  0
 26 72  1  0  0  0  0
 27 83  1  0  0  0  0
 28 84  1  0  0  0  0
 29 31  2  0  0  0  0
 29 83  1  0  0  0  0
 30 85  1  0  0  0  0
 31 86  1  0  0  0  0
 32 66  2  0  0  0  0
 33 67  1  0  0  0  0
 33 70  1  0  0  0  0
 34 75  1  0  0  0  0
 34 77  2  0  0  0  0
 35 71  1  0  0  0  0
 35 78  2  0  0  0  0
 36 50  1  0  0  0  0
 36 73  1  0  0  0  0
 36 79  2  0  0  0  0
 37 63  1  0  0  0  0
 37 68  1  0  0  0  0
 37 80  2  0  0  0  0
 38 64  1  0  0  0  0
 38 74  1  0  0  0  0
 38 81  2  0  0  0  0
 39 69  1  0  0  0  0
 39 72  1  0  0  0  0
 39 82  2  0  0  0  0
 40 43  1  0  0  0  0
 41 50  1  0  0  0  0
 42 68  1  0  0  0  0
 43 45  1  0  0  0  0
 44 46  1  0  0  0  0
 44 47  1  0  0  0  0
 45 49  1  0  0  0  0
 46 51  1  0  0  0  0
 47 69  1  0  0  0  0
 48 51  1  0  0  0  0
 48 69  1  0  0  0  0
 49 73  1  0  0  0  0
 50 68  1  0  0  0  0
 51 67  1  0  0  0  0
 53 64  1  0  0  0  0
 54 65  1  0  0  0  0
 55 65  1  0  0  0  0
 56 65  1  0  0  0  0
 57 75  1  0  0  0  0
 58 76  1  0  0  0  0
 59 60  1  0  0  0  0
 59 61  1  0  0  0  0
 60 62  1  0  0  0  0
 61 75  1  0  0  0  0
 62 84  1  0  0  0  0
 63 65  1  0  0  0  0
 63 74  1  0  0  0  0
 64 76  1  0  0  0  0
 66 67  1  0  0  0  0
M  CHG  1  76   1
M  ISO  4  39 100  62 101  72 100  84 101
M  END
> <Batch ID>
0004

> <Smiles>
CNC(C)C(=O)NC(C(=O)N1Cc2cc([101O:1][101CH2:1]CCCN(C)C(=O)c3cc([100NH:0][100C:0](=O)N4CCCC(n5nc(-c6ccc(Oc7ccc(F)cc7F)cc6)c(C(N)=O)c5N)C4)ccc3C)ccc2CC1C(=O)NC1CCCc2ccccc21)C(C)(C)C

> <Shape>
0.218

> <Color>
0.089

> <Negative vol penalty>
0.000

$$$$

  -OEChem-04052315243D

 83 91  0     1  0  0  0  0  0999 V2000
  -29.5001  -12.8901   19.2487 C   0  0  0  0  0  0  0  0  0  0  0  0
  -29.0461  -14.1148   18.7698 C   0  0  0  0  0  0  0  0  0  0  0  0
  -18.4853  -28.5546   23.6798 C   0  0  0  0  0  0  0  0  0  0  0  0
  -17.9673  -27.3267   23.2682 C   0  0  0  0  0  0  0  0  0  0  0  0
  -29.2818  -25.2174   21.0410 C   0  0  0  0  0  0  0  0  0  0  0  0
  -27.2944  -23.8526   20.8851 C   0  0  0  0  0  0  0  0  0  0  0  0
  -28.6217  -12.0323   19.9093 C   0  0  0  0  0  0  0  0  0  0  0  0
  -27.7130  -14.4819   18.9502 C   0  0  0  0  0  0  0  0  0  0  0  0
  -25.5502  -20.1252   19.9412 C   0  0  0  0  0  0  0  0  0  0  0  0
  -19.6842  -29.0217   23.1412 C   0  0  0  0  0  0  0  0  0  0  0  0
  -18.6482  -26.5658   22.3179 C   0  0  0  0  0  0  0  0  0  0  0  0
  -29.9492  -24.1726   21.6801 C   0  0  0  0  0  0  0  0  0  0  0  0
  -27.9618  -22.8077   21.5241 C   0  0  0  0  0  0  0  0  0  0  0  0
  -24.9778  -21.0726   19.0935 C   0  0  0  0  0  0  0  0  0  0  0  0
  -29.2539  -19.6545   22.7915 C   0  0  0  0  0  0  0  0  0  0  0  0
  -29.1137  -18.3728   22.2595 C   0  0  0  0  0  0  0  0  0  0  0  0
  -22.7808  -20.3138   19.7390 C   0  0  0  0  0  0  0  0  0  0  0  0
  -30.0678  -19.1340   20.1744 C   0  0  0  0  0  0  0  0  0  0  0  0
  -27.9543  -25.0574   20.6436 C   0  0  0  0  0  0  0  0  0  0  0  0
  -27.2017  -26.3855   18.5997 C   0  0  0  0  0  0  0  0  0  0  0  0
  -27.2794  -12.3932   20.1063 C   0  0  0  0  0  0  0  0  0  0  0  0
  -24.7410  -19.2562   20.6871 C   0  0  0  0  0  0  0  0  0  0  0  0
  -26.8155  -13.6275   19.6128 C   0  0  0  0  0  0  0  0  0  0  0  0
  -23.3454  -19.3579   20.5973 C   0  0  0  0  0  0  0  0  0  0  0  0
  -20.3651  -28.2608   22.1909 C   0  0  0  0  0  0  0  0  0  0  0  0
  -29.2892  -22.9677   21.9216 C   0  0  0  0  0  0  0  0  0  0  0  0
  -23.5930  -21.1651   18.9901 C   0  0  0  0  0  0  0  0  0  0  0  0
  -19.8472  -27.0328   21.7793 C   0  0  0  0  0  0  0  0  0  0  0  0
  -29.8010  -20.6761   22.0150 C   0  0  0  0  0  0  0  0  0  0  0  0
  -29.5207  -18.1125   20.9509 C   0  0  0  0  0  0  0  0  0  0  0  0
  -30.2080  -20.4158   20.7065 C   0  0  0  0  0  0  0  0  0  0  0  0
  -27.2642  -26.1366   19.9839 C   0  0  0  0  0  0  0  0  0  0  0  0
  -26.4319  -27.5176   18.4888 C   0  0  0  0  0  0  0  0  0  0  0  0
  -27.7870  -25.6583   17.5114 C   0  0  0  0  0  0  0  0  0  0  0  0
  -24.3455  -16.1044   20.8032 C   0  0  0  0  0  0  0  0  0  0  0  0
  -22.4260  -16.8294   23.3156 C   0  0  0  0  0  0  0  0  0  0  0  0
  -20.4671  -19.1354   24.8943 C   0  0  0  0  0  0  0  0  0  0  0  0
  -22.2220  -29.9480   21.9638 C   0  0  0  0  0  0  0  0  0  0  0  0
  -26.3560  -11.4124   20.7845 C   0  0  0  0  0  0  0  0  0  0  0  0
  -25.3736  -18.2576   21.6172 C   0  0  0  0  0  0  0  0  0  0  0  0
  -22.4321  -18.4621   21.3922 C   0  0  0  0  0  0  0  0  0  0  0  0
  -25.0491  -12.0382   21.2648 C   0  0  0  0  0  0  0  0  0  0  0  0
  -25.2458  -31.4893   20.8874 C   0  0  0  0  0  0  0  0  0  0  0  0
  -24.4440  -12.9146   20.1727 C   0  0  0  0  0  0  0  0  0  0  0  0
  -26.0985  -30.3148   20.4019 C   0  0  0  0  0  0  0  0  0  0  0  0
  -24.4104  -31.1161   22.1108 C   0  0  0  0  0  0  0  0  0  0  0  0
  -24.4370  -28.7377   21.4692 C   0  0  0  0  0  0  0  0  0  0  0  0
  -25.3825  -14.0720   19.8108 C   0  0  1  0  0  0  0  0  0  0  0  0
  -24.4596  -17.0797   21.9405 C   0  0  1  0  0  0  0  0  0  0  0  0
  -25.2472  -29.0461   20.1994 C   0  0  2  0  0  0  0  0  0  0  0  0
  -18.9980  -19.4241   26.9081 C   0  0  0  0  0  0  0  0  0  0  0  0
  -20.2288  -15.2194   21.9406 C   0  0  0  0  0  0  0  0  0  0  0  0
  -18.5707  -16.3108   23.4662 C   0  0  0  0  0  0  0  0  0  0  0  0
  -20.3799  -14.8784   24.4136 C   0  0  0  0  0  0  0  0  0  0  0  0
  -22.1745  -21.2984   25.9737 C   0  0  0  0  0  0  0  0  0  0  0  0
  -21.7635  -24.6526   18.7947 C   0  0  0  0  0  0  0  0  0  0  0  0
  -22.7688  -24.4195   17.6668 C   0  0  0  0  0  0  0  0  0  0  0  0
  -20.7968  -25.8024   18.5162 C   0  0  0  0  0  0  0  0  0  0  0  0
  -23.7588  -23.2980   17.9513 C   0  0  0  0  0  0  0  0  0  1  0  0
  -19.7943  -25.9762   19.6493 C   0  0  0  0  0  0  0  0  0  0  0  0
  -20.9616  -17.1560   23.4829 C   0  0  1  0  0  0  0  0  0  0  0  0
  -20.4022  -19.5779   26.3449 C   0  0  2  0  0  0  0  0  0  0  0  0
  -20.0522  -15.9069   23.3092 C   0  0  0  0  0  0  0  0  0  0  0  0
  -26.5881  -27.0382   20.7009 N   0  0  0  0  0  0  0  0  0  0  0  0
  -26.0936  -27.8647   19.7637 N   0  0  0  0  0  0  0  0  0  0  0  0
  -23.0986  -17.4977   22.2828 N   0  0  0  0  0  0  0  0  0  0  0  0
  -23.6273  -29.9076   21.8439 N   0  0  0  0  0  0  0  0  0  0  0  0
  -26.0182  -28.2401   17.4262 N   0  0  0  0  0  0  0  0  0  0  0  0
  -28.5481  -24.5180   17.8025 N   0  0  0  0  0  0  0  0  0  0  0  0
  -21.5822  -28.7484   21.6536 N   0  0  0  0  0  0  0  0  0  0  0  0
  -25.3092  -15.1142   20.8123 N   0  0  0  0  0  0  0  0  0  0  0  0
  -20.8352  -17.8114   24.7801 N   0  0  0  0  0  0  0  0  0  0  0  0
  -20.8043  -21.0075   26.4688 N   0  3  0  0  0  0  0  0  0  0  0  0
  -27.6531  -26.0187   16.3174 O   0  0  0  0  0  0  0  0  0  0  0  0
  -23.4485  -16.2393   19.9793 O   0  0  0  0  0  0  0  0  0  0  0  0
  -22.9552  -16.0167   24.0779 O   0  0  0  0  0  0  0  0  0  0  0  0
  -20.2128  -19.8878   23.9563 O   0  0  0  0  0  0  0  0  0  0  0  0
  -21.6279  -30.9790   22.2894 O   0  0  0  0  0  0  0  0  0  0  0  0
  -29.9403  -21.9478   22.5450 O   0  0  0  0  0  0  0  0  0  0  0  0
  -23.0317  -22.0885   18.1630 O   0  0  0  0  0  0  0  0  0  1  0  0
  -20.5005  -26.2693   20.8469 O   0  0  0  0  0  0  0  0  0  0  0  0
  -29.3874  -16.8813   20.4406 F   0  0  0  0  0  0  0  0  0  0  0  0
  -30.7354  -21.3928   19.9561 F   0  0  0  0  0  0  0  0  0  0  0  0
  1  2  1  0  0  0  0
  1  7  2  0  0  0  0
  2  8  2  0  0  0  0
  3  4  1  0  0  0  0
  3 10  2  0  0  0  0
  4 11  2  0  0  0  0
  5 12  2  0  0  0  0
  5 19  1  0  0  0  0
  6 13  1  0  0  0  0
  6 19  2  0  0  0  0
  7 21  1  0  0  0  0
  8 23  1  0  0  0  0
  9 14  2  0  0  0  0
  9 22  1  0  0  0  0
 10 25  1  0  0  0  0
 11 28  1  0  0  0  0
 12 26  1  0  0  0  0
 13 26  2  0  0  0  0
 14 27  1  0  0  0  0
 15 16  2  0  0  0  0
 15 29  1  0  0  0  0
 16 30  1  0  0  0  0
 17 24  1  0  0  0  0
 17 27  2  0  0  0  0
 18 30  2  0  0  0  0
 18 31  1  0  0  0  0
 19 32  1  0  0  0  0
 20 32  1  0  0  0  0
 20 33  2  0  0  0  0
 20 34  1  0  0  0  0
 21 23  2  0  0  0  0
 21 39  1  0  0  0  0
 22 24  2  0  0  0  0
 22 40  1  0  0  0  0
 23 48  1  0  0  0  0
 24 41  1  0  0  0  0
 25 28  2  0  0  0  0
 25 70  1  0  0  0  0
 26 79  1  0  0  0  0
 27 80  1  0  0  0  0
 28 81  1  0  0  0  0
 29 31  2  0  0  0  0
 29 79  1  0  0  0  0
 30 82  1  0  0  0  0
 31 83  1  0  0  0  0
 32 64  2  0  0  0  0
 33 65  1  0  0  0  0
 33 68  1  0  0  0  0
 34 69  1  0  0  0  0
 34 74  2  0  0  0  0
 35 49  1  0  0  0  0
 35 71  1  0  0  0  0
 35 75  2  0  0  0  0
 36 61  1  0  0  0  0
 36 66  1  0  0  0  0
 36 76  2  0  0  0  0
 37 62  1  0  0  0  0
 37 72  1  0  0  0  0
 37 77  2  0  0  0  0
 38 67  1  0  0  0  0
 38 70  1  0  0  0  0
 38 78  2  0  0  0  0
 39 42  1  0  0  0  0
 40 49  1  0  0  0  0
 41 66  1  0  0  0  0
 42 44  1  0  0  0  0
 43 45  1  0  0  0  0
 43 46  1  0  0  0  0
 44 48  1  0  0  0  0
 45 50  1  0  0  0  0
 46 67  1  0  0  0  0
 47 50  1  0  0  0  0
 47 67  1  0  0  0  0
 48 71  1  0  0  0  0
 49 66  1  0  0  0  0
 50 65  1  0  0  0  0
 51 62  1  0  0  0  0
 52 63  1  0  0  0  0
 53 63  1  0  0  0  0
 54 63  1  0  0  0  0
 55 73  1  0  0  0  0
 56 57  1  0  0  0  0
 56 58  1  0  0  0  0
 57 59  1  0  0  0  0
 58 60  1  0  0  0  0
 59 80  1  0  0  0  0
 60 81  1  0  0  0  0
 61 63  1  0  0  0  0
 61 72  1  0  0  0  0
 62 73  1  0  0  0  0
 64 65  1  0  0  0  0
M  CHG  1  73   1
M  ISO  4  38 100  59 101  70 100  80 101
M  END
> <Batch ID>
0004

> <Smiles>
CNC(C)C(=O)NC(C(=O)N1Cc2cc([101O:1][101CH2:1]CCCCOc3ccccc3[100NH:0][100C:0](=O)N3CCCC(n4nc(-c5ccc(Oc6ccc(F)cc6F)cc5)c(C(N)=O)c4N)C3)ccc2CC1C(=O)NC1CCCc2ccccc21)C(C)(C)C

> <Shape>
0.226

> <Color>
0.083

> <Negative vol penalty>
0.000

$$$$

  -OEChem-04052315243D

 79 87  0     1  0  0  0  0  0999 V2000
  -17.4802  -23.1131   24.9873 C   0  0  0  0  0  0  0  0  0  0  0  0
  -18.8266  -22.9147   24.6988 C   0  0  0  0  0  0  0  0  0  0  0  0
  -31.2477  -19.4820   19.1739 C   0  0  0  0  0  0  0  0  0  0  0  0
  -23.0743   -9.8691   19.9414 C   0  0  0  0  0  0  0  0  0  0  0  0
  -23.8387   -9.8740   22.2333 C   0  0  0  0  0  0  0  0  0  0  0  0
  -16.5195  -22.2592   24.4472 C   0  0  0  0  0  0  0  0  0  0  0  0
  -19.2132  -21.8614   23.8707 C   0  0  0  0  0  0  0  0  0  0  0  0
  -23.8641  -21.8265   19.8866 C   0  0  0  0  0  0  0  0  0  0  0  0
  -31.5069  -18.4283   20.0502 C   0  0  0  0  0  0  0  0  0  0  0  0
  -30.0125  -20.1292   19.2073 C   0  0  0  0  0  0  0  0  0  0  0  0
  -22.3316   -8.7152   20.1915 C   0  0  0  0  0  0  0  0  0  0  0  0
  -23.0959   -8.7201   22.4834 C   0  0  0  0  0  0  0  0  0  0  0  0
  -25.1647  -21.3308   19.9673 C   0  0  0  0  0  0  0  0  0  0  0  0
  -21.1153   -5.9803   23.8209 C   0  0  0  0  0  0  0  0  0  0  0  0
  -20.3613   -5.9350   24.9935 C   0  0  0  0  0  0  0  0  0  0  0  0
  -24.4524  -19.3012   18.8753 C   0  0  0  0  0  0  0  0  0  0  0  0
  -29.2957  -18.6688   20.9934 C   0  0  0  0  0  0  0  0  0  0  0  0
  -19.1141   -7.8723   24.2665 C   0  0  0  0  0  0  0  0  0  0  0  0
  -23.8279  -10.4484   20.9622 C   0  0  0  0  0  0  0  0  0  0  0  0
  -24.1680  -12.9739   20.8443 C   0  0  0  0  0  0  0  0  0  0  0  0
  -16.8936  -21.2008   23.6043 C   0  0  0  0  0  0  0  0  0  0  0  0
  -22.8439  -21.0575   19.3084 C   0  0  0  0  0  0  0  0  0  0  0  0
  -18.2566  -20.9917   23.3199 C   0  0  0  0  0  0  0  0  0  0  0  0
  -23.1403  -19.7905   18.7861 C   0  0  0  0  0  0  0  0  0  0  0  0
  -30.5309  -18.0216   20.9600 C   0  0  0  0  0  0  0  0  0  0  0  0
  -29.0365  -19.7226   20.1171 C   0  0  0  0  0  0  0  0  0  0  0  0
  -22.3424   -8.1407   21.4625 C   0  0  0  0  0  0  0  0  0  0  0  0
  -25.4584  -20.0668   19.4643 C   0  0  0  0  0  0  0  0  0  0  0  0
  -20.8687   -6.9717   22.8711 C   0  0  0  0  0  0  0  0  0  0  0  0
  -19.3607   -6.8809   25.2163 C   0  0  0  0  0  0  0  0  0  0  0  0
  -19.8682   -7.9177   23.0939 C   0  0  0  0  0  0  0  0  0  0  0  0
  -24.5957  -11.6401   20.7043 C   0  0  0  0  0  0  0  0  0  0  0  0
  -25.2589  -13.7245   20.4798 C   0  0  0  0  0  0  0  0  0  0  0  0
  -22.8980  -13.4885   21.2663 C   0  0  0  0  0  0  0  0  0  0  0  0
  -20.1084  -19.8154   20.3467 C   0  0  0  0  0  0  0  0  0  0  0  0
  -19.7350  -19.0210   17.2239 C   0  0  0  0  0  0  0  0  0  0  0  0
  -21.1893  -18.3748   14.2049 C   0  0  0  0  0  0  0  0  0  0  0  0
  -30.7424  -14.7466   20.6586 C   0  0  0  0  0  0  0  0  0  0  0  0
  -15.8233  -20.2754   23.0822 C   0  0  0  0  0  0  0  0  0  0  0  0
  -21.4518  -21.6175   19.2048 C   0  0  0  0  0  0  0  0  0  0  0  0
  -22.0852  -18.9335   18.1373 C   0  0  0  0  0  0  0  0  0  0  0  0
  -16.2841  -19.4098   21.9123 C   0  0  0  0  0  0  0  0  0  0  0  0
  -29.6016  -12.3640   18.2714 C   0  0  0  0  0  0  0  0  0  0  0  0
  -17.6464  -18.7914   22.2099 C   0  0  0  0  0  0  0  0  0  0  0  0
  -28.1652  -12.0690   18.7068 C   0  0  0  0  0  0  0  0  0  0  0  0
  -30.5210  -12.5841   19.4707 C   0  0  0  0  0  0  0  0  0  0  0  0
  -28.6215  -13.3125   20.8618 C   0  0  0  0  0  0  0  0  0  0  0  0
  -18.7133  -19.8753   22.4060 C   0  0  1  0  0  0  0  0  0  0  0  0
  -20.3831  -20.5387   19.0586 C   0  0  1  0  0  0  0  0  0  0  0  0
  -27.6451  -13.1386   19.6859 C   0  0  2  0  0  0  0  0  0  0  0  0
  -20.6289  -17.7163   11.8491 C   0  0  0  0  0  0  0  0  0  0  0  0
  -19.2731  -16.1473   18.1396 C   0  0  0  0  0  0  0  0  0  0  0  0
  -19.6676  -15.4060   15.7810 C   0  0  0  0  0  0  0  0  0  0  0  0
  -17.7531  -16.9157   16.3083 C   0  0  0  0  0  0  0  0  0  0  0  0
  -22.3314  -20.8763   13.1108 C   0  0  0  0  0  0  0  0  0  0  0  0
  -30.8094  -16.8958   21.8977 C   0  0  0  0  0  0  0  0  0  0  0  0
  -27.7076  -20.4183   20.1525 C   0  0  0  0  0  0  0  0  0  1  0  0
  -20.1084  -17.8326   16.3710 C   0  0  1  0  0  0  0  0  0  0  0  0
  -20.8713  -18.8727   12.8065 C   0  0  2  0  0  0  0  0  0  0  0  0
  -19.2203  -16.5905   16.6639 C   0  0  0  0  0  0  0  0  0  0  0  0
  -25.8598  -11.5454   20.2835 N   0  0  0  0  0  0  0  0  0  0  0  0
  -26.2357  -12.8294   20.1558 N   0  0  0  0  0  0  0  0  0  0  0  0
  -20.7379  -19.5226   18.0656 N   0  0  0  0  0  0  0  0  0  0  0  0
  -29.9715  -13.6113   20.3589 N   0  0  0  0  0  0  0  0  0  0  0  0
  -25.4684  -15.0561   20.4078 N   0  0  0  0  0  0  0  0  0  0  0  0
  -21.8873  -12.5783   21.6046 N   0  0  0  0  0  0  0  0  0  0  0  0
  -19.1341  -20.4073   21.1276 N   0  0  0  0  0  0  0  0  0  0  0  0
  -20.0568  -18.2912   14.9870 N   0  0  0  0  0  0  0  0  0  0  0  0
  -30.1444  -15.6741   21.5028 N   0  0  0  0  0  0  0  0  0  0  0  0
  -21.9997  -19.6910   12.2790 N   0  3  0  0  0  0  0  0  0  0  0  0
  -22.6611  -14.7189   21.3255 O   0  0  0  0  0  0  0  0  0  0  0  0
  -20.7332  -18.7950   20.6117 O   0  0  0  0  0  0  0  0  0  0  0  0
  -18.5977  -19.4914   17.1409 O   0  0  0  0  0  0  0  0  0  0  0  0
  -22.3278  -18.0853   14.5660 O   0  0  0  0  0  0  0  0  0  0  0  0
  -31.8774  -14.9233   20.2029 O   0  0  0  0  0  0  0  0  0  0  0  0
  -21.6176   -7.0149   21.7070 O   0  0  0  0  0  0  0  0  0  0  0  0
  -26.7269  -19.5802   19.5424 O   0  0  0  0  0  0  0  0  0  1  0  0
  -18.6357   -6.8363   26.3417 F   0  0  0  0  0  0  0  0  0  0  0  0
  -19.6259   -8.8717   22.1845 F   0  0  0  0  0  0  0  0  0  0  0  0
  1  2  1  0  0  0  0
  1  6  2  0  0  0  0
  2  7  2  0  0  0  0
  3  9  1  0  0  0  0
  3 10  2  0  0  0  0
  4 11  2  0  0  0  0
  4 19  1  0  0  0  0
  5 12  1  0  0  0  0
  5 19  2  0  0  0  0
  6 21  1  0  0  0  0
  7 23  1  0  0  0  0
  8 13  2  0  0  0  0
  8 22  1  0  0  0  0
  9 25  2  0  0  0  0
 10 26  1  0  0  0  0
 11 27  1  0  0  0  0
 12 27  2  0  0  0  0
 13 28  1  0  0  0  0
 14 15  2  0  0  0  0
 14 29  1  0  0  0  0
 15 30  1  0  0  0  0
 16 24  1  0  0  0  0
 16 28  2  0  0  0  0
 17 25  1  0  0  0  0
 17 26  2  0  0  0  0
 18 30  2  0  0  0  0
 18 31  1  0  0  0  0
 19 32  1  0  0  0  0
 20 32  1  0  0  0  0
 20 33  2  0  0  0  0
 20 34  1  0  0  0  0
 21 23  2  0  0  0  0
 21 39  1  0  0  0  0
 22 24  2  0  0  0  0
 22 40  1  0  0  0  0
 23 48  1  0  0  0  0
 24 41  1  0  0  0  0
 25 56  1  0  0  0  0
 26 57  1  0  0  0  0
 27 76  1  0  0  0  0
 28 77  1  0  0  0  0
 29 31  2  0  0  0  0
 29 76  1  0  0  0  0
 30 78  1  0  0  0  0
 31 79  1  0  0  0  0
 32 61  2  0  0  0  0
 33 62  1  0  0  0  0
 33 65  1  0  0  0  0
 34 66  1  0  0  0  0
 34 71  2  0  0  0  0
 35 49  1  0  0  0  0
 35 67  1  0  0  0  0
 35 72  2  0  0  0  0
 36 58  1  0  0  0  0
 36 63  1  0  0  0  0
 36 73  2  0  0  0  0
 37 59  1  0  0  0  0
 37 68  1  0  0  0  0
 37 74  2  0  0  0  0
 38 64  1  0  0  0  0
 38 69  1  0  0  0  0
 38 75  2  0  0  0  0
 39 42  1  0  0  0  0
 40 49  1  0  0  0  0
 41 63  1  0  0  0  0
 42 44  1  0  0  0  0
 43 45  1  0  0  0  0
 43 46  1  0  0  0  0
 44 48  1  0  0  0  0
 45 50  1  0  0  0  0
 46 64  1  0  0  0  0
 47 50  1  0  0  0  0
 47 64  1  0  0  0  0
 48 67  1  0  0  0  0
 49 63  1  0  0  0  0
 50 62  1  0  0  0  0
 51 59  1  0  0  0  0
 52 60  1  0  0  0  0
 53 60  1  0  0  0  0
 54 60  1  0  0  0  0
 55 70  1  0  0  0  0
 56 69  1  0  0  0  0
 57 77  1  0  0  0  0
 58 60  1  0  0  0  0
 58 68  1  0  0  0  0
 59 70  1  0  0  0  0
 61 62  1  0  0  0  0
M  CHG  1  70   1
M  ISO  4  38 100  57 101  69 100  77 101
M  END
> <Batch ID>
0004

> <Smiles>
CNC(C)C(=O)NC(C(=O)N1Cc2cc([101O:1][101CH2:1]c3cccc(C[100NH:0][100C:0](=O)N4CCCC(n5nc(-c6ccc(Oc7ccc(F)cc7F)cc6)c(C(N)=O)c5N)C4)c3)ccc2CC1C(=O)NC1CCCc2ccccc21)C(C)(C)C

> <Shape>
0.192

> <Color>
0.200

> <Negative vol penalty>
0.000

$$$$

  -OEChem-04052315243D

 82 90  0     1  0  0  0  0  0999 V2000
  -24.6122  -34.0114   28.0639 C   0  0  0  0  0  0  0  0  0  0  0  0
  -25.4919  -33.1965   27.3586 C   0  0  0  0  0  0  0  0  0  0  0  0
  -24.2567   -9.1059   21.4812 C   0  0  0  0  0  0  0  0  0  0  0  0
  -24.7683  -10.3935   23.4604 C   0  0  0  0  0  0  0  0  0  0  0  0
  -23.2367  -33.8149   27.9481 C   0  0  0  0  0  0  0  0  0  0  0  0
  -24.9966  -32.1839   26.5377 C   0  0  0  0  0  0  0  0  0  0  0  0
  -27.3828  -30.2386   21.2437 C   0  0  0  0  0  0  0  0  0  0  0  0
  -30.2159  -18.8786   20.0778 C   0  0  0  0  0  0  0  0  0  0  0  0
  -23.9218   -8.0121   22.2793 C   0  0  0  0  0  0  0  0  0  0  0  0
  -24.4333   -9.2997   24.2585 C   0  0  0  0  0  0  0  0  0  0  0  0
  -28.1972  -29.1529   20.9246 C   0  0  0  0  0  0  0  0  0  0  0  0
  -30.3965  -20.2134   20.4399 C   0  0  0  0  0  0  0  0  0  0  0  0
  -21.2944   -7.0103   24.1570 C   0  0  0  0  0  0  0  0  0  0  0  0
  -20.1253   -6.3155   23.8470 C   0  0  0  0  0  0  0  0  0  0  0  0
  -26.2451  -27.8791   20.3032 C   0  0  0  0  0  0  0  0  0  0  0  0
  -28.0127  -20.4509   20.7535 C   0  0  0  0  0  0  0  0  0  0  0  0
  -21.4143   -4.3017   23.4998 C   0  0  0  0  0  0  0  0  0  0  0  0
  -24.6800  -10.2966   22.0717 C   0  0  0  0  0  0  0  0  0  0  0  0
  -24.1683  -12.4504   20.8040 C   0  0  0  0  0  0  0  0  0  0  0  0
  -22.7241  -32.8057   27.1179 C   0  0  0  0  0  0  0  0  0  0  0  0
  -25.9903  -30.1489   21.1050 C   0  0  0  0  0  0  0  0  0  0  0  0
  -23.6130  -31.9729   26.4117 C   0  0  0  0  0  0  0  0  0  0  0  0
  -25.4155  -28.9660   20.6188 C   0  0  0  0  0  0  0  0  0  0  0  0
  -28.9336  -18.3299   20.0534 C   0  0  0  0  0  0  0  0  0  0  0  0
  -24.0101   -8.1090   23.6679 C   0  0  0  0  0  0  0  0  0  0  0  0
  -27.6281  -27.9719   20.4571 C   0  0  0  0  0  0  0  0  0  0  0  0
  -29.2950  -20.9996   20.7778 C   0  0  0  0  0  0  0  0  0  0  0  0
  -22.5234   -6.3509   24.1383 C   0  0  0  0  0  0  0  0  0  0  0  0
  -20.1853   -4.9612   23.5185 C   0  0  0  0  0  0  0  0  0  0  0  0
  -27.8321  -19.1160   20.3913 C   0  0  0  0  0  0  0  0  0  0  0  0
  -22.5834   -4.9966   23.8098 C   0  0  0  0  0  0  0  0  0  0  0  0
  -25.0267  -11.4267   21.2478 C   0  0  0  0  0  0  0  0  0  0  0  0
  -24.9747  -13.2760   20.0594 C   0  0  0  0  0  0  0  0  0  0  0  0
  -22.7672  -12.6382   21.0434 C   0  0  0  0  0  0  0  0  0  0  0  0
  -23.5206  -30.3437   23.0966 C   0  0  0  0  0  0  0  0  0  0  0  0
  -21.7957  -30.1726   20.3547 C   0  0  0  0  0  0  0  0  0  0  0  0
  -21.6387  -29.2028   17.0865 C   0  0  0  0  0  0  0  0  0  0  0  0
  -29.7411  -16.0584   19.3221 C   0  0  0  0  0  0  0  0  0  0  0  0
  -21.2309  -32.6009   27.0614 C   0  0  0  0  0  0  0  0  0  0  0  0
  -25.1278  -31.3381   21.4281 C   0  0  0  0  0  0  0  0  0  0  0  0
  -23.9275  -28.8254   20.4328 C   0  0  0  0  0  0  0  0  0  0  0  0
  -20.7774  -31.7478   25.8795 C   0  0  0  0  0  0  0  0  0  0  0  0
  -29.7068  -12.6236   18.3850 C   0  0  0  0  0  0  0  0  0  0  0  0
  -21.6503  -30.5032   25.7534 C   0  0  0  0  0  0  0  0  0  0  0  0
  -28.4155  -12.0902   19.0097 C   0  0  0  0  0  0  0  0  0  0  0  0
  -30.3849  -13.6587   19.2809 C   0  0  0  0  0  0  0  0  0  0  0  0
  -28.2331  -14.2360   20.3323 C   0  0  0  0  0  0  0  0  0  0  0  0
  -23.1136  -30.8799   25.4919 C   0  0  1  0  0  0  0  0  0  0  0  0
  -23.6820  -30.9615   21.7365 C   0  0  1  0  0  0  0  0  0  0  0  0
  -27.4802  -13.2383   19.4372 C   0  0  2  0  0  0  0  0  0  0  0  0
  -20.0851  -29.1624   15.1161 C   0  0  0  0  0  0  0  0  0  0  0  0
  -20.2767  -27.8395   21.6034 C   0  0  0  0  0  0  0  0  0  0  0  0
  -19.4426  -27.2500   19.3175 C   0  0  0  0  0  0  0  0  0  0  0  0
  -18.8500  -29.4513   20.3303 C   0  0  0  0  0  0  0  0  0  0  0  0
  -23.4541  -30.8939   15.4731 C   0  0  0  0  0  0  0  0  0  0  0  0
  -28.9589  -24.6088   20.6297 C   0  0  0  0  0  0  0  0  0  0  0  0
  -27.8587  -25.6093   20.3123 C   0  0  0  0  0  0  0  0  0  1  0  0
  -28.4097  -23.2060   20.8371 C   0  0  0  0  0  0  0  0  0  0  0  0
  -21.2136  -29.0531   19.5260 C   0  0  1  0  0  0  0  0  0  0  0  0
  -21.1770  -29.9352   15.8395 C   0  0  2  0  0  0  0  0  0  0  0  0
  -19.9736  -28.4001   20.1995 C   0  0  0  0  0  0  0  0  0  0  0  0
  -26.2823  -11.5853   20.8207 N   0  0  0  0  0  0  0  0  0  0  0  0
  -26.2187  -12.7183   20.1006 N   0  0  0  0  0  0  0  0  0  0  0  0
  -23.1260  -30.0139   20.7684 N   0  0  0  0  0  0  0  0  0  0  0  0
  -29.4398  -14.7176   19.6419 N   0  0  0  0  0  0  0  0  0  0  0  0
  -24.7340  -14.4175   19.3799 N   0  0  0  0  0  0  0  0  0  0  0  0
  -22.0916  -11.6955   21.8304 N   0  0  0  0  0  0  0  0  0  0  0  0
  -28.7535  -16.9736   19.6850 N   0  0  0  0  0  0  0  0  0  0  0  0
  -23.2983  -31.2591   24.1075 N   0  0  0  0  0  0  0  0  0  0  0  0
  -20.9493  -29.6168   18.2066 N   0  0  0  0  0  0  0  0  0  0  0  0
  -22.3176  -30.1280   14.8999 N   0  3  0  0  0  0  0  0  0  0  0  0
  -22.1296  -13.6042   20.5598 O   0  0  0  0  0  0  0  0  0  0  0  0
  -23.5911  -29.1265   23.2195 O   0  0  0  0  0  0  0  0  0  0  0  0
  -21.0982  -31.1551   20.6191 O   0  0  0  0  0  0  0  0  0  0  0  0
  -22.5198  -28.3462   17.0680 O   0  0  0  0  0  0  0  0  0  0  0  0
  -30.7851  -16.3685   18.7427 O   0  0  0  0  0  0  0  0  0  0  0  0
  -23.6831   -7.0420   24.4471 O   0  0  0  0  0  0  0  0  0  0  0  0
  -28.4206  -26.9104   20.1455 O   0  0  0  0  0  0  0  0  0  1  0  0
  -29.4727  -22.3109   21.1348 O   0  0  0  0  0  0  0  0  0  0  0  0
  -19.0624   -4.2937   23.2223 F   0  0  0  0  0  0  0  0  0  0  0  0
  -26.5952  -18.5992   20.3709 F   0  0  0  0  0  0  0  0  0  0  0  0
  -23.7611   -4.3575   23.7913 F   0  0  0  0  0  0  0  0  0  0  0  0
  1  2  1  0  0  0  0
  1  5  2  0  0  0  0
  2  6  2  0  0  0  0
  3  9  2  0  0  0  0
  3 18  1  0  0  0  0
  4 10  1  0  0  0  0
  4 18  2  0  0  0  0
  5 20  1  0  0  0  0
  6 22  1  0  0  0  0
  7 11  2  0  0  0  0
  7 21  1  0  0  0  0
  8 12  2  0  0  0  0
  8 24  1  0  0  0  0
  9 25  1  0  0  0  0
 10 25  2  0  0  0  0
 11 26  1  0  0  0  0
 12 27  1  0  0  0  0
 13 14  2  0  0  0  0
 13 28  1  0  0  0  0
 14 29  1  0  0  0  0
 15 23  1  0  0  0  0
 15 26  2  0  0  0  0
 16 27  2  0  0  0  0
 16 30  1  0  0  0  0
 17 29  2  0  0  0  0
 17 31  1  0  0  0  0
 18 32  1  0  0  0  0
 19 32  1  0  0  0  0
 19 33  2  0  0  0  0
 19 34  1  0  0  0  0
 20 22  2  0  0  0  0
 20 39  1  0  0  0  0
 21 23  2  0  0  0  0
 21 40  1  0  0  0  0
 22 48  1  0  0  0  0
 23 41  1  0  0  0  0
 24 30  2  0  0  0  0
 24 68  1  0  0  0  0
 25 77  1  0  0  0  0
 26 78  1  0  0  0  0
 27 79  1  0  0  0  0
 28 31  2  0  0  0  0
 28 77  1  0  0  0  0
 29 80  1  0  0  0  0
 30 81  1  0  0  0  0
 31 82  1  0  0  0  0
 32 62  2  0  0  0  0
 33 63  1  0  0  0  0
 33 66  1  0  0  0  0
 34 67  1  0  0  0  0
 34 72  2  0  0  0  0
 35 49  1  0  0  0  0
 35 69  1  0  0  0  0
 35 73  2  0  0  0  0
 36 59  1  0  0  0  0
 36 64  1  0  0  0  0
 36 74  2  0  0  0  0
 37 60  1  0  0  0  0
 37 70  1  0  0  0  0
 37 75  2  0  0  0  0
 38 65  1  0  0  0  0
 38 68  1  0  0  0  0
 38 76  2  0  0  0  0
 39 42  1  0  0  0  0
 40 49  1  0  0  0  0
 41 64  1  0  0  0  0
 42 44  1  0  0  0  0
 43 45  1  0  0  0  0
 43 46  1  0  0  0  0
 44 48  1  0  0  0  0
 45 50  1  0  0  0  0
 46 65  1  0  0  0  0
 47 50  1  0  0  0  0
 47 65  1  0  0  0  0
 48 69  1  0  0  0  0
 49 64  1  0  0  0  0
 50 63  1  0  0  0  0
 51 60  1  0  0  0  0
 52 61  1  0  0  0  0
 53 61  1  0  0  0  0
 54 61  1  0  0  0  0
 55 71  1  0  0  0  0
 56 57  1  0  0  0  0
 56 58  1  0  0  0  0
 57 78  1  0  0  0  0
 58 79  1  0  0  0  0
 59 61  1  0  0  0  0
 59 70  1  0  0  0  0
 60 71  1  0  0  0  0
 62 63  1  0  0  0  0
M  CHG  1  71   1
M  ISO  4  38 100  57 101  68 100  78 101
M  END
> <Batch ID>
0004

> <Smiles>
CNC(C)C(=O)NC(C(=O)N1Cc2cc([101O:1][101CH2:1]CCOc3ccc([100NH:0][100C:0](=O)N4CCCC(n5nc(-c6ccc(Oc7ccc(F)cc7F)cc6)c(C(N)=O)c5N)C4)c(F)c3)ccc2CC1C(=O)NC1CCCc2ccccc21)C(C)(C)C

> <Shape>
0.303

> <Color>
0.145

> <Negative vol penalty>
0.000

$$$$

  -OEChem-04052315243D

 95102  0     1  0  0  0  0  0999 V2000
  -26.3046  -10.0274   26.1252 C   0  0  0  0  0  0  0  0  0  0  0  0
  -27.6471  -10.1238   26.4774 C   0  0  0  0  0  0  0  0  0  0  0  0
  -23.0745   -9.8688   19.9415 C   0  0  0  0  0  0  0  0  0  0  0  0
  -23.8386   -9.8746   22.2335 C   0  0  0  0  0  0  0  0  0  0  0  0
  -25.6074  -11.1655   25.7222 C   0  0  0  0  0  0  0  0  0  0  0  0
  -28.2933  -11.3583   26.4257 C   0  0  0  0  0  0  0  0  0  0  0  0
  -32.6890  -13.3729   30.1841 C   0  0  0  0  0  0  0  0  0  0  0  0
  -22.3320   -8.7149   20.1919 C   0  0  0  0  0  0  0  0  0  0  0  0
  -23.0961   -8.7206   22.4840 C   0  0  0  0  0  0  0  0  0  0  0  0
  -34.0774  -13.4170   30.0650 C   0  0  0  0  0  0  0  0  0  0  0  0
  -21.1156   -5.9810   23.8220 C   0  0  0  0  0  0  0  0  0  0  0  0
  -20.3616   -5.9359   24.9946 C   0  0  0  0  0  0  0  0  0  0  0  0
  -33.9334  -15.7016   29.3039 C   0  0  0  0  0  0  0  0  0  0  0  0
  -19.1142   -7.8728   24.2668 C   0  0  0  0  0  0  0  0  0  0  0  0
  -23.8279  -10.4486   20.9623 C   0  0  0  0  0  0  0  0  0  0  0  0
  -24.1676  -12.9741   20.8436 C   0  0  0  0  0  0  0  0  0  0  0  0
  -26.2429  -12.4163   25.6748 C   0  0  0  0  0  0  0  0  0  0  0  0
  -31.9103  -14.4911   29.8530 C   0  0  0  0  0  0  0  0  0  0  0  0
  -27.6043  -12.5140   26.0204 C   0  0  0  0  0  0  0  0  0  0  0  0
  -32.5355  -15.6699   29.4221 C   0  0  0  0  0  0  0  0  0  0  0  0
  -22.3427   -8.1408   21.4631 C   0  0  0  0  0  0  0  0  0  0  0  0
  -34.6996  -14.5806   29.6221 C   0  0  0  0  0  0  0  0  0  0  0  0
  -20.8691   -6.9720   22.8719 C   0  0  0  0  0  0  0  0  0  0  0  0
  -19.3608   -6.8818   25.2170 C   0  0  0  0  0  0  0  0  0  0  0  0
  -19.8683   -7.9179   23.0943 C   0  0  0  0  0  0  0  0  0  0  0  0
  -24.5956  -11.6403   20.7041 C   0  0  0  0  0  0  0  0  0  0  0  0
  -25.2585  -13.7247   20.4789 C   0  0  0  0  0  0  0  0  0  0  0  0
  -22.8975  -13.4886   21.2653 C   0  0  0  0  0  0  0  0  0  0  0  0
  -29.6482  -15.0921   27.7022 C   0  0  0  0  0  0  0  0  0  0  0  0
  -29.4457  -17.9196   29.2791 C   0  0  0  0  0  0  0  0  0  0  0  0
  -39.6621  -20.3778   28.1118 C   0  0  0  0  0  0  0  0  0  0  0  0
  -37.8985  -14.9162   27.9661 C   0  0  0  0  0  0  0  0  0  0  0  0
  -30.9599  -20.2419   31.2694 C   0  0  0  0  0  0  0  0  0  0  0  0
  -30.7418  -14.7478   20.6580 C   0  0  0  0  0  0  0  0  0  0  0  0
  -25.4605  -13.6101   25.1875 C   0  0  0  0  0  0  0  0  0  0  0  0
  -30.4156  -14.4361   30.0124 C   0  0  0  0  0  0  0  0  0  0  0  0
  -31.7463  -16.9044   29.0735 C   0  0  0  0  0  0  0  0  0  0  0  0
  -26.1191  -14.9467   25.5192 C   0  0  0  0  0  0  0  0  0  0  0  0
  -29.6017  -12.3643   18.2715 C   0  0  0  0  0  0  0  0  0  0  0  0
  -27.6053  -14.9088   25.1774 C   0  0  0  0  0  0  0  0  0  0  0  0
  -28.1652  -12.0691   18.7068 C   0  0  0  0  0  0  0  0  0  0  0  0
  -30.5208  -12.5848   19.4709 C   0  0  0  0  0  0  0  0  0  0  0  0
  -28.6211  -13.3134   20.8615 C   0  0  0  0  0  0  0  0  0  0  0  0
  -28.3337  -13.8398   26.0009 C   0  0  1  0  0  0  0  0  0  0  0  0
  -29.6852  -15.4666   29.1569 C   0  0  1  0  0  0  0  0  0  0  0  0
  -27.6449  -13.1390   19.6855 C   0  0  2  0  0  0  0  0  0  0  0  0
  -30.5558  -22.4656   32.3599 C   0  0  0  0  0  0  0  0  0  0  0  0
  -29.8174  -19.3051   26.5861 C   0  0  0  0  0  0  0  0  0  0  0  0
  -30.3535  -21.4143   27.8239 C   0  0  0  0  0  0  0  0  0  0  0  0
  -28.1067  -20.3598   28.0746 C   0  0  0  0  0  0  0  0  0  0  0  0
  -41.1667  -20.1823   30.1019 C   0  0  0  0  0  0  0  0  0  0  0  0
  -31.3411  -19.1130   33.9785 C   0  0  0  0  0  0  0  0  0  0  0  0
  -36.4309  -22.0624   29.1451 C   0  0  0  0  0  0  0  0  0  0  0  0
  -38.5915  -20.8261   29.0821 C   0  0  0  0  0  0  0  0  0  0  0  0
  -36.6009  -15.4759   28.5089 C   0  0  0  0  0  0  0  0  0  1  0  0
  -33.2137  -17.7937   24.8254 C   0  0  0  0  0  0  0  0  0  0  0  0
  -33.9729  -19.0658   25.2099 C   0  0  0  0  0  0  0  0  0  0  0  0
  -32.3549  -18.0135   23.5782 C   0  0  0  0  0  0  0  0  0  0  0  0
  -34.8605  -18.8323   26.4344 C   0  0  0  0  0  0  0  0  0  0  0  0
  -40.8243  -17.5452   27.0637 C   0  0  0  0  0  0  0  0  0  0  0  0
  -31.6270  -16.7287   23.1721 C   0  0  0  0  0  0  0  0  0  0  0  0
  -40.8817  -16.0163   26.9856 C   0  0  0  0  0  0  0  0  0  0  0  0
  -42.0889  -18.1136   27.7155 C   0  0  0  0  0  0  0  0  0  0  0  0
  -35.6961  -20.0559   26.8198 C   0  0  0  0  0  0  0  0  0  0  0  0
  -39.6640  -15.4188   26.2880 C   0  0  0  0  0  0  0  0  0  0  0  0
  -30.8083  -16.8974   21.8965 C   0  0  0  0  0  0  0  0  0  0  0  0
  -42.0407  -19.6307   27.8640 C   0  0  0  0  0  0  0  0  0  0  0  0
  -36.5549  -19.8264   28.0557 C   0  0  0  0  0  0  0  0  0  0  0  0
  -30.1163  -19.2659   29.1503 C   0  0  1  0  0  0  0  0  0  0  0  0
  -30.4877  -20.9551   32.5235 C   0  0  2  0  0  0  0  0  0  0  0  0
  -29.6135  -20.0625   27.9134 C   0  0  0  0  0  0  0  0  0  0  0  0
  -25.8598  -11.5457   20.2834 N   0  0  0  0  0  0  0  0  0  0  0  0
  -26.2355  -12.8297   20.1554 N   0  0  0  0  0  0  0  0  0  0  0  0
  -30.2872  -16.7988   29.2397 N   0  0  0  0  0  0  0  0  0  0  0  0
  -29.9711  -13.6122   20.3587 N   0  0  0  0  0  0  0  0  0  0  0  0
  -25.4678  -15.0564   20.4066 N   0  0  0  0  0  0  0  0  0  0  0  0
  -21.8869  -12.5784   21.6037 N   0  0  0  0  0  0  0  0  0  0  0  0
  -28.5642  -14.3110   27.3497 N   0  0  0  0  0  0  0  0  0  0  0  0
  -38.4369  -15.7235   26.9702 N   0  0  0  0  0  0  0  0  0  0  0  0
  -29.9112  -19.9476   30.4238 N   0  0  0  0  0  0  0  0  0  0  0  0
  -30.1435  -15.6755   21.5019 N   0  0  0  0  0  0  0  0  0  0  0  0
  -40.9075  -20.0757   28.6716 N   0  0  0  0  0  0  0  0  0  0  0  0
  -31.3340  -20.5699   33.6882 N   0  3  0  0  0  0  0  0  0  0  0  0
  -37.2811  -21.0797   28.3780 N   0  3  1  0  0  0  0  0  0  0  0  0
  -22.6604  -14.7190   21.3240 O   0  0  0  0  0  0  0  0  0  0  0  0
  -30.5366  -15.4841   26.9547 O   0  0  0  0  0  0  0  0  0  0  0  0
  -28.2211  -17.8646   29.4170 O   0  0  0  0  0  0  0  0  0  0  0  0
  -39.4183  -20.2954   26.9053 O   0  0  0  0  0  0  0  0  0  0  0  0
  -38.3931  -13.8693   28.3751 O   0  0  0  0  0  0  0  0  0  0  0  0
  -32.1412  -19.9759   31.0591 O   0  0  0  0  0  0  0  0  0  0  0  0
  -31.8768  -14.9244   20.2025 O   0  0  0  0  0  0  0  0  0  0  0  0
  -21.6181   -7.0150   21.7079 O   0  0  0  0  0  0  0  0  0  0  0  0
  -36.0687  -14.6266   29.5032 O   0  0  0  0  0  0  0  0  0  1  0  0
  -18.6357   -6.8374   26.3424 F   0  0  0  0  0  0  0  0  0  0  0  0
  -19.6260   -8.8716   22.1846 F   0  0  0  0  0  0  0  0  0  0  0  0
  1  2  1  0  0  0  0
  1  5  2  0  0  0  0
  2  6  2  0  0  0  0
  3  8  2  0  0  0  0
  3 15  1  0  0  0  0
  4  9  1  0  0  0  0
  4 15  2  0  0  0  0
  5 17  1  0  0  0  0
  6 19  1  0  0  0  0
  7 10  2  0  0  0  0
  7 18  1  0  0  0  0
  8 21  1  0  0  0  0
  9 21  2  0  0  0  0
 10 22  1  0  0  0  0
 11 12  2  0  0  0  0
 11 23  1  0  0  0  0
 12 24  1  0  0  0  0
 13 20  1  0  0  0  0
 13 22  2  0  0  0  0
 14 24  2  0  0  0  0
 14 25  1  0  0  0  0
 15 26  1  0  0  0  0
 16 26  1  0  0  0  0
 16 27  2  0  0  0  0
 16 28  1  0  0  0  0
 17 19  2  0  0  0  0
 17 35  1  0  0  0  0
 18 20  2  0  0  0  0
 18 36  1  0  0  0  0
 19 44  1  0  0  0  0
 20 37  1  0  0  0  0
 21 92  1  0  0  0  0
 22 93  1  0  0  0  0
 23 25  2  0  0  0  0
 23 92  1  0  0  0  0
 24 94  1  0  0  0  0
 25 95  1  0  0  0  0
 26 72  2  0  0  0  0
 27 73  1  0  0  0  0
 27 76  1  0  0  0  0
 28 77  1  0  0  0  0
 28 85  2  0  0  0  0
 29 45  1  0  0  0  0
 29 78  1  0  0  0  0
 29 86  2  0  0  0  0
 30 69  1  0  0  0  0
 30 74  1  0  0  0  0
 30 87  2  0  0  0  0
 31 54  1  0  0  0  0
 31 82  1  0  0  0  0
 31 88  2  0  0  0  0
 32 55  1  0  0  0  0
 32 79  1  0  0  0  0
 32 89  2  0  0  0  0
 33 70  1  0  0  0  0
 33 80  1  0  0  0  0
 33 90  2  0  0  0  0
 34 75  1  0  0  0  0
 34 81  1  0  0  0  0
 34 91  2  0  0  0  0
 35 38  1  0  0  0  0
 36 45  1  0  0  0  0
 37 74  1  0  0  0  0
 38 40  1  0  0  0  0
 39 41  1  0  0  0  0
 39 42  1  0  0  0  0
 40 44  1  0  0  0  0
 41 46  1  0  0  0  0
 42 75  1  0  0  0  0
 43 46  1  0  0  0  0
 43 75  1  0  0  0  0
 44 78  1  0  0  0  0
 45 74  1  0  0  0  0
 46 73  1  0  0  0  0
 47 70  1  0  0  0  0
 48 71  1  0  0  0  0
 49 71  1  0  0  0  0
 50 71  1  0  0  0  0
 51 82  1  0  0  0  0
 52 83  1  0  0  0  0
 53 84  1  0  0  0  0
 54 84  1  0  0  0  0
 55 93  1  0  0  0  0
 56 57  1  0  0  0  0
 56 58  1  0  0  0  0
 57 59  1  0  0  0  0
 58 61  1  0  0  0  0
 59 64  1  0  0  0  0
 60 62  1  0  0  0  0
 60 63  1  0  0  0  0
 61 66  1  0  0  0  0
 62 65  1  0  0  0  0
 63 67  1  0  0  0  0
 64 68  1  0  0  0  0
 65 79  1  0  0  0  0
 66 81  1  0  0  0  0
 67 82  1  0  0  0  0
 68 84  1  0  0  0  0
 69 71  1  0  0  0  0
 69 80  1  0  0  0  0
 70 83  1  0  0  0  0
 72 73  1  0  0  0  0
M  CHG  2  83   1  84   1
M  ISO  4  34 100  55 101  81 100  93 101
M  END
> <Batch ID>
0004

> <Smiles>
CNC(C)C(=O)NC(C(=O)N1Cc2cc([101O:1][101CH2:1]C(=O)NCCCCCN(C)C(=O)CN(C)CCCCCCCC[100NH:0][100C:0](=O)N3CCCC(n4nc(-c5ccc(Oc6ccc(F)cc6F)cc5)c(C(N)=O)c4N)C3)ccc2CC1C(=O)NC1CCCc2ccccc21)C(C)(C)C

> <Shape>
0.151

> <Color>
0.176

> <Negative vol penalty>
0.000

$$$$

  -OEChem-04052315243D

 78 86  0     1  0  0  0  0  0999 V2000
  -26.7739  -32.6995   28.1675 C   0  0  0  0  0  0  0  0  0  0  0  0
  -27.2042  -31.6974   27.3039 C   0  0  0  0  0  0  0  0  0  0  0  0
  -27.9925  -22.3141   16.9447 C   0  0  0  0  0  0  0  0  0  0  0  0
  -26.5064  -12.7174   21.6170 C   0  0  0  0  0  0  0  0  0  0  0  0
  -26.0125  -13.7464   19.4877 C   0  0  0  0  0  0  0  0  0  0  0  0
  -25.4236  -33.0436   28.2165 C   0  0  0  0  0  0  0  0  0  0  0  0
  -26.2843  -31.0379   26.4894 C   0  0  0  0  0  0  0  0  0  0  0  0
  -27.2352  -28.9309   20.8182 C   0  0  0  0  0  0  0  0  0  0  0  0
  -27.8815  -23.5924   17.4918 C   0  0  0  0  0  0  0  0  0  0  0  0
  -28.5263  -21.2739   17.7054 C   0  0  0  0  0  0  0  0  0  0  0  0
  -25.2502  -12.1112   21.6155 C   0  0  0  0  0  0  0  0  0  0  0  0
  -24.7563  -13.1402   19.4860 C   0  0  0  0  0  0  0  0  0  0  0  0
  -27.5382  -27.6615   20.3277 C   0  0  0  0  0  0  0  0  0  0  0  0
  -23.7752   -9.4401   20.1584 C   0  0  0  0  0  0  0  0  0  0  0  0
  -23.7052   -8.0929   20.5128 C   0  0  0  0  0  0  0  0  0  0  0  0
  -25.1982  -27.2824   19.8806 C   0  0  0  0  0  0  0  0  0  0  0  0
  -28.8381  -22.7902   19.5602 C   0  0  0  0  0  0  0  0  0  0  0  0
  -22.2435   -8.6529   22.3531 C   0  0  0  0  0  0  0  0  0  0  0  0
  -26.8875  -13.5351   20.5531 C   0  0  0  0  0  0  0  0  0  0  0  0
  -29.3811  -13.6417   20.0253 C   0  0  0  0  0  0  0  0  0  0  0  0
  -24.4882  -32.3946   27.3953 C   0  0  0  0  0  0  0  0  0  0  0  0
  -25.9080  -29.3822   20.8538 C   0  0  0  0  0  0  0  0  0  0  0  0
  -24.9201  -31.3726   26.5285 C   0  0  0  0  0  0  0  0  0  0  0  0
  -24.8813  -28.5589   20.3697 C   0  0  0  0  0  0  0  0  0  0  0  0
  -28.3043  -23.8305   18.7995 C   0  0  0  0  0  0  0  0  0  0  0  0
  -28.9491  -21.5119   19.0131 C   0  0  0  0  0  0  0  0  0  0  0  0
  -24.3751  -12.3225   20.5500 C   0  0  0  0  0  0  0  0  0  0  0  0
  -26.5193  -26.8359   19.8615 C   0  0  0  0  0  0  0  0  0  0  0  0
  -23.0795  -10.3938   20.9015 C   0  0  0  0  0  0  0  0  0  0  0  0
  -22.9393   -7.6992   21.6101 C   0  0  0  0  0  0  0  0  0  0  0  0
  -22.3136  -10.0001   21.9988 C   0  0  0  0  0  0  0  0  0  0  0  0
  -28.1848  -14.1621   20.5545 C   0  0  0  0  0  0  0  0  0  0  0  0
  -30.3189  -14.6133   20.2763 C   0  0  0  0  0  0  0  0  0  0  0  0
  -29.6229  -12.3918   19.3657 C   0  0  0  0  0  0  0  0  0  0  0  0
  -23.8999  -30.2656   23.1541 C   0  0  0  0  0  0  0  0  0  0  0  0
  -21.9913  -31.0484   20.6508 C   0  0  0  0  0  0  0  0  0  0  0  0
  -21.1684  -30.5681   17.3737 C   0  0  0  0  0  0  0  0  0  0  0  0
  -29.9572  -20.5208   21.0983 C   0  0  0  0  0  0  0  0  0  0  0  0
  -23.0321  -32.7683   27.5176 C   0  0  0  0  0  0  0  0  0  0  0  0
  -25.6007  -30.7644   21.3612 C   0  0  0  0  0  0  0  0  0  0  0  0
  -23.4424  -29.0040   20.3674 C   0  0  0  0  0  0  0  0  0  0  0  0
  -22.1777  -32.2795   26.3509 C   0  0  0  0  0  0  0  0  0  0  0  0
  -31.3281  -18.1363   23.3592 C   0  0  0  0  0  0  0  0  0  0  0  0
  -22.4919  -30.8209   26.0335 C   0  0  0  0  0  0  0  0  0  0  0  0
  -30.7915  -16.7986   22.8447 C   0  0  0  0  0  0  0  0  0  0  0  0
  -30.2992  -19.2555   23.2095 C   0  0  0  0  0  0  0  0  0  0  0  0
  -29.2062  -18.0732   21.3449 C   0  0  0  0  0  0  0  0  0  0  0  0
  -23.9563  -30.6512   25.6115 C   0  0  1  0  0  0  0  0  0  0  0  0
  -24.1568  -30.9225   21.8274 C   0  0  1  0  0  0  0  0  0  0  0  0
  -30.2305  -16.9288   21.4151 C   0  0  2  0  0  0  0  0  0  0  0  0
  -19.5398  -31.3237   15.6205 C   0  0  0  0  0  0  0  0  0  0  0  0
  -19.8198  -29.3285   21.9301 C   0  0  0  0  0  0  0  0  0  0  0  0
  -18.6126  -29.3443   19.7367 C   0  0  0  0  0  0  0  0  0  0  0  0
  -19.0056  -31.4839   20.9576 C   0  0  0  0  0  0  0  0  0  0  0  0
  -23.3324  -31.6255   15.6538 C   0  0  0  0  0  0  0  0  0  0  0  0
  -28.1847  -25.2057   19.3875 C   0  0  0  0  0  0  0  0  0  1  0  0
  -20.9499  -30.3236   19.8328 C   0  0  1  0  0  0  0  0  0  0  0  0
  -20.9071  -31.5505   16.2463 C   0  0  2  0  0  0  0  0  0  0  0  0
  -19.6238  -30.1106   20.6160 C   0  0  0  0  0  0  0  0  0  0  0  0
  -28.3453  -15.3704   21.1006 N   0  0  0  0  0  0  0  0  0  0  0  0
  -29.6533  -15.6173   20.9160 N   0  0  0  0  0  0  0  0  0  0  0  0
  -23.1921  -30.3615   20.8793 N   0  0  0  0  0  0  0  0  0  0  0  0
  -29.8156  -19.3219   21.8287 N   0  0  0  0  0  0  0  0  0  0  0  0
  -31.6396  -14.6981   20.0102 N   0  0  0  0  0  0  0  0  0  0  0  0
  -28.5477  -11.5102   19.1899 N   0  0  0  0  0  0  0  0  0  0  0  0
  -29.4906  -20.4548   19.7858 N   0  0  0  0  0  0  0  0  0  0  0  0
  -24.1410  -31.0823   24.2423 N   0  0  0  0  0  0  0  0  0  0  0  0
  -20.7987  -31.0848   18.5974 N   0  0  0  0  0  0  0  0  0  0  0  0
  -21.9408  -31.4053   15.1827 N   0  3  0  0  0  0  0  0  0  0  0  0
  -30.7622  -12.0595   18.9593 O   0  0  0  0  0  0  0  0  0  0  0  0
  -23.5105  -29.1042   23.1878 O   0  0  0  0  0  0  0  0  0  0  0  0
  -21.7511  -32.1850   21.0655 O   0  0  0  0  0  0  0  0  0  0  0  0
  -21.6488  -29.4523   17.1870 O   0  0  0  0  0  0  0  0  0  0  0  0
  -30.4803  -21.5233   21.5915 O   0  0  0  0  0  0  0  0  0  0  0  0
  -23.1494  -11.7309   20.5480 O   0  0  0  0  0  0  0  0  0  0  0  0
  -26.8122  -25.5962   19.3828 O   0  0  0  0  0  0  0  0  0  1  0  0
  -22.8709   -6.4052   21.9493 F   0  0  0  0  0  0  0  0  0  0  0  0
  -21.6420  -10.9116   22.7158 F   0  0  0  0  0  0  0  0  0  0  0  0
  1  2  1  0  0  0  0
  1  6  2  0  0  0  0
  2  7  2  0  0  0  0
  3  9  2  0  0  0  0
  3 10  1  0  0  0  0
  4 11  2  0  0  0  0
  4 19  1  0  0  0  0
  5 12  1  0  0  0  0
  5 19  2  0  0  0  0
  6 21  1  0  0  0  0
  7 23  1  0  0  0  0
  8 13  2  0  0  0  0
  8 22  1  0  0  0  0
  9 25  1  0  0  0  0
 10 26  2  0  0  0  0
 11 27  1  0  0  0  0
 12 27  2  0  0  0  0
 13 28  1  0  0  0  0
 14 15  2  0  0  0  0
 14 29  1  0  0  0  0
 15 30  1  0  0  0  0
 16 24  1  0  0  0  0
 16 28  2  0  0  0  0
 17 25  2  0  0  0  0
 17 26  1  0  0  0  0
 18 30  2  0  0  0  0
 18 31  1  0  0  0  0
 19 32  1  0  0  0  0
 20 32  1  0  0  0  0
 20 33  2  0  0  0  0
 20 34  1  0  0  0  0
 21 23  2  0  0  0  0
 21 39  1  0  0  0  0
 22 24  2  0  0  0  0
 22 40  1  0  0  0  0
 23 48  1  0  0  0  0
 24 41  1  0  0  0  0
 25 56  1  0  0  0  0
 26 66  1  0  0  0  0
 27 75  1  0  0  0  0
 28 76  1  0  0  0  0
 29 31  2  0  0  0  0
 29 75  1  0  0  0  0
 30 77  1  0  0  0  0
 31 78  1  0  0  0  0
 32 60  2  0  0  0  0
 33 61  1  0  0  0  0
 33 64  1  0  0  0  0
 34 65  1  0  0  0  0
 34 70  2  0  0  0  0
 35 49  1  0  0  0  0
 35 67  1  0  0  0  0
 35 71  2  0  0  0  0
 36 57  1  0  0  0  0
 36 62  1  0  0  0  0
 36 72  2  0  0  0  0
 37 58  1  0  0  0  0
 37 68  1  0  0  0  0
 37 73  2  0  0  0  0
 38 63  1  0  0  0  0
 38 66  1  0  0  0  0
 38 74  2  0  0  0  0
 39 42  1  0  0  0  0
 40 49  1  0  0  0  0
 41 62  1  0  0  0  0
 42 44  1  0  0  0  0
 43 45  1  0  0  0  0
 43 46  1  0  0  0  0
 44 48  1  0  0  0  0
 45 50  1  0  0  0  0
 46 63  1  0  0  0  0
 47 50  1  0  0  0  0
 47 63  1  0  0  0  0
 48 67  1  0  0  0  0
 49 62  1  0  0  0  0
 50 61  1  0  0  0  0
 51 58  1  0  0  0  0
 52 59  1  0  0  0  0
 53 59  1  0  0  0  0
 54 59  1  0  0  0  0
 55 69  1  0  0  0  0
 56 76  1  0  0  0  0
 57 59  1  0  0  0  0
 57 68  1  0  0  0  0
 58 69  1  0  0  0  0
 60 61  1  0  0  0  0
M  CHG  1  69   1
M  ISO  4  38 100  56 101  66 100  76 101
M  END
> <Batch ID>
0004

> <Smiles>
CNC(C)C(=O)NC(C(=O)N1Cc2cc([101O:1][101CH2:1]c3cccc([100NH:0][100C:0](=O)N4CCCC(n5nc(-c6ccc(Oc7ccc(F)cc7F)cc6)c(C(N)=O)c5N)C4)c3)ccc2CC1C(=O)NC1CCCc2ccccc21)C(C)(C)C

> <Shape>
0.294

> <Color>
0.112

> <Negative vol penalty>
0.000

$$$$

  -OEChem-04052315243D

 89 96  0     1  0  0  0  0  0999 V2000
  -26.7482  -22.0078   20.1871 C   0  0  0  0  0  0  0  0  0  0  0  0
  -16.7297  -29.2409   24.2180 C   0  0  0  0  0  0  0  0  0  0  0  0
  -17.2990  -28.2923   23.3745 C   0  0  0  0  0  0  0  0  0  0  0  0
  -26.2548  -12.7816   21.4234 C   0  0  0  0  0  0  0  0  0  0  0  0
  -25.3483  -12.2836   19.2400 C   0  0  0  0  0  0  0  0  0  0  0  0
  -17.2777  -30.5205   24.2967 C   0  0  0  0  0  0  0  0  0  0  0  0
  -18.4162  -28.6232   22.6084 C   0  0  0  0  0  0  0  0  0  0  0  0
  -21.9771  -25.0240   22.7104 C   0  0  0  0  0  0  0  0  0  0  0  0
  -25.2169  -12.0641   22.0180 C   0  0  0  0  0  0  0  0  0  0  0  0
  -24.3103  -11.5662   19.8346 C   0  0  0  0  0  0  0  0  0  0  0  0
  -21.7703  -23.9009   21.9107 C   0  0  0  0  0  0  0  0  0  0  0  0
  -21.9575  -12.5569   22.7649 C   0  0  0  0  0  0  0  0  0  0  0  0
  -21.3201  -13.1317   23.8643 C   0  0  0  0  0  0  0  0  0  0  0  0
  -23.2649  -24.8142   20.2520 C   0  0  0  0  0  0  0  0  0  0  0  0
  -21.9655  -11.2431   25.2259 C   0  0  0  0  0  0  0  0  0  0  0  0
  -26.3205  -12.8914   20.0344 C   0  0  0  0  0  0  0  0  0  0  0  0
  -28.6450  -13.1365   19.0124 C   0  0  0  0  0  0  0  0  0  0  0  0
  -18.4079  -30.8643   23.5385 C   0  0  0  0  0  0  0  0  0  0  0  0
  -22.8223  -26.0574   22.2814 C   0  0  0  0  0  0  0  0  0  0  0  0
  -18.9790  -29.9090   22.6761 C   0  0  0  0  0  0  0  0  0  0  0  0
  -23.4828  -25.9482   21.0493 C   0  0  0  0  0  0  0  0  0  0  0  0
  -24.2447  -11.4564   21.2236 C   0  0  0  0  0  0  0  0  0  0  0  0
  -22.4120  -23.7971   20.6800 C   0  0  0  0  0  0  0  0  0  0  0  0
  -22.5988  -11.3251   22.8958 C   0  0  0  0  0  0  0  0  0  0  0  0
  -21.3241  -12.4748   25.0949 C   0  0  0  0  0  0  0  0  0  0  0  0
  -22.6028  -10.6682   24.1263 C   0  0  0  0  0  0  0  0  0  0  0  0
  -27.3921  -13.6328   19.4196 C   0  0  0  0  0  0  0  0  0  0  0  0
  -29.2947  -14.2292   18.4925 C   0  0  0  0  0  0  0  0  0  0  0  0
  -29.1740  -11.8065   19.0965 C   0  0  0  0  0  0  0  0  0  0  0  0
  -22.4365  -29.1428   21.6218 C   0  0  0  0  0  0  0  0  0  0  0  0
  -29.3966  -19.1779   22.1332 C   0  0  0  0  0  0  0  0  0  0  0  0
  -25.6644  -29.0791   21.3069 C   0  0  0  0  0  0  0  0  0  0  0  0
  -22.4644  -20.3012   19.7506 C   0  0  0  0  0  0  0  0  0  0  0  0
  -26.9295  -18.9008   22.5770 C   0  0  0  0  0  0  0  0  0  0  0  0
  -28.4790  -27.2526   20.6835 C   0  0  0  0  0  0  0  0  0  0  0  0
  -29.9193  -19.8330   19.9850 C   0  0  0  0  0  0  0  0  0  0  0  0
  -18.9363  -32.2745   23.6215 C   0  0  0  0  0  0  0  0  0  0  0  0
  -23.0557  -27.2500   23.1677 C   0  0  0  0  0  0  0  0  0  0  0  0
  -24.4160  -27.0207   20.5520 C   0  0  0  0  0  0  0  0  0  0  0  0
  -20.3465  -32.4307   23.0582 C   0  0  0  0  0  0  0  0  0  0  0  0
  -27.6032  -18.8479   17.2876 C   0  0  0  0  0  0  0  0  0  0  0  0
  -20.4636  -31.7278   21.7095 C   0  0  0  0  0  0  0  0  0  0  0  0
  -27.3600  -17.4054   17.7422 C   0  0  0  0  0  0  0  0  0  0  0  0
  -28.9711  -19.4027   17.6790 C   0  0  0  0  0  0  0  0  0  0  0  0
  -29.3297  -17.5326   19.3013 C   0  0  0  0  0  0  0  0  0  0  0  0
  -20.2062  -30.2224   21.8479 C   0  0  1  0  0  0  0  0  0  0  0  0
  -23.5359  -28.4789   22.4017 C   0  0  1  0  0  0  0  0  0  0  0  0
  -28.6536  -16.7126   18.1916 C   0  0  1  0  0  0  0  0  0  0  0  0
  -29.6644  -18.5645   23.4913 C   0  0  0  0  0  0  0  0  0  0  0  0
  -30.9674  -27.4842   20.4558 C   0  0  0  0  0  0  0  0  0  0  0  0
  -25.2938  -30.3164   18.5425 C   0  0  0  0  0  0  0  0  0  0  0  0
  -27.6470  -29.6508   18.0058 C   0  0  0  0  0  0  0  0  0  0  0  0
  -27.1994  -31.2583   19.8601 C   0  0  0  0  0  0  0  0  0  0  0  0
  -28.9741  -25.4104   22.9462 C   0  0  0  0  0  0  0  0  0  0  0  0
  -26.7184  -21.9824   21.6550 C   0  0  0  0  0  0  0  0  0  0  0  0
  -21.9272  -21.4728   20.5446 C   0  0  0  0  0  0  0  0  0  1  0  0
  -27.9230  -21.2535   22.2617 C   0  0  0  0  0  0  0  0  0  0  0  0
  -24.0202  -17.4123   20.3030 C   0  0  0  0  0  0  0  0  0  0  0  0
  -24.1246  -17.3023   21.8281 C   0  0  0  0  0  0  0  0  0  0  0  0
  -22.6249  -17.8210   19.8409 C   0  0  0  0  0  0  0  0  0  0  0  0
  -25.5164  -16.8763   22.2788 C   0  0  0  0  0  0  0  0  0  0  0  0
  -27.9961  -19.7558   21.8981 C   0  0  1  0  0  0  0  0  0  0  0  0
  -26.6227  -28.8163   20.1704 C   0  0  1  0  0  0  0  0  0  0  0  0
  -29.8148  -27.1839   21.4014 C   0  0  2  0  0  0  0  0  0  0  0  0
  -26.6717  -29.9910   19.1529 C   0  0  0  0  0  0  0  0  0  0  0  0
  -26.7667  -22.0271   19.0270 N   0  0  0  0  0  0  0  0  0  0  0  0
  -27.2522  -14.9392   19.1792 N   0  0  0  0  0  0  0  0  0  0  0  0
  -30.2793  -19.2513   21.1811 N   0  0  0  0  0  0  0  0  0  0  0  0
  -28.4256  -15.2730   18.6154 N   0  0  0  0  0  0  0  0  0  0  0  0
  -24.6068  -28.1701   21.4519 N   0  0  0  0  0  0  0  0  0  0  0  0
  -29.3829  -18.9681   19.0144 N   0  0  0  0  0  0  0  0  0  0  0  0
  -30.5190  -14.3893   17.9468 N   0  0  0  0  0  0  0  0  0  0  0  0
  -28.3731  -10.8032   19.6587 N   0  0  0  0  0  0  0  0  0  0  0  0
  -21.3699  -29.5589   22.3956 N   0  0  0  0  0  0  0  0  0  0  0  0
  -22.2173  -19.0876   20.3826 N   0  0  0  0  0  0  0  0  0  0  0  0
  -26.5291  -17.8051   21.8335 N   0  0  0  0  0  0  0  0  0  0  0  0
  -27.9085  -28.5038   20.7847 N   0  0  0  0  0  0  0  0  0  0  0  0
  -30.0229  -25.8263   21.9797 N   0  3  0  0  0  0  0  0  0  0  0  0
  -30.3292  -11.5200   18.7003 O   0  0  0  0  0  0  0  0  0  0  0  0
  -22.5484  -29.2696   20.4081 O   0  0  0  0  0  0  0  0  0  0  0  0
  -25.8515  -30.0508   22.0433 O   0  0  0  0  0  0  0  0  0  0  0  0
  -23.0470  -20.4367   18.6782 O   0  0  0  0  0  0  0  0  0  0  0  0
  -26.4800  -19.2067   23.6810 O   0  0  0  0  0  0  0  0  0  0  0  0
  -27.9922  -26.2934   20.0890 O   0  0  0  0  0  0  0  0  0  0  0  0
  -30.0791  -21.0359   19.7664 O   0  0  0  0  0  0  0  0  0  0  0  0
  -23.2318  -10.7561   21.8035 O   0  0  0  0  0  0  0  0  0  0  0  0
  -22.2093  -22.6909   19.8890 O   0  0  0  0  0  0  0  0  0  1  0  0
  -20.7133  -13.0277   26.1510 F   0  0  0  0  0  0  0  0  0  0  0  0
  -23.2183   -9.4852   24.2586 F   0  0  0  0  0  0  0  0  0  0  0  0
  1 55  1  0  0  0  0
  1 66  3  0  0  0  0
  2  3  1  0  0  0  0
  2  6  2  0  0  0  0
  3  7  2  0  0  0  0
  4  9  2  0  0  0  0
  4 16  1  0  0  0  0
  5 10  1  0  0  0  0
  5 16  2  0  0  0  0
  6 18  1  0  0  0  0
  7 20  1  0  0  0  0
  8 11  2  0  0  0  0
  8 19  1  0  0  0  0
  9 22  1  0  0  0  0
 10 22  2  0  0  0  0
 11 23  1  0  0  0  0
 12 13  2  0  0  0  0
 12 24  1  0  0  0  0
 13 25  1  0  0  0  0
 14 21  1  0  0  0  0
 14 23  2  0  0  0  0
 15 25  2  0  0  0  0
 15 26  1  0  0  0  0
 16 27  1  0  0  0  0
 17 27  1  0  0  0  0
 17 28  2  0  0  0  0
 17 29  1  0  0  0  0
 18 20  2  0  0  0  0
 18 37  1  0  0  0  0
 19 21  2  0  0  0  0
 19 38  1  0  0  0  0
 20 46  1  0  0  0  0
 21 39  1  0  0  0  0
 22 86  1  0  0  0  0
 23 87  1  0  0  0  0
 24 26  2  0  0  0  0
 24 86  1  0  0  0  0
 25 88  1  0  0  0  0
 26 89  1  0  0  0  0
 27 67  2  0  0  0  0
 28 69  1  0  0  0  0
 28 72  1  0  0  0  0
 29 73  1  0  0  0  0
 29 79  2  0  0  0  0
 30 47  1  0  0  0  0
 30 74  1  0  0  0  0
 30 80  2  0  0  0  0
 31 49  1  0  0  0  0
 31 62  1  0  0  0  0
 31 68  2  0  0  0  0
 32 63  1  0  0  0  0
 32 70  1  0  0  0  0
 32 81  2  0  0  0  0
 33 56  1  0  0  0  0
 33 75  1  0  0  0  0
 33 82  2  0  0  0  0
 34 62  1  0  0  0  0
 34 76  1  0  0  0  0
 34 83  2  0  0  0  0
 35 64  1  0  0  0  0
 35 77  1  0  0  0  0
 35 84  2  0  0  0  0
 36 68  1  0  0  0  0
 36 71  1  0  0  0  0
 36 85  2  0  0  0  0
 37 40  1  0  0  0  0
 38 47  1  0  0  0  0
 39 70  1  0  0  0  0
 40 42  1  0  0  0  0
 41 43  1  0  0  0  0
 41 44  1  0  0  0  0
 42 46  1  0  0  0  0
 43 48  1  0  0  0  0
 44 71  1  0  0  0  0
 45 48  1  0  0  0  0
 45 71  1  0  0  0  0
 46 74  1  0  0  0  0
 47 70  1  0  0  0  0
 48 69  1  0  0  0  0
 50 64  1  0  0  0  0
 51 65  1  0  0  0  0
 52 65  1  0  0  0  0
 53 65  1  0  0  0  0
 54 78  1  0  0  0  0
 55 57  1  0  0  0  0
 56 87  1  0  0  0  0
 57 62  1  0  0  0  0
 58 59  1  0  0  0  0
 58 60  1  0  0  0  0
 59 61  1  0  0  0  0
 60 75  1  0  0  0  0
 61 76  1  0  0  0  0
 63 65  1  0  0  0  0
 63 77  1  0  0  0  0
 64 78  1  0  0  0  0
 67 69  1  0  0  0  0
M  CHG  1  78   1
M  ISO  4  36 100  56 101  68 100  87 101
M  END
> <Batch ID>
0004

> <Smiles>
CNC(C)C(=O)NC(C(=O)N1Cc2cc([101O:1][101CH2:1]C(=O)NCCCCNC(=O)C(CCC#N)=C(C)[100NH:0][100C:0](=O)N3CCCC(n4nc(-c5ccc(Oc6ccc(F)cc6F)cc5)c(C(N)=O)c4N)C3)ccc2CC1C(=O)NC1CCCc2ccccc21)C(C)(C)C

> <Shape>
0.243

> <Color>
0.071

> <Negative vol penalty>
0.000

$$$$

  -OEChem-04052315243D

 99107  0     1  0  0  0  0  0999 V2000
  -28.1305  -20.4680   21.0823 C   0  0  0  0  0  0  0  0  0  0  0  0
  -27.5361  -24.6732   31.5833 C   0  0  0  0  0  0  0  0  0  0  0  0
  -26.8685  -25.4460   30.6385 C   0  0  0  0  0  0  0  0  0  0  0  0
  -28.6146  -20.3439   19.7801 C   0  0  0  0  0  0  0  0  0  0  0  0
  -25.3038  -14.1238   21.2749 C   0  0  0  0  0  0  0  0  0  0  0  0
  -26.4569  -12.6438   19.7527 C   0  0  0  0  0  0  0  0  0  0  0  0
  -26.7898  -20.7855   21.3008 C   0  0  0  0  0  0  0  0  0  0  0  0
  -28.9218  -24.5351   31.5160 C   0  0  0  0  0  0  0  0  0  0  0  0
  -27.5865  -26.0819   29.6264 C   0  0  0  0  0  0  0  0  0  0  0  0
  -25.4057  -25.5749   25.0841 C   0  0  0  0  0  0  0  0  0  0  0  0
  -27.7581  -20.5374   18.6963 C   0  0  0  0  0  0  0  0  0  0  0  0
  -24.4312  -13.0910   21.6181 C   0  0  0  0  0  0  0  0  0  0  0  0
  -25.5844  -11.6110   20.0959 C   0  0  0  0  0  0  0  0  0  0  0  0
  -24.3094  -26.3913   24.8095 C   0  0  0  0  0  0  0  0  0  0  0  0
  -22.1253  -10.7437   23.1633 C   0  0  0  0  0  0  0  0  0  0  0  0
  -21.8406  -10.5578   24.5160 C   0  0  0  0  0  0  0  0  0  0  0  0
  -25.7360  -27.8725   23.5484 C   0  0  0  0  0  0  0  0  0  0  0  0
  -24.1839  -10.1668   24.9555 C   0  0  0  0  0  0  0  0  0  0  0  0
  -26.3166  -13.9002   20.3422 C   0  0  0  0  0  0  0  0  0  0  0  0
  -25.9334  -20.9790   20.2169 C   0  0  0  0  0  0  0  0  0  0  0  0
  -28.4423  -15.2860   20.6038 C   0  0  0  0  0  0  0  0  0  0  0  0
  -29.6561  -25.1618   30.4968 C   0  0  0  0  0  0  0  0  0  0  0  0
  -26.6795  -25.9075   24.6013 C   0  0  0  0  0  0  0  0  0  0  0  0
  -28.9836  -25.9531   29.5461 C   0  0  0  0  0  0  0  0  0  0  0  0
  -26.8463  -27.0572   23.8162 C   0  0  0  0  0  0  0  0  0  0  0  0
  -26.4175  -20.8549   18.9146 C   0  0  0  0  0  0  0  0  0  0  0  0
  -24.5715  -11.8347   21.0286 C   0  0  0  0  0  0  0  0  0  0  0  0
  -24.4750  -27.5418   24.0440 C   0  0  0  0  0  0  0  0  0  0  0  0
  -23.4393  -10.6410   22.7066 C   0  0  0  0  0  0  0  0  0  0  0  0
  -22.8699  -10.2694   25.4121 C   0  0  0  0  0  0  0  0  0  0  0  0
  -24.4686  -10.3526   23.6027 C   0  0  0  0  0  0  0  0  0  0  0  0
  -27.2178  -14.9667   19.9869 C   0  0  0  0  0  0  0  0  0  0  0  0
  -28.9083  -16.3703   19.9012 C   0  0  0  0  0  0  0  0  0  0  0  0
  -24.5243  -21.3130   20.4874 C   0  0  0  0  0  0  0  0  0  0  0  0
  -24.1067  -22.3836   21.1816 C   0  0  0  0  0  0  0  0  0  0  0  0
  -22.7069  -22.6613   21.4258 C   0  0  0  0  0  0  0  0  0  0  0  0
  -22.2830  -23.7301   22.1192 C   0  0  0  0  0  0  0  0  0  0  0  0
  -29.0998  -14.6584   21.7127 C   0  0  0  0  0  0  0  0  0  0  0  0
  -29.4739  -26.6105   25.9433 C   0  0  0  0  0  0  0  0  0  0  0  0
  -30.5194  -26.5601   22.8730 C   0  0  0  0  0  0  0  0  0  0  0  0
  -19.0803  -24.8972   20.9161 C   0  0  0  0  0  0  0  0  0  0  0  0
  -20.6658  -24.9943   23.6234 C   0  0  0  0  0  0  0  0  0  0  0  0
  -29.7792  -26.8603   19.5550 C   0  0  0  0  0  0  0  0  0  0  0  0
  -25.7462  -20.3943   16.5423 C   0  0  0  0  0  0  0  0  0  0  0  0
  -21.4802  -28.9668   20.8749 C   0  0  0  0  0  0  0  0  0  0  0  0
  -31.1578  -25.0218   30.4928 C   0  0  0  0  0  0  0  0  0  0  0  0
  -27.8469  -25.0022   24.8840 C   0  0  0  0  0  0  0  0  0  0  0  0
  -28.1893  -27.4478   23.2572 C   0  0  0  0  0  0  0  0  0  0  0  0
  -31.8034  -25.4229   29.1690 C   0  0  0  0  0  0  0  0  0  0  0  0
  -28.7313  -18.4259   15.5895 C   0  0  0  0  0  0  0  0  0  0  0  0
  -31.2322  -26.7489   28.6766 C   0  0  0  0  0  0  0  0  0  0  0  0
  -28.7328  -17.2939   16.6152 C   0  0  0  0  0  0  0  0  0  0  0  0
  -27.3206  -18.9361   15.3113 C   0  0  0  0  0  0  0  0  0  0  0  0
  -26.5887  -18.2277   17.5705 C   0  0  0  0  0  0  0  0  0  0  0  0
  -29.7247  -26.6384   28.4186 C   0  0  1  0  0  0  0  0  0  0  0  0
  -29.1933  -25.7109   24.7730 C   0  0  1  0  0  0  0  0  0  0  0  0
  -28.0022  -17.7235   17.8981 C   0  0  1  0  0  0  0  0  0  0  0  0
  -25.2895  -23.4855   17.5091 C   0  0  0  0  0  0  0  0  0  0  0  0
  -30.1467  -26.8067   17.0732 C   0  0  0  0  0  0  0  0  0  0  0  0
  -31.6596  -29.3503   23.3471 C   0  0  0  0  0  0  0  0  0  0  0  0
  -31.8512  -29.6178   20.8652 C   0  0  0  0  0  0  0  0  0  0  0  0
  -33.1419  -27.8278   22.0282 C   0  0  0  0  0  0  0  0  0  0  0  0
  -29.0686  -23.9918   19.3949 C   0  0  0  0  0  0  0  0  0  0  0  0
  -18.7120  -25.7658   19.7687 C   0  0  0  0  0  0  0  0  0  0  0  0
  -18.2054  -27.1374   20.2222 C   0  0  0  0  0  0  0  0  0  0  0  0
  -24.6120  -22.1643   17.8119 C   0  0  0  0  0  0  0  0  0  0  0  0
  -22.3529  -30.2775   22.8277 C   0  0  0  0  0  0  0  0  0  0  0  0
  -19.2083  -27.9202   21.0647 C   0  0  0  0  0  0  0  0  0  0  0  0
  -23.6484  -29.5040   22.9845 C   0  0  0  0  0  0  0  0  0  1  0  0
  -20.8594  -24.0996   22.4113 C   0  0  1  0  0  0  0  0  0  0  0  0
  -30.6393  -27.5811   21.7675 C   0  0  1  0  0  0  0  0  0  0  0  0
  -30.1406  -25.9965   18.3602 C   0  0  2  0  0  0  0  0  0  0  0  0
  -31.7979  -28.5882   22.0140 C   0  0  0  0  0  0  0  0  0  0  0  0
  -26.9243  -15.7824   18.9707 N   0  0  0  0  0  0  0  0  0  0  0  0
  -27.9710  -16.6249   18.9438 N   0  0  0  0  0  0  0  0  0  0  0  0
  -29.3011  -26.5337   23.5665 N   0  0  0  0  0  0  0  0  0  0  0  0
  -26.6160  -19.2845   16.5461 N   0  0  0  0  0  0  0  0  0  0  0  0
  -30.0243  -17.1213   20.0153 N   0  0  0  0  0  0  0  0  0  0  0  0
  -28.4824  -13.5556   22.3184 N   0  0  0  0  0  0  0  0  0  0  0  0
  -18.1017  -24.1840   21.4617 N   0  0  0  0  0  0  0  0  0  0  0  0
  -19.7713  -24.4834   24.5380 N   0  0  0  0  0  0  0  0  0  0  0  0
  -22.6421  -29.2178   20.1443 N   0  0  0  0  0  0  0  0  0  0  0  0
  -29.4750  -25.9622   27.1636 N   0  0  0  0  0  0  0  0  0  0  0  0
  -30.7584  -26.8256   20.5252 N   0  0  0  0  0  0  0  0  0  0  0  0
  -21.3274  -29.4730   22.1732 N   0  0  0  0  0  0  0  0  0  0  0  0
  -25.5575  -21.0509   17.7733 N   0  0  0  0  0  0  0  0  0  0  0  0
  -20.3577  -24.9046   21.2964 N   0  3  0  0  0  0  0  0  0  0  0  0
  -20.4404  -28.2044   20.3300 N   0  3  0  0  0  0  0  0  0  0  0  0
  -29.1609  -24.8835   18.2103 N   0  3  0  0  0  0  0  0  0  0  0  0
  -30.1941  -15.0738   22.1637 O   0  0  0  0  0  0  0  0  0  0  0  0
  -29.6760  -27.8041   25.7531 O   0  0  0  0  0  0  0  0  0  0  0  0
  -31.4691  -25.8086   23.1077 O   0  0  0  0  0  0  0  0  0  0  0  0
  -21.2544  -26.0633   23.7720 O   0  0  0  0  0  0  0  0  0  0  0  0
  -28.7345  -27.5045   19.6196 O   0  0  0  0  0  0  0  0  0  0  0  0
  -25.1353  -20.7433   15.5246 O   0  0  0  0  0  0  0  0  0  0  0  0
  -23.7205  -10.8266   21.3634 O   0  0  0  0  0  0  0  0  0  0  0  0
  -23.4067  -28.3408   23.7750 O   0  0  0  0  0  0  0  0  0  1  0  0
  -22.5965  -10.0924   26.7114 F   0  0  0  0  0  0  0  0  0  0  0  0
  -25.7331  -10.2540   23.1700 F   0  0  0  0  0  0  0  0  0  0  0  0
  1  4  1  0  0  0  0
  1  7  2  0  0  0  0
  2  3  1  0  0  0  0
  2  8  2  0  0  0  0
  3  9  2  0  0  0  0
  4 11  2  0  0  0  0
  5 12  2  0  0  0  0
  5 19  1  0  0  0  0
  6 13  1  0  0  0  0
  6 19  2  0  0  0  0
  7 20  1  0  0  0  0
  8 22  1  0  0  0  0
  9 24  1  0  0  0  0
 10 14  2  0  0  0  0
 10 23  1  0  0  0  0
 11 26  1  0  0  0  0
 12 27  1  0  0  0  0
 13 27  2  0  0  0  0
 14 28  1  0  0  0  0
 15 16  2  0  0  0  0
 15 29  1  0  0  0  0
 16 30  1  0  0  0  0
 17 25  1  0  0  0  0
 17 28  2  0  0  0  0
 18 30  2  0  0  0  0
 18 31  1  0  0  0  0
 19 32  1  0  0  0  0
 20 26  2  0  0  0  0
 20 34  1  0  0  0  0
 21 32  1  0  0  0  0
 21 33  2  0  0  0  0
 21 38  1  0  0  0  0
 22 24  2  0  0  0  0
 22 46  1  0  0  0  0
 23 25  2  0  0  0  0
 23 47  1  0  0  0  0
 24 55  1  0  0  0  0
 25 48  1  0  0  0  0
 26 86  1  0  0  0  0
 27 96  1  0  0  0  0
 28 97  1  0  0  0  0
 29 31  2  0  0  0  0
 29 96  1  0  0  0  0
 30 98  1  0  0  0  0
 31 99  1  0  0  0  0
 32 74  2  0  0  0  0
 33 75  1  0  0  0  0
 33 78  1  0  0  0  0
 34 35  2  0  0  0  0
 35 36  1  0  0  0  0
 36 37  2  0  0  0  0
 37 70  1  0  0  0  0
 38 79  1  0  0  0  0
 38 90  2  0  0  0  0
 39 56  1  0  0  0  0
 39 83  1  0  0  0  0
 39 91  2  0  0  0  0
 40 71  1  0  0  0  0
 40 76  1  0  0  0  0
 40 92  2  0  0  0  0
 41 64  1  0  0  0  0
 41 80  1  0  0  0  0
 41 87  2  0  0  0  0
 42 70  1  0  0  0  0
 42 81  1  0  0  0  0
 42 93  2  0  0  0  0
 43 72  1  0  0  0  0
 43 84  1  0  0  0  0
 43 94  2  0  0  0  0
 44 77  1  0  0  0  0
 44 86  1  0  0  0  0
 44 95  2  0  0  0  0
 45 82  1  0  0  0  0
 45 85  1  0  0  0  0
 45 88  2  0  0  0  0
 46 49  1  0  0  0  0
 47 56  1  0  0  0  0
 48 76  1  0  0  0  0
 49 51  1  0  0  0  0
 50 52  1  0  0  0  0
 50 53  1  0  0  0  0
 51 55  1  0  0  0  0
 52 57  1  0  0  0  0
 53 77  1  0  0  0  0
 54 57  1  0  0  0  0
 54 77  1  0  0  0  0
 55 83  1  0  0  0  0
 56 76  1  0  0  0  0
 57 75  1  0  0  0  0
 58 66  1  0  0  0  0
 59 72  1  0  0  0  0
 60 73  1  0  0  0  0
 61 73  1  0  0  0  0
 62 73  1  0  0  0  0
 63 89  1  0  0  0  0
 64 65  1  0  0  0  0
 65 68  1  0  0  0  0
 66 86  1  0  0  0  0
 67 69  1  0  0  0  0
 67 85  1  0  0  0  0
 68 88  1  0  0  0  0
 69 97  1  0  0  0  0
 70 87  1  0  0  0  0
 71 73  1  0  0  0  0
 71 84  1  0  0  0  0
 72 89  1  0  0  0  0
 74 75  1  0  0  0  0
M  CHG  3  87   1  88   1  89   1
M  ISO  4  44 100  69 101  86 100  97 101
M  END
> <Batch ID>
0004

> <Smiles>
CC[100N:0](c1ccccc1C=CC=CC(NC(=N)CCCNC(=N)NC[101CH2:1][101O:1]c1ccc2c(c1)CN(C(=O)C(NC(=O)C(C)NC)C(C)(C)C)C(C(=O)NC1CCCc3ccccc31)C2)C(N)=O)[100C:0](=O)N1CCCC(n2nc(-c3ccc(Oc4ccc(F)cc4F)cc3)c(C(N)=O)c2N)C1

> <Shape>
0.174

> <Color>
0.061

> <Negative vol penalty>
0.000

$$$$

  -OEChem-04052315243D

 82 90  0     1  0  0  0  0  0999 V2000
  -29.8650  -23.7085   23.9423 C   0  0  0  0  0  0  0  0  0  0  0  0
  -28.5135  -23.5609   23.6471 C   0  0  0  0  0  0  0  0  0  0  0  0
  -17.1880  -28.1392   24.6647 C   0  0  0  0  0  0  0  0  0  0  0  0
  -29.5719  -27.8746   19.4361 C   0  0  0  0  0  0  0  0  0  0  0  0
  -28.2437  -25.9023   19.8639 C   0  0  0  0  0  0  0  0  0  0  0  0
  -30.8111  -22.9262   23.2814 C   0  0  0  0  0  0  0  0  0  0  0  0
  -28.1074  -22.6317   22.6900 C   0  0  0  0  0  0  0  0  0  0  0  0
  -24.1126  -19.9090   24.1979 C   0  0  0  0  0  0  0  0  0  0  0  0
  -17.3159  -26.8258   24.2127 C   0  0  0  0  0  0  0  0  0  0  0  0
  -17.9196  -29.1600   24.0578 C   0  0  0  0  0  0  0  0  0  0  0  0
  -30.7186  -27.0847   19.3541 C   0  0  0  0  0  0  0  0  0  0  0  0
  -29.3904  -25.1123   19.7819 C   0  0  0  0  0  0  0  0  0  0  0  0
  -22.8616  -20.5200   24.1250 C   0  0  0  0  0  0  0  0  0  0  0  0
  -33.9413  -25.5463   18.6740 C   0  0  0  0  0  0  0  0  0  0  0  0
  -34.8257  -25.7940   17.6243 C   0  0  0  0  0  0  0  0  0  0  0  0
  -22.4158  -19.3476   22.0644 C   0  0  0  0  0  0  0  0  0  0  0  0
  -18.9073  -27.5541   22.5471 C   0  0  0  0  0  0  0  0  0  0  0  0
  -33.0748  -25.3038   16.0333 C   0  0  0  0  0  0  0  0  0  0  0  0
  -28.3345  -27.2834   19.6911 C   0  0  0  0  0  0  0  0  0  0  0  0
  -26.2841  -28.4535   18.7245 C   0  0  0  0  0  0  0  0  0  0  0  0
  -30.4157  -21.9800   22.3227 C   0  0  0  0  0  0  0  0  0  0  0  0
  -24.5298  -19.0196   23.1972 C   0  0  0  0  0  0  0  0  0  0  0  0
  -29.0493  -21.8369   22.0147 C   0  0  0  0  0  0  0  0  0  0  0  0
  -23.6716  -18.7247   22.1283 C   0  0  0  0  0  0  0  0  0  0  0  0
  -18.1756  -26.5332   23.1540 C   0  0  0  0  0  0  0  0  0  0  0  0
  -18.7793  -28.8675   22.9991 C   0  0  0  0  0  0  0  0  0  0  0  0
  -30.6279  -25.7035   19.5269 C   0  0  0  0  0  0  0  0  0  0  0  0
  -22.0141  -20.2416   23.0567 C   0  0  0  0  0  0  0  0  0  0  0  0
  -32.6236  -25.1772   18.4034 C   0  0  0  0  0  0  0  0  0  0  0  0
  -34.3925  -25.6728   16.3039 C   0  0  0  0  0  0  0  0  0  0  0  0
  -32.1903  -25.0560   17.0831 C   0  0  0  0  0  0  0  0  0  0  0  0
  -27.1497  -28.0990   19.7765 C   0  0  0  0  0  0  0  0  0  0  0  0
  -25.3205  -29.2305   19.3197 C   0  0  0  0  0  0  0  0  0  0  0  0
  -26.3454  -28.1110   17.3336 C   0  0  0  0  0  0  0  0  0  0  0  0
  -26.9115  -18.9676   21.0928 C   0  0  0  0  0  0  0  0  0  0  0  0
  -25.7722  -15.9964   20.4633 C   0  0  0  0  0  0  0  0  0  0  0  0
  -23.1368  -13.8292   20.5327 C   0  0  0  0  0  0  0  0  0  0  0  0
  -21.7498  -30.2056   23.4964 C   0  0  0  0  0  0  0  0  0  0  0  0
  -31.4786  -21.1906   21.6004 C   0  0  0  0  0  0  0  0  0  0  0  0
  -25.8715  -18.3483   23.3044 C   0  0  0  0  0  0  0  0  0  0  0  0
  -24.0638  -17.7616   21.0388 C   0  0  0  0  0  0  0  0  0  0  0  0
  -30.9360  -19.9651   20.8695 C   0  0  0  0  0  0  0  0  0  0  0  0
  -25.1214  -31.2557   23.9507 C   0  0  0  0  0  0  0  0  0  0  0  0
  -29.6856  -20.3278   20.0748 C   0  0  0  0  0  0  0  0  0  0  0  0
  -25.8786  -30.5525   22.8227 C   0  0  0  0  0  0  0  0  0  0  0  0
  -24.0029  -30.3799   24.5111 C   0  0  0  0  0  0  0  0  0  0  0  0
  -23.8126  -29.1629   22.3765 C   0  0  0  0  0  0  0  0  0  0  0  0
  -28.5676  -20.8223   21.0005 C   0  0  1  0  0  0  0  0  0  0  0  0
  -26.4009  -17.8533   21.9620 C   0  0  1  0  0  0  0  0  0  0  0  0
  -24.9143  -30.0285   21.7416 C   0  0  2  0  0  0  0  0  0  0  0  0
  -22.5000  -11.4817   19.9152 C   0  0  0  0  0  0  0  0  0  0  0  0
  -25.6237  -16.8117   17.5267 C   0  0  0  0  0  0  0  0  0  0  0  0
  -24.1328  -14.8405   17.1269 C   0  0  0  0  0  0  0  0  0  0  0  0
  -26.4708  -14.4924   17.9240 C   0  0  0  0  0  0  0  0  0  0  0  0
  -22.5097  -13.1371   23.3410 C   0  0  0  0  0  0  0  0  0  0  0  0
  -18.3123  -25.1133   22.6650 C   0  0  0  0  0  0  0  0  0  0  0  0
  -19.5622  -29.9590   22.3507 C   0  0  0  0  0  0  0  0  0  0  0  0
  -19.4161  -24.3187   23.3716 C   0  0  0  0  0  0  0  0  0  0  0  0
  -19.5908  -22.9071   22.8097 C   0  0  0  0  0  0  0  0  0  0  0  0
  -20.6670  -22.1355   23.5613 C   0  0  0  0  0  0  0  0  0  1  0  0
  -24.7436  -15.4239   19.5181 C   0  0  1  0  0  0  0  0  0  0  0  0
  -23.0257  -12.3935   21.0130 C   0  0  2  0  0  0  0  0  0  0  0  0
  -25.2358  -15.4118   18.0433 C   0  0  0  0  0  0  0  0  0  0  0  0
  -26.7697  -28.6090   20.9510 N   0  0  0  0  0  0  0  0  0  0  0  0
  -25.6547  -29.2920   20.6406 N   0  0  0  0  0  0  0  0  0  0  0  0
  -25.3883  -17.1355   21.1850 N   0  0  0  0  0  0  0  0  0  0  0  0
  -23.1232  -29.9172   23.4350 N   0  0  0  0  0  0  0  0  0  0  0  0
  -24.2284  -29.8603   18.8369 N   0  0  0  0  0  0  0  0  0  0  0  0
  -27.4021  -27.3041   16.8901 N   0  0  0  0  0  0  0  0  0  0  0  0
  -27.9303  -19.7054   21.6647 N   0  0  0  0  0  0  0  0  0  0  0  0
  -24.3951  -14.1079   20.0425 N   0  0  0  0  0  0  0  0  0  0  0  0
  -20.9885  -29.7361   22.4331 N   0  0  0  0  0  0  0  0  0  0  0  0
  -22.1010  -12.3072   22.1785 N   0  3  0  0  0  0  0  0  0  0  0  0
  -25.4977  -28.5223   16.5055 O   0  0  0  0  0  0  0  0  0  0  0  0
  -26.4186  -19.1440   19.9848 O   0  0  0  0  0  0  0  0  0  0  0  0
  -26.8730  -15.4488   20.5630 O   0  0  0  0  0  0  0  0  0  0  0  0
  -22.1998  -14.6230   20.5835 O   0  0  0  0  0  0  0  0  0  0  0  0
  -21.2408  -30.8394   24.4271 O   0  0  0  0  0  0  0  0  0  0  0  0
  -31.7465  -24.9324   19.4467 O   0  0  0  0  0  0  0  0  0  0  0  0
  -20.7927  -20.8371   22.9828 O   0  0  0  0  0  0  0  0  0  1  0  0
  -35.2415  -25.9122   15.2960 F   0  0  0  0  0  0  0  0  0  0  0  0
  -30.9253  -24.7029   16.8170 F   0  0  0  0  0  0  0  0  0  0  0  0
  1  2  1  0  0  0  0
  1  6  2  0  0  0  0
  2  7  2  0  0  0  0
  3  9  2  0  0  0  0
  3 10  1  0  0  0  0
  4 11  2  0  0  0  0
  4 19  1  0  0  0  0
  5 12  1  0  0  0  0
  5 19  2  0  0  0  0
  6 21  1  0  0  0  0
  7 23  1  0  0  0  0
  8 13  2  0  0  0  0
  8 22  1  0  0  0  0
  9 25  1  0  0  0  0
 10 26  2  0  0  0  0
 11 27  1  0  0  0  0
 12 27  2  0  0  0  0
 13 28  1  0  0  0  0
 14 15  2  0  0  0  0
 14 29  1  0  0  0  0
 15 30  1  0  0  0  0
 16 24  1  0  0  0  0
 16 28  2  0  0  0  0
 17 25  2  0  0  0  0
 17 26  1  0  0  0  0
 18 30  2  0  0  0  0
 18 31  1  0  0  0  0
 19 32  1  0  0  0  0
 20 32  1  0  0  0  0
 20 33  2  0  0  0  0
 20 34  1  0  0  0  0
 21 23  2  0  0  0  0
 21 39  1  0  0  0  0
 22 24  2  0  0  0  0
 22 40  1  0  0  0  0
 23 48  1  0  0  0  0
 24 41  1  0  0  0  0
 25 56  1  0  0  0  0
 26 57  1  0  0  0  0
 27 79  1  0  0  0  0
 28 80  1  0  0  0  0
 29 31  2  0  0  0  0
 29 79  1  0  0  0  0
 30 81  1  0  0  0  0
 31 82  1  0  0  0  0
 32 64  2  0  0  0  0
 33 65  1  0  0  0  0
 33 68  1  0  0  0  0
 34 69  1  0  0  0  0
 34 74  2  0  0  0  0
 35 49  1  0  0  0  0
 35 70  1  0  0  0  0
 35 75  2  0  0  0  0
 36 61  1  0  0  0  0
 36 66  1  0  0  0  0
 36 76  2  0  0  0  0
 37 62  1  0  0  0  0
 37 71  1  0  0  0  0
 37 77  2  0  0  0  0
 38 67  1  0  0  0  0
 38 72  1  0  0  0  0
 38 78  2  0  0  0  0
 39 42  1  0  0  0  0
 40 49  1  0  0  0  0
 41 66  1  0  0  0  0
 42 44  1  0  0  0  0
 43 45  1  0  0  0  0
 43 46  1  0  0  0  0
 44 48  1  0  0  0  0
 45 50  1  0  0  0  0
 46 67  1  0  0  0  0
 47 50  1  0  0  0  0
 47 67  1  0  0  0  0
 48 70  1  0  0  0  0
 49 66  1  0  0  0  0
 50 65  1  0  0  0  0
 51 62  1  0  0  0  0
 52 63  1  0  0  0  0
 53 63  1  0  0  0  0
 54 63  1  0  0  0  0
 55 73  1  0  0  0  0
 56 58  1  0  0  0  0
 57 72  1  0  0  0  0
 58 59  1  0  0  0  0
 59 60  1  0  0  0  0
 60 80  1  0  0  0  0
 61 63  1  0  0  0  0
 61 71  1  0  0  0  0
 62 73  1  0  0  0  0
 64 65  1  0  0  0  0
M  CHG  1  73   1
M  ISO  4  38 100  60 101  72 100  80 101
M  END
> <Batch ID>
0004

> <Smiles>
CNC(C)C(=O)NC(C(=O)N1Cc2cc([101O:1][101CH2:1]CCCc3cccc(C[100NH:0][100C:0](=O)N4CCCC(n5nc(-c6ccc(Oc7ccc(F)cc7F)cc6)c(C(N)=O)c5N)C4)c3)ccc2CC1C(=O)NC1CCCc2ccccc21)C(C)(C)C

> <Shape>
0.208

> <Color>
0.077

> <Negative vol penalty>
0.000

$$$$

  -OEChem-04052315243D

 85 93  0     1  0  0  0  0  0999 V2000
  -28.8109  -32.3216   19.7011 C   0  0  0  0  0  0  0  0  0  0  0  0
  -29.6945  -31.3697   19.2026 C   0  0  0  0  0  0  0  0  0  0  0  0
  -23.0034   -9.8882   19.9827 C   0  0  0  0  0  0  0  0  0  0  0  0
  -23.7253   -9.9466   22.2875 C   0  0  0  0  0  0  0  0  0  0  0  0
  -28.2988  -32.1878   20.9910 C   0  0  0  0  0  0  0  0  0  0  0  0
  -30.0674  -30.2839   19.9941 C   0  0  0  0  0  0  0  0  0  0  0  0
  -31.8584  -23.3658   19.4956 C   0  0  0  0  0  0  0  0  0  0  0  0
  -31.8655  -18.3498   24.1527 C   0  0  0  0  0  0  0  0  0  0  0  0
  -22.2379   -8.7535   20.2512 C   0  0  0  0  0  0  0  0  0  0  0  0
  -22.9598   -8.8119   22.5561 C   0  0  0  0  0  0  0  0  0  0  0  0
  -32.8633  -22.4825   19.8876 C   0  0  0  0  0  0  0  0  0  0  0  0
  -30.4812  -18.3599   23.9823 C   0  0  0  0  0  0  0  0  0  0  0  0
  -23.2089   -5.4719   22.0940 C   0  0  0  0  0  0  0  0  0  0  0  0
  -23.7967   -4.4576   22.8498 C   0  0  0  0  0  0  0  0  0  0  0  0
  -31.8534  -22.3124   22.0717 C   0  0  0  0  0  0  0  0  0  0  0  0
  -32.0498  -16.5524   22.5488 C   0  0  0  0  0  0  0  0  0  0  0  0
  -22.0702   -4.7031   24.5219 C   0  0  0  0  0  0  0  0  0  0  0  0
  -23.7472  -10.4847   21.0008 C   0  0  0  0  0  0  0  0  0  0  0  0
  -24.1296  -13.0003   20.8182 C   0  0  0  0  0  0  0  0  0  0  0  0
  -28.6580  -31.0947   21.7952 C   0  0  0  0  0  0  0  0  0  0  0  0
  -30.8479  -23.7382   20.3937 C   0  0  0  0  0  0  0  0  0  0  0  0
  -29.5606  -30.1361   21.2964 C   0  0  0  0  0  0  0  0  0  0  0  0
  -30.8354  -23.1987   21.6878 C   0  0  0  0  0  0  0  0  0  0  0  0
  -32.6499  -17.4461   23.4358 C   0  0  0  0  0  0  0  0  0  0  0  0
  -30.6654  -16.5625   22.3784 C   0  0  0  0  0  0  0  0  0  0  0  0
  -22.2161   -8.2153   21.5379 C   0  0  0  0  0  0  0  0  0  0  0  0
  -32.8625  -21.9578   21.1767 C   0  0  0  0  0  0  0  0  0  0  0  0
  -29.8811  -17.4663   23.0952 C   0  0  0  0  0  0  0  0  0  0  0  0
  -22.0518   -6.1019   22.5522 C   0  0  0  0  0  0  0  0  0  0  0  0
  -23.2274   -4.0732   24.0637 C   0  0  0  0  0  0  0  0  0  0  0  0
  -21.4825   -5.7175   23.7661 C   0  0  0  0  0  0  0  0  0  0  0  0
  -24.5385  -11.6565   20.7240 C   0  0  0  0  0  0  0  0  0  0  0  0
  -25.2389  -13.7232   20.4533 C   0  0  0  0  0  0  0  0  0  0  0  0
  -22.8604  -13.5462   21.2015 C   0  0  0  0  0  0  0  0  0  0  0  0
  -29.9044  -26.4791   21.6979 C   0  0  0  0  0  0  0  0  0  0  0  0
  -27.4955  -24.6453   22.8628 C   0  0  0  0  0  0  0  0  0  0  0  0
  -35.2231  -18.4940   21.6409 C   0  0  0  0  0  0  0  0  0  0  0  0
  -26.3822  -21.5414   23.7421 C   0  0  0  0  0  0  0  0  0  0  0  0
  -30.7169  -14.6918   20.6920 C   0  0  0  0  0  0  0  0  0  0  0  0
  -28.1154  -31.0178   23.2003 C   0  0  0  0  0  0  0  0  0  0  0  0
  -29.7561  -24.6714   19.9469 C   0  0  0  0  0  0  0  0  0  0  0  0
  -29.7617  -23.5508   22.6835 C   0  0  0  0  0  0  0  0  0  0  0  0
  -28.2687  -29.6393   23.8379 C   0  0  0  0  0  0  0  0  0  0  0  0
  -29.6048  -12.2309   18.3715 C   0  0  0  0  0  0  0  0  0  0  0  0
  -29.6775  -29.1001   23.6113 C   0  0  0  0  0  0  0  0  0  0  0  0
  -28.1540  -11.9726   18.7844 C   0  0  0  0  0  0  0  0  0  0  0  0
  -30.5034  -12.4789   19.5818 C   0  0  0  0  0  0  0  0  0  0  0  0
  -28.5852  -13.2691   20.9105 C   0  0  0  0  0  0  0  0  0  0  0  0
  -29.9696  -28.9311   22.1155 C   0  0  1  0  0  0  0  0  0  0  0  0
  -29.0653  -25.3817   21.1069 C   0  0  1  0  0  0  0  0  0  0  0  0
  -27.6294  -13.0782   19.7215 C   0  0  2  0  0  0  0  0  0  0  0  0
  -24.3836  -20.3634   24.6989 C   0  0  0  0  0  0  0  0  0  0  0  0
  -28.2170  -25.6822   25.6402 C   0  0  0  0  0  0  0  0  0  0  0  0
  -26.8749  -23.8059   26.6131 C   0  0  0  0  0  0  0  0  0  0  0  0
  -25.7619  -25.5262   25.1902 C   0  0  0  0  0  0  0  0  0  0  0  0
  -26.0413  -19.8951   21.3064 C   0  0  0  0  0  0  0  0  0  0  0  0
  -27.7623  -16.6556   23.8088 C   0  0  0  0  0  0  0  0  0  0  0  0
  -34.1399  -17.4359   23.6199 C   0  0  0  0  0  0  0  0  0  0  0  0
  -35.8469  -19.8120   21.2092 C   0  0  0  0  0  0  0  0  0  0  0  0
  -34.8403  -20.7723   20.5946 C   0  0  0  0  0  0  0  0  0  1  0  0
  -27.2860  -23.8221   24.1108 C   0  0  1  0  0  0  0  0  0  0  0  0
  -25.0906  -20.8082   23.4280 C   0  0  2  0  0  0  0  0  0  0  0  0
  -27.0564  -24.7038   25.3707 C   0  0  0  0  0  0  0  0  0  0  0  0
  -25.8085  -11.5305   20.3299 N   0  0  0  0  0  0  0  0  0  0  0  0
  -26.2071  -12.8043   20.1732 N   0  0  0  0  0  0  0  0  0  0  0  0
  -28.7195  -24.4721   22.2012 N   0  0  0  0  0  0  0  0  0  0  0  0
  -29.9459  -13.5415   20.4214 N   0  0  0  0  0  0  0  0  0  0  0  0
  -25.4709  -15.0489   20.3478 N   0  0  0  0  0  0  0  0  0  0  0  0
  -21.8292  -12.6617   21.5461 N   0  0  0  0  0  0  0  0  0  0  0  0
  -30.0703  -15.6484   21.4740 N   0  0  0  0  0  0  0  0  0  0  0  0
  -29.3334  -27.7342   21.6083 N   0  0  0  0  0  0  0  0  0  0  0  0
  -34.7749  -18.5496   22.9528 N   0  0  0  0  0  0  0  0  0  0  0  0
  -26.1905  -22.9049   23.8156 N   0  0  0  0  0  0  0  0  0  0  0  0
  -25.3684  -19.6020   22.5980 N   0  3  0  0  0  0  0  0  0  0  0  0
  -22.6421  -14.7813   21.2214 O   0  0  0  0  0  0  0  0  0  0  0  0
  -30.9888  -26.2070   22.1995 O   0  0  0  0  0  0  0  0  0  0  0  0
  -26.6030  -25.4083   22.4847 O   0  0  0  0  0  0  0  0  0  0  0  0
  -35.1374  -17.5158   20.9035 O   0  0  0  0  0  0  0  0  0  0  0  0
  -27.4532  -20.9622   23.9094 O   0  0  0  0  0  0  0  0  0  0  0  0
  -31.8560  -14.8308   20.2391 O   0  0  0  0  0  0  0  0  0  0  0  0
  -21.4690   -7.1083   21.8003 O   0  0  0  0  0  0  0  0  0  0  0  0
  -28.5267  -17.4922   22.9434 O   0  0  0  0  0  0  0  0  0  0  0  0
  -33.8425  -21.0959   21.5621 O   0  0  0  0  0  0  0  0  0  1  0  0
  -23.7911   -3.0980   24.7887 F   0  0  0  0  0  0  0  0  0  0  0  0
  -20.3703   -6.3182   24.2109 F   0  0  0  0  0  0  0  0  0  0  0  0
  1  2  1  0  0  0  0
  1  5  2  0  0  0  0
  2  6  2  0  0  0  0
  3  9  2  0  0  0  0
  3 18  1  0  0  0  0
  4 10  1  0  0  0  0
  4 18  2  0  0  0  0
  5 20  1  0  0  0  0
  6 22  1  0  0  0  0
  7 11  2  0  0  0  0
  7 21  1  0  0  0  0
  8 12  2  0  0  0  0
  8 24  1  0  0  0  0
  9 26  1  0  0  0  0
 10 26  2  0  0  0  0
 11 27  1  0  0  0  0
 12 28  1  0  0  0  0
 13 14  2  0  0  0  0
 13 29  1  0  0  0  0
 14 30  1  0  0  0  0
 15 23  1  0  0  0  0
 15 27  2  0  0  0  0
 16 24  2  0  0  0  0
 16 25  1  0  0  0  0
 17 30  2  0  0  0  0
 17 31  1  0  0  0  0
 18 32  1  0  0  0  0
 19 32  1  0  0  0  0
 19 33  2  0  0  0  0
 19 34  1  0  0  0  0
 20 22  2  0  0  0  0
 20 40  1  0  0  0  0
 21 23  2  0  0  0  0
 21 41  1  0  0  0  0
 22 49  1  0  0  0  0
 23 42  1  0  0  0  0
 24 58  1  0  0  0  0
 25 28  2  0  0  0  0
 25 70  1  0  0  0  0
 26 81  1  0  0  0  0
 27 83  1  0  0  0  0
 28 82  1  0  0  0  0
 29 31  2  0  0  0  0
 29 81  1  0  0  0  0
 30 84  1  0  0  0  0
 31 85  1  0  0  0  0
 32 64  2  0  0  0  0
 33 65  1  0  0  0  0
 33 68  1  0  0  0  0
 34 69  1  0  0  0  0
 34 75  2  0  0  0  0
 35 50  1  0  0  0  0
 35 71  1  0  0  0  0
 35 76  2  0  0  0  0
 36 61  1  0  0  0  0
 36 66  1  0  0  0  0
 36 77  2  0  0  0  0
 37 59  1  0  0  0  0
 37 72  1  0  0  0  0
 37 78  2  0  0  0  0
 38 62  1  0  0  0  0
 38 73  1  0  0  0  0
 38 79  2  0  0  0  0
 39 67  1  0  0  0  0
 39 70  1  0  0  0  0
 39 80  2  0  0  0  0
 40 43  1  0  0  0  0
 41 50  1  0  0  0  0
 42 66  1  0  0  0  0
 43 45  1  0  0  0  0
 44 46  1  0  0  0  0
 44 47  1  0  0  0  0
 45 49  1  0  0  0  0
 46 51  1  0  0  0  0
 47 67  1  0  0  0  0
 48 51  1  0  0  0  0
 48 67  1  0  0  0  0
 49 71  1  0  0  0  0
 50 66  1  0  0  0  0
 51 65  1  0  0  0  0
 52 62  1  0  0  0  0
 53 63  1  0  0  0  0
 54 63  1  0  0  0  0
 55 63  1  0  0  0  0
 56 74  1  0  0  0  0
 57 82  1  0  0  0  0
 58 72  1  0  0  0  0
 59 60  1  0  0  0  0
 60 83  1  0  0  0  0
 61 63  1  0  0  0  0
 61 73  1  0  0  0  0
 62 74  1  0  0  0  0
 64 65  1  0  0  0  0
M  CHG  1  74   1
M  ISO  4  39 100  60 101  70 100  83 101
M  END
> <Batch ID>
0004

> <Smiles>
CNC(C)C(=O)NC(C(=O)N1Cc2cc([101O:1][101CH2:1]CC(=O)NCc3ccc(OC)c([100NH:0][100C:0](=O)N4CCCC(n5nc(-c6ccc(Oc7ccc(F)cc7F)cc6)c(C(N)=O)c5N)C4)c3)ccc2CC1C(=O)NC1CCCc2ccccc21)C(C)(C)C

> <Shape>
0.220

> <Color>
0.193

> <Negative vol penalty>
0.000

$$$$

  -OEChem-04052315243D

 85 93  0     1  0  0  0  0  0999 V2000
  -25.9176  -35.3099   23.4753 C   0  0  0  0  0  0  0  0  0  0  0  0
  -26.4910  -34.0708   23.2084 C   0  0  0  0  0  0  0  0  0  0  0  0
  -24.7835  -12.0535   21.6183 C   0  0  0  0  0  0  0  0  0  0  0  0
  -25.8121  -12.0205   19.4324 C   0  0  0  0  0  0  0  0  0  0  0  0
  -31.2332  -21.8160   18.5476 C   0  0  0  0  0  0  0  0  0  0  0  0
  -24.6083  -35.3834   23.9489 C   0  0  0  0  0  0  0  0  0  0  0  0
  -25.7557  -32.9043   23.4160 C   0  0  0  0  0  0  0  0  0  0  0  0
  -26.2088  -29.6157   19.5919 C   0  0  0  0  0  0  0  0  0  0  0  0
  -24.2767  -10.7727   21.3992 C   0  0  0  0  0  0  0  0  0  0  0  0
  -25.3053  -10.7396   19.2133 C   0  0  0  0  0  0  0  0  0  0  0  0
  -30.9076  -23.1543   18.3273 C   0  0  0  0  0  0  0  0  0  0  0  0
  -27.3790  -28.8597   19.5374 C   0  0  0  0  0  0  0  0  0  0  0  0
  -21.7047   -9.3662   19.7166 C   0  0  0  0  0  0  0  0  0  0  0  0
  -20.3733   -9.1296   20.0585 C   0  0  0  0  0  0  0  0  0  0  0  0
  -26.2103  -26.9911   20.5180 C   0  0  0  0  0  0  0  0  0  0  0  0
  -28.5589  -22.6062   18.4689 C   0  0  0  0  0  0  0  0  0  0  0  0
  -21.0765   -7.4187   21.6127 C   0  0  0  0  0  0  0  0  0  0  0  0
  -25.5512  -12.6775   20.6348 C   0  0  0  0  0  0  0  0  0  0  0  0
  -30.2216  -20.8728   18.7285 C   0  0  0  0  0  0  0  0  0  0  0  0
  -27.3132  -14.3382   21.4379 C   0  0  0  0  0  0  0  0  0  0  0  0
  -23.8533  -34.2177   24.1533 C   0  0  0  0  0  0  0  0  0  0  0  0
  -25.0313  -29.0676   20.1207 C   0  0  0  0  0  0  0  0  0  0  0  0
  -24.4355  -32.9623   23.8941 C   0  0  0  0  0  0  0  0  0  0  0  0
  -25.0259  -27.7413   20.5757 C   0  0  0  0  0  0  0  0  0  0  0  0
  -28.8845  -21.2679   18.6892 C   0  0  0  0  0  0  0  0  0  0  0  0
  -24.5376  -10.1156   20.1967 C   0  0  0  0  0  0  0  0  0  0  0  0
  -27.3806  -27.5482   20.0032 C   0  0  0  0  0  0  0  0  0  0  0  0
  -29.5705  -23.5494   18.2880 C   0  0  0  0  0  0  0  0  0  0  0  0
  -22.7220   -8.6290   20.3226 C   0  0  0  0  0  0  0  0  0  0  0  0
  -20.0592   -8.1559   21.0066 C   0  0  0  0  0  0  0  0  0  0  0  0
  -22.4079   -7.6553   21.2707 C   0  0  0  0  0  0  0  0  0  0  0  0
  -26.0745  -14.0009   20.8603 C   0  0  0  0  0  0  0  0  0  0  0  0
  -27.3349  -15.7115   21.4264 C   0  0  0  0  0  0  0  0  0  0  0  0
  -30.5961  -19.4824   18.9545 C   0  0  0  0  0  0  0  0  0  0  0  0
  -28.3516  -13.4863   21.9398 C   0  0  0  0  0  0  0  0  0  0  0  0
  -23.1478  -29.7550   22.5872 C   0  0  0  0  0  0  0  0  0  0  0  0
  -21.2872  -27.4215   21.3163 C   0  0  0  0  0  0  0  0  0  0  0  0
  -21.0716  -24.6245   19.3728 C   0  0  0  0  0  0  0  0  0  0  0  0
  -26.4683  -20.5753   18.8583 C   0  0  0  0  0  0  0  0  0  0  0  0
  -22.4580  -34.3451   24.7115 C   0  0  0  0  0  0  0  0  0  0  0  0
  -23.7705  -29.8874   20.1478 C   0  0  0  0  0  0  0  0  0  0  0  0
  -23.7829  -27.0996   21.1340 C   0  0  0  0  0  0  0  0  0  0  0  0
  -21.6191  -33.0802   24.5488 C   0  0  0  0  0  0  0  0  0  0  0  0
  -23.6648  -19.0556   20.4420 C   0  0  0  0  0  0  0  0  0  0  0  0
  -22.4202  -31.8510   24.9662 C   0  0  0  0  0  0  0  0  0  0  0  0
  -24.1437  -17.6328   20.7395 C   0  0  0  0  0  0  0  0  0  0  0  0
  -24.2095  -19.5706   19.1109 C   0  0  0  0  0  0  0  0  0  0  0  0
  -26.1461  -18.0547   19.2565 C   0  0  0  0  0  0  0  0  0  0  0  0
  -23.6616  -31.6756   24.0832 C   0  0  1  0  0  0  0  0  0  0  0  0
  -22.7606  -29.3963   21.1804 C   0  0  1  0  0  0  0  0  0  0  0  0
  -25.6758  -17.5169   20.6178 C   0  0  2  0  0  0  0  0  0  0  0  0
  -30.6545  -16.5527   17.6399 C   0  0  0  0  0  0  0  0  0  0  0  0
  -19.4247  -22.9181   18.5521 C   0  0  0  0  0  0  0  0  0  0  0  0
  -21.3153  -26.0799   24.0566 C   0  0  0  0  0  0  0  0  0  0  0  0
  -20.4989  -23.9821   22.9607 C   0  0  0  0  0  0  0  0  0  0  0  0
  -19.0978  -26.0451   22.9008 C   0  0  0  0  0  0  0  0  0  0  0  0
  -21.5468  -25.3560   16.5447 C   0  0  0  0  0  0  0  0  0  0  0  0
  -31.7634  -17.4763   18.0142 C   0  0  0  0  0  0  0  0  0  0  0  0
  -29.4387  -27.1011   18.8985 C   0  0  0  0  0  0  0  0  0  1  0  0
  -30.1845  -25.8347   18.5248 C   0  0  0  0  0  0  0  0  0  0  0  0
  -21.1874  -25.9243   21.4826 C   0  0  1  0  0  0  0  0  0  0  0  0
  -20.1124  -24.2427   18.2599 C   0  0  2  0  0  0  0  0  0  0  0  0
  -20.5489  -25.5203   22.8415 C   0  0  0  0  0  0  0  0  0  0  0  0
  -25.3609  -15.0735   20.5078 N   0  0  0  0  0  0  0  0  0  0  0  0
  -26.1537  -16.0982   20.8649 N   0  0  0  0  0  0  0  0  0  0  0  0
  -22.5769  -27.9440   21.1451 N   0  0  0  0  0  0  0  0  0  0  0  0
  -25.6670  -19.4333   19.0693 N   0  0  0  0  0  0  0  0  0  0  0  0
  -28.2489  -16.6139   21.8421 N   0  0  0  0  0  0  0  0  0  0  0  0
  -28.1670  -12.0985   21.8748 N   0  0  0  0  0  0  0  0  0  0  0  0
  -27.8405  -20.3273   18.8712 N   0  0  0  0  0  0  0  0  0  0  0  0
  -31.3377  -18.8558   17.9482 N   0  0  0  0  0  0  0  0  0  0  0  0
  -23.2948  -31.1122   22.8016 N   0  0  0  0  0  0  0  0  0  0  0  0
  -20.4671  -25.4309   20.3138 N   0  0  0  0  0  0  0  0  0  0  0  0
  -20.8426  -24.1179   16.9668 N   0  3  0  0  0  0  0  0  0  0  0  0
  -30.2425  -18.8973   19.9916 O   0  0  0  0  0  0  0  0  0  0  0  0
  -29.4045  -13.9425   22.4464 O   0  0  0  0  0  0  0  0  0  0  0  0
  -23.3003  -28.8663   23.4171 O   0  0  0  0  0  0  0  0  0  0  0  0
  -20.2581  -28.1014   21.3303 O   0  0  0  0  0  0  0  0  0  0  0  0
  -22.2392  -24.2422   19.4061 O   0  0  0  0  0  0  0  0  0  0  0  0
  -25.9743  -21.6956   18.7065 O   0  0  0  0  0  0  0  0  0  0  0  0
  -24.0434   -8.8656   19.9826 O   0  0  0  0  0  0  0  0  0  0  0  0
  -28.5216  -26.8083   19.9518 O   0  0  0  0  0  0  0  0  0  1  0  0
  -29.2510  -24.8635   18.0681 O   0  0  0  0  0  0  0  0  0  0  0  0
  -18.7807   -7.9298   21.3360 F   0  0  0  0  0  0  0  0  0  0  0  0
  -23.3810   -6.9447   21.8571 F   0  0  0  0  0  0  0  0  0  0  0  0
  1  2  1  0  0  0  0
  1  6  2  0  0  0  0
  2  7  2  0  0  0  0
  3  9  2  0  0  0  0
  3 18  1  0  0  0  0
  4 10  1  0  0  0  0
  4 18  2  0  0  0  0
  5 11  2  0  0  0  0
  5 19  1  0  0  0  0
  6 21  1  0  0  0  0
  7 23  1  0  0  0  0
  8 12  2  0  0  0  0
  8 22  1  0  0  0  0
  9 26  1  0  0  0  0
 10 26  2  0  0  0  0
 11 28  1  0  0  0  0
 12 27  1  0  0  0  0
 13 14  2  0  0  0  0
 13 29  1  0  0  0  0
 14 30  1  0  0  0  0
 15 24  1  0  0  0  0
 15 27  2  0  0  0  0
 16 25  1  0  0  0  0
 16 28  2  0  0  0  0
 17 30  2  0  0  0  0
 17 31  1  0  0  0  0
 18 32  1  0  0  0  0
 19 25  2  0  0  0  0
 19 34  1  0  0  0  0
 20 32  1  0  0  0  0
 20 33  2  0  0  0  0
 20 35  1  0  0  0  0
 21 23  2  0  0  0  0
 21 40  1  0  0  0  0
 22 24  2  0  0  0  0
 22 41  1  0  0  0  0
 23 49  1  0  0  0  0
 24 42  1  0  0  0  0
 25 70  1  0  0  0  0
 26 81  1  0  0  0  0
 27 82  1  0  0  0  0
 28 83  1  0  0  0  0
 29 31  2  0  0  0  0
 29 81  1  0  0  0  0
 30 84  1  0  0  0  0
 31 85  1  0  0  0  0
 32 64  2  0  0  0  0
 33 65  1  0  0  0  0
 33 68  1  0  0  0  0
 34 71  1  0  0  0  0
 34 75  2  0  0  0  0
 35 69  1  0  0  0  0
 35 76  2  0  0  0  0
 36 50  1  0  0  0  0
 36 72  1  0  0  0  0
 36 77  2  0  0  0  0
 37 61  1  0  0  0  0
 37 66  1  0  0  0  0
 37 78  2  0  0  0  0
 38 62  1  0  0  0  0
 38 73  1  0  0  0  0
 38 79  2  0  0  0  0
 39 67  1  0  0  0  0
 39 70  1  0  0  0  0
 39 80  2  0  0  0  0
 40 43  1  0  0  0  0
 41 50  1  0  0  0  0
 42 66  1  0  0  0  0
 43 45  1  0  0  0  0
 44 46  1  0  0  0  0
 44 47  1  0  0  0  0
 45 49  1  0  0  0  0
 46 51  1  0  0  0  0
 47 67  1  0  0  0  0
 48 51  1  0  0  0  0
 48 67  1  0  0  0  0
 49 72  1  0  0  0  0
 50 66  1  0  0  0  0
 51 65  1  0  0  0  0
 52 58  1  0  0  0  0
 53 62  1  0  0  0  0
 54 63  1  0  0  0  0
 55 63  1  0  0  0  0
 56 63  1  0  0  0  0
 57 74  1  0  0  0  0
 58 71  1  0  0  0  0
 59 60  1  0  0  0  0
 59 82  1  0  0  0  0
 60 83  1  0  0  0  0
 61 63  1  0  0  0  0
 61 73  1  0  0  0  0
 62 74  1  0  0  0  0
 64 65  1  0  0  0  0
M  CHG  1  74   1
M  ISO  4  39 100  59 101  70 100  82 101
M  END
> <Batch ID>
0004

> <Smiles>
CCNC(=O)c1ccc(OC[101CH2:1][101O:1]c2ccc3c(c2)CN(C(=O)C(NC(=O)C(C)NC)C(C)(C)C)C(C(=O)NC2CCCc4ccccc42)C3)cc1[100NH:0][100C:0](=O)N1CCCC(n2nc(-c3ccc(Oc4ccc(F)cc4F)cc3)c(C(N)=O)c2N)C1

> <Shape>
0.283

> <Color>
0.084

> <Negative vol penalty>
0.000

$$$$

  -OEChem-04052315243D

 84 92  0     1  0  0  0  0  0999 V2000
  -25.4605  -35.4334   22.5891 C   0  0  0  0  0  0  0  0  0  0  0  0
  -26.1036  -34.2097   22.4330 C   0  0  0  0  0  0  0  0  0  0  0  0
  -21.0319  -11.6394   21.6573 C   0  0  0  0  0  0  0  0  0  0  0  0
  -20.6335  -12.2069   19.3429 C   0  0  0  0  0  0  0  0  0  0  0  0
  -24.1719  -35.4797   23.1194 C   0  0  0  0  0  0  0  0  0  0  0  0
  -25.4588  -33.0316   22.8081 C   0  0  0  0  0  0  0  0  0  0  0  0
  -25.9606  -29.3590   19.3576 C   0  0  0  0  0  0  0  0  0  0  0  0
  -27.6327  -23.5940   18.2292 C   0  0  0  0  0  0  0  0  0  0  0  0
  -20.0344  -10.6667   21.5905 C   0  0  0  0  0  0  0  0  0  0  0  0
  -19.6360  -11.2341   19.2761 C   0  0  0  0  0  0  0  0  0  0  0  0
  -27.1755  -28.6758   19.3270 C   0  0  0  0  0  0  0  0  0  0  0  0
  -27.6627  -24.9538   18.5384 C   0  0  0  0  0  0  0  0  0  0  0  0
  -17.8407   -7.7875   21.9264 C   0  0  0  0  0  0  0  0  0  0  0  0
  -18.1136   -6.5394   22.4862 C   0  0  0  0  0  0  0  0  0  0  0  0
  -26.1809  -26.8637   20.5704 C   0  0  0  0  0  0  0  0  0  0  0  0
  -29.1908  -24.5070   20.3555 C   0  0  0  0  0  0  0  0  0  0  0  0
  -19.9750   -6.2665   20.9703 C   0  0  0  0  0  0  0  0  0  0  0  0
  -21.3314  -12.4096   20.5335 C   0  0  0  0  0  0  0  0  0  0  0  0
  -23.7315  -13.2485   20.3251 C   0  0  0  0  0  0  0  0  0  0  0  0
  -23.5072  -34.3008   23.4922 C   0  0  0  0  0  0  0  0  0  0  0  0
  -24.8478  -28.8036   20.0054 C   0  0  0  0  0  0  0  0  0  0  0  0
  -24.1606  -33.0623   23.3451 C   0  0  0  0  0  0  0  0  0  0  0  0
  -24.9523  -27.5407   20.6056 C   0  0  0  0  0  0  0  0  0  0  0  0
  -28.3818  -22.6906   18.9831 C   0  0  0  0  0  0  0  0  0  0  0  0
  -29.1608  -23.1471   20.0463 C   0  0  0  0  0  0  0  0  0  0  0  0
  -19.3365  -10.4640   20.4000 C   0  0  0  0  0  0  0  0  0  0  0  0
  -27.2866  -27.4293   19.9359 C   0  0  0  0  0  0  0  0  0  0  0  0
  -28.4418  -25.4103   19.6016 C   0  0  0  0  0  0  0  0  0  1  0  0
  -18.6350   -8.2751   20.8885 C   0  0  0  0  0  0  0  0  0  0  0  0
  -19.1807   -5.7789   22.0081 C   0  0  0  0  0  0  0  0  0  0  0  0
  -19.7021   -7.5146   20.4105 C   0  0  0  0  0  0  0  0  0  0  0  0
  -22.3613  -13.4149   20.6020 C   0  0  0  0  0  0  0  0  0  0  0  0
  -24.2775  -14.4912   20.5348 C   0  0  0  0  0  0  0  0  0  0  0  0
  -24.4467  -12.0755   19.9148 C   0  0  0  0  0  0  0  0  0  0  0  0
  -23.0348  -29.6523   22.4745 C   0  0  0  0  0  0  0  0  0  0  0  0
  -21.2808  -27.0773   21.5719 C   0  0  0  0  0  0  0  0  0  0  0  0
  -21.1673  -24.0672   19.9677 C   0  0  0  0  0  0  0  0  0  0  0  0
  -24.1302  -20.0372   19.9297 C   0  0  0  0  0  0  0  0  0  0  0  0
  -22.1330  -34.4048   24.1049 C   0  0  0  0  0  0  0  0  0  0  0  0
  -23.5370  -29.5414   20.0064 C   0  0  0  0  0  0  0  0  0  0  0  0
  -23.7818  -26.8918   21.2965 C   0  0  0  0  0  0  0  0  0  0  0  0
  -21.3749  -33.0801   24.1289 C   0  0  0  0  0  0  0  0  0  0  0  0
  -22.3027  -18.6411   22.6479 C   0  0  0  0  0  0  0  0  0  0  0  0
  -22.2751  -31.9591   24.6387 C   0  0  0  0  0  0  0  0  0  0  0  0
  -22.2629  -17.1450   22.3318 C   0  0  0  0  0  0  0  0  0  0  0  0
  -22.1995  -19.4884   21.3816 C   0  0  0  0  0  0  0  0  0  0  0  0
  -23.1472  -17.6660   20.0198 C   0  0  0  0  0  0  0  0  0  0  0  0
  -23.4846  -31.7605   23.7172 C   0  0  1  0  0  0  0  0  0  0  0  0
  -22.6099  -29.1108   21.1389 C   0  0  1  0  0  0  0  0  0  0  0  0
  -23.3046  -16.7703   21.2605 C   0  0  2  0  0  0  0  0  0  0  0  0
  -20.1633  -21.9812   18.9993 C   0  0  0  0  0  0  0  0  0  0  0  0
  -21.5225  -26.0644   24.4400 C   0  0  0  0  0  0  0  0  0  0  0  0
  -20.8011  -23.8079   23.6300 C   0  0  0  0  0  0  0  0  0  0  0  0
  -19.2627  -25.7595   23.4129 C   0  0  0  0  0  0  0  0  0  0  0  0
  -29.2772  -20.7632   17.7012 C   0  0  0  0  0  0  0  0  0  0  0  0
  -20.6011  -25.3992   17.3862 C   0  0  0  0  0  0  0  0  0  0  0  0
  -26.0740  -20.4282   18.4372 C   0  0  0  0  0  0  0  0  0  0  0  0
  -27.3508  -20.4503   19.2631 C   0  0  0  0  0  0  0  0  0  0  0  0
  -21.2898  -25.6060   21.9098 C   0  0  1  0  0  0  0  0  0  0  0  0
  -20.1870  -23.5012   18.9562 C   0  0  2  0  0  0  0  0  0  0  0  0
  -20.7418  -25.3222   23.3369 C   0  0  0  0  0  0  0  0  0  0  0  0
  -22.0557  -14.6648   20.9605 N   0  0  0  0  0  0  0  0  0  0  0  0
  -23.2417  -15.2950   20.9104 N   0  0  0  0  0  0  0  0  0  0  0  0
  -22.5233  -27.6555   21.2761 N   0  0  0  0  0  0  0  0  0  0  0  0
  -23.2157  -19.0838   20.4072 N   0  0  0  0  0  0  0  0  0  0  0  0
  -25.5380  -14.9638   20.4330 N   0  0  0  0  0  0  0  0  0  0  0  0
  -23.7317  -10.8820   19.7460 N   0  0  0  0  0  0  0  0  0  0  0  0
  -23.0994  -31.0316   22.5277 N   0  0  0  0  0  0  0  0  0  0  0  0
  -20.5527  -24.9376   20.8429 N   0  0  0  0  0  0  0  0  0  0  0  0
  -25.0641  -19.5689   19.0137 N   0  0  0  0  0  0  0  0  0  0  0  0
  -28.3342  -21.3181   18.6495 N   0  0  3  0  0  0  0  0  0  0  0  0
  -29.9345  -22.2471   20.8317 N   0  0  0  0  0  0  0  0  0  0  0  0
  -20.5615  -23.9265   17.5779 N   0  3  0  0  0  0  0  0  0  0  0  0
  -25.6858  -12.0817   19.7200 O   0  0  0  0  0  0  0  0  0  0  0  0
  -23.2842  -28.8763   23.3896 O   0  0  0  0  0  0  0  0  0  0  0  0
  -20.2098  -27.6893   21.5636 O   0  0  0  0  0  0  0  0  0  0  0  0
  -22.3584  -23.7645   19.9825 O   0  0  0  0  0  0  0  0  0  0  0  0
  -24.1187  -21.2170   20.2970 O   0  0  0  0  0  0  0  0  0  0  0  0
  -30.6190  -22.7039   21.7768 O   0  0  0  0  0  0  0  0  0  0  0  0
  -29.9074  -21.0252   20.5543 O   0  0  0  0  0  0  0  0  0  0  0  0
  -18.3633   -9.5148   20.3344 O   0  0  0  0  0  0  0  0  0  0  0  0
  -28.4715  -26.7605   19.9081 O   0  0  0  0  0  0  0  0  0  1  0  0
  -19.4435   -4.5810   22.5468 F   0  0  0  0  0  0  0  0  0  0  0  0
  -20.4693   -7.9783   19.4144 F   0  0  0  0  0  0  0  0  0  0  0  0
  1  2  1  0  0  0  0
  1  5  2  0  0  0  0
  2  6  2  0  0  0  0
  3  9  2  0  0  0  0
  3 18  1  0  0  0  0
  4 10  1  0  0  0  0
  4 18  2  0  0  0  0
  5 20  1  0  0  0  0
  6 22  1  0  0  0  0
  7 11  2  0  0  0  0
  7 21  1  0  0  0  0
  8 12  2  0  0  0  0
  8 24  1  0  0  0  0
  9 26  1  0  0  0  0
 10 26  2  0  0  0  0
 11 27  1  0  0  0  0
 12 28  1  0  0  0  0
 13 14  2  0  0  0  0
 13 29  1  0  0  0  0
 14 30  1  0  0  0  0
 15 23  1  0  0  0  0
 15 27  2  0  0  0  0
 16 25  1  0  0  0  0
 16 28  2  0  0  0  0
 17 30  2  0  0  0  0
 17 31  1  0  0  0  0
 18 32  1  0  0  0  0
 19 32  1  0  0  0  0
 19 33  2  0  0  0  0
 19 34  1  0  0  0  0
 20 22  2  0  0  0  0
 20 39  1  0  0  0  0
 21 23  2  0  0  0  0
 21 40  1  0  0  0  0
 22 48  1  0  0  0  0
 23 41  1  0  0  0  0
 24 25  2  0  0  0  0
 24 71  1  0  0  0  0
 25 72  1  0  0  0  0
 26 81  1  0  0  0  0
 27 82  1  0  0  0  0
 28 82  1  0  0  0  0
 29 31  2  0  0  0  0
 29 81  1  0  0  0  0
 30 83  1  0  0  0  0
 31 84  1  0  0  0  0
 32 62  2  0  0  0  0
 33 63  1  0  0  0  0
 33 66  1  0  0  0  0
 34 67  1  0  0  0  0
 34 74  2  0  0  0  0
 35 49  1  0  0  0  0
 35 68  1  0  0  0  0
 35 75  2  0  0  0  0
 36 59  1  0  0  0  0
 36 64  1  0  0  0  0
 36 76  2  0  0  0  0
 37 60  1  0  0  0  0
 37 69  1  0  0  0  0
 37 77  2  0  0  0  0
 38 65  1  0  0  0  0
 38 70  1  0  0  0  0
 38 78  2  0  0  0  0
 39 42  1  0  0  0  0
 40 49  1  0  0  0  0
 41 64  1  0  0  0  0
 42 44  1  0  0  0  0
 43 45  1  0  0  0  0
 43 46  1  0  0  0  0
 44 48  1  0  0  0  0
 45 50  1  0  0  0  0
 46 65  1  0  0  0  0
 47 50  1  0  0  0  0
 47 65  1  0  0  0  0
 48 68  1  0  0  0  0
 49 64  1  0  0  0  0
 50 63  1  0  0  0  0
 51 60  1  0  0  0  0
 52 61  1  0  0  0  0
 53 61  1  0  0  0  0
 54 61  1  0  0  0  0
 55 71  1  0  0  0  0
 56 73  1  0  0  0  0
 57 58  1  0  0  0  0
 57 70  1  0  0  0  0
 58 71  1  0  0  0  0
 59 61  1  0  0  0  0
 59 69  1  0  0  0  0
 60 73  1  0  0  0  0
 62 63  1  0  0  0  0
 72 79  2  0  0  0  0
 72 80  2  0  0  0  0
M  CHG  1  73   1
M  ISO  4  28 101  38 100  70 100  82 101
M  END
> <Batch ID>
0004

> <Smiles>
CNC(C)C(=O)NC(C(=O)N1Cc2cc([101O:1][101c:1]3ccc(N(C)CC[100NH:0][100C:0](=O)N4CCCC(n5nc(-c6ccc(Oc7ccc(F)cc7F)cc6)c(C(N)=O)c5N)C4)c([N+](=O)[O-])c3)ccc2CC1C(=O)NC1CCCc2ccccc21)C(C)(C)C

> <Shape>
0.202

> <Color>
0.128

> <Negative vol penalty>
0.000

$$$$

  -OEChem-04052315243D

 82 90  0     1  0  0  0  0  0999 V2000
  -23.3379  -29.2174   24.4606 C   0  0  0  0  0  0  0  0  0  0  0  0
  -24.2966  -28.2121   24.5184 C   0  0  0  0  0  0  0  0  0  0  0  0
  -29.3590  -11.3840   19.0636 C   0  0  0  0  0  0  0  0  0  0  0  0
  -30.5095  -12.1623   19.1912 C   0  0  0  0  0  0  0  0  0  0  0  0
  -22.4844  -20.8904   21.0705 C   0  0  0  0  0  0  0  0  0  0  0  0
  -24.8876  -20.8766   21.3187 C   0  0  0  0  0  0  0  0  0  0  0  0
  -23.2404  -30.0177   23.3243 C   0  0  0  0  0  0  0  0  0  0  0  0
  -25.1658  -28.0146   23.4450 C   0  0  0  0  0  0  0  0  0  0  0  0
  -29.4340  -23.7624   22.5347 C   0  0  0  0  0  0  0  0  0  0  0  0
  -28.1360  -11.8653   19.5308 C   0  0  0  0  0  0  0  0  0  0  0  0
  -30.4370  -13.4218   19.7862 C   0  0  0  0  0  0  0  0  0  0  0  0
  -22.3954  -21.9347   21.9907 C   0  0  0  0  0  0  0  0  0  0  0  0
  -24.7986  -21.9210   22.2389 C   0  0  0  0  0  0  0  0  0  0  0  0
  -29.5224  -22.5033   21.9426 C   0  0  0  0  0  0  0  0  0  0  0  0
  -21.5646  -24.8459   24.0031 C   0  0  0  0  0  0  0  0  0  0  0  0
  -20.7239  -25.9145   23.6920 C   0  0  0  0  0  0  0  0  0  0  0  0
  -30.3604  -23.5193   19.9215 C   0  0  0  0  0  0  0  0  0  0  0  0
  -22.0189  -26.3534   21.7001 C   0  0  0  0  0  0  0  0  0  0  0  0
  -23.7306  -20.3612   20.7345 C   0  0  0  0  0  0  0  0  0  0  0  0
  -23.9682  -19.3887   18.3881 C   0  0  0  0  0  0  0  0  0  0  0  0
  -24.1010  -29.8211   22.2318 C   0  0  0  0  0  0  0  0  0  0  0  0
  -29.7984  -24.9123   21.8197 C   0  0  0  0  0  0  0  0  0  0  0  0
  -25.0989  -28.8276   22.2990 C   0  0  0  0  0  0  0  0  0  0  0  0
  -30.2781  -24.7915   20.5077 C   0  0  0  0  0  0  0  0  0  0  0  0
  -28.0635  -13.1248   20.1258 C   0  0  0  0  0  0  0  0  0  0  0  0
  -23.5524  -22.4501   22.5749 C   0  0  0  0  0  0  0  0  0  0  0  0
  -29.9829  -22.3818   20.6348 C   0  0  0  0  0  0  0  0  0  0  0  0
  -29.2140  -13.9031   20.2535 C   0  0  0  0  0  0  0  0  0  0  0  0
  -22.6326  -24.5311   23.1629 C   0  0  0  0  0  0  0  0  0  0  0  0
  -20.9510  -26.6682   22.5405 C   0  0  0  0  0  0  0  0  0  0  0  0
  -22.8597  -25.2848   22.0114 C   0  0  0  0  0  0  0  0  0  0  0  0
  -23.8232  -19.2820   19.7843 C   0  0  0  0  0  0  0  0  0  0  0  0
  -24.0072  -18.0886   17.9467 C   0  0  0  0  0  0  0  0  0  0  0  0
  -24.0596  -20.5583   17.5640 C   0  0  0  0  0  0  0  0  0  0  0  0
  -28.2752  -27.5296   20.8536 C   0  0  0  0  0  0  0  0  0  0  0  0
  -31.2465  -28.4461   19.9296 C   0  0  0  0  0  0  0  0  0  0  0  0
  -34.4056  -27.5357   19.0140 C   0  0  0  0  0  0  0  0  0  0  0  0
  -25.5854  -12.9422   20.5406 C   0  0  0  0  0  0  0  0  0  0  0  0
  -23.9568  -30.7212   21.0301 C   0  0  0  0  0  0  0  0  0  0  0  0
  -29.7225  -26.2607   22.4819 C   0  0  0  0  0  0  0  0  0  0  0  0
  -30.7010  -25.9932   19.7042 C   0  0  0  0  0  0  0  0  0  0  0  0
  -24.6177  -30.1526   19.7786 C   0  0  0  0  0  0  0  0  0  0  0  0
  -22.4361  -13.7052   19.0654 C   0  0  0  0  0  0  0  0  0  0  0  0
  -26.0372  -29.7074   20.0971 C   0  0  0  0  0  0  0  0  0  0  0  0
  -22.4501  -15.2312   18.9497 C   0  0  0  0  0  0  0  0  0  0  0  0
  -23.1248  -13.2269   20.3423 C   0  0  0  0  0  0  0  0  0  0  0  0
  -24.4979  -15.2705   20.4301 C   0  0  0  0  0  0  0  0  0  0  0  0
  -26.0351  -28.5743   21.1312 C   0  0  1  0  0  0  0  0  0  0  0  0
  -29.6337  -27.4119   21.4848 C   0  0  1  0  0  0  0  0  0  0  0  0
  -23.8727  -15.7968   19.1279 C   0  0  2  0  0  0  0  0  0  0  0  0
  -36.6005  -28.5057   18.2799 C   0  0  0  0  0  0  0  0  0  0  0  0
  -30.0892  -28.9576   17.1530 C   0  0  0  0  0  0  0  0  0  0  0  0
  -32.4282  -28.9933   16.2609 C   0  0  0  0  0  0  0  0  0  0  0  0
  -31.7106  -30.6901   17.9427 C   0  0  0  0  0  0  0  0  0  0  0  0
  -35.8194  -26.4084   21.3569 C   0  0  0  0  0  0  0  0  0  0  0  0
  -29.8569  -18.7488   20.0456 C   0  0  0  0  0  0  0  0  0  0  0  0
  -29.4243  -17.5241   20.8441 C   0  0  0  0  0  0  0  0  0  0  0  0
  -29.6720  -20.0332   20.8428 C   0  0  0  0  0  0  0  0  0  1  0  0
  -29.5684  -16.2443   20.0327 C   0  0  0  0  0  0  0  0  0  0  0  0
  -32.0690  -28.2962   18.6726 C   0  0  1  0  0  0  0  0  0  0  0  0
  -35.7674  -28.0348   19.4619 C   0  0  2  0  0  0  0  0  0  0  0  0
  -31.5645  -29.2116   17.5215 C   0  0  0  0  0  0  0  0  0  0  0  0
  -23.7733  -18.0143   20.2022 N   0  0  0  0  0  0  0  0  0  0  0  0
  -23.8875  -17.3125   19.0618 N   0  0  0  0  0  0  0  0  0  0  0  0
  -30.6025  -27.2904   20.3935 N   0  0  0  0  0  0  0  0  0  0  0  0
  -24.4692  -13.7995   20.4414 N   0  0  0  0  0  0  0  0  0  0  0  0
  -24.1318  -17.5451   16.7172 N   0  0  0  0  0  0  0  0  0  0  0  0
  -24.0024  -21.8159   18.1800 N   0  0  0  0  0  0  0  0  0  0  0  0
  -26.8141  -13.5995   20.5961 N   0  0  0  0  0  0  0  0  0  0  0  0
  -27.3934  -28.3246   21.5606 N   0  0  0  0  0  0  0  0  0  0  0  0
  -33.4551  -28.5335   19.0610 N   0  0  0  0  0  0  0  0  0  0  0  0
  -36.5131  -26.9495   20.1597 N   0  3  0  0  0  0  0  0  0  0  0  0
  -24.1716  -20.4904   16.3164 O   0  0  0  0  0  0  0  0  0  0  0  0
  -28.0447  -26.9439   19.8022 O   0  0  0  0  0  0  0  0  0  0  0  0
  -31.1838  -29.5465   20.4835 O   0  0  0  0  0  0  0  0  0  0  0  0
  -34.2058  -26.3775   18.6545 O   0  0  0  0  0  0  0  0  0  0  0  0
  -25.4625  -11.7147   20.5465 O   0  0  0  0  0  0  0  0  0  0  0  0
  -23.4659  -23.4694   23.4728 O   0  0  0  0  0  0  0  0  0  0  0  0
  -30.0696  -21.1541   20.0542 O   0  0  0  0  0  0  0  0  0  1  0  0
  -29.1649  -15.1433   20.8352 O   0  0  0  0  0  0  0  0  0  0  0  0
  -20.1426  -27.6934   22.2409 F   0  0  0  0  0  0  0  0  0  0  0  0
  -23.8833  -24.9864   21.1997 F   0  0  0  0  0  0  0  0  0  0  0  0
  1  2  1  0  0  0  0
  1  7  2  0  0  0  0
  2  8  2  0  0  0  0
  3  4  1  0  0  0  0
  3 10  2  0  0  0  0
  4 11  2  0  0  0  0
  5 12  2  0  0  0  0
  5 19  1  0  0  0  0
  6 13  1  0  0  0  0
  6 19  2  0  0  0  0
  7 21  1  0  0  0  0
  8 23  1  0  0  0  0
  9 14  2  0  0  0  0
  9 22  1  0  0  0  0
 10 25  1  0  0  0  0
 11 28  1  0  0  0  0
 12 26  1  0  0  0  0
 13 26  2  0  0  0  0
 14 27  1  0  0  0  0
 15 16  2  0  0  0  0
 15 29  1  0  0  0  0
 16 30  1  0  0  0  0
 17 24  1  0  0  0  0
 17 27  2  0  0  0  0
 18 30  2  0  0  0  0
 18 31  1  0  0  0  0
 19 32  1  0  0  0  0
 20 32  1  0  0  0  0
 20 33  2  0  0  0  0
 20 34  1  0  0  0  0
 21 23  2  0  0  0  0
 21 39  1  0  0  0  0
 22 24  2  0  0  0  0
 22 40  1  0  0  0  0
 23 48  1  0  0  0  0
 24 41  1  0  0  0  0
 25 28  2  0  0  0  0
 25 69  1  0  0  0  0
 26 78  1  0  0  0  0
 27 79  1  0  0  0  0
 28 80  1  0  0  0  0
 29 31  2  0  0  0  0
 29 78  1  0  0  0  0
 30 81  1  0  0  0  0
 31 82  1  0  0  0  0
 32 63  2  0  0  0  0
 33 64  1  0  0  0  0
 33 67  1  0  0  0  0
 34 68  1  0  0  0  0
 34 73  2  0  0  0  0
 35 49  1  0  0  0  0
 35 70  1  0  0  0  0
 35 74  2  0  0  0  0
 36 60  1  0  0  0  0
 36 65  1  0  0  0  0
 36 75  2  0  0  0  0
 37 61  1  0  0  0  0
 37 71  1  0  0  0  0
 37 76  2  0  0  0  0
 38 66  1  0  0  0  0
 38 69  1  0  0  0  0
 38 77  2  0  0  0  0
 39 42  1  0  0  0  0
 40 49  1  0  0  0  0
 41 65  1  0  0  0  0
 42 44  1  0  0  0  0
 43 45  1  0  0  0  0
 43 46  1  0  0  0  0
 44 48  1  0  0  0  0
 45 50  1  0  0  0  0
 46 66  1  0  0  0  0
 47 50  1  0  0  0  0
 47 66  1  0  0  0  0
 48 70  1  0  0  0  0
 49 65  1  0  0  0  0
 50 64  1  0  0  0  0
 51 61  1  0  0  0  0
 52 62  1  0  0  0  0
 53 62  1  0  0  0  0
 54 62  1  0  0  0  0
 55 72  1  0  0  0  0
 56 57  1  0  0  0  0
 56 58  1  0  0  0  0
 57 59  1  0  0  0  0
 58 79  1  0  0  0  0
 59 80  1  0  0  0  0
 60 62  1  0  0  0  0
 60 71  1  0  0  0  0
 61 72  1  0  0  0  0
 63 64  1  0  0  0  0
M  CHG  1  72   1
M  ISO  4  38 100  58 101  69 100  79 101
M  END
> <Batch ID>
0004

> <Smiles>
CNC(C)C(=O)NC(C(=O)N1Cc2cc([101O:1][101CH2:1]CCCOc3ccccc3[100NH:0][100C:0](=O)N3CCCC(n4nc(-c5ccc(Oc6ccc(F)cc6F)cc5)c(C(N)=O)c4N)C3)ccc2CC1C(=O)NC1CCCc2ccccc21)C(C)(C)C

> <Shape>
0.219

> <Color>
0.071

> <Negative vol penalty>
0.000

$$$$

  -OEChem-04052315243D

101109  0     1  0  0  0  0  0999 V2000
  -29.3483  -24.9938   16.8887 C   0  0  0  0  0  0  0  0  0  0  0  0
  -28.1609  -24.9916   17.6136 C   0  0  0  0  0  0  0  0  0  0  0  0
  -29.4961  -19.3271   19.4831 C   0  0  0  0  0  0  0  0  0  0  0  0
  -27.9567  -19.1221   21.3339 C   0  0  0  0  0  0  0  0  0  0  0  0
  -30.4400  -25.7320   17.3436 C   0  0  0  0  0  0  0  0  0  0  0  0
  -28.0650  -25.7268   18.7946 C   0  0  0  0  0  0  0  0  0  0  0  0
  -23.7410  -28.3440   19.1079 C   0  0  0  0  0  0  0  0  0  0  0  0
  -17.7530  -13.8191   26.1759 C   0  0  0  0  0  0  0  0  0  0  0  0
  -28.9651  -20.5809   19.1803 C   0  0  0  0  0  0  0  0  0  0  0  0
  -27.4258  -20.3760   21.0311 C   0  0  0  0  0  0  0  0  0  0  0  0
  -22.5931  -27.6371   19.4633 C   0  0  0  0  0  0  0  0  0  0  0  0
  -28.2646  -23.6150   21.5057 C   0  0  0  0  0  0  0  0  0  0  0  0
  -16.8121  -14.0393   27.1817 C   0  0  0  0  0  0  0  0  0  0  0  0
  -28.0482  -24.4981   22.5635 C   0  0  0  0  0  0  0  0  0  0  0  0
  -22.8096  -28.4364   21.7290 C   0  0  0  0  0  0  0  0  0  0  0  0
  -17.9880  -16.0437   27.8427 C   0  0  0  0  0  0  0  0  0  0  0  0
  -25.6934  -24.5635   22.0271 C   0  0  0  0  0  0  0  0  0  0  0  0
  -28.9919  -18.5977   20.5599 C   0  0  0  0  0  0  0  0  0  0  0  0
  -30.6150  -17.0200   21.7363 C   0  0  0  0  0  0  0  0  0  0  0  0
  -30.3544  -26.4844   18.5256 C   0  0  0  0  0  0  0  0  0  0  0  0
  -24.4391  -29.0950   20.0644 C   0  0  0  0  0  0  0  0  0  0  0  0
  -29.1571  -26.4747   19.2664 C   0  0  0  0  0  0  0  0  0  0  0  0
  -23.9646  -29.1541   21.3826 C   0  0  0  0  0  0  0  0  0  0  0  0
  -18.8115  -14.7111   26.0035 C   0  0  0  0  0  0  0  0  0  0  0  0
  -27.9300  -21.1053   19.9543 C   0  0  0  0  0  0  0  0  0  0  0  0
  -22.1289  -27.6808   20.7747 C   0  0  0  0  0  0  0  0  0  0  0  0
  -27.1954  -23.2062   20.7086 C   0  0  0  0  0  0  0  0  0  0  0  0
  -16.9295  -15.1516   28.0151 C   0  0  0  0  0  0  0  0  0  0  0  0
  -26.7626  -24.9724   22.8242 C   0  0  0  0  0  0  0  0  0  0  0  0
  -18.9289  -15.8234   26.8369 C   0  0  0  0  0  0  0  0  0  0  0  0
  -25.9098  -23.6805   20.9693 C   0  0  0  0  0  0  0  0  0  0  0  0
  -29.5396  -17.3022   20.8729 C   0  0  0  0  0  0  0  0  0  0  0  0
  -30.7417  -15.6531   21.6915 C   0  0  0  0  0  0  0  0  0  0  0  0
  -31.4268  -17.9135   22.5099 C   0  0  0  0  0  0  0  0  0  0  0  0
  -27.3698  -28.9963   21.2914 C   0  0  0  0  0  0  0  0  0  0  0  0
  -26.4314  -31.7387   22.7477 C   0  0  0  0  0  0  0  0  0  0  0  0
  -21.1719  -14.3052   25.3119 C   0  0  0  0  0  0  0  0  0  0  0  0
  -20.3469  -21.7046   22.1217 C   0  0  0  0  0  0  0  0  0  0  0  0
  -23.8688  -33.6862   23.8823 C   0  0  0  0  0  0  0  0  0  0  0  0
  -26.6430  -11.3810   20.1647 C   0  0  0  0  0  0  0  0  0  0  0  0
  -24.7284  -11.3177   21.8632 C   0  0  0  0  0  0  0  0  0  0  0  0
  -31.5763  -27.2289   19.0025 C   0  0  0  0  0  0  0  0  0  0  0  0
  -25.6605  -29.8736   19.6589 C   0  0  0  0  0  0  0  0  0  0  0  0
  -24.6663  -29.9619   22.4425 C   0  0  0  0  0  0  0  0  0  0  0  0
  -31.2721  -28.2809   20.0659 C   0  0  0  0  0  0  0  0  0  0  0  0
  -30.0102  -11.9004   18.8575 C   0  0  0  0  0  0  0  0  0  0  0  0
  -30.3519  -27.7058   21.1380 C   0  0  0  0  0  0  0  0  0  0  0  0
  -30.3287  -13.3430   19.2343 C   0  0  0  0  0  0  0  0  0  0  0  0
  -28.5209  -11.7168   18.5971 C   0  0  0  0  0  0  0  0  0  0  0  0
  -27.9775  -13.5568   20.1787 C   0  0  0  0  0  0  0  0  0  0  0  0
  -29.0061  -27.2795   20.5391 C   0  0  1  0  0  0  0  0  0  0  0  0
  -26.5833  -30.1911   20.8316 C   0  0  1  0  0  0  0  0  0  0  0  0
  -29.4798  -13.7821   20.4355 C   0  0  2  0  0  0  0  0  0  0  0  0
  -23.4154  -35.8540   25.0624 C   0  0  0  0  0  0  0  0  0  0  0  0
  -27.2532  -30.4660   25.3963 C   0  0  0  0  0  0  0  0  0  0  0  0
  -25.9290  -32.2330   26.5763 C   0  0  0  0  0  0  0  0  0  0  0  0
  -27.8782  -32.8758   25.1585 C   0  0  0  0  0  0  0  0  0  0  0  0
  -18.4443  -23.0851   21.2513 C   0  0  0  0  0  0  0  0  0  0  0  0
  -22.3568  -34.7594   21.5756 C   0  0  0  0  0  0  0  0  0  0  0  0
  -22.0964  -13.9010   24.1646 C   0  0  0  0  0  0  0  0  0  0  0  0
  -19.3771  -20.5302   22.1256 C   0  0  0  0  0  0  0  0  0  0  0  0
  -23.5612  -13.7230   24.5789 C   0  0  0  0  0  0  0  0  0  0  0  0
  -20.0245  -19.2349   22.6186 C   0  0  0  0  0  0  0  0  0  0  0  0
  -19.0170  -18.0846   22.6464 C   0  0  0  0  0  0  0  0  0  0  0  0
  -19.6724  -16.7819   23.1079 C   0  0  0  0  0  0  0  0  0  0  0  0
  -18.6735  -15.6249   23.1039 C   0  0  0  0  0  0  0  0  0  0  0  0
  -20.0796  -25.2535   22.5002 C   0  0  0  0  0  0  0  0  0  0  0  0
  -19.3157  -14.3355   23.6000 C   0  0  0  0  0  0  0  0  0  0  0  0
  -20.6390  -24.1409   21.6238 C   0  0  0  0  0  0  0  0  0  0  0  0
  -24.4637  -13.2587   23.4378 C   0  0  0  0  0  0  0  0  0  0  0  0
  -20.9292  -26.5181   22.4672 C   0  0  0  0  0  0  0  0  0  1  0  0
  -25.7499  -32.0777   24.0514 C   0  0  1  0  0  0  0  0  0  0  0  0
  -23.5789  -35.1669   23.7155 C   0  0  2  0  0  0  0  0  0  0  0  0
  -26.6902  -31.8963   25.2763 C   0  0  0  0  0  0  0  0  0  0  0  0
  -29.0202  -16.2030   20.3198 N   0  0  0  0  0  0  0  0  0  0  0  0
  -29.7725  -15.2167   20.8369 N   0  0  0  0  0  0  0  0  0  0  0  0
  -25.8597  -30.7007   21.9982 N   0  0  0  0  0  0  0  0  0  0  0  0
  -27.6984  -12.1898   19.7142 N   0  0  0  0  0  0  0  0  0  0  0  0
  -31.5866  -14.7939   22.3000 N   0  0  0  0  0  0  0  0  0  0  0  0
  -31.1608  -19.2878   22.4399 N   0  0  0  0  0  0  0  0  0  0  0  0
  -24.2608  -10.0749   21.4409 N   0  0  0  0  0  0  0  0  0  0  0  0
  -28.1657  -28.4354   20.3109 N   0  0  0  0  0  0  0  0  0  0  0  0
  -25.2235  -33.4296   23.8974 N   0  0  0  0  0  0  0  0  0  0  0  0
  -25.8474  -11.9147   21.2525 N   0  0  0  0  0  0  0  0  0  0  0  0
  -19.7993  -14.4766   24.9458 N   0  0  0  0  0  0  0  0  0  0  0  0
  -19.8313  -22.9289   21.6831 N   0  0  0  0  0  0  0  0  0  0  0  0
  -24.0567  -11.9549   22.9139 N   0  3  0  0  0  0  0  0  0  0  0  0
  -22.3266  -35.3645   22.9321 N   0  3  0  0  0  0  0  0  0  0  0  0
  -32.3708  -17.5067   23.2287 O   0  0  0  0  0  0  0  0  0  0  0  0
  -27.2635  -28.6125   22.4503 O   0  0  0  0  0  0  0  0  0  0  0  0
  -27.4297  -32.3762   22.4035 O   0  0  0  0  0  0  0  0  0  0  0  0
  -21.6321  -14.4161   26.4511 O   0  0  0  0  0  0  0  0  0  0  0  0
  -21.5147  -21.5528   22.4901 O   0  0  0  0  0  0  0  0  0  0  0  0
  -22.9823  -32.8421   23.9923 O   0  0  0  0  0  0  0  0  0  0  0  0
  -26.3694  -10.2894   19.6690 O   0  0  0  0  0  0  0  0  0  0  0  0
  -27.4118  -22.3288   19.6593 O   0  0  0  0  0  0  0  0  0  0  0  0
  -21.0011  -26.9863   21.1269 O   0  0  0  0  0  0  0  0  0  1  0  0
  -16.0252  -15.3634   28.9804 F   0  0  0  0  0  0  0  0  0  0  0  0
  -26.5547  -25.8192   23.8410 F   0  0  0  0  0  0  0  0  0  0  0  0
  -19.9430  -16.6865   26.6815 F   0  0  0  0  0  0  0  0  0  0  0  0
  -24.8785  -23.2904   20.2077 F   0  0  0  0  0  0  0  0  0  0  0  0
  1  2  1  0  0  0  0
  1  5  2  0  0  0  0
  2  6  2  0  0  0  0
  3  9  2  0  0  0  0
  3 18  1  0  0  0  0
  4 10  1  0  0  0  0
  4 18  2  0  0  0  0
  5 20  1  0  0  0  0
  6 22  1  0  0  0  0
  7 11  2  0  0  0  0
  7 21  1  0  0  0  0
  8 13  2  0  0  0  0
  8 24  1  0  0  0  0
  9 25  1  0  0  0  0
 10 25  2  0  0  0  0
 11 26  1  0  0  0  0
 12 14  2  0  0  0  0
 12 27  1  0  0  0  0
 13 28  1  0  0  0  0
 14 29  1  0  0  0  0
 15 23  1  0  0  0  0
 15 26  2  0  0  0  0
 16 28  2  0  0  0  0
 16 30  1  0  0  0  0
 17 29  2  0  0  0  0
 17 31  1  0  0  0  0
 18 32  1  0  0  0  0
 19 32  1  0  0  0  0
 19 33  2  0  0  0  0
 19 34  1  0  0  0  0
 20 22  2  0  0  0  0
 20 42  1  0  0  0  0
 21 23  2  0  0  0  0
 21 43  1  0  0  0  0
 22 51  1  0  0  0  0
 23 44  1  0  0  0  0
 24 30  2  0  0  0  0
 24 85  1  0  0  0  0
 25 96  1  0  0  0  0
 26 97  1  0  0  0  0
 27 31  2  0  0  0  0
 27 96  1  0  0  0  0
 28 98  1  0  0  0  0
 29 99  1  0  0  0  0
 30100  1  0  0  0  0
 31101  1  0  0  0  0
 32 75  2  0  0  0  0
 33 76  1  0  0  0  0
 33 79  1  0  0  0  0
 34 80  1  0  0  0  0
 34 89  2  0  0  0  0
 35 52  1  0  0  0  0
 35 82  1  0  0  0  0
 35 90  2  0  0  0  0
 36 72  1  0  0  0  0
 36 77  1  0  0  0  0
 36 91  2  0  0  0  0
 37 60  1  0  0  0  0
 37 85  1  0  0  0  0
 37 92  2  0  0  0  0
 38 61  1  0  0  0  0
 38 86  1  0  0  0  0
 38 93  2  0  0  0  0
 39 73  1  0  0  0  0
 39 83  1  0  0  0  0
 39 94  2  0  0  0  0
 40 78  1  0  0  0  0
 40 84  1  0  0  0  0
 40 95  2  0  0  0  0
 41 81  1  0  0  0  0
 41 84  1  0  0  0  0
 41 87  2  0  0  0  0
 42 45  1  0  0  0  0
 43 52  1  0  0  0  0
 44 77  1  0  0  0  0
 45 47  1  0  0  0  0
 46 48  1  0  0  0  0
 46 49  1  0  0  0  0
 47 51  1  0  0  0  0
 48 53  1  0  0  0  0
 49 78  1  0  0  0  0
 50 53  1  0  0  0  0
 50 78  1  0  0  0  0
 51 82  1  0  0  0  0
 52 77  1  0  0  0  0
 53 76  1  0  0  0  0
 54 73  1  0  0  0  0
 55 74  1  0  0  0  0
 56 74  1  0  0  0  0
 57 74  1  0  0  0  0
 58 86  1  0  0  0  0
 59 88  1  0  0  0  0
 60 62  1  0  0  0  0
 61 63  1  0  0  0  0
 62 70  1  0  0  0  0
 63 64  1  0  0  0  0
 64 65  1  0  0  0  0
 65 66  1  0  0  0  0
 66 68  1  0  0  0  0
 67 69  1  0  0  0  0
 67 71  1  0  0  0  0
 68 85  1  0  0  0  0
 69 86  1  0  0  0  0
 70 87  1  0  0  0  0
 71 97  1  0  0  0  0
 72 74  1  0  0  0  0
 72 83  1  0  0  0  0
 73 88  1  0  0  0  0
 75 76  1  0  0  0  0
M  CHG  2  87   1  88   1
M  ISO  4  40 100  71 101  84 100  97 101
M  END
> <Batch ID>
0004

> <Smiles>
CNC(C)C(=O)NC(C(=O)N1Cc2cc([101O:1][101CH2:1]CCN(C)C(=O)CCCCCCN(C(=O)CCCNC(N)=[100N:0][100C:0](=O)N3CCCC(n4nc(-c5ccc(Oc6ccc(F)cc6F)cc5)c(C(N)=O)c4N)C3)c3ccc(F)cc3F)ccc2CC1C(=O)NC1CCCc2ccccc21)C(C)(C)C

> <Shape>
0.310

> <Color>
0.066

> <Negative vol penalty>
0.000

$$$$

  -OEChem-04052315243D

 96105  0     1  0  0  0  0  0999 V2000
  -26.1528  -29.1455   17.5769 C   0  0  0  0  0  0  0  0  0  0  0  0
  -25.6675  -28.0911   18.3438 C   0  0  0  0  0  0  0  0  0  0  0  0
  -22.2239  -14.6132   24.3743 C   0  0  0  0  0  0  0  0  0  0  0  0
  -21.1281  -14.9749   23.5525 C   0  0  0  0  0  0  0  0  0  0  0  0
  -22.9680   -9.9017   20.1092 C   0  0  0  0  0  0  0  0  0  0  0  0
  -24.2521   -9.5873   22.1314 C   0  0  0  0  0  0  0  0  0  0  0  0
  -26.1946  -30.4328   18.1107 C   0  0  0  0  0  0  0  0  0  0  0  0
  -25.2246  -28.3233   19.6455 C   0  0  0  0  0  0  0  0  0  0  0  0
  -20.8427  -25.9927   20.6516 C   0  0  0  0  0  0  0  0  0  0  0  0
  -22.2977   -8.7020   20.3483 C   0  0  0  0  0  0  0  0  0  0  0  0
  -23.5819   -8.3876   22.3705 C   0  0  0  0  0  0  0  0  0  0  0  0
  -20.8958  -24.6258   20.9212 C   0  0  0  0  0  0  0  0  0  0  0  0
  -20.5851   -7.4106   23.5892 C   0  0  0  0  0  0  0  0  0  0  0  0
  -20.1285   -7.1723   24.8855 C   0  0  0  0  0  0  0  0  0  0  0  0
  -20.7641  -25.0929   23.2841 C   0  0  0  0  0  0  0  0  0  0  0  0
  -21.4972   -5.1849   25.0022 C   0  0  0  0  0  0  0  0  0  0  0  0
  -22.7730  -15.7778   24.8639 C   0  0  0  0  0  0  0  0  0  0  0  0
  -21.0410  -16.3496   23.5647 C   0  0  0  0  0  0  0  0  0  0  0  0
  -23.9452  -10.3443   21.0008 C   0  0  0  0  0  0  0  0  0  0  0  0
  -24.0715  -12.8670   20.6436 C   0  0  0  0  0  0  0  0  0  0  0  0
  -25.7430  -30.6826   19.4162 C   0  0  0  0  0  0  0  0  0  0  0  0
  -20.7608  -26.9220   21.6985 C   0  0  0  0  0  0  0  0  0  0  0  0
  -25.2616  -29.6150   20.1977 C   0  0  0  0  0  0  0  0  0  0  0  0
  -20.7075  -26.4709   23.0251 C   0  0  0  0  0  0  0  0  0  0  0  0
  -22.6046   -7.9450   21.4789 C   0  0  0  0  0  0  0  0  0  0  0  0
  -20.8594  -24.1759   22.2377 C   0  0  0  0  0  0  0  0  0  0  0  0
  -21.4977   -6.5360   22.9994 C   0  0  0  0  0  0  0  0  0  0  0  0
  -20.5846   -6.0595   25.5920 C   0  0  0  0  0  0  0  0  0  0  0  0
  -21.9538   -5.4232   23.7059 C   0  0  0  0  0  0  0  0  0  0  0  0
  -24.6383  -11.5832   20.7540 C   0  0  0  0  0  0  0  0  0  0  0  0
  -25.1415  -13.6959   20.4102 C   0  0  0  0  0  0  0  0  0  0  0  0
  -26.0381  -19.8993   24.8582 C   0  0  0  0  0  0  0  0  0  0  0  0
  -22.7003  -13.2740   20.7432 C   0  0  0  0  0  0  0  0  0  0  0  0
  -22.6042  -29.2908   22.7445 C   0  0  0  0  0  0  0  0  0  0  0  0
  -20.1021  -29.8381   24.7350 C   0  0  0  0  0  0  0  0  0  0  0  0
  -23.1674  -21.2419   23.4494 C   0  0  0  0  0  0  0  0  0  0  0  0
  -17.8248  -27.8545   26.7091 C   0  0  0  0  0  0  0  0  0  0  0  0
  -30.9770  -13.2780   21.6843 C   0  0  0  0  0  0  0  0  0  0  0  0
  -25.8517  -32.0826   19.9665 C   0  0  0  0  0  0  0  0  0  0  0  0
  -20.6775  -28.3918   21.3898 C   0  0  0  0  0  0  0  0  0  0  0  0
  -20.5994  -27.4268   24.1840 C   0  0  0  0  0  0  0  0  0  0  0  0
  -25.0146  -32.3100   21.2226 C   0  0  0  0  0  0  0  0  0  0  0  0
  -25.1475  -19.9770   27.6453 C   0  0  0  0  0  0  0  0  0  0  0  0
  -29.5137  -13.7093   18.4673 C   0  0  0  0  0  0  0  0  0  0  0  0
  -25.2100  -31.1632   22.2092 C   0  0  0  0  0  0  0  0  0  0  0  0
  -24.1114  -19.8327   26.5487 C   0  0  0  0  0  0  0  0  0  0  0  0
  -28.0471  -13.3291   18.6786 C   0  0  0  0  0  0  0  0  0  0  0  0
  -26.3931  -19.2049   27.2534 C   0  0  0  0  0  0  0  0  0  0  0  0
  -30.4485  -12.8390   19.3043 C   0  0  0  0  0  0  0  0  0  0  0  0
  -28.6681  -12.4205   20.9562 C   0  0  0  0  0  0  0  0  0  0  0  0
  -24.7491  -29.8312   21.6051 C   0  0  1  0  0  0  0  0  0  0  0  0
  -24.6630  -20.4269   25.2647 C   0  0  2  0  0  0  0  0  0  0  0  0
  -21.1136  -29.2730   22.5563 C   0  0  1  0  0  0  0  0  0  0  0  0
  -27.6834  -13.3078   20.1754 C   0  0  2  0  0  0  0  0  0  0  0  0
  -15.4819  -28.3337   27.4697 C   0  0  0  0  0  0  0  0  0  0  0  0
  -21.4460  -30.8688   27.2730 C   0  0  0  0  0  0  0  0  0  0  0  0
  -19.5692  -29.8648   28.5912 C   0  0  0  0  0  0  0  0  0  0  0  0
  -19.1014  -31.6704   26.9349 C   0  0  0  0  0  0  0  0  0  0  0  0
  -16.7969  -25.3577   25.4973 C   0  0  0  0  0  0  0  0  0  0  0  0
  -22.2297  -20.8338   22.3179 C   0  0  0  0  0  0  0  0  0  0  0  0
  -29.7656  -17.1227   25.0323 C   0  0  0  0  0  0  0  0  0  0  0  0
  -29.8227  -15.6231   24.7304 C   0  0  0  0  0  0  0  0  0  0  0  0
  -28.3312  -17.5772   25.3182 C   0  0  0  0  0  0  0  0  0  0  0  0
  -31.2511  -15.1772   24.4036 C   0  0  0  0  0  0  0  0  0  0  0  0
  -22.3038  -18.2370   24.6418 C   0  0  0  0  0  0  0  0  0  0  0  0
  -28.2368  -19.0711   25.6103 C   0  0  0  0  0  0  0  0  0  0  0  0
  -31.3504  -13.6844   24.1039 C   0  0  0  0  0  0  0  0  0  0  0  0
  -23.4936  -18.7911   23.8657 C   0  0  0  0  0  0  0  0  0  0  0  0
  -21.6283  -22.0235   21.5804 C   0  0  0  0  0  0  0  0  0  1  0  0
  -19.7050  -29.3580   26.1101 C   0  0  1  0  0  0  0  0  0  0  0  0
  -16.3484  -27.6274   26.4386 C   0  0  2  0  0  0  0  0  0  0  0  0
  -19.9711  -30.4244   27.2099 C   0  0  0  0  0  0  0  0  0  0  0  0
  -25.9654  -11.5908   20.6030 N   0  0  0  0  0  0  0  0  0  0  0  0
  -22.0460  -16.8269   24.3648 N   0  0  0  0  0  0  0  0  0  0  0  0
  -26.2414  -12.8895   20.3952 N   0  0  0  0  0  0  0  0  0  0  0  0
  -26.8741  -19.4954   25.9029 N   0  0  0  0  0  0  0  0  0  0  0  0
  -20.5273  -28.8543   23.8311 N   0  0  0  0  0  0  0  0  0  0  0  0
  -30.0501  -12.8633   20.7138 N   0  0  0  0  0  0  0  0  0  0  0  0
  -25.2394  -15.0286   20.2182 N   0  0  0  0  0  0  0  0  0  0  0  0
  -21.7284  -12.2938   20.9862 N   0  0  0  0  0  0  0  0  0  0  0  0
  -23.3056  -29.7333   21.6392 N   0  0  0  0  0  0  0  0  0  0  0  0
  -18.3114  -28.9384   26.0093 N   0  0  0  0  0  0  0  0  0  0  0  0
  -30.5162  -13.2775   22.9952 N   0  0  0  0  0  0  0  0  0  0  0  0
  -23.7555  -20.1961   24.1697 N   0  0  0  0  0  0  0  0  0  0  0  0
  -16.0327  -26.1715   26.4774 N   0  3  0  0  0  0  0  0  0  0  0  0
  -26.3973  -19.9430   23.6779 O   0  0  0  0  0  0  0  0  0  0  0  0
  -22.3455  -14.4691   20.6041 O   0  0  0  0  0  0  0  0  0  0  0  0
  -23.0825  -28.9313   23.8139 O   0  0  0  0  0  0  0  0  0  0  0  0
  -20.0306  -31.0408   24.4704 O   0  0  0  0  0  0  0  0  0  0  0  0
  -23.3766  -22.4334   23.6917 O   0  0  0  0  0  0  0  0  0  0  0  0
  -18.4800  -27.1439   27.4682 O   0  0  0  0  0  0  0  0  0  0  0  0
  -32.1281  -13.6281   21.4028 O   0  0  0  0  0  0  0  0  0  0  0  0
  -21.9506   -6.7744   21.7126 O   0  0  0  0  0  0  0  0  0  0  0  0
  -20.9117  -22.8423   22.5037 O   0  0  0  0  0  0  0  0  0  1  0  0
  -20.1472   -5.8316   26.8374 F   0  0  0  0  0  0  0  0  0  0  0  0
  -22.8315   -4.5800   23.1450 F   0  0  0  0  0  0  0  0  0  0  0  0
  1  2  1  0  0  0  0
  1  7  2  0  0  0  0
  2  8  2  0  0  0  0
  3  4  1  0  0  0  0
  3 17  2  0  0  0  0
  4 18  2  0  0  0  0
  5 10  2  0  0  0  0
  5 19  1  0  0  0  0
  6 11  1  0  0  0  0
  6 19  2  0  0  0  0
  7 21  1  0  0  0  0
  8 23  1  0  0  0  0
  9 12  2  0  0  0  0
  9 22  1  0  0  0  0
 10 25  1  0  0  0  0
 11 25  2  0  0  0  0
 12 26  1  0  0  0  0
 13 14  2  0  0  0  0
 13 27  1  0  0  0  0
 14 28  1  0  0  0  0
 15 24  1  0  0  0  0
 15 26  2  0  0  0  0
 16 28  2  0  0  0  0
 16 29  1  0  0  0  0
 17 74  1  0  0  0  0
 18 74  1  0  0  0  0
 19 30  1  0  0  0  0
 20 30  1  0  0  0  0
 20 31  2  0  0  0  0
 20 33  1  0  0  0  0
 21 23  2  0  0  0  0
 21 39  1  0  0  0  0
 22 24  2  0  0  0  0
 22 40  1  0  0  0  0
 23 51  1  0  0  0  0
 24 41  1  0  0  0  0
 25 93  1  0  0  0  0
 26 94  1  0  0  0  0
 27 29  2  0  0  0  0
 27 93  1  0  0  0  0
 28 95  1  0  0  0  0
 29 96  1  0  0  0  0
 30 73  2  0  0  0  0
 31 75  1  0  0  0  0
 31 79  1  0  0  0  0
 32 52  1  0  0  0  0
 32 76  1  0  0  0  0
 32 86  2  0  0  0  0
 33 80  1  0  0  0  0
 33 87  2  0  0  0  0
 34 53  1  0  0  0  0
 34 81  1  0  0  0  0
 34 88  2  0  0  0  0
 35 70  1  0  0  0  0
 35 77  1  0  0  0  0
 35 89  2  0  0  0  0
 36 60  1  0  0  0  0
 36 84  1  0  0  0  0
 36 90  2  0  0  0  0
 37 71  1  0  0  0  0
 37 82  1  0  0  0  0
 37 91  2  0  0  0  0
 38 78  1  0  0  0  0
 38 83  1  0  0  0  0
 38 92  2  0  0  0  0
 39 42  1  0  0  0  0
 40 53  1  0  0  0  0
 41 77  1  0  0  0  0
 42 45  1  0  0  0  0
 43 46  1  0  0  0  0
 43 48  1  0  0  0  0
 44 47  1  0  0  0  0
 44 49  1  0  0  0  0
 45 51  1  0  0  0  0
 46 52  1  0  0  0  0
 47 54  1  0  0  0  0
 48 76  1  0  0  0  0
 49 78  1  0  0  0  0
 50 54  1  0  0  0  0
 50 78  1  0  0  0  0
 51 81  1  0  0  0  0
 52 84  1  0  0  0  0
 53 77  1  0  0  0  0
 54 75  1  0  0  0  0
 55 71  1  0  0  0  0
 56 72  1  0  0  0  0
 57 72  1  0  0  0  0
 58 72  1  0  0  0  0
 59 85  1  0  0  0  0
 60 69  1  0  0  0  0
 61 62  1  0  0  0  0
 61 63  1  0  0  0  0
 62 64  1  0  0  0  0
 63 66  1  0  0  0  0
 64 67  1  0  0  0  0
 65 68  1  0  0  0  0
 65 74  1  0  0  0  0
 66 76  1  0  0  0  0
 67 83  1  0  0  0  0
 68 84  1  0  0  0  0
 69 94  1  0  0  0  0
 70 72  1  0  0  0  0
 70 82  1  0  0  0  0
 71 85  1  0  0  0  0
 73 75  1  0  0  0  0
M  CHG  1  85   1
M  ISO  4  38 100  69 101  83 100  94 101
M  END
> <Batch ID>
0004

> <Smiles>
CNC(C)C(=O)NC(C(=O)N1Cc2cc([101O:1][101CH2:1]CC(=O)N(CCn3cccc3)C3CCCN(CCCCCC[100NH:0][100C:0](=O)N4CCCC(n5nc(-c6ccc(Oc7ccc(F)cc7F)cc6)c(C(N)=O)c5N)C4)C3=O)ccc2CC1C(=O)NC1CCCc2ccccc21)C(C)(C)C

> <Shape>
0.252

> <Color>
0.187

> <Negative vol penalty>
0.000

$$$$

  -OEChem-04052315243D

 93101  0     1  0  0  0  0  0999 V2000
  -22.5481   -8.0639   20.6831 C   0  0  0  0  0  0  0  0  0  0  0  0
  -21.6229   -9.1022   20.7203 C   0  0  0  0  0  0  0  0  0  0  0  0
  -28.2758  -26.3905   18.7300 C   0  0  0  0  0  0  0  0  0  0  0  0
  -26.9170  -24.9682   20.1328 C   0  0  0  0  0  0  0  0  0  0  0  0
  -23.7928   -8.2186   21.2918 C   0  0  0  0  0  0  0  0  0  0  0  0
  -21.9416  -10.2956   21.3673 C   0  0  0  0  0  0  0  0  0  0  0  0
  -20.7436  -17.3477   20.9817 C   0  0  0  0  0  0  0  0  0  0  0  0
  -28.9715  -25.2724   18.2701 C   0  0  0  0  0  0  0  0  0  0  0  0
  -27.6126  -23.8500   19.6728 C   0  0  0  0  0  0  0  0  0  0  0  0
  -20.3123  -18.4118   21.7725 C   0  0  0  0  0  0  0  0  0  0  0  0
  -31.4404  -23.2465   19.3767 C   0  0  0  0  0  0  0  0  0  0  0  0
  -32.8308  -23.3325   19.3074 C   0  0  0  0  0  0  0  0  0  0  0  0
  -18.6609  -29.5013   22.4244 C   0  0  0  0  0  0  0  0  0  0  0  0
  -19.0273  -27.4224   23.5995 C   0  0  0  0  0  0  0  0  0  0  0  0
  -22.5227  -18.5951   22.7209 C   0  0  0  0  0  0  0  0  0  0  0  0
  -17.5055  -27.4982   21.7245 C   0  0  0  0  0  0  0  0  0  0  0  0
  -32.7380  -22.9161   16.9293 C   0  0  0  0  0  0  0  0  0  0  0  0
  -27.2486  -26.2384   19.6614 C   0  0  0  0  0  0  0  0  0  0  0  0
  -19.2902  -28.7830   23.4411 C   0  0  0  0  0  0  0  0  0  0  0  0
  -25.3659  -27.9580   19.5828 C   0  0  0  0  0  0  0  0  0  0  0  0
  -24.1306   -9.4181   21.9383 C   0  0  0  0  0  0  0  0  0  0  0  0
  -22.0672  -16.8916   21.0626 C   0  0  0  0  0  0  0  0  0  0  0  0
  -23.1916  -10.4661   21.9864 C   0  0  0  0  0  0  0  0  0  0  0  0
  -22.9691  -17.5268   21.9281 C   0  0  0  0  0  0  0  0  0  0  0  0
  -17.7685  -28.8589   21.5661 C   0  0  0  0  0  0  0  0  0  0  0  0
  -28.6398  -24.0021   18.7415 C   0  0  0  0  0  0  0  0  0  0  0  0
  -21.2011  -19.0338   22.6444 C   0  0  0  0  0  0  0  0  0  0  0  0
  -30.6987  -22.9952   18.2224 C   0  0  0  0  0  0  0  0  0  0  0  0
  -18.1349  -26.7799   22.7412 C   0  0  0  0  0  0  0  0  0  0  0  0
  -33.4796  -23.1674   18.0837 C   0  0  0  0  0  0  0  0  0  0  0  0
  -31.3475  -22.8300   16.9987 C   0  0  0  0  0  0  0  0  0  0  0  0
  -26.5301  -27.3931   20.1373 C   0  0  0  0  0  0  0  0  0  0  0  0
  -25.0830  -29.0284   20.3955 C   0  0  0  0  0  0  0  0  0  0  0  0
  -20.2208  -29.4528   24.3360 C   0  0  0  0  0  0  0  0  0  0  0  0
  -24.6081  -27.5514   18.4356 C   0  0  0  0  0  0  0  0  0  0  0  0
  -23.4486  -14.1508   21.8896 C   0  0  0  0  0  0  0  0  0  0  0  0
  -26.1428  -15.6590   20.8950 C   0  0  0  0  0  0  0  0  0  0  0  0
  -27.7666  -18.6027   20.3083 C   0  0  0  0  0  0  0  0  0  0  0  0
  -26.3887  -30.2697   26.1056 C   0  0  0  0  0  0  0  0  0  0  0  0
  -25.4705   -9.5214   22.6229 C   0  0  0  0  0  0  0  0  0  0  0  0
  -22.5239  -15.7599   20.1832 C   0  0  0  0  0  0  0  0  0  0  0  0
  -24.4058  -17.0882   22.0376 C   0  0  0  0  0  0  0  0  0  0  0  0
  -25.8712  -10.9543   22.9641 C   0  0  0  0  0  0  0  0  0  0  0  0
  -27.2075  -32.2289   23.2477 C   0  0  0  0  0  0  0  0  0  0  0  0
  -24.7057  -11.6946   23.6125 C   0  0  0  0  0  0  0  0  0  0  0  0
  -27.0217  -31.2627   22.0764 C   0  0  0  0  0  0  0  0  0  0  0  0
  -27.7732  -31.5225   24.4777 C   0  0  0  0  0  0  0  0  0  0  0  0
  -26.8296  -29.3681   23.7415 C   0  0  0  0  0  0  0  0  0  0  0  0
  -23.5096  -11.7848   22.6571 C   0  0  1  0  0  0  0  0  0  0  0  0
  -23.7589  -15.0450   20.7226 C   0  0  1  0  0  0  0  0  0  0  0  0
  -26.2088  -30.0230   22.4957 C   0  0  2  0  0  0  0  0  0  0  0  0
  -29.9722  -19.5155   19.5340 C   0  0  0  0  0  0  0  0  0  0  0  0
  -18.1364  -30.2466   19.4962 C   0  0  0  0  0  0  0  0  0  0  0  0
  -16.2408  -30.7966   21.0584 C   0  0  0  0  0  0  0  0  0  0  0  0
  -16.1155  -28.8007   19.5812 C   0  0  0  0  0  0  0  0  0  0  0  0
  -27.3705  -14.9855   23.6059 C   0  0  0  0  0  0  0  0  0  0  0  0
  -29.1438  -16.6927   23.1488 C   0  0  0  0  0  0  0  0  0  0  0  0
  -28.9173  -14.7032   21.6612 C   0  0  0  0  0  0  0  0  0  0  0  0
  -26.5220  -19.9654   17.9947 C   0  0  0  0  0  0  0  0  0  0  0  0
  -22.6491  -28.9020   26.5761 C   0  0  0  0  0  0  0  0  0  0  0  0
  -23.5600  -29.4879   27.6616 C   0  0  0  0  0  0  0  0  0  0  0  0
  -19.8989  -22.3193   23.4042 C   0  0  0  0  0  0  0  0  0  0  0  0
  -18.7914  -23.2294   22.8845 C   0  0  0  0  0  0  0  0  0  0  0  0
  -21.2364  -29.4768   26.6278 C   0  0  0  0  0  0  0  0  0  0  0  0
  -24.9699  -28.9066   27.6182 C   0  0  0  0  0  0  0  0  0  0  0  0
  -19.7395  -20.8932   22.8941 C   0  0  0  0  0  0  0  0  0  1  0  0
  -18.9256  -24.6448   23.4281 C   0  0  0  0  0  0  0  0  0  0  0  0
  -27.1806  -16.5373   21.5512 C   0  0  1  0  0  0  0  0  0  0  0  0
  -28.5734  -19.0882   19.1175 C   0  0  2  0  0  0  0  0  0  0  0  0
  -17.0954  -29.6266   20.4793 C   0  0  0  0  0  0  0  0  0  0  0  0
  -28.1255  -15.7369   22.4914 C   0  0  0  0  0  0  0  0  0  0  0  0
  -26.9575  -28.0504   21.2187 N   0  0  0  0  0  0  0  0  0  0  0  0
  -26.0571  -29.0394   21.3501 N   0  0  0  0  0  0  0  0  0  0  0  0
  -24.8027  -15.9734   21.1617 N   0  0  0  0  0  0  0  0  0  0  0  0
  -26.9558  -30.3571   24.8235 N   0  0  0  0  0  0  0  0  0  0  0  0
  -24.0986  -29.9520   20.3796 N   0  0  0  0  0  0  0  0  0  0  0  0
  -25.0384  -26.4297   17.7138 N   0  0  0  0  0  0  0  0  0  0  0  0
  -20.3693  -28.9125   25.6186 N   0  0  0  0  0  0  0  0  0  0  0  0
  -23.7306  -12.8166   21.6667 N   0  0  0  0  0  0  0  0  0  0  0  0
  -27.8659  -17.2370   20.4699 N   0  0  0  0  0  0  0  0  0  0  0  0
  -25.6231  -29.1359   26.3488 N   0  0  0  0  0  0  0  0  0  0  0  0
  -27.8988  -20.2508   18.4741 N   0  3  0  0  0  0  0  0  0  0  0  0
  -20.8313  -30.4709   23.9650 O   0  0  0  0  0  0  0  0  0  0  0  0
  -23.5891  -28.1744   18.0521 O   0  0  0  0  0  0  0  0  0  0  0  0
  -22.9888  -14.6358   22.9168 O   0  0  0  0  0  0  0  0  0  0  0  0
  -26.5076  -14.7326   20.1667 O   0  0  0  0  0  0  0  0  0  0  0  0
  -27.1166  -19.3599   21.0257 O   0  0  0  0  0  0  0  0  0  0  0  0
  -26.5482  -31.1404   26.9679 O   0  0  0  0  0  0  0  0  0  0  0  0
  -29.3183  -22.9108   18.2928 O   0  0  0  0  0  0  0  0  0  0  0  0
  -20.7825  -20.0722   23.4180 O   0  0  0  0  0  0  0  0  0  1  0  0
  -17.8768  -25.4427   22.8967 O   0  0  0  0  0  0  0  0  0  0  0  0
  -34.8148  -23.2515   18.0170 F   0  0  0  0  0  0  0  0  0  0  0  0
  -30.6403  -22.5896   15.8861 F   0  0  0  0  0  0  0  0  0  0  0  0
  1  2  1  0  0  0  0
  1  5  2  0  0  0  0
  2  6  2  0  0  0  0
  3  8  2  0  0  0  0
  3 18  1  0  0  0  0
  4  9  1  0  0  0  0
  4 18  2  0  0  0  0
  5 21  1  0  0  0  0
  6 23  1  0  0  0  0
  7 10  2  0  0  0  0
  7 22  1  0  0  0  0
  8 26  1  0  0  0  0
  9 26  2  0  0  0  0
 10 27  1  0  0  0  0
 11 12  2  0  0  0  0
 11 28  1  0  0  0  0
 12 30  1  0  0  0  0
 13 19  1  0  0  0  0
 13 25  2  0  0  0  0
 14 19  2  0  0  0  0
 14 29  1  0  0  0  0
 15 24  1  0  0  0  0
 15 27  2  0  0  0  0
 16 25  1  0  0  0  0
 16 29  2  0  0  0  0
 17 30  2  0  0  0  0
 17 31  1  0  0  0  0
 18 32  1  0  0  0  0
 19 34  1  0  0  0  0
 20 32  1  0  0  0  0
 20 33  2  0  0  0  0
 20 35  1  0  0  0  0
 21 23  2  0  0  0  0
 21 40  1  0  0  0  0
 22 24  2  0  0  0  0
 22 41  1  0  0  0  0
 23 49  1  0  0  0  0
 24 42  1  0  0  0  0
 25 70  1  0  0  0  0
 26 89  1  0  0  0  0
 27 90  1  0  0  0  0
 28 31  2  0  0  0  0
 28 89  1  0  0  0  0
 29 91  1  0  0  0  0
 30 92  1  0  0  0  0
 31 93  1  0  0  0  0
 32 72  2  0  0  0  0
 33 73  1  0  0  0  0
 33 76  1  0  0  0  0
 34 78  1  0  0  0  0
 34 83  2  0  0  0  0
 35 77  1  0  0  0  0
 35 84  2  0  0  0  0
 36 50  1  0  0  0  0
 36 79  1  0  0  0  0
 36 85  2  0  0  0  0
 37 68  1  0  0  0  0
 37 74  1  0  0  0  0
 37 86  2  0  0  0  0
 38 69  1  0  0  0  0
 38 80  1  0  0  0  0
 38 87  2  0  0  0  0
 39 75  1  0  0  0  0
 39 81  1  0  0  0  0
 39 88  2  0  0  0  0
 40 43  1  0  0  0  0
 41 50  1  0  0  0  0
 42 74  1  0  0  0  0
 43 45  1  0  0  0  0
 44 46  1  0  0  0  0
 44 47  1  0  0  0  0
 45 49  1  0  0  0  0
 46 51  1  0  0  0  0
 47 75  1  0  0  0  0
 48 51  1  0  0  0  0
 48 75  1  0  0  0  0
 49 79  1  0  0  0  0
 50 74  1  0  0  0  0
 51 73  1  0  0  0  0
 52 69  1  0  0  0  0
 53 70  1  0  0  0  0
 54 70  1  0  0  0  0
 55 70  1  0  0  0  0
 56 71  1  0  0  0  0
 57 71  1  0  0  0  0
 58 71  1  0  0  0  0
 59 82  1  0  0  0  0
 60 61  1  0  0  0  0
 60 64  1  0  0  0  0
 61 65  1  0  0  0  0
 62 63  1  0  0  0  0
 62 66  1  0  0  0  0
 63 67  1  0  0  0  0
 64 78  1  0  0  0  0
 65 81  1  0  0  0  0
 66 90  1  0  0  0  0
 67 91  1  0  0  0  0
 68 71  1  0  0  0  0
 68 80  1  0  0  0  0
 69 82  1  0  0  0  0
 72 73  1  0  0  0  0
M  CHG  1  82   1
M  ISO  4  39 100  66 101  81 100  90 101
M  END
> <Batch ID>
0004

> <Smiles>
CNC(C)C(=O)NC(C(=O)N1Cc2cc([101O:1][101CH2:1]CCCOc3cc(C(=O)NCCCC[100NH:0][100C:0](=O)N4CCCC(n5nc(-c6ccc(Oc7ccc(F)cc7F)cc6)c(C(N)=O)c5N)C4)cc(C(C)(C)C)c3)ccc2CC1C(=O)NC1CCCc2ccccc21)C(C)(C)C

> <Shape>
0.265

> <Color>
0.056

> <Negative vol penalty>
0.000

$$$$

  -OEChem-04052315243D

 99108  0     1  0  0  0  0  0999 V2000
  -31.8975  -18.3414   24.1900 C   0  0  0  0  0  0  0  0  0  0  0  0
  -37.6132  -21.5254   34.9965 C   0  0  0  0  0  0  0  0  0  0  0  0
  -37.2221  -21.3390   33.6745 C   0  0  0  0  0  0  0  0  0  0  0  0
  -32.6757  -17.4649   23.4340 C   0  0  0  0  0  0  0  0  0  0  0  0
  -25.5132  -17.5057   25.3638 C   0  0  0  0  0  0  0  0  0  0  0  0
  -23.0751   -9.8687   19.9399 C   0  0  0  0  0  0  0  0  0  0  0  0
  -23.8345   -9.8747   22.2335 C   0  0  0  0  0  0  0  0  0  0  0  0
  -30.5098  -18.3415   24.0483 C   0  0  0  0  0  0  0  0  0  0  0  0
  -37.9435  -20.4250   35.7863 C   0  0  0  0  0  0  0  0  0  0  0  0
  -37.1621  -20.0520   33.1412 C   0  0  0  0  0  0  0  0  0  0  0  0
  -33.4652  -16.1313   28.4213 C   0  0  0  0  0  0  0  0  0  0  0  0
  -32.0663  -16.5884   22.5361 C   0  0  0  0  0  0  0  0  0  0  0  0
  -22.3307   -8.7158   20.1894 C   0  0  0  0  0  0  0  0  0  0  0  0
  -23.0901   -8.7217   22.4830 C   0  0  0  0  0  0  0  0  0  0  0  0
  -33.6655  -15.3012   27.3193 C   0  0  0  0  0  0  0  0  0  0  0  0
  -19.8615   -7.9251   23.0845 C   0  0  0  0  0  0  0  0  0  0  0  0
  -19.1042   -7.8851   24.2553 C   0  0  0  0  0  0  0  0  0  0  0  0
  -26.2942  -17.8049   24.2530 C   0  0  0  0  0  0  0  0  0  0  0  0
  -25.9996  -16.6379   26.3353 C   0  0  0  0  0  0  0  0  0  0  0  0
  -34.1825  -13.4690   28.8009 C   0  0  0  0  0  0  0  0  0  0  0  0
  -20.3447   -5.9469   24.9914 C   0  0  0  0  0  0  0  0  0  0  0  0
  -23.8271  -10.4481   20.9620 C   0  0  0  0  0  0  0  0  0  0  0  0
  -29.9004  -17.4651   23.1505 C   0  0  0  0  0  0  0  0  0  0  0  0
  -24.1699  -12.9732   20.8428 C   0  0  0  0  0  0  0  0  0  0  0  0
  -37.8782  -19.1231   35.2653 C   0  0  0  0  0  0  0  0  0  0  0  0
  -33.6329  -15.6385   29.7234 C   0  0  0  0  0  0  0  0  0  0  0  0
  -37.4931  -18.9332   33.9244 C   0  0  0  0  0  0  0  0  0  0  0  0
  -33.9812  -14.2942   29.9178 C   0  0  0  0  0  0  0  0  0  0  0  0
  -30.6786  -16.5885   22.3944 C   0  0  0  0  0  0  0  0  0  0  0  0
  -22.3382   -8.1423   21.4609 C   0  0  0  0  0  0  0  0  0  0  0  0
  -34.0271  -13.9706   27.5088 C   0  0  0  0  0  0  0  0  0  0  0  0
  -20.8603   -6.9759   22.8672 C   0  0  0  0  0  0  0  0  0  0  0  0
  -19.3459   -6.8960   25.2087 C   0  0  0  0  0  0  0  0  0  0  0  0
  -21.1019   -5.9869   23.8206 C   0  0  0  0  0  0  0  0  0  0  0  0
  -24.5967  -11.6388   20.7048 C   0  0  0  0  0  0  0  0  0  0  0  0
  -27.5446  -17.2151   24.1614 C   0  0  0  0  0  0  0  0  0  0  0  0
  -27.2631  -16.1002   26.1504 C   0  0  0  0  0  0  0  0  0  0  0  0
  -25.2625  -13.7223   20.4800 C   0  0  0  0  0  0  0  0  0  0  0  0
  -28.4029  -17.4916   23.0227 C   0  0  0  0  0  0  0  0  0  0  0  0
  -22.8996  -13.4894   21.2616 C   0  0  0  0  0  0  0  0  0  0  0  0
  -27.8339  -15.1676   27.1562 C   0  0  0  0  0  0  0  0  0  0  0  0
  -35.5671  -16.3263   32.1503 C   0  0  0  0  0  0  0  0  0  0  0  0
  -33.7043  -14.1925   33.7311 C   0  0  0  0  0  0  0  0  0  0  0  0
  -32.0878  -11.5501   23.6033 C   0  0  0  0  0  0  0  0  0  0  0  0
  -31.5889  -11.5190   33.5747 C   0  0  0  0  0  0  0  0  0  0  0  0
  -30.7290  -14.7657   20.6562 C   0  0  0  0  0  0  0  0  0  0  0  0
  -38.2903  -17.9682   36.1435 C   0  0  0  0  0  0  0  0  0  0  0  0
  -33.3870  -16.5398   30.9022 C   0  0  0  0  0  0  0  0  0  0  0  0
  -34.1541  -13.7111   31.2957 C   0  0  0  0  0  0  0  0  0  0  0  0
  -37.8400  -16.6092   35.6137 C   0  0  0  0  0  0  0  0  0  0  0  0
  -29.6142  -12.3530   18.2870 C   0  0  0  0  0  0  0  0  0  0  0  0
  -38.1474  -16.4882   34.1246 C   0  0  0  0  0  0  0  0  0  0  0  0
  -28.1743  -12.0619   18.7161 C   0  0  0  0  0  0  0  0  0  0  0  0
  -30.5291  -12.5811   19.4889 C   0  0  0  0  0  0  0  0  0  0  0  0
  -28.6221  -13.3059   20.8700 C   0  0  0  0  0  0  0  0  0  0  0  0
  -37.3919  -17.5507   33.3172 C   0  0  1  0  0  0  0  0  0  0  0  0
  -34.0873  -16.0668   32.1724 C   0  0  1  0  0  0  0  0  0  0  0  0
  -27.6495  -13.1334   19.6919 C   0  0  2  0  0  0  0  0  0  0  0  0
  -30.2572   -9.9727   35.0351 C   0  0  0  0  0  0  0  0  0  0  0  0
  -36.2622  -12.7146   34.4946 C   0  0  0  0  0  0  0  0  0  0  0  0
  -34.8544  -10.7357   35.1031 C   0  0  0  0  0  0  0  0  0  0  0  0
  -34.5714  -12.8897   36.3290 C   0  0  0  0  0  0  0  0  0  0  0  0
  -29.0361  -12.3593   32.3352 C   0  0  0  0  0  0  0  0  0  0  0  0
  -31.2905  -10.3010   23.9243 C   0  0  0  0  0  0  0  0  0  0  0  0
  -29.9673  -10.6387   24.6082 C   0  0  0  0  0  0  0  0  0  0  0  0
  -30.1616  -11.4054   25.9194 C   0  0  0  0  0  0  0  0  0  0  0  0
  -28.8193  -11.7029   26.5920 C   0  0  0  0  0  0  0  0  0  0  0  0
  -29.0150  -12.4432   27.9184 C   0  0  0  0  0  0  0  0  0  0  0  0
  -29.7823  -13.7508   27.7496 C   0  0  0  0  0  0  0  0  0  0  0  0
  -34.2534  -12.6743   24.0755 C   0  0  0  0  0  0  0  0  0  0  0  0
  -34.0432  -13.7338   25.1425 C   0  0  0  0  0  0  0  0  0  1  0  0
  -33.7386  -12.6991   33.9495 C   0  0  1  0  0  0  0  0  0  0  0  0
  -30.2424  -11.2605   34.2263 C   0  0  2  0  0  0  0  0  0  0  0  0
  -34.8554  -12.2709   34.9429 C   0  0  0  0  0  0  0  0  0  0  0  0
  -25.8616  -11.5426   20.2867 N   0  0  0  0  0  0  0  0  0  0  0  0
  -28.0510  -16.3674   25.0848 N   0  0  0  0  0  0  0  0  0  0  0  0
  -27.9121  -17.7727   21.8380 N   0  0  0  0  0  0  0  0  0  0  0  0
  -26.2390  -12.8260   20.1589 N   0  0  0  0  0  0  0  0  0  0  0  0
  -33.9086  -14.6340   32.4162 N   0  0  0  0  0  0  0  0  0  0  0  0
  -29.9704  -13.6119   20.3665 N   0  0  0  0  0  0  0  0  0  0  0  0
  -25.4734  -15.0537   20.4074 N   0  0  0  0  0  0  0  0  0  0  0  0
  -21.8872  -12.5805   21.5984 N   0  0  0  0  0  0  0  0  0  0  0  0
  -30.0819  -15.6907   21.4748 N   0  0  0  0  0  0  0  0  0  0  0  0
  -29.1069  -14.6794   26.8852 N   0  0  0  0  0  0  0  0  0  0  0  0
  -36.0054  -17.1697   33.1533 N   0  0  0  0  0  0  0  0  0  0  0  0
  -33.3268  -11.5753   24.2201 N   0  0  0  0  0  0  0  0  0  0  0  0
  -32.3928  -12.3159   34.3621 N   0  0  0  0  0  0  0  0  0  0  0  0
  -29.1774  -11.1521   33.1895 N   0  3  0  0  0  0  0  0  0  0  0  0
  -22.6638  -14.7201   21.3193 O   0  0  0  0  0  0  0  0  0  0  0  0
  -27.1652  -14.8645   28.1408 O   0  0  0  0  0  0  0  0  0  0  0  0
  -36.2601  -15.7992   31.2880 O   0  0  0  0  0  0  0  0  0  0  0  0
  -33.4965  -14.9393   34.6906 O   0  0  0  0  0  0  0  0  0  0  0  0
  -31.6349  -12.4331   22.8775 O   0  0  0  0  0  0  0  0  0  0  0  0
  -31.8981  -11.0570   32.4786 O   0  0  0  0  0  0  0  0  0  0  0  0
  -31.8583  -14.9341   20.1889 O   0  0  0  0  0  0  0  0  0  0  0  0
  -21.6117   -7.0174   21.7047 O   0  0  0  0  0  0  0  0  0  0  0  0
  -34.2253  -13.1526   26.4273 O   0  0  0  0  0  0  0  0  0  1  0  0
  -18.6197   -6.8587   26.3336 F   0  0  0  0  0  0  0  0  0  0  0  0
  -22.0609   -5.0731   23.6179 F   0  0  0  0  0  0  0  0  0  0  0  0
  1  4  1  0  0  0  0
  1  8  2  0  0  0  0
  2  3  1  0  0  0  0
  2  9  2  0  0  0  0
  3 10  2  0  0  0  0
  4 12  2  0  0  0  0
  5 18  1  0  0  0  0
  5 19  2  0  0  0  0
  6 13  2  0  0  0  0
  6 22  1  0  0  0  0
  7 14  1  0  0  0  0
  7 22  2  0  0  0  0
  8 23  1  0  0  0  0
  9 25  1  0  0  0  0
 10 27  1  0  0  0  0
 11 15  2  0  0  0  0
 11 26  1  0  0  0  0
 12 29  1  0  0  0  0
 13 30  1  0  0  0  0
 14 30  2  0  0  0  0
 15 31  1  0  0  0  0
 16 17  2  0  0  0  0
 16 32  1  0  0  0  0
 17 33  1  0  0  0  0
 18 36  2  0  0  0  0
 19 37  1  0  0  0  0
 20 28  1  0  0  0  0
 20 31  2  0  0  0  0
 21 33  2  0  0  0  0
 21 34  1  0  0  0  0
 22 35  1  0  0  0  0
 23 29  2  0  0  0  0
 23 39  1  0  0  0  0
 24 35  1  0  0  0  0
 24 38  2  0  0  0  0
 24 40  1  0  0  0  0
 25 27  2  0  0  0  0
 25 47  1  0  0  0  0
 26 28  2  0  0  0  0
 26 48  1  0  0  0  0
 27 56  1  0  0  0  0
 28 49  1  0  0  0  0
 29 83  1  0  0  0  0
 30 96  1  0  0  0  0
 31 97  1  0  0  0  0
 32 34  2  0  0  0  0
 32 96  1  0  0  0  0
 33 98  1  0  0  0  0
 34 99  1  0  0  0  0
 35 75  2  0  0  0  0
 36 39  1  0  0  0  0
 36 76  1  0  0  0  0
 37 41  1  0  0  0  0
 37 76  2  0  0  0  0
 38 78  1  0  0  0  0
 38 81  1  0  0  0  0
 39 77  2  0  0  0  0
 40 82  1  0  0  0  0
 40 89  2  0  0  0  0
 41 84  1  0  0  0  0
 41 90  2  0  0  0  0
 42 57  1  0  0  0  0
 42 85  1  0  0  0  0
 42 91  2  0  0  0  0
 43 72  1  0  0  0  0
 43 79  1  0  0  0  0
 43 92  2  0  0  0  0
 44 64  1  0  0  0  0
 44 86  1  0  0  0  0
 44 93  2  0  0  0  0
 45 73  1  0  0  0  0
 45 87  1  0  0  0  0
 45 94  2  0  0  0  0
 46 80  1  0  0  0  0
 46 83  1  0  0  0  0
 46 95  2  0  0  0  0
 47 50  1  0  0  0  0
 48 57  1  0  0  0  0
 49 79  1  0  0  0  0
 50 52  1  0  0  0  0
 51 53  1  0  0  0  0
 51 54  1  0  0  0  0
 52 56  1  0  0  0  0
 53 58  1  0  0  0  0
 54 80  1  0  0  0  0
 55 58  1  0  0  0  0
 55 80  1  0  0  0  0
 56 85  1  0  0  0  0
 57 79  1  0  0  0  0
 58 78  1  0  0  0  0
 59 73  1  0  0  0  0
 60 74  1  0  0  0  0
 61 74  1  0  0  0  0
 62 74  1  0  0  0  0
 63 88  1  0  0  0  0
 64 65  1  0  0  0  0
 65 66  1  0  0  0  0
 66 67  1  0  0  0  0
 67 68  1  0  0  0  0
 68 69  1  0  0  0  0
 69 84  1  0  0  0  0
 70 71  1  0  0  0  0
 70 86  1  0  0  0  0
 71 97  1  0  0  0  0
 72 74  1  0  0  0  0
 72 87  1  0  0  0  0
 73 88  1  0  0  0  0
 75 78  1  0  0  0  0
M  CHG  1  88   1
M  ISO  4  46 100  71 101  83 100  97 101
M  END
> <Batch ID>
0004

> <Smiles>
CNC(C)C(=O)NC(C(=O)N1Cc2cc([101O:1][101CH2:1]CNC(=O)CCCCCCNC(=O)c3cccc(C(=N)c4ccccc4[100NH:0][100C:0](=O)N4CCCC(n5nc(-c6ccc(Oc7ccc(F)cc7F)cc6)c(C(N)=O)c5N)C4)n3)ccc2CC1C(=O)NC1CCCc2ccccc21)C(C)(C)C

> <Shape>
0.160

> <Color>
0.167

> <Negative vol penalty>
0.000

$$$$

  -OEChem-04052315243D

 88 96  0     1  0  0  0  0  0999 V2000
  -24.9324  -23.7077   17.5275 C   0  0  0  0  0  0  0  0  0  0  0  0
  -24.7993  -22.4503   18.1076 C   0  0  0  0  0  0  0  0  0  0  0  0
  -27.6815  -25.7693   19.0884 C   0  0  0  0  0  0  0  0  0  0  0  0
  -29.7972  -26.8186   19.5981 C   0  0  0  0  0  0  0  0  0  0  0  0
  -24.2354  -24.7944   18.0540 C   0  0  0  0  0  0  0  0  0  0  0  0
  -23.9699  -22.2791   19.2155 C   0  0  0  0  0  0  0  0  0  0  0  0
  -21.0543  -18.1555   18.8407 C   0  0  0  0  0  0  0  0  0  0  0  0
  -28.3814  -13.3474   19.5525 C   0  0  0  0  0  0  0  0  0  0  0  0
  -27.0528  -27.0135   19.1364 C   0  0  0  0  0  0  0  0  0  0  0  0
  -29.1685  -28.0628   19.6461 C   0  0  0  0  0  0  0  0  0  0  0  0
  -21.6536  -16.9255   19.1083 C   0  0  0  0  0  0  0  0  0  0  0  0
  -29.6615  -13.7300   19.1519 C   0  0  0  0  0  0  0  0  0  0  0  0
  -24.8283  -29.8696   19.4799 C   0  0  0  0  0  0  0  0  0  0  0  0
  -23.6194  -29.9609   20.1697 C   0  0  0  0  0  0  0  0  0  0  0  0
  -20.6970  -16.9481   21.3228 C   0  0  0  0  0  0  0  0  0  0  0  0
  -28.6837  -14.5227   21.6416 C   0  0  0  0  0  0  0  0  0  0  0  0
  -24.7212  -29.2411   22.1958 C   0  0  0  0  0  0  0  0  0  0  0  0
  -29.0537  -25.6718   19.3193 C   0  0  0  0  0  0  0  0  0  0  0  0
  -30.2814  -23.7686   18.1453 C   0  0  0  0  0  0  0  0  0  0  0  0
  -23.3895  -24.6345   19.1628 C   0  0  0  0  0  0  0  0  0  0  0  0
  -20.2795  -18.7974   19.8175 C   0  0  0  0  0  0  0  0  0  0  0  0
  -23.2620  -23.3650   19.7581 C   0  0  0  0  0  0  0  0  0  0  0  0
  -20.0869  -18.1850   21.0641 C   0  0  0  0  0  0  0  0  0  0  0  0
  -27.8925  -13.7438   20.7973 C   0  0  0  0  0  0  0  0  0  0  0  0
  -29.9639  -14.9054   21.2410 C   0  0  0  0  0  0  0  0  0  0  0  0
  -27.7963  -28.1603   19.4152 C   0  0  0  0  0  0  0  0  0  0  0  0
  -21.4774  -16.3230   20.3505 C   0  0  0  0  0  0  0  0  0  0  0  0
  -30.4528  -14.5090   19.9961 C   0  0  0  0  0  0  0  0  0  0  0  0
  -25.9837  -29.4640   20.1480 C   0  0  0  0  0  0  0  0  0  0  0  0
  -23.5659  -29.6467   21.5276 C   0  0  0  0  0  0  0  0  0  0  0  0
  -25.9301  -29.1498   21.5059 C   0  0  0  0  0  0  0  0  0  0  0  0
  -29.7035  -24.3867   19.2704 C   0  0  0  0  0  0  0  0  0  0  0  0
  -30.7614  -22.5723   18.6195 C   0  0  0  0  0  0  0  0  0  0  0  0
  -30.3759  -24.2342   16.7926 C   0  0  0  0  0  0  0  0  0  0  0  0
  -20.4776  -21.5577   21.3811 C   0  0  0  0  0  0  0  0  0  0  0  0
  -17.5741  -20.6715   22.5242 C   0  0  0  0  0  0  0  0  0  0  0  0
  -29.2787  -17.0136   23.5813 C   0  0  0  0  0  0  0  0  0  0  0  0
  -24.1390  -13.8959   20.7919 C   0  0  0  0  0  0  0  0  0  0  0  0
  -15.3782  -18.1520   23.2148 C   0  0  0  0  0  0  0  0  0  0  0  0
  -30.2788  -18.0308   21.5050 C   0  0  0  0  0  0  0  0  0  0  0  0
  -22.6933  -25.8482   19.7258 C   0  0  0  0  0  0  0  0  0  0  0  0
  -19.6178  -20.1112   19.5038 C   0  0  0  0  0  0  0  0  0  0  0  0
  -19.2478  -18.8231   22.1399 C   0  0  0  0  0  0  0  0  0  0  0  0
  -21.5440  -25.5074   20.6709 C   0  0  0  0  0  0  0  0  0  0  0  0
  -31.2925  -20.8730   23.3523 C   0  0  0  0  0  0  0  0  0  0  0  0
  -21.9717  -24.4333   21.6659 C   0  0  0  0  0  0  0  0  0  0  0  0
  -31.0196  -21.9995   22.3542 C   0  0  0  0  0  0  0  0  0  0  0  0
  -30.1923  -19.8127   23.3218 C   0  0  0  0  0  0  0  0  0  0  0  0
  -29.6578  -20.3743   20.9753 C   0  0  0  0  0  0  0  0  0  0  0  0
  -22.3527  -23.1342   20.9455 C   0  0  1  0  0  0  0  0  0  0  0  0
  -19.2723  -20.9190   20.7510 C   0  0  1  0  0  0  0  0  0  0  0  0
  -30.7628  -21.4430   20.9413 C   0  0  1  0  0  0  0  0  0  0  0  0
  -27.9667  -17.7380   23.3914 C   0  0  0  0  0  0  0  0  0  0  0  0
  -13.1001  -17.7340   24.1805 C   0  0  0  0  0  0  0  0  0  0  0  0
  -18.6894  -21.0960   25.3324 C   0  0  0  0  0  0  0  0  0  0  0  0
  -16.7519  -19.7852   26.2246 C   0  0  0  0  0  0  0  0  0  0  0  0
  -16.3523  -21.9226   25.0022 C   0  0  0  0  0  0  0  0  0  0  0  0
  -14.3889  -16.9905   20.6788 C   0  0  0  0  0  0  0  0  0  0  0  0
  -32.1199  -14.4232   18.3023 C   0  0  0  0  0  0  0  0  0  0  0  0
  -26.5232  -13.3355   21.2244 C   0  0  0  0  0  0  0  0  0  0  0  0
  -30.8015  -15.7451   22.1618 C   0  0  0  0  0  0  0  0  0  0  0  0
  -23.2841  -14.8269   19.9588 C   0  0  0  0  0  0  0  0  0  1  0  0
  -17.0904  -19.8767   23.7130 C   0  0  1  0  0  0  0  0  0  0  0  0
  -13.8989  -17.9942   22.9129 C   0  0  2  0  0  0  0  0  0  0  0  0
  -17.2385  -20.6588   25.0487 C   0  0  0  0  0  0  0  0  0  0  0  0
  -29.8059  -23.6444   20.3760 N   0  0  0  0  0  0  0  0  0  0  0  0
  -30.4536  -22.5474   19.9480 N   0  0  0  0  0  0  0  0  0  0  0  0
  -18.6267  -20.1105   21.7872 N   0  0  0  0  0  0  0  0  0  0  0  0
  -29.9842  -19.3315   21.9497 N   0  0  0  0  0  0  0  0  0  0  0  0
  -31.4125  -21.5497   18.0255 N   0  0  0  0  0  0  0  0  0  0  0  0
  -29.8302  -25.4860   16.4772 N   0  0  0  0  0  0  0  0  0  0  0  0
  -21.1646  -22.4134   20.5413 N   0  0  0  0  0  0  0  0  0  0  0  0
  -25.4933  -14.0935   20.5602 N   0  0  0  0  0  0  0  0  0  0  0  0
  -15.7225  -19.4736   23.4052 N   0  0  0  0  0  0  0  0  0  0  0  0
  -30.1598  -17.0130   22.4774 N   0  0  0  0  0  0  0  0  0  0  0  0
  -13.6798  -16.8552   21.9772 N   0  3  0  0  0  0  0  0  0  0  0  0
  -30.9133  -23.5530   15.8867 O   0  0  0  0  0  0  0  0  0  0  0  0
  -20.7624  -21.2949   22.5437 O   0  0  0  0  0  0  0  0  0  0  0  0
  -17.0331  -21.7469   22.2551 O   0  0  0  0  0  0  0  0  0  0  0  0
  -29.5187  -16.4529   24.6534 O   0  0  0  0  0  0  0  0  0  0  0  0
  -23.6624  -13.0739   21.5697 O   0  0  0  0  0  0  0  0  0  0  0  0
  -16.1504  -17.1980   23.2791 O   0  0  0  0  0  0  0  0  0  0  0  0
  -30.6149  -17.7708   20.3448 O   0  0  0  0  0  0  0  0  0  0  0  0
  -27.1832  -29.3746   19.4619 O   0  0  0  0  0  0  0  0  0  0  0  0
  -31.7014  -14.8724   19.5895 O   0  0  0  0  0  0  0  0  0  0  0  0
  -22.0679  -15.1103   20.6173 O   0  0  0  0  0  0  0  0  0  1  0  0
  -22.4052  -29.7359   22.1903 F   0  0  0  0  0  0  0  0  0  0  0  0
  -27.0370  -28.7607   22.1534 F   0  0  0  0  0  0  0  0  0  0  0  0
  1  2  1  0  0  0  0
  1  5  2  0  0  0  0
  2  6  2  0  0  0  0
  3  9  2  0  0  0  0
  3 18  1  0  0  0  0
  4 10  1  0  0  0  0
  4 18  2  0  0  0  0
  5 20  1  0  0  0  0
  6 22  1  0  0  0  0
  7 11  2  0  0  0  0
  7 21  1  0  0  0  0
  8 12  2  0  0  0  0
  8 24  1  0  0  0  0
  9 26  1  0  0  0  0
 10 26  2  0  0  0  0
 11 27  1  0  0  0  0
 12 28  1  0  0  0  0
 13 14  2  0  0  0  0
 13 29  1  0  0  0  0
 14 30  1  0  0  0  0
 15 23  1  0  0  0  0
 15 27  2  0  0  0  0
 16 24  2  0  0  0  0
 16 25  1  0  0  0  0
 17 30  2  0  0  0  0
 17 31  1  0  0  0  0
 18 32  1  0  0  0  0
 19 32  1  0  0  0  0
 19 33  2  0  0  0  0
 19 34  1  0  0  0  0
 20 22  2  0  0  0  0
 20 41  1  0  0  0  0
 21 23  2  0  0  0  0
 21 42  1  0  0  0  0
 22 50  1  0  0  0  0
 23 43  1  0  0  0  0
 24 60  1  0  0  0  0
 25 28  2  0  0  0  0
 25 61  1  0  0  0  0
 26 84  1  0  0  0  0
 27 86  1  0  0  0  0
 28 85  1  0  0  0  0
 29 31  2  0  0  0  0
 29 84  1  0  0  0  0
 30 87  1  0  0  0  0
 31 88  1  0  0  0  0
 32 66  2  0  0  0  0
 33 67  1  0  0  0  0
 33 70  1  0  0  0  0
 34 71  1  0  0  0  0
 34 77  2  0  0  0  0
 35 51  1  0  0  0  0
 35 72  1  0  0  0  0
 35 78  2  0  0  0  0
 36 63  1  0  0  0  0
 36 68  1  0  0  0  0
 36 79  2  0  0  0  0
 37 53  1  0  0  0  0
 37 75  1  0  0  0  0
 37 80  2  0  0  0  0
 38 62  1  0  0  0  0
 38 73  1  0  0  0  0
 38 81  2  0  0  0  0
 39 64  1  0  0  0  0
 39 74  1  0  0  0  0
 39 82  2  0  0  0  0
 40 69  1  0  0  0  0
 40 75  1  0  0  0  0
 40 83  2  0  0  0  0
 41 44  1  0  0  0  0
 42 51  1  0  0  0  0
 43 68  1  0  0  0  0
 44 46  1  0  0  0  0
 45 47  1  0  0  0  0
 45 48  1  0  0  0  0
 46 50  1  0  0  0  0
 47 52  1  0  0  0  0
 48 69  1  0  0  0  0
 49 52  1  0  0  0  0
 49 69  1  0  0  0  0
 50 72  1  0  0  0  0
 51 68  1  0  0  0  0
 52 67  1  0  0  0  0
 54 64  1  0  0  0  0
 55 65  1  0  0  0  0
 56 65  1  0  0  0  0
 57 65  1  0  0  0  0
 58 76  1  0  0  0  0
 59 85  1  0  0  0  0
 60 73  1  0  0  0  0
 61 75  1  0  0  0  0
 62 86  1  0  0  0  0
 63 65  1  0  0  0  0
 63 74  1  0  0  0  0
 64 76  1  0  0  0  0
 66 67  1  0  0  0  0
M  CHG  1  76   1
M  ISO  4  40 100  62 101  75 100  86 101
M  END
> <Batch ID>
0004

> <Smiles>
CNC(C)C(=O)NC(C(=O)N1Cc2cc([101O:1][101CH2:1]C(=O)NCc3ccc(OC)c(C[100N:0](C(C)=O)[100C:0](=O)N4CCCC(n5nc(-c6ccc(Oc7ccc(F)cc7F)cc6)c(C(N)=O)c5N)C4)c3)ccc2CC1C(=O)NC1CCCc2ccccc21)C(C)(C)C

> <Shape>
0.200

> <Color>
0.063

> <Negative vol penalty>
0.000

$$$$

  -OEChem-04052315243D

 93101  0     1  0  0  0  0  0999 V2000
  -19.6958  -29.4306   26.7727 C   0  0  0  0  0  0  0  0  0  0  0  0
  -20.9506  -28.9552   26.4053 C   0  0  0  0  0  0  0  0  0  0  0  0
  -24.2304   -9.6012   21.5985 C   0  0  0  0  0  0  0  0  0  0  0  0
  -22.2646  -10.2868   20.3728 C   0  0  0  0  0  0  0  0  0  0  0  0
  -18.6644  -29.4693   25.8353 C   0  0  0  0  0  0  0  0  0  0  0  0
  -21.1743  -28.5171   25.1005 C   0  0  0  0  0  0  0  0  0  0  0  0
  -26.3481  -29.0642   21.8696 C   0  0  0  0  0  0  0  0  0  0  0  0
  -23.7704  -19.8936   19.2474 C   0  0  0  0  0  0  0  0  0  0  0  0
  -25.0759  -20.3766   19.1579 C   0  0  0  0  0  0  0  0  0  0  0  0
  -23.6718   -8.3371   21.7874 C   0  0  0  0  0  0  0  0  0  0  0  0
  -21.7060   -9.0228   20.5616 C   0  0  0  0  0  0  0  0  0  0  0  0
  -27.3917  -28.1763   21.6125 C   0  0  0  0  0  0  0  0  0  0  0  0
  -21.3667   -6.9094   23.8054 C   0  0  0  0  0  0  0  0  0  0  0  0
  -21.4493   -6.3490   25.0801 C   0  0  0  0  0  0  0  0  0  0  0  0
  -26.3596  -27.5798   19.5153 C   0  0  0  0  0  0  0  0  0  0  0  0
  -23.1384  -21.2507   17.3510 C   0  0  0  0  0  0  0  0  0  0  0  0
  -22.6916   -4.4829   24.1792 C   0  0  0  0  0  0  0  0  0  0  0  0
  -23.5268  -10.5761   20.8913 C   0  0  0  0  0  0  0  0  0  0  0  0
  -24.9163  -12.3015   19.6264 C   0  0  0  0  0  0  0  0  0  0  0  0
  -18.8783  -29.0405   24.5159 C   0  0  0  0  0  0  0  0  0  0  0  0
  -25.2950  -29.2088   20.9550 C   0  0  0  0  0  0  0  0  0  0  0  0
  -20.1444  -28.5488   24.1450 C   0  0  0  0  0  0  0  0  0  0  0  0
  -25.3051  -28.4721   19.7620 C   0  0  0  0  0  0  0  0  0  0  0  0
  -22.8017  -20.3306   18.3439 C   0  0  0  0  0  0  0  0  0  0  0  0
  -25.4126  -21.2967   18.1651 C   0  0  0  0  0  0  0  0  0  0  0  0
  -22.4096   -8.0479   21.2690 C   0  0  0  0  0  0  0  0  0  0  0  0
  -27.3961  -27.4318   20.4366 C   0  0  0  0  0  0  0  0  0  0  0  0
  -21.9465   -6.2565   22.7176 C   0  0  0  0  0  0  0  0  0  0  0  0
  -24.4439  -21.7338   17.2617 C   0  0  0  0  0  0  0  0  0  0  0  0
  -22.1117   -5.1358   25.2670 C   0  0  0  0  0  0  0  0  0  0  0  0
  -22.6089   -5.0433   22.9045 C   0  0  0  0  0  0  0  0  0  0  0  0
  -24.1031  -11.8822   20.6963 C   0  0  0  0  0  0  0  0  0  0  0  0
  -25.1998  -13.6162   19.9053 C   0  0  0  0  0  0  0  0  0  0  0  0
  -25.3743  -11.5683   18.4826 C   0  0  0  0  0  0  0  0  0  0  0  0
  -22.1569  -28.7116   21.0504 C   0  0  0  0  0  0  0  0  0  0  0  0
  -22.2470  -30.0589   18.1010 C   0  0  0  0  0  0  0  0  0  0  0  0
  -27.3171  -22.4752   19.1940 C   0  0  0  0  0  0  0  0  0  0  0  0
  -24.0580  -30.7822   15.3004 C   0  0  0  0  0  0  0  0  0  0  0  0
  -22.3778  -17.8015   23.1256 C   0  0  0  0  0  0  0  0  0  0  0  0
  -17.7197  -29.0570   23.5504 C   0  0  0  0  0  0  0  0  0  0  0  0
  -24.1903  -30.1906   21.2347 C   0  0  0  0  0  0  0  0  0  0  0  0
  -24.2085  -28.6056   18.7382 C   0  0  0  0  0  0  0  0  0  0  0  0
  -18.1424  -28.9249   22.0895 C   0  0  0  0  0  0  0  0  0  0  0  0
  -25.7122  -16.6382   23.5789 C   0  0  0  0  0  0  0  0  0  0  0  0
  -19.1600  -27.8001   21.9278 C   0  0  0  0  0  0  0  0  0  0  0  0
  -25.7513  -15.3253   22.7950 C   0  0  0  0  0  0  0  0  0  0  0  0
  -24.3622  -16.8482   24.2612 C   0  0  0  0  0  0  0  0  0  0  0  0
  -23.2334  -15.4418   22.5815 C   0  0  0  0  0  0  0  0  0  0  0  0
  -20.4330  -28.0880   22.7328 C   0  0  1  0  0  0  0  0  0  0  0  0
  -22.9063  -29.8785   20.4722 C   0  0  1  0  0  0  0  0  0  0  0  0
  -24.5558  -15.2126   21.8298 C   0  0  2  0  0  0  0  0  0  0  0  0
  -23.8492  -31.8579   13.0428 C   0  0  0  0  0  0  0  0  0  0  0  0
  -25.0208  -25.0119   16.4793 C   0  0  0  0  0  0  0  0  0  0  0  0
  -23.2552  -23.9993   14.9930 C   0  0  0  0  0  0  0  0  0  0  0  0
  -20.7620  -27.6009   17.0699 C   0  0  0  0  0  0  0  0  0  0  0  0
  -21.4168  -28.2660   14.7468 C   0  0  0  0  0  0  0  0  0  0  0  0
  -19.9738  -29.7732   16.1138 C   0  0  0  0  0  0  0  0  0  0  0  0
  -27.5423  -21.5563   16.8530 C   0  0  0  0  0  0  0  0  0  0  0  0
  -20.4680  -20.2894   17.4998 C   0  0  0  0  0  0  0  0  0  0  0  0
  -26.1028  -32.8197   15.9535 C   0  0  0  0  0  0  0  0  0  0  0  0
  -28.7404  -23.0000   19.0189 C   0  0  0  0  0  0  0  0  0  0  0  0
  -29.0070  -24.2659   19.8319 C   0  0  0  0  0  0  0  0  0  0  0  0
  -20.8229  -19.5712   20.7787 C   0  0  0  0  0  0  0  0  0  0  0  0
  -20.3861  -18.6230   21.8937 C   0  0  0  0  0  0  0  0  0  0  0  0
  -21.1253  -18.8743   19.4527 C   0  0  0  0  0  0  0  0  0  0  0  0
  -28.1046  -25.4125   19.3990 C   0  0  0  0  0  0  0  0  0  1  0  0
  -22.4235  -29.5410   16.6940 C   0  0  1  0  0  0  0  0  0  0  0  0
  -24.2130  -32.0657   14.5047 C   0  0  2  0  0  0  0  0  0  0  0  0
  -24.0381  -23.8663   16.2904 C   0  0  0  0  0  0  0  0  0  0  0  0
  -21.1639  -28.7911   16.1761 C   0  0  0  0  0  0  0  0  0  0  0  0
  -23.8844  -12.8518   21.5885 N   0  0  0  0  0  0  0  0  0  0  0  0
  -24.5643  -13.8935   21.0798 N   0  0  0  0  0  0  0  0  0  0  0  0
  -23.1472  -29.5739   19.0603 N   0  0  0  0  0  0  0  0  0  0  0  0
  -23.2711  -16.7302   23.2909 N   0  0  0  0  0  0  0  0  0  0  0  0
  -25.9283  -14.5504   19.2581 N   0  0  0  0  0  0  0  0  0  0  0  0
  -24.9895  -10.2270   18.3508 N   0  0  0  0  0  0  0  0  0  0  0  0
  -21.2592  -29.0555   22.0430 N   0  0  0  0  0  0  0  0  0  0  0  0
  -22.8113  -30.6894   15.8821 N   0  0  0  0  0  0  0  0  0  0  0  0
  -21.3767  -17.6097   22.1812 N   0  0  0  0  0  0  0  0  0  0  0  0
  -26.7731  -21.7885   18.0855 N   0  0  0  0  0  0  0  0  0  0  0  0
  -21.4818  -19.8416   18.4338 N   0  0  3  0  0  0  0  0  0  0  0  0
  -25.6202  -32.5515   14.5743 N   0  3  0  0  0  0  0  0  0  0  0  0
  -26.1166  -12.0824   17.6118 O   0  0  0  0  0  0  0  0  0  0  0  0
  -22.3758  -27.5829   20.6264 O   0  0  0  0  0  0  0  0  0  0  0  0
  -21.3481  -30.8695   18.3387 O   0  0  0  0  0  0  0  0  0  0  0  0
  -26.7181  -22.6970   20.2492 O   0  0  0  0  0  0  0  0  0  0  0  0
  -24.9520  -29.9440   15.3933 O   0  0  0  0  0  0  0  0  0  0  0  0
  -22.4691  -18.8532   23.7678 O   0  0  0  0  0  0  0  0  0  0  0  0
  -21.8643   -6.8145   21.4529 O   0  0  0  0  0  0  0  0  0  0  0  0
  -28.4133  -26.5639   20.1835 O   0  0  0  0  0  0  0  0  0  1  0  0
  -24.7519  -22.6320   16.2836 O   0  0  0  0  0  0  0  0  0  0  0  0
  -22.1923   -4.5986   26.4914 F   0  0  0  0  0  0  0  0  0  0  0  0
  -23.1689   -4.4120   21.8635 F   0  0  0  0  0  0  0  0  0  0  0  0
  1  2  1  0  0  0  0
  1  5  2  0  0  0  0
  2  6  2  0  0  0  0
  3 10  2  0  0  0  0
  3 18  1  0  0  0  0
  4 11  1  0  0  0  0
  4 18  2  0  0  0  0
  5 20  1  0  0  0  0
  6 22  1  0  0  0  0
  7 12  2  0  0  0  0
  7 21  1  0  0  0  0
  8  9  2  0  0  0  0
  8 24  1  0  0  0  0
  9 25  1  0  0  0  0
 10 26  1  0  0  0  0
 11 26  2  0  0  0  0
 12 27  1  0  0  0  0
 13 14  2  0  0  0  0
 13 28  1  0  0  0  0
 14 30  1  0  0  0  0
 15 23  1  0  0  0  0
 15 27  2  0  0  0  0
 16 24  2  0  0  0  0
 16 29  1  0  0  0  0
 17 30  2  0  0  0  0
 17 31  1  0  0  0  0
 18 32  1  0  0  0  0
 19 32  1  0  0  0  0
 19 33  2  0  0  0  0
 19 34  1  0  0  0  0
 20 22  2  0  0  0  0
 20 40  1  0  0  0  0
 21 23  2  0  0  0  0
 21 41  1  0  0  0  0
 22 49  1  0  0  0  0
 23 42  1  0  0  0  0
 24 81  1  0  0  0  0
 25 29  2  0  0  0  0
 25 80  1  0  0  0  0
 26 89  1  0  0  0  0
 27 90  1  0  0  0  0
 28 31  2  0  0  0  0
 28 89  1  0  0  0  0
 29 91  1  0  0  0  0
 30 92  1  0  0  0  0
 31 93  1  0  0  0  0
 32 71  2  0  0  0  0
 33 72  1  0  0  0  0
 33 75  1  0  0  0  0
 34 76  1  0  0  0  0
 34 83  2  0  0  0  0
 35 50  1  0  0  0  0
 35 77  1  0  0  0  0
 35 84  2  0  0  0  0
 36 67  1  0  0  0  0
 36 73  1  0  0  0  0
 36 85  2  0  0  0  0
 37 61  1  0  0  0  0
 37 80  1  0  0  0  0
 37 86  2  0  0  0  0
 38 68  1  0  0  0  0
 38 78  1  0  0  0  0
 38 87  2  0  0  0  0
 39 74  1  0  0  0  0
 39 79  1  0  0  0  0
 39 88  2  0  0  0  0
 40 43  1  0  0  0  0
 41 50  1  0  0  0  0
 42 73  1  0  0  0  0
 43 45  1  0  0  0  0
 44 46  1  0  0  0  0
 44 47  1  0  0  0  0
 45 49  1  0  0  0  0
 46 51  1  0  0  0  0
 47 74  1  0  0  0  0
 48 51  1  0  0  0  0
 48 74  1  0  0  0  0
 49 77  1  0  0  0  0
 50 73  1  0  0  0  0
 51 72  1  0  0  0  0
 52 68  1  0  0  0  0
 53 69  1  0  0  0  0
 54 69  1  0  0  0  0
 55 70  1  0  0  0  0
 56 70  1  0  0  0  0
 57 70  1  0  0  0  0
 58 80  1  0  0  0  0
 59 81  1  0  0  0  0
 60 82  1  0  0  0  0
 61 62  1  0  0  0  0
 62 66  1  0  0  0  0
 63 64  1  0  0  0  0
 63 65  1  0  0  0  0
 64 79  1  0  0  0  0
 65 81  1  0  0  0  0
 66 90  1  0  0  0  0
 67 70  1  0  0  0  0
 67 78  1  0  0  0  0
 68 82  1  0  0  0  0
 69 91  1  0  0  0  0
 71 72  1  0  0  0  0
M  CHG  1  82   1
M  ISO  4  39 100  66 101  79 100  90 101
M  END
> <Batch ID>
0004

> <Smiles>
CNC(C)C(=O)NC(C(=O)N1Cc2cc([101O:1][101CH2:1]CCC(=O)N(C)c3ccc(N(C)CCC[100NH:0][100C:0](=O)N4CCCC(n5nc(-c6ccc(Oc7ccc(F)cc7F)cc6)c(C(N)=O)c5N)C4)cc3OC(C)C)ccc2CC1C(=O)NC1CCCc2ccccc21)C(C)(C)C

> <Shape>
0.218

> <Color>
0.123

> <Negative vol penalty>
0.000

$$$$

  -OEChem-04052315243D

 79 87  0     1  0  0  0  0  0999 V2000
  -28.1104  -37.0363   21.2099 C   0  0  0  0  0  0  0  0  0  0  0  0
  -28.5158  -35.7173   21.0323 C   0  0  0  0  0  0  0  0  0  0  0  0
  -26.8755  -12.7195   21.8041 C   0  0  0  0  0  0  0  0  0  0  0  0
  -26.2265  -14.3392   20.1330 C   0  0  0  0  0  0  0  0  0  0  0  0
  -26.9939  -37.3216   21.9946 C   0  0  0  0  0  0  0  0  0  0  0  0
  -27.8054  -34.6830   21.6405 C   0  0  0  0  0  0  0  0  0  0  0  0
  -26.8442  -29.0641   19.4020 C   0  0  0  0  0  0  0  0  0  0  0  0
  -29.8931  -23.9236   21.6325 C   0  0  0  0  0  0  0  0  0  0  0  0
  -30.3654  -22.6568   21.9756 C   0  0  0  0  0  0  0  0  0  0  0  0
  -25.5568  -12.2716   21.8821 C   0  0  0  0  0  0  0  0  0  0  0  0
  -24.9079  -13.8912   20.2109 C   0  0  0  0  0  0  0  0  0  0  0  0
  -27.4736  -27.8419   19.6335 C   0  0  0  0  0  0  0  0  0  0  0  0
  -22.4289  -10.4579   22.2587 C   0  0  0  0  0  0  0  0  0  0  0  0
  -22.2117   -9.0802   22.2718 C   0  0  0  0  0  0  0  0  0  0  0  0
  -25.7818  -27.2857   21.2606 C   0  0  0  0  0  0  0  0  0  0  0  0
  -29.0684  -23.0488   19.5369 C   0  0  0  0  0  0  0  0  0  0  0  0
  -23.2780   -8.8916   20.1120 C   0  0  0  0  0  0  0  0  0  0  0  0
  -27.2104  -13.7534   20.9296 C   0  0  0  0  0  0  0  0  0  0  0  0
  -29.5834  -13.7398   19.9936 C   0  0  0  0  0  0  0  0  0  0  0  0
  -26.2638  -36.2895   22.6048 C   0  0  0  0  0  0  0  0  0  0  0  0
  -25.6829  -29.4116   20.1072 C   0  0  0  0  0  0  0  0  0  0  0  0
  -26.6789  -34.9548   22.4353 C   0  0  0  0  0  0  0  0  0  0  0  0
  -25.1381  -28.5118   21.0344 C   0  0  0  0  0  0  0  0  0  0  0  0
  -29.2446  -24.1196   20.4132 C   0  0  0  0  0  0  0  0  0  0  0  0
  -29.5408  -21.7819   19.8799 C   0  0  0  0  0  0  0  0  0  0  0  0
  -30.1892  -21.5859   21.0992 C   0  0  0  0  0  0  0  0  0  0  0  0
  -24.5730  -12.8574   21.0855 C   0  0  0  0  0  0  0  0  0  0  0  0
  -26.9441  -26.9536   20.5650 C   0  0  0  0  0  0  0  0  0  0  0  0
  -23.0706  -11.0526   21.1723 C   0  0  0  0  0  0  0  0  0  0  0  0
  -22.6363   -8.2970   21.1985 C   0  0  0  0  0  0  0  0  0  0  0  0
  -23.4952  -10.2694   20.0989 C   0  0  0  0  0  0  0  0  0  0  0  0
  -28.5722  -14.2169   20.8490 C   0  0  0  0  0  0  0  0  0  0  0  0
  -30.6833  -14.5017   20.3037 C   0  0  0  0  0  0  0  0  0  0  0  0
  -29.5329  -12.7008   19.0068 C   0  0  0  0  0  0  0  0  0  0  0  0
  -24.8994  -31.7305   22.1351 C   0  0  0  0  0  0  0  0  0  0  0  0
  -21.9378  -30.4353   21.8632 C   0  0  0  0  0  0  0  0  0  0  0  0
  -20.0260  -27.7032   21.1371 C   0  0  0  0  0  0  0  0  0  0  0  0
  -31.3396  -19.9609   22.6428 C   0  0  0  0  0  0  0  0  0  0  0  0
  -25.0917  -36.6503   23.4827 C   0  0  0  0  0  0  0  0  0  0  0  0
  -25.0009  -30.7225   19.8265 C   0  0  0  0  0  0  0  0  0  0  0  0
  -23.8821  -28.8286   21.8029 C   0  0  0  0  0  0  0  0  0  0  0  0
  -24.1722  -35.4702   23.7865 C   0  0  0  0  0  0  0  0  0  0  0  0
  -32.6621  -16.9179   23.9342 C   0  0  0  0  0  0  0  0  0  0  0  0
  -24.9891  -34.2479   24.1934 C   0  0  0  0  0  0  0  0  0  0  0  0
  -31.8596  -15.8364   23.2073 C   0  0  0  0  0  0  0  0  0  0  0  0
  -31.8020  -18.1363   24.2651 C   0  0  0  0  0  0  0  0  0  0  0  0
  -30.2759  -17.6320   22.3980 C   0  0  0  0  0  0  0  0  0  0  0  0
  -25.9196  -33.8035   23.0584 C   0  0  1  0  0  0  0  0  0  0  0  0
  -24.1121  -31.1914   20.9743 C   0  0  1  0  0  0  0  0  0  0  0  0
  -31.1157  -16.4118   21.9862 C   0  0  2  0  0  0  0  0  0  0  0  0
  -29.3408  -20.6537   18.9205 C   0  0  0  0  0  0  0  0  0  0  0  0
  -17.6374  -26.9397   21.0404 C   0  0  0  0  0  0  0  0  0  0  0  0
  -21.8775  -30.2464   24.9080 C   0  0  0  0  0  0  0  0  0  0  0  0
  -19.9569  -28.6537   24.7016 C   0  0  0  0  0  0  0  0  0  0  0  0
  -19.7300  -30.9932   23.8664 C   0  0  0  0  0  0  0  0  0  0  0  0
  -20.2081  -27.1201   18.2413 C   0  0  0  0  0  0  0  0  0  0  0  0
  -28.7387  -25.4829   20.0433 C   0  0  0  0  0  0  0  0  0  1  0  0
  -21.1723  -29.3557   22.5895 C   0  0  1  0  0  0  0  0  0  0  0  0
  -18.7980  -27.5374   20.2602 C   0  0  2  0  0  0  0  0  0  0  0  0
  -20.7089  -29.8068   24.0035 C   0  0  0  0  0  0  0  0  0  0  0  0
  -28.9925  -15.2053   21.6430 N   0  0  0  0  0  0  0  0  0  0  0  0
  -30.2799  -15.3554   21.2879 N   0  0  0  0  0  0  0  0  0  0  0  0
  -23.2555  -30.1254   21.4977 N   0  0  0  0  0  0  0  0  0  0  0  0
  -31.1315  -18.6292   23.0600 N   0  0  0  0  0  0  0  0  0  0  0  0
  -31.9465  -14.5180   19.8279 N   0  0  0  0  0  0  0  0  0  0  0  0
  -28.3236  -12.0185   18.8163 N   0  0  0  0  0  0  0  0  0  0  0  0
  -30.6762  -20.3068   21.4659 N   0  0  0  0  0  0  0  0  0  0  0  0
  -25.1758  -33.0816   22.0484 N   0  0  0  0  0  0  0  0  0  0  0  0
  -20.0841  -28.9596   21.7022 N   0  0  0  0  0  0  0  0  0  0  0  0
  -19.1010  -26.6414   19.1086 N   0  3  0  0  0  0  0  0  0  0  0  0
  -30.5351  -12.3757   18.3261 O   0  0  0  0  0  0  0  0  0  0  0  0
  -25.2302  -30.9767   23.0429 O   0  0  0  0  0  0  0  0  0  0  0  0
  -21.3846  -31.5113   21.6226 O   0  0  0  0  0  0  0  0  0  0  0  0
  -20.8492  -26.8066   21.3070 O   0  0  0  0  0  0  0  0  0  0  0  0
  -32.0754  -20.7293   23.2675 O   0  0  0  0  0  0  0  0  0  0  0  0
  -23.2862  -12.4204   21.1611 O   0  0  0  0  0  0  0  0  0  0  0  0
  -27.5569  -25.7602   20.7934 O   0  0  0  0  0  0  0  0  0  1  0  0
  -22.4290   -6.9737   21.2118 F   0  0  0  0  0  0  0  0  0  0  0  0
  -24.1132  -10.8348   19.0529 F   0  0  0  0  0  0  0  0  0  0  0  0
  1  2  1  0  0  0  0
  1  5  2  0  0  0  0
  2  6  2  0  0  0  0
  3 10  2  0  0  0  0
  3 18  1  0  0  0  0
  4 11  1  0  0  0  0
  4 18  2  0  0  0  0
  5 20  1  0  0  0  0
  6 22  1  0  0  0  0
  7 12  2  0  0  0  0
  7 21  1  0  0  0  0
  8  9  2  0  0  0  0
  8 24  1  0  0  0  0
  9 26  1  0  0  0  0
 10 27  1  0  0  0  0
 11 27  2  0  0  0  0
 12 28  1  0  0  0  0
 13 14  2  0  0  0  0
 13 29  1  0  0  0  0
 14 30  1  0  0  0  0
 15 23  1  0  0  0  0
 15 28  2  0  0  0  0
 16 24  2  0  0  0  0
 16 25  1  0  0  0  0
 17 30  2  0  0  0  0
 17 31  1  0  0  0  0
 18 32  1  0  0  0  0
 19 32  1  0  0  0  0
 19 33  2  0  0  0  0
 19 34  1  0  0  0  0
 20 22  2  0  0  0  0
 20 39  1  0  0  0  0
 21 23  2  0  0  0  0
 21 40  1  0  0  0  0
 22 48  1  0  0  0  0
 23 41  1  0  0  0  0
 24 57  1  0  0  0  0
 25 26  2  0  0  0  0
 25 51  1  0  0  0  0
 26 67  1  0  0  0  0
 27 76  1  0  0  0  0
 28 77  1  0  0  0  0
 29 31  2  0  0  0  0
 29 76  1  0  0  0  0
 30 78  1  0  0  0  0
 31 79  1  0  0  0  0
 32 61  2  0  0  0  0
 33 62  1  0  0  0  0
 33 65  1  0  0  0  0
 34 66  1  0  0  0  0
 34 71  2  0  0  0  0
 35 49  1  0  0  0  0
 35 68  1  0  0  0  0
 35 72  2  0  0  0  0
 36 58  1  0  0  0  0
 36 63  1  0  0  0  0
 36 73  2  0  0  0  0
 37 59  1  0  0  0  0
 37 69  1  0  0  0  0
 37 74  2  0  0  0  0
 38 64  1  0  0  0  0
 38 67  1  0  0  0  0
 38 75  2  0  0  0  0
 39 42  1  0  0  0  0
 40 49  1  0  0  0  0
 41 63  1  0  0  0  0
 42 44  1  0  0  0  0
 43 45  1  0  0  0  0
 43 46  1  0  0  0  0
 44 48  1  0  0  0  0
 45 50  1  0  0  0  0
 46 64  1  0  0  0  0
 47 50  1  0  0  0  0
 47 64  1  0  0  0  0
 48 68  1  0  0  0  0
 49 63  1  0  0  0  0
 50 62  1  0  0  0  0
 52 59  1  0  0  0  0
 53 60  1  0  0  0  0
 54 60  1  0  0  0  0
 55 60  1  0  0  0  0
 56 70  1  0  0  0  0
 57 77  1  0  0  0  0
 58 60  1  0  0  0  0
 58 69  1  0  0  0  0
 59 70  1  0  0  0  0
 61 62  1  0  0  0  0
M  CHG  1  70   1
M  ISO  4  38 100  57 101  67 100  77 101
M  END
> <Batch ID>
0004

> <Smiles>
CNC(C)C(=O)NC(C(=O)N1Cc2cc([101O:1][101CH2:1]c3ccc([100NH:0][100C:0](=O)N4CCCC(n5nc(-c6ccc(Oc7ccc(F)cc7F)cc6)c(C(N)=O)c5N)C4)c(C)c3)ccc2CC1C(=O)NC1CCCc2ccccc21)C(C)(C)C

> <Shape>
0.345

> <Color>
0.080

> <Negative vol penalty>
0.000

$$$$

  -OEChem-04052315243D

 86 94  0     1  0  0  0  0  0999 V2000
  -29.6481  -36.1290   18.6410 C   0  0  0  0  0  0  0  0  0  0  0  0
  -29.7411  -34.7410   18.6497 C   0  0  0  0  0  0  0  0  0  0  0  0
  -24.3034   -9.6932   20.7597 C   0  0  0  0  0  0  0  0  0  0  0  0
  -24.8206  -10.4213   23.0046 C   0  0  0  0  0  0  0  0  0  0  0  0
  -28.8910  -36.7819   19.6127 C   0  0  0  0  0  0  0  0  0  0  0  0
  -29.0778  -34.0050   19.6309 C   0  0  0  0  0  0  0  0  0  0  0  0
  -26.5071  -28.4843   18.9842 C   0  0  0  0  0  0  0  0  0  0  0  0
  -30.4714  -20.6751   22.6204 C   0  0  0  0  0  0  0  0  0  0  0  0
  -30.2760  -19.4809   21.9267 C   0  0  0  0  0  0  0  0  0  0  0  0
  -23.9688   -8.4296   21.2465 C   0  0  0  0  0  0  0  0  0  0  0  0
  -24.4859   -9.1577   23.4915 C   0  0  0  0  0  0  0  0  0  0  0  0
  -26.9510  -27.2003   19.2976 C   0  0  0  0  0  0  0  0  0  0  0  0
  -21.3441   -6.9754   22.8050 C   0  0  0  0  0  0  0  0  0  0  0  0
  -20.1736   -6.3858   22.3276 C   0  0  0  0  0  0  0  0  0  0  0  0
  -25.7620  -27.3075   21.3938 C   0  0  0  0  0  0  0  0  0  0  0  0
  -28.0915  -20.8438   23.0006 C   0  0  0  0  0  0  0  0  0  0  0  0
  -21.4595   -4.5310   21.4656 C   0  0  0  0  0  0  0  0  0  0  0  0
  -24.7294  -10.6890   21.6387 C   0  0  0  0  0  0  0  0  0  0  0  0
  -24.2175  -13.0987   20.9760 C   0  0  0  0  0  0  0  0  0  0  0  0
  -28.2102  -36.0531   20.6006 C   0  0  0  0  0  0  0  0  0  0  0  0
  -25.6949  -29.1949   19.8796 C   0  0  0  0  0  0  0  0  0  0  0  0
  -28.3119  -34.6489   20.6176 C   0  0  0  0  0  0  0  0  0  0  0  0
  -25.3070  -28.5993   21.0883 C   0  0  0  0  0  0  0  0  0  0  0  0
  -29.3791  -21.3566   23.1574 C   0  0  0  0  0  0  0  0  0  0  0  0
  -28.9883  -18.9681   21.7699 C   0  0  0  0  0  0  0  0  0  0  0  0
  -24.0600   -8.1619   22.6124 C   0  0  0  0  0  0  0  0  0  0  0  0
  -26.5809  -26.6129   20.5038 C   0  0  0  0  0  0  0  0  0  0  0  0
  -22.5723   -6.3428   22.6126 C   0  0  0  0  0  0  0  0  0  0  0  0
  -27.8960  -19.6496   22.3068 C   0  0  0  0  0  0  0  0  0  0  0  0
  -20.2313   -5.1636   21.6579 C   0  0  0  0  0  0  0  0  0  0  0  0
  -22.6300   -5.1206   21.9430 C   0  0  0  0  0  0  0  0  0  0  0  0
  -25.0757  -11.9943   21.1363 C   0  0  0  0  0  0  0  0  0  0  0  0
  -25.0234  -14.0891   20.4700 C   0  0  0  0  0  0  0  0  0  0  0  0
  -22.8171  -13.2186   21.2592 C   0  0  0  0  0  0  0  0  0  0  0  0
  -25.9854  -31.9161   21.4965 C   0  0  0  0  0  0  0  0  0  0  0  0
  -22.9011  -31.3140   22.3008 C   0  0  0  0  0  0  0  0  0  0  0  0
  -30.8092  -22.8093   24.5912 C   0  0  0  0  0  0  0  0  0  0  0  0
  -20.4084  -29.0190   22.7086 C   0  0  0  0  0  0  0  0  0  0  0  0
  -29.7915  -16.9646   20.4711 C   0  0  0  0  0  0  0  0  0  0  0  0
  -27.4425  -36.8057   21.6584 C   0  0  0  0  0  0  0  0  0  0  0  0
  -25.2024  -30.5685   19.5148 C   0  0  0  0  0  0  0  0  0  0  0  0
  -24.4199  -29.3121   22.0748 C   0  0  0  0  0  0  0  0  0  0  0  0
  -26.4654  -35.9312   22.4400 C   0  0  0  0  0  0  0  0  0  0  0  0
  -29.7513  -13.8919   18.6728 C   0  0  0  0  0  0  0  0  0  0  0  0
  -27.1380  -34.6310   22.8687 C   0  0  0  0  0  0  0  0  0  0  0  0
  -28.4607  -13.2151   19.1402 C   0  0  0  0  0  0  0  0  0  0  0  0
  -30.4325  -14.6578   19.8055 C   0  0  0  0  0  0  0  0  0  0  0  0
  -28.2835  -14.9431   20.9759 C   0  0  0  0  0  0  0  0  0  0  0  0
  -27.5867  -33.8143   21.6509 C   0  0  1  0  0  0  0  0  0  0  0  0
  -24.8011  -31.4012   20.7285 C   0  0  1  0  0  0  0  0  0  0  0  0
  -27.5276  -14.2130   19.8537 C   0  0  2  0  0  0  0  0  0  0  0  0
  -31.3443  -24.2228   24.5672 C   0  0  0  0  0  0  0  0  0  0  0  0
  -18.0077  -28.8223   23.4123 C   0  0  0  0  0  0  0  0  0  0  0  0
  -23.7347  -31.6157   25.2204 C   0  0  0  0  0  0  0  0  0  0  0  0
  -21.5925  -30.4973   25.8750 C   0  0  0  0  0  0  0  0  0  0  0  0
  -21.5397  -32.6686   24.6481 C   0  0  0  0  0  0  0  0  0  0  0  0
  -19.5979  -27.9705   20.0624 C   0  0  0  0  0  0  0  0  0  0  0  0
  -26.1537  -18.2858   23.1788 C   0  0  0  0  0  0  0  0  0  0  0  0
  -28.2869  -24.0035   22.3279 C   0  0  0  0  0  0  0  0  0  0  0  0
  -28.5706  -23.6230   23.7747 C   0  0  0  0  0  0  0  0  0  0  0  0
  -27.1947  -25.0579   22.1953 C   0  0  0  0  0  0  0  0  0  1  0  0
  -22.2140  -30.5656   23.4174 C   0  0  1  0  0  0  0  0  0  0  0  0
  -18.9633  -29.0082   22.2439 C   0  0  2  0  0  0  0  0  0  0  0  0
  -22.2886  -31.3238   24.7727 C   0  0  0  0  0  0  0  0  0  0  0  0
  -26.3306  -12.2578   20.7623 N   0  0  0  0  0  0  0  0  0  0  0  0
  -26.2668  -13.5391   20.3619 N   0  0  0  0  0  0  0  0  0  0  0  0
  -23.9695  -30.6556   21.6755 N   0  0  0  0  0  0  0  0  0  0  0  0
  -29.4894  -15.5870   20.4317 N   0  0  0  0  0  0  0  0  0  0  0  0
  -24.7827  -15.3681   20.1114 N   0  0  0  0  0  0  0  0  0  0  0  0
  -22.1421  -12.1041   21.7754 N   0  0  0  0  0  0  0  0  0  0  0  0
  -28.8058  -17.7545   21.0618 N   0  0  0  0  0  0  0  0  0  0  0  0
  -26.4564  -33.1369   21.0524 N   0  0  0  0  0  0  0  0  0  0  0  0
  -20.8560  -30.2997   22.9553 N   0  0  0  0  0  0  0  0  0  0  0  0
  -29.5846  -22.6111   23.8852 N   0  0  0  0  0  0  0  0  0  0  0  0
  -18.7397  -27.9000   21.2730 N   0  3  0  0  0  0  0  0  0  0  0  0
  -22.1797  -14.2775   21.0450 O   0  0  0  0  0  0  0  0  0  0  0  0
  -26.4375  -31.2554   22.4243 O   0  0  0  0  0  0  0  0  0  0  0  0
  -22.5000  -32.4383   21.9900 O   0  0  0  0  0  0  0  0  0  0  0  0
  -31.4757  -21.9504   25.1742 O   0  0  0  0  0  0  0  0  0  0  0  0
  -21.0726  -27.9937   22.8431 O   0  0  0  0  0  0  0  0  0  0  0  0
  -30.8348  -17.4141   19.9899 O   0  0  0  0  0  0  0  0  0  0  0  0
  -23.7334   -6.9291   23.0879 O   0  0  0  0  0  0  0  0  0  0  0  0
  -26.6293  -19.1668   22.1636 O   0  0  0  0  0  0  0  0  0  0  0  0
  -27.0133  -25.3600   20.8125 O   0  0  0  0  0  0  0  0  0  1  0  0
  -19.1070   -4.5968   21.2009 F   0  0  0  0  0  0  0  0  0  0  0  0
  -23.8069   -4.5075   21.7562 F   0  0  0  0  0  0  0  0  0  0  0  0
  1  2  1  0  0  0  0
  1  5  2  0  0  0  0
  2  6  2  0  0  0  0
  3 10  2  0  0  0  0
  3 18  1  0  0  0  0
  4 11  1  0  0  0  0
  4 18  2  0  0  0  0
  5 20  1  0  0  0  0
  6 22  1  0  0  0  0
  7 12  2  0  0  0  0
  7 21  1  0  0  0  0
  8  9  2  0  0  0  0
  8 24  1  0  0  0  0
  9 25  1  0  0  0  0
 10 26  1  0  0  0  0
 11 26  2  0  0  0  0
 12 27  1  0  0  0  0
 13 14  2  0  0  0  0
 13 28  1  0  0  0  0
 14 30  1  0  0  0  0
 15 23  1  0  0  0  0
 15 27  2  0  0  0  0
 16 24  2  0  0  0  0
 16 29  1  0  0  0  0
 17 30  2  0  0  0  0
 17 31  1  0  0  0  0
 18 32  1  0  0  0  0
 19 32  1  0  0  0  0
 19 33  2  0  0  0  0
 19 34  1  0  0  0  0
 20 22  2  0  0  0  0
 20 40  1  0  0  0  0
 21 23  2  0  0  0  0
 21 41  1  0  0  0  0
 22 49  1  0  0  0  0
 23 42  1  0  0  0  0
 24 74  1  0  0  0  0
 25 29  2  0  0  0  0
 25 71  1  0  0  0  0
 26 82  1  0  0  0  0
 27 84  1  0  0  0  0
 28 31  2  0  0  0  0
 28 82  1  0  0  0  0
 29 83  1  0  0  0  0
 30 85  1  0  0  0  0
 31 86  1  0  0  0  0
 32 65  2  0  0  0  0
 33 66  1  0  0  0  0
 33 69  1  0  0  0  0
 34 70  1  0  0  0  0
 34 76  2  0  0  0  0
 35 50  1  0  0  0  0
 35 72  1  0  0  0  0
 35 77  2  0  0  0  0
 36 62  1  0  0  0  0
 36 67  1  0  0  0  0
 36 78  2  0  0  0  0
 37 52  1  0  0  0  0
 37 74  1  0  0  0  0
 37 79  2  0  0  0  0
 38 63  1  0  0  0  0
 38 73  1  0  0  0  0
 38 80  2  0  0  0  0
 39 68  1  0  0  0  0
 39 71  1  0  0  0  0
 39 81  2  0  0  0  0
 40 43  1  0  0  0  0
 41 50  1  0  0  0  0
 42 67  1  0  0  0  0
 43 45  1  0  0  0  0
 44 46  1  0  0  0  0
 44 47  1  0  0  0  0
 45 49  1  0  0  0  0
 46 51  1  0  0  0  0
 47 68  1  0  0  0  0
 48 51  1  0  0  0  0
 48 68  1  0  0  0  0
 49 72  1  0  0  0  0
 50 67  1  0  0  0  0
 51 66  1  0  0  0  0
 53 63  1  0  0  0  0
 54 64  1  0  0  0  0
 55 64  1  0  0  0  0
 56 64  1  0  0  0  0
 57 75  1  0  0  0  0
 58 83  1  0  0  0  0
 59 60  1  0  0  0  0
 59 61  1  0  0  0  0
 60 74  1  0  0  0  0
 61 84  1  0  0  0  0
 62 64  1  0  0  0  0
 62 73  1  0  0  0  0
 63 75  1  0  0  0  0
 65 66  1  0  0  0  0
M  CHG  1  75   1
M  ISO  4  39 100  61 101  71 100  84 101
M  END
> <Batch ID>
0004

> <Smiles>
CNC(C)C(=O)NC(C(=O)N1Cc2cc([101O:1][101CH2:1]CCN(C(C)=O)c3ccc([100NH:0][100C:0](=O)N4CCCC(n5nc(-c6ccc(Oc7ccc(F)cc7F)cc6)c(C(N)=O)c5N)C4)c(OC)c3)ccc2CC1C(=O)NC1CCCc2ccccc21)C(C)(C)C

> <Shape>
0.278

> <Color>
0.142

> <Negative vol penalty>
0.000

$$$$

  -OEChem-04052315243D

 94103  0     1  0  0  0  0  0999 V2000
  -27.1424  -32.2928   31.7892 C   0  0  0  0  0  0  0  0  0  0  0  0
  -26.8822  -30.9844   31.3944 C   0  0  0  0  0  0  0  0  0  0  0  0
  -31.3606  -18.9954   20.4091 C   0  0  0  0  0  0  0  0  0  0  0  0
  -23.0161   -9.8634   20.0077 C   0  0  0  0  0  0  0  0  0  0  0  0
  -23.6912   -9.9998   22.3235 C   0  0  0  0  0  0  0  0  0  0  0  0
  -26.3401  -33.3332   31.3226 C   0  0  0  0  0  0  0  0  0  0  0  0
  -25.8187  -30.7156   30.5335 C   0  0  0  0  0  0  0  0  0  0  0  0
  -25.5950  -26.3994   26.1947 C   0  0  0  0  0  0  0  0  0  0  0  0
  -30.6167  -19.8589   21.2131 C   0  0  0  0  0  0  0  0  0  0  0  0
  -31.1606  -17.6175   20.4940 C   0  0  0  0  0  0  0  0  0  0  0  0
  -22.2497   -8.7347   20.2976 C   0  0  0  0  0  0  0  0  0  0  0  0
  -22.9247   -8.8710   22.6134 C   0  0  0  0  0  0  0  0  0  0  0  0
  -25.0370  -25.1220   26.1702 C   0  0  0  0  0  0  0  0  0  0  0  0
  -23.1958   -5.5190   22.2652 C   0  0  0  0  0  0  0  0  0  0  0  0
  -23.7721   -4.5323   23.0651 C   0  0  0  0  0  0  0  0  0  0  0  0
  -23.0531  -26.0151   25.1283 C   0  0  0  0  0  0  0  0  0  0  0  0
  -22.0113   -4.8242   24.6935 C   0  0  0  0  0  0  0  0  0  0  0  0
  -23.7369  -10.4960   21.0207 C   0  0  0  0  0  0  0  0  0  0  0  0
  -24.1134  -13.0060   20.7641 C   0  0  0  0  0  0  0  0  0  0  0  0
  -25.4189  -20.9564   22.2584 C   0  0  0  0  0  0  0  0  0  0  0  0
  -25.2721  -33.0781   30.4480 C   0  0  0  0  0  0  0  0  0  0  0  0
  -24.8807  -27.4978   25.6952 C   0  0  0  0  0  0  0  0  0  0  0  0
  -25.0005  -31.7534   30.0559 C   0  0  0  0  0  0  0  0  0  0  0  0
  -23.6053  -27.3050   25.1452 C   0  0  0  0  0  0  0  0  0  0  0  0
  -29.6729  -19.3447   22.1021 C   0  0  0  0  0  0  0  0  0  0  0  0
  -29.4729  -17.9668   22.1871 C   0  0  0  0  0  0  0  0  0  0  0  0
  -30.2168  -17.1032   21.3830 C   0  0  0  0  0  0  0  0  0  0  0  0
  -22.2040   -8.2384   21.6004 C   0  0  0  0  0  0  0  0  0  0  0  0
  -23.7647  -24.9301   25.6397 C   0  0  0  0  0  0  0  0  0  0  0  0
  -22.0273   -6.1583   22.6793 C   0  0  0  0  0  0  0  0  0  0  0  0
  -23.1798   -4.1849   24.2793 C   0  0  0  0  0  0  0  0  0  0  0  0
  -21.4350   -5.8109   23.8935 C   0  0  0  0  0  0  0  0  0  0  0  0
  -24.5293  -11.6617   20.7218 C   0  0  0  0  0  0  0  0  0  0  0  0
  -25.9298  -20.2987   21.1234 C   0  0  0  0  0  0  0  0  0  0  0  0
  -26.4885  -21.0422   23.1159 C   0  0  0  0  0  0  0  0  0  0  0  0
  -25.2272  -13.7216   20.3982 C   0  0  0  0  0  0  0  0  0  0  0  0
  -22.8347  -13.5584   21.1038 C   0  0  0  0  0  0  0  0  0  0  0  0
  -24.0467  -21.4626   22.5189 C   0  0  0  0  0  0  0  0  0  0  0  0
  -23.7621  -30.2001   26.9403 C   0  0  0  0  0  0  0  0  0  0  0  0
  -23.0129  -30.8558   23.8531 C   0  0  0  0  0  0  0  0  0  0  0  0
  -22.3234  -29.6763   20.7258 C   0  0  0  0  0  0  0  0  0  0  0  0
  -30.6954  -14.7218   20.7151 C   0  0  0  0  0  0  0  0  0  0  0  0
  -24.4035  -34.2297   30.0077 C   0  0  0  0  0  0  0  0  0  0  0  0
  -25.5075  -28.8651   25.7044 C   0  0  0  0  0  0  0  0  0  0  0  0
  -22.8053  -28.4481   24.5778 C   0  0  0  0  0  0  0  0  0  0  0  0
  -23.5267  -33.9047   28.8011 C   0  0  0  0  0  0  0  0  0  0  0  0
  -29.6398  -12.1821   18.4540 C   0  0  0  0  0  0  0  0  0  0  0  0
  -22.8413  -32.5547   28.9873 C   0  0  0  0  0  0  0  0  0  0  0  0
  -28.1819  -11.9309   18.8459 C   0  0  0  0  0  0  0  0  0  0  0  0
  -30.5128  -12.4732   19.6734 C   0  0  0  0  0  0  0  0  0  0  0  0
  -28.5653  -13.2975   20.9369 C   0  0  0  0  0  0  0  0  0  0  0  0
  -23.8713  -31.4245   29.1036 C   0  0  1  0  0  0  0  0  0  0  0  0
  -24.4822  -29.9929   25.6380 C   0  0  1  0  0  0  0  0  0  0  0  0
  -27.6344  -13.0639   19.7358 C   0  0  2  0  0  0  0  0  0  0  0  0
  -28.4590  -17.4198   23.1423 C   0  0  0  0  0  0  0  0  0  0  0  0
  -26.6110  -21.6193   24.4690 C   0  0  0  0  0  0  0  0  0  0  0  0
  -21.7123  -30.4513   18.4185 C   0  0  0  0  0  0  0  0  0  0  0  0
  -24.6328  -21.2038   19.1626 C   0  0  0  0  0  0  0  0  0  0  0  0
  -24.0050  -18.9833   20.1685 C   0  0  0  0  0  0  0  0  0  0  0  0
  -26.0604  -19.2031   18.7871 C   0  0  0  0  0  0  0  0  0  0  0  0
  -20.1569  -31.3827   24.7891 C   0  0  0  0  0  0  0  0  0  0  0  0
  -19.4175  -31.2111   22.4033 C   0  0  0  0  0  0  0  0  0  0  0  0
  -21.0126  -33.0030   23.0871 C   0  0  0  0  0  0  0  0  0  0  0  0
  -24.7765  -28.5041   19.5566 C   0  0  0  0  0  0  0  0  0  0  0  0
  -28.8841  -20.2987   22.9577 C   0  0  0  0  0  0  0  0  0  0  0  0
  -22.3329  -21.9089   24.2566 C   0  0  0  0  0  0  0  0  0  0  0  0
  -22.3043  -23.3969   24.5569 C   0  0  0  0  0  0  0  0  0  1  0  0
  -21.8153  -30.6085   22.9679 C   0  0  1  0  0  0  0  0  0  0  0  0
  -22.8477  -30.0787   19.3592 C   0  0  2  0  0  0  0  0  0  0  0  0
  -25.2126  -19.9412   19.8869 C   0  0  0  0  0  0  0  0  0  0  0  0
  -20.6146  -31.5299   23.3242 C   0  0  0  0  0  0  0  0  0  0  0  0
  -25.8074  -11.5286   20.3575 N   0  0  0  0  0  0  0  0  0  0  0  0
  -27.2233  -19.9889   21.2455 N   0  0  0  0  0  0  0  0  0  0  0  0
  -27.5343  -20.4540   22.4674 N   0  0  0  0  0  0  0  0  0  0  0  0
  -26.2043  -12.7985   20.1676 N   0  0  0  0  0  0  0  0  0  0  0  0
  -23.4588  -29.7668   24.6154 N   0  0  0  0  0  0  0  0  0  0  0  0
  -29.9345  -13.5600   20.4666 N   0  0  0  0  0  0  0  0  0  0  0  0
  -25.4562  -15.0442   20.2543 N   0  0  0  0  0  0  0  0  0  0  0  0
  -21.8002  -12.6810   21.4563 N   0  0  0  0  0  0  0  0  0  0  0  0
  -30.0296  -15.7004   21.4524 N   0  0  0  0  0  0  0  0  0  0  0  0
  -23.6410  -21.4708   23.8476 N   0  0  0  0  0  0  0  0  0  0  0  0
  -24.3933  -31.0802   27.7985 N   0  0  0  0  0  0  0  0  0  0  0  0
  -22.2874  -30.7465   21.5944 N   0  0  0  0  0  0  0  0  0  0  0  0
  -23.6155  -28.9571   18.7481 N   0  3  0  0  0  0  0  0  0  0  0  0
  -22.6114  -14.7925   21.0793 O   0  0  0  0  0  0  0  0  0  0  0  0
  -23.3493  -21.8197   21.5730 O   0  0  0  0  0  0  0  0  0  0  0  0
  -22.7108  -29.6065   27.1505 O   0  0  0  0  0  0  0  0  0  0  0  0
  -23.5379  -31.9720   23.8623 O   0  0  0  0  0  0  0  0  0  0  0  0
  -21.9767  -28.5282   20.9946 O   0  0  0  0  0  0  0  0  0  0  0  0
  -31.8429  -14.8512   20.2809 O   0  0  0  0  0  0  0  0  0  0  0  0
  -21.4560   -7.1371   21.8836 O   0  0  0  0  0  0  0  0  0  0  0  0
  -23.2174  -23.6844   25.6152 O   0  0  0  0  0  0  0  0  0  1  0  0
  -23.7324   -3.2363   25.0467 F   0  0  0  0  0  0  0  0  0  0  0  0
  -20.3118   -6.4208   24.2961 F   0  0  0  0  0  0  0  0  0  0  0  0
  1  2  1  0  0  0  0
  1  6  2  0  0  0  0
  2  7  2  0  0  0  0
  3  9  2  0  0  0  0
  3 10  1  0  0  0  0
  4 11  2  0  0  0  0
  4 18  1  0  0  0  0
  5 12  1  0  0  0  0
  5 18  2  0  0  0  0
  6 21  1  0  0  0  0
  7 23  1  0  0  0  0
  8 13  2  0  0  0  0
  8 22  1  0  0  0  0
  9 25  1  0  0  0  0
 10 27  2  0  0  0  0
 11 28  1  0  0  0  0
 12 28  2  0  0  0  0
 13 29  1  0  0  0  0
 14 15  2  0  0  0  0
 14 30  1  0  0  0  0
 15 31  1  0  0  0  0
 16 24  1  0  0  0  0
 16 29  2  0  0  0  0
 17 31  2  0  0  0  0
 17 32  1  0  0  0  0
 18 33  1  0  0  0  0
 19 33  1  0  0  0  0
 19 36  2  0  0  0  0
 19 37  1  0  0  0  0
 20 34  1  0  0  0  0
 20 35  2  0  0  0  0
 20 38  1  0  0  0  0
 21 23  2  0  0  0  0
 21 43  1  0  0  0  0
 22 24  2  0  0  0  0
 22 44  1  0  0  0  0
 23 52  1  0  0  0  0
 24 45  1  0  0  0  0
 25 26  2  0  0  0  0
 25 65  1  0  0  0  0
 26 27  1  0  0  0  0
 26 55  1  0  0  0  0
 27 80  1  0  0  0  0
 28 91  1  0  0  0  0
 29 92  1  0  0  0  0
 30 32  2  0  0  0  0
 30 91  1  0  0  0  0
 31 93  1  0  0  0  0
 32 94  1  0  0  0  0
 33 72  2  0  0  0  0
 34 70  1  0  0  0  0
 34 73  2  0  0  0  0
 35 56  1  0  0  0  0
 35 74  1  0  0  0  0
 36 75  1  0  0  0  0
 36 78  1  0  0  0  0
 37 79  1  0  0  0  0
 37 85  2  0  0  0  0
 38 81  1  0  0  0  0
 38 86  2  0  0  0  0
 39 53  1  0  0  0  0
 39 82  1  0  0  0  0
 39 87  2  0  0  0  0
 40 68  1  0  0  0  0
 40 76  1  0  0  0  0
 40 88  2  0  0  0  0
 41 69  1  0  0  0  0
 41 83  1  0  0  0  0
 41 89  2  0  0  0  0
 42 77  1  0  0  0  0
 42 80  1  0  0  0  0
 42 90  2  0  0  0  0
 43 46  1  0  0  0  0
 44 53  1  0  0  0  0
 45 76  1  0  0  0  0
 46 48  1  0  0  0  0
 47 49  1  0  0  0  0
 47 50  1  0  0  0  0
 48 52  1  0  0  0  0
 49 54  1  0  0  0  0
 50 77  1  0  0  0  0
 51 54  1  0  0  0  0
 51 77  1  0  0  0  0
 52 82  1  0  0  0  0
 53 76  1  0  0  0  0
 54 75  1  0  0  0  0
 57 69  1  0  0  0  0
 58 70  1  0  0  0  0
 59 70  1  0  0  0  0
 60 70  1  0  0  0  0
 61 71  1  0  0  0  0
 62 71  1  0  0  0  0
 63 71  1  0  0  0  0
 64 84  1  0  0  0  0
 65 74  1  0  0  0  0
 66 67  1  0  0  0  0
 66 81  1  0  0  0  0
 67 92  1  0  0  0  0
 68 71  1  0  0  0  0
 68 83  1  0  0  0  0
 69 84  1  0  0  0  0
 72 75  1  0  0  0  0
 73 74  1  0  0  0  0
M  CHG  1  84   1
M  ISO  4  42 100  67 101  80 100  92 101
M  END
> <Batch ID>
0004

> <Smiles>
CNC(C)C(=O)NC(C(=O)N1Cc2cc([101O:1][101CH2:1]CNC(=O)c3c(C(C)(C)C)nn(Cc4cccc([100NH:0][100C:0](=O)N5CCCC(n6nc(-c7ccc(Oc8ccc(F)cc8F)cc7)c(C(N)=O)c6N)C5)c4C)c3C)ccc2CC1C(=O)NC1CCCc2ccccc21)C(C)(C)C

> <Shape>
0.247

> <Color>
0.209

> <Negative vol penalty>
0.000

$$$$

  -OEChem-04052315243D

 87 94  0     1  0  0  0  0  0999 V2000
  -18.4660  -32.6988   20.3886 C   0  0  0  0  0  0  0  0  0  0  0  0
  -19.7919  -32.4805   20.0286 C   0  0  0  0  0  0  0  0  0  0  0  0
  -27.2677  -11.3602   16.9311 C   0  0  0  0  0  0  0  0  0  0  0  0
  -29.6367  -11.7709   16.6947 C   0  0  0  0  0  0  0  0  0  0  0  0
  -17.9790  -32.1911   21.5924 C   0  0  0  0  0  0  0  0  0  0  0  0
  -20.6320  -31.7553   20.8728 C   0  0  0  0  0  0  0  0  0  0  0  0
  -25.1520  -27.9737   19.2068 C   0  0  0  0  0  0  0  0  0  0  0  0
  -27.2567  -10.7125   15.6958 C   0  0  0  0  0  0  0  0  0  0  0  0
  -29.6258  -11.1232   15.4594 C   0  0  0  0  0  0  0  0  0  0  0  0
  -26.5326  -28.1453   19.1150 C   0  0  0  0  0  0  0  0  0  0  0  0
  -28.1159   -7.6832   14.4638 C   0  0  0  0  0  0  0  0  0  0  0  0
  -27.4274   -6.4736   14.3722 C   0  0  0  0  0  0  0  0  0  0  0  0
  -26.7913  -27.1916   21.3156 C   0  0  0  0  0  0  0  0  0  0  0  0
  -25.9879   -7.4211   12.6789 C   0  0  0  0  0  0  0  0  0  0  0  0
  -28.4577  -11.8895   17.4305 C   0  0  0  0  0  0  0  0  0  0  0  0
  -28.6963  -11.9791   19.9688 C   0  0  0  0  0  0  0  0  0  0  0  0
  -18.8110  -31.4510   22.4472 C   0  0  0  0  0  0  0  0  0  0  0  0
  -24.5788  -27.4190   20.3601 C   0  0  0  0  0  0  0  0  0  0  0  0
  -20.1561  -31.2383   22.0897 C   0  0  0  0  0  0  0  0  0  0  0  0
  -25.4034  -27.0118   21.4185 C   0  0  0  0  0  0  0  0  0  0  0  0
  -28.4357  -10.5940   14.9600 C   0  0  0  0  0  0  0  0  0  0  0  0
  -27.3522  -27.7568   20.1707 C   0  0  0  0  0  0  0  0  0  0  0  0
  -27.7404   -8.7618   13.6631 C   0  0  0  0  0  0  0  0  0  0  0  0
  -26.3634   -6.3425   13.4798 C   0  0  0  0  0  0  0  0  0  0  0  0
  -26.6764   -8.6308   12.7706 C   0  0  0  0  0  0  0  0  0  0  0  0
  -28.4696  -12.5591   18.7063 C   0  0  0  0  0  0  0  0  0  0  0  0
  -28.6033  -13.0282   20.8504 C   0  0  0  0  0  0  0  0  0  0  0  0
  -28.9670  -10.6140   20.3138 C   0  0  0  0  0  0  0  0  0  0  0  0
  -22.5276  -28.4443   22.5611 C   0  0  0  0  0  0  0  0  0  0  0  0
  -22.7287  -25.3827   23.6140 C   0  0  0  0  0  0  0  0  0  0  0  0
  -30.5416  -27.2711   17.6548 C   0  0  0  0  0  0  0  0  0  0  0  0
  -30.4523  -21.8076   19.4997 C   0  0  0  0  0  0  0  0  0  0  0  0
  -24.5245  -22.4848   23.7706 C   0  0  0  0  0  0  0  0  0  0  0  0
  -29.5098  -18.8232   20.1779 C   0  0  0  0  0  0  0  0  0  0  0  0
  -18.2523  -30.9626   23.7602 C   0  0  0  0  0  0  0  0  0  0  0  0
  -23.0902  -27.2160   20.4326 C   0  0  0  0  0  0  0  0  0  0  0  0
  -24.8394  -26.3924   22.6702 C   0  0  0  0  0  0  0  0  0  0  0  0
  -19.1068  -29.8849   24.4225 C   0  0  0  0  0  0  0  0  0  0  0  0
  -26.4739  -17.2790   21.4012 C   0  0  0  0  0  0  0  0  0  0  0  0
  -20.5788  -30.2846   24.4044 C   0  0  0  0  0  0  0  0  0  0  0  0
  -26.6725  -15.8273   20.9616 C   0  0  0  0  0  0  0  0  0  0  0  0
  -27.0129  -18.2517   20.3565 C   0  0  0  0  0  0  0  0  0  0  0  0
  -28.6431  -16.5865   19.5543 C   0  0  0  0  0  0  0  0  0  0  0  0
  -21.0918  -30.4354   22.9672 C   0  0  1  0  0  0  0  0  0  0  0  0
  -22.5700  -27.1144   21.8631 C   0  0  1  0  0  0  0  0  0  0  0  0
  -28.1390  -15.5536   20.5785 C   0  0  2  0  0  0  0  0  0  0  0  0
  -30.4002  -26.6288   16.2976 C   0  0  0  0  0  0  0  0  0  0  0  0
  -25.0280  -20.0830   24.2949 C   0  0  0  0  0  0  0  0  0  0  0  0
  -28.6472  -22.9379   21.6867 C   0  0  0  0  0  0  0  0  0  0  0  0
  -29.7437  -21.3736   23.3109 C   0  0  0  0  0  0  0  0  0  0  0  0
  -23.4223  -26.5062   26.3647 C   0  0  0  0  0  0  0  0  0  0  0  0
  -24.2475  -24.2319   27.0086 C   0  0  0  0  0  0  0  0  0  0  0  0
  -21.8513  -24.5607   26.3984 C   0  0  0  0  0  0  0  0  0  0  0  0
  -23.3685  -21.5621   21.2071 C   0  0  0  0  0  0  0  0  0  0  0  0
  -32.1572  -24.4071   18.3126 C   0  0  0  0  0  0  0  0  0  0  0  0
  -32.2295  -22.8909   18.1438 C   0  0  0  0  0  0  0  0  0  0  0  0
  -30.7446  -24.9335   18.5570 C   0  0  0  0  0  0  0  0  0  0  0  0
  -30.8568  -26.8614   20.0899 C   0  0  0  0  0  0  0  0  0  0  0  0
  -29.5167  -26.9917   20.7915 C   0  0  0  0  0  0  0  0  0  1  0  0
  -23.6139  -24.6430   24.5878 C   0  0  1  0  0  0  0  0  0  0  0  0
  -30.2293  -21.1046   20.8371 C   0  0  1  0  0  0  0  0  0  0  0  0
  -24.1278  -21.0397   23.5286 C   0  0  2  0  0  0  0  0  0  0  0  0
  -29.8975  -22.0986   21.9702 C   0  0  0  0  0  0  0  0  0  0  0  0
  -23.2945  -24.9989   26.0672 C   0  0  0  0  0  0  0  0  0  0  0  0
  -28.2489  -13.8746   18.7754 N   0  0  0  0  0  0  0  0  0  0  0  0
  -28.3365  -14.1299   20.0919 N   0  0  0  0  0  0  0  0  0  0  0  0
  -23.3774  -26.2206   22.6959 N   0  0  0  0  0  0  0  0  0  0  0  0
  -28.4180  -17.9484   20.0503 N   0  0  0  0  0  0  0  0  0  0  0  0
  -28.7243  -13.1066   22.1926 N   0  0  0  0  0  0  0  0  0  0  0  0
  -29.0282   -9.6643   19.2849 N   0  0  0  0  0  0  0  0  0  0  0  0
  -21.3450  -29.1362   22.3820 N   0  0  0  0  0  0  0  0  0  0  0  0
  -31.7785  -22.1836   19.3109 N   0  0  0  0  0  0  0  0  0  0  0  0
  -23.4746  -23.2258   24.2707 N   0  0  0  0  0  0  0  0  0  0  0  0
  -29.2104  -20.0962   20.6476 N   0  0  0  0  0  0  0  0  0  0  0  0
  -30.7096  -26.3886   18.7389 N   0  0  0  0  0  0  0  0  0  0  0  0
  -24.2216  -20.7128   22.0776 N   0  3  0  0  0  0  0  0  0  0  0  0
  -29.1329  -10.2445   21.5010 O   0  0  0  0  0  0  0  0  0  0  0  0
  -23.4955  -28.8145   23.2152 O   0  0  0  0  0  0  0  0  0  0  0  0
  -21.5072  -25.2174   23.6614 O   0  0  0  0  0  0  0  0  0  0  0  0
  -30.5042  -28.5011   17.7454 O   0  0  0  0  0  0  0  0  0  0  0  0
  -29.5436  -22.0361   18.7038 O   0  0  0  0  0  0  0  0  0  0  0  0
  -25.6539  -22.9127   23.5426 O   0  0  0  0  0  0  0  0  0  0  0  0
  -30.6673  -18.4924   19.8991 O   0  0  0  0  0  0  0  0  0  0  0  0
  -28.4254   -9.9618   13.7546 O   0  0  0  0  0  0  0  0  0  0  0  0
  -28.7000  -27.9237   20.0839 O   0  0  0  0  0  0  0  0  0  1  0  0
  -25.7033   -5.1804   13.3908 F   0  0  0  0  0  0  0  0  0  0  0  0
  -26.3118   -9.6631   11.9979 F   0  0  0  0  0  0  0  0  0  0  0  0
  1  2  1  0  0  0  0
  1  5  2  0  0  0  0
  2  6  2  0  0  0  0
  3  8  2  0  0  0  0
  3 15  1  0  0  0  0
  4  9  1  0  0  0  0
  4 15  2  0  0  0  0
  5 17  1  0  0  0  0
  6 19  1  0  0  0  0
  7 10  2  0  0  0  0
  7 18  1  0  0  0  0
  8 21  1  0  0  0  0
  9 21  2  0  0  0  0
 10 22  1  0  0  0  0
 11 12  2  0  0  0  0
 11 23  1  0  0  0  0
 12 24  1  0  0  0  0
 13 20  1  0  0  0  0
 13 22  2  0  0  0  0
 14 24  2  0  0  0  0
 14 25  1  0  0  0  0
 15 26  1  0  0  0  0
 16 26  1  0  0  0  0
 16 27  2  0  0  0  0
 16 28  1  0  0  0  0
 17 19  2  0  0  0  0
 17 35  1  0  0  0  0
 18 20  2  0  0  0  0
 18 36  1  0  0  0  0
 19 44  1  0  0  0  0
 20 37  1  0  0  0  0
 21 84  1  0  0  0  0
 22 85  1  0  0  0  0
 23 25  2  0  0  0  0
 23 84  1  0  0  0  0
 24 86  1  0  0  0  0
 25 87  1  0  0  0  0
 26 65  2  0  0  0  0
 27 66  1  0  0  0  0
 27 69  1  0  0  0  0
 28 70  1  0  0  0  0
 28 77  2  0  0  0  0
 29 45  1  0  0  0  0
 29 71  1  0  0  0  0
 29 78  2  0  0  0  0
 30 60  1  0  0  0  0
 30 67  1  0  0  0  0
 30 79  2  0  0  0  0
 31 47  1  0  0  0  0
 31 75  1  0  0  0  0
 31 80  2  0  0  0  0
 32 61  1  0  0  0  0
 32 72  1  0  0  0  0
 32 81  2  0  0  0  0
 33 62  1  0  0  0  0
 33 73  1  0  0  0  0
 33 82  2  0  0  0  0
 34 68  1  0  0  0  0
 34 74  1  0  0  0  0
 34 83  2  0  0  0  0
 35 38  1  0  0  0  0
 36 45  1  0  0  0  0
 37 67  1  0  0  0  0
 38 40  1  0  0  0  0
 39 41  1  0  0  0  0
 39 42  1  0  0  0  0
 40 44  1  0  0  0  0
 41 46  1  0  0  0  0
 42 68  1  0  0  0  0
 43 46  1  0  0  0  0
 43 68  1  0  0  0  0
 44 71  1  0  0  0  0
 45 67  1  0  0  0  0
 46 66  1  0  0  0  0
 48 62  1  0  0  0  0
 49 63  1  0  0  0  0
 50 63  1  0  0  0  0
 51 64  1  0  0  0  0
 52 64  1  0  0  0  0
 53 64  1  0  0  0  0
 54 76  1  0  0  0  0
 55 56  1  0  0  0  0
 55 57  1  0  0  0  0
 56 72  1  0  0  0  0
 57 75  1  0  0  0  0
 58 59  1  0  0  0  0
 58 75  1  0  0  0  0
 59 85  1  0  0  0  0
 60 64  1  0  0  0  0
 60 73  1  0  0  0  0
 61 63  1  0  0  0  0
 61 74  1  0  0  0  0
 62 76  1  0  0  0  0
 65 66  1  0  0  0  0
M  CHG  1  76   1
M  ISO  4  34 100  59 101  74 100  85 101
M  END
> <Batch ID>
0004

> <Smiles>
CNC(C)C(=O)NC(C(=O)N1Cc2cc([101O:1][101CH2:1]CN(CCCNC(=O)C([100NH:0][100C:0](=O)N3CCCC(n4nc(-c5ccc(Oc6ccc(F)cc6F)cc5)c(C(N)=O)c4N)C3)C(C)C)C(C)=O)ccc2CC1C(=O)NC1CCCc2ccccc21)C(C)(C)C

> <Shape>
0.201

> <Color>
0.080

> <Negative vol penalty>
0.000

$$$$

  -OEChem-04052315243D

 87 95  0     1  0  0  0  0  0999 V2000
  -38.8155  -25.6521   15.3796 C   0  0  0  0  0  0  0  0  0  0  0  0
  -37.9438  -25.0622   16.2893 C   0  0  0  0  0  0  0  0  0  0  0  0
  -23.0822   -9.8514   20.0083 C   0  0  0  0  0  0  0  0  0  0  0  0
  -23.9123   -9.9186   22.2762 C   0  0  0  0  0  0  0  0  0  0  0  0
  -39.0978  -27.0145   15.4694 C   0  0  0  0  0  0  0  0  0  0  0  0
  -37.3549  -25.8342   17.2901 C   0  0  0  0  0  0  0  0  0  0  0  0
  -32.4096  -24.8818   17.8214 C   0  0  0  0  0  0  0  0  0  0  0  0
  -30.1659  -18.8736   17.9543 C   0  0  0  0  0  0  0  0  0  0  0  0
  -22.3549   -8.6998   20.3086 C   0  0  0  0  0  0  0  0  0  0  0  0
  -23.1849   -8.7669   22.5765 C   0  0  0  0  0  0  0  0  0  0  0  0
  -32.0548  -23.7254   18.5146 C   0  0  0  0  0  0  0  0  0  0  0  0
  -29.8227  -20.0719   18.5804 C   0  0  0  0  0  0  0  0  0  0  0  0
  -19.9828   -7.9626   23.2976 C   0  0  0  0  0  0  0  0  0  0  0  0
  -19.2626   -7.9459   24.4920 C   0  0  0  0  0  0  0  0  0  0  0  0
  -31.6355  -25.0453   20.4898 C   0  0  0  0  0  0  0  0  0  0  0  0
  -29.0607  -18.8425   20.5156 C   0  0  0  0  0  0  0  0  0  0  0  0
  -20.5402   -6.0349   25.2356 C   0  0  0  0  0  0  0  0  0  0  0  0
  -23.8610  -10.4608   20.9921 C   0  0  0  0  0  0  0  0  0  0  0  0
  -24.1805  -12.9846   20.8014 C   0  0  0  0  0  0  0  0  0  0  0  0
  -38.5046  -27.8055   16.4659 C   0  0  0  0  0  0  0  0  0  0  0  0
  -32.3905  -26.1294   18.4614 C   0  0  0  0  0  0  0  0  0  0  0  0
  -37.6307  -27.2081   17.3942 C   0  0  0  0  0  0  0  0  0  0  0  0
  -31.9881  -26.2164   19.8018 C   0  0  0  0  0  0  0  0  0  0  0  0
  -29.9564  -17.6598   18.6088 C   0  0  0  0  0  0  0  0  0  0  0  0
  -29.4039  -17.6442   19.8895 C   0  0  0  0  0  0  0  0  0  0  0  0
  -22.4062   -8.1575   21.5927 C   0  0  0  0  0  0  0  0  0  0  0  0
  -31.6704  -23.8067   19.8498 C   0  0  0  0  0  0  0  0  0  0  0  0
  -29.2701  -20.0564   19.8610 C   0  0  0  0  0  0  0  0  0  0  0  0
  -20.9817   -7.0154   23.0721 C   0  0  0  0  0  0  0  0  0  0  0  0
  -19.5413   -6.9821   25.4610 C   0  0  0  0  0  0  0  0  0  0  0  0
  -21.2604   -6.0516   24.0411 C   0  0  0  0  0  0  0  0  0  0  0  0
  -24.6131  -11.6502   20.6823 C   0  0  0  0  0  0  0  0  0  0  0  0
  -25.2554  -13.7323   20.3867 C   0  0  0  0  0  0  0  0  0  0  0  0
  -22.9198  -13.5019   21.2470 C   0  0  0  0  0  0  0  0  0  0  0  0
  -34.5752  -28.3366   19.1389 C   0  0  0  0  0  0  0  0  0  0  0  0
  -31.9932  -30.0262   20.1393 C   0  0  0  0  0  0  0  0  0  0  0  0
  -28.7786  -29.9976   21.2848 C   0  0  0  0  0  0  0  0  0  0  0  0
  -30.8724  -14.4965   20.8136 C   0  0  0  0  0  0  0  0  0  0  0  0
  -38.8771  -29.2644   16.5522 C   0  0  0  0  0  0  0  0  0  0  0  0
  -32.7504  -27.3708   17.6921 C   0  0  0  0  0  0  0  0  0  0  0  0
  -31.9313  -27.5342   20.5288 C   0  0  0  0  0  0  0  0  0  0  0  0
  -37.9208  -30.0874   17.4116 C   0  0  0  0  0  0  0  0  0  0  0  0
  -29.5413  -12.3759   18.0873 C   0  0  0  0  0  0  0  0  0  0  0  0
  -37.6322  -29.3695   18.7262 C   0  0  0  0  0  0  0  0  0  0  0  0
  -28.1291  -12.0552   18.5741 C   0  0  0  0  0  0  0  0  0  0  0  0
  -30.4987  -12.6248   19.2488 C   0  0  0  0  0  0  0  0  0  0  0  0
  -28.6219  -13.3514   20.6854 C   0  0  0  0  0  0  0  0  0  0  0  0
  -36.9528  -28.0172   18.4786 C   0  0  1  0  0  0  0  0  0  0  0  0
  -33.1893  -28.5238   18.5896 C   0  0  1  0  0  0  0  0  0  0  0  0
  -27.6215  -13.1410   19.5388 C   0  0  2  0  0  0  0  0  0  0  0  0
  -26.9470  -31.5319   22.0520 C   0  0  0  0  0  0  0  0  0  0  0  0
  -28.5232  -21.6111   22.7917 C   0  0  0  0  0  0  0  0  0  0  0  0
  -33.4307  -30.4059   22.8038 C   0  0  0  0  0  0  0  0  0  0  0  0
  -31.2404  -31.0840   23.8093 C   0  0  0  0  0  0  0  0  0  0  0  0
  -32.2358  -32.4362   21.9645 C   0  0  0  0  0  0  0  0  0  0  0  0
  -31.3068  -16.7203   21.7862 C   0  0  0  0  0  0  0  0  0  0  0  0
  -26.9714  -29.1149   19.1137 C   0  0  0  0  0  0  0  0  0  0  0  0
  -29.1694  -16.3568   20.6092 C   0  0  0  0  0  0  0  0  0  0  0  0
  -30.3652  -22.8208   21.5762 C   0  0  0  0  0  0  0  0  0  1  0  0
  -31.2484  -30.1675   21.4448 C   0  0  1  0  0  0  0  0  0  0  0  0
  -27.5542  -30.7931   20.8696 C   0  0  2  0  0  0  0  0  0  0  0  0
  -29.5872  -21.5176   21.7104 C   0  0  2  0  0  0  0  0  0  0  0  0
  -30.3318  -16.3900   17.9183 C   0  0  0  0  0  0  0  0  0  0  0  0
  -32.0416  -30.9982   22.4927 C   0  0  0  0  0  0  0  0  0  0  0  0
  -25.8651  -11.5527   20.2275 N   0  0  0  0  0  0  0  0  0  0  0  0
  -26.2285  -12.8352   20.0570 N   0  0  0  0  0  0  0  0  0  0  0  0
  -32.2986  -28.7187   19.7354 N   0  0  0  0  0  0  0  0  0  0  0  0
  -29.9719  -13.6296   20.1730 N   0  0  0  0  0  0  0  0  0  0  0  0
  -25.4537  -15.0629   20.2755 N   0  0  0  0  0  0  0  0  0  0  0  0
  -21.9254  -12.5945   21.6370 N   0  0  0  0  0  0  0  0  0  0  0  0
  -35.5514  -28.2047   18.1698 N   0  0  0  0  0  0  0  0  0  0  0  0
  -29.9401  -30.7199   21.1106 N   0  0  0  0  0  0  0  0  0  0  0  0
  -30.4067  -15.7813   21.1319 N   0  0  0  0  0  0  0  0  0  0  0  0
  -26.5174  -29.8875   20.2986 N   0  3  0  0  0  0  0  0  0  0  0  0
  -22.6764  -14.7320   21.2823 O   0  0  0  0  0  0  0  0  0  0  0  0
  -34.7465  -28.3151   20.3521 O   0  0  0  0  0  0  0  0  0  0  0  0
  -32.2868  -31.0381   19.4979 O   0  0  0  0  0  0  0  0  0  0  0  0
  -28.7111  -28.8516   21.7237 O   0  0  0  0  0  0  0  0  0  0  0  0
  -32.0298  -14.1457   21.0769 O   0  0  0  0  0  0  0  0  0  0  0  0
  -21.6963   -7.0339   21.8861 O   0  0  0  0  0  0  0  0  0  0  0  0
  -31.3242  -22.6794   20.5290 O   0  0  0  0  0  0  0  0  0  1  0  0
  -28.9331  -21.2316   20.4751 O   0  0  0  0  0  0  0  0  0  0  0  0
  -18.8506   -6.9671   26.6086 F   0  0  0  0  0  0  0  0  0  0  0  0
  -22.2197   -5.1399   23.8307 F   0  0  0  0  0  0  0  0  0  0  0  0
  -30.8584  -16.5811   16.6733 F   0  0  0  0  0  0  0  0  0  0  0  0
  -31.2659  -15.6583   18.5933 F   0  0  0  0  0  0  0  0  0  0  0  0
  -29.2671  -15.5553   17.7430 F   0  0  0  0  0  0  0  0  0  0  0  0
  1  2  1  0  0  0  0
  1  5  2  0  0  0  0
  2  6  2  0  0  0  0
  3  9  2  0  0  0  0
  3 18  1  0  0  0  0
  4 10  1  0  0  0  0
  4 18  2  0  0  0  0
  5 20  1  0  0  0  0
  6 22  1  0  0  0  0
  7 11  2  0  0  0  0
  7 21  1  0  0  0  0
  8 12  2  0  0  0  0
  8 24  1  0  0  0  0
  9 26  1  0  0  0  0
 10 26  2  0  0  0  0
 11 27  1  0  0  0  0
 12 28  1  0  0  0  0
 13 14  2  0  0  0  0
 13 29  1  0  0  0  0
 14 30  1  0  0  0  0
 15 23  1  0  0  0  0
 15 27  2  0  0  0  0
 16 25  1  0  0  0  0
 16 28  2  0  0  0  0
 17 30  2  0  0  0  0
 17 31  1  0  0  0  0
 18 32  1  0  0  0  0
 19 32  1  0  0  0  0
 19 33  2  0  0  0  0
 19 34  1  0  0  0  0
 20 22  2  0  0  0  0
 20 39  1  0  0  0  0
 21 23  2  0  0  0  0
 21 40  1  0  0  0  0
 22 48  1  0  0  0  0
 23 41  1  0  0  0  0
 24 25  2  0  0  0  0
 24 63  1  0  0  0  0
 25 58  1  0  0  0  0
 26 80  1  0  0  0  0
 27 81  1  0  0  0  0
 28 82  1  0  0  0  0
 29 31  2  0  0  0  0
 29 80  1  0  0  0  0
 30 83  1  0  0  0  0
 31 84  1  0  0  0  0
 32 65  2  0  0  0  0
 33 66  1  0  0  0  0
 33 69  1  0  0  0  0
 34 70  1  0  0  0  0
 34 75  2  0  0  0  0
 35 49  1  0  0  0  0
 35 71  1  0  0  0  0
 35 76  2  0  0  0  0
 36 60  1  0  0  0  0
 36 67  1  0  0  0  0
 36 77  2  0  0  0  0
 37 61  1  0  0  0  0
 37 72  1  0  0  0  0
 37 78  2  0  0  0  0
 38 68  1  0  0  0  0
 38 73  1  0  0  0  0
 38 79  2  0  0  0  0
 39 42  1  0  0  0  0
 40 49  1  0  0  0  0
 41 67  1  0  0  0  0
 42 44  1  0  0  0  0
 43 45  1  0  0  0  0
 43 46  1  0  0  0  0
 44 48  1  0  0  0  0
 45 50  1  0  0  0  0
 46 68  1  0  0  0  0
 47 50  1  0  0  0  0
 47 68  1  0  0  0  0
 48 71  1  0  0  0  0
 49 67  1  0  0  0  0
 50 66  1  0  0  0  0
 51 61  1  0  0  0  0
 52 62  1  0  0  0  0
 53 64  1  0  0  0  0
 54 64  1  0  0  0  0
 55 64  1  0  0  0  0
 56 73  1  0  0  0  0
 57 74  1  0  0  0  0
 58 73  1  0  0  0  0
 59 62  1  0  0  0  0
 59 81  1  0  0  0  0
 60 64  1  0  0  0  0
 60 72  1  0  0  0  0
 61 74  1  0  0  0  0
 62 82  1  0  0  0  0
 63 85  1  0  0  0  0
 63 86  1  0  0  0  0
 63 87  1  0  0  0  0
 65 66  1  0  0  0  0
M  CHG  1  74   1
M  ISO  4  38 100  59 101  73 100  81 101
M  END
> <Batch ID>
0004

> <Smiles>
CNC(C)C(=O)NC(C(=O)N1Cc2cc([101O:1][101CH2:1]C(C)Oc3ccc(C(F)(F)F)c(C[100N:0](C)[100C:0](=O)N4CCCC(n5nc(-c6ccc(Oc7ccc(F)cc7F)cc6)c(C(N)=O)c5N)C4)c3)ccc2CC1C(=O)NC1CCCc2ccccc21)C(C)(C)C

> <Shape>
0.265

> <Color>
0.187

> <Negative vol penalty>
0.000

$$$$

  -OEChem-04052315243D

 99107  0     1  0  0  0  0  0999 V2000
  -29.4720  -17.1984   17.4929 C   0  0  0  0  0  0  0  0  0  0  0  0
  -29.8727  -18.4413   17.9725 C   0  0  0  0  0  0  0  0  0  0  0  0
  -32.2412  -28.9446   29.9080 C   0  0  0  0  0  0  0  0  0  0  0  0
  -32.9061  -27.7310   29.7329 C   0  0  0  0  0  0  0  0  0  0  0  0
  -23.0726   -9.8760   19.9375 C   0  0  0  0  0  0  0  0  0  0  0  0
  -23.8429   -9.8696   22.2274 C   0  0  0  0  0  0  0  0  0  0  0  0
  -28.2500  -17.0675   16.8345 C   0  0  0  0  0  0  0  0  0  0  0  0
  -29.0520  -19.5543   17.7931 C   0  0  0  0  0  0  0  0  0  0  0  0
  -28.6589  -22.3737   21.9813 C   0  0  0  0  0  0  0  0  0  0  0  0
  -31.1796  -29.2856   29.0698 C   0  0  0  0  0  0  0  0  0  0  0  0
  -32.5095  -26.8584   28.7195 C   0  0  0  0  0  0  0  0  0  0  0  0
  -22.3310   -8.7206   20.1837 C   0  0  0  0  0  0  0  0  0  0  0  0
  -23.1012   -8.7142   22.4737 C   0  0  0  0  0  0  0  0  0  0  0  0
  -29.7263  -23.2184   22.2827 C   0  0  0  0  0  0  0  0  0  0  0  0
  -21.1250   -5.9670   23.8024 C   0  0  0  0  0  0  0  0  0  0  0  0
  -20.3741   -5.9154   24.9767 C   0  0  0  0  0  0  0  0  0  0  0  0
  -28.5045  -25.0820   21.3590 C   0  0  0  0  0  0  0  0  0  0  0  0
  -19.1244   -7.8559   24.2627 C   0  0  0  0  0  0  0  0  0  0  0  0
  -23.8286  -10.4505   20.9594 C   0  0  0  0  0  0  0  0  0  0  0  0
  -24.1674  -12.9767   20.8533 C   0  0  0  0  0  0  0  0  0  0  0  0
  -27.4095  -18.1775   16.6555 C   0  0  0  0  0  0  0  0  0  0  0  0
  -27.5087  -22.8756   21.3556 C   0  0  0  0  0  0  0  0  0  0  0  0
  -27.8182  -19.4383   17.1305 C   0  0  0  0  0  0  0  0  0  0  0  0
  -27.4228  -24.2421   21.0531 C   0  0  0  0  0  0  0  0  0  0  0  0
  -30.7830  -28.4130   28.0565 C   0  0  0  0  0  0  0  0  0  0  0  0
  -31.4480  -27.1994   27.8813 C   0  0  0  0  0  0  0  0  0  0  0  0
  -22.3453   -8.1397   21.4518 C   0  0  0  0  0  0  0  0  0  0  0  0
  -29.6504  -24.5723   21.9690 C   0  0  0  0  0  0  0  0  0  0  0  0
  -20.8757   -6.9630   22.8583 C   0  0  0  0  0  0  0  0  0  0  0  0
  -19.3738   -6.8598   25.2069 C   0  0  0  0  0  0  0  0  0  0  0  0
  -19.8753   -7.9075   23.0884 C   0  0  0  0  0  0  0  0  0  0  0  0
  -24.5953  -11.6437   20.7055 C   0  0  0  0  0  0  0  0  0  0  0  0
  -25.2572  -13.7295   20.4897 C   0  0  0  0  0  0  0  0  0  0  0  0
  -22.8983  -13.4886   21.2811 C   0  0  0  0  0  0  0  0  0  0  0  0
  -26.0425  -22.3324   18.5881 C   0  0  0  0  0  0  0  0  0  0  0  0
  -23.7985  -24.3162   19.8335 C   0  0  0  0  0  0  0  0  0  0  0  0
  -36.1777  -20.1297   28.1985 C   0  0  0  0  0  0  0  0  0  0  0  0
  -34.6426  -18.9125   26.6224 C   0  0  0  0  0  0  0  0  0  0  0  0
  -32.4482  -24.2193   26.8832 C   0  0  0  0  0  0  0  0  0  0  0  0
  -23.0409  -26.8219   22.0232 C   0  0  0  0  0  0  0  0  0  0  0  0
  -30.7407  -14.7528   20.6595 C   0  0  0  0  0  0  0  0  0  0  0  0
  -26.1192  -17.9960   15.8959 C   0  0  0  0  0  0  0  0  0  0  0  0
  -26.3552  -21.9563   21.0613 C   0  0  0  0  0  0  0  0  0  0  0  0
  -26.2020  -24.8344   20.3995 C   0  0  0  0  0  0  0  0  0  0  0  0
  -25.1381  -19.1514   16.0771 C   0  0  0  0  0  0  0  0  0  0  0  0
  -29.5946  -12.3819   18.2633 C   0  0  0  0  0  0  0  0  0  0  0  0
  -25.8528  -20.4892   15.9144 C   0  0  0  0  0  0  0  0  0  0  0  0
  -28.1595  -12.0841   18.7009 C   0  0  0  0  0  0  0  0  0  0  0  0
  -30.5170  -12.5963   19.4614 C   0  0  0  0  0  0  0  0  0  0  0  0
  -28.6208  -13.3169   20.8610 C   0  0  0  0  0  0  0  0  0  0  0  0
  -26.9443  -20.6643   16.9772 C   0  0  1  0  0  0  0  0  0  0  0  0
  -25.4412  -22.4789   19.9573 C   0  0  1  0  0  0  0  0  0  0  0  0
  -27.6415  -13.1486   19.6868 C   0  0  2  0  0  0  0  0  0  0  0  0
  -29.6430  -28.7984   27.1718 C   0  0  0  0  0  0  0  0  0  0  0  0
  -35.9276  -19.1426   29.3122 C   0  0  0  0  0  0  0  0  0  0  0  0
  -21.1317  -28.2604   22.7867 C   0  0  0  0  0  0  0  0  0  0  0  0
  -24.0395  -25.9825   17.2888 C   0  0  0  0  0  0  0  0  0  0  0  0
  -22.8725  -27.8480   18.4830 C   0  0  0  0  0  0  0  0  0  0  0  0
  -21.7000  -25.6767   18.1179 C   0  0  0  0  0  0  0  0  0  0  0  0
  -23.2207  -25.7926   24.7921 C   0  0  0  0  0  0  0  0  0  0  0  0
  -31.0397  -26.2443   26.7972 C   0  0  0  0  0  0  0  0  0  0  0  0
  -33.7892  -19.0920   25.3667 C   0  0  0  0  0  0  0  0  0  0  0  0
  -33.6421  -23.4663   26.3097 C   0  0  0  0  0  0  0  0  0  0  0  0
  -33.1063  -17.8021   24.9049 C   0  0  0  0  0  0  0  0  0  0  0  0
  -33.8739  -22.1191   27.0007 C   0  0  0  0  0  0  0  0  0  0  0  0
  -32.3196  -17.9933   23.6045 C   0  0  0  0  0  0  0  0  0  0  0  0
  -31.6251  -16.6983   23.1818 C   0  0  0  0  0  0  0  0  0  0  0  0
  -32.0727  -26.3394   23.9886 C   0  0  0  0  0  0  0  0  0  0  0  0
  -35.0591  -21.3585   26.4148 C   0  0  0  0  0  0  0  0  0  0  0  0
  -30.8101  -16.8958   21.9093 C   0  0  0  0  0  0  0  0  0  0  0  0
  -32.9274  -26.0817   25.2221 C   0  0  0  0  0  0  0  0  0  0  0  0
  -31.4904  -25.0630   23.3936 C   0  0  0  0  0  0  0  0  0  1  0  0
  -23.5643  -25.8075   19.8205 C   0  0  1  0  0  0  0  0  0  0  0  0
  -21.9111  -26.9765   23.0252 C   0  0  2  0  0  0  0  0  0  0  0  0
  -23.0680  -26.3175   18.4381 C   0  0  0  0  0  0  0  0  0  0  0  0
  -25.8584  -11.5517   20.2809 N   0  0  0  0  0  0  0  0  0  0  0  0
  -26.2334  -12.8364   20.1587 N   0  0  0  0  0  0  0  0  0  0  0  0
  -25.1030  -23.8936   20.1259 N   0  0  0  0  0  0  0  0  0  0  0  0
  -29.9694  -13.6188   20.3561 N   0  0  0  0  0  0  0  0  0  0  0  0
  -25.4659  -15.0616   20.4239 N   0  0  0  0  0  0  0  0  0  0  0  0
  -21.8888  -12.5764   21.6174 N   0  0  0  0  0  0  0  0  0  0  0  0
  -26.3578  -21.0305   18.2485 N   0  0  0  0  0  0  0  0  0  0  0  0
  -22.6512  -26.0869   20.9235 N   0  0  0  0  0  0  0  0  0  0  0  0
  -30.1445  -15.6759   21.5100 N   0  0  0  0  0  0  0  0  0  0  0  0
  -35.2966  -20.0802   27.0905 N   0  0  0  0  0  0  0  0  0  0  0  0
  -32.1676  -25.4624   26.3057 N   0  0  0  0  0  0  0  0  0  0  0  0
  -22.4509  -27.0056   24.4140 N   0  3  0  0  0  0  0  0  0  0  0  0
  -22.6611  -14.7186   21.3471 O   0  0  0  0  0  0  0  0  0  0  0  0
  -26.2069  -23.3266   17.8908 O   0  0  0  0  0  0  0  0  0  0  0  0
  -22.8570  -23.5542   19.6001 O   0  0  0  0  0  0  0  0  0  0  0  0
  -37.1167  -20.9238   28.3053 O   0  0  0  0  0  0  0  0  0  0  0  0
  -34.7663  -17.7961   27.1300 O   0  0  0  0  0  0  0  0  0  0  0  0
  -31.7851  -23.7333   27.8032 O   0  0  0  0  0  0  0  0  0  0  0  0
  -24.1564  -27.3078   22.1967 O   0  0  0  0  0  0  0  0  0  0  0  0
  -31.8744  -14.9322   20.2019 O   0  0  0  0  0  0  0  0  0  0  0  0
  -21.6215   -7.0124   21.6925 O   0  0  0  0  0  0  0  0  0  0  0  0
  -30.6985  -25.4048   22.2635 O   0  0  0  0  0  0  0  0  0  1  0  0
  -18.6517   -6.8093   26.3340 F   0  0  0  0  0  0  0  0  0  0  0  0
  -19.6304   -8.8660   22.1845 F   0  0  0  0  0  0  0  0  0  0  0  0
  1  2  1  0  0  0  0
  1  7  2  0  0  0  0
  2  8  2  0  0  0  0
  3  4  1  0  0  0  0
  3 10  2  0  0  0  0
  4 11  2  0  0  0  0
  5 12  2  0  0  0  0
  5 19  1  0  0  0  0
  6 13  1  0  0  0  0
  6 19  2  0  0  0  0
  7 21  1  0  0  0  0
  8 23  1  0  0  0  0
  9 14  2  0  0  0  0
  9 22  1  0  0  0  0
 10 25  1  0  0  0  0
 11 26  1  0  0  0  0
 12 27  1  0  0  0  0
 13 27  2  0  0  0  0
 14 28  1  0  0  0  0
 15 16  2  0  0  0  0
 15 29  1  0  0  0  0
 16 30  1  0  0  0  0
 17 24  1  0  0  0  0
 17 28  2  0  0  0  0
 18 30  2  0  0  0  0
 18 31  1  0  0  0  0
 19 32  1  0  0  0  0
 20 32  1  0  0  0  0
 20 33  2  0  0  0  0
 20 34  1  0  0  0  0
 21 23  2  0  0  0  0
 21 42  1  0  0  0  0
 22 24  2  0  0  0  0
 22 43  1  0  0  0  0
 23 51  1  0  0  0  0
 24 44  1  0  0  0  0
 25 26  2  0  0  0  0
 25 54  1  0  0  0  0
 26 61  1  0  0  0  0
 27 96  1  0  0  0  0
 28 97  1  0  0  0  0
 29 31  2  0  0  0  0
 29 96  1  0  0  0  0
 30 98  1  0  0  0  0
 31 99  1  0  0  0  0
 32 76  2  0  0  0  0
 33 77  1  0  0  0  0
 33 80  1  0  0  0  0
 34 81  1  0  0  0  0
 34 88  2  0  0  0  0
 35 52  1  0  0  0  0
 35 82  1  0  0  0  0
 35 89  2  0  0  0  0
 36 73  1  0  0  0  0
 36 78  1  0  0  0  0
 36 90  2  0  0  0  0
 37 55  1  0  0  0  0
 37 85  1  0  0  0  0
 37 91  2  0  0  0  0
 38 62  1  0  0  0  0
 38 85  1  0  0  0  0
 38 92  2  0  0  0  0
 39 63  1  0  0  0  0
 39 86  1  0  0  0  0
 39 93  2  0  0  0  0
 40 74  1  0  0  0  0
 40 83  1  0  0  0  0
 40 94  2  0  0  0  0
 41 79  1  0  0  0  0
 41 84  1  0  0  0  0
 41 95  2  0  0  0  0
 42 45  1  0  0  0  0
 43 52  1  0  0  0  0
 44 78  1  0  0  0  0
 45 47  1  0  0  0  0
 46 48  1  0  0  0  0
 46 49  1  0  0  0  0
 47 51  1  0  0  0  0
 48 53  1  0  0  0  0
 49 79  1  0  0  0  0
 50 53  1  0  0  0  0
 50 79  1  0  0  0  0
 51 82  1  0  0  0  0
 52 78  1  0  0  0  0
 53 77  1  0  0  0  0
 56 74  1  0  0  0  0
 57 75  1  0  0  0  0
 58 75  1  0  0  0  0
 59 75  1  0  0  0  0
 60 87  1  0  0  0  0
 61 86  1  0  0  0  0
 62 64  1  0  0  0  0
 63 65  1  0  0  0  0
 64 66  1  0  0  0  0
 65 69  1  0  0  0  0
 66 67  1  0  0  0  0
 67 70  1  0  0  0  0
 68 71  1  0  0  0  0
 68 72  1  0  0  0  0
 69 85  1  0  0  0  0
 70 84  1  0  0  0  0
 71 86  1  0  0  0  0
 72 97  1  0  0  0  0
 73 75  1  0  0  0  0
 73 83  1  0  0  0  0
 74 87  1  0  0  0  0
 76 77  1  0  0  0  0
M  CHG  1  87   1
M  ISO  4  41 100  72 101  84 100  97 101
M  END
> <Batch ID>
0004

> <Smiles>
CNC(C)C(=O)NC(C(=O)N1Cc2cc([101O:1][101CH2:1]CCN(Cc3ccccc3C)C(=O)CCCN(C(C)=O)C(=O)CCCCC[100NH:0][100C:0](=O)N3CCCC(n4nc(-c5ccc(Oc6ccc(F)cc6F)cc5)c(C(N)=O)c4N)C3)ccc2CC1C(=O)NC1CCCc2ccccc21)C(C)(C)C

> <Shape>
0.199

> <Color>
0.184

> <Negative vol penalty>
0.000

$$$$

  -OEChem-04052315243D

 78 85  0     1  0  0  0  0  0999 V2000
  -16.9139  -25.1693   24.1887 C   0  0  0  0  0  0  0  0  0  0  0  0
  -17.6043  -24.4084   23.2507 C   0  0  0  0  0  0  0  0  0  0  0  0
  -25.0622  -15.3870   22.2402 C   0  0  0  0  0  0  0  0  0  0  0  0
  -25.5982  -14.9119   19.9328 C   0  0  0  0  0  0  0  0  0  0  0  0
  -17.1839  -26.5313   24.3148 C   0  0  0  0  0  0  0  0  0  0  0  0
  -18.5643  -25.0094   22.4374 C   0  0  0  0  0  0  0  0  0  0  0  0
  -23.7596  -22.4897   20.3962 C   0  0  0  0  0  0  0  0  0  0  0  0
  -23.7865  -14.8549   22.0535 C   0  0  0  0  0  0  0  0  0  0  0  0
  -24.3224  -14.3797   19.7461 C   0  0  0  0  0  0  0  0  0  0  0  0
  -24.1001  -21.8960   19.1816 C   0  0  0  0  0  0  0  0  0  0  0  0
  -22.3655  -11.7913   21.8852 C   0  0  0  0  0  0  0  0  0  0  0  0
  -21.8750  -10.9254   22.8625 C   0  0  0  0  0  0  0  0  0  0  0  0
  -25.0322  -23.9890   18.4268 C   0  0  0  0  0  0  0  0  0  0  0  0
  -20.0212  -12.4232   23.2592 C   0  0  0  0  0  0  0  0  0  0  0  0
  -25.9681  -15.4156   21.1798 C   0  0  0  0  0  0  0  0  0  0  0  0
  -28.4430  -15.2770   21.7823 C   0  0  0  0  0  0  0  0  0  0  0  0
  -18.1546  -27.1474   23.5093 C   0  0  0  0  0  0  0  0  0  0  0  0
  -24.0435  -23.8426   20.6315 C   0  0  0  0  0  0  0  0  0  0  0  0
  -18.8466  -26.3813   22.5519 C   0  0  0  0  0  0  0  0  0  0  0  0
  -24.6965  -24.5968   19.6462 C   0  0  0  0  0  0  0  0  0  0  0  0
  -23.4166  -14.3512   20.8065 C   0  0  0  0  0  0  0  0  0  0  0  0
  -24.7339  -22.6463   18.1955 C   0  0  0  0  0  0  0  0  0  0  0  0
  -21.6840  -12.9733   21.5950 C   0  0  0  0  0  0  0  0  0  0  0  0
  -20.7028  -11.2412   23.5495 C   0  0  0  0  0  0  0  0  0  0  0  0
  -20.5118  -13.2892   22.2820 C   0  0  0  0  0  0  0  0  0  0  0  0
  -27.2859  -15.9657   21.3719 C   0  0  0  0  0  0  0  0  0  0  0  0
  -29.4231  -16.2388   21.8110 C   0  0  0  0  0  0  0  0  0  0  0  0
  -28.6165  -13.8916   22.1084 C   0  0  0  0  0  0  0  0  0  0  0  0
  -22.2968  -26.4300   21.2301 C   0  0  0  0  0  0  0  0  0  0  0  0
  -25.1996  -27.8155   21.6499 C   0  0  0  0  0  0  0  0  0  0  0  0
  -28.5458  -27.7908   20.9801 C   0  0  0  0  0  0  0  0  0  0  0  0
  -28.5766  -20.9323   15.2735 C   0  0  0  0  0  0  0  0  0  0  0  0
  -30.0983  -21.4583   18.9557 C   0  0  0  0  0  0  0  0  0  0  0  0
  -18.3782  -28.6323   23.6493 C   0  0  0  0  0  0  0  0  0  0  0  0
  -23.6937  -24.4613   21.9571 C   0  0  0  0  0  0  0  0  0  0  0  0
  -25.0417  -26.0476   19.8569 C   0  0  0  0  0  0  0  0  0  0  0  0
  -19.6763  -29.1160   23.0078 C   0  0  0  0  0  0  0  0  0  0  0  0
  -30.0410  -20.9362   22.4771 C   0  0  0  0  0  0  0  0  0  0  0  0
  -19.8354  -28.5224   21.6117 C   0  0  0  0  0  0  0  0  0  0  0  0
  -29.4328  -19.5410   22.6302 C   0  0  0  0  0  0  0  0  0  0  0  0
  -29.4053  -21.7052   21.3211 C   0  0  0  0  0  0  0  0  0  0  0  0
  -28.8098  -19.6039   20.1794 C   0  0  0  0  0  0  0  0  0  0  0  0
  -19.9129  -26.9919   21.6685 C   0  0  1  0  0  0  0  0  0  0  0  0
  -23.5679  -25.9803   21.8931 C   0  0  1  0  0  0  0  0  0  0  0  0
  -29.4577  -18.7691   21.2973 C   0  0  2  0  0  0  0  0  0  0  0  0
  -30.6549  -29.0731   21.4324 C   0  0  0  0  0  0  0  0  0  0  0  0
  -24.3394  -29.9370   19.6326 C   0  0  0  0  0  0  0  0  0  0  0  0
  -26.7429  -30.6027   19.4129 C   0  0  0  0  0  0  0  0  0  0  0  0
  -25.5854  -30.8235   21.6115 C   0  0  0  0  0  0  0  0  0  0  0  0
  -29.8000  -25.4768   22.3335 C   0  0  0  0  0  0  0  0  0  0  0  0
  -29.7599  -21.7861   15.6762 C   0  0  0  0  0  0  0  0  0  0  0  0
  -30.7357  -21.0577   16.5908 C   0  0  0  0  0  0  0  0  0  0  0  0
  -25.3680  -20.6747   17.0265 C   0  0  0  0  0  0  0  0  0  1  0  0
  -26.3744  -20.3715   15.9335 C   0  0  0  0  0  0  0  0  0  0  0  0
  -26.1864  -28.5228   20.7528 C   0  0  1  0  0  0  0  0  0  0  0  0
  -29.7555  -27.9338   21.8860 C   0  0  2  0  0  0  0  0  0  0  0  0
  -25.7054  -29.9447   20.3474 C   0  0  0  0  0  0  0  0  0  0  0  0
  -27.5085  -17.2648   21.1555 N   0  0  0  0  0  0  0  0  0  0  0  0
  -28.8169  -17.4001   21.4311 N   0  0  0  0  0  0  0  0  0  0  0  0
  -24.6735  -26.6088   21.1673 N   0  0  0  0  0  0  0  0  0  0  0  0
  -29.4629  -20.9190   20.0864 N   0  0  0  0  0  0  0  0  0  0  0  0
  -30.7356  -16.1962   22.1239 N   0  0  0  0  0  0  0  0  0  0  0  0
  -27.5052  -13.0416   22.0261 N   0  0  0  0  0  0  0  0  0  0  0  0
  -21.2289  -26.5680   22.0962 N   0  0  0  0  0  0  0  0  0  0  0  0
  -27.4647  -28.5022   21.4557 N   0  0  0  0  0  0  0  0  0  0  0  0
  -30.1138  -20.6448   17.8292 N   0  0  0  0  0  0  0  0  0  0  0  0
  -30.5545  -26.6757   21.8857 N   0  3  0  0  0  0  0  0  0  0  0  0
  -29.7206  -13.4247   22.4781 O   0  0  0  0  0  0  0  0  0  0  0  0
  -22.2860  -26.6379   20.0225 O   0  0  0  0  0  0  0  0  0  0  0  0
  -24.9116  -28.3117   22.7420 O   0  0  0  0  0  0  0  0  0  0  0  0
  -28.5598  -27.1184   19.9513 O   0  0  0  0  0  0  0  0  0  0  0  0
  -28.5279  -20.2116   14.2863 O   0  0  0  0  0  0  0  0  0  0  0  0
  -30.6182  -22.5793   18.9520 O   0  0  0  0  0  0  0  0  0  0  0  0
  -22.1718  -13.8316   20.6240 O   0  0  0  0  0  0  0  0  0  0  0  0
  -25.0668  -22.0695   17.0088 O   0  0  0  0  0  0  0  0  0  1  0  0
  -27.5672  -21.1049   16.1838 O   0  0  0  0  0  0  0  0  0  0  0  0
  -20.2310  -10.4088   24.4868 F   0  0  0  0  0  0  0  0  0  0  0  0
  -19.8521  -14.4226   22.0067 F   0  0  0  0  0  0  0  0  0  0  0  0
  1  2  1  0  0  0  0
  1  5  2  0  0  0  0
  2  6  2  0  0  0  0
  3  8  2  0  0  0  0
  3 15  1  0  0  0  0
  4  9  1  0  0  0  0
  4 15  2  0  0  0  0
  5 17  1  0  0  0  0
  6 19  1  0  0  0  0
  7 10  2  0  0  0  0
  7 18  1  0  0  0  0
  8 21  1  0  0  0  0
  9 21  2  0  0  0  0
 10 22  1  0  0  0  0
 11 12  2  0  0  0  0
 11 23  1  0  0  0  0
 12 24  1  0  0  0  0
 13 20  1  0  0  0  0
 13 22  2  0  0  0  0
 14 24  2  0  0  0  0
 14 25  1  0  0  0  0
 15 26  1  0  0  0  0
 16 26  1  0  0  0  0
 16 27  2  0  0  0  0
 16 28  1  0  0  0  0
 17 19  2  0  0  0  0
 17 34  1  0  0  0  0
 18 20  2  0  0  0  0
 18 35  1  0  0  0  0
 19 43  1  0  0  0  0
 20 36  1  0  0  0  0
 21 74  1  0  0  0  0
 22 75  1  0  0  0  0
 23 25  2  0  0  0  0
 23 74  1  0  0  0  0
 24 77  1  0  0  0  0
 25 78  1  0  0  0  0
 26 58  2  0  0  0  0
 27 59  1  0  0  0  0
 27 62  1  0  0  0  0
 28 63  1  0  0  0  0
 28 68  2  0  0  0  0
 29 44  1  0  0  0  0
 29 64  1  0  0  0  0
 29 69  2  0  0  0  0
 30 55  1  0  0  0  0
 30 60  1  0  0  0  0
 30 70  2  0  0  0  0
 31 56  1  0  0  0  0
 31 65  1  0  0  0  0
 31 71  2  0  0  0  0
 32 51  1  0  0  0  0
 32 72  2  0  0  0  0
 32 76  1  0  0  0  0
 33 61  1  0  0  0  0
 33 66  1  0  0  0  0
 33 73  2  0  0  0  0
 34 37  1  0  0  0  0
 35 44  1  0  0  0  0
 36 60  1  0  0  0  0
 37 39  1  0  0  0  0
 38 40  1  0  0  0  0
 38 41  1  0  0  0  0
 39 43  1  0  0  0  0
 40 45  1  0  0  0  0
 41 61  1  0  0  0  0
 42 45  1  0  0  0  0
 42 61  1  0  0  0  0
 43 64  1  0  0  0  0
 44 60  1  0  0  0  0
 45 59  1  0  0  0  0
 46 56  1  0  0  0  0
 47 57  1  0  0  0  0
 48 57  1  0  0  0  0
 49 57  1  0  0  0  0
 50 67  1  0  0  0  0
 51 52  1  0  0  0  0
 52 66  1  0  0  0  0
 53 54  1  0  0  0  0
 53 75  1  0  0  0  0
 54 76  1  0  0  0  0
 55 57  1  0  0  0  0
 55 65  1  0  0  0  0
 56 67  1  0  0  0  0
 58 59  1  0  0  0  0
M  CHG  1  67   1
M  ISO  4  33 100  53 101  66 100  75 101
M  END
> <Batch ID>
0004

> <Smiles>
CNC(C)C(=O)NC(C(=O)N1Cc2cc([101O:1][101CH2:1]COC(=O)CC[100NH:0][100C:0](=O)N3CCCC(n4nc(-c5ccc(Oc6ccc(F)cc6F)cc5)c(C(N)=O)c4N)C3)ccc2CC1C(=O)NC1CCCc2ccccc21)C(C)(C)C

> <Shape>
0.221

> <Color>
0.048

> <Negative vol penalty>
0.000

$$$$

  -OEChem-04052315243D

 92100  0     1  0  0  0  0  0999 V2000
  -28.9013  -27.2457   34.0149 C   0  0  0  0  0  0  0  0  0  0  0  0
  -29.2048  -26.2230   33.1220 C   0  0  0  0  0  0  0  0  0  0  0  0
  -23.0385   -9.9415   19.9241 C   0  0  0  0  0  0  0  0  0  0  0  0
  -23.8076   -9.8792   22.2135 C   0  0  0  0  0  0  0  0  0  0  0  0
  -25.3129  -22.4840   18.0145 C   0  0  0  0  0  0  0  0  0  0  0  0
  -27.6613  -27.8800   33.9514 C   0  0  0  0  0  0  0  0  0  0  0  0
  -28.2679  -25.8332   32.1655 C   0  0  0  0  0  0  0  0  0  0  0  0
  -27.8383  -23.3221   25.4703 C   0  0  0  0  0  0  0  0  0  0  0  0
  -25.6931  -21.3174   18.6778 C   0  0  0  0  0  0  0  0  0  0  0  0
  -22.3032   -8.7759   20.1393 C   0  0  0  0  0  0  0  0  0  0  0  0
  -23.0723   -8.7136   22.4288 C   0  0  0  0  0  0  0  0  0  0  0  0
  -27.2562  -22.2836   24.7448 C   0  0  0  0  0  0  0  0  0  0  0  0
  -23.3827   -5.4135   21.7629 C   0  0  0  0  0  0  0  0  0  0  0  0
  -24.0078   -4.3696   22.4449 C   0  0  0  0  0  0  0  0  0  0  0  0
  -27.3669  -23.5490   18.7103 C   0  0  0  0  0  0  0  0  0  0  0  0
  -25.1766  -23.5043   24.6774 C   0  0  0  0  0  0  0  0  0  0  0  0
  -22.3122   -4.4764   24.1626 C   0  0  0  0  0  0  0  0  0  0  0  0
  -23.7907  -10.4932   20.9612 C   0  0  0  0  0  0  0  0  0  0  0  0
  -26.1498  -23.5999   18.0307 C   0  0  0  0  0  0  0  0  0  0  0  0
  -24.1155  -13.0231   20.9218 C   0  0  0  0  0  0  0  0  0  0  0  0
  -26.7124  -27.5043   32.9875 C   0  0  0  0  0  0  0  0  0  0  0  0
  -27.0895  -24.4566   25.8148 C   0  0  0  0  0  0  0  0  0  0  0  0
  -27.0135  -26.4622   32.0899 C   0  0  0  0  0  0  0  0  0  0  0  0
  -25.7523  -24.5570   25.4051 C   0  0  0  0  0  0  0  0  0  0  0  0
  -26.9102  -21.2666   19.3574 C   0  0  0  0  0  0  0  0  0  0  0  0
  -22.3201   -8.1620   21.3917 C   0  0  0  0  0  0  0  0  0  0  0  0
  -25.9243  -22.3733   24.3507 C   0  0  0  0  0  0  0  0  0  0  0  0
  -22.2224   -5.9889   22.2808 C   0  0  0  0  0  0  0  0  0  0  0  0
  -23.4726   -3.9010   23.6447 C   0  0  0  0  0  0  0  0  0  0  0  0
  -21.6871   -5.5204   23.4807 C   0  0  0  0  0  0  0  0  0  0  0  0
  -27.7471  -22.3824   19.3737 C   0  0  0  0  0  0  0  0  0  0  0  0
  -24.5509  -11.6969   20.7393 C   0  0  0  0  0  0  0  0  0  0  0  0
  -25.2012  -13.7912   20.5789 C   0  0  0  0  0  0  0  0  0  0  0  0
  -25.7521  -24.8165   17.3399 C   0  0  0  0  0  0  0  0  0  0  0  0
  -22.8434  -13.5166   21.3621 C   0  0  0  0  0  0  0  0  0  0  0  0
  -26.1879  -25.8039   28.5490 C   0  0  0  0  0  0  0  0  0  0  0  0
  -25.0752  -28.1321   26.5834 C   0  0  0  0  0  0  0  0  0  0  0  0
  -28.6638  -19.6925   20.1713 C   0  0  0  0  0  0  0  0  0  0  0  0
  -23.9802  -29.0220   23.4760 C   0  0  0  0  0  0  0  0  0  0  0  0
  -30.6789  -14.8403   20.7792 C   0  0  0  0  0  0  0  0  0  0  0  0
  -25.3676  -28.1870   32.9880 C   0  0  0  0  0  0  0  0  0  0  0  0
  -27.7398  -25.5800   26.5748 C   0  0  0  0  0  0  0  0  0  0  0  0
  -24.9111  -25.7628   25.7322 C   0  0  0  0  0  0  0  0  0  0  0  0
  -24.5731  -27.9686   31.7030 C   0  0  0  0  0  0  0  0  0  0  0  0
  -29.5473  -12.5269   18.3207 C   0  0  0  0  0  0  0  0  0  0  0  0
  -24.6002  -26.4970   31.3023 C   0  0  0  0  0  0  0  0  0  0  0  0
  -28.1136  -12.2096   18.7494 C   0  0  0  0  0  0  0  0  0  0  0  0
  -30.4678  -12.7148   19.5246 C   0  0  0  0  0  0  0  0  0  0  0  0
  -28.5670  -13.3878   20.9414 C   0  0  0  0  0  0  0  0  0  0  0  0
  -26.0330  -26.0278   31.0222 C   0  0  1  0  0  0  0  0  0  0  0  0
  -26.7369  -26.4604   27.3140 C   0  0  1  0  0  0  0  0  0  0  0  0
  -27.5892  -13.2449   19.7625 C   0  0  2  0  0  0  0  0  0  0  0  0
  -23.1035  -30.9866   22.1841 C   0  0  0  0  0  0  0  0  0  0  0  0
  -22.3683  -27.8248   27.9576 C   0  0  0  0  0  0  0  0  0  0  0  0
  -21.3357  -29.0728   26.0485 C   0  0  0  0  0  0  0  0  0  0  0  0
  -23.0386  -30.1884   27.4902 C   0  0  0  0  0  0  0  0  0  0  0  0
  -24.5914  -27.0361   17.4230 C   0  0  0  0  0  0  0  0  0  0  0  0
  -24.6162  -25.6049   19.4355 C   0  0  0  0  0  0  0  0  0  0  0  0
  -26.2457  -28.9297   21.5740 C   0  0  0  0  0  0  0  0  0  0  0  0
  -28.9543  -18.4723   21.0432 C   0  0  0  0  0  0  0  0  0  0  0  0
  -30.4452  -18.1350   21.1651 C   0  0  0  0  0  0  0  0  0  0  0  0
  -25.3912  -20.0678   21.6218 C   0  0  0  0  0  0  0  0  0  0  0  0
  -30.7356  -16.9500   22.0849 C   0  0  0  0  0  0  0  0  0  0  0  0
  -26.2219  -19.2527   20.6398 C   0  0  0  0  0  0  0  0  0  0  0  0
  -26.2097  -20.6001   22.7918 C   0  0  0  0  0  0  0  0  0  1  0  0
  -23.7724  -28.3942   25.8671 C   0  0  1  0  0  0  0  0  0  0  0  0
  -24.3391  -30.1925   22.5785 C   0  0  2  0  0  0  0  0  0  0  0  0
  -22.6438  -28.8464   26.8362 C   0  0  0  0  0  0  0  0  0  0  0  0
  -25.8147  -11.6231   20.3132 N   0  0  0  0  0  0  0  0  0  0  0  0
  -26.1827  -12.9127   20.2252 N   0  0  0  0  0  0  0  0  0  0  0  0
  -25.5903  -26.8320   26.4824 N   0  0  0  0  0  0  0  0  0  0  0  0
  -29.9141  -13.7103   20.4456 N   0  0  0  0  0  0  0  0  0  0  0  0
  -25.4026  -15.1258   20.5483 N   0  0  0  0  0  0  0  0  0  0  0  0
  -21.8388  -12.5902   21.6736 N   0  0  0  0  0  0  0  0  0  0  0  0
  -26.4682  -26.4831   29.7192 N   0  0  0  0  0  0  0  0  0  0  0  0
  -24.0734  -29.3546   24.8109 N   0  0  0  0  0  0  0  0  0  0  0  0
  -30.0771  -15.7373   21.6532 N   0  0  0  0  0  0  0  0  0  0  0  0
  -27.2776  -20.0244   20.0446 N   0  0  0  0  0  0  0  0  0  0  0  0
  -25.0122  -25.7864   18.0406 N   0  0  0  0  0  0  0  0  0  0  0  0
  -25.0027  -29.7075   21.3353 N   0  3  0  0  0  0  0  0  0  0  0  0
  -26.1063  -24.9330   16.1592 O   0  0  0  0  0  0  0  0  0  0  0  0
  -22.5993  -14.7431   21.4603 O   0  0  0  0  0  0  0  0  0  0  0  0
  -25.5555  -24.7591   28.4475 O   0  0  0  0  0  0  0  0  0  0  0  0
  -25.6194  -29.0490   27.2037 O   0  0  0  0  0  0  0  0  0  0  0  0
  -29.6026  -20.3235   19.6792 O   0  0  0  0  0  0  0  0  0  0  0  0
  -23.6466  -27.9236   23.0369 O   0  0  0  0  0  0  0  0  0  0  0  0
  -31.8118  -15.0380   20.3271 O   0  0  0  0  0  0  0  0  0  0  0  0
  -21.6025   -7.0247   21.6022 O   0  0  0  0  0  0  0  0  0  0  0  0
  -25.3535  -21.3608   23.6430 O   0  0  0  0  0  0  0  0  0  1  0  0
  -24.0721   -2.8975   24.2987 F   0  0  0  0  0  0  0  0  0  0  0  0
  -20.5720   -6.0684   23.9826 F   0  0  0  0  0  0  0  0  0  0  0  0
  -29.2627  -22.3620   20.2030 Cl  0  0  0  0  0  0  0  0  0  0  0  0
  1  2  1  0  0  0  0
  1  6  2  0  0  0  0
  2  7  2  0  0  0  0
  3 10  2  0  0  0  0
  3 18  1  0  0  0  0
  4 11  1  0  0  0  0
  4 18  2  0  0  0  0
  5  9  2  0  0  0  0
  5 19  1  0  0  0  0
  6 21  1  0  0  0  0
  7 23  1  0  0  0  0
  8 12  2  0  0  0  0
  8 22  1  0  0  0  0
  9 25  1  0  0  0  0
 10 26  1  0  0  0  0
 11 26  2  0  0  0  0
 12 27  1  0  0  0  0
 13 14  2  0  0  0  0
 13 28  1  0  0  0  0
 14 29  1  0  0  0  0
 15 19  2  0  0  0  0
 15 31  1  0  0  0  0
 16 24  1  0  0  0  0
 16 27  2  0  0  0  0
 17 29  2  0  0  0  0
 17 30  1  0  0  0  0
 18 32  1  0  0  0  0
 19 34  1  0  0  0  0
 20 32  1  0  0  0  0
 20 33  2  0  0  0  0
 20 35  1  0  0  0  0
 21 23  2  0  0  0  0
 21 41  1  0  0  0  0
 22 24  2  0  0  0  0
 22 42  1  0  0  0  0
 23 50  1  0  0  0  0
 24 43  1  0  0  0  0
 25 31  2  0  0  0  0
 25 78  1  0  0  0  0
 26 88  1  0  0  0  0
 27 89  1  0  0  0  0
 28 30  2  0  0  0  0
 28 88  1  0  0  0  0
 29 90  1  0  0  0  0
 30 91  1  0  0  0  0
 31 92  1  0  0  0  0
 32 69  2  0  0  0  0
 33 70  1  0  0  0  0
 33 73  1  0  0  0  0
 34 79  1  0  0  0  0
 34 81  2  0  0  0  0
 35 74  1  0  0  0  0
 35 82  2  0  0  0  0
 36 51  1  0  0  0  0
 36 75  1  0  0  0  0
 36 83  2  0  0  0  0
 37 66  1  0  0  0  0
 37 71  1  0  0  0  0
 37 84  2  0  0  0  0
 38 60  1  0  0  0  0
 38 78  1  0  0  0  0
 38 85  2  0  0  0  0
 39 67  1  0  0  0  0
 39 76  1  0  0  0  0
 39 86  2  0  0  0  0
 40 72  1  0  0  0  0
 40 77  1  0  0  0  0
 40 87  2  0  0  0  0
 41 44  1  0  0  0  0
 42 51  1  0  0  0  0
 43 71  1  0  0  0  0
 44 46  1  0  0  0  0
 45 47  1  0  0  0  0
 45 48  1  0  0  0  0
 46 50  1  0  0  0  0
 47 52  1  0  0  0  0
 48 72  1  0  0  0  0
 49 52  1  0  0  0  0
 49 72  1  0  0  0  0
 50 75  1  0  0  0  0
 51 71  1  0  0  0  0
 52 70  1  0  0  0  0
 53 67  1  0  0  0  0
 54 68  1  0  0  0  0
 55 68  1  0  0  0  0
 56 68  1  0  0  0  0
 57 79  1  0  0  0  0
 58 79  1  0  0  0  0
 59 80  1  0  0  0  0
 60 61  1  0  0  0  0
 61 63  1  0  0  0  0
 62 64  1  0  0  0  0
 62 65  1  0  0  0  0
 63 77  1  0  0  0  0
 64 78  1  0  0  0  0
 65 89  1  0  0  0  0
 66 68  1  0  0  0  0
 66 76  1  0  0  0  0
 67 80  1  0  0  0  0
 69 70  1  0  0  0  0
M  CHG  1  80   1
M  ISO  4  40 100  65 101  77 100  89 101
M  END
> <Batch ID>
0004

> <Smiles>
CNC(C)C(=O)NC(C(=O)N1Cc2cc([101O:1][101CH2:1]CCN(C(=O)CCC[100NH:0][100C:0](=O)N3CCCC(n4nc(-c5ccc(Oc6ccc(F)cc6F)cc5)c(C(N)=O)c4N)C3)c3ccc(C(=O)N(C)C)cc3Cl)ccc2CC1C(=O)NC1CCCc2ccccc21)C(C)(C)C

> <Shape>
0.245

> <Color>
0.224

> <Negative vol penalty>
0.000

$$$$

  -OEChem-04052315243D

 88 96  0     1  0  0  0  0  0999 V2000
  -35.1455  -30.4519   25.8221 C   0  0  0  0  0  0  0  0  0  0  0  0
  -34.2118  -29.4206   25.8168 C   0  0  0  0  0  0  0  0  0  0  0  0
  -31.4166  -18.9517   20.5389 C   0  0  0  0  0  0  0  0  0  0  0  0
  -22.9973   -9.8979   19.9792 C   0  0  0  0  0  0  0  0  0  0  0  0
  -23.7247   -9.9412   22.2827 C   0  0  0  0  0  0  0  0  0  0  0  0
  -35.0251  -31.5043   24.9156 C   0  0  0  0  0  0  0  0  0  0  0  0
  -33.1564  -29.4417   24.9056 C   0  0  0  0  0  0  0  0  0  0  0  0
  -32.4005  -24.9444   22.7038 C   0  0  0  0  0  0  0  0  0  0  0  0
  -31.2086  -17.5730   20.5768 C   0  0  0  0  0  0  0  0  0  0  0  0
  -30.6970  -19.7893   21.3911 C   0  0  0  0  0  0  0  0  0  0  0  0
  -22.2291   -8.7640   20.2430 C   0  0  0  0  0  0  0  0  0  0  0  0
  -22.9564   -8.8073   22.5466 C   0  0  0  0  0  0  0  0  0  0  0  0
  -31.7287  -23.9759   23.4484 C   0  0  0  0  0  0  0  0  0  0  0  0
  -23.1945   -5.4693   22.0651 C   0  0  0  0  0  0  0  0  0  0  0  0
  -23.7810   -4.4490   22.8138 C   0  0  0  0  0  0  0  0  0  0  0  0
  -29.6915  -24.4848   22.2610 C   0  0  0  0  0  0  0  0  0  0  0  0
  -22.0590   -4.6902   24.4913 C   0  0  0  0  0  0  0  0  0  0  0  0
  -23.7452  -10.4865   20.9990 C   0  0  0  0  0  0  0  0  0  0  0  0
  -24.1347  -13.0019   20.8297 C   0  0  0  0  0  0  0  0  0  0  0  0
  -33.9733  -31.5335   23.9864 C   0  0  0  0  0  0  0  0  0  0  0  0
  -31.7191  -25.6993   21.7382 C   0  0  0  0  0  0  0  0  0  0  0  0
  -33.0211  -30.4962   23.9867 C   0  0  0  0  0  0  0  0  0  0  0  0
  -30.3575  -25.4605   21.5038 C   0  0  0  0  0  0  0  0  0  0  0  0
  -29.5611  -17.8694   22.3189 C   0  0  0  0  0  0  0  0  0  0  0  0
  -30.2808  -17.0319   21.4667 C   0  0  0  0  0  0  0  0  0  0  0  0
  -29.7692  -19.2482   22.2811 C   0  0  0  0  0  0  0  0  0  0  0  0
  -22.2086   -8.2187   21.5267 C   0  0  0  0  0  0  0  0  0  0  0  0
  -30.3733  -23.7479   23.2291 C   0  0  0  0  0  0  0  0  0  0  0  0
  -22.0403   -6.1001   22.5295 C   0  0  0  0  0  0  0  0  0  0  0  0
  -23.2132   -4.0594   24.0269 C   0  0  0  0  0  0  0  0  0  0  0  0
  -21.4726   -5.7105   23.7425 C   0  0  0  0  0  0  0  0  0  0  0  0
  -24.5394  -11.6575   20.7270 C   0  0  0  0  0  0  0  0  0  0  0  0
  -25.2453  -13.7236   20.4664 C   0  0  0  0  0  0  0  0  0  0  0  0
  -22.8680  -13.5494   21.2189 C   0  0  0  0  0  0  0  0  0  0  0  0
  -31.0830  -28.7887   21.3446 C   0  0  0  0  0  0  0  0  0  0  0  0
  -29.8937  -27.7818   18.4996 C   0  0  0  0  0  0  0  0  0  0  0  0
  -27.7779  -20.6746   22.7027 C   0  0  0  0  0  0  0  0  0  0  0  0
  -28.5839  -25.2334   16.6457 C   0  0  0  0  0  0  0  0  0  0  0  0
  -30.7267  -14.6746   20.6981 C   0  0  0  0  0  0  0  0  0  0  0  0
  -33.8578  -32.7160   23.0575 C   0  0  0  0  0  0  0  0  0  0  0  0
  -32.4643  -26.7218   20.9248 C   0  0  0  0  0  0  0  0  0  0  0  0
  -29.5849  -26.2298   20.4646 C   0  0  0  0  0  0  0  0  0  0  0  0
  -32.9228  -32.4731   21.8755 C   0  0  0  0  0  0  0  0  0  0  0  0
  -29.6021  -12.2302   18.3663 C   0  0  0  0  0  0  0  0  0  0  0  0
  -31.6197  -31.8362   22.3478 C   0  0  0  0  0  0  0  0  0  0  0  0
  -28.1514  -11.9739   18.7810 C   0  0  0  0  0  0  0  0  0  0  0  0
  -30.5041  -12.4686   19.5759 C   0  0  0  0  0  0  0  0  0  0  0  0
  -28.5913  -13.2571   20.9134 C   0  0  0  0  0  0  0  0  0  0  0  0
  -31.8765  -30.4710   22.9972 C   0  0  1  0  0  0  0  0  0  0  0  0
  -31.5529  -27.7887   20.3262 C   0  0  1  0  0  0  0  0  0  0  0  0
  -27.6323  -13.0757   19.7255 C   0  0  2  0  0  0  0  0  0  0  0  0
  -28.5643  -17.2885   23.2738 C   0  0  0  0  0  0  0  0  0  0  0  0
  -23.9392  -20.3980   17.5795 C   0  0  0  0  0  0  0  0  0  0  0  0
  -27.6717  -24.7240   14.3641 C   0  0  0  0  0  0  0  0  0  0  0  0
  -27.2965  -29.2112   19.2216 C   0  0  0  0  0  0  0  0  0  0  0  0
  -26.1562  -27.9026   17.4173 C   0  0  0  0  0  0  0  0  0  0  0  0
  -28.0043  -29.4746   16.8374 C   0  0  0  0  0  0  0  0  0  0  0  0
  -30.6863  -23.2155   16.1284 C   0  0  0  0  0  0  0  0  0  0  0  0
  -27.3526  -20.1876   21.3168 C   0  0  0  0  0  0  0  0  0  0  0  0
  -24.3074  -20.8652   18.9786 C   0  0  0  0  0  0  0  0  0  0  0  0
  -26.0164  -20.7608   20.8359 C   0  0  0  0  0  0  0  0  0  0  0  0
  -25.6262  -20.2485   19.4457 C   0  0  0  0  0  0  0  0  0  0  0  0
  -29.5825  -20.4553   24.4537 C   0  0  0  0  0  0  0  0  0  0  0  0
  -30.4753  -21.6823   24.4032 C   0  0  0  0  0  0  0  0  0  1  0  0
  -28.5472  -27.3031   18.0129 C   0  0  1  0  0  0  0  0  0  0  0  0
  -28.9081  -24.7336   15.2494 C   0  0  2  0  0  0  0  0  0  0  0  0
  -27.5149  -28.4595   17.8933 C   0  0  0  0  0  0  0  0  0  0  0  0
  -25.8081  -11.5299   20.3293 N   0  0  0  0  0  0  0  0  0  0  0  0
  -26.2102  -12.8035   20.1789 N   0  0  0  0  0  0  0  0  0  0  0  0
  -30.3564  -27.2232   19.6995 N   0  0  0  0  0  0  0  0  0  0  0  0
  -29.9516  -13.5282   20.4227 N   0  0  0  0  0  0  0  0  0  0  0  0
  -25.4810  -15.0492   20.3678 N   0  0  0  0  0  0  0  0  0  0  0  0
  -21.8350  -12.6661   21.5609 N   0  0  0  0  0  0  0  0  0  0  0  0
  -30.0848  -15.6287   21.4869 N   0  0  0  0  0  0  0  0  0  0  0  0
  -32.1055  -29.4641   21.9832 N   0  0  0  0  0  0  0  0  0  0  0  0
  -28.7942  -26.5910   16.7638 N   0  0  0  0  0  0  0  0  0  0  0  0
  -29.0250  -20.1462   23.1637 N   0  0  0  0  0  0  0  0  0  0  0  0
  -29.4542  -23.3482   15.3090 N   0  3  0  0  0  0  0  0  0  0  0  0
  -22.6534  -14.7850   21.2463 O   0  0  0  0  0  0  0  0  0  0  0  0
  -29.8818  -28.9375   21.5357 O   0  0  0  0  0  0  0  0  0  0  0  0
  -30.5154  -28.6151   17.8357 O   0  0  0  0  0  0  0  0  0  0  0  0
  -27.0400  -21.4393   23.3283 O   0  0  0  0  0  0  0  0  0  0  0  0
  -28.1807  -24.4941   17.5409 O   0  0  0  0  0  0  0  0  0  0  0  0
  -31.8652  -14.8128   20.2434 O   0  0  0  0  0  0  0  0  0  0  0  0
  -21.4588   -7.1124   21.7846 O   0  0  0  0  0  0  0  0  0  0  0  0
  -29.7151  -22.8036   23.9549 O   0  0  0  0  0  0  0  0  0  1  0  0
  -23.7756   -3.0785   24.7450 F   0  0  0  0  0  0  0  0  0  0  0  0
  -20.3631   -6.3120   24.1932 F   0  0  0  0  0  0  0  0  0  0  0  0
  1  2  1  0  0  0  0
  1  6  2  0  0  0  0
  2  7  2  0  0  0  0
  3  9  1  0  0  0  0
  3 10  2  0  0  0  0
  4 11  2  0  0  0  0
  4 18  1  0  0  0  0
  5 12  1  0  0  0  0
  5 18  2  0  0  0  0
  6 20  1  0  0  0  0
  7 22  1  0  0  0  0
  8 13  2  0  0  0  0
  8 21  1  0  0  0  0
  9 25  2  0  0  0  0
 10 26  1  0  0  0  0
 11 27  1  0  0  0  0
 12 27  2  0  0  0  0
 13 28  1  0  0  0  0
 14 15  2  0  0  0  0
 14 29  1  0  0  0  0
 15 30  1  0  0  0  0
 16 23  1  0  0  0  0
 16 28  2  0  0  0  0
 17 30  2  0  0  0  0
 17 31  1  0  0  0  0
 18 32  1  0  0  0  0
 19 32  1  0  0  0  0
 19 33  2  0  0  0  0
 19 34  1  0  0  0  0
 20 22  2  0  0  0  0
 20 40  1  0  0  0  0
 21 23  2  0  0  0  0
 21 41  1  0  0  0  0
 22 49  1  0  0  0  0
 23 42  1  0  0  0  0
 24 25  1  0  0  0  0
 24 26  2  0  0  0  0
 24 52  1  0  0  0  0
 25 74  1  0  0  0  0
 26 77  1  0  0  0  0
 27 85  1  0  0  0  0
 28 86  1  0  0  0  0
 29 31  2  0  0  0  0
 29 85  1  0  0  0  0
 30 87  1  0  0  0  0
 31 88  1  0  0  0  0
 32 68  2  0  0  0  0
 33 69  1  0  0  0  0
 33 72  1  0  0  0  0
 34 73  1  0  0  0  0
 34 79  2  0  0  0  0
 35 50  1  0  0  0  0
 35 75  1  0  0  0  0
 35 80  2  0  0  0  0
 36 65  1  0  0  0  0
 36 70  1  0  0  0  0
 36 81  2  0  0  0  0
 37 59  1  0  0  0  0
 37 77  1  0  0  0  0
 37 82  2  0  0  0  0
 38 66  1  0  0  0  0
 38 76  1  0  0  0  0
 38 83  2  0  0  0  0
 39 71  1  0  0  0  0
 39 74  1  0  0  0  0
 39 84  2  0  0  0  0
 40 43  1  0  0  0  0
 41 50  1  0  0  0  0
 42 70  1  0  0  0  0
 43 45  1  0  0  0  0
 44 46  1  0  0  0  0
 44 47  1  0  0  0  0
 45 49  1  0  0  0  0
 46 51  1  0  0  0  0
 47 71  1  0  0  0  0
 48 51  1  0  0  0  0
 48 71  1  0  0  0  0
 49 75  1  0  0  0  0
 50 70  1  0  0  0  0
 51 69  1  0  0  0  0
 53 60  1  0  0  0  0
 54 66  1  0  0  0  0
 55 67  1  0  0  0  0
 56 67  1  0  0  0  0
 57 67  1  0  0  0  0
 58 78  1  0  0  0  0
 59 61  1  0  0  0  0
 60 62  1  0  0  0  0
 61 62  1  0  0  0  0
 63 64  1  0  0  0  0
 63 77  1  0  0  0  0
 64 86  1  0  0  0  0
 65 67  1  0  0  0  0
 65 76  1  0  0  0  0
 66 78  1  0  0  0  0
 68 69  1  0  0  0  0
M  CHG  1  78   1
M  ISO  4  39 100  64 101  74 100  86 101
M  END
> <Batch ID>
0004

> <Smiles>
CCCCCC(=O)N(C[101CH2:1][101O:1]c1ccc2c(c1)CN(C(=O)C(NC(=O)C(C)NC)C(C)(C)C)C(C(=O)NC1CCCc3ccccc31)C2)c1cccc([100NH:0][100C:0](=O)N2CCCC(n3nc(-c4ccc(Oc5ccc(F)cc5F)cc4)c(C(N)=O)c3N)C2)c1C

> <Shape>
0.237

> <Color>
0.194

> <Negative vol penalty>
0.000

$$$$

  -OEChem-04052315243D

 83 91  0     1  0  0  0  0  0999 V2000
  -17.9292  -25.3659   21.8913 C   0  0  0  0  0  0  0  0  0  0  0  0
  -19.1999  -24.8977   22.2097 C   0  0  0  0  0  0  0  0  0  0  0  0
  -23.8851   -9.9120   21.6745 C   0  0  0  0  0  0  0  0  0  0  0  0
  -24.4460  -11.0690   23.7200 C   0  0  0  0  0  0  0  0  0  0  0  0
  -17.7769  -26.6215   21.3047 C   0  0  0  0  0  0  0  0  0  0  0  0
  -20.3193  -25.6845   21.9405 C   0  0  0  0  0  0  0  0  0  0  0  0
  -25.4558  -26.0360   25.2570 C   0  0  0  0  0  0  0  0  0  0  0  0
  -31.3515  -20.2162   21.3040 C   0  0  0  0  0  0  0  0  0  0  0  0
  -31.0129  -18.9287   20.8878 C   0  0  0  0  0  0  0  0  0  0  0  0
  -23.3860   -8.8417   22.4168 C   0  0  0  0  0  0  0  0  0  0  0  0
  -23.9468   -9.9987   24.4622 C   0  0  0  0  0  0  0  0  0  0  0  0
  -26.7041  -25.4306   25.1198 C   0  0  0  0  0  0  0  0  0  0  0  0
  -20.5707   -8.1013   24.1368 C   0  0  0  0  0  0  0  0  0  0  0  0
  -19.3451   -7.5595   23.7496 C   0  0  0  0  0  0  0  0  0  0  0  0
  -27.5230  -27.3916   23.9782 C   0  0  0  0  0  0  0  0  0  0  0  0
  -29.0082  -20.7595   21.5298 C   0  0  0  0  0  0  0  0  0  0  0  0
  -20.4054   -5.4189   23.3885 C   0  0  0  0  0  0  0  0  0  0  0  0
  -24.4152  -11.0257   22.3261 C   0  0  0  0  0  0  0  0  0  0  0  0
  -24.2213  -13.2625   21.1151 C   0  0  0  0  0  0  0  0  0  0  0  0
  -18.8942  -27.4281   21.0371 C   0  0  0  0  0  0  0  0  0  0  0  0
  -25.2281  -27.3216   24.7453 C   0  0  0  0  0  0  0  0  0  0  0  0
  -20.1819  -26.9515   21.3485 C   0  0  0  0  0  0  0  0  0  0  0  0
  -26.2716  -28.0121   24.1125 C   0  0  0  0  0  0  0  0  0  0  0  0
  -30.3491  -21.1316   21.6250 C   0  0  0  0  0  0  0  0  0  0  0  0
  -29.6720  -18.5565   20.7926 C   0  0  0  0  0  0  0  0  0  0  0  0
  -28.6696  -19.4719   21.1136 C   0  0  0  0  0  0  0  0  0  0  0  0
  -23.4168   -8.8851   23.8106 C   0  0  0  0  0  0  0  0  0  0  0  0
  -27.7371  -26.1072   24.4778 C   0  0  0  0  0  0  0  0  0  0  0  0
  -21.7137   -7.3018   24.1498 C   0  0  0  0  0  0  0  0  0  0  0  0
  -19.2624   -6.2183   23.3755 C   0  0  0  0  0  0  0  0  0  0  0  0
  -21.6310   -5.9607   23.7756 C   0  0  0  0  0  0  0  0  0  0  0  0
  -24.9315  -12.1313   21.5599 C   0  0  0  0  0  0  0  0  0  0  0  0
  -25.1542  -14.0092   20.4379 C   0  0  0  0  0  0  0  0  0  0  0  0
  -22.8417  -13.6075   21.2978 C   0  0  0  0  0  0  0  0  0  0  0  0
  -23.2920  -28.5491   22.5434 C   0  0  0  0  0  0  0  0  0  0  0  0
  -24.4989  -31.3641   23.6119 C   0  0  0  0  0  0  0  0  0  0  0  0
  -29.8290  -23.4697   22.4040 C   0  0  0  0  0  0  0  0  0  0  0  0
  -27.0493  -33.0218   25.1594 C   0  0  0  0  0  0  0  0  0  0  0  0
  -30.2433  -16.2288   20.0170 C   0  0  0  0  0  0  0  0  0  0  0  0
  -18.6833  -28.7585   20.3585 C   0  0  0  0  0  0  0  0  0  0  0  0
  -23.8835  -27.9714   24.9251 C   0  0  0  0  0  0  0  0  0  0  0  0
  -26.0845  -29.4022   23.5636 C   0  0  0  0  0  0  0  0  0  0  0  0
  -19.8917  -29.6869   20.4494 C   0  0  0  0  0  0  0  0  0  0  0  0
  -29.8540  -12.8524   18.9560 C   0  0  0  0  0  0  0  0  0  0  0  0
  -21.1719  -28.9319   20.1061 C   0  0  0  0  0  0  0  0  0  0  0  0
  -28.4802  -12.4569   19.5022 C   0  0  0  0  0  0  0  0  0  0  0  0
  -30.6036  -13.7721   19.9183 C   0  0  0  0  0  0  0  0  0  0  0  0
  -28.4851  -14.5678   20.8918 C   0  0  0  0  0  0  0  0  0  0  0  0
  -21.4186  -27.7860   21.0947 C   0  0  1  0  0  0  0  0  0  0  0  0
  -23.6152  -29.0796   23.9116 C   0  0  1  0  0  0  0  0  0  0  0  0
  -27.6656  -13.6940   19.9282 C   0  0  2  0  0  0  0  0  0  0  0  0
  -27.7673  -35.3237   25.8545 C   0  0  0  0  0  0  0  0  0  0  0  0
  -25.2144  -32.0124   20.7175 C   0  0  0  0  0  0  0  0  0  0  0  0
  -26.7332  -33.8113   21.5690 C   0  0  0  0  0  0  0  0  0  0  0  0
  -24.2824  -33.9349   22.0174 C   0  0  0  0  0  0  0  0  0  0  0  0
  -27.1208  -32.2621   28.0188 C   0  0  0  0  0  0  0  0  0  0  0  0
  -30.6174  -24.7138   22.7971 C   0  0  0  0  0  0  0  0  0  0  0  0
  -29.7295  -25.8818   23.1989 C   0  0  0  0  0  0  0  0  0  1  0  0
  -25.6830  -32.2268   23.2474 C   0  0  1  0  0  0  0  0  0  0  0  0
  -27.0512  -34.0501   26.2761 C   0  0  2  0  0  0  0  0  0  0  0  0
  -25.4815  -32.9694   21.8964 C   0  0  0  0  0  0  0  0  0  0  0  0
  -26.2164  -12.1531   21.1958 N   0  0  0  0  0  0  0  0  0  0  0  0
  -26.3209  -13.3071   20.5150 N   0  0  0  0  0  0  0  0  0  0  0  0
  -24.7499  -29.9925   23.7585 N   0  0  0  0  0  0  0  0  0  0  0  0
  -29.7722  -14.9240   20.2743 N   0  0  0  0  0  0  0  0  0  0  0  0
  -27.3051  -19.1159   21.0244 N   0  0  0  0  0  0  0  0  0  0  0  0
  -25.0821  -15.1913   19.7899 N   0  0  0  0  0  0  0  0  0  0  0  0
  -22.0229  -12.7279   22.0190 N   0  0  0  0  0  0  0  0  0  0  0  0
  -30.6930  -22.4378   22.0474 N   0  0  0  0  0  0  0  0  0  0  0  0
  -29.3529  -17.2430   20.3678 N   0  0  0  0  0  0  0  0  0  0  0  0
  -21.9484  -28.2983   22.3402 N   0  0  0  0  0  0  0  0  0  0  0  0
  -25.9108  -33.1096   24.3863 N   0  0  0  0  0  0  0  0  0  0  0  0
  -27.7352  -33.5036   27.4822 N   0  3  0  0  0  0  0  0  0  0  0  0
  -22.3458  -14.6565   20.8211 O   0  0  0  0  0  0  0  0  0  0  0  0
  -24.1946  -28.3813   21.7317 O   0  0  0  0  0  0  0  0  0  0  0  0
  -23.3936  -31.8889   23.7681 O   0  0  0  0  0  0  0  0  0  0  0  0
  -28.6029  -23.4421   22.4190 O   0  0  0  0  0  0  0  0  0  0  0  0
  -27.9676  -32.2234   24.9875 O   0  0  0  0  0  0  0  0  0  0  0  0
  -31.3436  -16.4306   19.4968 O   0  0  0  0  0  0  0  0  0  0  0  0
  -22.9296   -7.8410   24.5352 O   0  0  0  0  0  0  0  0  0  0  0  0
  -28.9564  -25.5184   24.3420 O   0  0  0  0  0  0  0  0  0  1  0  0
  -18.0851   -5.6978   23.0051 F   0  0  0  0  0  0  0  0  0  0  0  0
  -22.7255   -5.1874   23.7872 F   0  0  0  0  0  0  0  0  0  0  0  0
  1  2  1  0  0  0  0
  1  5  2  0  0  0  0
  2  6  2  0  0  0  0
  3 10  2  0  0  0  0
  3 18  1  0  0  0  0
  4 11  1  0  0  0  0
  4 18  2  0  0  0  0
  5 20  1  0  0  0  0
  6 22  1  0  0  0  0
  7 12  2  0  0  0  0
  7 21  1  0  0  0  0
  8  9  2  0  0  0  0
  8 24  1  0  0  0  0
  9 25  1  0  0  0  0
 10 27  1  0  0  0  0
 11 27  2  0  0  0  0
 12 28  1  0  0  0  0
 13 14  2  0  0  0  0
 13 29  1  0  0  0  0
 14 30  1  0  0  0  0
 15 23  1  0  0  0  0
 15 28  2  0  0  0  0
 16 24  2  0  0  0  0
 16 26  1  0  0  0  0
 17 30  2  0  0  0  0
 17 31  1  0  0  0  0
 18 32  1  0  0  0  0
 19 32  1  0  0  0  0
 19 33  2  0  0  0  0
 19 34  1  0  0  0  0
 20 22  2  0  0  0  0
 20 40  1  0  0  0  0
 21 23  2  0  0  0  0
 21 41  1  0  0  0  0
 22 49  1  0  0  0  0
 23 42  1  0  0  0  0
 24 69  1  0  0  0  0
 25 26  2  0  0  0  0
 25 70  1  0  0  0  0
 26 66  1  0  0  0  0
 27 80  1  0  0  0  0
 28 81  1  0  0  0  0
 29 31  2  0  0  0  0
 29 80  1  0  0  0  0
 30 82  1  0  0  0  0
 31 83  1  0  0  0  0
 32 62  2  0  0  0  0
 33 63  1  0  0  0  0
 33 67  1  0  0  0  0
 34 68  1  0  0  0  0
 34 74  2  0  0  0  0
 35 50  1  0  0  0  0
 35 71  1  0  0  0  0
 35 75  2  0  0  0  0
 36 59  1  0  0  0  0
 36 64  1  0  0  0  0
 36 76  2  0  0  0  0
 37 57  1  0  0  0  0
 37 69  1  0  0  0  0
 37 77  2  0  0  0  0
 38 60  1  0  0  0  0
 38 72  1  0  0  0  0
 38 78  2  0  0  0  0
 39 65  1  0  0  0  0
 39 70  1  0  0  0  0
 39 79  2  0  0  0  0
 40 43  1  0  0  0  0
 41 50  1  0  0  0  0
 42 64  1  0  0  0  0
 43 45  1  0  0  0  0
 44 46  1  0  0  0  0
 44 47  1  0  0  0  0
 45 49  1  0  0  0  0
 46 51  1  0  0  0  0
 47 65  1  0  0  0  0
 48 51  1  0  0  0  0
 48 65  1  0  0  0  0
 49 71  1  0  0  0  0
 50 64  1  0  0  0  0
 51 63  1  0  0  0  0
 52 60  1  0  0  0  0
 53 61  1  0  0  0  0
 54 61  1  0  0  0  0
 55 61  1  0  0  0  0
 56 73  1  0  0  0  0
 57 58  1  0  0  0  0
 58 81  1  0  0  0  0
 59 61  1  0  0  0  0
 59 72  1  0  0  0  0
 60 73  1  0  0  0  0
 62 63  1  0  0  0  0
M  CHG  1  73   1
M  ISO  4  39 100  58 101  70 100  81 101
M  END
> <Batch ID>
0004

> <Smiles>
CNC(C)C(=O)NC(C(=O)N1Cc2cc([101O:1][101CH2:1]CC(=O)Nc3ccc([100NH:0][100C:0](=O)N4CCCC(n5nc(-c6ccc(Oc7ccc(F)cc7F)cc6)c(C(N)=O)c5N)C4)c(N)c3)ccc2CC1C(=O)NC1CCCc2ccccc21)C(C)(C)C

> <Shape>
0.286

> <Color>
0.131

> <Negative vol penalty>
0.000

$$$$

  -OEChem-04052315243D

 82 90  0     1  0  0  0  0  0999 V2000
  -29.1622  -25.8883   16.0670 C   0  0  0  0  0  0  0  0  0  0  0  0
  -28.0451  -25.7452   16.8837 C   0  0  0  0  0  0  0  0  0  0  0  0
  -23.8080  -12.7414   21.3682 C   0  0  0  0  0  0  0  0  0  0  0  0
  -26.0474  -12.0682   20.7607 C   0  0  0  0  0  0  0  0  0  0  0  0
  -30.2387  -26.6668   16.4904 C   0  0  0  0  0  0  0  0  0  0  0  0
  -28.0042  -26.3797   18.1247 C   0  0  0  0  0  0  0  0  0  0  0  0
  -23.5615  -28.6462   19.0023 C   0  0  0  0  0  0  0  0  0  0  0  0
  -23.3797  -11.4188   21.2549 C   0  0  0  0  0  0  0  0  0  0  0  0
  -25.6191  -10.7455   20.6474 C   0  0  0  0  0  0  0  0  0  0  0  0
  -22.4977  -27.8332   19.3910 C   0  0  0  0  0  0  0  0  0  0  0  0
  -23.5138   -8.5900   23.1022 C   0  0  0  0  0  0  0  0  0  0  0  0
  -22.6954   -8.0848   24.1125 C   0  0  0  0  0  0  0  0  0  0  0  0
  -22.8574  -28.4716   21.6893 C   0  0  0  0  0  0  0  0  0  0  0  0
  -20.9567   -7.6575   22.4903 C   0  0  0  0  0  0  0  0  0  0  0  0
  -23.7066  -24.5714   21.8905 C   0  0  0  0  0  0  0  0  0  0  0  0
  -25.1419  -13.0661   21.1211 C   0  0  0  0  0  0  0  0  0  0  0  0
  -26.0883  -15.0675   22.3885 C   0  0  0  0  0  0  0  0  0  0  0  0
  -30.2069  -27.3190   17.7331 C   0  0  0  0  0  0  0  0  0  0  0  0
  -24.2894  -29.3708   19.9571 C   0  0  0  0  0  0  0  0  0  0  0  0
  -29.0817  -27.1666   18.5657 C   0  0  0  0  0  0  0  0  0  0  0  0
  -23.9284  -29.2951   21.3099 C   0  0  0  0  0  0  0  0  0  0  0  0
  -24.1850  -22.5552   21.0099 C   0  0  0  0  0  0  0  0  0  0  0  0
  -24.2852  -10.4209   20.8945 C   0  0  0  0  0  0  0  0  0  0  0  0
  -22.1473  -27.7435   20.7350 C   0  0  0  0  0  0  0  0  0  0  0  0
  -23.0536   -8.6290   21.7860 C   0  0  0  0  0  0  0  0  0  0  0  0
  -24.7305  -23.8128   21.3675 C   0  0  0  0  0  0  0  0  0  0  0  0
  -21.4169   -7.6186   23.8066 C   0  0  0  0  0  0  0  0  0  0  0  0
  -21.7750   -8.1628   21.4801 C   0  0  0  0  0  0  0  0  0  0  0  0
  -25.5849  -14.4322   21.2375 C   0  0  0  0  0  0  0  0  0  0  0  0
  -26.3639  -16.3496   21.9802 C   0  0  0  0  0  0  0  0  0  0  0  0
  -22.8444  -22.5836   21.3250 C   0  0  0  0  0  0  0  0  0  0  0  0
  -26.2890  -14.5454   23.7086 C   0  0  0  0  0  0  0  0  0  0  0  0
  -27.3157  -29.3911   20.9290 C   0  0  0  0  0  0  0  0  0  0  0  0
  -26.3296  -31.9399   22.6765 C   0  0  0  0  0  0  0  0  0  0  0  0
  -23.7532  -33.6052   24.1716 C   0  0  0  0  0  0  0  0  0  0  0  0
  -24.5050  -20.9132   19.1669 C   0  0  0  0  0  0  0  0  0  0  0  0
  -31.4141  -28.1114   18.1681 C   0  0  0  0  0  0  0  0  0  0  0  0
  -25.4172  -30.2641   19.5185 C   0  0  0  0  0  0  0  0  0  0  0  0
  -24.6650  -30.0686   22.3717 C   0  0  0  0  0  0  0  0  0  0  0  0
  -31.1352  -29.0548   19.3353 C   0  0  0  0  0  0  0  0  0  0  0  0
  -26.5106  -18.3943   17.3659 C   0  0  0  0  0  0  0  0  0  0  0  0
  -30.3514  -28.3349   20.4281 C   0  0  0  0  0  0  0  0  0  0  0  0
  -26.4288  -17.1750   18.2828 C   0  0  0  0  0  0  0  0  0  0  0  0
  -25.2664  -19.2706   17.4760 C   0  0  0  0  0  0  0  0  0  0  0  0
  -24.8718  -18.4772   19.7879 C   0  0  0  0  0  0  0  0  0  0  0  0
  -28.9895  -27.8592   19.9080 C   0  0  1  0  0  0  0  0  0  0  0  0
  -26.4155  -30.5575   20.6342 C   0  0  1  0  0  0  0  0  0  0  0  0
  -26.1297  -17.5971   19.7317 C   0  0  1  0  0  0  0  0  0  0  0  0
  -23.2628  -35.6386   25.5582 C   0  0  0  0  0  0  0  0  0  0  0  0
  -27.4602  -30.5322   25.1362 C   0  0  0  0  0  0  0  0  0  0  0  0
  -26.1306  -32.1041   26.5608 C   0  0  0  0  0  0  0  0  0  0  0  0
  -27.9028  -32.9920   25.0464 C   0  0  0  0  0  0  0  0  0  0  0  0
  -26.1390  -20.9938   21.0359 C   0  0  0  0  0  0  0  0  0  0  0  0
  -21.9792  -34.7386   22.0914 C   0  0  0  0  0  0  0  0  0  0  0  0
  -20.2697  -24.7050   21.2178 C   0  0  0  0  0  0  0  0  0  0  0  0
  -21.2145  -24.2789   22.3436 C   0  0  0  0  0  0  0  0  0  0  0  0
  -20.8493  -25.7939   20.3224 C   0  0  0  0  0  0  0  0  0  1  0  0
  -25.7433  -32.1287   24.0548 C   0  0  1  0  0  0  0  0  0  0  0  0
  -23.3533  -35.0695   24.1508 C   0  0  2  0  0  0  0  0  0  0  0  0
  -26.7964  -31.9231   25.1800 C   0  0  0  0  0  0  0  0  0  0  0  0
  -25.5419  -15.2439   20.1776 N   0  0  0  0  0  0  0  0  0  0  0  0
  -22.5648  -23.8142   21.8594 N   0  0  0  0  0  0  0  0  0  0  0  0
  -26.0218  -16.4024   20.6610 N   0  0  0  0  0  0  0  0  0  0  0  0
  -25.7643  -30.9233   21.8936 N   0  0  0  0  0  0  0  0  0  0  0  0
  -24.9785  -19.6199   18.8676 N   0  0  0  0  0  0  0  0  0  0  0  0
  -26.8630  -17.4258   22.6246 N   0  0  0  0  0  0  0  0  0  0  0  0
  -25.9531  -13.2074   23.9561 N   0  0  0  0  0  0  0  0  0  0  0  0
  -28.0584  -28.9653   19.8443 N   0  0  0  0  0  0  0  0  0  0  0  0
  -25.1180  -33.4468   24.0552 N   0  0  0  0  0  0  0  0  0  0  0  0
  -24.8808  -21.4337   20.4241 N   0  0  0  0  0  0  0  0  0  0  0  0
  -22.0275  -35.2351   23.4908 N   0  3  0  0  0  0  0  0  0  0  0  0
  -26.7371  -15.2492   24.6453 O   0  0  0  0  0  0  0  0  0  0  0  0
  -27.3360  -28.9137   22.0575 O   0  0  0  0  0  0  0  0  0  0  0  0
  -27.2503  -32.6722   22.3054 O   0  0  0  0  0  0  0  0  0  0  0  0
  -22.9369  -32.6934   24.2840 O   0  0  0  0  0  0  0  0  0  0  0  0
  -23.8259  -21.5618   18.3620 O   0  0  0  0  0  0  0  0  0  0  0  0
  -25.9975  -24.2326   21.2409 O   0  0  0  0  0  0  0  0  0  0  0  0
  -21.8952  -21.6658   21.1880 O   0  0  0  0  0  0  0  0  0  0  0  0
  -23.8676   -9.1301   20.7840 O   0  0  0  0  0  0  0  0  0  0  0  0
  -21.1098  -26.9501   21.1172 O   0  0  0  0  0  0  0  0  0  1  0  0
  -20.6317   -7.1320   24.7766 F   0  0  0  0  0  0  0  0  0  0  0  0
  -21.3279   -8.1966   20.2172 F   0  0  0  0  0  0  0  0  0  0  0  0
  1  2  1  0  0  0  0
  1  5  2  0  0  0  0
  2  6  2  0  0  0  0
  3  8  2  0  0  0  0
  3 16  1  0  0  0  0
  4  9  1  0  0  0  0
  4 16  2  0  0  0  0
  5 18  1  0  0  0  0
  6 20  1  0  0  0  0
  7 10  2  0  0  0  0
  7 19  1  0  0  0  0
  8 23  1  0  0  0  0
  9 23  2  0  0  0  0
 10 24  1  0  0  0  0
 11 12  2  0  0  0  0
 11 25  1  0  0  0  0
 12 27  1  0  0  0  0
 13 21  1  0  0  0  0
 13 24  2  0  0  0  0
 14 27  2  0  0  0  0
 14 28  1  0  0  0  0
 15 26  2  0  0  0  0
 15 62  1  0  0  0  0
 16 29  1  0  0  0  0
 17 29  1  0  0  0  0
 17 30  2  0  0  0  0
 17 32  1  0  0  0  0
 18 20  2  0  0  0  0
 18 37  1  0  0  0  0
 19 21  2  0  0  0  0
 19 38  1  0  0  0  0
 20 46  1  0  0  0  0
 21 39  1  0  0  0  0
 22 26  1  0  0  0  0
 22 31  2  0  0  0  0
 22 70  1  0  0  0  0
 23 79  1  0  0  0  0
 24 80  1  0  0  0  0
 25 28  2  0  0  0  0
 25 79  1  0  0  0  0
 26 77  1  0  0  0  0
 27 81  1  0  0  0  0
 28 82  1  0  0  0  0
 29 61  2  0  0  0  0
 30 63  1  0  0  0  0
 30 66  1  0  0  0  0
 31 62  1  0  0  0  0
 31 78  1  0  0  0  0
 32 67  1  0  0  0  0
 32 72  2  0  0  0  0
 33 47  1  0  0  0  0
 33 68  1  0  0  0  0
 33 73  2  0  0  0  0
 34 58  1  0  0  0  0
 34 64  1  0  0  0  0
 34 74  2  0  0  0  0
 35 59  1  0  0  0  0
 35 69  1  0  0  0  0
 35 75  2  0  0  0  0
 36 65  1  0  0  0  0
 36 70  1  0  0  0  0
 36 76  2  0  0  0  0
 37 40  1  0  0  0  0
 38 47  1  0  0  0  0
 39 64  1  0  0  0  0
 40 42  1  0  0  0  0
 41 43  1  0  0  0  0
 41 44  1  0  0  0  0
 42 46  1  0  0  0  0
 43 48  1  0  0  0  0
 44 65  1  0  0  0  0
 45 48  1  0  0  0  0
 45 65  1  0  0  0  0
 46 68  1  0  0  0  0
 47 64  1  0  0  0  0
 48 63  1  0  0  0  0
 49 59  1  0  0  0  0
 50 60  1  0  0  0  0
 51 60  1  0  0  0  0
 52 60  1  0  0  0  0
 53 70  1  0  0  0  0
 54 71  1  0  0  0  0
 55 56  1  0  0  0  0
 55 57  1  0  0  0  0
 56 62  1  0  0  0  0
 57 80  1  0  0  0  0
 58 60  1  0  0  0  0
 58 69  1  0  0  0  0
 59 71  1  0  0  0  0
 61 63  1  0  0  0  0
M  CHG  1  71   1
M  ISO  4  36 100  57 101  70 100  80 101
M  END
> <Batch ID>
0004

> <Smiles>
CNC(C)C(=O)NC(C(=O)N1Cc2cc([101O:1][101CH2:1]CCN3CC(=O)C([100N:0](C)[100C:0](=O)N4CCCC(n5nc(-c6ccc(Oc7ccc(F)cc7F)cc6)c(C(N)=O)c5N)C4)C3=O)ccc2CC1C(=O)NC1CCCc2ccccc21)C(C)(C)C

> <Shape>
0.235

> <Color>
0.072

> <Negative vol penalty>
0.000

$$$$

  -OEChem-04052315243D

 91 99  0     1  0  0  0  0  0999 V2000
  -21.2971   -7.4168   18.6631 C   0  0  0  0  0  0  0  0  0  0  0  0
  -20.8791   -8.7042   18.3418 C   0  0  0  0  0  0  0  0  0  0  0  0
  -29.6043  -28.2931   19.9962 C   0  0  0  0  0  0  0  0  0  0  0  0
  -27.7579  -26.9249   20.7418 C   0  0  0  0  0  0  0  0  0  0  0  0
  -22.2273   -7.2213   19.6831 C   0  0  0  0  0  0  0  0  0  0  0  0
  -21.3904   -9.7969   19.0410 C   0  0  0  0  0  0  0  0  0  0  0  0
  -23.1550  -16.6795   18.1284 C   0  0  0  0  0  0  0  0  0  0  0  0
  -23.3022  -28.3156   21.1675 C   0  0  0  0  0  0  0  0  0  0  0  0
  -21.6708  -28.8035   19.4535 C   0  0  0  0  0  0  0  0  0  0  0  0
  -30.3137  -27.1445   19.6453 C   0  0  0  0  0  0  0  0  0  0  0  0
  -28.4673  -25.7763   20.3908 C   0  0  0  0  0  0  0  0  0  0  0  0
  -22.9217  -17.9346   18.6888 C   0  0  0  0  0  0  0  0  0  0  0  0
  -23.5545  -27.0783   20.5752 C   0  0  0  0  0  0  0  0  0  0  0  0
  -21.9232  -27.5661   18.8612 C   0  0  0  0  0  0  0  0  0  0  0  0
  -29.6474  -22.4965   19.3573 C   0  0  0  0  0  0  0  0  0  0  0  0
  -28.9640  -21.4978   18.6636 C   0  0  0  0  0  0  0  0  0  0  0  0
  -24.5832  -17.4826   20.3782 C   0  0  0  0  0  0  0  0  0  0  0  0
  -28.5011  -23.0561   16.8763 C   0  0  0  0  0  0  0  0  0  0  0  0
  -28.3264  -28.1833   20.5445 C   0  0  0  0  0  0  0  0  0  0  0  0
  -26.7157  -30.1092   20.0926 C   0  0  0  0  0  0  0  0  0  0  0  0
  -22.7575   -8.3129   20.3887 C   0  0  0  0  0  0  0  0  0  0  0  0
  -24.0980  -15.8107   18.6962 C   0  0  0  0  0  0  0  0  0  0  0  0
  -22.3276   -9.6158   20.0723 C   0  0  0  0  0  0  0  0  0  0  0  0
  -24.8285  -16.2180   19.8216 C   0  0  0  0  0  0  0  0  0  0  0  0
  -22.3603  -29.1783   20.6067 C   0  0  0  0  0  0  0  0  0  0  0  0
  -29.7452  -25.8862   19.8426 C   0  0  0  0  0  0  0  0  0  0  0  0
  -22.8650  -26.7035   19.4220 C   0  0  0  0  0  0  0  0  0  0  0  0
  -23.6338  -18.3352   19.8155 C   0  0  0  0  0  0  0  0  0  0  0  0
  -29.7576  -23.7750   18.8105 C   0  0  0  0  0  0  0  0  0  0  0  0
  -28.3908  -21.7776   17.4231 C   0  0  0  0  0  0  0  0  0  0  0  0
  -29.1845  -24.0548   17.5700 C   0  0  0  0  0  0  0  0  0  0  0  0
  -27.5933  -29.3694   20.9077 C   0  0  0  0  0  0  0  0  0  0  0  0
  -26.2808  -31.1335   20.8977 C   0  0  0  0  0  0  0  0  0  0  0  0
  -26.3283  -29.8902   18.7297 C   0  0  0  0  0  0  0  0  0  0  0  0
  -23.9770  -12.9217   20.0165 C   0  0  0  0  0  0  0  0  0  0  0  0
  -27.2058  -13.2309   20.0541 C   0  0  0  0  0  0  0  0  0  0  0  0
  -20.9159  -31.4817   23.1994 C   0  0  0  0  0  0  0  0  0  0  0  0
  -29.9181  -15.3022   20.0556 C   0  0  0  0  0  0  0  0  0  0  0  0
  -25.8129  -31.7342   26.8367 C   0  0  0  0  0  0  0  0  0  0  0  0
  -23.7251   -8.0485   21.5150 C   0  0  0  0  0  0  0  0  0  0  0  0
  -24.3570  -14.4707   18.0640 C   0  0  0  0  0  0  0  0  0  0  0  0
  -25.8663  -15.3306   20.4572 C   0  0  0  0  0  0  0  0  0  0  0  0
  -24.4998   -9.2876   21.9560 C   0  0  0  0  0  0  0  0  0  0  0  0
  -27.6539  -33.8177   24.6126 C   0  0  0  0  0  0  0  0  0  0  0  0
  -23.5576  -10.4760   22.1200 C   0  0  0  0  0  0  0  0  0  0  0  0
  -27.7679  -32.9807   23.3373 C   0  0  0  0  0  0  0  0  0  0  0  0
  -27.7406  -32.9505   25.8666 C   0  0  0  0  0  0  0  0  0  0  0  0
  -26.9018  -30.9885   24.6334 C   0  0  0  0  0  0  0  0  0  0  0  0
  -22.8778  -10.8284   20.7914 C   0  0  1  0  0  0  0  0  0  0  0  0
  -24.9727  -13.4632   19.0300 C   0  0  1  0  0  0  0  0  0  0  0  0
  -26.7637  -31.8124   23.3417 C   0  0  2  0  0  0  0  0  0  0  0  0
  -32.4262  -15.2636   20.1287 C   0  0  0  0  0  0  0  0  0  0  0  0
  -27.1066  -12.5962   23.0369 C   0  0  0  0  0  0  0  0  0  0  0  0
  -29.4365  -13.4911   23.2339 C   0  0  0  0  0  0  0  0  0  0  0  0
  -28.9838  -11.5013   21.7993 C   0  0  0  0  0  0  0  0  0  0  0  0
  -30.1311  -16.6413   17.4249 C   0  0  0  0  0  0  0  0  0  0  0  0
  -22.0909  -30.5015   21.2395 C   0  0  0  0  0  0  0  0  0  0  0  0
  -20.0583  -31.0714   24.3852 C   0  0  0  0  0  0  0  0  0  0  0  0
  -20.6591  -31.4484   25.7385 C   0  0  0  0  0  0  0  0  0  0  0  0
  -21.9914  -30.7393   26.0027 C   0  0  0  0  0  0  0  0  0  0  0  0
  -22.5812  -31.1556   27.3538 C   0  0  0  0  0  0  0  0  0  0  0  0
  -23.0760  -23.0957   19.1282 C   0  0  0  0  0  0  0  0  0  0  0  0
  -23.4730  -21.9355   20.0343 C   0  0  0  0  0  0  0  0  0  0  0  0
  -23.8800  -30.4224   27.6745 C   0  0  0  0  0  0  0  0  0  0  0  0
  -23.5195  -24.4345   19.7030 C   0  0  0  0  0  0  0  0  0  0  0  0
  -22.9927  -20.6009   19.4818 C   0  0  0  0  0  0  0  0  0  1  0  0
  -28.2155  -13.7840   21.0306 C   0  0  1  0  0  0  0  0  0  0  0  0
  -31.1956  -15.2896   19.2356 C   0  0  2  0  0  0  0  0  0  0  0  0
  -28.4147  -12.8593   22.2646 C   0  0  0  0  0  0  0  0  0  0  0  0
  -27.7102  -29.8802   22.1362 N   0  0  0  0  0  0  0  0  0  0  0  0
  -26.9004  -30.9521   22.0991 N   0  0  0  0  0  0  0  0  0  0  0  0
  -26.0789  -14.0274   19.8060 N   0  0  0  0  0  0  0  0  0  0  0  0
  -26.7615  -31.8624   25.8087 N   0  0  0  0  0  0  0  0  0  0  0  0
  -25.4326  -32.1626   20.6881 N   0  0  0  0  0  0  0  0  0  0  0  0
  -26.8695  -28.7906   18.0497 N   0  0  0  0  0  0  0  0  0  0  0  0
  -23.7896  -11.5551   19.9342 N   0  0  0  0  0  0  0  0  0  0  0  0
  -21.2957  -30.3851   22.4356 N   0  0  0  0  0  0  0  0  0  0  0  0
  -29.4328  -14.0286   20.2645 N   0  0  0  0  0  0  0  0  0  0  0  0
  -24.9178  -30.6801   26.7013 N   0  0  0  0  0  0  0  0  0  0  0  0
  -31.2680  -16.5012   18.3709 N   0  3  0  0  0  0  0  0  0  0  0  0
  -25.5386  -30.6565   18.1274 O   0  0  0  0  0  0  0  0  0  0  0  0
  -23.4210  -13.6869   20.7956 O   0  0  0  0  0  0  0  0  0  0  0  0
  -27.4129  -12.1359   19.5254 O   0  0  0  0  0  0  0  0  0  0  0  0
  -21.2066  -32.6484   22.9497 O   0  0  0  0  0  0  0  0  0  0  0  0
  -29.4043  -16.3380   20.4724 O   0  0  0  0  0  0  0  0  0  0  0  0
  -25.7637  -32.5055   27.8009 O   0  0  0  0  0  0  0  0  0  0  0  0
  -30.4371  -24.7652   19.5001 O   0  0  0  0  0  0  0  0  0  0  0  0
  -23.1140  -25.4882   18.8395 O   0  0  0  0  0  0  0  0  0  0  0  0
  -23.4075  -19.5595   20.3648 O   0  0  0  0  0  0  0  0  0  1  0  0
  -27.7359  -20.8181   16.7564 F   0  0  0  0  0  0  0  0  0  0  0  0
  -29.2881  -25.2809   17.0391 F   0  0  0  0  0  0  0  0  0  0  0  0
  1  2  1  0  0  0  0
  1  5  2  0  0  0  0
  2  6  2  0  0  0  0
  3 10  2  0  0  0  0
  3 19  1  0  0  0  0
  4 11  1  0  0  0  0
  4 19  2  0  0  0  0
  5 21  1  0  0  0  0
  6 23  1  0  0  0  0
  7 12  2  0  0  0  0
  7 22  1  0  0  0  0
  8 13  2  0  0  0  0
  8 25  1  0  0  0  0
  9 14  1  0  0  0  0
  9 25  2  0  0  0  0
 10 26  1  0  0  0  0
 11 26  2  0  0  0  0
 12 28  1  0  0  0  0
 13 27  1  0  0  0  0
 14 27  2  0  0  0  0
 15 16  2  0  0  0  0
 15 29  1  0  0  0  0
 16 30  1  0  0  0  0
 17 24  1  0  0  0  0
 17 28  2  0  0  0  0
 18 30  2  0  0  0  0
 18 31  1  0  0  0  0
 19 32  1  0  0  0  0
 20 32  1  0  0  0  0
 20 33  2  0  0  0  0
 20 34  1  0  0  0  0
 21 23  2  0  0  0  0
 21 40  1  0  0  0  0
 22 24  2  0  0  0  0
 22 41  1  0  0  0  0
 23 49  1  0  0  0  0
 24 42  1  0  0  0  0
 25 57  1  0  0  0  0
 26 87  1  0  0  0  0
 27 88  1  0  0  0  0
 28 89  1  0  0  0  0
 29 31  2  0  0  0  0
 29 87  1  0  0  0  0
 30 90  1  0  0  0  0
 31 91  1  0  0  0  0
 32 70  2  0  0  0  0
 33 71  1  0  0  0  0
 33 74  1  0  0  0  0
 34 75  1  0  0  0  0
 34 81  2  0  0  0  0
 35 50  1  0  0  0  0
 35 76  1  0  0  0  0
 35 82  2  0  0  0  0
 36 67  1  0  0  0  0
 36 72  1  0  0  0  0
 36 83  2  0  0  0  0
 37 58  1  0  0  0  0
 37 77  1  0  0  0  0
 37 84  2  0  0  0  0
 38 68  1  0  0  0  0
 38 78  1  0  0  0  0
 38 85  2  0  0  0  0
 39 73  1  0  0  0  0
 39 79  1  0  0  0  0
 39 86  2  0  0  0  0
 40 43  1  0  0  0  0
 41 50  1  0  0  0  0
 42 72  1  0  0  0  0
 43 45  1  0  0  0  0
 44 46  1  0  0  0  0
 44 47  1  0  0  0  0
 45 49  1  0  0  0  0
 46 51  1  0  0  0  0
 47 73  1  0  0  0  0
 48 51  1  0  0  0  0
 48 73  1  0  0  0  0
 49 76  1  0  0  0  0
 50 72  1  0  0  0  0
 51 71  1  0  0  0  0
 52 68  1  0  0  0  0
 53 69  1  0  0  0  0
 54 69  1  0  0  0  0
 55 69  1  0  0  0  0
 56 80  1  0  0  0  0
 57 77  1  0  0  0  0
 58 59  1  0  0  0  0
 59 60  1  0  0  0  0
 60 61  1  0  0  0  0
 61 64  1  0  0  0  0
 62 63  1  0  0  0  0
 62 65  1  0  0  0  0
 63 66  1  0  0  0  0
 64 79  1  0  0  0  0
 65 88  1  0  0  0  0
 66 89  1  0  0  0  0
 67 69  1  0  0  0  0
 67 78  1  0  0  0  0
 68 80  1  0  0  0  0
 70 71  1  0  0  0  0
M  CHG  1  80   1
M  ISO  4  39 100  66 101  79 100  89 101
M  END
> <Batch ID>
0004

> <Smiles>
CNC(C)C(=O)NC(C(=O)N1Cc2cc([101O:1][101CH2:1]CCCOc3ccc(CNC(=O)CCCCC[100NH:0][100C:0](=O)N4CCCC(n5nc(-c6ccc(Oc7ccc(F)cc7F)cc6)c(C(N)=O)c5N)C4)cc3)ccc2CC1C(=O)NC1CCCc2ccccc21)C(C)(C)C

> <Shape>
0.296

> <Color>
0.039

> <Negative vol penalty>
0.000

$$$$

  -OEChem-04052315243D

 85 94  0     1  0  0  0  0  0999 V2000
  -29.8361  -10.6851   20.0289 C   0  0  0  0  0  0  0  0  0  0  0  0
  -29.7878  -12.0047   19.5908 C   0  0  0  0  0  0  0  0  0  0  0  0
  -26.9935  -24.0379   23.4635 C   0  0  0  0  0  0  0  0  0  0  0  0
  -26.7983  -23.3044   22.3045 C   0  0  0  0  0  0  0  0  0  0  0  0
  -24.0272  -25.8416   21.3483 C   0  0  0  0  0  0  0  0  0  0  0  0
  -23.5319  -28.1284   21.9499 C   0  0  0  0  0  0  0  0  0  0  0  0
  -28.7074  -10.1000   20.6011 C   0  0  0  0  0  0  0  0  0  0  0  0
  -28.6102  -12.7395   19.7237 C   0  0  0  0  0  0  0  0  0  0  0  0
  -28.2716  -24.4853   23.7854 C   0  0  0  0  0  0  0  0  0  0  0  0
  -29.4266  -17.4147   21.4904 C   0  0  0  0  0  0  0  0  0  0  0  0
  -27.8813  -23.0151   21.4730 C   0  0  0  0  0  0  0  0  0  0  0  0
  -22.8352  -25.4271   21.9423 C   0  0  0  0  0  0  0  0  0  0  0  0
  -22.3399  -27.7140   22.5440 C   0  0  0  0  0  0  0  0  0  0  0  0
  -29.9072  -18.3618   20.5872 C   0  0  0  0  0  0  0  0  0  0  0  0
  -18.9924  -27.3043   23.9021 C   0  0  0  0  0  0  0  0  0  0  0  0
  -17.8423  -28.0479   23.6377 C   0  0  0  0  0  0  0  0  0  0  0  0
  -27.6766  -19.2453   20.3361 C   0  0  0  0  0  0  0  0  0  0  0  0
  -18.0812  -27.5787   21.2797 C   0  0  0  0  0  0  0  0  0  0  0  0
  -24.3756  -27.1922   21.3521 C   0  0  0  0  0  0  0  0  0  0  0  0
  -25.7987  -28.0146   19.4012 C   0  0  0  0  0  0  0  0  0  0  0  0
  -27.5182  -10.8311   20.7498 C   0  0  0  0  0  0  0  0  0  0  0  0
  -28.0633  -17.3687   21.8155 C   0  0  0  0  0  0  0  0  0  0  0  0
  -27.4640  -12.1632   20.2972 C   0  0  0  0  0  0  0  0  0  0  0  0
  -29.3799  -24.2229   22.9507 C   0  0  0  0  0  0  0  0  0  0  0  0
  -27.1817  -18.2983   21.2456 C   0  0  0  0  0  0  0  0  0  0  0  0
  -29.1867  -23.4600   21.7712 C   0  0  0  0  0  0  0  0  0  0  0  0
  -21.9915  -26.3633   22.5401 C   0  0  0  0  0  0  0  0  0  0  0  0
  -29.0317  -19.2754   20.0076 C   0  0  0  0  0  0  0  0  0  0  0  0
  -19.6869  -26.6979   22.8554 C   0  0  0  0  0  0  0  0  0  0  0  0
  -17.3867  -28.1851   22.3265 C   0  0  0  0  0  0  0  0  0  0  0  0
  -19.2313  -26.8351   21.5442 C   0  0  0  0  0  0  0  0  0  0  0  0
  -25.6071  -27.6209   20.7392 C   0  0  0  0  0  0  0  0  0  0  0  0
  -27.1343  -28.3254   19.3227 C   0  0  0  0  0  0  0  0  0  0  0  0
  -24.8539  -28.0925   18.3256 C   0  0  0  0  0  0  0  0  0  0  0  0
  -25.7508  -15.2125   21.4885 C   0  0  0  0  0  0  0  0  0  0  0  0
  -30.0708  -22.9797   19.5015 C   0  0  0  0  0  0  0  0  0  0  0  0
  -24.0371  -17.3616   23.2110 C   0  0  0  0  0  0  0  0  0  0  0  0
  -23.6068  -20.5998   24.1988 C   0  0  0  0  0  0  0  0  0  0  0  0
  -31.8478  -26.5958   22.1306 C   0  0  0  0  0  0  0  0  0  0  0  0
  -26.3097  -10.1410   21.3312 C   0  0  0  0  0  0  0  0  0  0  0  0
  -27.5652  -16.3581   22.8120 C   0  0  0  0  0  0  0  0  0  0  0  0
  -30.7038  -24.8043   23.4098 C   0  0  0  0  0  0  0  0  0  0  0  0
  -25.7124  -18.3040   21.5768 C   0  0  0  0  0  0  0  0  0  0  0  0
  -25.2137  -11.1053   21.7776 C   0  0  0  0  0  0  0  0  0  0  0  0
  -30.7817  -29.9054   21.9756 C   0  0  0  0  0  0  0  0  0  0  0  0
  -24.9578  -12.1570   20.7028 C   0  0  0  0  0  0  0  0  0  0  0  0
  -29.3390  -29.7393   21.4995 C   0  0  0  0  0  0  0  0  0  0  0  0
  -31.1630  -28.8567   23.0217 C   0  0  0  0  0  0  0  0  0  0  0  0
  -31.5856  -22.8639   21.5182 C   0  0  0  0  0  0  0  0  0  0  0  0
  -32.3678  -24.1598   21.6957 C   0  0  0  0  0  0  0  0  0  0  0  0
  -29.4728  -27.2964   22.1184 C   0  0  0  0  0  0  0  0  0  0  0  0
  -26.2125  -13.0007   20.4467 C   0  0  1  0  0  0  0  0  0  0  0  0
  -26.0726  -16.0724   22.6779 C   0  0  1  0  0  0  0  0  0  0  0  0
  -29.0768  -28.2993   21.0233 C   0  0  1  0  0  0  0  0  0  0  0  0
  -22.0965  -22.0548   25.5770 C   0  0  0  0  0  0  0  0  0  0  0  0
  -21.9352  -17.2686   21.0012 C   0  0  0  0  0  0  0  0  0  0  0  0
  -20.9630  -19.3793   21.9330 C   0  0  0  0  0  0  0  0  0  0  0  0
  -21.0068  -17.3084   23.3230 C   0  0  0  0  0  0  0  0  0  0  0  0
  -25.8145  -21.3740   26.0115 C   0  0  0  0  0  0  0  0  0  0  0  0
  -30.9949  -22.0473   18.7537 C   0  0  0  0  0  0  0  0  0  0  0  0
  -30.8424  -20.6446   19.2988 C   0  0  0  0  0  0  0  0  0  1  0  0
  -23.1649  -18.5476   22.8769 C   0  0  1  0  0  0  0  0  0  0  0  0
  -23.3621  -21.2117   25.5664 C   0  0  2  0  0  0  0  0  0  0  0  0
  -21.7948  -18.1249   22.2756 C   0  0  0  0  0  0  0  0  0  0  0  0
  -26.7311  -27.6755   21.4587 N   0  0  0  0  0  0  0  0  0  0  0  0
  -27.6418  -28.1071   20.5697 N   0  0  0  0  0  0  0  0  0  0  0  0
  -30.2727  -23.0817   20.8918 N   0  0  0  0  0  0  0  0  0  0  0  0
  -25.2726  -17.2924   22.5518 N   0  0  0  0  0  0  0  0  0  0  0  0
  -31.5662  -25.2273   22.3049 N   0  0  0  0  0  0  0  0  0  0  0  0
  -30.8597  -27.5042   22.5389 N   0  0  0  0  0  0  0  0  0  0  0  0
  -27.9124  -28.7612   18.3093 N   0  0  0  0  0  0  0  0  0  0  0  0
  -23.5222  -27.7367   18.5790 N   0  0  0  0  0  0  0  0  0  0  0  0
  -26.3831  -13.9839   21.4949 N   0  0  0  0  0  0  0  0  0  0  0  0
  -23.0628  -19.3366   24.0998 N   0  0  0  0  0  0  0  0  0  0  0  0
  -24.5084  -22.0798   25.9581 N   0  3  0  0  0  0  0  0  0  0  0  0
  -25.1844  -28.4509   17.1698 O   0  0  0  0  0  0  0  0  0  0  0  0
  -24.9844  -15.6322   20.6293 O   0  0  0  0  0  0  0  0  0  0  0  0
  -29.2306  -23.6114   18.8549 O   0  0  0  0  0  0  0  0  0  0  0  0
  -23.6400  -16.5311   24.0321 O   0  0  0  0  0  0  0  0  0  0  0  0
  -24.2161  -21.1854   23.3064 O   0  0  0  0  0  0  0  0  0  0  0  0
  -32.9118  -26.9878   21.6354 O   0  0  0  0  0  0  0  0  0  0  0  0
  -20.8281  -25.9593   23.1197 O   0  0  0  0  0  0  0  0  0  0  0  0
  -29.5013  -20.2069   19.1191 O   0  0  0  0  0  0  0  0  0  1  0  0
  -16.2814  -28.8980   22.0728 F   0  0  0  0  0  0  0  0  0  0  0  0
  -19.8937  -26.2539   20.5346 F   0  0  0  0  0  0  0  0  0  0  0  0
  1  2  1  0  0  0  0
  1  7  2  0  0  0  0
  2  8  2  0  0  0  0
  3  4  1  0  0  0  0
  3  9  2  0  0  0  0
  4 11  2  0  0  0  0
  5 12  2  0  0  0  0
  5 19  1  0  0  0  0
  6 13  1  0  0  0  0
  6 19  2  0  0  0  0
  7 21  1  0  0  0  0
  8 23  1  0  0  0  0
  9 24  1  0  0  0  0
 10 14  2  0  0  0  0
 10 22  1  0  0  0  0
 11 26  1  0  0  0  0
 12 27  1  0  0  0  0
 13 27  2  0  0  0  0
 14 28  1  0  0  0  0
 15 16  2  0  0  0  0
 15 29  1  0  0  0  0
 16 30  1  0  0  0  0
 17 25  1  0  0  0  0
 17 28  2  0  0  0  0
 18 30  2  0  0  0  0
 18 31  1  0  0  0  0
 19 32  1  0  0  0  0
 20 32  1  0  0  0  0
 20 33  2  0  0  0  0
 20 34  1  0  0  0  0
 21 23  2  0  0  0  0
 21 40  1  0  0  0  0
 22 25  2  0  0  0  0
 22 41  1  0  0  0  0
 23 52  1  0  0  0  0
 24 26  2  0  0  0  0
 24 42  1  0  0  0  0
 25 43  1  0  0  0  0
 26 67  1  0  0  0  0
 27 82  1  0  0  0  0
 28 83  1  0  0  0  0
 29 31  2  0  0  0  0
 29 82  1  0  0  0  0
 30 84  1  0  0  0  0
 31 85  1  0  0  0  0
 32 65  2  0  0  0  0
 33 66  1  0  0  0  0
 33 71  1  0  0  0  0
 34 72  1  0  0  0  0
 34 76  2  0  0  0  0
 35 53  1  0  0  0  0
 35 73  1  0  0  0  0
 35 77  2  0  0  0  0
 36 60  1  0  0  0  0
 36 67  1  0  0  0  0
 36 78  2  0  0  0  0
 37 62  1  0  0  0  0
 37 68  1  0  0  0  0
 37 79  2  0  0  0  0
 38 63  1  0  0  0  0
 38 74  1  0  0  0  0
 38 80  2  0  0  0  0
 39 69  1  0  0  0  0
 39 70  1  0  0  0  0
 39 81  2  0  0  0  0
 40 44  1  0  0  0  0
 41 53  1  0  0  0  0
 42 69  1  0  0  0  0
 43 68  1  0  0  0  0
 44 46  1  0  0  0  0
 45 47  1  0  0  0  0
 45 48  1  0  0  0  0
 46 52  1  0  0  0  0
 47 54  1  0  0  0  0
 48 70  1  0  0  0  0
 49 50  1  0  0  0  0
 49 67  1  0  0  0  0
 50 69  1  0  0  0  0
 51 54  1  0  0  0  0
 51 70  1  0  0  0  0
 52 73  1  0  0  0  0
 53 68  1  0  0  0  0
 54 66  1  0  0  0  0
 55 63  1  0  0  0  0
 56 64  1  0  0  0  0
 57 64  1  0  0  0  0
 58 64  1  0  0  0  0
 59 75  1  0  0  0  0
 60 61  1  0  0  0  0
 61 83  1  0  0  0  0
 62 64  1  0  0  0  0
 62 74  1  0  0  0  0
 63 75  1  0  0  0  0
 65 66  1  0  0  0  0
M  CHG  1  75   1
M  ISO  4  39 100  61 101  69 100  83 101
M  END
> <Batch ID>
0004

> <Smiles>
CNC(C)C(=O)NC(C(=O)N1Cc2cc([101O:1][101CH2:1]CC(=O)N3CC[100N:0]([100C:0](=O)N4CCCC(n5nc(-c6ccc(Oc7ccc(F)cc7F)cc6)c(C(N)=O)c5N)C4)Cc4ccccc43)ccc2CC1C(=O)NC1CCCc2ccccc21)C(C)(C)C

> <Shape>
0.216

> <Color>
0.061

> <Negative vol penalty>
0.000

$$$$

  -OEChem-04052315243D

 90 98  0     1  0  0  0  0  0999 V2000
  -29.4847  -22.4824   19.3202 C   0  0  0  0  0  0  0  0  0  0  0  0
  -28.2146  -22.7852   19.8003 C   0  0  0  0  0  0  0  0  0  0  0  0
  -27.9765  -13.9262   22.2427 C   0  0  0  0  0  0  0  0  0  0  0  0
  -26.1301  -14.8434   20.9831 C   0  0  0  0  0  0  0  0  0  0  0  0
  -20.5256  -21.9911   25.9973 C   0  0  0  0  0  0  0  0  0  0  0  0
  -30.5945  -23.1745   19.8031 C   0  0  0  0  0  0  0  0  0  0  0  0
  -28.0537  -23.7797   20.7644 C   0  0  0  0  0  0  0  0  0  0  0  0
  -24.1856  -26.8803   19.7304 C   0  0  0  0  0  0  0  0  0  0  0  0
  -21.8614  -21.5955   26.0660 C   0  0  0  0  0  0  0  0  0  0  0  0
  -27.6006  -12.6396   21.8569 C   0  0  0  0  0  0  0  0  0  0  0  0
  -25.7542  -13.5567   20.5973 C   0  0  0  0  0  0  0  0  0  0  0  0
  -22.9022  -26.4123   20.0094 C   0  0  0  0  0  0  0  0  0  0  0  0
  -24.1112  -10.9301   21.9508 C   0  0  0  0  0  0  0  0  0  0  0  0
  -22.7576  -10.6014   22.0228 C   0  0  0  0  0  0  0  0  0  0  0  0
  -20.5562  -21.6782   23.6018 C   0  0  0  0  0  0  0  0  0  0  0  0
  -22.8909  -27.6835   22.0595 C   0  0  0  0  0  0  0  0  0  0  0  0
  -22.7384  -10.1596   19.6476 C   0  0  0  0  0  0  0  0  0  0  0  0
  -27.2412  -15.0282   21.8058 C   0  0  0  0  0  0  0  0  0  0  0  0
  -19.8730  -22.0324   24.7651 C   0  0  0  0  0  0  0  0  0  0  0  0
  -28.5151  -17.2216   21.5341 C   0  0  0  0  0  0  0  0  0  0  0  0
  -30.4461  -24.1846   20.7665 C   0  0  0  0  0  0  0  0  0  0  0  0
  -24.8366  -27.7463   20.6207 C   0  0  0  0  0  0  0  0  0  0  0  0
  -29.1627  -24.4851   21.2616 C   0  0  0  0  0  0  0  0  0  0  0  0
  -24.1814  -28.1631   21.7883 C   0  0  0  0  0  0  0  0  0  0  0  0
  -22.5446  -21.2412   24.9027 C   0  0  0  0  0  0  0  0  0  0  0  0
  -26.4895  -12.4548   21.0342 C   0  0  0  0  0  0  0  0  0  0  0  0
  -22.2558  -26.8116   21.1755 C   0  0  0  0  0  0  0  0  0  0  0  0
  -24.7784  -10.8736   20.7271 C   0  0  0  0  0  0  0  0  0  0  0  0
  -22.0711  -10.2161   20.8713 C   0  0  0  0  0  0  0  0  0  0  0  0
  -24.0920  -10.4883   19.5756 C   0  0  0  0  0  0  0  0  0  0  0  0
  -21.8920  -21.2826   23.6706 C   0  0  0  0  0  0  0  0  0  0  0  0
  -27.6287  -16.3575   22.2045 C   0  0  0  0  0  0  0  0  0  0  0  0
  -28.5454  -18.3532   22.3119 C   0  0  0  0  0  0  0  0  0  0  0  0
  -18.4641  -22.4512   24.6932 C   0  0  0  0  0  0  0  0  0  0  0  0
  -29.2455  -17.0195   20.3170 C   0  0  0  0  0  0  0  0  0  0  0  0
  -27.4957  -27.5959   22.3557 C   0  0  0  0  0  0  0  0  0  0  0  0
  -26.7781  -30.6904   23.0126 C   0  0  0  0  0  0  0  0  0  0  0  0
  -24.4019  -33.1304   23.2291 C   0  0  0  0  0  0  0  0  0  0  0  0
  -24.6686  -20.7607   26.1692 C   0  0  0  0  0  0  0  0  0  0  0  0
  -31.6805  -24.8728   21.2930 C   0  0  0  0  0  0  0  0  0  0  0  0
  -26.2103  -28.2634   20.2922 C   0  0  0  0  0  0  0  0  0  0  0  0
  -24.8288  -29.1075   22.7668 C   0  0  0  0  0  0  0  0  0  0  0  0
  -31.3828  -26.1702   22.0402 C   0  0  0  0  0  0  0  0  0  0  0  0
  -28.0269  -19.7933   26.8497 C   0  0  0  0  0  0  0  0  0  0  0  0
  -30.2328  -25.9690   23.0219 C   0  0  0  0  0  0  0  0  0  0  0  0
  -28.3886  -18.8859   25.6715 C   0  0  0  0  0  0  0  0  0  0  0  0
  -26.5721  -19.6121   27.2793 C   0  0  0  0  0  0  0  0  0  0  0  0
  -25.9462  -18.8448   25.0235 C   0  0  0  0  0  0  0  0  0  0  0  0
  -28.9447  -25.5743   22.2893 C   0  0  1  0  0  0  0  0  0  0  0  0
  -26.9811  -28.7347   21.5214 C   0  0  1  0  0  0  0  0  0  0  0  0
  -27.3834  -19.0388   24.5132 C   0  0  2  0  0  0  0  0  0  0  0  0
  -12.0752  -25.8947   28.4389 C   0  0  0  0  0  0  0  0  0  0  0  0
  -24.1117  -35.5498   23.8287 C   0  0  0  0  0  0  0  0  0  0  0  0
  -26.9815  -29.9786   25.9726 C   0  0  0  0  0  0  0  0  0  0  0  0
  -25.7798  -32.1115   26.4966 C   0  0  0  0  0  0  0  0  0  0  0  0
  -27.9976  -32.1791   25.3566 C   0  0  0  0  0  0  0  0  0  0  0  0
  -23.4418  -33.8084   20.5129 C   0  0  0  0  0  0  0  0  0  0  0  0
  -12.6735  -25.6813   27.0571 C   0  0  0  0  0  0  0  0  0  0  0  0
  -14.1530  -25.2917   27.0847 C   0  0  0  0  0  0  0  0  0  0  0  0
  -14.7319  -25.0084   25.6962 C   0  0  0  0  0  0  0  0  0  0  0  0
  -16.2047  -24.5944   25.7853 C   0  0  0  0  0  0  0  0  0  0  0  0
  -19.6205  -25.1031   22.9594 C   0  0  0  0  0  0  0  0  0  0  0  0
  -16.7975  -24.2466   24.4233 C   0  0  0  0  0  0  0  0  0  0  0  0
  -19.1884  -24.8645   24.3999 C   0  0  0  0  0  0  0  0  0  0  0  0
  -20.6496  -26.2191   22.8262 C   0  0  0  0  0  0  0  0  0  1  0  0
  -25.9660  -31.3982   24.0702 C   0  0  1  0  0  0  0  0  0  0  0  0
  -24.3713  -34.5557   22.7075 C   0  0  2  0  0  0  0  0  0  0  0  0
  -26.6695  -31.3975   25.4567 C   0  0  0  0  0  0  0  0  0  0  0  0
  -27.1320  -16.8941   23.3223 N   0  0  0  0  0  0  0  0  0  0  0  0
  -27.7083  -18.1075   23.3602 N   0  0  0  0  0  0  0  0  0  0  0  0
  -26.1750  -29.5804   22.4041 N   0  0  0  0  0  0  0  0  0  0  0  0
  -25.6776  -19.7751   26.1313 N   0  0  0  0  0  0  0  0  0  0  0  0
  -29.2064  -19.5245   22.1945 N   0  0  0  0  0  0  0  0  0  0  0  0
  -29.0988  -15.7986   19.6446 N   0  0  0  0  0  0  0  0  0  0  0  0
  -23.9009  -20.8449   25.0081 N   0  0  0  0  0  0  0  0  0  0  0  0
  -28.3362  -26.7352   21.6758 N   0  0  0  0  0  0  0  0  0  0  0  0
  -25.6829  -32.7293   23.5445 N   0  0  0  0  0  0  0  0  0  0  0  0
  -18.2005  -23.8271   24.5097 N   0  0  0  0  0  0  0  0  0  0  0  0
  -23.2984  -34.7101   21.6848 N   0  3  0  0  0  0  0  0  0  0  0  0
  -17.6247  -21.5566   24.7893 O   0  0  0  0  0  0  0  0  0  0  0  0
  -30.0185  -17.8893   19.8486 O   0  0  0  0  0  0  0  0  0  0  0  0
  -27.1565  -27.5056   23.5298 O   0  0  0  0  0  0  0  0  0  0  0  0
  -27.9030  -31.1111   22.7315 O   0  0  0  0  0  0  0  0  0  0  0  0
  -23.3901  -32.4429   23.3485 O   0  0  0  0  0  0  0  0  0  0  0  0
  -24.5157  -21.4955   27.1483 O   0  0  0  0  0  0  0  0  0  0  0  0
  -26.1225  -11.1995   20.6573 O   0  0  0  0  0  0  0  0  0  0  0  0
  -21.0035  -26.3558   21.4505 O   0  0  0  0  0  0  0  0  0  1  0  0
  -20.7716   -9.8990   20.9409 F   0  0  0  0  0  0  0  0  0  0  0  0
  -24.7280  -10.4310   18.3974 F   0  0  0  0  0  0  0  0  0  0  0  0
  -22.7009  -20.8519   22.2058 Cl  0  0  0  0  0  0  0  0  0  0  0  0
  1  2  1  0  0  0  0
  1  6  2  0  0  0  0
  2  7  2  0  0  0  0
  3 10  2  0  0  0  0
  3 18  1  0  0  0  0
  4 11  1  0  0  0  0
  4 18  2  0  0  0  0
  5  9  2  0  0  0  0
  5 19  1  0  0  0  0
  6 21  1  0  0  0  0
  7 23  1  0  0  0  0
  8 12  2  0  0  0  0
  8 22  1  0  0  0  0
  9 25  1  0  0  0  0
 10 26  1  0  0  0  0
 11 26  2  0  0  0  0
 12 27  1  0  0  0  0
 13 14  2  0  0  0  0
 13 28  1  0  0  0  0
 14 29  1  0  0  0  0
 15 19  2  0  0  0  0
 15 31  1  0  0  0  0
 16 24  1  0  0  0  0
 16 27  2  0  0  0  0
 17 29  2  0  0  0  0
 17 30  1  0  0  0  0
 18 32  1  0  0  0  0
 19 34  1  0  0  0  0
 20 32  1  0  0  0  0
 20 33  2  0  0  0  0
 20 35  1  0  0  0  0
 21 23  2  0  0  0  0
 21 40  1  0  0  0  0
 22 24  2  0  0  0  0
 22 41  1  0  0  0  0
 23 49  1  0  0  0  0
 24 42  1  0  0  0  0
 25 31  2  0  0  0  0
 25 75  1  0  0  0  0
 26 86  1  0  0  0  0
 27 87  1  0  0  0  0
 28 30  2  0  0  0  0
 28 86  1  0  0  0  0
 29 88  1  0  0  0  0
 30 89  1  0  0  0  0
 31 90  1  0  0  0  0
 32 69  2  0  0  0  0
 33 70  1  0  0  0  0
 33 73  1  0  0  0  0
 34 78  1  0  0  0  0
 34 80  2  0  0  0  0
 35 74  1  0  0  0  0
 35 81  2  0  0  0  0
 36 50  1  0  0  0  0
 36 76  1  0  0  0  0
 36 82  2  0  0  0  0
 37 66  1  0  0  0  0
 37 71  1  0  0  0  0
 37 83  2  0  0  0  0
 38 67  1  0  0  0  0
 38 77  1  0  0  0  0
 38 84  2  0  0  0  0
 39 72  1  0  0  0  0
 39 75  1  0  0  0  0
 39 85  2  0  0  0  0
 40 43  1  0  0  0  0
 41 50  1  0  0  0  0
 42 71  1  0  0  0  0
 43 45  1  0  0  0  0
 44 46  1  0  0  0  0
 44 47  1  0  0  0  0
 45 49  1  0  0  0  0
 46 51  1  0  0  0  0
 47 72  1  0  0  0  0
 48 51  1  0  0  0  0
 48 72  1  0  0  0  0
 49 76  1  0  0  0  0
 50 71  1  0  0  0  0
 51 70  1  0  0  0  0
 52 58  1  0  0  0  0
 53 67  1  0  0  0  0
 54 68  1  0  0  0  0
 55 68  1  0  0  0  0
 56 68  1  0  0  0  0
 57 79  1  0  0  0  0
 58 59  1  0  0  0  0
 59 60  1  0  0  0  0
 60 61  1  0  0  0  0
 61 63  1  0  0  0  0
 62 64  1  0  0  0  0
 62 65  1  0  0  0  0
 63 78  1  0  0  0  0
 64 78  1  0  0  0  0
 65 87  1  0  0  0  0
 66 68  1  0  0  0  0
 66 77  1  0  0  0  0
 67 79  1  0  0  0  0
 69 70  1  0  0  0  0
M  CHG  1  79   1
M  ISO  4  39 100  65 101  75 100  87 101
M  END
> <Batch ID>
0004

> <Smiles>
CCCCCCN(CC[101CH2:1][101O:1]c1ccc2c(c1)CN(C(=O)C(NC(=O)C(C)NC)C(C)(C)C)C(C(=O)NC1CCCc3ccccc31)C2)C(=O)c1ccc([100NH:0][100C:0](=O)N2CCCC(n3nc(-c4ccc(Oc5ccc(F)cc5F)cc4)c(C(N)=O)c3N)C2)c(Cl)c1

> <Shape>
0.219

> <Color>
0.067

> <Negative vol penalty>
0.000

$$$$

  -OEChem-04052315243D

 95103  0     1  0  0  0  0  0999 V2000
  -19.3649  -26.4431   28.2696 C   0  0  0  0  0  0  0  0  0  0  0  0
  -22.0612  -33.0614   18.3336 C   0  0  0  0  0  0  0  0  0  0  0  0
  -22.2085  -32.0424   19.2692 C   0  0  0  0  0  0  0  0  0  0  0  0
  -20.1658  -27.4709   28.7672 C   0  0  0  0  0  0  0  0  0  0  0  0
  -19.9144  -25.1831   28.0325 C   0  0  0  0  0  0  0  0  0  0  0  0
  -23.3833   -9.7122   20.0373 C   0  0  0  0  0  0  0  0  0  0  0  0
  -23.5297  -10.1931   22.4004 C   0  0  0  0  0  0  0  0  0  0  0  0
  -21.2091  -34.1324   18.5994 C   0  0  0  0  0  0  0  0  0  0  0  0
  -21.5044  -32.0943   20.4717 C   0  0  0  0  0  0  0  0  0  0  0  0
  -19.4026  -27.6499   21.6859 C   0  0  0  0  0  0  0  0  0  0  0  0
  -21.5163  -27.2387   29.0278 C   0  0  0  0  0  0  0  0  0  0  0  0
  -21.2649  -24.9509   28.2931 C   0  0  0  0  0  0  0  0  0  0  0  0
  -22.6351   -8.5686   20.3163 C   0  0  0  0  0  0  0  0  0  0  0  0
  -22.7815   -9.0494   22.6795 C   0  0  0  0  0  0  0  0  0  0  0  0
  -20.2406  -26.6759   22.2270 C   0  0  0  0  0  0  0  0  0  0  0  0
  -23.2129   -5.4125   21.3793 C   0  0  0  0  0  0  0  0  0  0  0  0
  -23.5488   -4.2387   20.7048 C   0  0  0  0  0  0  0  0  0  0  0  0
  -19.4512  -27.2333   24.4373 C   0  0  0  0  0  0  0  0  0  0  0  0
  -21.3301   -4.1510   19.7526 C   0  0  0  0  0  0  0  0  0  0  0  0
  -23.8307  -10.5244   21.0793 C   0  0  0  0  0  0  0  0  0  0  0  0
  -24.1161  -13.0052   20.5578 C   0  0  0  0  0  0  0  0  0  0  0  0
  -20.4868  -34.1927   19.8016 C   0  0  0  0  0  0  0  0  0  0  0  0
  -18.5892  -28.4317   22.5188 C   0  0  0  0  0  0  0  0  0  0  0  0
  -20.6428  -33.1679   20.7544 C   0  0  0  0  0  0  0  0  0  0  0  0
  -18.6018  -28.2148   23.9040 C   0  0  0  0  0  0  0  0  0  0  0  0
  -22.0659  -25.9787   28.7907 C   0  0  0  0  0  0  0  0  0  0  0  0
  -22.3341   -8.2372   21.6374 C   0  0  0  0  0  0  0  0  0  0  0  0
  -20.2672  -26.4695   23.6031 C   0  0  0  0  0  0  0  0  0  0  0  0
  -21.9355   -5.9556   21.2404 C   0  0  0  0  0  0  0  0  0  0  0  0
  -22.6074   -3.6079   19.8915 C   0  0  0  0  0  0  0  0  0  0  0  0
  -20.9942   -5.3248   20.4271 C   0  0  0  0  0  0  0  0  0  0  0  0
  -24.6041  -11.7056   20.7918 C   0  0  0  0  0  0  0  0  0  0  0  0
  -25.2419  -13.7599   20.3353 C   0  0  0  0  0  0  0  0  0  0  0  0
  -22.7658  -13.4871   20.5429 C   0  0  0  0  0  0  0  0  0  0  0  0
  -18.3685  -31.5359   23.1662 C   0  0  0  0  0  0  0  0  0  0  0  0
  -15.7704  -30.5987   24.8673 C   0  0  0  0  0  0  0  0  0  0  0  0
  -23.6835  -25.7509   25.5048 C   0  0  0  0  0  0  0  0  0  0  0  0
  -14.1432  -28.1031   26.5319 C   0  0  0  0  0  0  0  0  0  0  0  0
  -30.9603  -13.1402   21.9986 C   0  0  0  0  0  0  0  0  0  0  0  0
  -19.6139  -35.3942   20.0646 C   0  0  0  0  0  0  0  0  0  0  0  0
  -17.6710  -29.4600   21.9171 C   0  0  0  0  0  0  0  0  0  0  0  0
  -17.7330  -29.0136   24.8397 C   0  0  0  0  0  0  0  0  0  0  0  0
  -18.6174  -35.1858   21.2020 C   0  0  0  0  0  0  0  0  0  0  0  0
  -29.7151  -13.4118   18.6741 C   0  0  0  0  0  0  0  0  0  0  0  0
  -19.3077  -34.5566   22.4080 C   0  0  0  0  0  0  0  0  0  0  0  0
  -28.2200  -13.1226   18.8187 C   0  0  0  0  0  0  0  0  0  0  0  0
  -30.5498  -12.5579   19.6261 C   0  0  0  0  0  0  0  0  0  0  0  0
  -28.6548  -12.3504   21.1880 C   0  0  0  0  0  0  0  0  0  0  0  0
  -19.8771  -33.1761   22.0597 C   0  0  1  0  0  0  0  0  0  0  0  0
  -17.2654  -30.5497   22.9047 C   0  0  1  0  0  0  0  0  0  0  0  0
  -27.7681  -13.2277   20.2877 C   0  0  2  0  0  0  0  0  0  0  0  0
  -12.0569  -27.6490   27.8506 C   0  0  0  0  0  0  0  0  0  0  0  0
  -16.9751  -32.0470   27.2675 C   0  0  0  0  0  0  0  0  0  0  0  0
  -15.3864  -30.7877   28.7367 C   0  0  0  0  0  0  0  0  0  0  0  0
  -14.5068  -32.3469   26.9994 C   0  0  0  0  0  0  0  0  0  0  0  0
  -13.2199  -26.0689   24.5907 C   0  0  0  0  0  0  0  0  0  0  0  0
  -23.5269  -25.7270   29.0721 C   0  0  0  0  0  0  0  0  0  0  0  0
  -23.3490  -24.7375   24.4140 C   0  0  0  0  0  0  0  0  0  0  0  0
  -28.3528  -17.7672   25.3872 C   0  0  0  0  0  0  0  0  0  0  0  0
  -28.3506  -19.2837   25.5932 C   0  0  0  0  0  0  0  0  0  0  0  0
  -29.7603  -17.2488   25.0871 C   0  0  0  0  0  0  0  0  0  0  0  0
  -26.9370  -19.8041   25.8612 C   0  0  0  0  0  0  0  0  0  0  0  0
  -29.7577  -15.7375   24.8480 C   0  0  0  0  0  0  0  0  0  0  0  0
  -26.8751  -21.3205   26.0676 C   0  0  0  0  0  0  0  0  0  0  0  0
  -31.1733  -15.2146   24.5867 C   0  0  0  0  0  0  0  0  0  0  0  0
  -25.4944  -21.8906   26.3953 C   0  0  0  0  0  0  0  0  0  0  0  0
  -24.4230  -26.0144   27.8699 C   0  0  0  0  0  0  0  0  0  0  0  0
  -31.2122  -13.7007   24.4031 C   0  0  0  0  0  0  0  0  0  0  0  0
  -22.2965  -25.2408   23.4358 C   0  0  0  0  0  0  0  0  0  1  0  0
  -25.4912  -23.3966   26.6247 C   0  0  0  0  0  0  0  0  0  0  0  0
  -15.5283  -30.1466   26.2872 C   0  0  1  0  0  0  0  0  0  0  0  0
  -12.7033  -27.6259   26.4741 C   0  0  2  0  0  0  0  0  0  0  0  0
  -15.6171  -31.3182   27.3055 C   0  0  0  0  0  0  0  0  0  0  0  0
  -25.9362  -11.6351   20.7241 N   0  0  0  0  0  0  0  0  0  0  0  0
  -26.2948  -12.8999   20.4450 N   0  0  0  0  0  0  0  0  0  0  0  0
  -16.8570  -30.0115   24.2039 N   0  0  0  0  0  0  0  0  0  0  0  0
  -30.0709  -12.7040   21.0027 N   0  0  0  0  0  0  0  0  0  0  0  0
  -25.4240  -15.0685   20.0585 N   0  0  0  0  0  0  0  0  0  0  0  0
  -21.7289  -12.5775   20.7915 N   0  0  0  0  0  0  0  0  0  0  0  0
  -18.8220  -32.1859   22.0343 N   0  0  0  0  0  0  0  0  0  0  0  0
  -14.2436  -29.4554   26.2821 N   0  0  0  0  0  0  0  0  0  0  0  0
  -30.4237  -13.2577   23.2749 N   0  0  0  0  0  0  0  0  0  0  0  0
  -24.0736  -25.2137   26.7106 N   0  0  0  0  0  0  0  0  0  0  0  0
  -12.6399  -26.2328   25.9485 N   0  3  0  0  0  0  0  0  0  0  0  0
  -22.4860  -14.6855   20.2997 O   0  0  0  0  0  0  0  0  0  0  0  0
  -18.7768  -31.6963   24.3104 O   0  0  0  0  0  0  0  0  0  0  0  0
  -15.0185  -31.4366   24.3630 O   0  0  0  0  0  0  0  0  0  0  0  0
  -23.5967  -26.9637   25.3041 O   0  0  0  0  0  0  0  0  0  0  0  0
  -15.0844  -27.3520   26.7780 O   0  0  0  0  0  0  0  0  0  0  0  0
  -32.1435  -13.4104   21.7664 O   0  0  0  0  0  0  0  0  0  0  0  0
  -21.6039   -7.1214   21.9101 O   0  0  0  0  0  0  0  0  0  0  0  0
  -21.0905  -25.5132   24.1377 O   0  0  0  0  0  0  0  0  0  1  0  0
  -24.1757  -23.8294   26.9493 O   0  0  0  0  0  0  0  0  0  0  0  0
  -22.9306   -2.4815   19.2427 F   0  0  0  0  0  0  0  0  0  0  0  0
  -19.7658   -5.8424   20.2888 F   0  0  0  0  0  0  0  0  0  0  0  0
  1  4  1  0  0  0  0
  1  5  2  0  0  0  0
  2  3  1  0  0  0  0
  2  8  2  0  0  0  0
  3  9  2  0  0  0  0
  4 11  2  0  0  0  0
  5 12  1  0  0  0  0
  6 13  2  0  0  0  0
  6 20  1  0  0  0  0
  7 14  1  0  0  0  0
  7 20  2  0  0  0  0
  8 22  1  0  0  0  0
  9 24  1  0  0  0  0
 10 15  2  0  0  0  0
 10 23  1  0  0  0  0
 11 26  1  0  0  0  0
 12 26  2  0  0  0  0
 13 27  1  0  0  0  0
 14 27  2  0  0  0  0
 15 28  1  0  0  0  0
 16 17  2  0  0  0  0
 16 29  1  0  0  0  0
 17 30  1  0  0  0  0
 18 25  1  0  0  0  0
 18 28  2  0  0  0  0
 19 30  2  0  0  0  0
 19 31  1  0  0  0  0
 20 32  1  0  0  0  0
 21 32  1  0  0  0  0
 21 33  2  0  0  0  0
 21 34  1  0  0  0  0
 22 24  2  0  0  0  0
 22 40  1  0  0  0  0
 23 25  2  0  0  0  0
 23 41  1  0  0  0  0
 24 49  1  0  0  0  0
 25 42  1  0  0  0  0
 26 57  1  0  0  0  0
 27 91  1  0  0  0  0
 28 92  1  0  0  0  0
 29 31  2  0  0  0  0
 29 91  1  0  0  0  0
 30 94  1  0  0  0  0
 31 95  1  0  0  0  0
 32 74  2  0  0  0  0
 33 75  1  0  0  0  0
 33 78  1  0  0  0  0
 34 79  1  0  0  0  0
 34 85  2  0  0  0  0
 35 50  1  0  0  0  0
 35 80  1  0  0  0  0
 35 86  2  0  0  0  0
 36 71  1  0  0  0  0
 36 76  1  0  0  0  0
 36 87  2  0  0  0  0
 37 58  1  0  0  0  0
 37 83  1  0  0  0  0
 37 88  2  0  0  0  0
 38 72  1  0  0  0  0
 38 81  1  0  0  0  0
 38 89  2  0  0  0  0
 39 77  1  0  0  0  0
 39 82  1  0  0  0  0
 39 90  2  0  0  0  0
 40 43  1  0  0  0  0
 41 50  1  0  0  0  0
 42 76  1  0  0  0  0
 43 45  1  0  0  0  0
 44 46  1  0  0  0  0
 44 47  1  0  0  0  0
 45 49  1  0  0  0  0
 46 51  1  0  0  0  0
 47 77  1  0  0  0  0
 48 51  1  0  0  0  0
 48 77  1  0  0  0  0
 49 80  1  0  0  0  0
 50 76  1  0  0  0  0
 51 75  1  0  0  0  0
 52 72  1  0  0  0  0
 53 73  1  0  0  0  0
 54 73  1  0  0  0  0
 55 73  1  0  0  0  0
 56 84  1  0  0  0  0
 57 67  1  0  0  0  0
 58 69  1  0  0  0  0
 59 60  1  0  0  0  0
 59 61  1  0  0  0  0
 60 62  1  0  0  0  0
 61 63  1  0  0  0  0
 62 64  1  0  0  0  0
 63 65  1  0  0  0  0
 64 66  1  0  0  0  0
 65 68  1  0  0  0  0
 66 70  1  0  0  0  0
 67 83  1  0  0  0  0
 68 82  1  0  0  0  0
 69 92  1  0  0  0  0
 70 93  1  0  0  0  0
 71 73  1  0  0  0  0
 71 81  1  0  0  0  0
 72 84  1  0  0  0  0
 74 75  1  0  0  0  0
 83 93  1  0  0  0  0
M  CHG  1  84   1
M  ISO  4  39 100  69 101  82 100  92 101
M  END
> <Batch ID>
0004

> <Smiles>
CNC(C)C(=O)NC(C(=O)N1Cc2cc([101O:1][101CH2:1]CC(=O)N(CCc3ccccc3)OCCCCCCCCCC[100NH:0][100C:0](=O)N3CCCC(n4nc(-c5ccc(Oc6ccc(F)cc6F)cc5)c(C(N)=O)c4N)C3)ccc2CC1C(=O)NC1CCCc2ccccc21)C(C)(C)C

> <Shape>
0.177

> <Color>
0.198

> <Negative vol penalty>
0.000

$$$$

  -OEChem-04052315243D

 84 91  0     1  0  0  0  0  0999 V2000
  -24.7153  -34.9745   19.6834 C   0  0  0  0  0  0  0  0  0  0  0  0
  -25.4761  -33.8387   19.9416 C   0  0  0  0  0  0  0  0  0  0  0  0
  -27.3602  -13.6688   22.4838 C   0  0  0  0  0  0  0  0  0  0  0  0
  -26.9153  -13.1044   20.1771 C   0  0  0  0  0  0  0  0  0  0  0  0
  -23.4796  -35.1411   20.3073 C   0  0  0  0  0  0  0  0  0  0  0  0
  -25.0021  -32.8694   20.8249 C   0  0  0  0  0  0  0  0  0  0  0  0
  -25.6167  -28.1637   19.0575 C   0  0  0  0  0  0  0  0  0  0  0  0
  -26.7930  -12.4605   22.8888 C   0  0  0  0  0  0  0  0  0  0  0  0
  -26.3482  -11.8961   20.5821 C   0  0  0  0  0  0  0  0  0  0  0  0
  -26.8936  -27.6113   19.1478 C   0  0  0  0  0  0  0  0  0  0  0  0
  -24.4583   -8.8241   21.0304 C   0  0  0  0  0  0  0  0  0  0  0  0
  -23.2534   -8.4432   20.4398 C   0  0  0  0  0  0  0  0  0  0  0  0
  -26.2187  -26.3881   21.1144 C   0  0  0  0  0  0  0  0  0  0  0  0
  -22.2054  -10.4498   21.2838 C   0  0  0  0  0  0  0  0  0  0  0  0
  -27.4213  -13.9907   21.1279 C   0  0  0  0  0  0  0  0  0  0  0  0
  -29.3561  -15.4803   20.3894 C   0  0  0  0  0  0  0  0  0  0  0  0
  -22.9859  -34.1687   21.1912 C   0  0  0  0  0  0  0  0  0  0  0  0
  -24.6328  -27.8403   20.0028 C   0  0  0  0  0  0  0  0  0  0  0  0
  -23.7592  -33.0238   21.4623 C   0  0  0  0  0  0  0  0  0  0  0  0
  -24.9293  -26.9357   21.0323 C   0  0  0  0  0  0  0  0  0  0  0  0
  -26.2871  -11.5742   21.9380 C   0  0  0  0  0  0  0  0  0  0  0  0
  -27.1956  -26.7256   20.1781 C   0  0  0  0  0  0  0  0  0  0  0  0
  -24.5367  -10.0178   21.7478 C   0  0  0  0  0  0  0  0  0  0  0  0
  -22.1270   -9.2560   20.5665 C   0  0  0  0  0  0  0  0  0  0  0  0
  -23.4103  -10.8306   21.8745 C   0  0  0  0  0  0  0  0  0  0  0  0
  -28.0065  -15.2390   20.7089 C   0  0  0  0  0  0  0  0  0  0  0  0
  -29.3970  -16.8118   20.0548 C   0  0  0  0  0  0  0  0  0  0  0  0
  -30.4729  -14.5812   20.3945 C   0  0  0  0  0  0  0  0  0  0  0  0
  -22.9534  -29.4828   22.1442 C   0  0  0  0  0  0  0  0  0  0  0  0
  -21.4291  -26.6479   22.5469 C   0  0  0  0  0  0  0  0  0  0  0  0
  -30.0785  -24.7898   19.1634 C   0  0  0  0  0  0  0  0  0  0  0  0
  -21.5179  -23.2469   22.2785 C   0  0  0  0  0  0  0  0  0  0  0  0
  -25.2715  -20.6231   17.9799 C   0  0  0  0  0  0  0  0  0  0  0  0
  -21.6660  -34.4153   21.8781 C   0  0  0  0  0  0  0  0  0  0  0  0
  -23.2523  -28.4240   19.8758 C   0  0  0  0  0  0  0  0  0  0  0  0
  -23.9024  -26.5402   22.0606 C   0  0  0  0  0  0  0  0  0  0  0  0
  -21.0664  -33.1631   22.5128 C   0  0  0  0  0  0  0  0  0  0  0  0
  -27.2017  -20.9671   20.9519 C   0  0  0  0  0  0  0  0  0  0  0  0
  -22.1270  -32.4066   23.3063 C   0  0  0  0  0  0  0  0  0  0  0  0
  -27.7486  -19.5598   21.1978 C   0  0  0  0  0  0  0  0  0  0  0  0
  -25.7847  -20.9306   20.3838 C   0  0  0  0  0  0  0  0  0  0  0  0
  -26.1706  -18.6956   19.4196 C   0  0  0  0  0  0  0  0  0  0  0  0
  -23.2680  -31.9382   22.3951 C   0  0  1  0  0  0  0  0  0  0  0  0
  -22.4796  -28.4222   21.1912 C   0  0  1  0  0  0  0  0  0  0  0  0
  -27.6181  -18.6799   19.9401 C   0  0  2  0  0  0  0  0  0  0  0  0
  -20.1366  -21.1992   22.7215 C   0  0  0  0  0  0  0  0  0  0  0  0
  -22.0270  -26.8927   25.5289 C   0  0  0  0  0  0  0  0  0  0  0  0
  -21.4972  -24.4570   25.7640 C   0  0  0  0  0  0  0  0  0  0  0  0
  -19.7364  -26.0457   24.9903 C   0  0  0  0  0  0  0  0  0  0  0  0
  -21.5152  -22.4882   19.4179 C   0  0  0  0  0  0  0  0  0  0  0  0
  -29.1653  -25.9930   19.0646 C   0  0  0  0  0  0  0  0  0  1  0  0
  -28.9452  -21.4069   14.1117 C   0  0  0  0  0  0  0  0  0  0  0  0
  -29.6613  -21.1741   15.4436 C   0  0  0  0  0  0  0  0  0  0  0  0
  -28.1950  -20.1741   13.5983 C   0  0  0  0  0  0  0  0  0  0  0  0
  -30.3659  -22.4456   15.9235 C   0  0  0  0  0  0  0  0  0  0  0  0
  -27.0578  -19.6650   14.4901 C   0  0  0  0  0  0  0  0  0  0  0  0
  -31.0499  -22.2244   17.2759 C   0  0  0  0  0  0  0  0  0  0  0  0
  -25.9621  -20.7077   14.7331 C   0  0  0  0  0  0  0  0  0  0  0  0
  -31.7115  -23.4909   17.8099 C   0  0  0  0  0  0  0  0  0  0  0  0
  -24.8181  -20.1637   15.5836 C   0  0  0  0  0  0  0  0  0  0  0  0
  -21.6322  -25.4410   23.4307 C   0  0  1  0  0  0  0  0  0  0  0  0
  -20.5247  -22.2559   21.6990 C   0  0  2  0  0  0  0  0  0  0  0  0
  -21.2433  -25.7178   24.9104 C   0  0  0  0  0  0  0  0  0  0  0  0
  -27.2451  -16.3297   20.5883 N   0  0  0  0  0  0  0  0  0  0  0  0
  -28.1192  -17.2693   20.1894 N   0  0  0  0  0  0  0  0  0  0  0  0
  -22.5690  -27.1426   21.8975 N   0  0  0  0  0  0  0  0  0  0  0  0
  -25.7296  -20.0807   19.1919 N   0  0  0  0  0  0  0  0  0  0  0  0
  -30.4009  -17.6241   19.6617 N   0  0  0  0  0  0  0  0  0  0  0  0
  -30.2548  -13.2469   20.7638 N   0  0  0  0  0  0  0  0  0  0  0  0
  -22.8669  -30.7680   21.6439 N   0  0  0  0  0  0  0  0  0  0  0  0
  -30.7783  -24.5703   17.9825 N   0  0  0  0  0  0  0  0  0  0  0  0
  -20.8864  -24.3510   22.8108 N   0  0  0  0  0  0  0  0  0  0  0  0
  -25.2571  -19.7513   16.8980 N   0  0  0  0  0  0  0  0  0  0  0  0
  -21.1100  -21.5695   20.5127 N   0  3  0  0  0  0  0  0  0  0  0  0
  -31.6330  -14.9540   20.0966 O   0  0  0  0  0  0  0  0  0  0  0  0
  -23.3656  -29.1592   23.2520 O   0  0  0  0  0  0  0  0  0  0  0  0
  -20.2994  -27.1295   22.4312 O   0  0  0  0  0  0  0  0  0  0  0  0
  -30.1689  -24.1060   20.1794 O   0  0  0  0  0  0  0  0  0  0  0  0
  -22.7324  -23.0585   22.2641 O   0  0  0  0  0  0  0  0  0  0  0  0
  -24.9076  -21.7987   17.8689 O   0  0  0  0  0  0  0  0  0  0  0  0
  -25.7338  -10.3949   22.3329 O   0  0  0  0  0  0  0  0  0  0  0  0
  -28.4543  -26.1799   20.2700 O   0  0  0  0  0  0  0  0  0  1  0  0
  -20.9704   -8.8909   19.9980 F   0  0  0  0  0  0  0  0  0  0  0  0
  -23.4798  -11.9791   22.5614 F   0  0  0  0  0  0  0  0  0  0  0  0
  1  2  1  0  0  0  0
  1  5  2  0  0  0  0
  2  6  2  0  0  0  0
  3  8  2  0  0  0  0
  3 15  1  0  0  0  0
  4  9  1  0  0  0  0
  4 15  2  0  0  0  0
  5 17  1  0  0  0  0
  6 19  1  0  0  0  0
  7 10  2  0  0  0  0
  7 18  1  0  0  0  0
  8 21  1  0  0  0  0
  9 21  2  0  0  0  0
 10 22  1  0  0  0  0
 11 12  2  0  0  0  0
 11 23  1  0  0  0  0
 12 24  1  0  0  0  0
 13 20  1  0  0  0  0
 13 22  2  0  0  0  0
 14 24  2  0  0  0  0
 14 25  1  0  0  0  0
 15 26  1  0  0  0  0
 16 26  1  0  0  0  0
 16 27  2  0  0  0  0
 16 28  1  0  0  0  0
 17 19  2  0  0  0  0
 17 34  1  0  0  0  0
 18 20  2  0  0  0  0
 18 35  1  0  0  0  0
 19 43  1  0  0  0  0
 20 36  1  0  0  0  0
 21 81  1  0  0  0  0
 22 82  1  0  0  0  0
 23 25  2  0  0  0  0
 23 81  1  0  0  0  0
 24 83  1  0  0  0  0
 25 84  1  0  0  0  0
 26 64  2  0  0  0  0
 27 65  1  0  0  0  0
 27 68  1  0  0  0  0
 28 69  1  0  0  0  0
 28 75  2  0  0  0  0
 29 44  1  0  0  0  0
 29 70  1  0  0  0  0
 29 76  2  0  0  0  0
 30 61  1  0  0  0  0
 30 66  1  0  0  0  0
 30 77  2  0  0  0  0
 31 51  1  0  0  0  0
 31 71  1  0  0  0  0
 31 78  2  0  0  0  0
 32 62  1  0  0  0  0
 32 72  1  0  0  0  0
 32 79  2  0  0  0  0
 33 67  1  0  0  0  0
 33 73  1  0  0  0  0
 33 80  2  0  0  0  0
 34 37  1  0  0  0  0
 35 44  1  0  0  0  0
 36 66  1  0  0  0  0
 37 39  1  0  0  0  0
 38 40  1  0  0  0  0
 38 41  1  0  0  0  0
 39 43  1  0  0  0  0
 40 45  1  0  0  0  0
 41 67  1  0  0  0  0
 42 45  1  0  0  0  0
 42 67  1  0  0  0  0
 43 70  1  0  0  0  0
 44 66  1  0  0  0  0
 45 65  1  0  0  0  0
 46 62  1  0  0  0  0
 47 63  1  0  0  0  0
 48 63  1  0  0  0  0
 49 63  1  0  0  0  0
 50 74  1  0  0  0  0
 51 82  1  0  0  0  0
 52 53  1  0  0  0  0
 52 54  1  0  0  0  0
 53 55  1  0  0  0  0
 54 56  1  0  0  0  0
 55 57  1  0  0  0  0
 56 58  1  0  0  0  0
 57 59  1  0  0  0  0
 58 60  1  0  0  0  0
 59 71  1  0  0  0  0
 60 73  1  0  0  0  0
 61 63  1  0  0  0  0
 61 72  1  0  0  0  0
 62 74  1  0  0  0  0
 64 65  1  0  0  0  0
M  CHG  1  74   1
M  ISO  4  33 100  51 101  73 100  82 101
M  END
> <Batch ID>
0004

> <Smiles>
CNC(C)C(=O)NC(C(=O)N1Cc2cc([101O:1][101CH2:1]C(=O)NCCCCCCCCC[100NH:0][100C:0](=O)N3CCCC(n4nc(-c5ccc(Oc6ccc(F)cc6F)cc5)c(C(N)=O)c4N)C3)ccc2CC1C(=O)NC1CCCc2ccccc21)C(C)(C)C

> <Shape>
0.219

> <Color>
0.095

> <Negative vol penalty>
0.000

$$$$
