
  -OEChem-04052315263D

 84 92  0     1  0  0  0  0  0999 V2000
  -40.7590  -27.1738   28.1255 C   0  0  0  0  0  0  0  0  0  0  0  0
  -40.2017  -25.8992   28.1087 C   0  0  0  0  0  0  0  0  0  0  0  0
  -23.0752   -9.8686   19.9406 C   0  0  0  0  0  0  0  0  0  0  0  0
  -23.8349   -9.8749   22.2341 C   0  0  0  0  0  0  0  0  0  0  0  0
  -40.0182  -28.2509   28.6100 C   0  0  0  0  0  0  0  0  0  0  0  0
  -38.9035  -25.7008   28.5775 C   0  0  0  0  0  0  0  0  0  0  0  0
  -36.1648  -22.7368   25.5183 C   0  0  0  0  0  0  0  0  0  0  0  0
  -31.8828  -18.3449   24.1957 C   0  0  0  0  0  0  0  0  0  0  0  0
  -22.3309   -8.7157   20.1904 C   0  0  0  0  0  0  0  0  0  0  0  0
  -23.0905   -8.7220   22.4838 C   0  0  0  0  0  0  0  0  0  0  0  0
  -36.3931  -21.3633   25.5907 C   0  0  0  0  0  0  0  0  0  0  0  0
  -30.4957  -18.3390   24.0484 C   0  0  0  0  0  0  0  0  0  0  0  0
  -19.8620   -7.9254   23.0860 C   0  0  0  0  0  0  0  0  0  0  0  0
  -19.1050   -7.8856   24.2568 C   0  0  0  0  0  0  0  0  0  0  0  0
  -34.4328  -21.1166   26.9748 C   0  0  0  0  0  0  0  0  0  0  0  0
  -32.0661  -16.5948   22.5401 C   0  0  0  0  0  0  0  0  0  0  0  0
  -20.3455   -5.9476   24.9931 C   0  0  0  0  0  0  0  0  0  0  0  0
  -23.8273  -10.4482   20.9625 C   0  0  0  0  0  0  0  0  0  0  0  0
  -24.1701  -12.9732   20.8428 C   0  0  0  0  0  0  0  0  0  0  0  0
  -38.7068  -28.0673   29.0761 C   0  0  0  0  0  0  0  0  0  0  0  0
  -35.0732  -23.3129   26.1837 C   0  0  0  0  0  0  0  0  0  0  0  0
  -38.1449  -26.7763   29.0700 C   0  0  0  0  0  0  0  0  0  0  0  0
  -34.1914  -22.4972   26.9071 C   0  0  0  0  0  0  0  0  0  0  0  0
  -32.6679  -17.4728   23.4415 C   0  0  0  0  0  0  0  0  0  0  0  0
  -30.6790  -16.5889   22.3929 C   0  0  0  0  0  0  0  0  0  0  0  0
  -22.3385   -8.1424   21.4620 C   0  0  0  0  0  0  0  0  0  0  0  0
  -35.5287  -20.5534   26.3214 C   0  0  0  0  0  0  0  0  0  0  0  0
  -29.8938  -17.4610   23.1470 C   0  0  0  0  0  0  0  0  0  0  0  0
  -20.8608   -6.9762   22.8686 C   0  0  0  0  0  0  0  0  0  0  0  0
  -19.3467   -6.8967   25.2104 C   0  0  0  0  0  0  0  0  0  0  0  0
  -21.1026   -5.9874   23.8222 C   0  0  0  0  0  0  0  0  0  0  0  0
  -24.5969  -11.6388   20.7050 C   0  0  0  0  0  0  0  0  0  0  0  0
  -25.2626  -13.7223   20.4797 C   0  0  0  0  0  0  0  0  0  0  0  0
  -22.8998  -13.4895   21.2617 C   0  0  0  0  0  0  0  0  0  0  0  0
  -34.7390  -25.4605   28.5031 C   0  0  0  0  0  0  0  0  0  0  0  0
  -31.5866  -25.1503   27.8042 C   0  0  0  0  0  0  0  0  0  0  0  0
  -29.0836  -23.2327   26.4986 C   0  0  0  0  0  0  0  0  0  0  0  0
  -30.7292  -14.7657   20.6550 C   0  0  0  0  0  0  0  0  0  0  0  0
  -37.9620  -29.2540   29.6344 C   0  0  0  0  0  0  0  0  0  0  0  0
  -34.8256  -24.7924   26.0737 C   0  0  0  0  0  0  0  0  0  0  0  0
  -32.9934  -23.0638   27.6228 C   0  0  0  0  0  0  0  0  0  0  0  0
  -36.4587  -29.0231   29.7650 C   0  0  0  0  0  0  0  0  0  0  0  0
  -29.6140  -12.3527   18.2863 C   0  0  0  0  0  0  0  0  0  0  0  0
  -36.1805  -27.6683   30.4084 C   0  0  0  0  0  0  0  0  0  0  0  0
  -28.1742  -12.0616   18.7158 C   0  0  0  0  0  0  0  0  0  0  0  0
  -30.5291  -12.5810   19.4881 C   0  0  0  0  0  0  0  0  0  0  0  0
  -28.6223  -13.3060   20.8693 C   0  0  0  0  0  0  0  0  0  0  0  0
  -36.7309  -26.5252   29.5470 C   0  0  1  0  0  0  0  0  0  0  0  0
  -33.9752  -25.3424   27.2146 C   0  0  1  0  0  0  0  0  0  0  0  0
  -27.6495  -13.1333   19.6914 C   0  0  2  0  0  0  0  0  0  0  0  0
  -26.6057  -23.2315   26.1017 C   0  0  0  0  0  0  0  0  0  0  0  0
  -36.1798  -16.3629   26.4138 C   0  0  0  0  0  0  0  0  0  0  0  0
  -31.1155  -24.5743   30.7632 C   0  0  0  0  0  0  0  0  0  0  0  0
  -28.8630  -23.6655   30.1561 C   0  0  0  0  0  0  0  0  0  0  0  0
  -29.4038  -26.0583   29.7039 C   0  0  0  0  0  0  0  0  0  0  0  0
  -29.4360  -23.0225   23.5676 C   0  0  0  0  0  0  0  0  0  0  0  0
  -27.9857  -18.3511   22.0414 C   0  0  0  0  0  0  0  0  0  0  0  0
  -34.1600  -17.4799   23.6007 C   0  0  0  0  0  0  0  0  0  0  0  0
  -36.3910  -18.5983   25.2773 C   0  0  0  0  0  0  0  0  0  1  0  0
  -30.4680  -24.2573   28.2841 C   0  0  1  0  0  0  0  0  0  0  0  0
  -27.9714  -23.5592   25.5183 C   0  0  2  0  0  0  0  0  0  0  0  0
  -35.8955  -17.1628   25.1532 C   0  0  2  0  0  0  0  0  0  0  0  0
  -29.9861  -24.6281   29.7150 C   0  0  0  0  0  0  0  0  0  0  0  0
  -25.8617  -11.5425   20.2868 N   0  0  0  0  0  0  0  0  0  0  0  0
  -26.2391  -12.8260   20.1586 N   0  0  0  0  0  0  0  0  0  0  0  0
  -32.7976  -24.5170   27.4905 N   0  0  0  0  0  0  0  0  0  0  0  0
  -29.9705  -13.6119   20.3656 N   0  0  0  0  0  0  0  0  0  0  0  0
  -25.4735  -15.0537   20.4069 N   0  0  0  0  0  0  0  0  0  0  0  0
  -21.8875  -12.5807   21.5988 N   0  0  0  0  0  0  0  0  0  0  0  0
  -30.0821  -15.6909   21.4735 N   0  0  0  0  0  0  0  0  0  0  0  0
  -35.8547  -26.2720   28.4234 N   0  0  0  0  0  0  0  0  0  0  0  0
  -29.4254  -24.3262   27.2659 N   0  0  0  0  0  0  0  0  0  0  0  0
  -28.1444  -22.7795   24.2601 N   0  3  0  0  0  0  0  0  0  0  0  0
  -22.6640  -14.7202   21.3192 O   0  0  0  0  0  0  0  0  0  0  0  0
  -34.3445  -24.8612   29.4965 O   0  0  0  0  0  0  0  0  0  0  0  0
  -31.3909  -26.3641   27.7042 O   0  0  0  0  0  0  0  0  0  0  0  0
  -29.5953  -22.1181   26.5783 O   0  0  0  0  0  0  0  0  0  0  0  0
  -31.8584  -14.9341   20.1875 O   0  0  0  0  0  0  0  0  0  0  0  0
  -21.6121   -7.0176   21.7061 O   0  0  0  0  0  0  0  0  0  0  0  0
  -28.5368  -17.4707   23.0182 O   0  0  0  0  0  0  0  0  0  0  0  0
  -35.7496  -19.2126   26.3942 O   0  0  0  0  0  0  0  0  0  1  0  0
  -34.4836  -17.1694   24.9471 O   0  0  0  0  0  0  0  0  0  0  0  0
  -18.6207   -6.8596   26.3354 F   0  0  0  0  0  0  0  0  0  0  0  0
  -22.0616   -5.0735   23.6195 F   0  0  0  0  0  0  0  0  0  0  0  0
  1  2  1  0  0  0  0
  1  5  2  0  0  0  0
  2  6  2  0  0  0  0
  3  9  2  0  0  0  0
  3 18  1  0  0  0  0
  4 10  1  0  0  0  0
  4 18  2  0  0  0  0
  5 20  1  0  0  0  0
  6 22  1  0  0  0  0
  7 11  2  0  0  0  0
  7 21  1  0  0  0  0
  8 12  2  0  0  0  0
  8 24  1  0  0  0  0
  9 26  1  0  0  0  0
 10 26  2  0  0  0  0
 11 27  1  0  0  0  0
 12 28  1  0  0  0  0
 13 14  2  0  0  0  0
 13 29  1  0  0  0  0
 14 30  1  0  0  0  0
 15 23  1  0  0  0  0
 15 27  2  0  0  0  0
 16 24  2  0  0  0  0
 16 25  1  0  0  0  0
 17 30  2  0  0  0  0
 17 31  1  0  0  0  0
 18 32  1  0  0  0  0
 19 32  1  0  0  0  0
 19 33  2  0  0  0  0
 19 34  1  0  0  0  0
 20 22  2  0  0  0  0
 20 39  1  0  0  0  0
 21 23  2  0  0  0  0
 21 40  1  0  0  0  0
 22 48  1  0  0  0  0
 23 41  1  0  0  0  0
 24 58  1  0  0  0  0
 25 28  2  0  0  0  0
 25 70  1  0  0  0  0
 26 79  1  0  0  0  0
 27 81  1  0  0  0  0
 28 80  1  0  0  0  0
 29 31  2  0  0  0  0
 29 79  1  0  0  0  0
 30 83  1  0  0  0  0
 31 84  1  0  0  0  0
 32 64  2  0  0  0  0
 33 65  1  0  0  0  0
 33 68  1  0  0  0  0
 34 69  1  0  0  0  0
 34 74  2  0  0  0  0
 35 49  1  0  0  0  0
 35 71  1  0  0  0  0
 35 75  2  0  0  0  0
 36 60  1  0  0  0  0
 36 66  1  0  0  0  0
 36 76  2  0  0  0  0
 37 61  1  0  0  0  0
 37 72  1  0  0  0  0
 37 77  2  0  0  0  0
 38 67  1  0  0  0  0
 38 70  1  0  0  0  0
 38 78  2  0  0  0  0
 39 42  1  0  0  0  0
 40 49  1  0  0  0  0
 41 66  1  0  0  0  0
 42 44  1  0  0  0  0
 43 45  1  0  0  0  0
 43 46  1  0  0  0  0
 44 48  1  0  0  0  0
 45 50  1  0  0  0  0
 46 67  1  0  0  0  0
 47 50  1  0  0  0  0
 47 67  1  0  0  0  0
 48 71  1  0  0  0  0
 49 66  1  0  0  0  0
 50 65  1  0  0  0  0
 51 61  1  0  0  0  0
 52 62  1  0  0  0  0
 53 63  1  0  0  0  0
 54 63  1  0  0  0  0
 55 63  1  0  0  0  0
 56 73  1  0  0  0  0
 57 80  1  0  0  0  0
 58 82  1  0  0  0  0
 59 62  1  0  0  0  0
 59 81  1  0  0  0  0
 60 63  1  0  0  0  0
 60 72  1  0  0  0  0
 61 73  1  0  0  0  0
 62 82  1  0  0  0  0
 64 65  1  0  0  0  0
M  CHG  1  73   1
M  ISO  4  38 100  59 101  70 100  81 101
M  END
> <Batch ID>
0005

> <Smiles>
CNC(C)C(=O)NC(C(=O)N1Cc2cc([101O:1][101CH2:1]C(C)OCc3ccc(OC)c([100NH:0][100C:0](=O)N4CCCC(n5nc(-c6ccc(Oc7ccc(F)cc7F)cc6)c(C(N)=O)c5N)C4)c3)ccc2CC1C(=O)NC1CCCc2ccccc21)C(C)(C)C

> <Shape>
0.170

> <Color>
0.192

> <Negative vol penalty>
0.000

$$$$

  -OEChem-04052315263D

 91100  0     1  0  0  0  0  0999 V2000
  -35.7614  -19.3892   27.0820 C   0  0  0  0  0  0  0  0  0  0  0  0
  -23.9531  -30.4947   20.6280 C   0  0  0  0  0  0  0  0  0  0  0  0
  -24.5902  -29.4905   19.9063 C   0  0  0  0  0  0  0  0  0  0  0  0
  -34.5206  -18.7760   27.2544 C   0  0  0  0  0  0  0  0  0  0  0  0
  -23.2472   -9.7066   19.9383 C   0  0  0  0  0  0  0  0  0  0  0  0
  -23.9045   -9.8466   22.2589 C   0  0  0  0  0  0  0  0  0  0  0  0
  -36.2525  -19.6208   25.7971 C   0  0  0  0  0  0  0  0  0  0  0  0
  -24.6129  -31.1161   21.6875 C   0  0  0  0  0  0  0  0  0  0  0  0
  -25.8881  -29.1077   20.2430 C   0  0  0  0  0  0  0  0  0  0  0  0
  -30.1627  -23.3604   20.3524 C   0  0  0  0  0  0  0  0  0  0  0  0
  -29.8486  -18.8430   24.0320 C   0  0  0  0  0  0  0  0  0  0  0  0
  -33.7708  -18.3942   26.1419 C   0  0  0  0  0  0  0  0  0  0  0  0
  -31.2245  -18.9545   24.2323 C   0  0  0  0  0  0  0  0  0  0  0  0
  -22.5794   -8.5102   20.1996 C   0  0  0  0  0  0  0  0  0  0  0  0
  -23.2367   -8.6502   22.5203 C   0  0  0  0  0  0  0  0  0  0  0  0
  -31.4200  -22.9447   19.9162 C   0  0  0  0  0  0  0  0  0  0  0  0
  -19.6372   -7.5449   21.5577 C   0  0  0  0  0  0  0  0  0  0  0  0
  -18.3594   -7.3852   21.0216 C   0  0  0  0  0  0  0  0  0  0  0  0
  -32.4324  -24.0333   21.8160 C   0  0  0  0  0  0  0  0  0  0  0  0
  -31.5996  -17.1675   22.6502 C   0  0  0  0  0  0  0  0  0  0  0  0
  -19.1163   -5.4463   19.7949 C   0  0  0  0  0  0  0  0  0  0  0  0
  -23.9098  -10.3748   20.9680 C   0  0  0  0  0  0  0  0  0  0  0  0
  -35.5028  -19.2390   24.6846 C   0  0  0  0  0  0  0  0  0  0  0  0
  -24.0711  -12.9130   20.7700 C   0  0  0  0  0  0  0  0  0  0  0  0
  -25.9160  -30.7341   22.0434 C   0  0  0  0  0  0  0  0  0  0  0  0
  -30.0317  -24.1262   21.5198 C   0  0  0  0  0  0  0  0  0  0  0  0
  -26.5666  -29.7255   21.3073 C   0  0  0  0  0  0  0  0  0  0  0  0
  -31.1721  -24.4553   22.2663 C   0  0  0  0  0  0  0  0  0  0  0  0
  -29.3482  -17.8937   23.1408 C   0  0  0  0  0  0  0  0  0  0  0  0
  -32.1000  -18.1167   23.5414 C   0  0  0  0  0  0  0  0  0  0  0  0
  -34.2619  -18.6256   24.8569 C   0  0  0  0  0  0  0  0  0  0  0  0
  -30.2237  -17.0560   22.4499 C   0  0  0  0  0  0  0  0  0  0  0  0
  -22.5741   -7.9820   21.4906 C   0  0  0  0  0  0  0  0  0  0  0  0
  -32.5553  -23.2836   20.6464 C   0  0  0  0  0  0  0  0  0  0  0  0
  -20.6546   -6.6553   21.2123 C   0  0  0  0  0  0  0  0  0  0  0  0
  -18.0990   -6.3359   20.1402 C   0  0  0  0  0  0  0  0  0  0  0  0
  -20.3941   -5.6060   20.3310 C   0  0  0  0  0  0  0  0  0  0  0  0
  -24.6002  -11.6104   20.6985 C   0  0  0  0  0  0  0  0  0  0  0  0
  -25.1202  -13.7293   20.4244 C   0  0  0  0  0  0  0  0  0  0  0  0
  -36.0543  -19.4991   23.3299 C   0  0  0  0  0  0  0  0  0  0  0  0
  -22.7493  -13.3464   21.1177 C   0  0  0  0  0  0  0  0  0  0  0  0
  -28.9516  -27.0418   22.1804 C   0  0  0  0  0  0  0  0  0  0  0  0
  -29.4312  -26.1013   25.2476 C   0  0  0  0  0  0  0  0  0  0  0  0
  -31.0749  -24.0524   27.4263 C   0  0  0  0  0  0  0  0  0  0  0  0
  -30.4827  -15.1846   20.7834 C   0  0  0  0  0  0  0  0  0  0  0  0
  -26.6064  -31.4674   23.1661 C   0  0  0  0  0  0  0  0  0  0  0  0
  -28.6659  -24.5441   21.9914 C   0  0  0  0  0  0  0  0  0  0  0  0
  -31.0835  -25.2584   23.5373 C   0  0  0  0  0  0  0  0  0  0  0  0
  -27.8415  -30.7443   23.6971 C   0  0  0  0  0  0  0  0  0  0  0  0
  -29.6513  -12.6168   18.4613 C   0  0  0  0  0  0  0  0  0  0  0  0
  -28.7173  -30.2660   22.5434 C   0  0  0  0  0  0  0  0  0  0  0  0
  -28.2195  -12.2332   18.8422 C   0  0  0  0  0  0  0  0  0  0  0  0
  -30.4943  -12.9531   19.6901 C   0  0  0  0  0  0  0  0  0  0  0  0
  -28.4815  -13.5791   20.9652 C   0  0  0  0  0  0  0  0  0  0  0  0
  -27.9650  -29.2654   21.6578 C   0  0  1  0  0  0  0  0  0  0  0  0
  -28.6983  -25.7567   22.9166 C   0  0  1  0  0  0  0  0  0  0  0  0
  -27.5759  -13.2947   19.7558 C   0  0  2  0  0  0  0  0  0  0  0  0
  -27.8698  -17.7967   22.9463 C   0  0  0  0  0  0  0  0  0  0  0  0
  -31.2845  -23.5427   29.8745 C   0  0  0  0  0  0  0  0  0  0  0  0
  -31.1097  -28.6211   25.6260 C   0  0  0  0  0  0  0  0  0  0  0  0
  -32.0451  -27.6007   27.7121 C   0  0  0  0  0  0  0  0  0  0  0  0
  -29.6017  -28.0743   27.5446 C   0  0  0  0  0  0  0  0  0  0  0  0
  -30.1468  -21.2681   27.0447 C   0  0  0  0  0  0  0  0  0  0  0  0
  -35.7125  -21.5508   20.7446 C   0  0  0  0  0  0  0  0  0  0  0  0
  -36.8223  -21.2427   21.7406 C   0  0  0  0  0  0  0  0  0  0  0  0
  -34.7739  -22.6513   21.2244 C   0  0  0  0  0  0  0  0  0  1  0  0
  -30.5875  -26.1624   26.2162 C   0  0  1  0  0  0  0  0  0  0  0  0
  -30.5750  -23.1951   28.5751 C   0  0  2  0  0  0  0  0  0  0  0  0
  -30.8382  -27.6011   26.7498 C   0  0  0  0  0  0  0  0  0  0  0  0
  -25.8856  -11.5952   20.3359 N   0  0  0  0  0  0  0  0  0  0  0  0
  -26.1729  -12.8984   20.1763 N   0  0  0  0  0  0  0  0  0  0  0  0
  -29.7264  -25.6490   23.9537 N   0  0  0  0  0  0  0  0  0  0  0  0
  -29.8240  -13.9681   20.5058 N   0  0  0  0  0  0  0  0  0  0  0  0
  -25.2358  -15.0695   20.3116 N   0  0  0  0  0  0  0  0  0  0  0  0
  -21.7929  -12.3761   21.4464 N   0  0  0  0  0  0  0  0  0  0  0  0
  -33.4876  -18.2294   23.7437 N   0  0  0  0  0  0  0  0  0  0  0  0
  -29.7347  -16.0856   21.5405 N   0  0  0  0  0  0  0  0  0  0  0  0
  -36.3112  -20.8295   23.0182 N   0  0  0  0  0  0  0  0  0  0  0  0
  -27.9268  -27.9626   22.2870 N   0  0  0  0  0  0  0  0  0  0  0  0
  -30.3008  -25.1807   27.2566 N   0  0  0  0  0  0  0  0  0  0  0  0
  -30.8076  -21.7521   28.2840 N   0  3  0  0  0  0  0  0  0  0  0  0
  -36.2329  -18.5561   22.5635 O   0  0  0  0  0  0  0  0  0  0  0  0
  -22.4215  -14.5572   21.1205 O   0  0  0  0  0  0  0  0  0  0  0  0
  -29.9999  -27.1877   21.5627 O   0  0  0  0  0  0  0  0  0  0  0  0
  -28.3061  -26.4355   25.6271 O   0  0  0  0  0  0  0  0  0  0  0  0
  -32.0563  -23.7530   26.7498 O   0  0  0  0  0  0  0  0  0  0  0  0
  -31.6157  -15.4213   20.3563 O   0  0  0  0  0  0  0  0  0  0  0  0
  -21.9224   -6.8147   21.7460 O   0  0  0  0  0  0  0  0  0  0  0  0
  -33.7838  -22.8797   20.2225 O   0  0  0  0  0  0  0  0  0  1  0  0
  -16.8715   -6.1818   19.6267 F   0  0  0  0  0  0  0  0  0  0  0  0
  -21.3672   -4.7475   19.9964 F   0  0  0  0  0  0  0  0  0  0  0  0
  1  4  1  0  0  0  0
  1  7  2  0  0  0  0
  2  3  1  0  0  0  0
  2  8  2  0  0  0  0
  3  9  2  0  0  0  0
  4 12  2  0  0  0  0
  5 14  2  0  0  0  0
  5 22  1  0  0  0  0
  6 15  1  0  0  0  0
  6 22  2  0  0  0  0
  7 23  1  0  0  0  0
  8 25  1  0  0  0  0
  9 27  1  0  0  0  0
 10 16  2  0  0  0  0
 10 26  1  0  0  0  0
 11 13  2  0  0  0  0
 11 29  1  0  0  0  0
 12 31  1  0  0  0  0
 13 30  1  0  0  0  0
 14 33  1  0  0  0  0
 15 33  2  0  0  0  0
 16 34  1  0  0  0  0
 17 18  2  0  0  0  0
 17 35  1  0  0  0  0
 18 36  1  0  0  0  0
 19 28  1  0  0  0  0
 19 34  2  0  0  0  0
 20 30  2  0  0  0  0
 20 32  1  0  0  0  0
 21 36  2  0  0  0  0
 21 37  1  0  0  0  0
 22 38  1  0  0  0  0
 23 31  2  0  0  0  0
 23 40  1  0  0  0  0
 24 38  1  0  0  0  0
 24 39  2  0  0  0  0
 24 41  1  0  0  0  0
 25 27  2  0  0  0  0
 25 46  1  0  0  0  0
 26 28  2  0  0  0  0
 26 47  1  0  0  0  0
 27 55  1  0  0  0  0
 28 48  1  0  0  0  0
 29 32  2  0  0  0  0
 29 58  1  0  0  0  0
 30 76  1  0  0  0  0
 31 76  1  0  0  0  0
 32 77  1  0  0  0  0
 33 88  1  0  0  0  0
 34 89  1  0  0  0  0
 35 37  2  0  0  0  0
 35 88  1  0  0  0  0
 36 90  1  0  0  0  0
 37 91  1  0  0  0  0
 38 70  2  0  0  0  0
 39 71  1  0  0  0  0
 39 74  1  0  0  0  0
 40 78  1  0  0  0  0
 40 82  2  0  0  0  0
 41 75  1  0  0  0  0
 41 83  2  0  0  0  0
 42 56  1  0  0  0  0
 42 79  1  0  0  0  0
 42 84  2  0  0  0  0
 43 67  1  0  0  0  0
 43 72  1  0  0  0  0
 43 85  2  0  0  0  0
 44 68  1  0  0  0  0
 44 80  1  0  0  0  0
 44 86  2  0  0  0  0
 45 73  1  0  0  0  0
 45 77  1  0  0  0  0
 45 87  2  0  0  0  0
 46 49  1  0  0  0  0
 47 56  1  0  0  0  0
 48 72  1  0  0  0  0
 49 51  1  0  0  0  0
 50 52  1  0  0  0  0
 50 53  1  0  0  0  0
 51 55  1  0  0  0  0
 52 57  1  0  0  0  0
 53 73  1  0  0  0  0
 54 57  1  0  0  0  0
 54 73  1  0  0  0  0
 55 79  1  0  0  0  0
 56 72  1  0  0  0  0
 57 71  1  0  0  0  0
 59 68  1  0  0  0  0
 60 69  1  0  0  0  0
 61 69  1  0  0  0  0
 62 69  1  0  0  0  0
 63 81  1  0  0  0  0
 64 65  1  0  0  0  0
 64 66  1  0  0  0  0
 65 78  1  0  0  0  0
 66 89  1  0  0  0  0
 67 69  1  0  0  0  0
 67 80  1  0  0  0  0
 68 81  1  0  0  0  0
 70 71  1  0  0  0  0
M  CHG  1  81   1
M  ISO  4  45 100  66 101  77 100  89 101
M  END
> <Batch ID>
0005

> <Smiles>
CNC(C)C(=O)NC(C(=O)N1Cc2cc([101O:1][101CH2:1]CCNC(=O)c3ccccc3Nc3ccc(C)c([100NH:0][100C:0](=O)N4CCCC(n5nc(-c6ccc(Oc7ccc(F)cc7F)cc6)c(C(N)=O)c5N)C4)c3)ccc2CC1C(=O)NC1CCCc2ccccc21)C(C)(C)C

> <Shape>
0.227

> <Color>
0.187

> <Negative vol penalty>
0.000

$$$$

  -OEChem-04052315263D

 99107  0     1  0  0  0  0  0999 V2000
  -26.9033  -23.8254   17.8019 C   0  0  0  0  0  0  0  0  0  0  0  0
  -25.7586  -24.3263   18.4136 C   0  0  0  0  0  0  0  0  0  0  0  0
  -25.8375   -5.3272   20.9541 C   0  0  0  0  0  0  0  0  0  0  0  0
  -25.1425   -7.2788   19.7111 C   0  0  0  0  0  0  0  0  0  0  0  0
  -28.1618  -24.1610   18.2993 C   0  0  0  0  0  0  0  0  0  0  0  0
  -25.8718  -25.1623   19.5239 C   0  0  0  0  0  0  0  0  0  0  0  0
  -22.8057  -29.1833   19.2487 C   0  0  0  0  0  0  0  0  0  0  0  0
  -30.3238  -15.9907   21.8762 C   0  0  0  0  0  0  0  0  0  0  0  0
  -29.0363  -15.5622   19.8772 C   0  0  0  0  0  0  0  0  0  0  0  0
  -30.6745  -14.6421   21.9394 C   0  0  0  0  0  0  0  0  0  0  0  0
  -29.3870  -14.2136   19.9404 C   0  0  0  0  0  0  0  0  0  0  0  0
  -24.5030   -5.0221   21.2214 C   0  0  0  0  0  0  0  0  0  0  0  0
  -23.8079   -6.9738   19.9784 C   0  0  0  0  0  0  0  0  0  0  0  0
  -21.4595  -28.9792   19.5486 C   0  0  0  0  0  0  0  0  0  0  0  0
  -22.0865   -6.0651   23.3421 C   0  0  0  0  0  0  0  0  0  0  0  0
  -21.7552   -5.6969   24.6460 C   0  0  0  0  0  0  0  0  0  0  0  0
  -21.8231  -29.8718   21.7600 C   0  0  0  0  0  0  0  0  0  0  0  0
  -20.9623   -3.5612   23.8417 C   0  0  0  0  0  0  0  0  0  0  0  0
  -26.1573   -6.4556   20.1990 C   0  0  0  0  0  0  0  0  0  0  0  0
  -28.3021   -6.3437   18.8224 C   0  0  0  0  0  0  0  0  0  0  0  0
  -28.2907  -25.0093   19.4104 C   0  0  0  0  0  0  0  0  0  0  0  0
  -23.6745  -29.7239   20.2075 C   0  0  0  0  0  0  0  0  0  0  0  0
  -27.1332  -25.5085   20.0375 C   0  0  0  0  0  0  0  0  0  0  0  0
  -23.1793  -30.0841   21.4689 C   0  0  0  0  0  0  0  0  0  0  0  0
  -29.5046  -16.4507   20.8451 C   0  0  0  0  0  0  0  0  0  0  0  0
  -30.2062  -13.7536   20.9715 C   0  0  0  0  0  0  0  0  0  0  0  0
  -23.4882   -5.8454   20.7335 C   0  0  0  0  0  0  0  0  0  0  0  0
  -20.9686  -29.3208   20.8054 C   0  0  0  0  0  0  0  0  0  0  0  0
  -21.8556   -5.1813   22.2879 C   0  0  0  0  0  0  0  0  0  0  0  0
  -21.1931   -4.4450   24.8959 C   0  0  0  0  0  0  0  0  0  0  0  0
  -21.2935   -3.9294   22.5377 C   0  0  0  0  0  0  0  0  0  0  0  0
  -27.5358   -6.7715   19.9231 C   0  0  0  0  0  0  0  0  0  0  0  0
  -29.5367   -6.9115   19.0220 C   0  0  0  0  0  0  0  0  0  0  0  0
  -27.9311   -5.5077   17.7182 C   0  0  0  0  0  0  0  0  0  0  0  0
  -26.2859  -28.6972   21.7008 C   0  0  0  0  0  0  0  0  0  0  0  0
  -26.3408  -31.7261   22.8608 C   0  0  0  0  0  0  0  0  0  0  0  0
  -27.8449  -18.2359   21.5316 C   0  0  0  0  0  0  0  0  0  0  0  0
  -17.1502  -25.6823   21.8788 C   0  0  0  0  0  0  0  0  0  0  0  0
  -24.6145  -34.5728   23.6112 C   0  0  0  0  0  0  0  0  0  0  0  0
  -31.3664  -11.7635   21.9911 C   0  0  0  0  0  0  0  0  0  0  0  0
  -29.6710  -25.3058   19.9410 C   0  0  0  0  0  0  0  0  0  0  0  0
  -25.1182  -29.9626   19.8594 C   0  0  0  0  0  0  0  0  0  0  0  0
  -24.0663  -30.6867   22.5266 C   0  0  0  0  0  0  0  0  0  0  0  0
  -29.7145  -26.4988   20.8924 C   0  0  0  0  0  0  0  0  0  0  0  0
  -32.4476   -8.4120   22.5163 C   0  0  0  0  0  0  0  0  0  0  0  0
  -28.5865  -26.4074   21.9152 C   0  0  0  0  0  0  0  0  0  0  0  0
  -31.3837   -7.5723   21.8055 C   0  0  0  0  0  0  0  0  0  0  0  0
  -31.8419   -9.6408   23.1923 C   0  0  0  0  0  0  0  0  0  0  0  0
  -29.9549   -9.6476   21.6084 C   0  0  0  0  0  0  0  0  0  0  0  0
  -27.2156  -26.4381   21.2288 C   0  0  1  0  0  0  0  0  0  0  0  0
  -26.0231  -30.0423   21.0850 C   0  0  1  0  0  0  0  0  0  0  0  0
  -30.5263   -8.4337   20.8576 C   0  0  2  0  0  0  0  0  0  0  0  0
  -14.1253  -22.5794   20.0687 C   0  0  0  0  0  0  0  0  0  0  0  0
  -24.9237  -36.8657   24.5831 C   0  0  0  0  0  0  0  0  0  0  0  0
  -26.4804  -30.5183   25.6593 C   0  0  0  0  0  0  0  0  0  0  0  0
  -25.8341  -32.7546   26.5811 C   0  0  0  0  0  0  0  0  0  0  0  0
  -27.9619  -32.5015   25.3040 C   0  0  0  0  0  0  0  0  0  0  0  0
  -28.2056  -20.6370   20.8577 C   0  0  0  0  0  0  0  0  0  0  0  0
  -23.7411  -35.8801   21.1037 C   0  0  0  0  0  0  0  0  0  0  0  0
  -29.1252  -17.9097   20.7769 C   0  0  0  0  0  0  0  0  0  0  0  0
  -18.3494  -26.6183   21.8031 C   0  0  0  0  0  0  0  0  0  0  0  0
  -15.2659  -23.5871   20.0607 C   0  0  0  0  0  0  0  0  0  0  0  0
  -18.1012  -27.9495   22.5092 C   0  0  0  0  0  0  0  0  0  0  0  0
  -23.0143  -21.8005   21.0217 C   0  0  0  0  0  0  0  0  0  0  0  0
  -21.7315  -22.2224   21.7402 C   0  0  0  0  0  0  0  0  0  0  0  0
  -23.9904  -21.1173   21.9809 C   0  0  0  0  0  0  0  0  0  0  0  0
  -20.7691  -22.9353   20.7880 C   0  0  0  0  0  0  0  0  0  0  0  0
  -25.2584  -20.6659   21.2562 C   0  0  0  0  0  0  0  0  0  0  0  0
  -19.4729  -23.3305   21.5017 C   0  0  0  0  0  0  0  0  0  0  0  0
  -16.1949  -23.4348   21.2591 C   0  0  0  0  0  0  0  0  0  0  0  0
  -26.2473  -20.0194   22.2188 C   0  0  0  0  0  0  0  0  0  0  0  0
  -18.4853  -24.0330   20.5759 C   0  0  0  0  0  0  0  0  0  0  0  0
  -19.3281  -28.8488   22.4612 C   0  0  0  0  0  0  0  0  0  1  0  0
  -25.7576  -32.4191   24.0686 C   0  0  1  0  0  0  0  0  0  0  0  0
  -24.9007  -36.0331   23.3107 C   0  0  2  0  0  0  0  0  0  0  0  0
  -26.4919  -32.0352   25.3842 C   0  0  0  0  0  0  0  0  0  0  0  0
  -28.2258   -7.5509   20.7600 N   0  0  0  0  0  0  0  0  0  0  0  0
  -29.4387   -7.6172   20.1851 N   0  0  0  0  0  0  0  0  0  0  0  0
  -25.4716  -30.8947   22.1402 N   0  0  0  0  0  0  0  0  0  0  0  0
  -31.0471  -10.4106   22.2329 N   0  0  0  0  0  0  0  0  0  0  0  0
  -30.6857   -6.8709   18.3145 N   0  0  0  0  0  0  0  0  0  0  0  0
  -26.6223   -5.0088   17.6680 N   0  0  0  0  0  0  0  0  0  0  0  0
  -30.5625  -12.3837   21.0352 N   0  0  0  0  0  0  0  0  0  0  0  0
  -26.8748  -27.7901   20.8408 N   0  0  0  0  0  0  0  0  0  0  0  0
  -25.7761  -33.8467   23.7686 N   0  0  0  0  0  0  0  0  0  0  0  0
  -27.4381  -19.5857   21.5408 N   0  0  0  0  0  0  0  0  0  0  0  0
  -17.2815  -24.4252   21.2549 N   0  0  0  0  0  0  0  0  0  0  0  0
  -23.8571  -36.5894   22.4039 N   0  3  0  0  0  0  0  0  0  0  0  0
  -28.7411   -5.1986   16.8116 O   0  0  0  0  0  0  0  0  0  0  0  0
  -25.9786  -28.4977   22.8702 O   0  0  0  0  0  0  0  0  0  0  0  0
  -27.5220  -31.9210   22.5635 O   0  0  0  0  0  0  0  0  0  0  0  0
  -27.2066  -17.3472   22.1026 O   0  0  0  0  0  0  0  0  0  0  0  0
  -16.1215  -26.0300   22.4648 O   0  0  0  0  0  0  0  0  0  0  0  0
  -23.4746  -34.1222   23.7012 O   0  0  0  0  0  0  0  0  0  0  0  0
  -32.3026  -12.3225   22.5682 O   0  0  0  0  0  0  0  0  0  0  0  0
  -22.1858   -5.5479   20.9939 O   0  0  0  0  0  0  0  0  0  0  0  0
  -19.6456  -29.1205   21.1031 O   0  0  0  0  0  0  0  0  0  1  0  0
  -20.8765   -4.0910   26.1483 F   0  0  0  0  0  0  0  0  0  0  0  0
  -21.0705   -3.0756   21.5291 F   0  0  0  0  0  0  0  0  0  0  0  0
  1  2  1  0  0  0  0
  1  5  2  0  0  0  0
  2  6  2  0  0  0  0
  3 12  2  0  0  0  0
  3 19  1  0  0  0  0
  4 13  1  0  0  0  0
  4 19  2  0  0  0  0
  5 21  1  0  0  0  0
  6 23  1  0  0  0  0
  7 14  2  0  0  0  0
  7 22  1  0  0  0  0
  8 10  2  0  0  0  0
  8 25  1  0  0  0  0
  9 11  1  0  0  0  0
  9 25  2  0  0  0  0
 10 26  1  0  0  0  0
 11 26  2  0  0  0  0
 12 27  1  0  0  0  0
 13 27  2  0  0  0  0
 14 28  1  0  0  0  0
 15 16  2  0  0  0  0
 15 29  1  0  0  0  0
 16 30  1  0  0  0  0
 17 24  1  0  0  0  0
 17 28  2  0  0  0  0
 18 30  2  0  0  0  0
 18 31  1  0  0  0  0
 19 32  1  0  0  0  0
 20 32  1  0  0  0  0
 20 33  2  0  0  0  0
 20 34  1  0  0  0  0
 21 23  2  0  0  0  0
 21 41  1  0  0  0  0
 22 24  2  0  0  0  0
 22 42  1  0  0  0  0
 23 50  1  0  0  0  0
 24 43  1  0  0  0  0
 25 60  1  0  0  0  0
 26 83  1  0  0  0  0
 27 96  1  0  0  0  0
 28 97  1  0  0  0  0
 29 31  2  0  0  0  0
 29 96  1  0  0  0  0
 30 98  1  0  0  0  0
 31 99  1  0  0  0  0
 32 77  2  0  0  0  0
 33 78  1  0  0  0  0
 33 81  1  0  0  0  0
 34 82  1  0  0  0  0
 34 89  2  0  0  0  0
 35 51  1  0  0  0  0
 35 84  1  0  0  0  0
 35 90  2  0  0  0  0
 36 74  1  0  0  0  0
 36 79  1  0  0  0  0
 36 91  2  0  0  0  0
 37 60  1  0  0  0  0
 37 86  1  0  0  0  0
 37 92  2  0  0  0  0
 38 61  1  0  0  0  0
 38 87  1  0  0  0  0
 38 93  2  0  0  0  0
 39 75  1  0  0  0  0
 39 85  1  0  0  0  0
 39 94  2  0  0  0  0
 40 80  1  0  0  0  0
 40 83  1  0  0  0  0
 40 95  2  0  0  0  0
 41 44  1  0  0  0  0
 42 51  1  0  0  0  0
 43 79  1  0  0  0  0
 44 46  1  0  0  0  0
 45 47  1  0  0  0  0
 45 48  1  0  0  0  0
 46 50  1  0  0  0  0
 47 52  1  0  0  0  0
 48 80  1  0  0  0  0
 49 52  1  0  0  0  0
 49 80  1  0  0  0  0
 50 84  1  0  0  0  0
 51 79  1  0  0  0  0
 52 78  1  0  0  0  0
 53 62  1  0  0  0  0
 54 75  1  0  0  0  0
 55 76  1  0  0  0  0
 56 76  1  0  0  0  0
 57 76  1  0  0  0  0
 58 86  1  0  0  0  0
 59 88  1  0  0  0  0
 61 63  1  0  0  0  0
 62 70  1  0  0  0  0
 63 73  1  0  0  0  0
 64 65  1  0  0  0  0
 64 66  1  0  0  0  0
 65 67  1  0  0  0  0
 66 68  1  0  0  0  0
 67 69  1  0  0  0  0
 68 71  1  0  0  0  0
 69 72  1  0  0  0  0
 70 87  1  0  0  0  0
 71 86  1  0  0  0  0
 72 87  1  0  0  0  0
 73 97  1  0  0  0  0
 74 76  1  0  0  0  0
 74 85  1  0  0  0  0
 75 88  1  0  0  0  0
 77 78  1  0  0  0  0
M  CHG  1  88   1
M  ISO  4  40 100  73 101  83 100  97 101
M  END
> <Batch ID>
0005

> <Smiles>
CCCN(CCCCCCCCN(C)C(=O)Cc1ccc([100NH:0][100C:0](=O)N2CCCC(n3nc(-c4ccc(Oc5ccc(F)cc5F)cc4)c(C(N)=O)c3N)C2)cc1)C(=O)CC[101CH2:1][101O:1]c1ccc2c(c1)CN(C(=O)C(NC(=O)C(C)NC)C(C)(C)C)C(C(=O)NC1CCCc3ccccc31)C2

> <Shape>
0.276

> <Color>
0.060

> <Negative vol penalty>
0.000

$$$$

  -OEChem-04052315263D

 98106  0     1  0  0  0  0  0999 V2000
  -31.5417  -30.9546   32.0115 C   0  0  0  0  0  0  0  0  0  0  0  0
  -32.2427  -29.7638   31.8500 C   0  0  0  0  0  0  0  0  0  0  0  0
  -23.0771   -9.8658   19.9424 C   0  0  0  0  0  0  0  0  0  0  0  0
  -23.8349   -9.8766   22.2364 C   0  0  0  0  0  0  0  0  0  0  0  0
  -30.4217  -31.2152   31.2231 C   0  0  0  0  0  0  0  0  0  0  0  0
  -31.8233  -28.8324   30.9008 C   0  0  0  0  0  0  0  0  0  0  0  0
  -35.3765  -25.1502   27.5360 C   0  0  0  0  0  0  0  0  0  0  0  0
  -22.3335   -8.7127   20.1934 C   0  0  0  0  0  0  0  0  0  0  0  0
  -23.0912   -8.7235   22.4875 C   0  0  0  0  0  0  0  0  0  0  0  0
  -35.7415  -23.8122   27.6784 C   0  0  0  0  0  0  0  0  0  0  0  0
  -19.8629   -7.9253   23.0883 C   0  0  0  0  0  0  0  0  0  0  0  0
  -19.1049   -7.8868   24.2586 C   0  0  0  0  0  0  0  0  0  0  0  0
  -29.8739  -17.4634   23.1345 C   0  0  0  0  0  0  0  0  0  0  0  0
  -31.8457  -18.3681   24.1977 C   0  0  0  0  0  0  0  0  0  0  0  0
  -33.9674  -23.1743   26.1735 C   0  0  0  0  0  0  0  0  0  0  0  0
  -32.0590  -16.6152   22.5488 C   0  0  0  0  0  0  0  0  0  0  0  0
  -20.3464   -5.9510   24.9991 C   0  0  0  0  0  0  0  0  0  0  0  0
  -23.8279  -10.4477   20.9639 C   0  0  0  0  0  0  0  0  0  0  0  0
  -30.4601  -18.3492   24.0385 C   0  0  0  0  0  0  0  0  0  0  0  0
  -24.1687  -12.9728   20.8403 C   0  0  0  0  0  0  0  0  0  0  0  0
  -29.9941  -30.2908   30.2571 C   0  0  0  0  0  0  0  0  0  0  0  0
  -34.2955  -25.5099   26.7184 C   0  0  0  0  0  0  0  0  0  0  0  0
  -30.6957  -29.0803   30.0998 C   0  0  0  0  0  0  0  0  0  0  0  0
  -33.5923  -24.5177   26.0203 C   0  0  0  0  0  0  0  0  0  0  0  0
  -30.6734  -16.5963   22.3897 C   0  0  0  0  0  0  0  0  0  0  0  0
  -32.6452  -17.5011   23.4528 C   0  0  0  0  0  0  0  0  0  0  0  0
  -22.3405   -8.1416   21.4660 C   0  0  0  0  0  0  0  0  0  0  0  0
  -35.0351  -22.8237   26.9994 C   0  0  0  0  0  0  0  0  0  0  0  0
  -20.8626   -6.9765   22.8734 C   0  0  0  0  0  0  0  0  0  0  0  0
  -19.3466   -6.8997   25.2140 C   0  0  0  0  0  0  0  0  0  0  0  0
  -21.1044   -5.9895   23.8288 C   0  0  0  0  0  0  0  0  0  0  0  0
  -24.5967  -11.6385   20.7050 C   0  0  0  0  0  0  0  0  0  0  0  0
  -25.2609  -13.7222   20.4769 C   0  0  0  0  0  0  0  0  0  0  0  0
  -29.6086  -19.2728   24.8316 C   0  0  0  0  0  0  0  0  0  0  0  0
  -22.8977  -13.4887   21.2573 C   0  0  0  0  0  0  0  0  0  0  0  0
  -31.4945  -26.9332   27.2006 C   0  0  0  0  0  0  0  0  0  0  0  0
  -31.3078  -26.7950   23.9652 C   0  0  0  0  0  0  0  0  0  0  0  0
  -34.6227  -17.8830   24.8752 C   0  0  0  0  0  0  0  0  0  0  0  0
  -32.2945  -25.2850   21.0681 C   0  0  0  0  0  0  0  0  0  0  0  0
  -30.7265  -14.7703   20.6549 C   0  0  0  0  0  0  0  0  0  0  0  0
  -28.7498  -30.5957   29.4612 C   0  0  0  0  0  0  0  0  0  0  0  0
  -33.9312  -26.9600   26.5543 C   0  0  0  0  0  0  0  0  0  0  0  0
  -32.4369  -24.8533   25.1144 C   0  0  0  0  0  0  0  0  0  0  0  0
  -28.5920  -29.7224   28.2191 C   0  0  0  0  0  0  0  0  0  0  0  0
  -29.6152  -12.3524   18.2893 C   0  0  0  0  0  0  0  0  0  0  0  0
  -28.8526  -28.2584   28.5593 C   0  0  0  0  0  0  0  0  0  0  0  0
  -28.1753  -12.0609   18.7180 C   0  0  0  0  0  0  0  0  0  0  0  0
  -30.5292  -12.5834   19.4915 C   0  0  0  0  0  0  0  0  0  0  0  0
  -28.6207  -13.3092   20.8699 C   0  0  0  0  0  0  0  0  0  0  0  0
  -30.2865  -28.0560   29.0636 C   0  0  1  0  0  0  0  0  0  0  0  0
  -32.4898  -27.1662   26.0993 C   0  0  1  0  0  0  0  0  0  0  0  0
  -27.6490  -13.1338   19.6914 C   0  0  2  0  0  0  0  0  0  0  0  0
  -36.0212  -20.3824   33.7956 C   0  0  0  0  0  0  0  0  0  0  0  0
  -35.6518  -17.7183   20.1055 C   0  0  0  0  0  0  0  0  0  0  0  0
  -31.9429  -25.3676   18.5847 C   0  0  0  0  0  0  0  0  0  0  0  0
  -28.6039  -25.4225   24.3048 C   0  0  0  0  0  0  0  0  0  0  0  0
  -28.7524  -24.6927   21.9145 C   0  0  0  0  0  0  0  0  0  0  0  0
  -28.6878  -27.1231   22.4730 C   0  0  0  0  0  0  0  0  0  0  0  0
  -35.1474  -25.8926   20.5675 C   0  0  0  0  0  0  0  0  0  0  0  0
  -35.9778  -18.5863   24.8478 C   0  0  0  0  0  0  0  0  0  0  0  0
  -34.5672  -20.3243   33.3533 C   0  0  0  0  0  0  0  0  0  0  0  0
  -34.7501  -18.0863   21.2752 C   0  0  0  0  0  0  0  0  0  0  0  0
  -36.1746  -19.5350   26.0293 C   0  0  0  0  0  0  0  0  0  0  0  0
  -34.3653  -20.6529   31.8726 C   0  0  0  0  0  0  0  0  0  0  0  0
  -32.8983  -20.6191   31.4384 C   0  0  0  0  0  0  0  0  0  0  0  0
  -32.7550  -20.9308   29.9468 C   0  0  0  0  0  0  0  0  0  0  0  0
  -31.2861  -20.9297   29.5164 C   0  0  0  0  0  0  0  0  0  0  0  0
  -31.1479  -21.2097   28.0183 C   0  0  0  0  0  0  0  0  0  0  0  0
  -29.6946  -21.2129   27.5302 C   0  0  0  0  0  0  0  0  0  0  0  0
  -34.9362  -17.1652   22.4749 C   0  0  0  0  0  0  0  0  0  0  0  0
  -29.5213  -21.4426   26.0318 C   0  0  0  0  0  0  0  0  0  0  0  0
  -35.1451  -20.6558   26.0278 C   0  0  0  0  0  0  0  0  0  1  0  0
  -30.7806  -25.7931   22.9666 C   0  0  1  0  0  0  0  0  0  0  0  0
  -32.7872  -25.8571   19.7511 C   0  0  2  0  0  0  0  0  0  0  0  0
  -29.2267  -25.7510   22.9332 C   0  0  0  0  0  0  0  0  0  0  0  0
  -25.8619  -11.5425   20.2880 N   0  0  0  0  0  0  0  0  0  0  0  0
  -26.2384  -12.8261   20.1581 N   0  0  0  0  0  0  0  0  0  0  0  0
  -32.1151  -26.2847   24.9917 N   0  0  0  0  0  0  0  0  0  0  0  0
  -29.9690  -13.6154   20.3667 N   0  0  0  0  0  0  0  0  0  0  0  0
  -25.4708  -15.0536   20.4020 N   0  0  0  0  0  0  0  0  0  0  0  0
  -21.8858  -12.5796   21.5950 N   0  0  0  0  0  0  0  0  0  0  0  0
  -30.0780  -15.6964   21.4713 N   0  0  0  0  0  0  0  0  0  0  0  0
  -30.2069  -20.4599   25.2387 N   0  0  0  0  0  0  0  0  0  0  0  0
  -31.2170  -28.0571   27.9552 N   0  0  0  0  0  0  0  0  0  0  0  0
  -31.3968  -26.1286   21.6875 N   0  0  0  0  0  0  0  0  0  0  0  0
  -34.0312  -17.5204   23.6119 N   0  0  0  0  0  0  0  0  0  0  0  0
  -34.2016  -25.4554   19.5086 N   0  3  0  0  0  0  0  0  0  0  0  0
  -28.4560  -18.9446   25.1003 O   0  0  0  0  0  0  0  0  0  0  0  0
  -22.6608  -14.7193   21.3125 O   0  0  0  0  0  0  0  0  0  0  0  0
  -31.0129  -25.8168   27.3535 O   0  0  0  0  0  0  0  0  0  0  0  0
  -31.0200  -27.9874   23.8350 O   0  0  0  0  0  0  0  0  0  0  0  0
  -34.0723  -17.6762   25.9597 O   0  0  0  0  0  0  0  0  0  0  0  0
  -32.6659  -24.1967   21.5020 O   0  0  0  0  0  0  0  0  0  0  0  0
  -31.8559  -14.9388   20.1881 O   0  0  0  0  0  0  0  0  0  0  0  0
  -21.6148   -7.0165   21.7114 O   0  0  0  0  0  0  0  0  0  0  0  0
  -35.3915  -21.5073   27.1382 O   0  0  0  0  0  0  0  0  0  1  0  0
  -18.6197   -6.8638   26.3385 F   0  0  0  0  0  0  0  0  0  0  0  0
  -22.0643   -5.0760   23.6285 F   0  0  0  0  0  0  0  0  0  0  0  0
  1  2  1  0  0  0  0
  1  5  2  0  0  0  0
  2  6  2  0  0  0  0
  3  8  2  0  0  0  0
  3 18  1  0  0  0  0
  4  9  1  0  0  0  0
  4 18  2  0  0  0  0
  5 21  1  0  0  0  0
  6 23  1  0  0  0  0
  7 10  2  0  0  0  0
  7 22  1  0  0  0  0
  8 27  1  0  0  0  0
  9 27  2  0  0  0  0
 10 28  1  0  0  0  0
 11 12  2  0  0  0  0
 11 29  1  0  0  0  0
 12 30  1  0  0  0  0
 13 19  1  0  0  0  0
 13 25  2  0  0  0  0
 14 19  2  0  0  0  0
 14 26  1  0  0  0  0
 15 24  1  0  0  0  0
 15 28  2  0  0  0  0
 16 25  1  0  0  0  0
 16 26  2  0  0  0  0
 17 30  2  0  0  0  0
 17 31  1  0  0  0  0
 18 32  1  0  0  0  0
 19 34  1  0  0  0  0
 20 32  1  0  0  0  0
 20 33  2  0  0  0  0
 20 35  1  0  0  0  0
 21 23  2  0  0  0  0
 21 41  1  0  0  0  0
 22 24  2  0  0  0  0
 22 42  1  0  0  0  0
 23 50  1  0  0  0  0
 24 43  1  0  0  0  0
 25 82  1  0  0  0  0
 26 86  1  0  0  0  0
 27 95  1  0  0  0  0
 28 96  1  0  0  0  0
 29 31  2  0  0  0  0
 29 95  1  0  0  0  0
 30 97  1  0  0  0  0
 31 98  1  0  0  0  0
 32 76  2  0  0  0  0
 33 77  1  0  0  0  0
 33 80  1  0  0  0  0
 34 83  1  0  0  0  0
 34 88  2  0  0  0  0
 35 81  1  0  0  0  0
 35 89  2  0  0  0  0
 36 51  1  0  0  0  0
 36 84  1  0  0  0  0
 36 90  2  0  0  0  0
 37 73  1  0  0  0  0
 37 78  1  0  0  0  0
 37 91  2  0  0  0  0
 38 60  1  0  0  0  0
 38 86  1  0  0  0  0
 38 92  2  0  0  0  0
 39 74  1  0  0  0  0
 39 85  1  0  0  0  0
 39 93  2  0  0  0  0
 40 79  1  0  0  0  0
 40 82  1  0  0  0  0
 40 94  2  0  0  0  0
 41 44  1  0  0  0  0
 42 51  1  0  0  0  0
 43 78  1  0  0  0  0
 44 46  1  0  0  0  0
 45 47  1  0  0  0  0
 45 48  1  0  0  0  0
 46 50  1  0  0  0  0
 47 52  1  0  0  0  0
 48 79  1  0  0  0  0
 49 52  1  0  0  0  0
 49 79  1  0  0  0  0
 50 84  1  0  0  0  0
 51 78  1  0  0  0  0
 52 77  1  0  0  0  0
 53 61  1  0  0  0  0
 54 62  1  0  0  0  0
 55 74  1  0  0  0  0
 56 75  1  0  0  0  0
 57 75  1  0  0  0  0
 58 75  1  0  0  0  0
 59 87  1  0  0  0  0
 60 63  1  0  0  0  0
 61 64  1  0  0  0  0
 62 70  1  0  0  0  0
 63 72  1  0  0  0  0
 64 65  1  0  0  0  0
 65 66  1  0  0  0  0
 66 67  1  0  0  0  0
 67 68  1  0  0  0  0
 68 69  1  0  0  0  0
 69 71  1  0  0  0  0
 70 86  1  0  0  0  0
 71 83  1  0  0  0  0
 72 96  1  0  0  0  0
 73 75  1  0  0  0  0
 73 85  1  0  0  0  0
 74 87  1  0  0  0  0
 76 77  1  0  0  0  0
M  CHG  1  87   1
M  ISO  4  40 100  72 101  82 100  96 101
M  END
> <Batch ID>
0005

> <Smiles>
CCCCCCCCCNC(=O)c1cc([100NH:0][100C:0](=O)N2CCCC(n3nc(-c4ccc(Oc5ccc(F)cc5F)cc4)c(C(N)=O)c3N)C2)cc(N(CCC)C(=O)CC[101CH2:1][101O:1]c2ccc3c(c2)CN(C(=O)C(NC(=O)C(C)NC)C(C)(C)C)C(C(=O)NC2CCCc4ccccc42)C3)c1

> <Shape>
0.172

> <Color>
0.180

> <Negative vol penalty>
0.000

$$$$

  -OEChem-04052315263D

 85 92  0     1  0  0  0  0  0999 V2000
  -20.2468  -34.6605   22.4853 C   0  0  0  0  0  0  0  0  0  0  0  0
  -21.5083  -34.2075   22.1128 C   0  0  0  0  0  0  0  0  0  0  0  0
  -22.2632  -14.5621   20.9845 C   0  0  0  0  0  0  0  0  0  0  0  0
  -24.0711  -13.7128   22.3436 C   0  0  0  0  0  0  0  0  0  0  0  0
  -19.4104  -33.8439   23.2453 C   0  0  0  0  0  0  0  0  0  0  0  0
  -21.9347  -32.9380   22.5012 C   0  0  0  0  0  0  0  0  0  0  0  0
  -25.5009  -29.1162   19.3102 C   0  0  0  0  0  0  0  0  0  0  0  0
  -21.6795  -13.2953   20.9691 C   0  0  0  0  0  0  0  0  0  0  0  0
  -23.4874  -12.4460   22.3283 C   0  0  0  0  0  0  0  0  0  0  0  0
  -26.8658  -28.8379   19.3686 C   0  0  0  0  0  0  0  0  0  0  0  0
  -22.6622   -8.9064   22.3476 C   0  0  0  0  0  0  0  0  0  0  0  0
  -23.4943   -7.8120   22.1118 C   0  0  0  0  0  0  0  0  0  0  0  0
  -26.4120  -26.9401   20.7869 C   0  0  0  0  0  0  0  0  0  0  0  0
  -24.0983   -8.7345   19.9621 C   0  0  0  0  0  0  0  0  0  0  0  0
  -23.4590  -14.7708   21.6716 C   0  0  0  0  0  0  0  0  0  0  0  0
  -23.8412  -17.1063   22.6241 C   0  0  0  0  0  0  0  0  0  0  0  0
  -19.8230  -32.5599   23.6349 C   0  0  0  0  0  0  0  0  0  0  0  0
  -24.5807  -28.3136   19.9997 C   0  0  0  0  0  0  0  0  0  0  0  0
  -21.1037  -32.1039   23.2682 C   0  0  0  0  0  0  0  0  0  0  0  0
  -25.0358  -27.2088   20.7335 C   0  0  0  0  0  0  0  0  0  0  0  0
  -22.2916  -12.2373   21.6411 C   0  0  0  0  0  0  0  0  0  0  0  0
  -27.3218  -27.7515   20.1094 C   0  0  0  0  0  0  0  0  0  0  0  0
  -22.5481   -9.9148   21.3906 C   0  0  0  0  0  0  0  0  0  0  0  0
  -24.2123   -7.7261   20.9190 C   0  0  0  0  0  0  0  0  0  0  0  0
  -23.2662   -9.8289   20.1979 C   0  0  0  0  0  0  0  0  0  0  0  0
  -24.0627  -16.0790   21.6873 C   0  0  0  0  0  0  0  0  0  0  0  0
  -24.6448  -18.1364   22.2004 C   0  0  0  0  0  0  0  0  0  0  0  0
  -31.6683  -26.6452   21.6685 C   0  0  0  0  0  0  0  0  0  0  0  0
  -22.9857  -17.1273   23.7745 C   0  0  0  0  0  0  0  0  0  0  0  0
  -22.4868  -28.8057   22.3401 C   0  0  0  0  0  0  0  0  0  0  0  0
  -21.6376  -25.7417   21.6972 C   0  0  0  0  0  0  0  0  0  0  0  0
  -31.9309  -21.4886   18.7637 C   0  0  0  0  0  0  0  0  0  0  0  0
  -22.5135  -22.6987   20.4245 C   0  0  0  0  0  0  0  0  0  0  0  0
  -29.6346  -18.1907   19.0453 C   0  0  0  0  0  0  0  0  0  0  0  0
  -18.9026  -31.7318   24.4961 C   0  0  0  0  0  0  0  0  0  0  0  0
  -23.1094  -28.6113   19.9048 C   0  0  0  0  0  0  0  0  0  0  0  0
  -24.0871  -26.3041   21.4752 C   0  0  0  0  0  0  0  0  0  0  0  0
  -19.2834  -30.2545   24.5493 C   0  0  0  0  0  0  0  0  0  0  0  0
  -26.5938  -19.9785   18.2361 C   0  0  0  0  0  0  0  0  0  0  0  0
  -20.7814  -30.0977   24.7904 C   0  0  0  0  0  0  0  0  0  0  0  0
  -25.5760  -19.2674   19.1297 C   0  0  0  0  0  0  0  0  0  0  0  0
  -27.6182  -18.9965   17.6752 C   0  0  0  0  0  0  0  0  0  0  0  0
  -27.3238  -17.4894   19.6028 C   0  0  0  0  0  0  0  0  0  0  0  0
  -21.5924  -30.7233   23.6491 C   0  0  1  0  0  0  0  0  0  0  0  0
  -22.3064  -28.0314   21.0651 C   0  0  1  0  0  0  0  0  0  0  0  0
  -26.2740  -18.4318   20.2191 C   0  0  2  0  0  0  0  0  0  0  0  0
  -21.6215  -20.3795   20.0735 C   0  0  0  0  0  0  0  0  0  0  0  0
  -22.0457  -25.1389   24.6604 C   0  0  0  0  0  0  0  0  0  0  0  0
  -22.0789  -22.7017   24.0885 C   0  0  0  0  0  0  0  0  0  0  0  0
  -20.0329  -24.0577   23.6433 C   0  0  0  0  0  0  0  0  0  0  0  0
  -30.3717  -26.1588   18.1962 C   0  0  0  0  0  0  0  0  0  0  0  0
  -22.7973  -22.9092   17.4861 C   0  0  0  0  0  0  0  0  0  0  0  0
  -32.3204  -20.1131   19.2818 C   0  0  0  0  0  0  0  0  0  0  0  0
  -30.7689  -24.3500   19.9510 C   0  0  0  0  0  0  0  0  0  0  0  0
  -31.8886  -18.9759   18.3669 C   0  0  0  0  0  0  0  0  0  0  0  0
  -32.1046  -23.8940   19.3628 C   0  0  0  0  0  0  0  0  0  0  0  0
  -29.0293  -26.1113   20.3334 C   0  0  0  0  0  0  0  0  0  1  0  0
  -22.0767  -24.3845   22.1914 C   0  0  1  0  0  0  0  0  0  0  0  0
  -21.7972  -21.7632   19.4674 C   0  0  2  0  0  0  0  0  0  0  0  0
  -21.5768  -24.0887   23.6336 C   0  0  0  0  0  0  0  0  0  0  0  0
  -30.4105  -25.8363   19.6984 C   0  0  2  0  0  0  0  0  0  0  0  0
  -24.9382  -16.4251   20.7399 N   0  0  0  0  0  0  0  0  0  0  0  0
  -25.2740  -17.6814   21.0791 N   0  0  0  0  0  0  0  0  0  0  0  0
  -22.6586  -26.6403   21.3568 N   0  0  0  0  0  0  0  0  0  0  0  0
  -28.2593  -18.2465   18.7644 N   0  0  0  0  0  0  0  0  0  0  0  0
  -24.8675  -19.3780   22.6813 N   0  0  0  0  0  0  0  0  0  0  0  0
  -22.2290  -15.9841   24.0654 N   0  0  0  0  0  0  0  0  0  0  0  0
  -21.5961  -29.8508   22.4945 N   0  0  0  0  0  0  0  0  0  0  0  0
  -32.3421  -22.4992   19.6256 N   0  0  0  0  0  0  0  0  0  0  0  0
  -21.6254  -23.4210   21.1932 N   0  0  0  0  0  0  0  0  0  0  0  0
  -30.4529  -18.9301   18.2001 N   0  0  0  0  0  0  0  0  0  0  0  0
  -31.3984  -26.6896   20.3414 N   0  0  0  0  0  0  0  0  0  0  0  0
  -22.5704  -21.6267   18.2007 N   0  3  0  0  0  0  0  0  0  0  0  0
  -31.1517  -25.9158   22.5073 O   0  0  0  0  0  0  0  0  0  0  0  0
  -22.8827  -18.1361   24.5129 O   0  0  0  0  0  0  0  0  0  0  0  0
  -23.3680  -28.4782   23.1262 O   0  0  0  0  0  0  0  0  0  0  0  0
  -20.4331  -25.9927   21.6095 O   0  0  0  0  0  0  0  0  0  0  0  0
  -31.3329  -21.6673   17.7061 O   0  0  0  0  0  0  0  0  0  0  0  0
  -23.7384  -22.7779   20.4869 O   0  0  0  0  0  0  0  0  0  0  0  0
  -30.0990  -17.5344   19.9839 O   0  0  0  0  0  0  0  0  0  0  0  0
  -32.0408  -27.5583   19.4576 O   0  0  0  0  0  0  0  0  0  0  0  0
  -21.7223  -11.0011   21.6266 O   0  0  0  0  0  0  0  0  0  0  0  0
  -28.6536  -27.4780   20.1687 O   0  0  0  0  0  0  0  0  0  1  0  0
  -25.0125   -6.6758   20.6934 F   0  0  0  0  0  0  0  0  0  0  0  0
  -23.1616  -10.7951   19.2753 F   0  0  0  0  0  0  0  0  0  0  0  0
  1  2  1  0  0  0  0
  1  5  2  0  0  0  0
  2  6  2  0  0  0  0
  3  8  2  0  0  0  0
  3 15  1  0  0  0  0
  4  9  1  0  0  0  0
  4 15  2  0  0  0  0
  5 17  1  0  0  0  0
  6 19  1  0  0  0  0
  7 10  2  0  0  0  0
  7 18  1  0  0  0  0
  8 21  1  0  0  0  0
  9 21  2  0  0  0  0
 10 22  1  0  0  0  0
 11 12  2  0  0  0  0
 11 23  1  0  0  0  0
 12 24  1  0  0  0  0
 13 20  1  0  0  0  0
 13 22  2  0  0  0  0
 14 24  2  0  0  0  0
 14 25  1  0  0  0  0
 15 26  1  0  0  0  0
 16 26  1  0  0  0  0
 16 27  2  0  0  0  0
 16 29  1  0  0  0  0
 17 19  2  0  0  0  0
 17 35  1  0  0  0  0
 18 20  2  0  0  0  0
 18 36  1  0  0  0  0
 19 44  1  0  0  0  0
 20 37  1  0  0  0  0
 21 82  1  0  0  0  0
 22 83  1  0  0  0  0
 23 25  2  0  0  0  0
 23 82  1  0  0  0  0
 24 84  1  0  0  0  0
 25 85  1  0  0  0  0
 26 62  2  0  0  0  0
 27 63  1  0  0  0  0
 27 66  1  0  0  0  0
 28 72  1  0  0  0  0
 28 74  2  0  0  0  0
 29 67  1  0  0  0  0
 29 75  2  0  0  0  0
 30 45  1  0  0  0  0
 30 68  1  0  0  0  0
 30 76  2  0  0  0  0
 31 58  1  0  0  0  0
 31 64  1  0  0  0  0
 31 77  2  0  0  0  0
 32 53  1  0  0  0  0
 32 69  1  0  0  0  0
 32 78  2  0  0  0  0
 33 59  1  0  0  0  0
 33 70  1  0  0  0  0
 33 79  2  0  0  0  0
 34 65  1  0  0  0  0
 34 71  1  0  0  0  0
 34 80  2  0  0  0  0
 35 38  1  0  0  0  0
 36 45  1  0  0  0  0
 37 64  1  0  0  0  0
 38 40  1  0  0  0  0
 39 41  1  0  0  0  0
 39 42  1  0  0  0  0
 40 44  1  0  0  0  0
 41 46  1  0  0  0  0
 42 65  1  0  0  0  0
 43 46  1  0  0  0  0
 43 65  1  0  0  0  0
 44 68  1  0  0  0  0
 45 64  1  0  0  0  0
 46 63  1  0  0  0  0
 47 59  1  0  0  0  0
 48 60  1  0  0  0  0
 49 60  1  0  0  0  0
 50 60  1  0  0  0  0
 51 61  1  0  0  0  0
 52 73  1  0  0  0  0
 53 55  1  0  0  0  0
 54 56  1  0  0  0  0
 54 61  1  0  0  0  0
 55 71  1  0  0  0  0
 56 69  1  0  0  0  0
 57 61  1  0  0  0  0
 57 83  1  0  0  0  0
 58 60  1  0  0  0  0
 58 70  1  0  0  0  0
 59 73  1  0  0  0  0
 61 72  1  0  0  0  0
 62 63  1  0  0  0  0
 72 81  1  0  0  0  0
M  CHG  1  73   1
M  ISO  4  34 100  57 101  71 100  83 101
M  END
> <Batch ID>
0005

> <Smiles>
CNC(C)C(=O)NC(C(=O)N1Cc2cc([101O:1][101CH2:1]C(C)(CCNC(=O)CC[100NH:0][100C:0](=O)N3CCCC(n4nc(-c5ccc(Oc6ccc(F)cc6F)cc5)c(C(N)=O)c4N)C3)N(O)C=O)ccc2CC1C(=O)NC1CCCc2ccccc21)C(C)(C)C

> <Shape>
0.199

> <Color>
0.097

> <Negative vol penalty>
0.000

$$$$

  -OEChem-04052315263D

 85 93  0     1  0  0  0  0  0999 V2000
  -18.7292  -25.9646   22.2820 C   0  0  0  0  0  0  0  0  0  0  0  0
  -20.1181  -25.9763   22.3617 C   0  0  0  0  0  0  0  0  0  0  0  0
  -22.9900   -9.9066   19.9597 C   0  0  0  0  0  0  0  0  0  0  0  0
  -23.8517   -9.7842   22.2135 C   0  0  0  0  0  0  0  0  0  0  0  0
  -18.0429  -27.1237   21.9223 C   0  0  0  0  0  0  0  0  0  0  0  0
  -20.8215  -27.1470   22.0806 C   0  0  0  0  0  0  0  0  0  0  0  0
  -24.4758  -28.0768   25.4610 C   0  0  0  0  0  0  0  0  0  0  0  0
  -22.2415   -8.7510   20.1831 C   0  0  0  0  0  0  0  0  0  0  0  0
  -23.1031   -8.6286   22.4369 C   0  0  0  0  0  0  0  0  0  0  0  0
  -25.6570  -27.3463   25.3388 C   0  0  0  0  0  0  0  0  0  0  0  0
  -23.3207   -5.3371   21.6956 C   0  0  0  0  0  0  0  0  0  0  0  0
  -23.9528   -4.2682   22.3308 C   0  0  0  0  0  0  0  0  0  0  0  0
  -26.7001  -29.2269   24.2459 C   0  0  0  0  0  0  0  0  0  0  0  0
  -30.2091  -19.1449   20.5190 C   0  0  0  0  0  0  0  0  0  0  0  0
  -31.0172  -18.9169   22.7843 C   0  0  0  0  0  0  0  0  0  0  0  0
  -22.3321   -4.3728   24.1195 C   0  0  0  0  0  0  0  0  0  0  0  0
  -23.7952  -10.4231   20.9748 C   0  0  0  0  0  0  0  0  0  0  0  0
  -24.1678  -12.9468   20.9704 C   0  0  0  0  0  0  0  0  0  0  0  0
  -18.7378  -28.3117   21.6460 C   0  0  0  0  0  0  0  0  0  0  0  0
  -24.3944  -29.3862   24.9659 C   0  0  0  0  0  0  0  0  0  0  0  0
  -20.1440  -28.3227   21.7155 C   0  0  0  0  0  0  0  0  0  0  0  0
  -25.5175  -29.9728   24.3653 C   0  0  0  0  0  0  0  0  0  0  0  0
  -30.7073  -19.7210   21.6875 C   0  0  0  0  0  0  0  0  0  0  0  0
  -30.0208  -17.7647   20.4472 C   0  0  0  0  0  0  0  0  0  0  0  0
  -30.8290  -17.5366   22.7126 C   0  0  0  0  0  0  0  0  0  0  0  0
  -30.3307  -16.9605   21.5440 C   0  0  0  0  0  0  0  0  0  0  0  0
  -22.2980   -8.1120   21.4217 C   0  0  0  0  0  0  0  0  0  0  0  0
  -26.7685  -27.9202   24.7287 C   0  0  0  0  0  0  0  0  0  0  0  0
  -22.1943   -5.9239   22.2724 C   0  0  0  0  0  0  0  0  0  0  0  0
  -23.4585   -3.7860   23.5428 C   0  0  0  0  0  0  0  0  0  0  0  0
  -21.7000   -5.4417   23.4843 C   0  0  0  0  0  0  0  0  0  0  0  0
  -24.5691  -11.6165   20.7445 C   0  0  0  0  0  0  0  0  0  0  0  0
  -25.2533  -13.7010   20.5972 C   0  0  0  0  0  0  0  0  0  0  0  0
  -22.9249  -13.4553   21.4727 C   0  0  0  0  0  0  0  0  0  0  0  0
  -22.6446  -30.8403   22.7461 C   0  0  0  0  0  0  0  0  0  0  0  0
  -24.1149  -33.4984   23.8842 C   0  0  0  0  0  0  0  0  0  0  0  0
  -26.7901  -34.8586   25.5089 C   0  0  0  0  0  0  0  0  0  0  0  0
  -30.7364  -14.6697   20.5775 C   0  0  0  0  0  0  0  0  0  0  0  0
  -17.9553  -29.5270   21.2153 C   0  0  0  0  0  0  0  0  0  0  0  0
  -23.1213  -30.1704   25.1293 C   0  0  0  0  0  0  0  0  0  0  0  0
  -25.4881  -31.3824   23.8355 C   0  0  0  0  0  0  0  0  0  0  0  0
  -18.7530  -30.8258   21.2978 C   0  0  0  0  0  0  0  0  0  0  0  0
  -29.4825  -12.3970   18.1405 C   0  0  0  0  0  0  0  0  0  0  0  0
  -20.1370  -30.6422   20.6833 C   0  0  0  0  0  0  0  0  0  0  0  0
  -28.0594  -12.1007   18.6192 C   0  0  0  0  0  0  0  0  0  0  0  0
  -30.4536  -12.5514   19.3096 C   0  0  0  0  0  0  0  0  0  0  0  0
  -28.6209  -13.2255   20.8116 C   0  0  0  0  0  0  0  0  0  0  0  0
  -20.9411  -29.5797   21.4422 C   0  0  1  0  0  0  0  0  0  0  0  0
  -22.9917  -31.3147   24.1288 C   0  0  1  0  0  0  0  0  0  0  0  0
  -27.5940  -13.1260   19.6718 C   0  0  2  0  0  0  0  0  0  0  0  0
  -29.4849  -17.1768   19.1818 C   0  0  0  0  0  0  0  0  0  0  0  0
  -31.1706  -16.7012   23.9040 C   0  0  0  0  0  0  0  0  0  0  0  0
  -27.7288  -37.0628   26.2557 C   0  0  0  0  0  0  0  0  0  0  0  0
  -24.9562  -34.1091   21.0155 C   0  0  0  0  0  0  0  0  0  0  0  0
  -26.6354  -35.7274   21.9264 C   0  0  0  0  0  0  0  0  0  0  0  0
  -24.2017  -36.0999   22.3277 C   0  0  0  0  0  0  0  0  0  0  0  0
  -26.7205  -34.0551   28.3565 C   0  0  0  0  0  0  0  0  0  0  0  0
  -30.9095  -21.2058   21.7649 C   0  0  0  0  0  0  0  0  0  0  0  0
  -28.9711  -25.2414   23.6810 C   0  0  0  0  0  0  0  0  0  0  0  0
  -28.8731  -23.7295   23.5098 C   0  0  0  0  0  0  0  0  0  0  0  0
  -27.8027  -25.7923   24.4876 C   0  0  0  0  0  0  0  0  0  1  0  0
  -30.0175  -23.1838   22.6675 C   0  0  0  0  0  0  0  0  0  0  0  0
  -25.3899  -34.2377   23.5574 C   0  0  1  0  0  0  0  0  0  0  0  0
  -26.8750  -35.8651   26.6421 C   0  0  2  0  0  0  0  0  0  0  0  0
  -25.2961  -35.0163   22.2149 C   0  0  0  0  0  0  0  0  0  0  0  0
  -25.8125  -11.5274   20.2648 N   0  0  0  0  0  0  0  0  0  0  0  0
  -26.2018  -12.8113   20.1862 N   0  0  0  0  0  0  0  0  0  0  0  0
  -24.2184  -32.1061   24.0133 N   0  0  0  0  0  0  0  0  0  0  0  0
  -29.9493  -13.5415   20.2636 N   0  0  0  0  0  0  0  0  0  0  0  0
  -25.4795  -15.0318   20.5838 N   0  0  0  0  0  0  0  0  0  0  0  0
  -21.9160  -12.5420   21.8080 N   0  0  0  0  0  0  0  0  0  0  0  0
  -30.1397  -15.5584   21.4713 N   0  0  0  0  0  0  0  0  0  0  0  0
  -21.4632  -30.1268   22.6761 N   0  0  0  0  0  0  0  0  0  0  0  0
  -25.6839  -35.0756   24.7149 N   0  0  0  0  0  0  0  0  0  0  0  0
  -27.4723  -35.2332   27.8525 N   0  3  0  0  0  0  0  0  0  0  0  0
  -22.7092  -14.6840   21.6043 O   0  0  0  0  0  0  0  0  0  0  0  0
  -23.3923  -31.1034   21.8115 O   0  0  0  0  0  0  0  0  0  0  0  0
  -23.0671  -34.1336   24.0268 O   0  0  0  0  0  0  0  0  0  0  0  0
  -27.6238  -33.9710   25.3424 O   0  0  0  0  0  0  0  0  0  0  0  0
  -31.8458  -14.8490   20.0685 O   0  0  0  0  0  0  0  0  0  0  0  0
  -21.5675   -6.9845   21.6401 O   0  0  0  0  0  0  0  0  0  0  0  0
  -27.9224  -27.2092   24.6076 O   0  0  0  0  0  0  0  0  0  1  0  0
  -29.8766  -21.7740   22.5588 O   0  0  0  0  0  0  0  0  0  0  0  0
  -24.0646   -2.7585   24.1519 F   0  0  0  0  0  0  0  0  0  0  0  0
  -20.6175   -6.0006   24.0426 F   0  0  0  0  0  0  0  0  0  0  0  0
  1  2  1  0  0  0  0
  1  5  2  0  0  0  0
  2  6  2  0  0  0  0
  3  8  2  0  0  0  0
  3 17  1  0  0  0  0
  4  9  1  0  0  0  0
  4 17  2  0  0  0  0
  5 19  1  0  0  0  0
  6 21  1  0  0  0  0
  7 10  2  0  0  0  0
  7 20  1  0  0  0  0
  8 27  1  0  0  0  0
  9 27  2  0  0  0  0
 10 28  1  0  0  0  0
 11 12  2  0  0  0  0
 11 29  1  0  0  0  0
 12 30  1  0  0  0  0
 13 22  1  0  0  0  0
 13 28  2  0  0  0  0
 14 23  1  0  0  0  0
 14 24  2  0  0  0  0
 15 23  2  0  0  0  0
 15 25  1  0  0  0  0
 16 30  2  0  0  0  0
 16 31  1  0  0  0  0
 17 32  1  0  0  0  0
 18 32  1  0  0  0  0
 18 33  2  0  0  0  0
 18 34  1  0  0  0  0
 19 21  2  0  0  0  0
 19 39  1  0  0  0  0
 20 22  2  0  0  0  0
 20 40  1  0  0  0  0
 21 48  1  0  0  0  0
 22 41  1  0  0  0  0
 23 58  1  0  0  0  0
 24 26  1  0  0  0  0
 24 51  1  0  0  0  0
 25 26  2  0  0  0  0
 25 52  1  0  0  0  0
 26 72  1  0  0  0  0
 27 81  1  0  0  0  0
 28 82  1  0  0  0  0
 29 31  2  0  0  0  0
 29 81  1  0  0  0  0
 30 84  1  0  0  0  0
 31 85  1  0  0  0  0
 32 66  2  0  0  0  0
 33 67  1  0  0  0  0
 33 70  1  0  0  0  0
 34 71  1  0  0  0  0
 34 76  2  0  0  0  0
 35 49  1  0  0  0  0
 35 73  1  0  0  0  0
 35 77  2  0  0  0  0
 36 63  1  0  0  0  0
 36 68  1  0  0  0  0
 36 78  2  0  0  0  0
 37 64  1  0  0  0  0
 37 74  1  0  0  0  0
 37 79  2  0  0  0  0
 38 69  1  0  0  0  0
 38 72  1  0  0  0  0
 38 80  2  0  0  0  0
 39 42  1  0  0  0  0
 40 49  1  0  0  0  0
 41 68  1  0  0  0  0
 42 44  1  0  0  0  0
 43 45  1  0  0  0  0
 43 46  1  0  0  0  0
 44 48  1  0  0  0  0
 45 50  1  0  0  0  0
 46 69  1  0  0  0  0
 47 50  1  0  0  0  0
 47 69  1  0  0  0  0
 48 73  1  0  0  0  0
 49 68  1  0  0  0  0
 50 67  1  0  0  0  0
 53 64  1  0  0  0  0
 54 65  1  0  0  0  0
 55 65  1  0  0  0  0
 56 65  1  0  0  0  0
 57 75  1  0  0  0  0
 58 83  1  0  0  0  0
 59 60  1  0  0  0  0
 59 61  1  0  0  0  0
 60 62  1  0  0  0  0
 61 82  1  0  0  0  0
 62 83  1  0  0  0  0
 63 65  1  0  0  0  0
 63 74  1  0  0  0  0
 64 75  1  0  0  0  0
 66 67  1  0  0  0  0
M  CHG  1  75   1
M  ISO  4  38 100  61 101  72 100  82 101
M  END
> <Batch ID>
0005

> <Smiles>
CNC(C)C(=O)NC(C(=O)N1Cc2cc([101O:1][101CH2:1]CCCOCc3cc(C)c([100NH:0][100C:0](=O)N4CCCC(n5nc(-c6ccc(Oc7ccc(F)cc7F)cc6)c(C(N)=O)c5N)C4)c(C)c3)ccc2CC1C(=O)NC1CCCc2ccccc21)C(C)(C)C

> <Shape>
0.358

> <Color>
0.229

> <Negative vol penalty>
0.000

$$$$

  -OEChem-04052315263D

 93101  0     1  0  0  0  0  0999 V2000
  -37.1648   -7.2354   37.6208 C   0  0  0  0  0  0  0  0  0  0  0  0
  -36.7108   -8.3625   36.9432 C   0  0  0  0  0  0  0  0  0  0  0  0
  -23.0736   -9.8699   19.9417 C   0  0  0  0  0  0  0  0  0  0  0  0
  -23.8315   -9.8781   22.2358 C   0  0  0  0  0  0  0  0  0  0  0  0
  -36.4564   -6.7520   38.7201 C   0  0  0  0  0  0  0  0  0  0  0  0
  -35.5475   -9.0060   37.3639 C   0  0  0  0  0  0  0  0  0  0  0  0
  -36.0541  -14.0429   37.4983 C   0  0  0  0  0  0  0  0  0  0  0  0
  -22.3286   -8.7175   20.1920 C   0  0  0  0  0  0  0  0  0  0  0  0
  -23.0865   -8.7258   22.4861 C   0  0  0  0  0  0  0  0  0  0  0  0
  -35.9822  -14.7227   36.2832 C   0  0  0  0  0  0  0  0  0  0  0  0
  -19.3784   -7.9246   21.6415 C   0  0  0  0  0  0  0  0  0  0  0  0
  -18.0719   -7.8790   21.1552 C   0  0  0  0  0  0  0  0  0  0  0  0
  -33.6908  -15.3110   36.7548 C   0  0  0  0  0  0  0  0  0  0  0  0
  -32.0657  -16.5915   22.5384 C   0  0  0  0  0  0  0  0  0  0  0  0
  -30.5027  -18.3425   24.0463 C   0  0  0  0  0  0  0  0  0  0  0  0
  -18.6312   -5.9344   19.8350 C   0  0  0  0  0  0  0  0  0  0  0  0
  -23.8251  -10.4502   20.9636 C   0  0  0  0  0  0  0  0  0  0  0  0
  -24.1691  -12.9749   20.8418 C   0  0  0  0  0  0  0  0  0  0  0  0
  -35.2892   -7.3956   39.1604 C   0  0  0  0  0  0  0  0  0  0  0  0
  -34.9396  -13.9827   38.3473 C   0  0  0  0  0  0  0  0  0  0  0  0
  -34.8222   -8.5299   38.4692 C   0  0  0  0  0  0  0  0  0  0  0  0
  -33.7519  -14.6320   37.9813 C   0  0  0  0  0  0  0  0  0  0  0  0
  -32.6715  -17.4692   23.4374 C   0  0  0  0  0  0  0  0  0  0  0  0
  -29.8969  -17.4648   23.1473 C   0  0  0  0  0  0  0  0  0  0  0  0
  -30.6783  -16.5893   22.3933 C   0  0  0  0  0  0  0  0  0  0  0  0
  -22.3350   -8.1455   21.4642 C   0  0  0  0  0  0  0  0  0  0  0  0
  -34.7995  -15.3545   35.9100 C   0  0  0  0  0  0  0  0  0  0  0  0
  -20.3114   -6.9751   21.2245 C   0  0  0  0  0  0  0  0  0  0  0  0
  -31.8901  -18.3447   24.1914 C   0  0  0  0  0  0  0  0  0  0  0  0
  -17.6983   -6.8839   20.2519 C   0  0  0  0  0  0  0  0  0  0  0  0
  -19.9377   -5.9800   20.3213 C   0  0  0  0  0  0  0  0  0  0  0  0
  -24.5954  -11.6402   20.7055 C   0  0  0  0  0  0  0  0  0  0  0  0
  -25.2622  -13.7232   20.4788 C   0  0  0  0  0  0  0  0  0  0  0  0
  -22.8987  -13.4921   21.2592 C   0  0  0  0  0  0  0  0  0  0  0  0
  -33.1206  -11.6441   39.4986 C   0  0  0  0  0  0  0  0  0  0  0  0
  -31.7834  -14.0541   41.2092 C   0  0  0  0  0  0  0  0  0  0  0  0
  -34.8903  -18.9222   34.1969 C   0  0  0  0  0  0  0  0  0  0  0  0
  -31.1406  -17.3934   41.4961 C   0  0  0  0  0  0  0  0  0  0  0  0
  -30.7291  -14.7645   20.6573 C   0  0  0  0  0  0  0  0  0  0  0  0
  -34.5314   -6.8083   40.3246 C   0  0  0  0  0  0  0  0  0  0  0  0
  -35.0416  -13.2680   39.6668 C   0  0  0  0  0  0  0  0  0  0  0  0
  -32.5333  -14.6142   38.8663 C   0  0  0  0  0  0  0  0  0  0  0  0
  -33.5138   -7.7682   40.9356 C   0  0  0  0  0  0  0  0  0  0  0  0
  -29.6147  -12.3496   18.2900 C   0  0  0  0  0  0  0  0  0  0  0  0
  -32.6883   -8.4382   39.8418 C   0  0  0  0  0  0  0  0  0  0  0  0
  -28.1745  -12.0596   18.7186 C   0  0  0  0  0  0  0  0  0  0  0  0
  -30.5290  -12.5787   19.4923 C   0  0  0  0  0  0  0  0  0  0  0  0
  -28.6215  -13.3059   20.8713 C   0  0  0  0  0  0  0  0  0  0  0  0
  -33.5781   -9.2702   38.9104 C   0  0  1  0  0  0  0  0  0  0  0  0
  -33.6867  -12.8354   40.2183 C   0  0  1  0  0  0  0  0  0  0  0  0
  -27.6495  -13.1324   19.6928 C   0  0  2  0  0  0  0  0  0  0  0  0
  -34.1580  -17.4584   23.5782 C   0  0  0  0  0  0  0  0  0  0  0  0
  -28.4088  -17.4839   23.0120 C   0  0  0  0  0  0  0  0  0  0  0  0
  -34.8548  -22.1833   34.6795 C   0  0  0  0  0  0  0  0  0  0  0  0
  -29.9938  -19.0582   42.9830 C   0  0  0  0  0  0  0  0  0  0  0  0
  -29.0768  -13.1531   40.1264 C   0  0  0  0  0  0  0  0  0  0  0  0
  -28.1329  -15.3571   40.8474 C   0  0  0  0  0  0  0  0  0  0  0  0
  -29.0733  -13.7897   42.5449 C   0  0  0  0  0  0  0  0  0  0  0  0
  -33.6694  -18.8372   42.0250 C   0  0  0  0  0  0  0  0  0  0  0  0
  -35.5965  -17.8318   33.3977 C   0  0  0  0  0  0  0  0  0  0  0  0
  -34.0579  -19.9103   29.6822 C   0  0  0  0  0  0  0  0  0  0  0  0
  -32.9056  -19.4164   28.8052 C   0  0  0  0  0  0  0  0  0  0  0  0
  -33.7292  -19.7551   31.1700 C   0  0  0  0  0  0  0  0  0  0  0  0
  -33.2444  -19.5392   27.3212 C   0  0  0  0  0  0  0  0  0  0  0  0
  -33.8744  -21.2097   34.1194 C   0  0  0  0  0  0  0  0  0  0  0  0
  -34.8548  -20.2521   32.0718 C   0  0  0  0  0  0  0  0  0  0  0  0
  -35.9319  -16.6012   34.2309 C   0  0  0  0  0  0  0  0  0  1  0  0
  -32.0866  -19.0895   26.4413 C   0  0  0  0  0  0  0  0  0  0  0  0
  -30.6420  -15.0170   40.9877 C   0  0  1  0  0  0  0  0  0  0  0  0
  -31.3026  -18.3540   42.6603 C   0  0  2  0  0  0  0  0  0  0  0  0
  -29.2534  -14.3281   41.1088 C   0  0  0  0  0  0  0  0  0  0  0  0
  -25.8605  -11.5430   20.2884 N   0  0  0  0  0  0  0  0  0  0  0  0
  -26.2386  -12.8261   20.1593 N   0  0  0  0  0  0  0  0  0  0  0  0
  -32.6809  -13.8970   40.1436 N   0  0  0  0  0  0  0  0  0  0  0  0
  -29.9701  -13.6107   20.3683 N   0  0  0  0  0  0  0  0  0  0  0  0
  -25.4737  -15.0545   20.4049 N   0  0  0  0  0  0  0  0  0  0  0  0
  -21.8858  -12.5841   21.5964 N   0  0  0  0  0  0  0  0  0  0  0  0
  -30.0818  -15.6908   21.4744 N   0  0  0  0  0  0  0  0  0  0  0  0
  -33.9314  -10.5258   39.5373 N   0  0  0  0  0  0  0  0  0  0  0  0
  -30.8475  -16.1161   41.9248 N   0  0  0  0  0  0  0  0  0  0  0  0
  -34.5528  -20.0826   33.4913 N   0  0  0  0  0  0  0  0  0  0  0  0
  -32.3262  -19.3886   42.3397 N   0  3  0  0  0  0  0  0  0  0  0  0
  -22.6634  -14.7230   21.3153 O   0  0  0  0  0  0  0  0  0  0  0  0
  -32.0283  -11.7325   38.9501 O   0  0  0  0  0  0  0  0  0  0  0  0
  -31.8792  -13.4684   42.2906 O   0  0  0  0  0  0  0  0  0  0  0  0
  -34.6434  -18.7615   35.3950 O   0  0  0  0  0  0  0  0  0  0  0  0
  -31.2583  -17.7422   40.3234 O   0  0  0  0  0  0  0  0  0  0  0  0
  -31.8587  -14.9319   20.1905 O   0  0  0  0  0  0  0  0  0  0  0  0
  -21.6079   -7.0212   21.7088 O   0  0  0  0  0  0  0  0  0  0  0  0
  -34.7264  -16.0182   34.7242 O   0  0  0  0  0  0  0  0  0  1  0  0
  -32.4697  -19.2139   25.0788 O   0  0  0  0  0  0  0  0  0  0  0  0
  -16.4432   -6.8393   19.7862 F   0  0  0  0  0  0  0  0  0  0  0  0
  -20.8293   -5.0644   19.9180 F   0  0  0  0  0  0  0  0  0  0  0  0
  1  2  1  0  0  0  0
  1  5  2  0  0  0  0
  2  6  2  0  0  0  0
  3  8  2  0  0  0  0
  3 17  1  0  0  0  0
  4  9  1  0  0  0  0
  4 17  2  0  0  0  0
  5 19  1  0  0  0  0
  6 21  1  0  0  0  0
  7 10  2  0  0  0  0
  7 20  1  0  0  0  0
  8 26  1  0  0  0  0
  9 26  2  0  0  0  0
 10 27  1  0  0  0  0
 11 12  2  0  0  0  0
 11 28  1  0  0  0  0
 12 30  1  0  0  0  0
 13 22  1  0  0  0  0
 13 27  2  0  0  0  0
 14 23  1  0  0  0  0
 14 25  2  0  0  0  0
 15 24  2  0  0  0  0
 15 29  1  0  0  0  0
 16 30  2  0  0  0  0
 16 31  1  0  0  0  0
 17 32  1  0  0  0  0
 18 32  1  0  0  0  0
 18 33  2  0  0  0  0
 18 34  1  0  0  0  0
 19 21  2  0  0  0  0
 19 40  1  0  0  0  0
 20 22  2  0  0  0  0
 20 41  1  0  0  0  0
 21 49  1  0  0  0  0
 22 42  1  0  0  0  0
 23 29  2  0  0  0  0
 23 52  1  0  0  0  0
 24 25  1  0  0  0  0
 24 53  1  0  0  0  0
 25 78  1  0  0  0  0
 26 89  1  0  0  0  0
 27 90  1  0  0  0  0
 28 31  2  0  0  0  0
 28 89  1  0  0  0  0
 29 91  1  0  0  0  0
 30 92  1  0  0  0  0
 31 93  1  0  0  0  0
 32 72  2  0  0  0  0
 33 73  1  0  0  0  0
 33 76  1  0  0  0  0
 34 77  1  0  0  0  0
 34 83  2  0  0  0  0
 35 50  1  0  0  0  0
 35 79  1  0  0  0  0
 35 84  2  0  0  0  0
 36 69  1  0  0  0  0
 36 74  1  0  0  0  0
 36 85  2  0  0  0  0
 37 60  1  0  0  0  0
 37 81  1  0  0  0  0
 37 86  2  0  0  0  0
 38 70  1  0  0  0  0
 38 80  1  0  0  0  0
 38 87  2  0  0  0  0
 39 75  1  0  0  0  0
 39 78  1  0  0  0  0
 39 88  2  0  0  0  0
 40 43  1  0  0  0  0
 41 50  1  0  0  0  0
 42 74  1  0  0  0  0
 43 45  1  0  0  0  0
 44 46  1  0  0  0  0
 44 47  1  0  0  0  0
 45 49  1  0  0  0  0
 46 51  1  0  0  0  0
 47 75  1  0  0  0  0
 48 51  1  0  0  0  0
 48 75  1  0  0  0  0
 49 79  1  0  0  0  0
 50 74  1  0  0  0  0
 51 73  1  0  0  0  0
 54 65  1  0  0  0  0
 55 70  1  0  0  0  0
 56 71  1  0  0  0  0
 57 71  1  0  0  0  0
 58 71  1  0  0  0  0
 59 82  1  0  0  0  0
 60 67  1  0  0  0  0
 61 62  1  0  0  0  0
 61 63  1  0  0  0  0
 62 64  1  0  0  0  0
 63 66  1  0  0  0  0
 64 68  1  0  0  0  0
 65 81  1  0  0  0  0
 66 81  1  0  0  0  0
 67 90  1  0  0  0  0
 68 91  1  0  0  0  0
 69 71  1  0  0  0  0
 69 80  1  0  0  0  0
 70 82  1  0  0  0  0
 72 73  1  0  0  0  0
M  CHG  1  82   1
M  ISO  4  39 100  67 101  78 100  90 101
M  END
> <Batch ID>
0005

> <Smiles>
CCN(CCCCCCOc1cc(C)c([100NH:0][100C:0](=O)N2CCCC(n3nc(-c4ccc(Oc5ccc(F)cc5F)cc4)c(C(N)=O)c3N)C2)cc1C)C(=O)C[101CH2:1][101O:1]c1ccc2c(c1)CN(C(=O)C(NC(=O)C(C)NC)C(C)(C)C)C(C(=O)NC1CCCc3ccccc31)C2

> <Shape>
0.143

> <Color>
0.187

> <Negative vol penalty>
0.000

$$$$

  -OEChem-04052315263D

 97105  0     1  0  0  0  0  0999 V2000
  -22.1428  -30.9021   12.4926 C   0  0  0  0  0  0  0  0  0  0  0  0
  -22.7948  -31.1640   13.6934 C   0  0  0  0  0  0  0  0  0  0  0  0
  -23.0744   -9.8648   19.9719 C   0  0  0  0  0  0  0  0  0  0  0  0
  -23.8288   -9.9120   22.2666 C   0  0  0  0  0  0  0  0  0  0  0  0
  -21.2612  -29.8260   12.3997 C   0  0  0  0  0  0  0  0  0  0  0  0
  -22.5647  -30.3504   14.8023 C   0  0  0  0  0  0  0  0  0  0  0  0
  -27.9723  -26.8311   18.0058 C   0  0  0  0  0  0  0  0  0  0  0  0
  -28.7135  -17.6381   24.4001 C   0  0  0  0  0  0  0  0  0  0  0  0
  -22.3281   -8.7175   20.2408 C   0  0  0  0  0  0  0  0  0  0  0  0
  -23.0824   -8.7647   22.5356 C   0  0  0  0  0  0  0  0  0  0  0  0
  -28.9836  -26.2927   18.8017 C   0  0  0  0  0  0  0  0  0  0  0  0
  -19.3751   -7.9517   21.6990 C   0  0  0  0  0  0  0  0  0  0  0  0
  -18.0693   -7.8988   21.2114 C   0  0  0  0  0  0  0  0  0  0  0  0
  -27.9249  -18.5952   25.0386 C   0  0  0  0  0  0  0  0  0  0  0  0
  -27.3256  -25.3146   20.2654 C   0  0  0  0  0  0  0  0  0  0  0  0
  -18.6292   -5.9313   19.9258 C   0  0  0  0  0  0  0  0  0  0  0  0
  -23.8248  -10.4620   20.9848 C   0  0  0  0  0  0  0  0  0  0  0  0
  -24.1709  -12.9841   20.8201 C   0  0  0  0  0  0  0  0  0  0  0  0
  -21.0275  -28.9931   13.5053 C   0  0  0  0  0  0  0  0  0  0  0  0
  -26.6322  -26.6000   18.3283 C   0  0  0  0  0  0  0  0  0  0  0  0
  -21.6780  -29.2630   14.7244 C   0  0  0  0  0  0  0  0  0  0  0  0
  -26.3084  -25.8408   19.4648 C   0  0  0  0  0  0  0  0  0  0  0  0
  -29.6959  -18.9899   26.6340 C   0  0  0  0  0  0  0  0  0  0  0  0
  -29.9932  -17.3568   24.8786 C   0  0  0  0  0  0  0  0  0  0  0  0
  -22.3321   -8.1674   21.5226 C   0  0  0  0  0  0  0  0  0  0  0  0
  -28.6611  -25.5366   19.9289 C   0  0  0  0  0  0  0  0  0  0  0  0
  -20.3080   -6.9945   21.2999 C   0  0  0  0  0  0  0  0  0  0  0  0
  -17.6963   -6.8886   20.3249 C   0  0  0  0  0  0  0  0  0  0  0  0
  -19.9350   -5.9843   20.4133 C   0  0  0  0  0  0  0  0  0  0  0  0
  -28.4161  -19.2711   26.1556 C   0  0  0  0  0  0  0  0  0  0  0  0
  -30.4844  -18.0327   25.9955 C   0  0  0  0  0  0  0  0  0  0  0  0
  -24.5964  -11.6469   20.7075 C   0  0  0  0  0  0  0  0  0  0  0  0
  -25.2651  -13.7252   20.4461 C   0  0  0  0  0  0  0  0  0  0  0  0
  -22.9002  -13.5093   21.2266 C   0  0  0  0  0  0  0  0  0  0  0  0
  -23.0294  -27.1491   17.4370 C   0  0  0  0  0  0  0  0  0  0  0  0
  -23.2818  -24.2394   18.3752 C   0  0  0  0  0  0  0  0  0  0  0  0
  -30.6325  -22.9833   21.5862 C   0  0  0  0  0  0  0  0  0  0  0  0
  -24.0619  -20.9920   19.0704 C   0  0  0  0  0  0  0  0  0  0  0  0
  -30.7500  -14.7390   20.6295 C   0  0  0  0  0  0  0  0  0  0  0  0
  -20.0297  -27.8702   13.3702 C   0  0  0  0  0  0  0  0  0  0  0  0
  -25.5100  -27.2118   17.5344 C   0  0  0  0  0  0  0  0  0  0  0  0
  -24.8531  -25.6472   19.7927 C   0  0  0  0  0  0  0  0  0  0  0  0
  -20.1266  -26.8318   14.4849 C   0  0  0  0  0  0  0  0  0  0  0  0
  -29.6144  -12.3136   18.2833 C   0  0  0  0  0  0  0  0  0  0  0  0
  -20.2162  -27.5159   15.8454 C   0  0  0  0  0  0  0  0  0  0  0  0
  -28.1755  -12.0299   18.7179 C   0  0  0  0  0  0  0  0  0  0  0  0
  -30.5290  -12.5546   19.4823 C   0  0  0  0  0  0  0  0  0  0  0  0
  -28.6250  -13.3135   20.8508 C   0  0  0  0  0  0  0  0  0  0  0  0
  -21.4735  -28.3884   15.9424 C   0  0  1  0  0  0  0  0  0  0  0  0
  -24.2697  -26.3047   17.4450 C   0  0  1  0  0  0  0  0  0  0  0  0
  -27.6535  -13.1192   19.6741 C   0  0  2  0  0  0  0  0  0  0  0  0
  -31.2648  -25.6586   29.5554 C   0  0  0  0  0  0  0  0  0  0  0  0
  -23.0173  -18.7228   19.3084 C   0  0  0  0  0  0  0  0  0  0  0  0
  -22.1655  -25.0429   21.0977 C   0  0  0  0  0  0  0  0  0  0  0  0
  -22.0043  -22.6109   21.6702 C   0  0  0  0  0  0  0  0  0  0  0  0
  -20.6822  -23.5325   19.7661 C   0  0  0  0  0  0  0  0  0  0  0  0
  -30.6901  -14.9906   24.6035 C   0  0  0  0  0  0  0  0  0  0  0  0
  -25.6953  -19.8811   16.8666 C   0  0  0  0  0  0  0  0  0  0  0  0
  -30.2188  -19.7200   27.8358 C   0  0  0  0  0  0  0  0  0  0  0  0
  -29.3675  -23.7885   21.3790 C   0  0  0  0  0  0  0  0  0  1  0  0
  -31.3403  -24.1588   29.7929 C   0  0  0  0  0  0  0  0  0  0  0  0
  -32.0488  -21.1210   23.9523 C   0  0  0  0  0  0  0  0  0  0  0  0
  -30.9052  -23.3730   28.5565 C   0  0  0  0  0  0  0  0  0  0  0  0
  -31.0333  -21.0317   25.0976 C   0  0  0  0  0  0  0  0  0  0  0  0
  -31.4170  -20.8474   22.5903 C   0  0  0  0  0  0  0  0  0  0  0  0
  -30.8163  -16.9114   21.8276 C   0  0  0  0  0  0  0  0  0  0  0  0
  -31.6254  -16.7605   23.1064 C   0  0  0  0  0  0  0  0  0  0  0  0
  -31.0194  -21.8745   28.7937 C   0  0  0  0  0  0  0  0  0  0  0  0
  -31.6565  -21.2304   26.4743 C   0  0  0  0  0  0  0  0  0  0  0  0
  -23.1849  -23.2678   19.5241 C   0  0  1  0  0  0  0  0  0  0  0  0
  -23.7048  -19.6966   18.3641 C   0  0  2  0  0  0  0  0  0  0  0  0
  -22.0341  -23.6250   20.5068 C   0  0  0  0  0  0  0  0  0  0  0  0
  -25.8621  -11.5415   20.2942 N   0  0  0  0  0  0  0  0  0  0  0  0
  -26.2414  -12.8220   20.1436 N   0  0  0  0  0  0  0  0  0  0  0  0
  -24.0947  -25.3636   18.5643 N   0  0  0  0  0  0  0  0  0  0  0  0
  -29.9779  -13.5998   20.3482 N   0  0  0  0  0  0  0  0  0  0  0  0
  -25.4778  -15.0548   20.3496 N   0  0  0  0  0  0  0  0  0  0  0  0
  -21.8861  -12.6079   21.5777 N   0  0  0  0  0  0  0  0  0  0  0  0
  -22.6416  -27.5673   16.1784 N   0  0  0  0  0  0  0  0  0  0  0  0
  -30.3813  -21.7997   22.2624 N   0  0  0  0  0  0  0  0  0  0  0  0
  -23.0717  -21.9410   18.9283 N   0  0  0  0  0  0  0  0  0  0  0  0
  -30.1503  -15.6838   21.4532 N   0  0  0  0  0  0  0  0  0  0  0  0
  -30.7644  -16.3810   24.2068 N   0  0  3  0  0  0  0  0  0  0  0  0
  -24.9324  -19.0437   17.8276 N   0  3  0  0  0  0  0  0  0  0  0  0
  -30.6242  -21.1426   27.5337 N   0  3  1  0  0  0  0  0  0  0  0  0
  -22.6658  -14.7411   21.2611 O   0  0  0  0  0  0  0  0  0  0  0  0
  -22.4639  -27.4021   18.4944 O   0  0  0  0  0  0  0  0  0  0  0  0
  -22.6504  -24.0131   17.3391 O   0  0  0  0  0  0  0  0  0  0  0  0
  -31.7326  -23.3611   21.1924 O   0  0  0  0  0  0  0  0  0  0  0  0
  -25.1125  -21.1454   19.6896 O   0  0  0  0  0  0  0  0  0  0  0  0
  -31.8873  -14.9045   20.1756 O   0  0  0  0  0  0  0  0  0  0  0  0
  -21.6038   -7.0480   21.7854 O   0  0  0  0  0  0  0  0  0  0  0  0
  -29.6533  -25.0101   20.6990 O   0  0  0  0  0  0  0  0  0  1  0  0
  -16.4419   -6.8369   19.8580 F   0  0  0  0  0  0  0  0  0  0  0  0
  -20.8264   -5.0613   20.0273 F   0  0  0  0  0  0  0  0  0  0  0  0
  -27.4054  -20.4479   26.9142 Cl  0  0  0  0  0  0  0  0  0  0  0  0
  -32.0760  -17.6823   26.5896 Cl  0  0  0  0  0  0  0  0  0  0  0  0
  1  2  1  0  0  0  0
  1  5  2  0  0  0  0
  2  6  2  0  0  0  0
  3  9  2  0  0  0  0
  3 17  1  0  0  0  0
  4 10  1  0  0  0  0
  4 17  2  0  0  0  0
  5 19  1  0  0  0  0
  6 21  1  0  0  0  0
  7 11  2  0  0  0  0
  7 20  1  0  0  0  0
  8 14  1  0  0  0  0
  8 24  2  0  0  0  0
  9 25  1  0  0  0  0
 10 25  2  0  0  0  0
 11 26  1  0  0  0  0
 12 13  2  0  0  0  0
 12 27  1  0  0  0  0
 13 28  1  0  0  0  0
 14 30  2  0  0  0  0
 15 22  1  0  0  0  0
 15 26  2  0  0  0  0
 16 28  2  0  0  0  0
 16 29  1  0  0  0  0
 17 32  1  0  0  0  0
 18 32  1  0  0  0  0
 18 33  2  0  0  0  0
 18 34  1  0  0  0  0
 19 21  2  0  0  0  0
 19 40  1  0  0  0  0
 20 22  2  0  0  0  0
 20 41  1  0  0  0  0
 21 49  1  0  0  0  0
 22 42  1  0  0  0  0
 23 30  1  0  0  0  0
 23 31  2  0  0  0  0
 23 59  1  0  0  0  0
 24 31  1  0  0  0  0
 24 83  1  0  0  0  0
 25 92  1  0  0  0  0
 26 93  1  0  0  0  0
 27 29  2  0  0  0  0
 27 92  1  0  0  0  0
 28 94  1  0  0  0  0
 29 95  1  0  0  0  0
 30 96  1  0  0  0  0
 31 97  1  0  0  0  0
 32 73  2  0  0  0  0
 33 74  1  0  0  0  0
 33 77  1  0  0  0  0
 34 78  1  0  0  0  0
 34 86  2  0  0  0  0
 35 50  1  0  0  0  0
 35 79  1  0  0  0  0
 35 87  2  0  0  0  0
 36 70  1  0  0  0  0
 36 75  1  0  0  0  0
 36 88  2  0  0  0  0
 37 60  1  0  0  0  0
 37 80  1  0  0  0  0
 37 89  2  0  0  0  0
 38 71  1  0  0  0  0
 38 81  1  0  0  0  0
 38 90  2  0  0  0  0
 39 76  1  0  0  0  0
 39 82  1  0  0  0  0
 39 91  2  0  0  0  0
 40 43  1  0  0  0  0
 41 50  1  0  0  0  0
 42 75  1  0  0  0  0
 43 45  1  0  0  0  0
 44 46  1  0  0  0  0
 44 47  1  0  0  0  0
 45 49  1  0  0  0  0
 46 51  1  0  0  0  0
 47 76  1  0  0  0  0
 48 51  1  0  0  0  0
 48 76  1  0  0  0  0
 49 79  1  0  0  0  0
 50 75  1  0  0  0  0
 51 74  1  0  0  0  0
 52 61  1  0  0  0  0
 53 71  1  0  0  0  0
 54 72  1  0  0  0  0
 55 72  1  0  0  0  0
 56 72  1  0  0  0  0
 57 83  1  0  0  0  0
 58 84  1  0  0  0  0
 59 85  1  0  0  0  0
 60 93  1  0  0  0  0
 61 63  1  0  0  0  0
 62 64  1  0  0  0  0
 62 65  1  0  0  0  0
 63 68  1  0  0  0  0
 64 69  1  0  0  0  0
 65 80  1  0  0  0  0
 66 67  1  0  0  0  0
 66 82  1  0  0  0  0
 67 83  1  0  0  0  0
 68 85  1  0  0  0  0
 69 85  1  0  0  0  0
 70 72  1  0  0  0  0
 70 81  1  0  0  0  0
 71 84  1  0  0  0  0
 73 74  1  0  0  0  0
M  CHG  2  84   1  85   1
M  ISO  4  39 100  60 101  82 100  93 101
M  END
> <Batch ID>
0005

> <Smiles>
CCCCN(CCCCNC(=O)[101CH2:1][101O:1]c1ccc2c(c1)CN(C(=O)C(NC(=O)C(C)NC)C(C)(C)C)C(C(=O)NC1CCCc3ccccc31)C2)Cc1c(Cl)ccc(N(C)CC[100NH:0][100C:0](=O)N2CCCC(n3nc(-c4ccc(Oc5ccc(F)cc5F)cc4)c(C(N)=O)c3N)C2)c1Cl

> <Shape>
0.177

> <Color>
0.181

> <Negative vol penalty>
0.000

$$$$

  -OEChem-04052315263D

 98106  0     1  0  0  0  0  0999 V2000
  -17.7034  -28.8295   19.1535 C   0  0  0  0  0  0  0  0  0  0  0  0
  -18.2865  -30.0276   19.5535 C   0  0  0  0  0  0  0  0  0  0  0  0
  -29.8559  -19.0247   18.4731 C   0  0  0  0  0  0  0  0  0  0  0  0
  -27.8689  -19.2389   19.8308 C   0  0  0  0  0  0  0  0  0  0  0  0
  -17.8390  -27.6906   19.9462 C   0  0  0  0  0  0  0  0  0  0  0  0
  -19.0048  -30.0876   20.7472 C   0  0  0  0  0  0  0  0  0  0  0  0
  -26.4065  -27.6811   22.9252 C   0  0  0  0  0  0  0  0  0  0  0  0
  -26.2180  -16.4468   22.1233 C   0  0  0  0  0  0  0  0  0  0  0  0
  -29.4806  -20.1542   17.7457 C   0  0  0  0  0  0  0  0  0  0  0  0
  -27.4937  -20.3684   19.1034 C   0  0  0  0  0  0  0  0  0  0  0  0
  -27.3192  -26.9955   22.1232 C   0  0  0  0  0  0  0  0  0  0  0  0
  -27.0607  -15.3772   21.8210 C   0  0  0  0  0  0  0  0  0  0  0  0
  -28.8626  -22.7716   15.2981 C   0  0  0  0  0  0  0  0  0  0  0  0
  -28.9690  -22.7148   13.9085 C   0  0  0  0  0  0  0  0  0  0  0  0
  -25.9506  -27.4285   20.1771 C   0  0  0  0  0  0  0  0  0  0  0  0
  -25.5096  -16.5409   19.8154 C   0  0  0  0  0  0  0  0  0  0  0  0
  -27.4269  -20.8554   13.8664 C   0  0  0  0  0  0  0  0  0  0  0  0
  -29.0500  -18.5670   19.5156 C   0  0  0  0  0  0  0  0  0  0  0  0
  -30.2277  -17.3620   21.4309 C   0  0  0  0  0  0  0  0  0  0  0  0
  -18.5675  -27.7344   21.1454 C   0  0  0  0  0  0  0  0  0  0  0  0
  -25.2688  -28.2570   22.3530 C   0  0  0  0  0  0  0  0  0  0  0  0
  -19.1492  -28.9485   21.5574 C   0  0  0  0  0  0  0  0  0  0  0  0
  -25.0392  -28.1272   20.9734 C   0  0  0  0  0  0  0  0  0  0  0  0
  -25.4424  -17.0287   21.1204 C   0  0  0  0  0  0  0  0  0  0  0  0
  -26.3523  -15.4713   19.5131 C   0  0  0  0  0  0  0  0  0  0  0  0
  -28.2996  -20.8261   18.0609 C   0  0  0  0  0  0  0  0  0  0  0  0
  -27.0916  -26.8694   20.7526 C   0  0  0  0  0  0  0  0  0  0  0  0
  -27.1279  -14.8894   20.5160 C   0  0  0  0  0  0  0  0  0  0  0  0
  -28.0384  -21.8702   15.9719 C   0  0  0  0  0  0  0  0  0  0  0  0
  -28.2512  -21.7567   13.1926 C   0  0  0  0  0  0  0  0  0  0  0  0
  -27.3206  -20.9121   15.2560 C   0  0  0  0  0  0  0  0  0  0  0  0
  -29.4368  -17.4000   20.2670 C   0  0  0  0  0  0  0  0  0  0  0  0
  -30.3023  -16.0286   21.7519 C   0  0  0  0  0  0  0  0  0  0  0  0
  -30.8402  -18.4359   22.1571 C   0  0  0  0  0  0  0  0  0  0  0  0
  -22.1343  -30.2508   22.8778 C   0  0  0  0  0  0  0  0  0  0  0  0
  -23.3919  -31.2401   20.2605 C   0  0  0  0  0  0  0  0  0  0  0  0
  -23.7520  -18.8076   20.5566 C   0  0  0  0  0  0  0  0  0  0  0  0
  -29.2074  -24.1600   20.4012 C   0  0  0  0  0  0  0  0  0  0  0  0
  -25.2250  -33.8150   21.5440 C   0  0  0  0  0  0  0  0  0  0  0  0
  -27.1878  -13.9379   17.6967 C   0  0  0  0  0  0  0  0  0  0  0  0
  -18.6468  -26.4890   21.9924 C   0  0  0  0  0  0  0  0  0  0  0  0
  -24.2277  -28.9516   23.1881 C   0  0  0  0  0  0  0  0  0  0  0  0
  -23.7843  -28.7331   20.4070 C   0  0  0  0  0  0  0  0  0  0  0  0
  -19.7402  -26.5446   23.0562 C   0  0  0  0  0  0  0  0  0  0  0  0
  -29.9764  -11.8935   19.2460 C   0  0  0  0  0  0  0  0  0  0  0  0
  -19.7005  -27.8795   23.7933 C   0  0  0  0  0  0  0  0  0  0  0  0
  -30.4800  -13.1649   19.9237 C   0  0  0  0  0  0  0  0  0  0  0  0
  -28.8715  -12.2152   18.2396 C   0  0  0  0  0  0  0  0  0  0  0  0
  -27.9492  -13.5489   20.1185 C   0  0  0  0  0  0  0  0  0  0  0  0
  -19.9570  -29.0475   22.8333 C   0  0  1  0  0  0  0  0  0  0  0  0
  -23.5738  -30.1445   22.4681 C   0  0  1  0  0  0  0  0  0  0  0  0
  -29.3436  -13.8784   20.6892 C   0  0  2  0  0  0  0  0  0  0  0  0
  -28.5792  -10.5250   23.6352 C   0  0  0  0  0  0  0  0  0  0  0  0
  -27.2304  -32.5420   22.3534 C   0  0  0  0  0  0  0  0  0  0  0  0
  -20.8470  -33.5164   21.5253 C   0  0  0  0  0  0  0  0  0  0  0  0
  -22.2598  -32.6574   23.4053 C   0  0  0  0  0  0  0  0  0  0  0  0
  -21.2398  -31.0601   21.7833 C   0  0  0  0  0  0  0  0  0  0  0  0
  -26.5222  -35.2257   24.5347 C   0  0  0  0  0  0  0  0  0  0  0  0
  -23.8551  -18.2437   19.1452 C   0  0  0  0  0  0  0  0  0  0  0  0
  -29.1347  -25.6577   20.6088 C   0  0  0  0  0  0  0  0  0  1  0  0
  -27.7646  -11.5605   22.8767 C   0  0  0  0  0  0  0  0  0  0  0  0
  -24.8309  -17.0739   19.0173 C   0  0  0  0  0  0  0  0  0  0  0  0
  -25.9640  -17.2865   18.0058 C   0  0  0  0  0  0  0  0  0  0  0  0
  -27.3611  -17.1349   18.6121 C   0  0  0  0  0  0  0  0  0  0  0  0
  -28.1793  -18.4188   18.4470 C   0  0  0  0  0  0  0  0  0  0  0  0
  -28.6316  -18.9643   19.8033 C   0  0  0  0  0  0  0  0  0  0  0  0
  -28.1753  -20.4030   20.0657 C   0  0  0  0  0  0  0  0  0  0  0  0
  -29.3355  -21.3716   20.3176 C   0  0  0  0  0  0  0  0  0  0  0  0
  -28.3601  -11.8416   21.5000 C   0  0  0  0  0  0  0  0  0  0  0  0
  -29.2561  -22.0337   21.6903 C   0  0  0  0  0  0  0  0  0  0  0  0
  -28.7116  -13.3127   21.3294 C   0  0  0  0  0  0  0  0  0  0  0  0
  -23.1754  -32.5094   21.0450 C   0  0  1  0  0  0  0  0  0  0  0  0
  -26.4322  -33.8317   22.4641 C   0  0  2  0  0  0  0  0  0  0  0  0
  -21.8915  -32.4534   21.9202 C   0  0  0  0  0  0  0  0  0  0  0  0
  -29.0376  -16.1872   19.8750 N   0  0  0  0  0  0  0  0  0  0  0  0
  -29.5800  -15.3745   20.7977 N   0  0  0  0  0  0  0  0  0  0  0  0
  -23.5566  -30.0612   20.9977 N   0  0  0  0  0  0  0  0  0  0  0  0
  -27.9945  -13.3078   18.6701 N   0  0  0  0  0  0  0  0  0  0  0  0
  -30.9148  -15.3636   22.7545 N   0  0  0  0  0  0  0  0  0  0  0  0
  -30.6628  -19.7452   21.6895 N   0  0  0  0  0  0  0  0  0  0  0  0
  -24.5878  -18.1144   21.4270 N   0  0  0  0  0  0  0  0  0  0  0  0
  -26.4113  -14.9882   18.1828 N   0  0  0  0  0  0  0  0  0  0  0  0
  -21.3685  -29.1537   22.5322 N   0  0  0  0  0  0  0  0  0  0  0  0
  -29.1949  -23.4666   21.6063 N   0  0  0  0  0  0  0  0  0  0  0  0
  -24.4032  -32.7376   21.7992 N   0  0  0  0  0  0  0  0  0  0  0  0
  -26.0013  -33.9976   23.8811 N   0  3  0  0  0  0  0  0  0  0  0  0
  -31.5381  -18.2388   23.1806 O   0  0  0  0  0  0  0  0  0  0  0  0
  -21.7459  -31.2534   23.4658 O   0  0  0  0  0  0  0  0  0  0  0  0
  -23.4204  -31.2905   19.0277 O   0  0  0  0  0  0  0  0  0  0  0  0
  -22.9905  -19.7288   20.8331 O   0  0  0  0  0  0  0  0  0  0  0  0
  -29.2708  -23.6460   19.2877 O   0  0  0  0  0  0  0  0  0  0  0  0
  -25.0285  -34.6739   20.6872 O   0  0  0  0  0  0  0  0  0  0  0  0
  -27.2141  -13.5850   16.5147 O   0  0  0  0  0  0  0  0  0  0  0  0
  -27.9332  -21.9284   17.3515 O   0  0  0  0  0  0  0  0  0  0  0  0
  -27.9982  -26.1957   19.9667 O   0  0  0  0  0  0  0  0  0  1  0  0
  -27.9576  -13.8433   20.2417 O   0  0  0  0  0  0  0  0  0  0  0  0
  -28.3523  -21.7033   11.8580 F   0  0  0  0  0  0  0  0  0  0  0  0
  -26.5263  -20.0443   15.8977 F   0  0  0  0  0  0  0  0  0  0  0  0
  1  2  1  0  0  0  0
  1  5  2  0  0  0  0
  2  6  2  0  0  0  0
  3  9  2  0  0  0  0
  3 18  1  0  0  0  0
  4 10  1  0  0  0  0
  4 18  2  0  0  0  0
  5 20  1  0  0  0  0
  6 22  1  0  0  0  0
  7 11  2  0  0  0  0
  7 21  1  0  0  0  0
  8 12  2  0  0  0  0
  8 24  1  0  0  0  0
  9 26  1  0  0  0  0
 10 26  2  0  0  0  0
 11 27  1  0  0  0  0
 12 28  1  0  0  0  0
 13 14  2  0  0  0  0
 13 29  1  0  0  0  0
 14 30  1  0  0  0  0
 15 23  1  0  0  0  0
 15 27  2  0  0  0  0
 16 24  2  0  0  0  0
 16 25  1  0  0  0  0
 17 30  2  0  0  0  0
 17 31  1  0  0  0  0
 18 32  1  0  0  0  0
 19 32  1  0  0  0  0
 19 33  2  0  0  0  0
 19 34  1  0  0  0  0
 20 22  2  0  0  0  0
 20 41  1  0  0  0  0
 21 23  2  0  0  0  0
 21 42  1  0  0  0  0
 22 50  1  0  0  0  0
 23 43  1  0  0  0  0
 24 81  1  0  0  0  0
 25 28  2  0  0  0  0
 25 82  1  0  0  0  0
 26 94  1  0  0  0  0
 27 95  1  0  0  0  0
 28 96  1  0  0  0  0
 29 31  2  0  0  0  0
 29 94  1  0  0  0  0
 30 97  1  0  0  0  0
 31 98  1  0  0  0  0
 32 75  2  0  0  0  0
 33 76  1  0  0  0  0
 33 79  1  0  0  0  0
 34 80  1  0  0  0  0
 34 87  2  0  0  0  0
 35 51  1  0  0  0  0
 35 83  1  0  0  0  0
 35 88  2  0  0  0  0
 36 72  1  0  0  0  0
 36 77  1  0  0  0  0
 36 89  2  0  0  0  0
 37 59  1  0  0  0  0
 37 81  1  0  0  0  0
 37 90  2  0  0  0  0
 38 60  1  0  0  0  0
 38 84  1  0  0  0  0
 38 91  2  0  0  0  0
 39 73  1  0  0  0  0
 39 85  1  0  0  0  0
 39 92  2  0  0  0  0
 40 78  1  0  0  0  0
 40 82  1  0  0  0  0
 40 93  2  0  0  0  0
 41 44  1  0  0  0  0
 42 51  1  0  0  0  0
 43 77  1  0  0  0  0
 44 46  1  0  0  0  0
 45 47  1  0  0  0  0
 45 48  1  0  0  0  0
 46 50  1  0  0  0  0
 47 52  1  0  0  0  0
 48 78  1  0  0  0  0
 49 52  1  0  0  0  0
 49 78  1  0  0  0  0
 50 83  1  0  0  0  0
 51 77  1  0  0  0  0
 52 76  1  0  0  0  0
 53 61  1  0  0  0  0
 54 73  1  0  0  0  0
 55 74  1  0  0  0  0
 56 74  1  0  0  0  0
 57 74  1  0  0  0  0
 58 86  1  0  0  0  0
 59 62  1  0  0  0  0
 60 95  1  0  0  0  0
 61 69  1  0  0  0  0
 62 63  1  0  0  0  0
 63 64  1  0  0  0  0
 64 65  1  0  0  0  0
 65 66  1  0  0  0  0
 66 67  1  0  0  0  0
 67 68  1  0  0  0  0
 68 70  1  0  0  0  0
 69 71  1  0  0  0  0
 70 84  1  0  0  0  0
 71 96  1  0  0  0  0
 72 74  1  0  0  0  0
 72 85  1  0  0  0  0
 73 86  1  0  0  0  0
 75 76  1  0  0  0  0
M  CHG  1  86   1
M  ISO  4  40 100  60 101  82 100  95 101
M  END
> <Batch ID>
0005

> <Smiles>
CCCCOc1ccc(NC(=O)CCCCCCCCCNC(=O)[101CH2:1][101O:1]c2ccc3c(c2)CN(C(=O)C(NC(=O)C(C)NC)C(C)(C)C)C(C(=O)NC2CCCc4ccccc42)C3)cc1[100NH:0][100C:0](=O)N1CCCC(n2nc(-c3ccc(Oc4ccc(F)cc4F)cc3)c(C(N)=O)c2N)C1

> <Shape>
0.312

> <Color>
0.090

> <Negative vol penalty>
0.000

$$$$

  -OEChem-04052315263D

103111  0     1  0  0  0  0  0999 V2000
  -15.5502  -29.4145   27.2582 C   0  0  0  0  0  0  0  0  0  0  0  0
  -16.3625  -28.2957   27.1032 C   0  0  0  0  0  0  0  0  0  0  0  0
  -29.8730  -23.3575   18.3424 C   0  0  0  0  0  0  0  0  0  0  0  0
  -28.5198  -21.7976   17.0884 C   0  0  0  0  0  0  0  0  0  0  0  0
  -15.4687  -30.3619   26.2386 C   0  0  0  0  0  0  0  0  0  0  0  0
  -17.0929  -28.1232   25.9280 C   0  0  0  0  0  0  0  0  0  0  0  0
  -22.6463  -25.5998   25.3818 C   0  0  0  0  0  0  0  0  0  0  0  0
  -29.3913  -11.4244   20.2117 C   0  0  0  0  0  0  0  0  0  0  0  0
  -29.8845  -12.6795   20.5681 C   0  0  0  0  0  0  0  0  0  0  0  0
  -30.0959  -24.0976   17.1812 C   0  0  0  0  0  0  0  0  0  0  0  0
  -28.7426  -22.5377   15.9272 C   0  0  0  0  0  0  0  0  0  0  0  0
  -23.0636  -24.3215   25.0137 C   0  0  0  0  0  0  0  0  0  0  0  0
  -30.7250  -26.5976   14.6182 C   0  0  0  0  0  0  0  0  0  0  0  0
  -30.6094  -27.9851   14.7013 C   0  0  0  0  0  0  0  0  0  0  0  0
  -23.3881  -25.0862   22.7489 C   0  0  0  0  0  0  0  0  0  0  0  0
  -28.3283  -13.7240   19.0435 C   0  0  0  0  0  0  0  0  0  0  0  0
  -28.3065  -27.7519   15.3938 C   0  0  0  0  0  0  0  0  0  0  0  0
  -29.0849  -22.2075   18.2959 C   0  0  0  0  0  0  0  0  0  0  0  0
  -27.8069  -21.6070   20.4204 C   0  0  0  0  0  0  0  0  0  0  0  0
  -16.2060  -30.2059   25.0542 C   0  0  0  0  0  0  0  0  0  0  0  0
  -22.5862  -26.6299   24.4322 C   0  0  0  0  0  0  0  0  0  0  0  0
  -17.0202  -29.0688   24.8910 C   0  0  0  0  0  0  0  0  0  0  0  0
  -22.9721  -26.3773   23.1081 C   0  0  0  0  0  0  0  0  0  0  0  0
  -28.3666  -11.3191   19.2711 C   0  0  0  0  0  0  0  0  0  0  0  0
  -29.3530  -13.8293   19.9840 C   0  0  0  0  0  0  0  0  0  0  0  0
  -29.5307  -23.6877   15.9737 C   0  0  0  0  0  0  0  0  0  0  0  0
  -23.4319  -24.0638   23.6965 C   0  0  0  0  0  0  0  0  0  0  0  0
  -29.6313  -25.7871   14.9228 C   0  0  0  0  0  0  0  0  0  0  0  0
  -29.4002  -28.5623   15.0891 C   0  0  0  0  0  0  0  0  0  0  0  0
  -27.8351  -12.4689   18.6870 C   0  0  0  0  0  0  0  0  0  0  0  0
  -28.4221  -26.3643   15.3106 C   0  0  0  0  0  0  0  0  0  0  0  0
  -28.8548  -21.4423   19.4949 C   0  0  0  0  0  0  0  0  0  0  0  0
  -28.0346  -20.6431   21.3721 C   0  0  0  0  0  0  0  0  0  0  0  0
  -23.2359   -9.5234   20.4904 C   0  0  0  0  0  0  0  0  0  0  0  0
  -26.7244  -22.5471   20.4200 C   0  0  0  0  0  0  0  0  0  0  0  0
  -24.2097  -10.0549   21.2421 C   0  0  0  0  0  0  0  0  0  0  0  0
  -20.2690  -28.4518   23.2427 C   0  0  0  0  0  0  0  0  0  0  0  0
  -22.7382  -29.9518   21.7677 C   0  0  0  0  0  0  0  0  0  0  0  0
  -23.0198  -11.8082   22.4942 C   0  0  0  0  0  0  0  0  0  0  0  0
  -25.9396  -29.7950   20.5959 C   0  0  0  0  0  0  0  0  0  0  0  0
  -30.8702  -15.3846   21.2591 C   0  0  0  0  0  0  0  0  0  0  0  0
  -16.0490  -31.2326   23.9607 C   0  0  0  0  0  0  0  0  0  0  0  0
  -22.1594  -28.0101   24.8512 C   0  0  0  0  0  0  0  0  0  0  0  0
  -22.9448  -27.4538   22.0550 C   0  0  0  0  0  0  0  0  0  0  0  0
  -17.1446  -31.1652   22.8999 C   0  0  0  0  0  0  0  0  0  0  0  0
  -31.5828  -18.1426   23.3951 C   0  0  0  0  0  0  0  0  0  0  0  0
  -17.3773  -29.7221   22.4638 C   0  0  0  0  0  0  0  0  0  0  0  0
  -30.8636  -19.3155   22.7249 C   0  0  0  0  0  0  0  0  0  0  0  0
  -32.1796  -17.1818   22.3683 C   0  0  0  0  0  0  0  0  0  0  0  0
  -30.5179  -17.8665   20.6833 C   0  0  0  0  0  0  0  0  0  0  0  0
  -17.8470  -28.8589   23.6410 C   0  0  1  0  0  0  0  0  0  0  0  0
  -21.6458  -28.8550   23.6895 C   0  0  1  0  0  0  0  0  0  0  0  0
  -29.8444  -18.8271   21.6769 C   0  0  2  0  0  0  0  0  0  0  0  0
  -27.6707  -31.1668   19.4047 C   0  0  0  0  0  0  0  0  0  0  0  0
  -21.2595  -29.5254   19.1329 C   0  0  0  0  0  0  0  0  0  0  0  0
  -23.3976  -30.0295   17.9318 C   0  0  0  0  0  0  0  0  0  0  0  0
  -22.3385  -31.7689   19.3725 C   0  0  0  0  0  0  0  0  0  0  0  0
  -27.8132  -29.6260   22.8806 C   0  0  0  0  0  0  0  0  0  0  0  0
  -25.3822   -6.3860   27.6221 C   0  0  0  0  0  0  0  0  0  0  0  0
  -27.5731   -5.2047   27.5512 C   0  0  0  0  0  0  0  0  0  0  0  0
  -27.8350   -9.9605   18.8900 C   0  0  0  0  0  0  0  0  0  0  0  0
  -24.2466  -11.4952   21.6555 C   0  0  0  0  0  0  0  0  0  0  0  0
  -26.5178   -9.5916   19.5852 C   0  0  0  0  0  0  0  0  0  0  0  0
  -21.9565  -16.8651   23.6466 C   0  0  0  0  0  0  0  0  0  0  0  0
  -22.5006  -18.0927   22.9123 C   0  0  0  0  0  0  0  0  0  0  0  0
  -21.7806  -15.6413   22.7422 C   0  0  0  0  0  0  0  0  0  0  0  0
  -22.6265  -19.2911   23.8558 C   0  0  0  0  0  0  0  0  0  0  0  0
  -21.2064  -14.4230   23.4730 C   0  0  0  0  0  0  0  0  0  0  0  0
  -25.9932   -7.8413   23.6037 C   0  0  0  0  0  0  0  0  0  0  0  0
  -25.9861   -7.6890   25.1252 C   0  0  0  0  0  0  0  0  0  0  0  0
  -23.2004  -20.5088   23.1343 C   0  0  0  0  0  0  0  0  0  0  0  0
  -20.9860  -13.2353   22.5398 C   0  0  0  0  0  0  0  0  0  0  0  0
  -26.5568   -9.6029   21.1103 C   0  0  0  0  0  0  0  0  0  0  0  0
  -25.2410   -9.0927   23.1762 C   0  0  0  0  0  0  0  0  0  0  0  0
  -26.7690   -6.4571   25.5548 C   0  0  0  0  0  0  0  0  0  0  0  0
  -23.2890  -21.7172   24.0557 C   0  0  0  0  0  0  0  0  0  1  0  0
  -23.4629  -29.7797   20.4546 C   0  0  1  0  0  0  0  0  0  0  0  0
  -27.1179  -30.7387   20.7552 C   0  0  2  0  0  0  0  0  0  0  0  0
  -22.6134  -30.2549   19.2422 C   0  0  0  0  0  0  0  0  0  0  0  0
  -29.6865  -20.4518   19.8285 N   0  0  0  0  0  0  0  0  0  0  0  0
  -29.1614  -19.9855   20.9744 N   0  0  0  0  0  0  0  0  0  0  0  0
  -22.5142  -28.7852   22.5125 N   0  0  0  0  0  0  0  0  0  0  0  0
  -31.1553  -16.7580   21.4112 N   0  0  0  0  0  0  0  0  0  0  0  0
  -27.3790  -20.3024   22.5019 N   0  0  0  0  0  0  0  0  0  0  0  0
  -26.6398  -23.4681   19.3669 N   0  0  0  0  0  0  0  0  0  0  0  0
  -29.8554  -15.1042   20.3447 N   0  0  0  0  0  0  0  0  0  0  0  0
  -19.2481  -29.0965   23.9146 N   0  0  0  0  0  0  0  0  0  0  0  0
  -22.2040  -12.7795   21.9278 N   0  0  0  0  0  0  0  0  0  0  0  0
  -24.7386  -30.4725   20.5986 N   0  0  0  0  0  0  0  0  0  0  0  0
  -28.2112  -30.0774   21.5223 N   0  3  0  0  0  0  0  0  0  0  0  0
  -25.2355   -9.1751   21.6780 N   0  3  1  0  0  0  0  0  0  0  0  0
  -26.7729   -6.3760   27.0353 N   0  3  0  0  0  0  0  0  0  0  0  0
  -25.8671  -22.5804   21.3351 O   0  0  0  0  0  0  0  0  0  0  0  0
  -20.1424  -27.6186   22.3530 O   0  0  0  0  0  0  0  0  0  0  0  0
  -22.3902  -31.0807   22.1229 O   0  0  0  0  0  0  0  0  0  0  0  0
  -22.7988  -11.2386   23.5616 O   0  0  0  0  0  0  0  0  0  0  0  0
  -26.0715  -28.5789   20.4769 O   0  0  0  0  0  0  0  0  0  0  0  0
  -31.4624  -14.5225   21.9134 O   0  0  0  0  0  0  0  0  0  0  0  0
  -29.7478  -24.4097   14.8405 O   0  0  0  0  0  0  0  0  0  0  0  0
  -23.8420  -22.8076   23.3317 O   0  0  0  0  0  0  0  0  0  1  0  0
  -29.2899  -29.8947   15.1704 F   0  0  0  0  0  0  0  0  0  0  0  0
  -26.8504  -12.3778   17.7824 F   0  0  0  0  0  0  0  0  0  0  0  0
  -27.3683  -25.5908   15.6056 F   0  0  0  0  0  0  0  0  0  0  0  0
  1  2  1  0  0  0  0
  1  5  2  0  0  0  0
  2  6  2  0  0  0  0
  3 10  2  0  0  0  0
  3 18  1  0  0  0  0
  4 11  1  0  0  0  0
  4 18  2  0  0  0  0
  5 20  1  0  0  0  0
  6 22  1  0  0  0  0
  7 12  2  0  0  0  0
  7 21  1  0  0  0  0
  8  9  2  0  0  0  0
  8 24  1  0  0  0  0
  9 25  1  0  0  0  0
 10 26  1  0  0  0  0
 11 26  2  0  0  0  0
 12 27  1  0  0  0  0
 13 14  2  0  0  0  0
 13 28  1  0  0  0  0
 14 29  1  0  0  0  0
 15 23  1  0  0  0  0
 15 27  2  0  0  0  0
 16 25  2  0  0  0  0
 16 30  1  0  0  0  0
 17 29  2  0  0  0  0
 17 31  1  0  0  0  0
 18 32  1  0  0  0  0
 19 32  1  0  0  0  0
 19 33  2  0  0  0  0
 19 35  1  0  0  0  0
 20 22  2  0  0  0  0
 20 42  1  0  0  0  0
 21 23  2  0  0  0  0
 21 43  1  0  0  0  0
 22 51  1  0  0  0  0
 23 44  1  0  0  0  0
 24 30  2  0  0  0  0
 24 61  1  0  0  0  0
 25 86  1  0  0  0  0
 26 99  1  0  0  0  0
 27100  1  0  0  0  0
 28 31  2  0  0  0  0
 28 99  1  0  0  0  0
 29101  1  0  0  0  0
 30102  1  0  0  0  0
 31103  1  0  0  0  0
 32 80  2  0  0  0  0
 33 81  1  0  0  0  0
 33 84  1  0  0  0  0
 34 36  2  0  0  0  0
 35 85  1  0  0  0  0
 35 93  2  0  0  0  0
 36 62  1  0  0  0  0
 36 91  1  0  0  0  0
 37 52  1  0  0  0  0
 37 87  1  0  0  0  0
 37 94  2  0  0  0  0
 38 77  1  0  0  0  0
 38 82  1  0  0  0  0
 38 95  2  0  0  0  0
 39 62  1  0  0  0  0
 39 88  1  0  0  0  0
 39 96  2  0  0  0  0
 40 78  1  0  0  0  0
 40 89  1  0  0  0  0
 40 97  2  0  0  0  0
 41 83  1  0  0  0  0
 41 86  1  0  0  0  0
 41 98  2  0  0  0  0
 42 45  1  0  0  0  0
 43 52  1  0  0  0  0
 44 82  1  0  0  0  0
 45 47  1  0  0  0  0
 46 48  1  0  0  0  0
 46 49  1  0  0  0  0
 47 51  1  0  0  0  0
 48 53  1  0  0  0  0
 49 83  1  0  0  0  0
 50 53  1  0  0  0  0
 50 83  1  0  0  0  0
 51 87  1  0  0  0  0
 52 82  1  0  0  0  0
 53 81  1  0  0  0  0
 54 78  1  0  0  0  0
 55 79  1  0  0  0  0
 56 79  1  0  0  0  0
 57 79  1  0  0  0  0
 58 90  1  0  0  0  0
 59 92  1  0  0  0  0
 60 92  1  0  0  0  0
 61 63  1  0  0  0  0
 63 73  1  0  0  0  0
 64 65  1  0  0  0  0
 64 66  1  0  0  0  0
 65 67  1  0  0  0  0
 66 68  1  0  0  0  0
 67 71  1  0  0  0  0
 68 72  1  0  0  0  0
 69 70  1  0  0  0  0
 69 74  1  0  0  0  0
 70 75  1  0  0  0  0
 71 76  1  0  0  0  0
 72 88  1  0  0  0  0
 73 91  1  0  0  0  0
 74 91  1  0  0  0  0
 75 92  1  0  0  0  0
 76100  1  0  0  0  0
 77 79  1  0  0  0  0
 77 89  1  0  0  0  0
 78 90  1  0  0  0  0
 80 81  1  0  0  0  0
M  CHG  3  90   1  91   1  92   1
M  ISO  4  41 100  76 101  86 100 100 101
M  END
> <Batch ID>
0005

> <Smiles>
C=C(CC(=O)NCCCCCCC[101CH2:1][101O:1]c1ccc2c(c1)CN(C(=O)C(NC(=O)C(C)NC)C(C)(C)C)C(C(=O)NC1CCCc3ccccc31)C2)N(CCCCN(C)C)CCCc1ccc([100NH:0][100C:0](=O)N2CCCC(n3nc(-c4ccc(Oc5ccc(F)cc5F)cc4)c(C(N)=O)c3N)C2)cc1F

> <Shape>
0.266

> <Color>
0.052

> <Negative vol penalty>
0.000

$$$$

  -OEChem-04052315263D

107115  0     1  0  0  0  0  0999 V2000
  -29.0687  -27.0418   15.2008 C   0  0  0  0  0  0  0  0  0  0  0  0
  -27.9250  -26.8308   15.9643 C   0  0  0  0  0  0  0  0  0  0  0  0
  -28.9175  -19.0039   21.2896 C   0  0  0  0  0  0  0  0  0  0  0  0
  -27.0304  -18.7649   19.7999 C   0  0  0  0  0  0  0  0  0  0  0  0
  -30.1706  -27.6864   15.7615 C   0  0  0  0  0  0  0  0  0  0  0  0
  -27.8829  -27.2634   17.2892 C   0  0  0  0  0  0  0  0  0  0  0  0
  -23.5352  -29.5936   18.4350 C   0  0  0  0  0  0  0  0  0  0  0  0
  -29.0393  -20.3434   20.9205 C   0  0  0  0  0  0  0  0  0  0  0  0
  -27.1522  -20.1046   19.4308 C   0  0  0  0  0  0  0  0  0  0  0  0
  -22.4231  -28.7865   18.6708 C   0  0  0  0  0  0  0  0  0  0  0  0
  -30.2937  -22.1071   18.3242 C   0  0  0  0  0  0  0  0  0  0  0  0
  -31.5727  -22.5873   18.0428 C   0  0  0  0  0  0  0  0  0  0  0  0
  -22.7538  -29.0355   21.0473 C   0  0  0  0  0  0  0  0  0  0  0  0
  -25.5191   -8.3032   18.7020 C   0  0  0  0  0  0  0  0  0  0  0  0
  -23.2813   -7.5365   19.1929 C   0  0  0  0  0  0  0  0  0  0  0  0
  -31.3531  -24.2120   19.8174 C   0  0  0  0  0  0  0  0  0  0  0  0
  -27.9131  -18.2146   20.7293 C   0  0  0  0  0  0  0  0  0  0  0  0
  -27.0191  -16.3059   22.1665 C   0  0  0  0  0  0  0  0  0  0  0  0
  -30.1384  -28.1357   17.0910 C   0  0  0  0  0  0  0  0  0  0  0  0
  -24.2727  -30.1197   19.5055 C   0  0  0  0  0  0  0  0  0  0  0  0
  -28.9859  -27.9134   17.8686 C   0  0  0  0  0  0  0  0  0  0  0  0
  -23.8733  -29.8511   20.8225 C   0  0  0  0  0  0  0  0  0  0  0  0
  -24.4712   -7.4109   18.4759 C   0  0  0  0  0  0  0  0  0  0  0  0
  -24.1874   -9.4467   20.3621 C   0  0  0  0  0  0  0  0  0  0  0  0
  -25.3773   -9.3211   19.6451 C   0  0  0  0  0  0  0  0  0  0  0  0
  -23.1394   -8.5544   20.1360 C   0  0  0  0  0  0  0  0  0  0  0  0
  -28.1567  -20.8938   19.9911 C   0  0  0  0  0  0  0  0  0  0  0  0
  -22.0340  -28.5050   19.9771 C   0  0  0  0  0  0  0  0  0  0  0  0
  -29.5444  -22.6794   19.3522 C   0  0  0  0  0  0  0  0  0  0  0  0
  -32.1024  -23.6397   18.7894 C   0  0  0  0  0  0  0  0  0  0  0  0
  -30.0741  -23.7318   20.0988 C   0  0  0  0  0  0  0  0  0  0  0  0
  -27.7871  -16.8306   21.1097 C   0  0  0  0  0  0  0  0  0  0  0  0
  -27.2355  -14.9508   22.1084 C   0  0  0  0  0  0  0  0  0  0  0  0
  -26.1847  -16.9830   23.1157 C   0  0  0  0  0  0  0  0  0  0  0  0
  -27.2700  -29.8279   20.5225 C   0  0  0  0  0  0  0  0  0  0  0  0
  -26.3648  -32.1181   22.6339 C   0  0  0  0  0  0  0  0  0  0  0  0
  -20.1449  -25.6693   21.1784 C   0  0  0  0  0  0  0  0  0  0  0  0
  -23.8351  -33.6604   24.3276 C   0  0  0  0  0  0  0  0  0  0  0  0
  -27.6959  -10.2111   19.2229 C   0  0  0  0  0  0  0  0  0  0  0  0
  -31.3713  -28.7853   17.6678 C   0  0  0  0  0  0  0  0  0  0  0  0
  -25.4540  -31.0105   19.2344 C   0  0  0  0  0  0  0  0  0  0  0  0
  -24.6191  -30.4081   22.0065 C   0  0  0  0  0  0  0  0  0  0  0  0
  -31.1087  -29.5466   18.9646 C   0  0  0  0  0  0  0  0  0  0  0  0
  -30.5972  -12.2631   19.4444 C   0  0  0  0  0  0  0  0  0  0  0  0
  -30.2624  -28.7058   19.9152 C   0  0  0  0  0  0  0  0  0  0  0  0
  -30.0616  -13.5912   19.9843 C   0  0  0  0  0  0  0  0  0  0  0  0
  -29.6133  -11.6055   18.4784 C   0  0  0  0  0  0  0  0  0  0  0  0
  -27.7155  -12.7635   19.5397 C   0  0  0  0  0  0  0  0  0  0  0  0
  -28.8928  -28.3901   19.3019 C   0  0  1  0  0  0  0  0  0  0  0  0
  -26.4361  -31.0718   20.4002 C   0  0  1  0  0  0  0  0  0  0  0  0
  -28.6436  -13.4318   20.5671 C   0  0  2  0  0  0  0  0  0  0  0  0
  -24.6221   -6.3235   17.4660 C   0  0  0  0  0  0  0  0  0  0  0  0
  -24.0339  -10.5397   21.3739 C   0  0  0  0  0  0  0  0  0  0  0  0
  -23.4090  -35.4731   26.0098 C   0  0  0  0  0  0  0  0  0  0  0  0
  -20.0857   -7.1521   21.1343 C   0  0  0  0  0  0  0  0  0  0  0  0
  -21.3434   -8.0918   23.1043 C   0  0  0  0  0  0  0  0  0  0  0  0
  -15.5323   -9.1812   17.7879 C   0  0  0  0  0  0  0  0  0  0  0  0
  -16.0107  -11.5091   16.9896 C   0  0  0  0  0  0  0  0  0  0  0  0
  -17.2871   -9.5756   16.0528 C   0  0  0  0  0  0  0  0  0  0  0  0
  -27.3607  -30.2836   24.8593 C   0  0  0  0  0  0  0  0  0  0  0  0
  -26.0731  -31.6794   26.4910 C   0  0  0  0  0  0  0  0  0  0  0  0
  -27.9255  -32.7002   25.1684 C   0  0  0  0  0  0  0  0  0  0  0  0
  -20.6829  -25.0814   23.5654 C   0  0  0  0  0  0  0  0  0  0  0  0
  -22.1736  -35.1986   22.4217 C   0  0  0  0  0  0  0  0  0  0  0  0
  -20.9432  -26.9376   21.3947 C   0  0  0  0  0  0  0  0  0  1  0  0
  -19.5591  -18.6165   21.0592 C   0  0  0  0  0  0  0  0  0  0  0  0
  -20.4237  -17.4888   20.4914 C   0  0  0  0  0  0  0  0  0  0  0  0
  -20.2978  -19.9531   21.1722 C   0  0  0  0  0  0  0  0  0  0  0  0
  -19.6295  -16.1853   20.3796 C   0  0  0  0  0  0  0  0  0  0  0  0
  -19.4130  -21.0978   21.6709 C   0  0  0  0  0  0  0  0  0  0  0  0
  -20.4999  -15.0474   19.8430 C   0  0  0  0  0  0  0  0  0  0  0  0
  -20.1944  -22.4107   21.7421 C   0  0  0  0  0  0  0  0  0  0  0  0
  -19.7155  -13.7371   19.7630 C   0  0  0  0  0  0  0  0  0  0  0  0
  -17.7393  -10.2910   18.4113 C   0  0  0  0  0  0  0  0  0  0  0  0
  -19.3065  -23.5605   22.2013 C   0  0  0  0  0  0  0  0  0  0  0  0
  -21.1430   -9.8980   20.7439 C   0  0  0  0  0  0  0  0  0  0  0  0
  -20.5970  -12.6024   19.2626 C   0  0  0  0  0  0  0  0  0  0  0  0
  -18.8563  -11.2749   18.0761 C   0  0  0  0  0  0  0  0  0  0  0  0
  -20.6767  -10.1139   19.3165 C   0  0  0  0  0  0  0  0  0  0  0  0
  -25.7529  -32.1183   24.0139 C   0  0  1  0  0  0  0  0  0  0  0  0
  -23.5082  -35.1287   24.5319 C   0  0  2  0  0  0  0  0  0  0  0  0
  -21.4398   -7.5949   21.6693 C   0  0  0  0  0  0  0  0  0  0  0  0
  -16.6374  -10.1464   17.3283 C   0  0  0  0  0  0  0  0  0  0  0  0
  -26.7649  -31.6831   25.1111 C   0  0  0  0  0  0  0  0  0  0  0  0
  -28.4426  -15.8858   20.4301 N   0  0  0  0  0  0  0  0  0  0  0  0
  -28.0870  -14.7539   21.0614 N   0  0  0  0  0  0  0  0  0  0  0  0
  -25.7710  -31.2685   21.6898 N   0  0  0  0  0  0  0  0  0  0  0  0
  -28.2929  -11.4836   19.1001 N   0  0  0  0  0  0  0  0  0  0  0  0
  -26.7785  -13.9205   22.8513 N   0  0  0  0  0  0  0  0  0  0  0  0
  -26.0743  -18.3777   23.0330 N   0  0  0  0  0  0  0  0  0  0  0  0
  -26.4553  -10.2152   19.8598 N   0  0  0  0  0  0  0  0  0  0  0  0
  -28.0190  -29.5397   19.3976 N   0  0  0  0  0  0  0  0  0  0  0  0
  -25.1930  -33.4508   24.2120 N   0  0  0  0  0  0  0  0  0  0  0  0
  -21.9520   -8.6622   20.8374 N   0  0  3  0  0  0  0  0  0  0  0  0
  -20.0430  -24.7920   22.2764 N   0  0  0  0  0  0  0  0  0  0  0  0
  -22.2096  -35.4654   23.8827 N   0  3  0  0  0  0  0  0  0  0  0  0
  -19.8087  -11.3468   19.2449 N   0  3  1  0  0  0  0  0  0  0  0  0
  -25.5685  -16.3710   24.0208 O   0  0  0  0  0  0  0  0  0  0  0  0
  -27.2376  -29.1785   21.5613 O   0  0  0  0  0  0  0  0  0  0  0  0
  -27.3296  -32.8504   22.4001 O   0  0  0  0  0  0  0  0  0  0  0  0
  -19.6277  -25.4751   20.0740 O   0  0  0  0  0  0  0  0  0  0  0  0
  -22.9724  -32.7864   24.2793 O   0  0  0  0  0  0  0  0  0  0  0  0
  -28.2571   -9.1893   18.8191 O   0  0  0  0  0  0  0  0  0  0  0  0
  -28.2751  -22.2010   19.6309 O   0  0  0  0  0  0  0  0  0  0  0  0
  -20.9379  -27.7087   20.2124 O   0  0  0  0  0  0  0  0  0  1  0  0
  -33.3312  -24.0998   18.5201 F   0  0  0  0  0  0  0  0  0  0  0  0
  -29.3595  -24.2849   21.0884 F   0  0  0  0  0  0  0  0  0  0  0  0
  1  2  1  0  0  0  0
  1  5  2  0  0  0  0
  2  6  2  0  0  0  0
  3  8  2  0  0  0  0
  3 17  1  0  0  0  0
  4  9  1  0  0  0  0
  4 17  2  0  0  0  0
  5 19  1  0  0  0  0
  6 21  1  0  0  0  0
  7 10  2  0  0  0  0
  7 20  1  0  0  0  0
  8 27  1  0  0  0  0
  9 27  2  0  0  0  0
 10 28  1  0  0  0  0
 11 12  2  0  0  0  0
 11 29  1  0  0  0  0
 12 30  1  0  0  0  0
 13 22  1  0  0  0  0
 13 28  2  0  0  0  0
 14 23  1  0  0  0  0
 14 25  2  0  0  0  0
 15 23  2  0  0  0  0
 15 26  1  0  0  0  0
 16 30  2  0  0  0  0
 16 31  1  0  0  0  0
 17 32  1  0  0  0  0
 18 32  1  0  0  0  0
 18 33  2  0  0  0  0
 18 34  1  0  0  0  0
 19 21  2  0  0  0  0
 19 40  1  0  0  0  0
 20 22  2  0  0  0  0
 20 41  1  0  0  0  0
 21 49  1  0  0  0  0
 22 42  1  0  0  0  0
 23 52  1  0  0  0  0
 24 25  1  0  0  0  0
 24 26  2  0  0  0  0
 24 53  1  0  0  0  0
 25 91  1  0  0  0  0
 26 94  1  0  0  0  0
 27104  1  0  0  0  0
 28105  1  0  0  0  0
 29 31  2  0  0  0  0
 29104  1  0  0  0  0
 30106  1  0  0  0  0
 31107  1  0  0  0  0
 32 85  2  0  0  0  0
 33 86  1  0  0  0  0
 33 89  1  0  0  0  0
 34 90  1  0  0  0  0
 34 98  2  0  0  0  0
 35 50  1  0  0  0  0
 35 92  1  0  0  0  0
 35 99  2  0  0  0  0
 36 80  1  0  0  0  0
 36 87  1  0  0  0  0
 36100  2  0  0  0  0
 37 65  1  0  0  0  0
 37 95  1  0  0  0  0
 37101  2  0  0  0  0
 38 81  1  0  0  0  0
 38 93  1  0  0  0  0
 38102  2  0  0  0  0
 39 88  1  0  0  0  0
 39 91  1  0  0  0  0
 39103  2  0  0  0  0
 40 43  1  0  0  0  0
 41 50  1  0  0  0  0
 42 87  1  0  0  0  0
 43 45  1  0  0  0  0
 44 46  1  0  0  0  0
 44 47  1  0  0  0  0
 45 49  1  0  0  0  0
 46 51  1  0  0  0  0
 47 88  1  0  0  0  0
 48 51  1  0  0  0  0
 48 88  1  0  0  0  0
 49 92  1  0  0  0  0
 50 87  1  0  0  0  0
 51 86  1  0  0  0  0
 54 81  1  0  0  0  0
 55 82  1  0  0  0  0
 56 82  1  0  0  0  0
 57 83  1  0  0  0  0
 58 83  1  0  0  0  0
 59 83  1  0  0  0  0
 60 84  1  0  0  0  0
 61 84  1  0  0  0  0
 62 84  1  0  0  0  0
 63 95  1  0  0  0  0
 64 96  1  0  0  0  0
 65105  1  0  0  0  0
 66 67  1  0  0  0  0
 66 68  1  0  0  0  0
 67 69  1  0  0  0  0
 68 70  1  0  0  0  0
 69 71  1  0  0  0  0
 70 72  1  0  0  0  0
 71 73  1  0  0  0  0
 72 75  1  0  0  0  0
 73 77  1  0  0  0  0
 74 78  1  0  0  0  0
 74 83  1  0  0  0  0
 75 95  1  0  0  0  0
 76 79  1  0  0  0  0
 76 94  1  0  0  0  0
 77 97  1  0  0  0  0
 78 97  1  0  0  0  0
 79 97  1  0  0  0  0
 80 84  1  0  0  0  0
 80 93  1  0  0  0  0
 81 96  1  0  0  0  0
 82 94  1  0  0  0  0
 85 86  1  0  0  0  0
M  CHG  2  96   1  97   1
M  ISO  4  39 100  65 101  91 100 105 101
M  END
> <Batch ID>
0005

> <Smiles>
CNC(C)C(=O)NC(C(=O)N1Cc2cc([101O:1][101CH2:1]C(=O)N(C)CCCCCCCCCCN(CCN(c3cc(C)cc([100NH:0][100C:0](=O)N4CCCC(n5nc(-c6ccc(Oc7ccc(F)cc7F)cc6)c(C(N)=O)c5N)C4)c3C)C(C)C)CCC(C)(C)C)ccc2CC1C(=O)NC1CCCc2ccccc21)C(C)(C)C

> <Shape>
0.279

> <Color>
0.066

> <Negative vol penalty>
0.000

$$$$

  -OEChem-04052315263D

 97105  0     1  0  0  0  0  0999 V2000
  -26.3218  -30.6322   29.9262 C   0  0  0  0  0  0  0  0  0  0  0  0
  -24.9936  -30.5931   29.5143 C   0  0  0  0  0  0  0  0  0  0  0  0
  -26.7161  -12.5742   21.5687 C   0  0  0  0  0  0  0  0  0  0  0  0
  -26.2903  -13.6616   19.4537 C   0  0  0  0  0  0  0  0  0  0  0  0
  -27.2978  -31.1566   29.0798 C   0  0  0  0  0  0  0  0  0  0  0  0
  -24.6404  -31.0794   28.2560 C   0  0  0  0  0  0  0  0  0  0  0  0
  -21.4107  -26.8363   23.4129 C   0  0  0  0  0  0  0  0  0  0  0  0
  -30.0088  -23.3174   18.6721 C   0  0  0  0  0  0  0  0  0  0  0  0
  -30.4055  -22.1874   19.3871 C   0  0  0  0  0  0  0  0  0  0  0  0
  -25.3867  -12.1553   21.6210 C   0  0  0  0  0  0  0  0  0  0  0  0
  -24.9608  -13.2427   19.5060 C   0  0  0  0  0  0  0  0  0  0  0  0
  -20.6014  -26.1474   22.5092 C   0  0  0  0  0  0  0  0  0  0  0  0
  -22.1949  -10.4933   22.1359 C   0  0  0  0  0  0  0  0  0  0  0  0
  -21.9454   -9.1716   22.5054 C   0  0  0  0  0  0  0  0  0  0  0  0
  -20.7054  -28.0148   20.9762 C   0  0  0  0  0  0  0  0  0  0  0  0
  -23.2350   -8.3995   20.6138 C   0  0  0  0  0  0  0  0  0  0  0  0
  -27.1679  -13.3274   20.4850 C   0  0  0  0  0  0  0  0  0  0  0  0
  -29.6276  -13.0729   19.8580 C   0  0  0  0  0  0  0  0  0  0  0  0
  -26.9579  -31.6407   27.8067 C   0  0  0  0  0  0  0  0  0  0  0  0
  -21.8837  -28.1124   23.0946 C   0  0  0  0  0  0  0  0  0  0  0  0
  -25.6126  -31.6120   27.3923 C   0  0  0  0  0  0  0  0  0  0  0  0
  -21.5266  -28.7046   21.8720 C   0  0  0  0  0  0  0  0  0  0  0  0
  -29.4993  -23.1822   17.3806 C   0  0  0  0  0  0  0  0  0  0  0  0
  -30.2930  -20.9222   18.8106 C   0  0  0  0  0  0  0  0  0  0  0  0
  -29.3868  -21.9171   16.8041 C   0  0  0  0  0  0  0  0  0  0  0  0
  -24.5090  -12.4896   20.5897 C   0  0  0  0  0  0  0  0  0  0  0  0
  -20.2495  -26.7354   21.2940 C   0  0  0  0  0  0  0  0  0  0  0  0
  -22.9643  -10.7681   21.0054 C   0  0  0  0  0  0  0  0  0  0  0  0
  -22.4655   -8.1247   21.7444 C   0  0  0  0  0  0  0  0  0  0  0  0
  -23.4844   -9.7212   20.2444 C   0  0  0  0  0  0  0  0  0  0  0  0
  -29.7836  -20.7870   17.5191 C   0  0  0  0  0  0  0  0  0  0  0  0
  -28.5410  -13.7608   20.4307 C   0  0  0  0  0  0  0  0  0  0  0  0
  -30.7048  -13.8994   20.0651 C   0  0  0  0  0  0  0  0  0  0  0  0
  -29.6602  -11.8006   19.1978 C   0  0  0  0  0  0  0  0  0  0  0  0
  -23.9372  -31.0719   24.1436 C   0  0  0  0  0  0  0  0  0  0  0  0
  -24.4782  -30.6254   21.1573 C   0  0  0  0  0  0  0  0  0  0  0  0
  -21.1571  -19.8994   14.9215 C   0  0  0  0  0  0  0  0  0  0  0  0
  -27.2319  -21.1270   13.8804 C   0  0  0  0  0  0  0  0  0  0  0  0
  -25.1219  -29.5407   17.9877 C   0  0  0  0  0  0  0  0  0  0  0  0
  -31.2309  -19.7981   20.8608 C   0  0  0  0  0  0  0  0  0  0  0  0
  -28.0405  -32.2417   26.9457 C   0  0  0  0  0  0  0  0  0  0  0  0
  -22.7073  -28.9160   24.0639 C   0  0  0  0  0  0  0  0  0  0  0  0
  -22.0302  -30.0931   21.5870 C   0  0  0  0  0  0  0  0  0  0  0  0
  -27.6399  -32.3927   25.4805 C   0  0  0  0  0  0  0  0  0  0  0  0
  -32.3340  -17.2431   23.0816 C   0  0  0  0  0  0  0  0  0  0  0  0
  -26.2480  -33.0065   25.3681 C   0  0  0  0  0  0  0  0  0  0  0  0
  -31.5901  -15.9962   22.5979 C   0  0  0  0  0  0  0  0  0  0  0  0
  -31.4718  -18.4988   22.9652 C   0  0  0  0  0  0  0  0  0  0  0  0
  -30.1459  -17.4846   21.1535 C   0  0  0  0  0  0  0  0  0  0  0  0
  -25.1938  -32.1072   26.0250 C   0  0  1  0  0  0  0  0  0  0  0  0
  -23.7642  -29.7961   23.3729 C   0  0  1  0  0  0  0  0  0  0  0  0
  -30.9966  -16.2045   21.1908 C   0  0  2  0  0  0  0  0  0  0  0  0
  -29.0834  -24.4125   16.6410 C   0  0  0  0  0  0  0  0  0  0  0  0
  -26.2438  -29.4356   15.7455 C   0  0  0  0  0  0  0  0  0  0  0  0
  -22.5466  -32.8900   20.4907 C   0  0  0  0  0  0  0  0  0  0  0  0
  -23.3281  -32.7624   18.1156 C   0  0  0  0  0  0  0  0  0  0  0  0
  -24.9376  -33.3577   19.9261 C   0  0  0  0  0  0  0  0  0  0  0  0
  -27.1954  -27.6783   18.9831 C   0  0  0  0  0  0  0  0  0  0  0  0
  -21.9960  -20.6975   13.9372 C   0  0  0  0  0  0  0  0  0  0  0  0
  -27.9667  -20.7257   15.1339 C   0  0  0  0  0  0  0  0  0  0  0  0
  -23.3459  -20.0565   13.6165 C   0  0  0  0  0  0  0  0  0  0  0  0
  -19.0880  -22.0286   17.5705 C   0  0  0  0  0  0  0  0  0  0  0  0
  -19.3466  -22.5538   18.9840 C   0  0  0  0  0  0  0  0  0  0  0  0
  -24.1585  -20.8828   12.6118 C   0  0  0  0  0  0  0  0  0  0  0  0
  -19.1890  -20.5041   17.5160 C   0  0  0  0  0  0  0  0  0  0  0  0
  -19.2744  -24.0829   19.0300 C   0  0  0  0  0  0  0  0  0  0  0  0
  -25.5134  -20.2551   12.2991 C   0  0  0  0  0  0  0  0  0  0  0  0
  -18.9689  -19.9841   16.1006 C   0  0  0  0  0  0  0  0  0  0  0  0
  -19.5615  -24.6319   20.4224 C   0  0  0  0  0  0  0  0  0  1  0  0
  -24.1083  -30.9767   19.7384 C   0  0  1  0  0  0  0  0  0  0  0  0
  -26.4270  -29.3039   17.2494 C   0  0  2  0  0  0  0  0  0  0  0  0
  -23.7193  -32.4738   19.5806 C   0  0  0  0  0  0  0  0  0  0  0  0
  -28.8956  -14.9339   20.9618 N   0  0  0  0  0  0  0  0  0  0  0  0
  -30.2171  -14.9895   20.7239 N   0  0  0  0  0  0  0  0  0  0  0  0
  -23.4380  -30.2112   21.9980 N   0  0  0  0  0  0  0  0  0  0  0  0
  -30.9477  -18.6329   21.6043 N   0  0  0  0  0  0  0  0  0  0  0  0
  -32.0122  -13.7927   19.7462 N   0  0  0  0  0  0  0  0  0  0  0  0
  -28.4630  -11.0829   19.0707 N   0  0  0  0  0  0  0  0  0  0  0  0
  -30.7073  -19.7988   19.5683 N   0  0  0  0  0  0  0  0  0  0  0  0
  -28.8854  -21.8019   15.5330 N   0  0  0  0  0  0  0  0  0  0  0  0
  -24.8700  -30.9931   25.1600 N   0  0  0  0  0  0  0  0  0  0  0  0
  -19.9390  -20.5183   15.1843 N   0  0  0  0  0  0  0  0  0  0  0  0
  -26.3459  -20.1371   13.4640 N   0  0  0  0  0  0  0  0  0  0  0  0
  -25.2338  -30.5610   18.9083 N   0  0  0  0  0  0  0  0  0  0  0  0
  -26.9470  -27.9382   17.5417 N   0  3  0  0  0  0  0  0  0  0  0  0
  -30.7224  -11.3071   18.7488 O   0  0  0  0  0  0  0  0  0  0  0  0
  -23.2747  -32.0566   23.8386 O   0  0  0  0  0  0  0  0  0  0  0  0
  -25.6557  -30.7203   21.5147 O   0  0  0  0  0  0  0  0  0  0  0  0
  -21.5347  -18.8480   15.4317 O   0  0  0  0  0  0  0  0  0  0  0  0
  -27.4043  -22.2013   13.3106 O   0  0  0  0  0  0  0  0  0  0  0  0
  -24.1039  -28.8884   17.7669 O   0  0  0  0  0  0  0  0  0  0  0  0
  -31.9123  -20.7152   21.3261 O   0  0  0  0  0  0  0  0  0  0  0  0
  -23.2118  -12.0808   20.6403 O   0  0  0  0  0  0  0  0  0  0  0  0
  -19.4628  -26.0555   20.4144 O   0  0  0  0  0  0  0  0  0  1  0  0
  -22.2271   -6.8556   22.1002 F   0  0  0  0  0  0  0  0  0  0  0  0
  -24.2253   -9.9790   19.1579 F   0  0  0  0  0  0  0  0  0  0  0  0
  -29.6445  -19.2113   16.8042 Cl  0  0  0  0  0  0  0  0  0  0  0  0
  1  2  1  0  0  0  0
  1  5  2  0  0  0  0
  2  6  2  0  0  0  0
  3 10  2  0  0  0  0
  3 17  1  0  0  0  0
  4 11  1  0  0  0  0
  4 17  2  0  0  0  0
  5 19  1  0  0  0  0
  6 21  1  0  0  0  0
  7 12  2  0  0  0  0
  7 20  1  0  0  0  0
  8  9  1  0  0  0  0
  8 23  2  0  0  0  0
  9 24  2  0  0  0  0
 10 26  1  0  0  0  0
 11 26  2  0  0  0  0
 12 27  1  0  0  0  0
 13 14  2  0  0  0  0
 13 28  1  0  0  0  0
 14 29  1  0  0  0  0
 15 22  1  0  0  0  0
 15 27  2  0  0  0  0
 16 29  2  0  0  0  0
 16 30  1  0  0  0  0
 17 32  1  0  0  0  0
 18 32  1  0  0  0  0
 18 33  2  0  0  0  0
 18 34  1  0  0  0  0
 19 21  2  0  0  0  0
 19 41  1  0  0  0  0
 20 22  2  0  0  0  0
 20 42  1  0  0  0  0
 21 50  1  0  0  0  0
 22 43  1  0  0  0  0
 23 25  1  0  0  0  0
 23 53  1  0  0  0  0
 24 31  1  0  0  0  0
 24 79  1  0  0  0  0
 25 31  2  0  0  0  0
 25 80  1  0  0  0  0
 26 93  1  0  0  0  0
 27 94  1  0  0  0  0
 28 30  2  0  0  0  0
 28 93  1  0  0  0  0
 29 95  1  0  0  0  0
 30 96  1  0  0  0  0
 31 97  1  0  0  0  0
 32 73  2  0  0  0  0
 33 74  1  0  0  0  0
 33 77  1  0  0  0  0
 34 78  1  0  0  0  0
 34 86  2  0  0  0  0
 35 51  1  0  0  0  0
 35 81  1  0  0  0  0
 35 87  2  0  0  0  0
 36 70  1  0  0  0  0
 36 75  1  0  0  0  0
 36 88  2  0  0  0  0
 37 59  1  0  0  0  0
 37 82  1  0  0  0  0
 37 89  2  0  0  0  0
 38 60  1  0  0  0  0
 38 83  1  0  0  0  0
 38 90  2  0  0  0  0
 39 71  1  0  0  0  0
 39 84  1  0  0  0  0
 39 91  2  0  0  0  0
 40 76  1  0  0  0  0
 40 79  1  0  0  0  0
 40 92  2  0  0  0  0
 41 44  1  0  0  0  0
 42 51  1  0  0  0  0
 43 75  1  0  0  0  0
 44 46  1  0  0  0  0
 45 47  1  0  0  0  0
 45 48  1  0  0  0  0
 46 50  1  0  0  0  0
 47 52  1  0  0  0  0
 48 76  1  0  0  0  0
 49 52  1  0  0  0  0
 49 76  1  0  0  0  0
 50 81  1  0  0  0  0
 51 75  1  0  0  0  0
 52 74  1  0  0  0  0
 54 71  1  0  0  0  0
 55 72  1  0  0  0  0
 56 72  1  0  0  0  0
 57 72  1  0  0  0  0
 58 85  1  0  0  0  0
 59 61  1  0  0  0  0
 60 80  1  0  0  0  0
 61 64  1  0  0  0  0
 62 63  1  0  0  0  0
 62 65  1  0  0  0  0
 63 66  1  0  0  0  0
 64 67  1  0  0  0  0
 65 68  1  0  0  0  0
 66 69  1  0  0  0  0
 67 83  1  0  0  0  0
 68 82  1  0  0  0  0
 69 94  1  0  0  0  0
 70 72  1  0  0  0  0
 70 84  1  0  0  0  0
 71 85  1  0  0  0  0
 73 74  1  0  0  0  0
M  CHG  1  85   1
M  ISO  4  40 100  69 101  79 100  94 101
M  END
> <Batch ID>
0005

> <Smiles>
CNC(C)C(=O)NC(C(=O)N1Cc2cc([101O:1][101CH2:1]CCCCCNC(=O)CCCCNC(=O)CNc3c(C)ccc([100NH:0][100C:0](=O)N4CCCC(n5nc(-c6ccc(Oc7ccc(F)cc7F)cc6)c(C(N)=O)c5N)C4)c3Cl)ccc2CC1C(=O)NC1CCCc2ccccc21)C(C)(C)C

> <Shape>
0.295

> <Color>
0.049

> <Negative vol penalty>
0.000

$$$$

  -OEChem-04052315263D

 82 90  0     1  0  0  0  0  0999 V2000
  -18.0559  -25.2788   21.6922 C   0  0  0  0  0  0  0  0  0  0  0  0
  -19.3124  -24.7971   22.0453 C   0  0  0  0  0  0  0  0  0  0  0  0
  -23.7189   -9.8738   21.6223 C   0  0  0  0  0  0  0  0  0  0  0  0
  -24.2642  -11.0080   23.6847 C   0  0  0  0  0  0  0  0  0  0  0  0
  -17.9327  -26.5379   21.1062 C   0  0  0  0  0  0  0  0  0  0  0  0
  -20.4466  -25.5739   21.8116 C   0  0  0  0  0  0  0  0  0  0  0  0
  -25.4882  -25.8638   25.2762 C   0  0  0  0  0  0  0  0  0  0  0  0
  -31.4390  -20.0003   21.4728 C   0  0  0  0  0  0  0  0  0  0  0  0
  -29.0957  -20.5665   21.6335 C   0  0  0  0  0  0  0  0  0  0  0  0
  -31.0996  -18.7177   21.0424 C   0  0  0  0  0  0  0  0  0  0  0  0
  -28.7564  -19.2838   21.2030 C   0  0  0  0  0  0  0  0  0  0  0  0
  -23.1738   -8.8150   22.3487 C   0  0  0  0  0  0  0  0  0  0  0  0
  -23.7191   -9.9492   24.4111 C   0  0  0  0  0  0  0  0  0  0  0  0
  -26.7341  -25.2467   25.1728 C   0  0  0  0  0  0  0  0  0  0  0  0
  -24.3015   -6.1234   24.0540 C   0  0  0  0  0  0  0  0  0  0  0  0
  -24.6318   -4.8279   23.6565 C   0  0  0  0  0  0  0  0  0  0  0  0
  -27.6045  -27.2036   24.0628 C   0  0  0  0  0  0  0  0  0  0  0  0
  -22.2954   -4.3517   23.2670 C   0  0  0  0  0  0  0  0  0  0  0  0
  -24.2641  -10.9702   22.2903 C   0  0  0  0  0  0  0  0  0  0  0  0
  -24.1591  -13.2156   21.0842 C   0  0  0  0  0  0  0  0  0  0  0  0
  -19.0650  -27.3345   20.8740 C   0  0  0  0  0  0  0  0  0  0  0  0
  -25.2878  -27.1533   24.7631 C   0  0  0  0  0  0  0  0  0  0  0  0
  -20.3385  -26.8443   21.2207 C   0  0  0  0  0  0  0  0  0  0  0  0
  -26.3557  -27.8359   24.1632 C   0  0  0  0  0  0  0  0  0  0  0  0
  -30.4370  -20.9247   21.7684 C   0  0  0  0  0  0  0  0  0  0  0  0
  -29.7583  -18.3595   20.9074 C   0  0  0  0  0  0  0  0  0  0  0  0
  -23.1739   -8.8528   23.7430 C   0  0  0  0  0  0  0  0  0  0  0  0
  -27.7917  -25.9155   24.5635 C   0  0  0  0  0  0  0  0  0  0  0  0
  -22.9681   -6.5331   24.0580 C   0  0  0  0  0  0  0  0  0  0  0  0
  -23.6288   -3.9420   23.2630 C   0  0  0  0  0  0  0  0  0  0  0  0
  -21.9651   -5.6473   23.6645 C   0  0  0  0  0  0  0  0  0  0  0  0
  -24.8278  -12.0639   21.5406 C   0  0  0  0  0  0  0  0  0  0  0  0
  -25.1274  -13.9388   20.4315 C   0  0  0  0  0  0  0  0  0  0  0  0
  -22.7857  -13.5977   21.2367 C   0  0  0  0  0  0  0  0  0  0  0  0
  -23.4280  -28.4073   22.5109 C   0  0  0  0  0  0  0  0  0  0  0  0
  -24.6307  -31.2066   23.6244 C   0  0  0  0  0  0  0  0  0  0  0  0
  -29.9171  -23.2650   22.5409 C   0  0  0  0  0  0  0  0  0  0  0  0
  -27.1510  -32.8340   25.2511 C   0  0  0  0  0  0  0  0  0  0  0  0
  -30.2835  -16.0196   20.1357 C   0  0  0  0  0  0  0  0  0  0  0  0
  -18.8866  -28.6692   20.1947 C   0  0  0  0  0  0  0  0  0  0  0  0
  -23.9449  -27.8155   24.9064 C   0  0  0  0  0  0  0  0  0  0  0  0
  -26.1980  -29.2296   23.6145 C   0  0  0  0  0  0  0  0  0  0  0  0
  -20.1008  -29.5855   20.3239 C   0  0  0  0  0  0  0  0  0  0  0  0
  -29.8265  -12.6588   19.0525 C   0  0  0  0  0  0  0  0  0  0  0  0
  -21.3830  -28.8193   20.0148 C   0  0  0  0  0  0  0  0  0  0  0  0
  -28.4303  -12.2992   19.5657 C   0  0  0  0  0  0  0  0  0  0  0  0
  -30.5787  -13.5543   20.0353 C   0  0  0  0  0  0  0  0  0  0  0  0
  -28.4610  -14.4045   20.9635 C   0  0  0  0  0  0  0  0  0  0  0  0
  -21.5900  -27.6675   21.0058 C   0  0  1  0  0  0  0  0  0  0  0  0
  -23.7167  -28.9299   23.8898 C   0  0  1  0  0  0  0  0  0  0  0  0
  -27.6402  -13.5567   19.9780 C   0  0  2  0  0  0  0  0  0  0  0  0
  -27.8708  -35.1264   25.9754 C   0  0  0  0  0  0  0  0  0  0  0  0
  -25.4357  -31.8581   20.7543 C   0  0  0  0  0  0  0  0  0  0  0  0
  -26.9465  -33.6392   21.6561 C   0  0  0  0  0  0  0  0  0  0  0  0
  -24.4851  -33.7850   22.0341 C   0  0  0  0  0  0  0  0  0  0  0  0
  -27.1326  -32.0636   28.1085 C   0  0  0  0  0  0  0  0  0  0  0  0
  -30.7058  -24.5000   22.9613 C   0  0  0  0  0  0  0  0  0  0  0  0
  -29.8179  -25.6751   23.3417 C   0  0  0  0  0  0  0  0  0  1  0  0
  -25.8330  -32.0590   23.2975 C   0  0  1  0  0  0  0  0  0  0  0  0
  -27.1306  -33.8583   26.3713 C   0  0  2  0  0  0  0  0  0  0  0  0
  -25.6778  -32.8083   21.9440 C   0  0  0  0  0  0  0  0  0  0  0  0
  -26.1208  -12.0518   21.2060 N   0  0  0  0  0  0  0  0  0  0  0  0
  -26.2724  -13.2047   20.5323 N   0  0  0  0  0  0  0  0  0  0  0  0
  -24.8640  -29.8321   23.7730 N   0  0  0  0  0  0  0  0  0  0  0  0
  -29.7712  -14.7273   20.3769 N   0  0  0  0  0  0  0  0  0  0  0  0
  -25.1024  -15.1246   19.7868 N   0  0  0  0  0  0  0  0  0  0  0  0
  -21.9268  -12.7384   21.9355 N   0  0  0  0  0  0  0  0  0  0  0  0
  -30.7811  -22.2260   22.2056 N   0  0  0  0  0  0  0  0  0  0  0  0
  -29.4132  -17.0566   20.4702 N   0  0  0  0  0  0  0  0  0  0  0  0
  -22.0885  -28.1703   22.2681 N   0  0  0  0  0  0  0  0  0  0  0  0
  -26.0363  -32.9356   24.4459 N   0  0  0  0  0  0  0  0  0  0  0  0
  -27.7742  -33.3010   27.5945 N   0  3  0  0  0  0  0  0  0  0  0  0
  -22.3296  -14.6615   20.7531 O   0  0  0  0  0  0  0  0  0  0  0  0
  -24.3520  -28.2336   21.7249 O   0  0  0  0  0  0  0  0  0  0  0  0
  -23.5264  -31.7417   23.7506 O   0  0  0  0  0  0  0  0  0  0  0  0
  -28.6909  -23.2493   22.5204 O   0  0  0  0  0  0  0  0  0  0  0  0
  -28.0663  -32.0273   25.1028 O   0  0  0  0  0  0  0  0  0  0  0  0
  -31.4005  -16.1930   19.6416 O   0  0  0  0  0  0  0  0  0  0  0  0
  -22.6419   -7.8200   24.4521 O   0  0  0  0  0  0  0  0  0  0  0  0
  -29.0087  -25.3153   24.4607 O   0  0  0  0  0  0  0  0  0  1  0  0
  -23.9463   -2.6984   22.8799 F   0  0  0  0  0  0  0  0  0  0  0  0
  -20.6825   -6.0355   23.6652 F   0  0  0  0  0  0  0  0  0  0  0  0
  1  2  1  0  0  0  0
  1  5  2  0  0  0  0
  2  6  2  0  0  0  0
  3 12  2  0  0  0  0
  3 19  1  0  0  0  0
  4 13  1  0  0  0  0
  4 19  2  0  0  0  0
  5 21  1  0  0  0  0
  6 23  1  0  0  0  0
  7 14  2  0  0  0  0
  7 22  1  0  0  0  0
  8 10  2  0  0  0  0
  8 25  1  0  0  0  0
  9 11  1  0  0  0  0
  9 25  2  0  0  0  0
 10 26  1  0  0  0  0
 11 26  2  0  0  0  0
 12 27  1  0  0  0  0
 13 27  2  0  0  0  0
 14 28  1  0  0  0  0
 15 16  2  0  0  0  0
 15 29  1  0  0  0  0
 16 30  1  0  0  0  0
 17 24  1  0  0  0  0
 17 28  2  0  0  0  0
 18 30  2  0  0  0  0
 18 31  1  0  0  0  0
 19 32  1  0  0  0  0
 20 32  1  0  0  0  0
 20 33  2  0  0  0  0
 20 34  1  0  0  0  0
 21 23  2  0  0  0  0
 21 40  1  0  0  0  0
 22 24  2  0  0  0  0
 22 41  1  0  0  0  0
 23 49  1  0  0  0  0
 24 42  1  0  0  0  0
 25 68  1  0  0  0  0
 26 69  1  0  0  0  0
 27 79  1  0  0  0  0
 28 80  1  0  0  0  0
 29 31  2  0  0  0  0
 29 79  1  0  0  0  0
 30 81  1  0  0  0  0
 31 82  1  0  0  0  0
 32 62  2  0  0  0  0
 33 63  1  0  0  0  0
 33 66  1  0  0  0  0
 34 67  1  0  0  0  0
 34 73  2  0  0  0  0
 35 50  1  0  0  0  0
 35 70  1  0  0  0  0
 35 74  2  0  0  0  0
 36 59  1  0  0  0  0
 36 64  1  0  0  0  0
 36 75  2  0  0  0  0
 37 57  1  0  0  0  0
 37 68  1  0  0  0  0
 37 76  2  0  0  0  0
 38 60  1  0  0  0  0
 38 71  1  0  0  0  0
 38 77  2  0  0  0  0
 39 65  1  0  0  0  0
 39 69  1  0  0  0  0
 39 78  2  0  0  0  0
 40 43  1  0  0  0  0
 41 50  1  0  0  0  0
 42 64  1  0  0  0  0
 43 45  1  0  0  0  0
 44 46  1  0  0  0  0
 44 47  1  0  0  0  0
 45 49  1  0  0  0  0
 46 51  1  0  0  0  0
 47 65  1  0  0  0  0
 48 51  1  0  0  0  0
 48 65  1  0  0  0  0
 49 70  1  0  0  0  0
 50 64  1  0  0  0  0
 51 63  1  0  0  0  0
 52 60  1  0  0  0  0
 53 61  1  0  0  0  0
 54 61  1  0  0  0  0
 55 61  1  0  0  0  0
 56 72  1  0  0  0  0
 57 58  1  0  0  0  0
 58 80  1  0  0  0  0
 59 61  1  0  0  0  0
 59 71  1  0  0  0  0
 60 72  1  0  0  0  0
 62 63  1  0  0  0  0
M  CHG  1  72   1
M  ISO  4  39 100  58 101  69 100  80 101
M  END
> <Batch ID>
0005

> <Smiles>
CNC(C)C(=O)NC(C(=O)N1Cc2cc([101O:1][101CH2:1]CC(=O)Nc3ccc([100NH:0][100C:0](=O)N4CCCC(n5nc(-c6ccc(Oc7ccc(F)cc7F)cc6)c(C(N)=O)c5N)C4)cc3)ccc2CC1C(=O)NC1CCCc2ccccc21)C(C)(C)C

> <Shape>
0.282

> <Color>
0.134

> <Negative vol penalty>
0.000

$$$$

  -OEChem-04052315263D

 84 91  0     1  0  0  0  0  0999 V2000
  -24.7153  -34.9745   19.6834 C   0  0  0  0  0  0  0  0  0  0  0  0
  -25.4761  -33.8387   19.9416 C   0  0  0  0  0  0  0  0  0  0  0  0
  -27.3602  -13.6688   22.4838 C   0  0  0  0  0  0  0  0  0  0  0  0
  -26.9153  -13.1044   20.1771 C   0  0  0  0  0  0  0  0  0  0  0  0
  -23.4796  -35.1411   20.3073 C   0  0  0  0  0  0  0  0  0  0  0  0
  -25.0021  -32.8694   20.8249 C   0  0  0  0  0  0  0  0  0  0  0  0
  -25.6167  -28.1637   19.0575 C   0  0  0  0  0  0  0  0  0  0  0  0
  -26.7930  -12.4605   22.8888 C   0  0  0  0  0  0  0  0  0  0  0  0
  -26.3482  -11.8961   20.5821 C   0  0  0  0  0  0  0  0  0  0  0  0
  -26.8936  -27.6113   19.1478 C   0  0  0  0  0  0  0  0  0  0  0  0
  -24.4583   -8.8241   21.0304 C   0  0  0  0  0  0  0  0  0  0  0  0
  -23.2534   -8.4432   20.4398 C   0  0  0  0  0  0  0  0  0  0  0  0
  -26.2187  -26.3881   21.1144 C   0  0  0  0  0  0  0  0  0  0  0  0
  -22.2054  -10.4498   21.2838 C   0  0  0  0  0  0  0  0  0  0  0  0
  -27.4213  -13.9907   21.1279 C   0  0  0  0  0  0  0  0  0  0  0  0
  -29.3561  -15.4803   20.3894 C   0  0  0  0  0  0  0  0  0  0  0  0
  -22.9859  -34.1687   21.1912 C   0  0  0  0  0  0  0  0  0  0  0  0
  -24.6328  -27.8403   20.0028 C   0  0  0  0  0  0  0  0  0  0  0  0
  -23.7592  -33.0238   21.4623 C   0  0  0  0  0  0  0  0  0  0  0  0
  -24.9293  -26.9357   21.0323 C   0  0  0  0  0  0  0  0  0  0  0  0
  -26.2871  -11.5742   21.9380 C   0  0  0  0  0  0  0  0  0  0  0  0
  -27.1956  -26.7256   20.1781 C   0  0  0  0  0  0  0  0  0  0  0  0
  -24.5367  -10.0178   21.7478 C   0  0  0  0  0  0  0  0  0  0  0  0
  -22.1270   -9.2560   20.5665 C   0  0  0  0  0  0  0  0  0  0  0  0
  -23.4103  -10.8306   21.8745 C   0  0  0  0  0  0  0  0  0  0  0  0
  -28.0065  -15.2390   20.7089 C   0  0  0  0  0  0  0  0  0  0  0  0
  -29.3970  -16.8118   20.0548 C   0  0  0  0  0  0  0  0  0  0  0  0
  -30.4729  -14.5812   20.3945 C   0  0  0  0  0  0  0  0  0  0  0  0
  -22.9534  -29.4828   22.1442 C   0  0  0  0  0  0  0  0  0  0  0  0
  -21.4291  -26.6479   22.5469 C   0  0  0  0  0  0  0  0  0  0  0  0
  -30.0785  -24.7898   19.1634 C   0  0  0  0  0  0  0  0  0  0  0  0
  -21.5179  -23.2469   22.2785 C   0  0  0  0  0  0  0  0  0  0  0  0
  -25.2715  -20.6231   17.9799 C   0  0  0  0  0  0  0  0  0  0  0  0
  -21.6660  -34.4153   21.8781 C   0  0  0  0  0  0  0  0  0  0  0  0
  -23.2523  -28.4240   19.8758 C   0  0  0  0  0  0  0  0  0  0  0  0
  -23.9024  -26.5402   22.0606 C   0  0  0  0  0  0  0  0  0  0  0  0
  -21.0664  -33.1631   22.5128 C   0  0  0  0  0  0  0  0  0  0  0  0
  -27.2017  -20.9671   20.9519 C   0  0  0  0  0  0  0  0  0  0  0  0
  -22.1270  -32.4066   23.3063 C   0  0  0  0  0  0  0  0  0  0  0  0
  -27.7486  -19.5598   21.1978 C   0  0  0  0  0  0  0  0  0  0  0  0
  -25.7847  -20.9306   20.3838 C   0  0  0  0  0  0  0  0  0  0  0  0
  -26.1706  -18.6956   19.4196 C   0  0  0  0  0  0  0  0  0  0  0  0
  -23.2680  -31.9382   22.3951 C   0  0  1  0  0  0  0  0  0  0  0  0
  -22.4796  -28.4222   21.1912 C   0  0  1  0  0  0  0  0  0  0  0  0
  -27.6181  -18.6799   19.9401 C   0  0  2  0  0  0  0  0  0  0  0  0
  -20.1366  -21.1992   22.7215 C   0  0  0  0  0  0  0  0  0  0  0  0
  -22.0270  -26.8927   25.5289 C   0  0  0  0  0  0  0  0  0  0  0  0
  -21.4972  -24.4570   25.7640 C   0  0  0  0  0  0  0  0  0  0  0  0
  -19.7364  -26.0457   24.9903 C   0  0  0  0  0  0  0  0  0  0  0  0
  -21.5152  -22.4882   19.4179 C   0  0  0  0  0  0  0  0  0  0  0  0
  -29.1653  -25.9930   19.0646 C   0  0  0  0  0  0  0  0  0  1  0  0
  -28.9452  -21.4069   14.1117 C   0  0  0  0  0  0  0  0  0  0  0  0
  -29.6613  -21.1741   15.4436 C   0  0  0  0  0  0  0  0  0  0  0  0
  -28.1950  -20.1741   13.5983 C   0  0  0  0  0  0  0  0  0  0  0  0
  -30.3659  -22.4456   15.9235 C   0  0  0  0  0  0  0  0  0  0  0  0
  -27.0578  -19.6650   14.4901 C   0  0  0  0  0  0  0  0  0  0  0  0
  -31.0499  -22.2244   17.2759 C   0  0  0  0  0  0  0  0  0  0  0  0
  -25.9621  -20.7077   14.7331 C   0  0  0  0  0  0  0  0  0  0  0  0
  -31.7115  -23.4909   17.8099 C   0  0  0  0  0  0  0  0  0  0  0  0
  -24.8181  -20.1637   15.5836 C   0  0  0  0  0  0  0  0  0  0  0  0
  -21.6322  -25.4410   23.4307 C   0  0  1  0  0  0  0  0  0  0  0  0
  -20.5247  -22.2559   21.6990 C   0  0  2  0  0  0  0  0  0  0  0  0
  -21.2433  -25.7178   24.9104 C   0  0  0  0  0  0  0  0  0  0  0  0
  -27.2451  -16.3297   20.5883 N   0  0  0  0  0  0  0  0  0  0  0  0
  -28.1192  -17.2693   20.1894 N   0  0  0  0  0  0  0  0  0  0  0  0
  -22.5690  -27.1426   21.8975 N   0  0  0  0  0  0  0  0  0  0  0  0
  -25.7296  -20.0807   19.1919 N   0  0  0  0  0  0  0  0  0  0  0  0
  -30.4009  -17.6241   19.6617 N   0  0  0  0  0  0  0  0  0  0  0  0
  -30.2548  -13.2469   20.7638 N   0  0  0  0  0  0  0  0  0  0  0  0
  -22.8669  -30.7680   21.6439 N   0  0  0  0  0  0  0  0  0  0  0  0
  -30.7783  -24.5703   17.9825 N   0  0  0  0  0  0  0  0  0  0  0  0
  -20.8864  -24.3510   22.8108 N   0  0  0  0  0  0  0  0  0  0  0  0
  -25.2571  -19.7513   16.8980 N   0  0  0  0  0  0  0  0  0  0  0  0
  -21.1100  -21.5695   20.5127 N   0  3  0  0  0  0  0  0  0  0  0  0
  -31.6330  -14.9540   20.0966 O   0  0  0  0  0  0  0  0  0  0  0  0
  -23.3656  -29.1592   23.2520 O   0  0  0  0  0  0  0  0  0  0  0  0
  -20.2994  -27.1295   22.4312 O   0  0  0  0  0  0  0  0  0  0  0  0
  -30.1689  -24.1060   20.1794 O   0  0  0  0  0  0  0  0  0  0  0  0
  -22.7324  -23.0585   22.2641 O   0  0  0  0  0  0  0  0  0  0  0  0
  -24.9076  -21.7987   17.8689 O   0  0  0  0  0  0  0  0  0  0  0  0
  -25.7338  -10.3949   22.3329 O   0  0  0  0  0  0  0  0  0  0  0  0
  -28.4543  -26.1799   20.2700 O   0  0  0  0  0  0  0  0  0  1  0  0
  -20.9704   -8.8909   19.9980 F   0  0  0  0  0  0  0  0  0  0  0  0
  -23.4798  -11.9791   22.5614 F   0  0  0  0  0  0  0  0  0  0  0  0
  1  2  1  0  0  0  0
  1  5  2  0  0  0  0
  2  6  2  0  0  0  0
  3  8  2  0  0  0  0
  3 15  1  0  0  0  0
  4  9  1  0  0  0  0
  4 15  2  0  0  0  0
  5 17  1  0  0  0  0
  6 19  1  0  0  0  0
  7 10  2  0  0  0  0
  7 18  1  0  0  0  0
  8 21  1  0  0  0  0
  9 21  2  0  0  0  0
 10 22  1  0  0  0  0
 11 12  2  0  0  0  0
 11 23  1  0  0  0  0
 12 24  1  0  0  0  0
 13 20  1  0  0  0  0
 13 22  2  0  0  0  0
 14 24  2  0  0  0  0
 14 25  1  0  0  0  0
 15 26  1  0  0  0  0
 16 26  1  0  0  0  0
 16 27  2  0  0  0  0
 16 28  1  0  0  0  0
 17 19  2  0  0  0  0
 17 34  1  0  0  0  0
 18 20  2  0  0  0  0
 18 35  1  0  0  0  0
 19 43  1  0  0  0  0
 20 36  1  0  0  0  0
 21 81  1  0  0  0  0
 22 82  1  0  0  0  0
 23 25  2  0  0  0  0
 23 81  1  0  0  0  0
 24 83  1  0  0  0  0
 25 84  1  0  0  0  0
 26 64  2  0  0  0  0
 27 65  1  0  0  0  0
 27 68  1  0  0  0  0
 28 69  1  0  0  0  0
 28 75  2  0  0  0  0
 29 44  1  0  0  0  0
 29 70  1  0  0  0  0
 29 76  2  0  0  0  0
 30 61  1  0  0  0  0
 30 66  1  0  0  0  0
 30 77  2  0  0  0  0
 31 51  1  0  0  0  0
 31 71  1  0  0  0  0
 31 78  2  0  0  0  0
 32 62  1  0  0  0  0
 32 72  1  0  0  0  0
 32 79  2  0  0  0  0
 33 67  1  0  0  0  0
 33 73  1  0  0  0  0
 33 80  2  0  0  0  0
 34 37  1  0  0  0  0
 35 44  1  0  0  0  0
 36 66  1  0  0  0  0
 37 39  1  0  0  0  0
 38 40  1  0  0  0  0
 38 41  1  0  0  0  0
 39 43  1  0  0  0  0
 40 45  1  0  0  0  0
 41 67  1  0  0  0  0
 42 45  1  0  0  0  0
 42 67  1  0  0  0  0
 43 70  1  0  0  0  0
 44 66  1  0  0  0  0
 45 65  1  0  0  0  0
 46 62  1  0  0  0  0
 47 63  1  0  0  0  0
 48 63  1  0  0  0  0
 49 63  1  0  0  0  0
 50 74  1  0  0  0  0
 51 82  1  0  0  0  0
 52 53  1  0  0  0  0
 52 54  1  0  0  0  0
 53 55  1  0  0  0  0
 54 56  1  0  0  0  0
 55 57  1  0  0  0  0
 56 58  1  0  0  0  0
 57 59  1  0  0  0  0
 58 60  1  0  0  0  0
 59 71  1  0  0  0  0
 60 73  1  0  0  0  0
 61 63  1  0  0  0  0
 61 72  1  0  0  0  0
 62 74  1  0  0  0  0
 64 65  1  0  0  0  0
M  CHG  1  74   1
M  ISO  4  33 100  51 101  73 100  82 101
M  END
> <Batch ID>
0005

> <Smiles>
CNC(C)C(=O)NC(C(=O)N1Cc2cc([101O:1][101CH2:1]C(=O)NCCCCCCCCC[100NH:0][100C:0](=O)N3CCCC(n4nc(-c5ccc(Oc6ccc(F)cc6F)cc5)c(C(N)=O)c4N)C3)ccc2CC1C(=O)NC1CCCc2ccccc21)C(C)(C)C

> <Shape>
0.219

> <Color>
0.095

> <Negative vol penalty>
0.000

$$$$

  -OEChem-04052315263D

 83 91  0     1  0  0  0  0  0999 V2000
  -21.6939  -11.7555   19.9187 C   0  0  0  0  0  0  0  0  0  0  0  0
  -21.4853  -13.0452   20.3967 C   0  0  0  0  0  0  0  0  0  0  0  0
  -27.3406  -28.5473   24.7735 C   0  0  0  0  0  0  0  0  0  0  0  0
  -21.2521  -24.5268   19.5946 C   0  0  0  0  0  0  0  0  0  0  0  0
  -21.8878  -25.3735   17.4230 C   0  0  0  0  0  0  0  0  0  0  0  0
  -22.9823  -11.2234   19.8913 C   0  0  0  0  0  0  0  0  0  0  0  0
  -22.5650  -13.8032   20.8486 C   0  0  0  0  0  0  0  0  0  0  0  0
  -23.2821  -19.8632   20.3306 C   0  0  0  0  0  0  0  0  0  0  0  0
  -27.1160  -27.2911   25.3368 C   0  0  0  0  0  0  0  0  0  0  0  0
  -26.2667  -29.4015   24.5231 C   0  0  0  0  0  0  0  0  0  0  0  0
  -20.0800  -24.0044   19.0479 C   0  0  0  0  0  0  0  0  0  0  0  0
  -20.7158  -24.8510   16.8762 C   0  0  0  0  0  0  0  0  0  0  0  0
  -23.0597  -20.9135   21.2201 C   0  0  0  0  0  0  0  0  0  0  0  0
  -17.0936  -22.1350   18.1526 C   0  0  0  0  0  0  0  0  0  0  0  0
  -16.7320  -20.8371   18.5134 C   0  0  0  0  0  0  0  0  0  0  0  0
  -25.3906  -20.8737   21.8403 C   0  0  0  0  0  0  0  0  0  0  0  0
  -24.7435  -27.7434   25.3991 C   0  0  0  0  0  0  0  0  0  0  0  0
  -18.8043  -20.0038   17.5925 C   0  0  0  0  0  0  0  0  0  0  0  0
  -22.1560  -25.2114   18.7822 C   0  0  0  0  0  0  0  0  0  0  0  0
  -24.6131  -25.1074   19.4600 C   0  0  0  0  0  0  0  0  0  0  0  0
  -24.0796  -11.9787   20.3340 C   0  0  0  0  0  0  0  0  0  0  0  0
  -24.5603  -19.3021   20.1970 C   0  0  0  0  0  0  0  0  0  0  0  0
  -23.8691  -13.2802   20.8283 C   0  0  0  0  0  0  0  0  0  0  0  0
  -25.6271  -19.8181   20.9466 C   0  0  0  0  0  0  0  0  0  0  0  0
  -25.8174  -26.8892   25.6496 C   0  0  0  0  0  0  0  0  0  0  0  0
  -24.9681  -28.9995   24.8359 C   0  0  0  0  0  0  0  0  0  0  0  0
  -19.8119  -24.1665   17.6887 C   0  0  0  0  0  0  0  0  0  0  0  0
  -24.1134  -21.4170   21.9773 C   0  0  0  0  0  0  0  0  0  0  0  0
  -18.3105  -22.3674   17.5116 C   0  0  0  0  0  0  0  0  0  0  0  0
  -17.5874  -19.7715   18.2334 C   0  0  0  0  0  0  0  0  0  0  0  0
  -19.1659  -21.3017   17.2316 C   0  0  0  0  0  0  0  0  0  0  0  0
  -23.3666  -25.7518   19.3465 C   0  0  0  0  0  0  0  0  0  0  0  0
  -25.4269  -26.0372   20.0598 C   0  0  0  0  0  0  0  0  0  0  0  0
  -25.0007  -23.7866   19.0590 C   0  0  0  0  0  0  0  0  0  0  0  0
  -25.8092  -16.4221   20.6967 C   0  0  0  0  0  0  0  0  0  0  0  0
  -28.4512  -17.7681   19.3812 C   0  0  0  0  0  0  0  0  0  0  0  0
  -24.6174  -24.0219   24.5322 C   0  0  0  0  0  0  0  0  0  0  0  0
  -30.2173  -20.6043   18.6861 C   0  0  0  0  0  0  0  0  0  0  0  0
  -23.8481  -30.8257   23.5314 C   0  0  0  0  0  0  0  0  0  0  0  0
  -25.4475  -11.3436   20.3293 C   0  0  0  0  0  0  0  0  0  0  0  0
  -24.7893  -18.1873   19.2135 C   0  0  0  0  0  0  0  0  0  0  0  0
  -27.0225  -19.2643   20.8253 C   0  0  0  0  0  0  0  0  0  0  0  0
  -26.5865  -12.3491   20.4767 C   0  0  0  0  0  0  0  0  0  0  0  0
  -26.0384  -30.7525   20.5497 C   0  0  0  0  0  0  0  0  0  0  0  0
  -26.2866  -13.3343   21.6020 C   0  0  0  0  0  0  0  0  0  0  0  0
  -25.6427  -29.4429   19.8701 C   0  0  0  0  0  0  0  0  0  0  0  0
  -24.8819  -31.3496   21.3457 C   0  0  0  0  0  0  0  0  0  0  0  0
  -23.9047  -29.0954   21.6702 C   0  0  0  0  0  0  0  0  0  0  0  0
  -25.0180  -14.1426   21.3041 C   0  0  1  0  0  0  0  0  0  0  0  0
  -26.0239  -17.3509   19.5353 C   0  0  1  0  0  0  0  0  0  0  0  0
  -25.0648  -28.4530   20.8949 C   0  0  1  0  0  0  0  0  0  0  0  0
  -32.3587  -21.3836   17.6350 C   0  0  0  0  0  0  0  0  0  0  0  0
  -29.9925  -16.8568   21.8518 C   0  0  0  0  0  0  0  0  0  0  0  0
  -31.8202  -18.4435   21.2110 C   0  0  0  0  0  0  0  0  0  0  0  0
  -31.2159  -16.5603   19.6908 C   0  0  0  0  0  0  0  0  0  0  0  0
  -22.8131  -29.9854   25.5940 C   0  0  0  0  0  0  0  0  0  0  0  0
  -28.7743  -22.1816   16.6394 C   0  0  0  0  0  0  0  0  0  0  0  0
  -25.5762  -25.5370   26.2558 C   0  0  0  0  0  0  0  0  0  0  0  0
  -25.0238  -22.9084   23.5907 C   0  0  0  0  0  0  0  0  0  1  0  0
  -29.6426  -18.5267   19.9140 C   0  0  1  0  0  0  0  0  0  0  0  0
  -30.8836  -21.0890   17.4111 C   0  0  2  0  0  0  0  0  0  0  0  0
  -30.6412  -17.6062   20.6708 C   0  0  0  0  0  0  0  0  0  0  0  0
  -23.3823  -26.9948   19.8352 N   0  0  0  0  0  0  0  0  0  0  0  0
  -24.6486  -27.1389   20.2616 N   0  0  0  0  0  0  0  0  0  0  0  0
  -27.1944  -18.1706   19.8548 N   0  0  0  0  0  0  0  0  0  0  0  0
  -24.3030  -30.3773   22.2743 N   0  0  0  0  0  0  0  0  0  0  0  0
  -26.7251  -26.0116   20.4291 N   0  0  0  0  0  0  0  0  0  0  0  0
  -24.0402  -22.9622   18.4573 N   0  0  0  0  0  0  0  0  0  0  0  0
  -25.2987  -15.1877   20.3431 N   0  0  0  0  0  0  0  0  0  0  0  0
  -25.6918  -24.4784   25.2796 N   0  0  0  0  0  0  0  0  0  0  0  0
  -30.2229  -19.2283   18.7740 N   0  0  0  0  0  0  0  0  0  0  0  0
  -23.8579  -29.8834   24.5774 N   0  0  0  0  0  0  0  0  0  0  0  0
  -30.2246  -22.3333   16.9229 N   0  3  0  0  0  0  0  0  0  0  0  0
  -26.1599  -23.3445   19.2442 O   0  0  0  0  0  0  0  0  0  0  0  0
  -26.0875  -16.7971   21.8297 O   0  0  0  0  0  0  0  0  0  0  0  0
  -28.6285  -16.8567   18.5690 O   0  0  0  0  0  0  0  0  0  0  0  0
  -23.4671  -24.4457   24.6027 O   0  0  0  0  0  0  0  0  0  0  0  0
  -29.7429  -21.3700   19.5222 O   0  0  0  0  0  0  0  0  0  0  0  0
  -23.4105  -31.9708   23.6986 O   0  0  0  0  0  0  0  0  0  0  0  0
  -18.6684  -23.6566   17.1547 O   0  0  0  0  0  0  0  0  0  0  0  0
  -23.8990  -22.4417   22.8467 O   0  0  0  0  0  0  0  0  0  1  0  0
  -17.2407  -18.5253   18.5814 F   0  0  0  0  0  0  0  0  0  0  0  0
  -20.3368  -21.5188   16.6172 F   0  0  0  0  0  0  0  0  0  0  0  0
  1  2  1  0  0  0  0
  1  6  2  0  0  0  0
  2  7  2  0  0  0  0
  3  9  2  0  0  0  0
  3 10  1  0  0  0  0
  4 11  2  0  0  0  0
  4 19  1  0  0  0  0
  5 12  1  0  0  0  0
  5 19  2  0  0  0  0
  6 21  1  0  0  0  0
  7 23  1  0  0  0  0
  8 13  2  0  0  0  0
  8 22  1  0  0  0  0
  9 25  1  0  0  0  0
 10 26  2  0  0  0  0
 11 27  1  0  0  0  0
 12 27  2  0  0  0  0
 13 28  1  0  0  0  0
 14 15  2  0  0  0  0
 14 29  1  0  0  0  0
 15 30  1  0  0  0  0
 16 24  1  0  0  0  0
 16 28  2  0  0  0  0
 17 25  2  0  0  0  0
 17 26  1  0  0  0  0
 18 30  2  0  0  0  0
 18 31  1  0  0  0  0
 19 32  1  0  0  0  0
 20 32  1  0  0  0  0
 20 33  2  0  0  0  0
 20 34  1  0  0  0  0
 21 23  2  0  0  0  0
 21 40  1  0  0  0  0
 22 24  2  0  0  0  0
 22 41  1  0  0  0  0
 23 49  1  0  0  0  0
 24 42  1  0  0  0  0
 25 58  1  0  0  0  0
 26 72  1  0  0  0  0
 27 80  1  0  0  0  0
 28 81  1  0  0  0  0
 29 31  2  0  0  0  0
 29 80  1  0  0  0  0
 30 82  1  0  0  0  0
 31 83  1  0  0  0  0
 32 63  2  0  0  0  0
 33 64  1  0  0  0  0
 33 67  1  0  0  0  0
 34 68  1  0  0  0  0
 34 74  2  0  0  0  0
 35 50  1  0  0  0  0
 35 69  1  0  0  0  0
 35 75  2  0  0  0  0
 36 60  1  0  0  0  0
 36 65  1  0  0  0  0
 36 76  2  0  0  0  0
 37 59  1  0  0  0  0
 37 70  1  0  0  0  0
 37 77  2  0  0  0  0
 38 61  1  0  0  0  0
 38 71  1  0  0  0  0
 38 78  2  0  0  0  0
 39 66  1  0  0  0  0
 39 72  1  0  0  0  0
 39 79  2  0  0  0  0
 40 43  1  0  0  0  0
 41 50  1  0  0  0  0
 42 65  1  0  0  0  0
 43 45  1  0  0  0  0
 44 46  1  0  0  0  0
 44 47  1  0  0  0  0
 45 49  1  0  0  0  0
 46 51  1  0  0  0  0
 47 66  1  0  0  0  0
 48 51  1  0  0  0  0
 48 66  1  0  0  0  0
 49 69  1  0  0  0  0
 50 65  1  0  0  0  0
 51 64  1  0  0  0  0
 52 61  1  0  0  0  0
 53 62  1  0  0  0  0
 54 62  1  0  0  0  0
 55 62  1  0  0  0  0
 56 72  1  0  0  0  0
 57 73  1  0  0  0  0
 58 70  1  0  0  0  0
 59 81  1  0  0  0  0
 60 62  1  0  0  0  0
 60 71  1  0  0  0  0
 61 73  1  0  0  0  0
 63 64  1  0  0  0  0
M  CHG  1  73   1
M  ISO  4  39 100  59 101  72 100  81 101
M  END
> <Batch ID>
0005

> <Smiles>
CNC(C)C(=O)NC(C(=O)N1Cc2cc([101O:1][101CH2:1]C(=O)NCc3cccc([100N:0](C)[100C:0](=O)N4CCCC(n5nc(-c6ccc(Oc7ccc(F)cc7F)cc6)c(C(N)=O)c5N)C4)c3)ccc2CC1C(=O)NC1CCCc2ccccc21)C(C)(C)C

> <Shape>
0.167

> <Color>
0.082

> <Negative vol penalty>
0.000

$$$$

  -OEChem-04052315263D

 82 90  0     1  0  0  0  0  0999 V2000
  -26.2216  -37.8107   25.7015 C   0  0  0  0  0  0  0  0  0  0  0  0
  -25.3406  -36.9856   25.0098 C   0  0  0  0  0  0  0  0  0  0  0  0
  -24.5758  -13.9825   19.1329 C   0  0  0  0  0  0  0  0  0  0  0  0
  -25.2535  -13.4558   21.3913 C   0  0  0  0  0  0  0  0  0  0  0  0
  -26.0384  -22.7803   20.0263 C   0  0  0  0  0  0  0  0  0  0  0  0
  -26.1802  -22.3674   17.6501 C   0  0  0  0  0  0  0  0  0  0  0  0
  -27.5634  -37.8657   25.3265 C   0  0  0  0  0  0  0  0  0  0  0  0
  -25.8006  -36.2158   23.9420 C   0  0  0  0  0  0  0  0  0  0  0  0
  -23.8757  -30.6292   22.3326 C   0  0  0  0  0  0  0  0  0  0  0  0
  -24.4349  -12.6223   18.8580 C   0  0  0  0  0  0  0  0  0  0  0  0
  -25.1125  -12.0956   21.1164 C   0  0  0  0  0  0  0  0  0  0  0  0
  -24.7499  -23.2883   19.8610 C   0  0  0  0  0  0  0  0  0  0  0  0
  -24.8917  -22.8754   17.4849 C   0  0  0  0  0  0  0  0  0  0  0  0
  -22.9745  -30.1907   21.3634 C   0  0  0  0  0  0  0  0  0  0  0  0
  -22.5961   -9.8533   20.8719 C   0  0  0  0  0  0  0  0  0  0  0  0
  -21.9408   -9.0667   21.8193 C   0  0  0  0  0  0  0  0  0  0  0  0
  -24.8077  -29.7978   19.8453 C   0  0  0  0  0  0  0  0  0  0  0  0
  -23.9258   -7.7119   22.0673 C   0  0  0  0  0  0  0  0  0  0  0  0
  -24.9852  -14.3993   20.3996 C   0  0  0  0  0  0  0  0  0  0  0  0
  -26.7535  -22.3199   18.9208 C   0  0  0  0  0  0  0  0  0  0  0  0
  -24.1468  -16.6775   21.1834 C   0  0  0  0  0  0  0  0  0  0  0  0
  -28.0421  -37.0889   24.2597 C   0  0  0  0  0  0  0  0  0  0  0  0
  -25.2510  -30.6657   22.0612 C   0  0  0  0  0  0  0  0  0  0  0  0
  -27.1497  -36.2615   23.5515 C   0  0  0  0  0  0  0  0  0  0  0  0
  -25.7244  -30.2348   20.8137 C   0  0  0  0  0  0  0  0  0  0  0  0
  -24.7032  -11.6788   19.8497 C   0  0  0  0  0  0  0  0  0  0  0  0
  -24.1765  -23.3359   18.5904 C   0  0  0  0  0  0  0  0  0  0  0  0
  -23.4402  -29.7776   20.1185 C   0  0  0  0  0  0  0  0  0  0  0  0
  -23.9162   -9.5691   20.5221 C   0  0  0  0  0  0  0  0  0  0  0  0
  -22.6057   -7.9960   22.4170 C   0  0  0  0  0  0  0  0  0  0  0  0
  -24.5810   -8.4985   21.1198 C   0  0  0  0  0  0  0  0  0  0  0  0
  -25.1316  -15.8042   20.6840 C   0  0  0  0  0  0  0  0  0  0  0  0
  -24.7809  -17.8922   21.2773 C   0  0  0  0  0  0  0  0  0  0  0  0
  -28.1106  -21.7862   19.0954 C   0  0  0  0  0  0  0  0  0  0  0  0
  -22.7811  -16.4142   21.5313 C   0  0  0  0  0  0  0  0  0  0  0  0
  -27.4511  -32.9560   21.9281 C   0  0  0  0  0  0  0  0  0  0  0  0
  -29.4742  -30.4509   21.5355 C   0  0  0  0  0  0  0  0  0  0  0  0
  -29.9189  -27.2118   20.5573 C   0  0  0  0  0  0  0  0  0  0  0  0
  -29.4909  -37.2176   23.8609 C   0  0  0  0  0  0  0  0  0  0  0  0
  -26.2124  -31.1161   23.1266 C   0  0  0  0  0  0  0  0  0  0  0  0
  -27.1930  -30.2355   20.4794 C   0  0  0  0  0  0  0  0  0  0  0  0
  -29.9766  -36.0873   22.9571 C   0  0  0  0  0  0  0  0  0  0  0  0
  -29.6724  -19.1091   20.8662 C   0  0  0  0  0  0  0  0  0  0  0  0
  -28.9726  -35.8298   21.8379 C   0  0  0  0  0  0  0  0  0  0  0  0
  -28.5565  -18.0717   21.0021 C   0  0  0  0  0  0  0  0  0  0  0  0
  -29.5893  -19.8553   19.5369 C   0  0  0  0  0  0  0  0  0  0  0  0
  -27.1571  -19.4420   19.4008 C   0  0  0  0  0  0  0  0  0  0  0  0
  -27.6159  -35.3927   22.4035 C   0  0  1  0  0  0  0  0  0  0  0  0
  -27.5459  -31.5976   22.5633 C   0  0  1  0  0  0  0  0  0  0  0  0
  -27.1744  -18.7026   20.7487 C   0  0  1  0  0  0  0  0  0  0  0  0
  -31.6922  -25.4527   20.3158 C   0  0  0  0  0  0  0  0  0  0  0  0
  -30.5057  -31.8393   19.0219 C   0  0  0  0  0  0  0  0  0  0  0  0
  -31.5404  -29.6668   18.3308 C   0  0  0  0  0  0  0  0  0  0  0  0
  -32.2802  -30.7853   20.4342 C   0  0  0  0  0  0  0  0  0  0  0  0
  -28.5589  -25.4128   22.4738 C   0  0  0  0  0  0  0  0  0  0  0  0
  -21.9769  -26.6083   18.4092 C   0  0  0  0  0  0  0  0  0  0  0  0
  -21.5606  -25.5286   17.4102 C   0  0  0  0  0  0  0  0  0  0  0  0
  -20.9199  -27.6943   18.6026 C   0  0  0  0  0  0  0  0  0  0  0  0
  -22.6227  -24.4609   17.1848 C   0  0  0  0  0  0  0  0  0  0  0  0
  -21.3628  -28.7283   19.6292 C   0  0  0  0  0  0  0  0  0  1  0  0
  -30.0067  -29.6824   20.3503 C   0  0  1  0  0  0  0  0  0  0  0  0
  -30.6268  -26.0463   21.2242 C   0  0  2  0  0  0  0  0  0  0  0  0
  -31.0553  -30.4951   19.5396 C   0  0  0  0  0  0  0  0  0  0  0  0
  -26.3022  -16.4124   20.4751 N   0  0  0  0  0  0  0  0  0  0  0  0
  -26.0571  -17.6810   20.8450 N   0  0  0  0  0  0  0  0  0  0  0  0
  -28.2539  -20.4188   19.3425 N   0  0  0  0  0  0  0  0  0  0  0  0
  -28.0928  -30.6906   21.5521 N   0  0  0  0  0  0  0  0  0  0  0  0
  -24.3657  -19.1098   21.6866 N   0  0  0  0  0  0  0  0  0  0  0  0
  -22.2908  -15.1107   21.3737 N   0  0  0  0  0  0  0  0  0  0  0  0
  -27.6599  -34.0031   22.8053 N   0  0  0  0  0  0  0  0  0  0  0  0
  -30.5078  -28.4171   20.8760 N   0  0  0  0  0  0  0  0  0  0  0  0
  -29.6500  -24.9739   21.5660 N   0  3  0  0  0  0  0  0  0  0  0  0
  -29.0289  -22.6013   19.0209 O   0  0  0  0  0  0  0  0  0  0  0  0
  -22.0134  -17.3120   21.9535 O   0  0  0  0  0  0  0  0  0  0  0  0
  -27.2080  -33.0473   20.7305 O   0  0  0  0  0  0  0  0  0  0  0  0
  -30.2540  -30.8186   22.4177 O   0  0  0  0  0  0  0  0  0  0  0  0
  -28.9435  -27.0671   19.8237 O   0  0  0  0  0  0  0  0  0  0  0  0
  -24.5655  -10.3515   19.5819 O   0  0  0  0  0  0  0  0  0  0  0  0
  -22.9104  -23.8341   18.4283 O   0  0  0  0  0  0  0  0  0  0  0  0
  -22.5627  -29.3497   19.1705 O   0  0  0  0  0  0  0  0  0  1  0  0
  -21.9769   -7.2417   23.3279 F   0  0  0  0  0  0  0  0  0  0  0  0
  -25.8497   -8.2214   20.7887 F   0  0  0  0  0  0  0  0  0  0  0  0
  1  2  1  0  0  0  0
  1  7  2  0  0  0  0
  2  8  2  0  0  0  0
  3 10  2  0  0  0  0
  3 19  1  0  0  0  0
  4 11  1  0  0  0  0
  4 19  2  0  0  0  0
  5 12  2  0  0  0  0
  5 20  1  0  0  0  0
  6 13  1  0  0  0  0
  6 20  2  0  0  0  0
  7 22  1  0  0  0  0
  8 24  1  0  0  0  0
  9 14  2  0  0  0  0
  9 23  1  0  0  0  0
 10 26  1  0  0  0  0
 11 26  2  0  0  0  0
 12 27  1  0  0  0  0
 13 27  2  0  0  0  0
 14 28  1  0  0  0  0
 15 16  2  0  0  0  0
 15 29  1  0  0  0  0
 16 30  1  0  0  0  0
 17 25  1  0  0  0  0
 17 28  2  0  0  0  0
 18 30  2  0  0  0  0
 18 31  1  0  0  0  0
 19 32  1  0  0  0  0
 20 34  1  0  0  0  0
 21 32  1  0  0  0  0
 21 33  2  0  0  0  0
 21 35  1  0  0  0  0
 22 24  2  0  0  0  0
 22 39  1  0  0  0  0
 23 25  2  0  0  0  0
 23 40  1  0  0  0  0
 24 48  1  0  0  0  0
 25 41  1  0  0  0  0
 26 78  1  0  0  0  0
 27 79  1  0  0  0  0
 28 80  1  0  0  0  0
 29 31  2  0  0  0  0
 29 78  1  0  0  0  0
 30 81  1  0  0  0  0
 31 82  1  0  0  0  0
 32 64  2  0  0  0  0
 33 65  1  0  0  0  0
 33 68  1  0  0  0  0
 34 66  1  0  0  0  0
 34 73  2  0  0  0  0
 35 69  1  0  0  0  0
 35 74  2  0  0  0  0
 36 49  1  0  0  0  0
 36 70  1  0  0  0  0
 36 75  2  0  0  0  0
 37 61  1  0  0  0  0
 37 67  1  0  0  0  0
 37 76  2  0  0  0  0
 38 62  1  0  0  0  0
 38 71  1  0  0  0  0
 38 77  2  0  0  0  0
 39 42  1  0  0  0  0
 40 49  1  0  0  0  0
 41 67  1  0  0  0  0
 42 44  1  0  0  0  0
 43 45  1  0  0  0  0
 43 46  1  0  0  0  0
 44 48  1  0  0  0  0
 45 50  1  0  0  0  0
 46 66  1  0  0  0  0
 47 50  1  0  0  0  0
 47 66  1  0  0  0  0
 48 70  1  0  0  0  0
 49 67  1  0  0  0  0
 50 65  1  0  0  0  0
 51 62  1  0  0  0  0
 52 63  1  0  0  0  0
 53 63  1  0  0  0  0
 54 63  1  0  0  0  0
 55 72  1  0  0  0  0
 56 57  1  0  0  0  0
 56 58  1  0  0  0  0
 57 59  1  0  0  0  0
 58 60  1  0  0  0  0
 59 79  1  0  0  0  0
 60 80  1  0  0  0  0
 61 63  1  0  0  0  0
 61 71  1  0  0  0  0
 62 72  1  0  0  0  0
 64 65  1  0  0  0  0
M  CHG  1  72   1
M  ISO  4  20 100  34 100  60 101  80 101
M  END
> <Batch ID>
0005

> <Smiles>
CNC(C)C(=O)NC(C(=O)N1Cc2cc([101O:1][101CH2:1]CCCCOc3cc[100c:0]([100C:0](=O)N4CCCC(n5nc(-c6ccc(Oc7ccc(F)cc7F)cc6)c(C(N)=O)c5N)C4)cc3)ccc2CC1C(=O)NC1CCCc2ccccc21)C(C)(C)C

> <Shape>
0.243

> <Color>
0.075

> <Negative vol penalty>
0.000

$$$$

  -OEChem-04052315263D

 91 99  0     1  0  0  0  0  0999 V2000
  -29.9315  -31.2830   25.3922 C   0  0  0  0  0  0  0  0  0  0  0  0
  -30.1242  -30.6966   24.1454 C   0  0  0  0  0  0  0  0  0  0  0  0
  -29.7327  -18.2360   16.6380 C   0  0  0  0  0  0  0  0  0  0  0  0
  -23.0316   -9.9673   19.9367 C   0  0  0  0  0  0  0  0  0  0  0  0
  -23.8318   -9.9048   22.2154 C   0  0  0  0  0  0  0  0  0  0  0  0
  -29.0228  -30.7252   26.2906 C   0  0  0  0  0  0  0  0  0  0  0  0
  -29.4091  -29.5514   23.7967 C   0  0  0  0  0  0  0  0  0  0  0  0
  -27.3400  -28.0557   18.2301 C   0  0  0  0  0  0  0  0  0  0  0  0
  -29.3450  -18.2798   17.9771 C   0  0  0  0  0  0  0  0  0  0  0  0
  -30.1177  -19.4067   15.9846 C   0  0  0  0  0  0  0  0  0  0  0  0
  -22.2705   -8.8224   20.1726 C   0  0  0  0  0  0  0  0  0  0  0  0
  -23.0707   -8.7600   22.4514 C   0  0  0  0  0  0  0  0  0  0  0  0
  -27.8382  -27.2095   17.2403 C   0  0  0  0  0  0  0  0  0  0  0  0
  -19.8391   -8.0080   23.0931 C   0  0  0  0  0  0  0  0  0  0  0  0
  -19.1023   -7.9539   24.2763 C   0  0  0  0  0  0  0  0  0  0  0  0
  -26.4135  -25.4377   18.0467 C   0  0  0  0  0  0  0  0  0  0  0  0
  -29.7270  -20.6652   18.0097 C   0  0  0  0  0  0  0  0  0  0  0  0
  -20.3195   -5.9765   24.9438 C   0  0  0  0  0  0  0  0  0  0  0  0
  -23.8123  -10.5085   20.9581 C   0  0  0  0  0  0  0  0  0  0  0  0
  -24.1999  -13.0290   20.8920 C   0  0  0  0  0  0  0  0  0  0  0  0
  -28.2891  -29.5782   25.9490 C   0  0  0  0  0  0  0  0  0  0  0  0
  -26.3813  -27.5952   19.1439 C   0  0  0  0  0  0  0  0  0  0  0  0
  -28.4907  -28.9770   24.6919 C   0  0  0  0  0  0  0  0  0  0  0  0
  -25.9029  -26.2808   19.0454 C   0  0  0  0  0  0  0  0  0  0  0  0
  -29.3421  -19.4944   18.6629 C   0  0  0  0  0  0  0  0  0  0  0  0
  -22.2900   -8.2188   21.4299 C   0  0  0  0  0  0  0  0  0  0  0  0
  -27.3771  -25.8994   17.1503 C   0  0  0  0  0  0  0  0  0  0  0  0
  -30.1148  -20.6213   16.6705 C   0  0  0  0  0  0  0  0  0  0  0  0
  -20.8161   -7.0463   22.8353 C   0  0  0  0  0  0  0  0  0  0  0  0
  -19.3426   -6.9382   25.2016 C   0  0  0  0  0  0  0  0  0  0  0  0
  -21.0563   -6.0306   23.7606 C   0  0  0  0  0  0  0  0  0  0  0  0
  -24.5992  -11.6907   20.7149 C   0  0  0  0  0  0  0  0  0  0  0  0
  -25.2995  -13.7666   20.5269 C   0  0  0  0  0  0  0  0  0  0  0  0
  -22.9470  -13.5580   21.3460 C   0  0  0  0  0  0  0  0  0  0  0  0
  -26.2857  -27.2256   22.2995 C   0  0  0  0  0  0  0  0  0  0  0  0
  -23.1823  -26.4754   21.7266 C   0  0  0  0  0  0  0  0  0  0  0  0
  -20.8341  -25.3444   19.5234 C   0  0  0  0  0  0  0  0  0  0  0  0
  -30.8041  -14.6788   20.6401 C   0  0  0  0  0  0  0  0  0  0  0  0
  -28.3314  -20.7254   20.5406 C   0  0  0  0  0  0  0  0  0  0  0  0
  -27.3529  -28.9841   26.9714 C   0  0  0  0  0  0  0  0  0  0  0  0
  -25.8343  -28.5286   20.1889 C   0  0  0  0  0  0  0  0  0  0  0  0
  -24.8594  -25.7439   19.9895 C   0  0  0  0  0  0  0  0  0  0  0  0
  -26.3598  -27.9865   26.3809 C   0  0  0  0  0  0  0  0  0  0  0  0
  -29.5794  -12.3741   18.2183 C   0  0  0  0  0  0  0  0  0  0  0  0
  -27.0725  -27.0119   25.4487 C   0  0  0  0  0  0  0  0  0  0  0  0
  -28.1445  -12.0967   18.6701 C   0  0  0  0  0  0  0  0  0  0  0  0
  -30.5216  -12.5488   19.4073 C   0  0  0  0  0  0  0  0  0  0  0  0
  -28.6589  -13.2814   20.8451 C   0  0  0  0  0  0  0  0  0  0  0  0
  -27.7156  -27.7485   24.2675 C   0  0  1  0  0  0  0  0  0  0  0  0
  -25.2374  -27.7988   21.3883 C   0  0  1  0  0  0  0  0  0  0  0  0
  -27.6609  -13.1534   19.6815 C   0  0  2  0  0  0  0  0  0  0  0  0
  -18.3898  -24.8019   19.3558 C   0  0  0  0  0  0  0  0  0  0  0  0
  -28.2186  -23.4606   23.6001 C   0  0  0  0  0  0  0  0  0  0  0  0
  -29.8023  -23.5220   21.6434 C   0  0  0  0  0  0  0  0  0  0  0  0
  -23.6535  -23.8861   23.2705 C   0  0  0  0  0  0  0  0  0  0  0  0
  -21.5384  -22.9895   22.2752 C   0  0  0  0  0  0  0  0  0  0  0  0
  -21.4668  -25.0019   23.7476 C   0  0  0  0  0  0  0  0  0  0  0  0
  -20.4093  -27.3762   17.4138 C   0  0  0  0  0  0  0  0  0  0  0  0
  -30.6587  -17.9808   21.0008 C   0  0  0  0  0  0  0  0  0  0  0  0
  -29.8350  -23.9795   15.3267 C   0  0  0  0  0  0  0  0  0  0  0  0
  -30.9326  -16.7973   21.9263 C   0  0  0  0  0  0  0  0  0  0  0  0
  -29.1817  -18.3523   20.8917 C   0  0  0  0  0  0  0  0  0  0  0  0
  -29.2024  -25.2958   15.7505 C   0  0  0  0  0  0  0  0  0  1  0  0
  -29.8912  -22.9807   16.4719 C   0  0  0  0  0  0  0  0  0  0  0  0
  -22.4291  -25.2039   21.4184 C   0  0  1  0  0  0  0  0  0  0  0  0
  -19.4560  -25.8690   19.1627 C   0  0  2  0  0  0  0  0  0  0  0  0
  -28.5133  -22.9311   22.2018 C   0  0  0  0  0  0  0  0  0  0  0  0
  -22.2931  -24.2796   22.6612 C   0  0  0  0  0  0  0  0  0  0  0  0
  -25.8544  -11.5815   20.2716 N   0  0  0  0  0  0  0  0  0  0  0  0
  -26.2533  -12.8606   20.1670 N   0  0  0  0  0  0  0  0  0  0  0  0
  -24.3602  -26.6932   20.9980 N   0  0  0  0  0  0  0  0  0  0  0  0
  -30.0064  -13.5657   20.3273 N   0  0  0  0  0  0  0  0  0  0  0  0
  -25.5338  -15.0953   20.4818 N   0  0  0  0  0  0  0  0  0  0  0  0
  -21.9241  -12.6600   21.6798 N   0  0  0  0  0  0  0  0  0  0  0  0
  -26.7136  -28.0969   23.2831 N   0  0  0  0  0  0  0  0  0  0  0  0
  -21.1557  -25.6145   20.8368 N   0  0  0  0  0  0  0  0  0  0  0  0
  -30.2376  -15.5980   21.5147 N   0  0  0  0  0  0  0  0  0  0  0  0
  -28.9543  -19.5377   20.0026 N   0  0  0  0  0  0  0  0  0  0  0  0
  -19.4262  -26.3111   17.7398 N   0  3  0  0  0  0  0  0  0  0  0  0
  -22.7352  -14.7911   21.4368 O   0  0  0  0  0  0  0  0  0  0  0  0
  -26.6763  -26.0774   22.1242 O   0  0  0  0  0  0  0  0  0  0  0  0
  -22.7380  -27.2504   22.5773 O   0  0  0  0  0  0  0  0  0  0  0  0
  -21.5519  -24.7509   18.7215 O   0  0  0  0  0  0  0  0  0  0  0  0
  -31.9350  -14.8440   20.1702 O   0  0  0  0  0  0  0  0  0  0  0  0
  -27.6414  -21.4909   19.8727 O   0  0  0  0  0  0  0  0  0  0  0  0
  -21.5472   -7.1018   21.6606 O   0  0  0  0  0  0  0  0  0  0  0  0
  -27.8621  -25.0712   16.1856 O   0  0  0  0  0  0  0  0  0  1  0  0
  -30.4928  -21.7718   16.0286 O   0  0  0  0  0  0  0  0  0  0  0  0
  -18.6360   -6.8873   26.3385 F   0  0  0  0  0  0  0  0  0  0  0  0
  -21.9944   -5.1046   23.5190 F   0  0  0  0  0  0  0  0  0  0  0  0
  -28.6380  -21.1297   22.2461 S   0  0  0  0  0  0  0  0  0  0  0  0
  1  2  1  0  0  0  0
  1  6  2  0  0  0  0
  2  7  2  0  0  0  0
  3  9  1  0  0  0  0
  3 10  2  0  0  0  0
  4 11  2  0  0  0  0
  4 19  1  0  0  0  0
  5 12  1  0  0  0  0
  5 19  2  0  0  0  0
  6 21  1  0  0  0  0
  7 23  1  0  0  0  0
  8 13  2  0  0  0  0
  8 22  1  0  0  0  0
  9 25  2  0  0  0  0
 10 28  1  0  0  0  0
 11 26  1  0  0  0  0
 12 26  2  0  0  0  0
 13 27  1  0  0  0  0
 14 15  2  0  0  0  0
 14 29  1  0  0  0  0
 15 30  1  0  0  0  0
 16 24  1  0  0  0  0
 16 27  2  0  0  0  0
 17 25  1  0  0  0  0
 17 28  2  0  0  0  0
 18 30  2  0  0  0  0
 18 31  1  0  0  0  0
 19 32  1  0  0  0  0
 20 32  1  0  0  0  0
 20 33  2  0  0  0  0
 20 34  1  0  0  0  0
 21 23  2  0  0  0  0
 21 40  1  0  0  0  0
 22 24  2  0  0  0  0
 22 41  1  0  0  0  0
 23 49  1  0  0  0  0
 24 42  1  0  0  0  0
 25 78  1  0  0  0  0
 26 86  1  0  0  0  0
 27 87  1  0  0  0  0
 28 88  1  0  0  0  0
 29 31  2  0  0  0  0
 29 86  1  0  0  0  0
 30 89  1  0  0  0  0
 31 90  1  0  0  0  0
 32 69  2  0  0  0  0
 33 70  1  0  0  0  0
 33 73  1  0  0  0  0
 34 74  1  0  0  0  0
 34 80  2  0  0  0  0
 35 50  1  0  0  0  0
 35 75  1  0  0  0  0
 35 81  2  0  0  0  0
 36 65  1  0  0  0  0
 36 71  1  0  0  0  0
 36 82  2  0  0  0  0
 37 66  1  0  0  0  0
 37 76  1  0  0  0  0
 37 83  2  0  0  0  0
 38 72  1  0  0  0  0
 38 77  1  0  0  0  0
 38 84  2  0  0  0  0
 39 78  1  0  0  0  0
 39 85  2  0  0  0  0
 39 91  1  0  0  0  0
 40 43  1  0  0  0  0
 41 50  1  0  0  0  0
 42 71  1  0  0  0  0
 43 45  1  0  0  0  0
 44 46  1  0  0  0  0
 44 47  1  0  0  0  0
 45 49  1  0  0  0  0
 46 51  1  0  0  0  0
 47 72  1  0  0  0  0
 48 51  1  0  0  0  0
 48 72  1  0  0  0  0
 49 75  1  0  0  0  0
 50 71  1  0  0  0  0
 51 70  1  0  0  0  0
 52 66  1  0  0  0  0
 53 67  1  0  0  0  0
 54 67  1  0  0  0  0
 55 68  1  0  0  0  0
 56 68  1  0  0  0  0
 57 68  1  0  0  0  0
 58 79  1  0  0  0  0
 59 61  1  0  0  0  0
 59 62  1  0  0  0  0
 60 63  1  0  0  0  0
 60 64  1  0  0  0  0
 61 77  1  0  0  0  0
 62 78  1  0  0  0  0
 63 87  1  0  0  0  0
 64 88  1  0  0  0  0
 65 68  1  0  0  0  0
 65 76  1  0  0  0  0
 66 79  1  0  0  0  0
 67 91  1  0  0  0  0
 69 70  1  0  0  0  0
M  CHG  1  79   1
M  ISO  4  38 100  63 101  77 100  87 101
M  END
> <Batch ID>
0005

> <Smiles>
CNC(C)C(=O)NC(C(=O)N1Cc2cc([101O:1][101CH2:1]CCOc3cccc(N(CCC[100NH:0][100C:0](=O)N4CCCC(n5nc(-c6ccc(Oc7ccc(F)cc7F)cc6)c(C(N)=O)c5N)C4)C(=O)SC(C)C)c3)ccc2CC1C(=O)NC1CCCc2ccccc21)C(C)(C)C

> <Shape>
0.274

> <Color>
0.196

> <Negative vol penalty>
0.000

$$$$

  -OEChem-04052315263D

 82 90  0     1  0  0  0  0  0999 V2000
  -22.6557  -18.9870   22.1101 C   0  0  0  0  0  0  0  0  0  0  0  0
  -23.9467  -19.4571   22.3281 C   0  0  0  0  0  0  0  0  0  0  0  0
  -23.4527   -9.7271   21.4264 C   0  0  0  0  0  0  0  0  0  0  0  0
  -24.0562  -10.7584   23.5263 C   0  0  0  0  0  0  0  0  0  0  0  0
  -21.6887  -19.8337   21.5696 C   0  0  0  0  0  0  0  0  0  0  0  0
  -24.2719  -20.7740   22.0046 C   0  0  0  0  0  0  0  0  0  0  0  0
  -26.9785  -23.0527   25.6277 C   0  0  0  0  0  0  0  0  0  0  0  0
  -31.4784  -18.0064   21.1772 C   0  0  0  0  0  0  0  0  0  0  0  0
  -22.8217   -8.6919   22.1162 C   0  0  0  0  0  0  0  0  0  0  0  0
  -23.4251   -9.7233   24.2161 C   0  0  0  0  0  0  0  0  0  0  0  0
  -28.3359  -22.7425   25.6987 C   0  0  0  0  0  0  0  0  0  0  0  0
  -31.9079  -19.2471   21.6481 C   0  0  0  0  0  0  0  0  0  0  0  0
  -19.8871   -8.1932   23.7200 C   0  0  0  0  0  0  0  0  0  0  0  0
  -18.6271   -7.7921   23.2761 C   0  0  0  0  0  0  0  0  0  0  0  0
  -28.8585  -24.7902   24.5355 C   0  0  0  0  0  0  0  0  0  0  0  0
  -29.1824  -18.7426   21.3316 C   0  0  0  0  0  0  0  0  0  0  0  0
  -19.4764   -5.5656   22.8774 C   0  0  0  0  0  0  0  0  0  0  0  0
  -24.0701  -10.7603   22.1315 C   0  0  0  0  0  0  0  0  0  0  0  0
  -24.1471  -13.0406   20.9904 C   0  0  0  0  0  0  0  0  0  0  0  0
  -21.9997  -21.1644   21.2483 C   0  0  0  0  0  0  0  0  0  0  0  0
  -26.5495  -24.2306   24.9994 C   0  0  0  0  0  0  0  0  0  0  0  0
  -23.3086  -21.6388   21.4581 C   0  0  0  0  0  0  0  0  0  0  0  0
  -27.4952  -25.1142   24.4601 C   0  0  0  0  0  0  0  0  0  0  0  0
  -29.6119  -19.9833   21.8026 C   0  0  0  0  0  0  0  0  0  0  0  0
  -30.1156  -17.7541   21.0189 C   0  0  0  0  0  0  0  0  0  0  0  0
  -22.8078   -8.6900   23.5110 C   0  0  0  0  0  0  0  0  0  0  0  0
  -29.2760  -23.6099   25.1500 C   0  0  0  0  0  0  0  0  0  0  0  0
  -30.9747  -20.2355   21.9608 C   0  0  0  0  0  0  0  0  0  0  0  0
  -20.9418   -7.2806   23.7426 C   0  0  0  0  0  0  0  0  0  0  0  0
  -18.4217   -6.4783   22.8548 C   0  0  0  0  0  0  0  0  0  0  0  0
  -20.7364   -5.9668   23.3214 C   0  0  0  0  0  0  0  0  0  0  0  0
  -24.7226  -11.8296   21.4195 C   0  0  0  0  0  0  0  0  0  0  0  0
  -25.1743  -13.7076   20.3686 C   0  0  0  0  0  0  0  0  0  0  0  0
  -22.8042  -13.5198   21.1405 C   0  0  0  0  0  0  0  0  0  0  0  0
  -24.7272  -24.8937   22.4808 C   0  0  0  0  0  0  0  0  0  0  0  0
  -25.1194  -27.9509   23.4921 C   0  0  0  0  0  0  0  0  0  0  0  0
  -26.9936  -30.2078   25.2357 C   0  0  0  0  0  0  0  0  0  0  0  0
  -30.4743  -15.4044   20.1844 C   0  0  0  0  0  0  0  0  0  0  0  0
  -20.9336  -22.0281   20.6222 C   0  0  0  0  0  0  0  0  0  0  0  0
  -25.0834  -24.5637   24.9547 C   0  0  0  0  0  0  0  0  0  0  0  0
  -27.0877  -26.4015   23.7927 C   0  0  0  0  0  0  0  0  0  0  0  0
  -21.2602  -23.5189   20.6555 C   0  0  0  0  0  0  0  0  0  0  0  0
  -29.7812  -12.1193   18.9992 C   0  0  0  0  0  0  0  0  0  0  0  0
  -22.6974  -23.7608   20.2052 C   0  0  0  0  0  0  0  0  0  0  0  0
  -28.3560  -11.8507   19.4879 C   0  0  0  0  0  0  0  0  0  0  0  0
  -30.5862  -12.9277   20.0151 C   0  0  0  0  0  0  0  0  0  0  0  0
  -28.5267  -13.9073   20.9468 C   0  0  0  0  0  0  0  0  0  0  0  0
  -23.6934  -23.0681   21.1432 C   0  0  1  0  0  0  0  0  0  0  0  0
  -24.7261  -25.5393   23.8376 C   0  0  1  0  0  0  0  0  0  0  0  0
  -27.6569  -13.1516   19.9289 C   0  0  2  0  0  0  0  0  0  0  0  0
  -28.5993  -21.0298   22.1324 C   0  0  0  0  0  0  0  0  0  0  0  0
  -27.0804  -32.6392   25.8508 C   0  0  0  0  0  0  0  0  0  0  0  0
  -26.0823  -28.6263   20.6767 C   0  0  0  0  0  0  0  0  0  0  0  0
  -27.0300  -30.7573   21.5873 C   0  0  0  0  0  0  0  0  0  0  0  0
  -24.5737  -30.3374   21.7018 C   0  0  0  0  0  0  0  0  0  0  0  0
  -26.8196  -29.6017   28.1273 C   0  0  0  0  0  0  0  0  0  0  0  0
  -32.6136  -22.8561   23.9651 C   0  0  0  0  0  0  0  0  0  0  0  0
  -31.4314  -23.7922   24.1618 C   0  0  0  0  0  0  0  0  0  1  0  0
  -32.1691  -21.4420   23.6263 C   0  0  0  0  0  0  0  0  0  0  0  0
  -26.1244  -29.0450   23.2240 C   0  0  1  0  0  0  0  0  0  0  0  0
  -26.6091  -31.2542   26.2661 C   0  0  2  0  0  0  0  0  0  0  0  0
  -25.9605  -29.6664   21.8083 C   0  0  0  0  0  0  0  0  0  0  0  0
  -26.0151  -11.7303   21.0975 N   0  0  0  0  0  0  0  0  0  0  0  0
  -26.2602  -12.8873   20.4593 N   0  0  0  0  0  0  0  0  0  0  0  0
  -25.6422  -26.6796   23.7686 N   0  0  0  0  0  0  0  0  0  0  0  0
  -29.8642  -14.1477   20.3828 N   0  0  0  0  0  0  0  0  0  0  0  0
  -25.2455  -14.9097   19.7586 N   0  0  0  0  0  0  0  0  0  0  0  0
  -21.8754  -12.7077   21.8054 N   0  0  0  0  0  0  0  0  0  0  0  0
  -29.6797  -16.4937   20.5405 N   0  0  0  0  0  0  0  0  0  0  0  0
  -23.8527  -23.8303   22.3631 N   0  0  0  0  0  0  0  0  0  0  0  0
  -25.9867  -30.0022   24.3163 N   0  0  0  0  0  0  0  0  0  0  0  0
  -27.2163  -30.9277   27.5873 N   0  3  0  0  0  0  0  0  0  0  0  0
  -22.4345  -14.6280   20.6837 O   0  0  0  0  0  0  0  0  0  0  0  0
  -25.4656  -25.3292   21.6051 O   0  0  0  0  0  0  0  0  0  0  0  0
  -23.9150  -28.2160   23.4643 O   0  0  0  0  0  0  0  0  0  0  0  0
  -28.0800  -29.6332   25.2432 O   0  0  0  0  0  0  0  0  0  0  0  0
  -31.6070  -15.5077   19.7066 O   0  0  0  0  0  0  0  0  0  0  0  0
  -22.1919   -7.6802   24.1844 O   0  0  0  0  0  0  0  0  0  0  0  0
  -30.6015  -23.3092   25.2173 O   0  0  0  0  0  0  0  0  0  1  0  0
  -31.4141  -21.4491   22.4223 O   0  0  0  0  0  0  0  0  0  0  0  0
  -17.2113   -6.0928   22.4300 F   0  0  0  0  0  0  0  0  0  0  0  0
  -21.7455   -5.0853   23.3419 F   0  0  0  0  0  0  0  0  0  0  0  0
  1  2  1  0  0  0  0
  1  5  2  0  0  0  0
  2  6  2  0  0  0  0
  3  9  2  0  0  0  0
  3 18  1  0  0  0  0
  4 10  1  0  0  0  0
  4 18  2  0  0  0  0
  5 20  1  0  0  0  0
  6 22  1  0  0  0  0
  7 11  2  0  0  0  0
  7 21  1  0  0  0  0
  8 12  2  0  0  0  0
  8 25  1  0  0  0  0
  9 26  1  0  0  0  0
 10 26  2  0  0  0  0
 11 27  1  0  0  0  0
 12 28  1  0  0  0  0
 13 14  2  0  0  0  0
 13 29  1  0  0  0  0
 14 30  1  0  0  0  0
 15 23  1  0  0  0  0
 15 27  2  0  0  0  0
 16 24  1  0  0  0  0
 16 25  2  0  0  0  0
 17 30  2  0  0  0  0
 17 31  1  0  0  0  0
 18 32  1  0  0  0  0
 19 32  1  0  0  0  0
 19 33  2  0  0  0  0
 19 34  1  0  0  0  0
 20 22  2  0  0  0  0
 20 39  1  0  0  0  0
 21 23  2  0  0  0  0
 21 40  1  0  0  0  0
 22 48  1  0  0  0  0
 23 41  1  0  0  0  0
 24 28  2  0  0  0  0
 24 51  1  0  0  0  0
 25 69  1  0  0  0  0
 26 78  1  0  0  0  0
 27 79  1  0  0  0  0
 28 80  1  0  0  0  0
 29 31  2  0  0  0  0
 29 78  1  0  0  0  0
 30 81  1  0  0  0  0
 31 82  1  0  0  0  0
 32 63  2  0  0  0  0
 33 64  1  0  0  0  0
 33 67  1  0  0  0  0
 34 68  1  0  0  0  0
 34 73  2  0  0  0  0
 35 49  1  0  0  0  0
 35 70  1  0  0  0  0
 35 74  2  0  0  0  0
 36 60  1  0  0  0  0
 36 65  1  0  0  0  0
 36 75  2  0  0  0  0
 37 61  1  0  0  0  0
 37 71  1  0  0  0  0
 37 76  2  0  0  0  0
 38 66  1  0  0  0  0
 38 69  1  0  0  0  0
 38 77  2  0  0  0  0
 39 42  1  0  0  0  0
 40 49  1  0  0  0  0
 41 65  1  0  0  0  0
 42 44  1  0  0  0  0
 43 45  1  0  0  0  0
 43 46  1  0  0  0  0
 44 48  1  0  0  0  0
 45 50  1  0  0  0  0
 46 66  1  0  0  0  0
 47 50  1  0  0  0  0
 47 66  1  0  0  0  0
 48 70  1  0  0  0  0
 49 65  1  0  0  0  0
 50 64  1  0  0  0  0
 52 61  1  0  0  0  0
 53 62  1  0  0  0  0
 54 62  1  0  0  0  0
 55 62  1  0  0  0  0
 56 72  1  0  0  0  0
 57 58  1  0  0  0  0
 57 59  1  0  0  0  0
 58 79  1  0  0  0  0
 59 80  1  0  0  0  0
 60 62  1  0  0  0  0
 60 71  1  0  0  0  0
 61 72  1  0  0  0  0
 63 64  1  0  0  0  0
M  CHG  1  72   1
M  ISO  4  38 100  58 101  69 100  79 101
M  END
> <Batch ID>
0005

> <Smiles>
CNC(C)C(=O)NC(C(=O)N1Cc2cc([101O:1][101CH2:1]CCOc3ccc([100NH:0][100C:0](=O)N4CCCC(n5nc(-c6ccc(Oc7ccc(F)cc7F)cc6)c(C(N)=O)c5N)C4)cc3C)ccc2CC1C(=O)NC1CCCc2ccccc21)C(C)(C)C

> <Shape>
0.217

> <Color>
0.137

> <Negative vol penalty>
0.000

$$$$

  -OEChem-04052315263D

100109  0     1  0  0  0  0  0999 V2000
  -32.2760   -9.4217   20.2951 C   0  0  0  0  0  0  0  0  0  0  0  0
  -20.1729  -37.1454   24.3963 C   0  0  0  0  0  0  0  0  0  0  0  0
  -20.8458  -35.9365   24.5423 C   0  0  0  0  0  0  0  0  0  0  0  0
  -32.1944   -8.3961   19.3532 C   0  0  0  0  0  0  0  0  0  0  0  0
  -31.6000  -25.9462   18.4929 C   0  0  0  0  0  0  0  0  0  0  0  0
  -23.1675   -9.8340   20.0443 C   0  0  0  0  0  0  0  0  0  0  0  0
  -23.8705  -10.0216   22.3481 C   0  0  0  0  0  0  0  0  0  0  0  0
  -32.3883  -10.7471   19.8750 C   0  0  0  0  0  0  0  0  0  0  0  0
  -20.7478  -38.1768   23.6549 C   0  0  0  0  0  0  0  0  0  0  0  0
  -22.0936  -35.7580   23.9460 C   0  0  0  0  0  0  0  0  0  0  0  0
  -26.7920  -32.5019   26.1435 C   0  0  0  0  0  0  0  0  0  0  0  0
  -31.8725  -24.5816   18.5877 C   0  0  0  0  0  0  0  0  0  0  0  0
  -32.2253   -8.6958   17.9913 C   0  0  0  0  0  0  0  0  0  0  0  0
  -30.7275  -26.5479   19.3997 C   0  0  0  0  0  0  0  0  0  0  0  0
  -22.4467   -8.6818   20.3580 C   0  0  0  0  0  0  0  0  0  0  0  0
  -23.1496   -8.8693   22.6619 C   0  0  0  0  0  0  0  0  0  0  0  0
  -27.2464  -31.2116   25.8742 C   0  0  0  0  0  0  0  0  0  0  0  0
  -23.0943   -5.4082   20.8952 C   0  0  0  0  0  0  0  0  0  0  0  0
  -23.2098   -4.3177   20.0333 C   0  0  0  0  0  0  0  0  0  0  0  0
  -28.8397  -32.1079   24.3003 C   0  0  0  0  0  0  0  0  0  0  0  0
  -30.3999  -24.4202   20.4962 C   0  0  0  0  0  0  0  0  0  0  0  0
  -20.8312   -4.3950   19.6166 C   0  0  0  0  0  0  0  0  0  0  0  0
  -23.8794  -10.5039   21.0394 C   0  0  0  0  0  0  0  0  0  0  0  0
  -32.4192  -11.0468   18.5131 C   0  0  0  0  0  0  0  0  0  0  0  0
  -24.1611  -13.0227   20.7493 C   0  0  0  0  0  0  0  0  0  0  0  0
  -22.0076  -38.0142   23.0573 C   0  0  0  0  0  0  0  0  0  0  0  0
  -27.3515  -33.6057   25.4841 C   0  0  0  0  0  0  0  0  0  0  0  0
  -22.6853  -36.7877   23.1948 C   0  0  0  0  0  0  0  0  0  0  0  0
  -28.3924  -33.4113   24.5649 C   0  0  0  0  0  0  0  0  0  0  0  0
  -31.2725  -23.8186   19.5894 C   0  0  0  0  0  0  0  0  0  0  0  0
  -22.4377   -8.1995   21.6667 C   0  0  0  0  0  0  0  0  0  0  0  0
  -28.2684  -31.0142   24.9503 C   0  0  0  0  0  0  0  0  0  0  0  0
  -30.1274  -25.7849   20.4014 C   0  0  0  0  0  0  0  0  0  0  0  0
  -32.3376  -10.0212   17.5712 C   0  0  0  0  0  0  0  0  0  0  0  0
  -21.8472   -5.9921   21.1179 C   0  0  0  0  0  0  0  0  0  0  0  0
  -22.0783   -3.8110   19.3940 C   0  0  0  0  0  0  0  0  0  0  0  0
  -20.7157   -5.4855   20.4786 C   0  0  0  0  0  0  0  0  0  0  0  0
  -24.6247  -11.6939   20.7158 C   0  0  0  0  0  0  0  0  0  0  0  0
  -25.2428  -13.7737   20.3590 C   0  0  0  0  0  0  0  0  0  0  0  0
  -32.5391  -12.4620   18.0887 C   0  0  0  0  0  0  0  0  0  0  0  0
  -22.8682  -13.5325   21.1018 C   0  0  0  0  0  0  0  0  0  0  0  0
  -26.2426  -35.8413   23.5152 C   0  0  0  0  0  0  0  0  0  0  0  0
  -29.2185  -37.0812   23.8739 C   0  0  0  0  0  0  0  0  0  0  0  0
  -32.5044  -36.5553   24.6309 C   0  0  0  0  0  0  0  0  0  0  0  0
  -30.1269  -12.6874   17.3168 C   0  0  0  0  0  0  0  0  0  0  0  0
  -22.5675  -39.1411   22.2258 C   0  0  0  0  0  0  0  0  0  0  0  0
  -26.8684  -34.9934   25.8055 C   0  0  0  0  0  0  0  0  0  0  0  0
  -29.0404  -34.5647   23.8451 C   0  0  0  0  0  0  0  0  0  0  0  0
  -24.0605  -39.0029   21.9391 C   0  0  0  0  0  0  0  0  0  0  0  0
  -29.6666  -12.3955   21.0479 C   0  0  0  0  0  0  0  0  0  0  0  0
  -24.3882  -37.5830   21.4880 C   0  0  0  0  0  0  0  0  0  0  0  0
  -28.6251  -13.4956   20.8429 C   0  0  0  0  0  0  0  0  0  0  0  0
  -30.4585  -12.1177   19.7668 C   0  0  0  0  0  0  0  0  0  0  0  0
  -28.1978  -12.0823   18.7503 C   0  0  0  0  0  0  0  0  0  0  0  0
  -24.0517  -36.5645   22.5838 C   0  0  1  0  0  0  0  0  0  0  0  0
  -27.1586  -35.9991   24.6957 C   0  0  1  0  0  0  0  0  0  0  0  0
  -27.6638  -13.1958   19.6680 C   0  0  1  0  0  0  0  0  0  0  0  0
  -34.7028  -37.7533   24.8014 C   0  0  0  0  0  0  0  0  0  0  0  0
  -29.4418  -37.0992   20.8309 C   0  0  0  0  0  0  0  0  0  0  0  0
  -31.9164  -37.3832   21.0837 C   0  0  0  0  0  0  0  0  0  0  0  0
  -30.3665  -39.1319   21.9568 C   0  0  0  0  0  0  0  0  0  0  0  0
  -32.7583  -35.9219   27.5107 C   0  0  0  0  0  0  0  0  0  0  0  0
  -33.6429  -10.3196   15.6058 C   0  0  0  0  0  0  0  0  0  0  0  0
  -31.6635  -18.0931   19.0763 C   0  0  0  0  0  0  0  0  0  0  0  0
  -31.2501  -17.4245   17.7631 C   0  0  0  0  0  0  0  0  0  0  0  0
  -31.1692  -19.5373   19.2058 C   0  0  0  0  0  0  0  0  0  0  0  0
  -31.7955  -15.9968   17.6733 C   0  0  0  0  0  0  0  0  0  0  0  0
  -31.5153  -20.1784   20.5541 C   0  0  0  0  0  0  0  0  0  0  0  0
  -31.3571  -15.3154   16.3736 C   0  0  0  0  0  0  0  0  0  0  0  0
  -29.0022  -28.0510   22.9972 C   0  0  0  0  0  0  0  0  0  0  0  0
  -30.9674  -21.5979   20.6853 C   0  0  0  0  0  0  0  0  0  0  0  0
  -31.9335  -13.9112   16.2252 C   0  0  0  0  0  0  0  0  0  0  0  0
  -29.2209  -29.5073   23.3761 C   0  0  0  0  0  0  0  0  0  1  0  0
  -29.5075  -27.7457   21.5959 C   0  0  0  0  0  0  0  0  0  0  0  0
  -30.5388  -36.9155   23.1609 C   0  0  1  0  0  0  0  0  0  0  0  0
  -33.4583  -37.2991   25.5481 C   0  0  2  0  0  0  0  0  0  0  0  0
  -30.5526  -37.6103   21.7700 C   0  0  0  0  0  0  0  0  0  0  0  0
  -25.9014  -11.6027   20.3342 N   0  0  0  0  0  0  0  0  0  0  0  0
  -26.2493  -12.8837   20.1243 N   0  0  0  0  0  0  0  0  0  0  0  0
  -28.5290  -35.9018   24.1889 N   0  0  0  0  0  0  0  0  0  0  0  0
  -29.6364  -12.2352   18.5552 N   0  0  0  0  0  0  0  0  0  0  0  0
  -25.4216  -15.1019   20.1971 N   0  0  0  0  0  0  0  0  0  0  0  0
  -21.8713  -12.6226   21.4793 N   0  0  0  0  0  0  0  0  0  0  0  0
  -31.5424  -22.4622   19.6829 N   0  0  0  0  0  0  0  0  0  0  0  0
  -25.0724  -36.5700   23.6097 N   0  0  0  0  0  0  0  0  0  0  0  0
  -31.5629  -37.3990   24.0805 N   0  0  0  0  0  0  0  0  0  0  0  0
  -31.5051  -13.0193   17.2929 N   0  0  0  0  0  0  0  0  0  0  0  0
  -33.8811  -36.4225   26.6767 N   0  3  0  0  0  0  0  0  0  0  0  0
  -33.5508  -13.0729   18.4334 O   0  0  0  0  0  0  0  0  0  0  0  0
  -22.6000  -14.7574   21.0668 O   0  0  0  0  0  0  0  0  0  0  0  0
  -26.5737  -35.1133   22.5867 O   0  0  0  0  0  0  0  0  0  0  0  0
  -28.8173  -38.2151   24.1478 O   0  0  0  0  0  0  0  0  0  0  0  0
  -32.5885  -35.3473   24.4206 O   0  0  0  0  0  0  0  0  0  0  0  0
  -29.4241  -12.7814   16.3050 O   0  0  0  0  0  0  0  0  0  0  0  0
  -21.7343   -7.0753   21.9733 O   0  0  0  0  0  0  0  0  0  0  0  0
  -32.3641  -10.2942   16.2361 O   0  0  0  0  0  0  0  0  0  0  0  0
  -28.7166  -29.7467   24.6831 O   0  0  0  0  0  0  0  0  0  1  0  0
  -29.2761  -26.3723   21.2862 O   0  0  0  0  0  0  0  0  0  0  0  0
  -22.1897   -2.7647   18.5651 F   0  0  0  0  0  0  0  0  0  0  0  0
  -19.5152   -6.0431   20.6877 F   0  0  0  0  0  0  0  0  0  0  0  0
  1  4  1  0  0  0  0
  1  8  2  0  0  0  0
  2  3  1  0  0  0  0
  2  9  2  0  0  0  0
  3 10  2  0  0  0  0
  4 13  2  0  0  0  0
  5 12  1  0  0  0  0
  5 14  2  0  0  0  0
  6 15  2  0  0  0  0
  6 23  1  0  0  0  0
  7 16  1  0  0  0  0
  7 23  2  0  0  0  0
  8 24  1  0  0  0  0
  9 26  1  0  0  0  0
 10 28  1  0  0  0  0
 11 17  2  0  0  0  0
 11 27  1  0  0  0  0
 12 30  2  0  0  0  0
 13 34  1  0  0  0  0
 14 33  1  0  0  0  0
 15 31  1  0  0  0  0
 16 31  2  0  0  0  0
 17 32  1  0  0  0  0
 18 19  2  0  0  0  0
 18 35  1  0  0  0  0
 19 36  1  0  0  0  0
 20 29  1  0  0  0  0
 20 32  2  0  0  0  0
 21 30  1  0  0  0  0
 21 33  2  0  0  0  0
 22 36  2  0  0  0  0
 22 37  1  0  0  0  0
 23 38  1  0  0  0  0
 24 34  2  0  0  0  0
 24 40  1  0  0  0  0
 25 38  1  0  0  0  0
 25 39  2  0  0  0  0
 25 41  1  0  0  0  0
 26 28  2  0  0  0  0
 26 46  1  0  0  0  0
 27 29  2  0  0  0  0
 27 47  1  0  0  0  0
 28 55  1  0  0  0  0
 29 48  1  0  0  0  0
 30 84  1  0  0  0  0
 31 95  1  0  0  0  0
 32 97  1  0  0  0  0
 33 98  1  0  0  0  0
 34 96  1  0  0  0  0
 35 37  2  0  0  0  0
 35 95  1  0  0  0  0
 36 99  1  0  0  0  0
 37100  1  0  0  0  0
 38 78  2  0  0  0  0
 39 79  1  0  0  0  0
 39 82  1  0  0  0  0
 40 87  1  0  0  0  0
 40 89  2  0  0  0  0
 41 83  1  0  0  0  0
 41 90  2  0  0  0  0
 42 56  1  0  0  0  0
 42 85  1  0  0  0  0
 42 91  2  0  0  0  0
 43 75  1  0  0  0  0
 43 80  1  0  0  0  0
 43 92  2  0  0  0  0
 44 76  1  0  0  0  0
 44 86  1  0  0  0  0
 44 93  2  0  0  0  0
 45 81  1  0  0  0  0
 45 87  1  0  0  0  0
 45 94  2  0  0  0  0
 46 49  1  0  0  0  0
 47 56  1  0  0  0  0
 48 80  1  0  0  0  0
 49 51  1  0  0  0  0
 50 52  1  0  0  0  0
 50 53  1  0  0  0  0
 51 55  1  0  0  0  0
 52 57  1  0  0  0  0
 53 81  1  0  0  0  0
 54 57  1  0  0  0  0
 54 81  1  0  0  0  0
 55 85  1  0  0  0  0
 56 80  1  0  0  0  0
 57 79  1  0  0  0  0
 58 76  1  0  0  0  0
 59 77  1  0  0  0  0
 60 77  1  0  0  0  0
 61 77  1  0  0  0  0
 62 88  1  0  0  0  0
 63 96  1  0  0  0  0
 64 65  1  0  0  0  0
 64 66  1  0  0  0  0
 65 67  1  0  0  0  0
 66 68  1  0  0  0  0
 67 69  1  0  0  0  0
 68 71  1  0  0  0  0
 69 72  1  0  0  0  0
 70 73  1  0  0  0  0
 70 74  1  0  0  0  0
 71 84  1  0  0  0  0
 72 87  1  0  0  0  0
 73 97  1  0  0  0  0
 74 98  1  0  0  0  0
 75 77  1  0  0  0  0
 75 86  1  0  0  0  0
 76 88  1  0  0  0  0
 78 79  1  0  0  0  0
M  CHG  1  88   1
M  ISO  4  45 100  73 101  87 100  97 101
M  END
> <Batch ID>
0005

> <Smiles>
CNC(C)C(=O)NC(C(=O)N1Cc2cc([101O:1][101CH2:1]CCOc3cccc(NCCCCCCCC[100N:0](C(=O)c4ccccc4OC)[100C:0](=O)N4CCCC(n5nc(-c6ccc(Oc7ccc(F)cc7F)cc6)c(C(N)=O)c5N)C4)c3)ccc2CC1C(=O)NC1CCCc2ccccc21)C(C)(C)C

> <Shape>
0.260

> <Color>
0.177

> <Negative vol penalty>
0.000

$$$$

  -OEChem-04052315263D

 92100  0     1  0  0  0  0  0999 V2000
  -36.1112  -10.1945   22.2608 C   0  0  0  0  0  0  0  0  0  0  0  0
  -36.0125  -11.5609   22.5028 C   0  0  0  0  0  0  0  0  0  0  0  0
  -25.5258  -24.9442   24.9185 C   0  0  0  0  0  0  0  0  0  0  0  0
  -24.2060  -22.9465   25.2411 C   0  0  0  0  0  0  0  0  0  0  0  0
  -35.3012   -9.5983   21.2952 C   0  0  0  0  0  0  0  0  0  0  0  0
  -35.1043  -12.3322   21.7784 C   0  0  0  0  0  0  0  0  0  0  0  0
  -30.8628  -18.0654   22.4542 C   0  0  0  0  0  0  0  0  0  0  0  0
  -26.3182  -24.5974   26.0128 C   0  0  0  0  0  0  0  0  0  0  0  0
  -24.9984  -22.5996   26.3354 C   0  0  0  0  0  0  0  0  0  0  0  0
  -30.5835  -19.2786   21.8264 C   0  0  0  0  0  0  0  0  0  0  0  0
  -28.0357  -21.2184   26.8711 C   0  0  0  0  0  0  0  0  0  0  0  0
  -28.4643  -19.8944   26.9653 C   0  0  0  0  0  0  0  0  0  0  0  0
  -29.1794  -18.1268   20.2386 C   0  0  0  0  0  0  0  0  0  0  0  0
  -24.3196  -28.8447   19.3657 C   0  0  0  0  0  0  0  0  0  0  0  0
  -22.1911  -30.0740   20.6852 C   0  0  0  0  0  0  0  0  0  0  0  0
  -27.3271  -19.6772   29.0859 C   0  0  0  0  0  0  0  0  0  0  0  0
  -24.4697  -24.1187   24.5327 C   0  0  0  0  0  0  0  0  0  0  0  0
  -23.8576  -24.1222   22.0562 C   0  0  0  0  0  0  0  0  0  0  0  0
  -34.3758  -10.3610   20.5654 C   0  0  0  0  0  0  0  0  0  0  0  0
  -30.3102  -16.8704   21.9714 C   0  0  0  0  0  0  0  0  0  0  0  0
  -34.2820  -11.7460   20.8012 C   0  0  0  0  0  0  0  0  0  0  0  0
  -29.4512  -16.9001   20.8636 C   0  0  0  0  0  0  0  0  0  0  0  0
  -24.5683  -29.7872   20.3634 C   0  0  0  0  0  0  0  0  0  0  0  0
  -21.9423  -29.1315   19.6874 C   0  0  0  0  0  0  0  0  0  0  0  0
  -26.0545  -23.4251   26.7212 C   0  0  0  0  0  0  0  0  0  0  0  0
  -29.7440  -19.3090   20.7167 C   0  0  0  0  0  0  0  0  0  0  0  0
  -27.2530  -21.7719   27.8843 C   0  0  0  0  0  0  0  0  0  0  0  0
  -23.0066  -28.5169   19.0276 C   0  0  0  0  0  0  0  0  0  0  0  0
  -28.1100  -19.1237   28.0726 C   0  0  0  0  0  0  0  0  0  0  0  0
  -23.5041  -30.4018   21.0232 C   0  0  0  0  0  0  0  0  0  0  0  0
  -26.8986  -21.0013   28.9916 C   0  0  0  0  0  0  0  0  0  0  0  0
  -23.6504  -24.4767   23.4027 C   0  0  0  0  0  0  0  0  0  0  0  0
  -22.8112  -24.7038   21.3830 C   0  0  0  0  0  0  0  0  0  0  0  0
  -24.9025  -23.3372   21.4666 C   0  0  0  0  0  0  0  0  0  0  0  0
  -31.4945  -14.1714   20.7814 C   0  0  0  0  0  0  0  0  0  0  0  0
  -28.3935  -13.2246   20.8796 C   0  0  0  0  0  0  0  0  0  0  0  0
  -29.6506  -22.8939   19.8758 C   0  0  0  0  0  0  0  0  0  0  0  0
  -25.0958  -14.1026   20.9088 C   0  0  0  0  0  0  0  0  0  0  0  0
  -19.5468  -28.8759   20.3098 C   0  0  0  0  0  0  0  0  0  0  0  0
  -33.5549   -9.6806   19.4987 C   0  0  0  0  0  0  0  0  0  0  0  0
  -30.6000  -15.5735   22.6761 C   0  0  0  0  0  0  0  0  0  0  0  0
  -28.8164  -15.6478   20.3185 C   0  0  0  0  0  0  0  0  0  0  0  0
  -32.3539  -10.5022   19.0376 C   0  0  0  0  0  0  0  0  0  0  0  0
  -18.5880  -26.8820   23.0934 C   0  0  0  0  0  0  0  0  0  0  0  0
  -32.7649  -11.9477   18.7755 C   0  0  0  0  0  0  0  0  0  0  0  0
  -19.8502  -26.0506   23.3202 C   0  0  0  0  0  0  0  0  0  0  0  0
  -18.9147  -28.3270   22.7152 C   0  0  0  0  0  0  0  0  0  0  0  0
  -21.0982  -27.6214   21.7885 C   0  0  0  0  0  0  0  0  0  0  0  0
  -33.2914  -12.6119   20.0535 C   0  0  1  0  0  0  0  0  0  0  0  0
  -30.3927  -14.3512   21.7870 C   0  0  1  0  0  0  0  0  0  0  0  0
  -20.8007  -26.1494   22.1140 C   0  0  1  0  0  0  0  0  0  0  0  0
  -22.7926  -13.1073   20.9542 C   0  0  0  0  0  0  0  0  0  0  0  0
  -28.6526  -12.4969   17.9278 C   0  0  0  0  0  0  0  0  0  0  0  0
  -26.1534  -12.4233   17.7983 C   0  0  0  0  0  0  0  0  0  0  0  0
  -27.3696  -10.8463   19.3005 C   0  0  0  0  0  0  0  0  0  0  0  0
  -20.2306  -28.6298   17.9334 C   0  0  0  0  0  0  0  0  0  0  0  0
  -26.1437  -31.1095   21.7527 C   0  0  0  0  0  0  0  0  0  0  0  0
  -24.4530  -15.4156   23.4821 C   0  0  0  0  0  0  0  0  0  0  0  0
  -23.9337  -27.0181   17.4308 C   0  0  0  0  0  0  0  0  0  0  0  0
  -30.0771  -21.6627   20.6464 C   0  0  0  0  0  0  0  0  0  1  0  0
  -28.5107  -27.4437   19.9252 C   0  0  0  0  0  0  0  0  0  0  0  0
  -28.7612  -26.0411   20.4883 C   0  0  0  0  0  0  0  0  0  0  0  0
  -27.3297  -28.1196   20.6292 C   0  0  0  0  0  0  0  0  0  0  0  0
  -29.9682  -25.3605   19.8509 C   0  0  0  0  0  0  0  0  0  0  0  0
  -27.0136  -29.4959   20.0532 C   0  0  0  0  0  0  0  0  0  0  0  0
  -27.2246  -13.2915   19.9267 C   0  0  1  0  0  0  0  0  0  0  0  0
  -23.9417  -13.6539   21.7870 C   0  0  2  0  0  0  0  0  0  0  0  0
  -27.3634  -12.2880   18.7472 C   0  0  0  0  0  0  0  0  0  0  0  0
  -22.5583  -25.2258   23.5765 N   0  0  0  0  0  0  0  0  0  0  0  0
  -22.0699  -25.3467   22.3304 N   0  0  0  0  0  0  0  0  0  0  0  0
  -29.1355  -14.4037   21.0382 N   0  0  0  0  0  0  0  0  0  0  0  0
  -19.8555  -28.3704   21.5868 N   0  0  0  0  0  0  0  0  0  0  0  0
  -22.4621  -24.7231   20.0791 N   0  0  0  0  0  0  0  0  0  0  0  0
  -25.8987  -22.8149   22.3027 N   0  0  0  0  0  0  0  0  0  0  0  0
  -32.1928  -12.9868   20.9177 N   0  0  0  0  0  0  0  0  0  0  0  0
  -30.2139  -24.0469   20.3996 N   0  0  0  0  0  0  0  0  0  0  0  0
  -26.0263  -13.0998   20.7364 N   0  0  0  0  0  0  0  0  0  0  0  0
  -20.5775  -28.8040   19.3481 N   0  0  0  0  0  0  0  0  0  0  0  0
  -25.8920  -30.1169   20.7019 N   0  0  3  0  0  0  0  0  0  0  0  0
  -23.4328  -14.7963   22.5975 N   0  3  0  0  0  0  0  0  0  0  0  0
  -24.9604  -23.1194   20.2326 O   0  0  0  0  0  0  0  0  0  0  0  0
  -31.6953  -15.0421   19.9429 O   0  0  0  0  0  0  0  0  0  0  0  0
  -28.6349  -12.1673   21.4673 O   0  0  0  0  0  0  0  0  0  0  0  0
  -28.8949  -22.8439   18.9091 O   0  0  0  0  0  0  0  0  0  0  0  0
  -25.1631  -15.2288   20.4213 O   0  0  0  0  0  0  0  0  0  0  0  0
  -18.4287  -29.3320   20.0417 O   0  0  0  0  0  0  0  0  0  0  0  0
  -26.8276  -23.0863   27.7889 O   0  0  0  0  0  0  0  0  0  0  0  0
  -22.7852  -27.5934   18.0496 O   0  0  0  0  0  0  0  0  0  0  0  0
  -29.4702  -20.4917   20.1017 O   0  0  0  0  0  0  0  0  0  1  0  0
  -28.5203  -17.8518   28.1622 F   0  0  0  0  0  0  0  0  0  0  0  0
  -23.7313  -31.3070   21.9855 F   0  0  0  0  0  0  0  0  0  0  0  0
  -26.1458  -21.5271   29.9676 F   0  0  0  0  0  0  0  0  0  0  0  0
  1  2  1  0  0  0  0
  1  5  2  0  0  0  0
  2  6  2  0  0  0  0
  3  8  2  0  0  0  0
  3 17  1  0  0  0  0
  4  9  1  0  0  0  0
  4 17  2  0  0  0  0
  5 19  1  0  0  0  0
  6 21  1  0  0  0  0
  7 10  2  0  0  0  0
  7 20  1  0  0  0  0
  8 25  1  0  0  0  0
  9 25  2  0  0  0  0
 10 26  1  0  0  0  0
 11 12  2  0  0  0  0
 11 27  1  0  0  0  0
 12 29  1  0  0  0  0
 13 22  1  0  0  0  0
 13 26  2  0  0  0  0
 14 23  1  0  0  0  0
 14 28  2  0  0  0  0
 15 24  2  0  0  0  0
 15 30  1  0  0  0  0
 16 29  2  0  0  0  0
 16 31  1  0  0  0  0
 17 32  1  0  0  0  0
 18 32  1  0  0  0  0
 18 33  2  0  0  0  0
 18 34  1  0  0  0  0
 19 21  2  0  0  0  0
 19 40  1  0  0  0  0
 20 22  2  0  0  0  0
 20 41  1  0  0  0  0
 21 49  1  0  0  0  0
 22 42  1  0  0  0  0
 23 30  2  0  0  0  0
 23 79  1  0  0  0  0
 24 28  1  0  0  0  0
 24 78  1  0  0  0  0
 25 87  1  0  0  0  0
 26 89  1  0  0  0  0
 27 31  2  0  0  0  0
 27 87  1  0  0  0  0
 28 88  1  0  0  0  0
 29 90  1  0  0  0  0
 30 91  1  0  0  0  0
 31 92  1  0  0  0  0
 32 69  2  0  0  0  0
 33 70  1  0  0  0  0
 33 73  1  0  0  0  0
 34 74  1  0  0  0  0
 34 81  2  0  0  0  0
 35 50  1  0  0  0  0
 35 75  1  0  0  0  0
 35 82  2  0  0  0  0
 36 66  1  0  0  0  0
 36 71  1  0  0  0  0
 36 83  2  0  0  0  0
 37 60  1  0  0  0  0
 37 76  1  0  0  0  0
 37 84  2  0  0  0  0
 38 67  1  0  0  0  0
 38 77  1  0  0  0  0
 38 85  2  0  0  0  0
 39 72  1  0  0  0  0
 39 78  1  0  0  0  0
 39 86  2  0  0  0  0
 40 43  1  0  0  0  0
 41 50  1  0  0  0  0
 42 71  1  0  0  0  0
 43 45  1  0  0  0  0
 44 46  1  0  0  0  0
 44 47  1  0  0  0  0
 45 49  1  0  0  0  0
 46 51  1  0  0  0  0
 47 72  1  0  0  0  0
 48 51  1  0  0  0  0
 48 72  1  0  0  0  0
 49 75  1  0  0  0  0
 50 71  1  0  0  0  0
 51 70  1  0  0  0  0
 52 67  1  0  0  0  0
 53 68  1  0  0  0  0
 54 68  1  0  0  0  0
 55 68  1  0  0  0  0
 56 78  1  0  0  0  0
 57 79  1  0  0  0  0
 58 80  1  0  0  0  0
 59 88  1  0  0  0  0
 60 89  1  0  0  0  0
 61 62  1  0  0  0  0
 61 63  1  0  0  0  0
 62 64  1  0  0  0  0
 63 65  1  0  0  0  0
 64 76  1  0  0  0  0
 65 79  1  0  0  0  0
 66 68  1  0  0  0  0
 66 77  1  0  0  0  0
 67 80  1  0  0  0  0
 69 70  1  0  0  0  0
M  CHG  1  80   1
M  ISO  4  39 100  60 101  78 100  89 101
M  END
> <Batch ID>
0005

> <Smiles>
CNC(C)C(=O)NC(C(=O)N1Cc2cc([101O:1][101CH2:1]C(=O)NCCCCCN(C)c3cc(OC)c([100N:0](C)[100C:0](=O)N4CCCC(n5nc(-c6ccc(Oc7ccc(F)cc7F)cc6)c(C(N)=O)c5N)C4)cc3F)ccc2CC1C(=O)NC1CCCc2ccccc21)C(C)(C)C

> <Shape>
0.260

> <Color>
0.086

> <Negative vol penalty>
0.000

$$$$

  -OEChem-04052315263D

 85 93  0     1  0  0  0  0  0999 V2000
  -39.7281  -28.8860   22.2041 C   0  0  0  0  0  0  0  0  0  0  0  0
  -38.6984  -28.2121   22.8528 C   0  0  0  0  0  0  0  0  0  0  0  0
  -23.0837   -9.8554   19.9344 C   0  0  0  0  0  0  0  0  0  0  0  0
  -23.8454   -9.8585   22.2272 C   0  0  0  0  0  0  0  0  0  0  0  0
  -39.5127  -29.4362   20.9412 C   0  0  0  0  0  0  0  0  0  0  0  0
  -37.4521  -28.0890   22.2394 C   0  0  0  0  0  0  0  0  0  0  0  0
  -35.5533  -23.4099   22.6202 C   0  0  0  0  0  0  0  0  0  0  0  0
  -22.3490   -8.6955   20.1801 C   0  0  0  0  0  0  0  0  0  0  0  0
  -23.1106   -8.6986   22.4729 C   0  0  0  0  0  0  0  0  0  0  0  0
  -34.9802  -23.0526   23.8399 C   0  0  0  0  0  0  0  0  0  0  0  0
  -19.8891   -7.8735   23.0745 C   0  0  0  0  0  0  0  0  0  0  0  0
  -19.1335   -7.8228   24.2458 C   0  0  0  0  0  0  0  0  0  0  0  0
  -32.7875  -23.4692   22.9248 C   0  0  0  0  0  0  0  0  0  0  0  0
  -30.4389  -18.3696   24.0695 C   0  0  0  0  0  0  0  0  0  0  0  0
  -32.0222  -16.6436   22.5539 C   0  0  0  0  0  0  0  0  0  0  0  0
  -20.3903   -5.8919   24.9731 C   0  0  0  0  0  0  0  0  0  0  0  0
  -23.8320  -10.4369   20.9580 C   0  0  0  0  0  0  0  0  0  0  0  0
  -24.1543  -12.9651   20.8484 C   0  0  0  0  0  0  0  0  0  0  0  0
  -38.2661  -29.3114   20.3079 C   0  0  0  0  0  0  0  0  0  0  0  0
  -34.7470  -23.8107   21.5451 C   0  0  0  0  0  0  0  0  0  0  0  0
  -37.2195  -28.6392   20.9675 C   0  0  0  0  0  0  0  0  0  0  0  0
  -33.3526  -23.8286   21.6917 C   0  0  0  0  0  0  0  0  0  0  0  0
  -31.8260  -18.3863   24.2157 C   0  0  0  0  0  0  0  0  0  0  0  0
  -30.6351  -16.6269   22.4077 C   0  0  0  0  0  0  0  0  0  0  0  0
  -22.3623   -8.1171   21.4493 C   0  0  0  0  0  0  0  0  0  0  0  0
  -33.5973  -23.0850   23.9932 C   0  0  0  0  0  0  0  0  0  0  0  0
  -20.8954   -6.9333   22.8524 C   0  0  0  0  0  0  0  0  0  0  0  0
  -29.8435  -17.4899   23.1655 C   0  0  0  0  0  0  0  0  0  0  0  0
  -19.3841   -6.8320   25.1951 C   0  0  0  0  0  0  0  0  0  0  0  0
  -21.1460   -5.9425   23.8018 C   0  0  0  0  0  0  0  0  0  0  0  0
  -32.6176  -17.5233   23.4580 C   0  0  0  0  0  0  0  0  0  0  0  0
  -24.5917  -11.6347   20.7047 C   0  0  0  0  0  0  0  0  0  0  0  0
  -25.2404  -13.7245   20.4874 C   0  0  0  0  0  0  0  0  0  0  0  0
  -22.8802  -13.4693   21.2705 C   0  0  0  0  0  0  0  0  0  0  0  0
  -34.4438  -26.4763   19.8403 C   0  0  0  0  0  0  0  0  0  0  0  0
  -32.4226  -24.6542   18.0748 C   0  0  0  0  0  0  0  0  0  0  0  0
  -31.7347  -20.2032   25.9578 C   0  0  0  0  0  0  0  0  0  0  0  0
  -30.3443  -21.9517   17.9201 C   0  0  0  0  0  0  0  0  0  0  0  0
  -30.6985  -14.8114   20.6624 C   0  0  0  0  0  0  0  0  0  0  0  0
  -38.0667  -29.9637   18.9628 C   0  0  0  0  0  0  0  0  0  0  0  0
  -35.3791  -24.1673   20.2277 C   0  0  0  0  0  0  0  0  0  0  0  0
  -32.4416  -24.2320   20.5621 C   0  0  0  0  0  0  0  0  0  0  0  0
  -36.8290  -29.4649   18.2215 C   0  0  0  0  0  0  0  0  0  0  0  0
  -29.6008  -12.3991   18.2848 C   0  0  0  0  0  0  0  0  0  0  0  0
  -35.6246  -29.4294   19.1570 C   0  0  0  0  0  0  0  0  0  0  0  0
  -28.1638  -12.0946   18.7142 C   0  0  0  0  0  0  0  0  0  0  0  0
  -30.5151  -12.6298   19.4867 C   0  0  0  0  0  0  0  0  0  0  0  0
  -28.6037  -13.3338   20.8724 C   0  0  0  0  0  0  0  0  0  0  0  0
  -35.8610  -28.4633   20.3241 C   0  0  1  0  0  0  0  0  0  0  0  0
  -34.4913  -25.0535   19.3595 C   0  0  1  0  0  0  0  0  0  0  0  0
  -27.6313  -13.1580   19.6947 C   0  0  2  0  0  0  0  0  0  0  0  0
  -28.8025  -20.7395   16.3547 C   0  0  0  0  0  0  0  0  0  0  0  0
  -30.3212  -26.8325   18.4617 C   0  0  0  0  0  0  0  0  0  0  0  0
  -28.5820  -25.1876   17.7284 C   0  0  0  0  0  0  0  0  0  0  0  0
  -30.4021  -25.8580   16.1599 C   0  0  0  0  0  0  0  0  0  0  0  0
  -31.9492  -19.4699   18.0758 C   0  0  0  0  0  0  0  0  0  0  0  0
  -27.9280  -18.3700   22.0645 C   0  0  0  0  0  0  0  0  0  0  0  0
  -32.7324  -20.9851   26.8047 C   0  0  0  0  0  0  0  0  0  0  0  0
  -33.7319  -21.7751   25.9737 C   0  0  0  0  0  0  0  0  0  1  0  0
  -30.9443  -24.3509   18.1161 C   0  0  1  0  0  0  0  0  0  0  0  0
  -30.2189  -20.8345   16.8999 C   0  0  2  0  0  0  0  0  0  0  0  0
  -30.0794  -25.5514   17.6386 C   0  0  0  0  0  0  0  0  0  0  0  0
  -25.8569  -11.5504   20.2850 N   0  0  0  0  0  0  0  0  0  0  0  0
  -26.2238  -12.8374   20.1619 N   0  0  0  0  0  0  0  0  0  0  0  0
  -33.1078  -24.5780   19.2956 N   0  0  0  0  0  0  0  0  0  0  0  0
  -29.9489  -13.6526   20.3688 N   0  0  0  0  0  0  0  0  0  0  0  0
  -25.4405  -15.0578   20.4199 N   0  0  0  0  0  0  0  0  0  0  0  0
  -21.8756  -12.5510   21.6046 N   0  0  0  0  0  0  0  0  0  0  0  0
  -32.3982  -19.2912   25.1413 N   0  0  0  0  0  0  0  0  0  0  0  0
  -30.0447  -15.7279   21.4852 N   0  0  0  0  0  0  0  0  0  0  0  0
  -35.6787  -27.0942   19.8919 N   0  0  0  0  0  0  0  0  0  0  0  0
  -30.7559  -23.1316   17.3373 N   0  0  0  0  0  0  0  0  0  0  0  0
  -30.5732  -19.5259   17.5187 N   0  3  0  0  0  0  0  0  0  0  0  0
  -22.6345  -14.6978   21.3332 O   0  0  0  0  0  0  0  0  0  0  0  0
  -33.3664  -26.9768   20.1408 O   0  0  0  0  0  0  0  0  0  0  0  0
  -32.9512  -24.9411   16.9978 O   0  0  0  0  0  0  0  0  0  0  0  0
  -30.5256  -20.3959   26.0291 O   0  0  0  0  0  0  0  0  0  0  0  0
  -30.0979  -21.7944   19.1138 O   0  0  0  0  0  0  0  0  0  0  0  0
  -31.8259  -14.9908   20.1946 O   0  0  0  0  0  0  0  0  0  0  0  0
  -21.6453   -6.9855   21.6894 O   0  0  0  0  0  0  0  0  0  0  0  0
  -28.4864  -17.4899   23.0376 O   0  0  0  0  0  0  0  0  0  0  0  0
  -33.0354  -22.7374   25.1829 O   0  0  0  0  0  0  0  0  0  1  0  0
  -18.6593   -6.7844   26.3206 F   0  0  0  0  0  0  0  0  0  0  0  0
  -22.1121   -5.0373   23.5945 F   0  0  0  0  0  0  0  0  0  0  0  0
  -34.3387  -17.5106   23.6090 Cl  0  0  0  0  0  0  0  0  0  0  0  0
  1  2  1  0  0  0  0
  1  5  2  0  0  0  0
  2  6  2  0  0  0  0
  3  8  2  0  0  0  0
  3 17  1  0  0  0  0
  4  9  1  0  0  0  0
  4 17  2  0  0  0  0
  5 19  1  0  0  0  0
  6 21  1  0  0  0  0
  7 10  2  0  0  0  0
  7 20  1  0  0  0  0
  8 25  1  0  0  0  0
  9 25  2  0  0  0  0
 10 26  1  0  0  0  0
 11 12  2  0  0  0  0
 11 27  1  0  0  0  0
 12 29  1  0  0  0  0
 13 22  1  0  0  0  0
 13 26  2  0  0  0  0
 14 23  1  0  0  0  0
 14 28  2  0  0  0  0
 15 24  2  0  0  0  0
 15 31  1  0  0  0  0
 16 29  2  0  0  0  0
 16 30  1  0  0  0  0
 17 32  1  0  0  0  0
 18 32  1  0  0  0  0
 18 33  2  0  0  0  0
 18 34  1  0  0  0  0
 19 21  2  0  0  0  0
 19 40  1  0  0  0  0
 20 22  2  0  0  0  0
 20 41  1  0  0  0  0
 21 49  1  0  0  0  0
 22 42  1  0  0  0  0
 23 31  2  0  0  0  0
 23 69  1  0  0  0  0
 24 28  1  0  0  0  0
 24 70  1  0  0  0  0
 25 80  1  0  0  0  0
 26 82  1  0  0  0  0
 27 30  2  0  0  0  0
 27 80  1  0  0  0  0
 28 81  1  0  0  0  0
 29 83  1  0  0  0  0
 30 84  1  0  0  0  0
 31 85  1  0  0  0  0
 32 63  2  0  0  0  0
 33 64  1  0  0  0  0
 33 67  1  0  0  0  0
 34 68  1  0  0  0  0
 34 74  2  0  0  0  0
 35 50  1  0  0  0  0
 35 71  1  0  0  0  0
 35 75  2  0  0  0  0
 36 60  1  0  0  0  0
 36 65  1  0  0  0  0
 36 76  2  0  0  0  0
 37 58  1  0  0  0  0
 37 69  1  0  0  0  0
 37 77  2  0  0  0  0
 38 61  1  0  0  0  0
 38 72  1  0  0  0  0
 38 78  2  0  0  0  0
 39 66  1  0  0  0  0
 39 70  1  0  0  0  0
 39 79  2  0  0  0  0
 40 43  1  0  0  0  0
 41 50  1  0  0  0  0
 42 65  1  0  0  0  0
 43 45  1  0  0  0  0
 44 46  1  0  0  0  0
 44 47  1  0  0  0  0
 45 49  1  0  0  0  0
 46 51  1  0  0  0  0
 47 66  1  0  0  0  0
 48 51  1  0  0  0  0
 48 66  1  0  0  0  0
 49 71  1  0  0  0  0
 50 65  1  0  0  0  0
 51 64  1  0  0  0  0
 52 61  1  0  0  0  0
 53 62  1  0  0  0  0
 54 62  1  0  0  0  0
 55 62  1  0  0  0  0
 56 73  1  0  0  0  0
 57 81  1  0  0  0  0
 58 59  1  0  0  0  0
 59 82  1  0  0  0  0
 60 62  1  0  0  0  0
 60 72  1  0  0  0  0
 61 73  1  0  0  0  0
 63 64  1  0  0  0  0
M  CHG  1  73   1
M  ISO  4  39 100  59 101  70 100  82 101
M  END
> <Batch ID>
0005

> <Smiles>
CNC(C)C(=O)NC(C(=O)N1Cc2cc([101O:1][101CH2:1]CC(=O)Nc3cc(OC)c([100NH:0][100C:0](=O)N4CCCC(n5nc(-c6ccc(Oc7ccc(F)cc7F)cc6)c(C(N)=O)c5N)C4)cc3Cl)ccc2CC1C(=O)NC1CCCc2ccccc21)C(C)(C)C

> <Shape>
0.213

> <Color>
0.190

> <Negative vol penalty>
0.000

$$$$

  -OEChem-04052315263D

 86 94  0     1  0  0  0  0  0999 V2000
  -21.6948  -11.3284   19.9607 C   0  0  0  0  0  0  0  0  0  0  0  0
  -21.5036  -12.5672   20.5642 C   0  0  0  0  0  0  0  0  0  0  0  0
  -19.5438  -29.5334   21.3787 C   0  0  0  0  0  0  0  0  0  0  0  0
  -24.3404  -23.9320   20.0173 C   0  0  0  0  0  0  0  0  0  0  0  0
  -25.1251  -24.7599   17.8875 C   0  0  0  0  0  0  0  0  0  0  0  0
  -22.9855  -10.8301   19.7881 C   0  0  0  0  0  0  0  0  0  0  0  0
  -22.6031  -13.3080   20.9964 C   0  0  0  0  0  0  0  0  0  0  0  0
  -23.1800  -19.4049   20.9565 C   0  0  0  0  0  0  0  0  0  0  0  0
  -19.1656  -28.2295   21.6987 C   0  0  0  0  0  0  0  0  0  0  0  0
  -20.5892  -30.1459   22.0698 C   0  0  0  0  0  0  0  0  0  0  0  0
  -23.7416  -22.8481   19.3753 C   0  0  0  0  0  0  0  0  0  0  0  0
  -24.5263  -23.6759   17.2455 C   0  0  0  0  0  0  0  0  0  0  0  0
  -23.0112  -20.3695   21.9488 C   0  0  0  0  0  0  0  0  0  0  0  0
  -23.5112  -20.9346   15.0838 C   0  0  0  0  0  0  0  0  0  0  0  0
  -24.2512  -20.2690   14.1066 C   0  0  0  0  0  0  0  0  0  0  0  0
  -25.3839  -20.3298   22.3826 C   0  0  0  0  0  0  0  0  0  0  0  0
  -20.8782  -28.1506   23.4011 C   0  0  0  0  0  0  0  0  0  0  0  0
  -25.9421  -19.7380   15.7486 C   0  0  0  0  0  0  0  0  0  0  0  0
  -25.0321  -24.8879   19.2734 C   0  0  0  0  0  0  0  0  0  0  0  0
  -26.9611  -26.0769   20.4452 C   0  0  0  0  0  0  0  0  0  0  0  0
  -24.1018  -11.5695   20.2097 C   0  0  0  0  0  0  0  0  0  0  0  0
  -24.4527  -18.8866   20.6768 C   0  0  0  0  0  0  0  0  0  0  0  0
  -23.9099  -12.8185   20.8305 C   0  0  0  0  0  0  0  0  0  0  0  0
  -25.5665  -19.3605   21.3845 C   0  0  0  0  0  0  0  0  0  0  0  0
  -19.8328  -27.5381   22.7099 C   0  0  0  0  0  0  0  0  0  0  0  0
  -21.2564  -29.4545   23.0810 C   0  0  0  0  0  0  0  0  0  0  0  0
  -23.8345  -22.7200   17.9895 C   0  0  0  0  0  0  0  0  0  0  0  0
  -24.1128  -20.8300   22.6640 C   0  0  0  0  0  0  0  0  0  0  0  0
  -23.9867  -21.0019   16.3935 C   0  0  0  0  0  0  0  0  0  0  0  0
  -25.4666  -19.6707   14.4389 C   0  0  0  0  0  0  0  0  0  0  0  0
  -25.2021  -20.4036   16.7258 C   0  0  0  0  0  0  0  0  0  0  0  0
  -25.6505  -26.0081   19.9359 C   0  0  0  0  0  0  0  0  0  0  0  0
  -27.0588  -27.3416   20.9719 C   0  0  0  0  0  0  0  0  0  0  0  0
  -27.9975  -25.0862   20.4425 C   0  0  0  0  0  0  0  0  0  0  0  0
  -25.7830  -16.0035   20.8256 C   0  0  0  0  0  0  0  0  0  0  0  0
  -28.2917  -17.5174   19.4339 C   0  0  0  0  0  0  0  0  0  0  0  0
  -29.9522  -20.4424   18.8559 C   0  0  0  0  0  0  0  0  0  0  0  0
  -23.1555  -31.0593   23.1765 C   0  0  0  0  0  0  0  0  0  0  0  0
  -22.2399  -24.3849   23.4718 C   0  0  0  0  0  0  0  0  0  0  0  0
  -25.4751  -10.9684   20.0446 C   0  0  0  0  0  0  0  0  0  0  0  0
  -24.6217  -17.8659   19.5850 C   0  0  0  0  0  0  0  0  0  0  0  0
  -26.9568  -18.8511   21.1086 C   0  0  0  0  0  0  0  0  0  0  0  0
  -26.6059  -11.9833   20.1915 C   0  0  0  0  0  0  0  0  0  0  0  0
  -25.3323  -31.7654   20.4551 C   0  0  0  0  0  0  0  0  0  0  0  0
  -26.3794  -12.8611   21.4182 C   0  0  0  0  0  0  0  0  0  0  0  0
  -25.7825  -30.3610   20.0544 C   0  0  0  0  0  0  0  0  0  0  0  0
  -23.8538  -31.8037   20.8430 C   0  0  0  0  0  0  0  0  0  0  0  0
  -23.9306  -29.4148   21.4848 C   0  0  0  0  0  0  0  0  0  0  0  0
  -25.0785  -13.6629   21.2903 C   0  0  1  0  0  0  0  0  0  0  0  0
  -25.8910  -17.0333   19.7367 C   0  0  1  0  0  0  0  0  0  0  0  0
  -25.4271  -29.3350   21.1449 C   0  0  1  0  0  0  0  0  0  0  0  0
  -31.9918  -21.3577   17.7159 C   0  0  0  0  0  0  0  0  0  0  0  0
  -30.0365  -16.4327   21.6899 C   0  0  0  0  0  0  0  0  0  0  0  0
  -31.7825  -18.1098   21.0520 C   0  0  0  0  0  0  0  0  0  0  0  0
  -31.0913  -16.3509   19.4238 C   0  0  0  0  0  0  0  0  0  0  0  0
  -22.4299  -29.8917   25.2466 C   0  0  0  0  0  0  0  0  0  0  0  0
  -28.3280  -22.1563   17.0717 C   0  0  0  0  0  0  0  0  0  0  0  0
  -19.4232  -26.1275   23.0557 C   0  0  0  0  0  0  0  0  0  0  0  0
  -20.1770  -25.0736   22.2482 C   0  0  0  0  0  0  0  0  0  0  0  0
  -24.5154  -23.9790   24.3997 C   0  0  0  0  0  0  0  0  0  0  0  0
  -25.0432  -22.6595   23.8655 C   0  0  0  0  0  0  0  0  0  1  0  0
  -29.5089  -18.2545   19.9380 C   0  0  1  0  0  0  0  0  0  0  0  0
  -30.5086  -21.0498   17.5808 C   0  0  2  0  0  0  0  0  0  0  0  0
  -30.5785  -17.2954   20.5327 C   0  0  0  0  0  0  0  0  0  0  0  0
  -24.9648  -27.1391   20.1223 N   0  0  0  0  0  0  0  0  0  0  0  0
  -25.8479  -27.9305   20.7548 N   0  0  0  0  0  0  0  0  0  0  0  0
  -27.0697  -17.8490   20.0359 N   0  0  0  0  0  0  0  0  0  0  0  0
  -23.5541  -30.7812   21.8554 N   0  0  0  0  0  0  0  0  0  0  0  0
  -28.0615  -27.9963   21.5951 N   0  0  0  0  0  0  0  0  0  0  0  0
  -27.7290  -23.8400   19.8600 N   0  0  0  0  0  0  0  0  0  0  0  0
  -25.2662  -14.7927   20.4056 N   0  0  0  0  0  0  0  0  0  0  0  0
  -29.9867  -19.0644   18.8226 N   0  0  0  0  0  0  0  0  0  0  0  0
  -21.6033  -25.1179   22.4738 N   0  0  0  0  0  0  0  0  0  0  0  0
  -23.6168  -24.6112   23.4707 N   0  0  0  0  0  0  0  0  0  0  0  0
  -22.3390  -30.0887   23.7958 N   0  0  0  0  0  0  0  0  0  0  0  0
  -29.7935  -22.3161   17.2553 N   0  3  0  0  0  0  0  0  0  0  0  0
  -29.1227  -25.2940   20.9564 O   0  0  0  0  0  0  0  0  0  0  0  0
  -26.1432  -16.2861   21.9623 O   0  0  0  0  0  0  0  0  0  0  0  0
  -28.4194  -16.6834   18.5340 O   0  0  0  0  0  0  0  0  0  0  0  0
  -29.5325  -21.1224   19.7897 O   0  0  0  0  0  0  0  0  0  0  0  0
  -23.5219  -32.0829   23.7664 O   0  0  0  0  0  0  0  0  0  0  0  0
  -21.6650  -23.6318   24.2566 O   0  0  0  0  0  0  0  0  0  0  0  0
  -23.2505  -21.6623   17.3627 O   0  0  0  0  0  0  0  0  0  0  0  0
  -23.9508  -21.7711   23.6336 O   0  0  0  0  0  0  0  0  0  1  0  0
  -26.1764  -19.0303   13.5007 F   0  0  0  0  0  0  0  0  0  0  0  0
  -25.6634  -20.4639   17.9826 F   0  0  0  0  0  0  0  0  0  0  0  0
  1  2  1  0  0  0  0
  1  6  2  0  0  0  0
  2  7  2  0  0  0  0
  3  9  2  0  0  0  0
  3 10  1  0  0  0  0
  4 11  2  0  0  0  0
  4 19  1  0  0  0  0
  5 12  1  0  0  0  0
  5 19  2  0  0  0  0
  6 21  1  0  0  0  0
  7 23  1  0  0  0  0
  8 13  2  0  0  0  0
  8 22  1  0  0  0  0
  9 25  1  0  0  0  0
 10 26  2  0  0  0  0
 11 27  1  0  0  0  0
 12 27  2  0  0  0  0
 13 28  1  0  0  0  0
 14 15  2  0  0  0  0
 14 29  1  0  0  0  0
 15 30  1  0  0  0  0
 16 24  1  0  0  0  0
 16 28  2  0  0  0  0
 17 25  2  0  0  0  0
 17 26  1  0  0  0  0
 18 30  2  0  0  0  0
 18 31  1  0  0  0  0
 19 32  1  0  0  0  0
 20 32  1  0  0  0  0
 20 33  2  0  0  0  0
 20 34  1  0  0  0  0
 21 23  2  0  0  0  0
 21 40  1  0  0  0  0
 22 24  2  0  0  0  0
 22 41  1  0  0  0  0
 23 49  1  0  0  0  0
 24 42  1  0  0  0  0
 25 58  1  0  0  0  0
 26 75  1  0  0  0  0
 27 83  1  0  0  0  0
 28 84  1  0  0  0  0
 29 31  2  0  0  0  0
 29 83  1  0  0  0  0
 30 85  1  0  0  0  0
 31 86  1  0  0  0  0
 32 65  2  0  0  0  0
 33 66  1  0  0  0  0
 33 69  1  0  0  0  0
 34 70  1  0  0  0  0
 34 77  2  0  0  0  0
 35 50  1  0  0  0  0
 35 71  1  0  0  0  0
 35 78  2  0  0  0  0
 36 62  1  0  0  0  0
 36 67  1  0  0  0  0
 36 79  2  0  0  0  0
 37 63  1  0  0  0  0
 37 72  1  0  0  0  0
 37 80  2  0  0  0  0
 38 68  1  0  0  0  0
 38 75  1  0  0  0  0
 38 81  2  0  0  0  0
 39 73  1  0  0  0  0
 39 74  1  0  0  0  0
 39 82  2  0  0  0  0
 40 43  1  0  0  0  0
 41 50  1  0  0  0  0
 42 67  1  0  0  0  0
 43 45  1  0  0  0  0
 44 46  1  0  0  0  0
 44 47  1  0  0  0  0
 45 49  1  0  0  0  0
 46 51  1  0  0  0  0
 47 68  1  0  0  0  0
 48 51  1  0  0  0  0
 48 68  1  0  0  0  0
 49 71  1  0  0  0  0
 50 67  1  0  0  0  0
 51 66  1  0  0  0  0
 52 63  1  0  0  0  0
 53 64  1  0  0  0  0
 54 64  1  0  0  0  0
 55 64  1  0  0  0  0
 56 75  1  0  0  0  0
 57 76  1  0  0  0  0
 58 59  1  0  0  0  0
 59 73  1  0  0  0  0
 60 61  1  0  0  0  0
 60 74  1  0  0  0  0
 61 84  1  0  0  0  0
 62 64  1  0  0  0  0
 62 72  1  0  0  0  0
 63 76  1  0  0  0  0
 65 66  1  0  0  0  0
M  CHG  1  76   1
M  ISO  4  38 100  61 101  75 100  84 101
M  END
> <Batch ID>
0005

> <Smiles>
CNC(C)C(=O)NC(C(=O)N1Cc2cc([101O:1][101CH2:1]CNC(=O)NCCc3cccc([100N:0](C)[100C:0](=O)N4CCCC(n5nc(-c6ccc(Oc7ccc(F)cc7F)cc6)c(C(N)=O)c5N)C4)c3)ccc2CC1C(=O)NC1CCCc2ccccc21)C(C)(C)C

> <Shape>
0.224

> <Color>
0.086

> <Negative vol penalty>
0.000

$$$$

  -OEChem-04052315263D

 85 93  0     1  0  0  0  0  0999 V2000
  -27.3205  -30.9576   28.3564 C   0  0  0  0  0  0  0  0  0  0  0  0
  -27.5259  -30.1006   27.2800 C   0  0  0  0  0  0  0  0  0  0  0  0
  -30.2403  -13.9839   21.9052 C   0  0  0  0  0  0  0  0  0  0  0  0
  -23.2841   -6.3198   18.9026 C   0  0  0  0  0  0  0  0  0  0  0  0
  -25.4668   -6.4260   19.9329 C   0  0  0  0  0  0  0  0  0  0  0  0
  -26.0474  -31.4684   28.6064 C   0  0  0  0  0  0  0  0  0  0  0  0
  -26.4580  -29.7529   26.4534 C   0  0  0  0  0  0  0  0  0  0  0  0
  -27.6567  -29.9653   21.5379 C   0  0  0  0  0  0  0  0  0  0  0  0
  -28.9224  -13.5279   21.8767 C   0  0  0  0  0  0  0  0  0  0  0  0
  -30.5808  -15.1735   21.2614 C   0  0  0  0  0  0  0  0  0  0  0  0
  -23.7042   -5.2418   18.1236 C   0  0  0  0  0  0  0  0  0  0  0  0
  -25.8870   -5.3479   19.1539 C   0  0  0  0  0  0  0  0  0  0  0  0
  -28.3963  -28.9046   21.0165 C   0  0  0  0  0  0  0  0  0  0  0  0
  -24.1754   -1.9169   18.5187 C   0  0  0  0  0  0  0  0  0  0  0  0
  -23.3161   -0.8238   18.4073 C   0  0  0  0  0  0  0  0  0  0  0  0
  -26.3764  -27.9531   20.1032 C   0  0  0  0  0  0  0  0  0  0  0  0
  -28.2855  -15.4511   20.5603 C   0  0  0  0  0  0  0  0  0  0  0  0
  -23.2306   -1.1351   16.0130 C   0  0  0  0  0  0  0  0  0  0  0  0
  -24.1654   -6.9120   19.8073 C   0  0  0  0  0  0  0  0  0  0  0  0
  -23.1339   -7.9733   21.8851 C   0  0  0  0  0  0  0  0  0  0  0  0
  -24.9654  -31.1344   27.7768 C   0  0  0  0  0  0  0  0  0  0  0  0
  -26.2676  -30.0222   21.3549 C   0  0  0  0  0  0  0  0  0  0  0  0
  -25.1690  -30.2586   26.6933 C   0  0  0  0  0  0  0  0  0  0  0  0
  -25.6219  -29.0169   20.6211 C   0  0  0  0  0  0  0  0  0  0  0  0
  -27.9450  -14.2615   21.2043 C   0  0  0  0  0  0  0  0  0  0  0  0
  -25.0056   -4.7558   18.2492 C   0  0  0  0  0  0  0  0  0  0  0  0
  -27.7557  -27.8968   20.3015 C   0  0  0  0  0  0  0  0  0  0  0  0
  -29.6034  -15.9071   20.5889 C   0  0  0  0  0  0  0  0  0  0  0  0
  -24.5622   -2.6192   17.3772 C   0  0  0  0  0  0  0  0  0  0  0  0
  -22.8438   -0.4329   17.1545 C   0  0  0  0  0  0  0  0  0  0  0  0
  -24.0898   -2.2283   16.1244 C   0  0  0  0  0  0  0  0  0  0  0  0
  -23.7321   -8.0260   20.6119 C   0  0  0  0  0  0  0  0  0  0  0  0
  -22.9146   -9.2881   22.2162 C   0  0  0  0  0  0  0  0  0  0  0  0
  -22.8059   -6.8373   22.6961 C   0  0  0  0  0  0  0  0  0  0  0  0
  -23.7475  -30.0074   23.2920 C   0  0  0  0  0  0  0  0  0  0  0  0
  -22.1184  -30.5491   20.5397 C   0  0  0  0  0  0  0  0  0  0  0  0
  -22.0095  -30.2898   17.1385 C   0  0  0  0  0  0  0  0  0  0  0  0
  -25.5153  -14.4046   20.5542 C   0  0  0  0  0  0  0  0  0  0  0  0
  -23.5981  -31.6738   28.1147 C   0  0  0  0  0  0  0  0  0  0  0  0
  -25.4880  -31.1869   21.9008 C   0  0  0  0  0  0  0  0  0  0  0  0
  -24.1355  -29.0420   20.3793 C   0  0  0  0  0  0  0  0  0  0  0  0
  -22.5958  -31.5536   26.9696 C   0  0  0  0  0  0  0  0  0  0  0  0
  -22.0720  -13.5609   20.2243 C   0  0  0  0  0  0  0  0  0  0  0  0
  -22.6551  -30.1599   26.3523 C   0  0  0  0  0  0  0  0  0  0  0  0
  -22.0518  -12.0417   20.4082 C   0  0  0  0  0  0  0  0  0  0  0  0
  -23.3143  -14.0238   19.4653 C   0  0  0  0  0  0  0  0  0  0  0  0
  -24.5708  -12.0379   20.2047 C   0  0  0  0  0  0  0  0  0  0  0  0
  -24.0408  -29.8777   25.7594 C   0  0  1  0  0  0  0  0  0  0  0  0
  -24.0068  -30.8765   22.0941 C   0  0  1  0  0  0  0  0  0  0  0  0
  -23.3706  -11.5306   21.0206 C   0  0  2  0  0  0  0  0  0  0  0  0
  -20.5324  -30.7857   15.1714 C   0  0  0  0  0  0  0  0  0  0  0  0
  -20.3783  -28.1434   21.2431 C   0  0  0  0  0  0  0  0  0  0  0  0
  -19.5874  -28.1090   18.8679 C   0  0  0  0  0  0  0  0  0  0  0  0
  -19.1288  -30.0960   20.3047 C   0  0  0  0  0  0  0  0  0  0  0  0
  -24.0092  -32.1200   15.9507 C   0  0  0  0  0  0  0  0  0  0  0  0
  -29.1815  -21.9532   19.7862 C   0  0  0  0  0  0  0  0  0  0  0  0
  -28.1821  -23.1101   19.6998 C   0  0  0  0  0  0  0  0  0  0  0  0
  -28.5196  -20.5734   19.7567 C   0  0  0  0  0  0  0  0  0  0  0  0
  -28.8357  -24.4871   19.8034 C   0  0  0  0  0  0  0  0  0  0  0  0
  -29.5638  -19.4572   19.8658 C   0  0  0  0  0  0  0  0  0  0  0  0
  -27.8087  -25.6039   19.6723 C   0  0  0  0  0  0  0  0  0  1  0  0
  -28.9287  -18.0721   19.8725 C   0  0  0  0  0  0  0  0  0  0  0  0
  -21.4831  -29.6767   19.4840 C   0  0  1  0  0  0  0  0  0  0  0  0
  -21.6528  -31.2992   16.0623 C   0  0  2  0  0  0  0  0  0  0  0  0
  -20.1721  -29.0045   19.9810 C   0  0  0  0  0  0  0  0  0  0  0  0
  -23.8831   -9.2754   20.1645 N   0  0  0  0  0  0  0  0  0  0  0  0
  -23.3765  -10.0199   21.1620 N   0  0  0  0  0  0  0  0  0  0  0  0
  -23.4160  -30.1984   20.9385 N   0  0  0  0  0  0  0  0  0  0  0  0
  -24.5253  -13.5052   20.1052 N   0  0  0  0  0  0  0  0  0  0  0  0
  -22.3736   -9.8780   23.3032 N   0  0  0  0  0  0  0  0  0  0  0  0
  -23.0994   -5.5581   22.2043 N   0  0  0  0  0  0  0  0  0  0  0  0
  -26.6063  -13.7980   21.1758 N   0  0  0  0  0  0  0  0  0  0  0  0
  -24.1908  -30.5463   24.4847 N   0  0  0  0  0  0  0  0  0  0  0  0
  -21.3127  -30.5201   18.3059 N   0  0  0  0  0  0  0  0  0  0  0  0
  -22.8392  -31.5859   15.2072 N   0  3  0  0  0  0  0  0  0  0  0  0
  -22.2534   -6.9525   23.8164 O   0  0  0  0  0  0  0  0  0  0  0  0
  -23.1853  -28.9285   23.1453 O   0  0  0  0  0  0  0  0  0  0  0  0
  -21.4894  -31.5106   20.9885 O   0  0  0  0  0  0  0  0  0  0  0  0
  -22.8221  -29.3851   16.9602 O   0  0  0  0  0  0  0  0  0  0  0  0
  -25.3909  -15.6250   20.4230 O   0  0  0  0  0  0  0  0  0  0  0  0
  -25.4159   -3.7037   17.4894 O   0  0  0  0  0  0  0  0  0  0  0  0
  -28.4751  -26.8601   19.7920 O   0  0  0  0  0  0  0  0  0  1  0  0
  -29.9380  -17.0763   19.9559 O   0  0  0  0  0  0  0  0  0  0  0  0
  -22.0199    0.6178   17.0475 F   0  0  0  0  0  0  0  0  0  0  0  0
  -24.4588   -2.8983   15.0241 F   0  0  0  0  0  0  0  0  0  0  0  0
  1  2  1  0  0  0  0
  1  6  2  0  0  0  0
  2  7  2  0  0  0  0
  3  9  1  0  0  0  0
  3 10  2  0  0  0  0
  4 11  2  0  0  0  0
  4 19  1  0  0  0  0
  5 12  1  0  0  0  0
  5 19  2  0  0  0  0
  6 21  1  0  0  0  0
  7 23  1  0  0  0  0
  8 13  2  0  0  0  0
  8 22  1  0  0  0  0
  9 25  2  0  0  0  0
 10 28  1  0  0  0  0
 11 26  1  0  0  0  0
 12 26  2  0  0  0  0
 13 27  1  0  0  0  0
 14 15  2  0  0  0  0
 14 29  1  0  0  0  0
 15 30  1  0  0  0  0
 16 24  1  0  0  0  0
 16 27  2  0  0  0  0
 17 25  1  0  0  0  0
 17 28  2  0  0  0  0
 18 30  2  0  0  0  0
 18 31  1  0  0  0  0
 19 32  1  0  0  0  0
 20 32  1  0  0  0  0
 20 33  2  0  0  0  0
 20 34  1  0  0  0  0
 21 23  2  0  0  0  0
 21 39  1  0  0  0  0
 22 24  2  0  0  0  0
 22 40  1  0  0  0  0
 23 48  1  0  0  0  0
 24 41  1  0  0  0  0
 25 72  1  0  0  0  0
 26 81  1  0  0  0  0
 27 82  1  0  0  0  0
 28 83  1  0  0  0  0
 29 31  2  0  0  0  0
 29 81  1  0  0  0  0
 30 84  1  0  0  0  0
 31 85  1  0  0  0  0
 32 66  2  0  0  0  0
 33 67  1  0  0  0  0
 33 70  1  0  0  0  0
 34 71  1  0  0  0  0
 34 76  2  0  0  0  0
 35 49  1  0  0  0  0
 35 73  1  0  0  0  0
 35 77  2  0  0  0  0
 36 63  1  0  0  0  0
 36 68  1  0  0  0  0
 36 78  2  0  0  0  0
 37 64  1  0  0  0  0
 37 74  1  0  0  0  0
 37 79  2  0  0  0  0
 38 69  1  0  0  0  0
 38 72  1  0  0  0  0
 38 80  2  0  0  0  0
 39 42  1  0  0  0  0
 40 49  1  0  0  0  0
 41 68  1  0  0  0  0
 42 44  1  0  0  0  0
 43 45  1  0  0  0  0
 43 46  1  0  0  0  0
 44 48  1  0  0  0  0
 45 50  1  0  0  0  0
 46 69  1  0  0  0  0
 47 50  1  0  0  0  0
 47 69  1  0  0  0  0
 48 73  1  0  0  0  0
 49 68  1  0  0  0  0
 50 67  1  0  0  0  0
 51 64  1  0  0  0  0
 52 65  1  0  0  0  0
 53 65  1  0  0  0  0
 54 65  1  0  0  0  0
 55 75  1  0  0  0  0
 56 57  1  0  0  0  0
 56 58  1  0  0  0  0
 57 59  1  0  0  0  0
 58 60  1  0  0  0  0
 59 61  1  0  0  0  0
 60 62  1  0  0  0  0
 61 82  1  0  0  0  0
 62 83  1  0  0  0  0
 63 65  1  0  0  0  0
 63 74  1  0  0  0  0
 64 75  1  0  0  0  0
 66 67  1  0  0  0  0
M  CHG  1  75   1
M  ISO  4  38 100  61 101  72 100  82 101
M  END
> <Batch ID>
0005

> <Smiles>
CNC(C)C(=O)NC(C(=O)N1Cc2cc([101O:1][101CH2:1]CCCCCCOc3cccc([100NH:0][100C:0](=O)N4CCCC(n5nc(-c6ccc(Oc7ccc(F)cc7F)cc6)c(C(N)=O)c5N)C4)c3)ccc2CC1C(=O)NC1CCCc2ccccc21)C(C)(C)C

> <Shape>
0.254

> <Color>
0.103

> <Negative vol penalty>
0.000

$$$$

  -OEChem-04052315263D

 80 88  0     1  0  0  0  0  0999 V2000
  -23.6037  -32.7327   26.6389 C   0  0  0  0  0  0  0  0  0  0  0  0
  -24.8776  -32.2842   26.3049 C   0  0  0  0  0  0  0  0  0  0  0  0
  -24.0384   -9.7255   21.7182 C   0  0  0  0  0  0  0  0  0  0  0  0
  -24.6425  -10.9968   23.6819 C   0  0  0  0  0  0  0  0  0  0  0  0
  -22.4822  -32.0179   26.2204 C   0  0  0  0  0  0  0  0  0  0  0  0
  -25.0306  -31.1199   25.5529 C   0  0  0  0  0  0  0  0  0  0  0  0
  -29.3094  -28.1866   20.6129 C   0  0  0  0  0  0  0  0  0  0  0  0
  -28.4287  -19.3882   20.5060 C   0  0  0  0  0  0  0  0  0  0  0  0
  -30.7877  -18.9562   20.2141 C   0  0  0  0  0  0  0  0  0  0  0  0
  -23.6100   -8.6752   22.5300 C   0  0  0  0  0  0  0  0  0  0  0  0
  -24.2141   -9.9465   24.4937 C   0  0  0  0  0  0  0  0  0  0  0  0
  -30.0416  -27.0241   20.3755 C   0  0  0  0  0  0  0  0  0  0  0  0
  -28.7132  -20.7096   20.8503 C   0  0  0  0  0  0  0  0  0  0  0  0
  -31.0723  -20.2777   20.5583 C   0  0  0  0  0  0  0  0  0  0  0  0
  -20.8982   -7.9212   24.4037 C   0  0  0  0  0  0  0  0  0  0  0  0
  -19.6779   -7.3201   24.0957 C   0  0  0  0  0  0  0  0  0  0  0  0
  -28.0298  -25.9145   19.6402 C   0  0  0  0  0  0  0  0  0  0  0  0
  -20.7990   -5.2023   23.7872 C   0  0  0  0  0  0  0  0  0  0  0  0
  -24.5547  -10.8863   22.2942 C   0  0  0  0  0  0  0  0  0  0  0  0
  -24.2291  -13.0552   20.9913 C   0  0  0  0  0  0  0  0  0  0  0  0
  -22.6213  -30.8496   25.4547 C   0  0  0  0  0  0  0  0  0  0  0  0
  -27.9277  -28.2185   20.3757 C   0  0  0  0  0  0  0  0  0  0  0  0
  -23.9099  -30.3881   25.1249 C   0  0  0  0  0  0  0  0  0  0  0  0
  -27.2828  -27.0794   19.8730 C   0  0  0  0  0  0  0  0  0  0  0  0
  -29.4659  -18.5115   20.1880 C   0  0  0  0  0  0  0  0  0  0  0  0
  -23.6979   -8.7857   23.9177 C   0  0  0  0  0  0  0  0  0  0  0  0
  -30.0350  -21.1544   20.8764 C   0  0  0  0  0  0  0  0  0  0  0  0
  -29.4013  -25.8869   19.8918 C   0  0  0  0  0  0  0  0  0  0  0  0
  -22.0690   -7.1629   24.4033 C   0  0  0  0  0  0  0  0  0  0  0  0
  -19.6282   -5.9606   23.7875 C   0  0  0  0  0  0  0  0  0  0  0  0
  -22.0194   -5.8035   24.0952 C   0  0  0  0  0  0  0  0  0  0  0  0
  -24.9979  -11.9714   21.4562 C   0  0  0  0  0  0  0  0  0  0  0  0
  -25.1050  -13.8005   20.2404 C   0  0  0  0  0  0  0  0  0  0  0  0
  -22.8468  -13.3610   21.2181 C   0  0  0  0  0  0  0  0  0  0  0  0
  -25.3524  -28.6868   22.1791 C   0  0  0  0  0  0  0  0  0  0  0  0
  -23.8160  -28.5983   19.3236 C   0  0  0  0  0  0  0  0  0  0  0  0
  -23.8009  -27.5601   16.0727 C   0  0  0  0  0  0  0  0  0  0  0  0
  -30.0881  -16.1705   19.4959 C   0  0  0  0  0  0  0  0  0  0  0  0
  -21.3810  -30.0848   25.0655 C   0  0  0  0  0  0  0  0  0  0  0  0
  -27.1569  -29.4884   20.6116 C   0  0  0  0  0  0  0  0  0  0  0  0
  -25.8050  -27.0680   19.5827 C   0  0  0  0  0  0  0  0  0  0  0  0
  -21.6176  -29.0659   23.9537 C   0  0  0  0  0  0  0  0  0  0  0  0
  -29.7771  -12.7363   18.6092 C   0  0  0  0  0  0  0  0  0  0  0  0
  -22.8728  -28.2471   24.2383 C   0  0  0  0  0  0  0  0  0  0  0  0
  -28.4427  -12.3203   19.2326 C   0  0  0  0  0  0  0  0  0  0  0  0
  -30.5327  -13.7256   19.4945 C   0  0  0  0  0  0  0  0  0  0  0  0
  -28.4296  -14.4937   20.5222 C   0  0  0  0  0  0  0  0  0  0  0  0
  -24.1161  -29.1431   24.2896 C   0  0  1  0  0  0  0  0  0  0  0  0
  -25.6647  -29.2513   20.8221 C   0  0  1  0  0  0  0  0  0  0  0  0
  -27.6025  -13.5476   19.6365 C   0  0  2  0  0  0  0  0  0  0  0  0
  -22.3923  -27.6068   13.9963 C   0  0  0  0  0  0  0  0  0  0  0  0
  -22.0062  -26.4448   20.5056 C   0  0  0  0  0  0  0  0  0  0  0  0
  -21.2844  -25.8720   18.1778 C   0  0  0  0  0  0  0  0  0  0  0  0
  -20.8257  -28.1437   19.1006 C   0  0  0  0  0  0  0  0  0  0  0  0
  -25.8720  -29.0381   14.5612 C   0  0  0  0  0  0  0  0  0  0  0  0
  -31.4746  -23.0311   20.6290 C   0  0  0  0  0  0  0  0  0  0  0  0
  -31.2605  -24.5247   20.4780 C   0  0  0  0  0  0  0  0  0  1  0  0
  -23.1936  -27.5139   18.4776 C   0  0  1  0  0  0  0  0  0  0  0  0
  -23.4968  -28.2975   14.7811 C   0  0  2  0  0  0  0  0  0  0  0  0
  -21.8550  -26.9929   19.0726 C   0  0  0  0  0  0  0  0  0  0  0  0
  -26.2647  -12.0199   21.0356 N   0  0  0  0  0  0  0  0  0  0  0  0
  -26.2986  -13.1431   20.2986 N   0  0  0  0  0  0  0  0  0  0  0  0
  -25.0938  -28.3320   19.8355 N   0  0  0  0  0  0  0  0  0  0  0  0
  -29.6758  -14.8640   19.8332 N   0  0  0  0  0  0  0  0  0  0  0  0
  -24.9629  -14.9473   19.5425 N   0  0  0  0  0  0  0  0  0  0  0  0
  -22.0914  -12.4891   22.0140 N   0  0  0  0  0  0  0  0  0  0  0  0
  -29.1770  -17.1691   19.8384 N   0  0  0  0  0  0  0  0  0  0  0  0
  -24.5408  -29.4954   22.9517 N   0  0  0  0  0  0  0  0  0  0  0  0
  -23.0753  -28.0638   17.1314 N   0  0  0  0  0  0  0  0  0  0  0  0
  -24.7133  -28.3622   13.9228 N   0  3  0  0  0  0  0  0  0  0  0  0
  -22.2936  -14.3687   20.7159 O   0  0  0  0  0  0  0  0  0  0  0  0
  -25.8125  -27.5975   22.5008 O   0  0  0  0  0  0  0  0  0  0  0  0
  -23.1943  -29.6461   19.5170 O   0  0  0  0  0  0  0  0  0  0  0  0
  -24.5992  -26.6277   16.1352 O   0  0  0  0  0  0  0  0  0  0  0  0
  -31.1575  -16.3850   18.9194 O   0  0  0  0  0  0  0  0  0  0  0  0
  -23.2797   -7.7611   24.7101 O   0  0  0  0  0  0  0  0  0  0  0  0
  -30.3146  -22.4523   21.2145 O   0  0  0  0  0  0  0  0  0  0  0  0
  -30.1134  -24.7508   19.6598 O   0  0  0  0  0  0  0  0  0  1  0  0
  -18.4560   -5.3831   23.4933 F   0  0  0  0  0  0  0  0  0  0  0  0
  -23.1406   -5.0696   24.0944 F   0  0  0  0  0  0  0  0  0  0  0  0
  1  2  1  0  0  0  0
  1  5  2  0  0  0  0
  2  6  2  0  0  0  0
  3 10  2  0  0  0  0
  3 19  1  0  0  0  0
  4 11  1  0  0  0  0
  4 19  2  0  0  0  0
  5 21  1  0  0  0  0
  6 23  1  0  0  0  0
  7 12  2  0  0  0  0
  7 22  1  0  0  0  0
  8 13  2  0  0  0  0
  8 25  1  0  0  0  0
  9 14  1  0  0  0  0
  9 25  2  0  0  0  0
 10 26  1  0  0  0  0
 11 26  2  0  0  0  0
 12 28  1  0  0  0  0
 13 27  1  0  0  0  0
 14 27  2  0  0  0  0
 15 16  2  0  0  0  0
 15 29  1  0  0  0  0
 16 30  1  0  0  0  0
 17 24  1  0  0  0  0
 17 28  2  0  0  0  0
 18 30  2  0  0  0  0
 18 31  1  0  0  0  0
 19 32  1  0  0  0  0
 20 32  1  0  0  0  0
 20 33  2  0  0  0  0
 20 34  1  0  0  0  0
 21 23  2  0  0  0  0
 21 39  1  0  0  0  0
 22 24  2  0  0  0  0
 22 40  1  0  0  0  0
 23 48  1  0  0  0  0
 24 41  1  0  0  0  0
 25 67  1  0  0  0  0
 26 76  1  0  0  0  0
 27 77  1  0  0  0  0
 28 78  1  0  0  0  0
 29 31  2  0  0  0  0
 29 76  1  0  0  0  0
 30 79  1  0  0  0  0
 31 80  1  0  0  0  0
 32 61  2  0  0  0  0
 33 62  1  0  0  0  0
 33 65  1  0  0  0  0
 34 66  1  0  0  0  0
 34 71  2  0  0  0  0
 35 49  1  0  0  0  0
 35 68  1  0  0  0  0
 35 72  2  0  0  0  0
 36 58  1  0  0  0  0
 36 63  1  0  0  0  0
 36 73  2  0  0  0  0
 37 59  1  0  0  0  0
 37 69  1  0  0  0  0
 37 74  2  0  0  0  0
 38 64  1  0  0  0  0
 38 67  1  0  0  0  0
 38 75  2  0  0  0  0
 39 42  1  0  0  0  0
 40 49  1  0  0  0  0
 41 63  1  0  0  0  0
 42 44  1  0  0  0  0
 43 45  1  0  0  0  0
 43 46  1  0  0  0  0
 44 48  1  0  0  0  0
 45 50  1  0  0  0  0
 46 64  1  0  0  0  0
 47 50  1  0  0  0  0
 47 64  1  0  0  0  0
 48 68  1  0  0  0  0
 49 63  1  0  0  0  0
 50 62  1  0  0  0  0
 51 59  1  0  0  0  0
 52 60  1  0  0  0  0
 53 60  1  0  0  0  0
 54 60  1  0  0  0  0
 55 70  1  0  0  0  0
 56 57  1  0  0  0  0
 56 77  1  0  0  0  0
 57 78  1  0  0  0  0
 58 60  1  0  0  0  0
 58 69  1  0  0  0  0
 59 70  1  0  0  0  0
 61 62  1  0  0  0  0
M  CHG  1  70   1
M  ISO  4  38 100  57 101  67 100  78 101
M  END
> <Batch ID>
0005

> <Smiles>
CNC(C)C(=O)NC(C(=O)N1Cc2cc([101O:1][101CH2:1]COc3ccc([100NH:0][100C:0](=O)N4CCCC(n5nc(-c6ccc(Oc7ccc(F)cc7F)cc6)c(C(N)=O)c5N)C4)cc3)ccc2CC1C(=O)NC1CCCc2ccccc21)C(C)(C)C

> <Shape>
0.290

> <Color>
0.124

> <Negative vol penalty>
0.000

$$$$

  -OEChem-04052315263D

 84 92  0     1  0  0  0  0  0999 V2000
  -26.2997  -31.8182   28.7297 C   0  0  0  0  0  0  0  0  0  0  0  0
  -26.7871  -30.9238   27.7821 C   0  0  0  0  0  0  0  0  0  0  0  0
  -24.7625   -8.5857   21.4808 C   0  0  0  0  0  0  0  0  0  0  0  0
  -23.1521  -10.2425   20.7746 C   0  0  0  0  0  0  0  0  0  0  0  0
  -24.9522  -32.1758   28.7209 C   0  0  0  0  0  0  0  0  0  0  0  0
  -25.9268  -30.3856   26.8257 C   0  0  0  0  0  0  0  0  0  0  0  0
  -27.2891  -28.9822   21.0223 C   0  0  0  0  0  0  0  0  0  0  0  0
  -25.4108  -17.7857   18.7360 C   0  0  0  0  0  0  0  0  0  0  0  0
  -23.8444   -8.0871   22.4049 C   0  0  0  0  0  0  0  0  0  0  0  0
  -22.2339   -9.7439   21.6987 C   0  0  0  0  0  0  0  0  0  0  0  0
  -27.6192  -27.7786   20.4010 C   0  0  0  0  0  0  0  0  0  0  0  0
  -24.8116  -19.0392   18.8596 C   0  0  0  0  0  0  0  0  0  0  0  0
  -21.1216   -6.0825   22.3781 C   0  0  0  0  0  0  0  0  0  0  0  0
  -20.9700   -4.6983   22.4590 C   0  0  0  0  0  0  0  0  0  0  0  0
  -25.3171  -27.4966   19.7376 C   0  0  0  0  0  0  0  0  0  0  0  0
  -27.4188  -18.6436   19.7698 C   0  0  0  0  0  0  0  0  0  0  0  0
  -21.6439   -4.7601   24.7783 C   0  0  0  0  0  0  0  0  0  0  0  0
  -24.4164   -9.6634   20.6656 C   0  0  0  0  0  0  0  0  0  0  0  0
  -25.5318   -9.7721   18.3740 C   0  0  0  0  0  0  0  0  0  0  0  0
  -24.0769  -31.6491   27.7580 C   0  0  0  0  0  0  0  0  0  0  0  0
  -25.9662  -29.4475   21.0152 C   0  0  0  0  0  0  0  0  0  0  0  0
  -24.5659  -30.7354   26.8049 C   0  0  0  0  0  0  0  0  0  0  0  0
  -24.9733  -28.7077   20.3573 C   0  0  0  0  0  0  0  0  0  0  0  0
  -26.7144  -17.5878   19.1912 C   0  0  0  0  0  0  0  0  0  0  0  0
  -22.5801   -8.6662   22.5139 C   0  0  0  0  0  0  0  0  0  0  0  0
  -26.6326  -27.0341   19.7610 C   0  0  0  0  0  0  0  0  0  0  0  0
  -25.5160  -20.0949   19.4382 C   0  0  0  0  0  0  0  0  0  0  0  0
  -21.5345   -6.8055   23.4972 C   0  0  0  0  0  0  0  0  0  0  0  0
  -26.8197  -19.8971   19.8933 C   0  0  0  0  0  0  0  0  0  0  0  0
  -21.2311   -4.0371   23.6592 C   0  0  0  0  0  0  0  0  0  0  0  0
  -21.7956   -6.1443   24.6973 C   0  0  0  0  0  0  0  0  0  0  0  0
  -25.3646  -10.1792   19.7112 C   0  0  0  0  0  0  0  0  0  0  0  0
  -26.5507  -10.5616   17.8996 C   0  0  0  0  0  0  0  0  0  0  0  0
  -24.8289   -8.7700   17.6274 C   0  0  0  0  0  0  0  0  0  0  0  0
  -23.7962  -30.0721   23.2523 C   0  0  0  0  0  0  0  0  0  0  0  0
  -22.0882  -31.1906   20.7316 C   0  0  0  0  0  0  0  0  0  0  0  0
  -21.5124  -31.1338   17.3683 C   0  0  0  0  0  0  0  0  0  0  0  0
  -28.6080  -15.9489   19.4646 C   0  0  0  0  0  0  0  0  0  0  0  0
  -22.6185  -32.0289   27.8176 C   0  0  0  0  0  0  0  0  0  0  0  0
  -25.6314  -30.7611   21.6670 C   0  0  0  0  0  0  0  0  0  0  0  0
  -23.5419  -29.1734   20.3038 C   0  0  0  0  0  0  0  0  0  0  0  0
  -21.8514  -31.7026   26.5388 C   0  0  0  0  0  0  0  0  0  0  0  0
  -30.4600  -12.9098   19.3618 C   0  0  0  0  0  0  0  0  0  0  0  0
  -22.1782  -30.2896   26.0660 C   0  0  0  0  0  0  0  0  0  0  0  0
  -29.3788  -11.8278   19.3119 C   0  0  0  0  0  0  0  0  0  0  0  0
  -30.0483  -14.0825   20.2500 C   0  0  0  0  0  0  0  0  0  0  0  0
  -27.6622  -13.5935   19.8803 C   0  0  0  0  0  0  0  0  0  0  0  0
  -23.6692  -30.1493   25.7360 C   0  0  1  0  0  0  0  0  0  0  0  0
  -24.1574  -30.8841   22.0408 C   0  0  1  0  0  0  0  0  0  0  0  0
  -28.0041  -12.4213   18.9460 C   0  0  2  0  0  0  0  0  0  0  0  0
  -20.0266  -32.1277   15.6070 C   0  0  0  0  0  0  0  0  0  0  0  0
  -19.8139  -29.3616   21.6215 C   0  0  0  0  0  0  0  0  0  0  0  0
  -18.7763  -29.6691   19.3638 C   0  0  0  0  0  0  0  0  0  0  0  0
  -19.0911  -31.6341   20.8679 C   0  0  0  0  0  0  0  0  0  0  0  0
  -23.8079  -32.3602   15.9592 C   0  0  0  0  0  0  0  0  0  0  0  0
  -23.5861  -21.4328   19.0628 C   0  0  0  0  0  0  0  0  0  0  0  0
  -27.8321  -23.6296   19.4507 C   0  0  0  0  0  0  0  0  0  0  0  0
  -28.9619  -22.7947   20.0435 C   0  0  0  0  0  0  0  0  0  0  0  0
  -28.0384  -25.1166   19.7072 C   0  0  0  0  0  0  0  0  0  1  0  0
  -28.7347  -21.3056   19.8249 C   0  0  0  0  0  0  0  0  0  0  0  0
  -21.1066  -30.5901   19.7545 C   0  0  1  0  0  0  0  0  0  0  0  0
  -21.3442  -32.2526   16.3561 C   0  0  2  0  0  0  0  0  0  0  0  0
  -19.7235  -30.3037   20.4045 C   0  0  0  0  0  0  0  0  0  0  0  0
  -26.2097  -11.1517   20.0637 N   0  0  0  0  0  0  0  0  0  0  0  0
  -26.9178  -11.3621   18.9410 N   0  0  0  0  0  0  0  0  0  0  0  0
  -23.2633  -30.4610   20.9611 N   0  0  0  0  0  0  0  0  0  0  0  0
  -28.7387  -14.5957   19.8420 N   0  0  0  0  0  0  0  0  0  0  0  0
  -27.1596  -10.6421   16.6974 N   0  0  0  0  0  0  0  0  0  0  0  0
  -23.8101   -8.0516   18.2678 N   0  0  0  0  0  0  0  0  0  0  0  0
  -27.3230  -16.3145   19.0649 N   0  0  0  0  0  0  0  0  0  0  0  0
  -23.9600  -30.7436   24.4489 N   0  0  0  0  0  0  0  0  0  0  0  0
  -21.0548  -31.5010   18.6161 N   0  0  0  0  0  0  0  0  0  0  0  0
  -22.4544  -32.2232   15.3623 N   0  3  0  0  0  0  0  0  0  0  0  0
  -25.1074   -8.5078   16.4327 O   0  0  0  0  0  0  0  0  0  0  0  0
  -23.3970  -28.9221   23.1119 O   0  0  0  0  0  0  0  0  0  0  0  0
  -21.8254  -32.2709   21.2660 O   0  0  0  0  0  0  0  0  0  0  0  0
  -21.9975  -30.0420   17.0799 O   0  0  0  0  0  0  0  0  0  0  0  0
  -29.5714  -16.7196   19.4679 O   0  0  0  0  0  0  0  0  0  0  0  0
  -21.6839   -8.1798   23.4154 O   0  0  0  0  0  0  0  0  0  0  0  0
  -24.9203  -21.3146   19.5526 O   0  0  0  0  0  0  0  0  0  0  0  0
  -26.9520  -25.8586   19.1544 O   0  0  0  0  0  0  0  0  0  1  0  0
  -27.5227  -20.9270   20.4627 O   0  0  0  0  0  0  0  0  0  0  0  0
  -21.0839   -2.7080   23.7372 F   0  0  0  0  0  0  0  0  0  0  0  0
  -22.1914   -6.8337   25.7762 F   0  0  0  0  0  0  0  0  0  0  0  0
  1  2  1  0  0  0  0
  1  5  2  0  0  0  0
  2  6  2  0  0  0  0
  3  9  2  0  0  0  0
  3 18  1  0  0  0  0
  4 10  1  0  0  0  0
  4 18  2  0  0  0  0
  5 20  1  0  0  0  0
  6 22  1  0  0  0  0
  7 11  2  0  0  0  0
  7 21  1  0  0  0  0
  8 12  2  0  0  0  0
  8 24  1  0  0  0  0
  9 25  1  0  0  0  0
 10 25  2  0  0  0  0
 11 26  1  0  0  0  0
 12 27  1  0  0  0  0
 13 14  2  0  0  0  0
 13 28  1  0  0  0  0
 14 30  1  0  0  0  0
 15 23  1  0  0  0  0
 15 26  2  0  0  0  0
 16 24  2  0  0  0  0
 16 29  1  0  0  0  0
 17 30  2  0  0  0  0
 17 31  1  0  0  0  0
 18 32  1  0  0  0  0
 19 32  1  0  0  0  0
 19 33  2  0  0  0  0
 19 34  1  0  0  0  0
 20 22  2  0  0  0  0
 20 39  1  0  0  0  0
 21 23  2  0  0  0  0
 21 40  1  0  0  0  0
 22 48  1  0  0  0  0
 23 41  1  0  0  0  0
 24 70  1  0  0  0  0
 25 79  1  0  0  0  0
 26 81  1  0  0  0  0
 27 29  2  0  0  0  0
 27 80  1  0  0  0  0
 28 31  2  0  0  0  0
 28 79  1  0  0  0  0
 29 82  1  0  0  0  0
 30 83  1  0  0  0  0
 31 84  1  0  0  0  0
 32 64  2  0  0  0  0
 33 65  1  0  0  0  0
 33 68  1  0  0  0  0
 34 69  1  0  0  0  0
 34 74  2  0  0  0  0
 35 49  1  0  0  0  0
 35 71  1  0  0  0  0
 35 75  2  0  0  0  0
 36 61  1  0  0  0  0
 36 66  1  0  0  0  0
 36 76  2  0  0  0  0
 37 62  1  0  0  0  0
 37 72  1  0  0  0  0
 37 77  2  0  0  0  0
 38 67  1  0  0  0  0
 38 70  1  0  0  0  0
 38 78  2  0  0  0  0
 39 42  1  0  0  0  0
 40 49  1  0  0  0  0
 41 66  1  0  0  0  0
 42 44  1  0  0  0  0
 43 45  1  0  0  0  0
 43 46  1  0  0  0  0
 44 48  1  0  0  0  0
 45 50  1  0  0  0  0
 46 67  1  0  0  0  0
 47 50  1  0  0  0  0
 47 67  1  0  0  0  0
 48 71  1  0  0  0  0
 49 66  1  0  0  0  0
 50 65  1  0  0  0  0
 51 62  1  0  0  0  0
 52 63  1  0  0  0  0
 53 63  1  0  0  0  0
 54 63  1  0  0  0  0
 55 73  1  0  0  0  0
 56 80  1  0  0  0  0
 57 58  1  0  0  0  0
 57 59  1  0  0  0  0
 58 60  1  0  0  0  0
 59 81  1  0  0  0  0
 60 82  1  0  0  0  0
 61 63  1  0  0  0  0
 61 72  1  0  0  0  0
 62 73  1  0  0  0  0
 64 65  1  0  0  0  0
M  CHG  1  73   1
M  ISO  4  38 100  59 101  70 100  81 101
M  END
> <Batch ID>
0005

> <Smiles>
CNC(C)C(=O)NC(C(=O)N1Cc2cc([101O:1][101CH2:1]CCCOc3cc([100NH:0][100C:0](=O)N4CCCC(n5nc(-c6ccc(Oc7ccc(F)cc7F)cc6)c(C(N)=O)c5N)C4)ccc3OC)ccc2CC1C(=O)NC1CCCc2ccccc21)C(C)(C)C

> <Shape>
0.259

> <Color>
0.120

> <Negative vol penalty>
0.000

$$$$

  -OEChem-04052315263D

 82 90  0     1  0  0  0  0  0999 V2000
  -28.4353  -32.7061   28.2182 C   0  0  0  0  0  0  0  0  0  0  0  0
  -28.3458  -31.6820   27.2809 C   0  0  0  0  0  0  0  0  0  0  0  0
  -24.6068   -8.6828   21.4336 C   0  0  0  0  0  0  0  0  0  0  0  0
  -23.1647  -10.6099   21.2236 C   0  0  0  0  0  0  0  0  0  0  0  0
  -27.3849  -33.6115   28.3622 C   0  0  0  0  0  0  0  0  0  0  0  0
  -27.2053  -31.5621   26.4876 C   0  0  0  0  0  0  0  0  0  0  0  0
  -28.3058  -30.6897   21.6222 C   0  0  0  0  0  0  0  0  0  0  0  0
  -26.1556  -18.0367   19.7879 C   0  0  0  0  0  0  0  0  0  0  0  0
  -28.3999  -18.4803   20.5646 C   0  0  0  0  0  0  0  0  0  0  0  0
  -23.7770   -8.1705   22.4309 C   0  0  0  0  0  0  0  0  0  0  0  0
  -22.3349  -10.0975   22.2208 C   0  0  0  0  0  0  0  0  0  0  0  0
  -28.6745  -29.3905   21.2758 C   0  0  0  0  0  0  0  0  0  0  0  0
  -25.7701  -19.3223   20.1677 C   0  0  0  0  0  0  0  0  0  0  0  0
  -28.0144  -19.7659   20.9444 C   0  0  0  0  0  0  0  0  0  0  0  0
  -20.8206   -6.5402   22.6173 C   0  0  0  0  0  0  0  0  0  0  0  0
  -20.4844   -5.1882   22.5496 C   0  0  0  0  0  0  0  0  0  0  0  0
  -26.4414  -28.9805   20.4607 C   0  0  0  0  0  0  0  0  0  0  0  0
  -21.5037   -4.8265   24.7100 C   0  0  0  0  0  0  0  0  0  0  0  0
  -24.3007   -9.9026   20.8300 C   0  0  0  0  0  0  0  0  0  0  0  0
  -25.0599  -10.2084   18.4139 C   0  0  0  0  0  0  0  0  0  0  0  0
  -26.2350  -33.5084   27.5636 C   0  0  0  0  0  0  0  0  0  0  0  0
  -26.9969  -31.1413   21.4000 C   0  0  0  0  0  0  0  0  0  0  0  0
  -26.1379  -32.4662   26.6220 C   0  0  0  0  0  0  0  0  0  0  0  0
  -26.0593  -30.2867   20.8028 C   0  0  0  0  0  0  0  0  0  0  0  0
  -27.4705  -17.6157   19.9865 C   0  0  0  0  0  0  0  0  0  0  0  0
  -22.6410   -8.8778   22.8245 C   0  0  0  0  0  0  0  0  0  0  0  0
  -26.6994  -20.1869   20.7459 C   0  0  0  0  0  0  0  0  0  0  0  0
  -27.7415  -28.5347   20.6976 C   0  0  0  0  0  0  0  0  0  0  0  0
  -21.4985   -7.0354   23.7313 C   0  0  0  0  0  0  0  0  0  0  0  0
  -20.8259   -4.3313   23.5960 C   0  0  0  0  0  0  0  0  0  0  0  0
  -21.8400   -6.1786   24.7777 C   0  0  0  0  0  0  0  0  0  0  0  0
  -25.1578  -10.4326   19.8002 C   0  0  0  0  0  0  0  0  0  0  0  0
  -26.0985  -10.9280   17.8755 C   0  0  0  0  0  0  0  0  0  0  0  0
  -24.1145   -9.4203   17.6785 C   0  0  0  0  0  0  0  0  0  0  0  0
  -24.6350  -32.1752   23.2590 C   0  0  0  0  0  0  0  0  0  0  0  0
  -23.1907  -32.7871   20.4197 C   0  0  0  0  0  0  0  0  0  0  0  0
  -22.9348  -32.0878   17.0892 C   0  0  0  0  0  0  0  0  0  0  0  0
  -29.1265  -15.7349   19.7276 C   0  0  0  0  0  0  0  0  0  0  0  0
  -25.1055  -34.4823   27.7882 C   0  0  0  0  0  0  0  0  0  0  0  0
  -26.6224  -32.5541   21.7548 C   0  0  0  0  0  0  0  0  0  0  0  0
  -24.6469  -30.7295   20.5247 C   0  0  0  0  0  0  0  0  0  0  0  0
  -24.0901  -34.5107   26.6487 C   0  0  0  0  0  0  0  0  0  0  0  0
  -30.4822  -12.5399   18.9334 C   0  0  0  0  0  0  0  0  0  0  0  0
  -23.7074  -33.0920   26.2391 C   0  0  0  0  0  0  0  0  0  0  0  0
  -29.2609  -11.6176   18.9334 C   0  0  0  0  0  0  0  0  0  0  0  0
  -30.3839  -13.6113   20.0179 C   0  0  0  0  0  0  0  0  0  0  0  0
  -27.9240  -13.4777   20.0009 C   0  0  0  0  0  0  0  0  0  0  0  0
  -24.9276  -32.3180   25.7258 C   0  0  1  0  0  0  0  0  0  0  0  0
  -25.1217  -32.7420   21.9554 C   0  0  1  0  0  0  0  0  0  0  0  0
  -27.9472  -12.4222   18.8833 C   0  0  2  0  0  0  0  0  0  0  0  0
  -21.6379  -32.7230   15.0369 C   0  0  0  0  0  0  0  0  0  0  0  0
  -20.8142  -31.1552   21.4192 C   0  0  0  0  0  0  0  0  0  0  0  0
  -19.9998  -31.0231   19.0554 C   0  0  0  0  0  0  0  0  0  0  0  0
  -20.2013  -33.2399   20.1813 C   0  0  0  0  0  0  0  0  0  0  0  0
  -25.3721  -33.0292   15.6991 C   0  0  0  0  0  0  0  0  0  0  0  0
  -26.6764  -23.8123   20.7993 C   0  0  0  0  0  0  0  0  0  0  0  0
  -27.7164  -24.9244   20.7195 C   0  0  0  0  0  0  0  0  0  0  0  0
  -27.3204  -22.4594   21.0714 C   0  0  0  0  0  0  0  0  0  0  0  0
  -27.0778  -26.2698   20.4050 C   0  0  0  0  0  0  0  0  0  1  0  0
  -22.2967  -32.0084   19.4852 C   0  0  1  0  0  0  0  0  0  0  0  0
  -22.8805  -32.9923   15.8712 C   0  0  2  0  0  0  0  0  0  0  0  0
  -20.8540  -31.8474   20.0422 C   0  0  0  0  0  0  0  0  0  0  0  0
  -26.1782  -11.2319   20.1225 N   0  0  0  0  0  0  0  0  0  0  0  0
  -26.7310  -11.5163   18.9310 N   0  0  0  0  0  0  0  0  0  0  0  0
  -24.3273  -32.1181   20.8953 N   0  0  0  0  0  0  0  0  0  0  0  0
  -29.1157  -14.3353   19.9056 N   0  0  0  0  0  0  0  0  0  0  0  0
  -26.5234  -11.1086   16.6069 N   0  0  0  0  0  0  0  0  0  0  0  0
  -23.1114   -8.7460   18.3881 N   0  0  0  0  0  0  0  0  0  0  0  0
  -27.8623  -16.3097   19.6008 N   0  0  0  0  0  0  0  0  0  0  0  0
  -25.2473  -32.7184   24.3723 N   0  0  0  0  0  0  0  0  0  0  0  0
  -22.3669  -32.6850   18.1946 N   0  0  0  0  0  0  0  0  0  0  0  0
  -24.0791  -32.7769   15.0123 N   0  3  0  0  0  0  0  0  0  0  0  0
  -24.1679   -9.3037   16.4307 O   0  0  0  0  0  0  0  0  0  0  0  0
  -23.7670  -31.3102   23.2552 O   0  0  0  0  0  0  0  0  0  0  0  0
  -22.8953  -33.9488   20.7110 O   0  0  0  0  0  0  0  0  0  0  0  0
  -23.4280  -30.9624   17.0617 O   0  0  0  0  0  0  0  0  0  0  0  0
  -30.1805  -16.3728   19.6632 O   0  0  0  0  0  0  0  0  0  0  0  0
  -21.8309   -8.3781   23.7974 O   0  0  0  0  0  0  0  0  0  0  0  0
  -26.3207  -21.4501   21.1190 O   0  0  0  0  0  0  0  0  0  0  0  0
  -28.0986  -27.2660   20.3592 O   0  0  0  0  0  0  0  0  0  1  0  0
  -20.5016   -3.0333   23.5315 F   0  0  0  0  0  0  0  0  0  0  0  0
  -22.4902   -6.6487   25.8510 F   0  0  0  0  0  0  0  0  0  0  0  0
  1  2  1  0  0  0  0
  1  5  2  0  0  0  0
  2  6  2  0  0  0  0
  3 10  2  0  0  0  0
  3 19  1  0  0  0  0
  4 11  1  0  0  0  0
  4 19  2  0  0  0  0
  5 21  1  0  0  0  0
  6 23  1  0  0  0  0
  7 12  2  0  0  0  0
  7 22  1  0  0  0  0
  8 13  2  0  0  0  0
  8 25  1  0  0  0  0
  9 14  1  0  0  0  0
  9 25  2  0  0  0  0
 10 26  1  0  0  0  0
 11 26  2  0  0  0  0
 12 28  1  0  0  0  0
 13 27  1  0  0  0  0
 14 27  2  0  0  0  0
 15 16  2  0  0  0  0
 15 29  1  0  0  0  0
 16 30  1  0  0  0  0
 17 24  1  0  0  0  0
 17 28  2  0  0  0  0
 18 30  2  0  0  0  0
 18 31  1  0  0  0  0
 19 32  1  0  0  0  0
 20 32  1  0  0  0  0
 20 33  2  0  0  0  0
 20 34  1  0  0  0  0
 21 23  2  0  0  0  0
 21 39  1  0  0  0  0
 22 24  2  0  0  0  0
 22 40  1  0  0  0  0
 23 48  1  0  0  0  0
 24 41  1  0  0  0  0
 25 69  1  0  0  0  0
 26 78  1  0  0  0  0
 27 79  1  0  0  0  0
 28 80  1  0  0  0  0
 29 31  2  0  0  0  0
 29 78  1  0  0  0  0
 30 81  1  0  0  0  0
 31 82  1  0  0  0  0
 32 63  2  0  0  0  0
 33 64  1  0  0  0  0
 33 67  1  0  0  0  0
 34 68  1  0  0  0  0
 34 73  2  0  0  0  0
 35 49  1  0  0  0  0
 35 70  1  0  0  0  0
 35 74  2  0  0  0  0
 36 60  1  0  0  0  0
 36 65  1  0  0  0  0
 36 75  2  0  0  0  0
 37 61  1  0  0  0  0
 37 71  1  0  0  0  0
 37 76  2  0  0  0  0
 38 66  1  0  0  0  0
 38 69  1  0  0  0  0
 38 77  2  0  0  0  0
 39 42  1  0  0  0  0
 40 49  1  0  0  0  0
 41 65  1  0  0  0  0
 42 44  1  0  0  0  0
 43 45  1  0  0  0  0
 43 46  1  0  0  0  0
 44 48  1  0  0  0  0
 45 50  1  0  0  0  0
 46 66  1  0  0  0  0
 47 50  1  0  0  0  0
 47 66  1  0  0  0  0
 48 70  1  0  0  0  0
 49 65  1  0  0  0  0
 50 64  1  0  0  0  0
 51 61  1  0  0  0  0
 52 62  1  0  0  0  0
 53 62  1  0  0  0  0
 54 62  1  0  0  0  0
 55 72  1  0  0  0  0
 56 57  1  0  0  0  0
 56 58  1  0  0  0  0
 57 59  1  0  0  0  0
 58 79  1  0  0  0  0
 59 80  1  0  0  0  0
 60 62  1  0  0  0  0
 60 71  1  0  0  0  0
 61 72  1  0  0  0  0
 63 64  1  0  0  0  0
M  CHG  1  72   1
M  ISO  4  38 100  59 101  69 100  80 101
M  END
> <Batch ID>
0005

> <Smiles>
CNC(C)C(=O)NC(C(=O)N1Cc2cc([101O:1][101CH2:1]CCCOc3ccc([100NH:0][100C:0](=O)N4CCCC(n5nc(-c6ccc(Oc7ccc(F)cc7F)cc6)c(C(N)=O)c5N)C4)cc3)ccc2CC1C(=O)NC1CCCc2ccccc21)C(C)(C)C

> <Shape>
0.243

> <Color>
0.082

> <Negative vol penalty>
0.000

$$$$

  -OEChem-04052315263D

 93101  0     1  0  0  0  0  0999 V2000
  -30.4074  -34.9356   23.3662 C   0  0  0  0  0  0  0  0  0  0  0  0
  -30.3642  -33.6118   22.9408 C   0  0  0  0  0  0  0  0  0  0  0  0
  -24.6589   -9.2231   21.3832 C   0  0  0  0  0  0  0  0  0  0  0  0
  -23.3110  -11.1872   21.7862 C   0  0  0  0  0  0  0  0  0  0  0  0
  -29.3289  -35.4780   24.0637 C   0  0  0  0  0  0  0  0  0  0  0  0
  -29.2428  -32.8291   23.2137 C   0  0  0  0  0  0  0  0  0  0  0  0
  -26.8614  -28.4440   19.6633 C   0  0  0  0  0  0  0  0  0  0  0  0
  -28.7889  -18.9180   21.6740 C   0  0  0  0  0  0  0  0  0  0  0  0
  -28.5448  -20.1177   22.3423 C   0  0  0  0  0  0  0  0  0  0  0  0
  -23.9813   -8.5495   22.3993 C   0  0  0  0  0  0  0  0  0  0  0  0
  -22.6333  -10.5136   22.8024 C   0  0  0  0  0  0  0  0  0  0  0  0
  -26.9807  -27.0550   19.6808 C   0  0  0  0  0  0  0  0  0  0  0  0
  -22.3612   -6.1942   24.6450 C   0  0  0  0  0  0  0  0  0  0  0  0
  -21.9472   -4.8864   24.3922 C   0  0  0  0  0  0  0  0  0  0  0  0
  -24.9270  -26.9004   20.9369 C   0  0  0  0  0  0  0  0  0  0  0  0
  -26.4252  -18.6829   21.2327 C   0  0  0  0  0  0  0  0  0  0  0  0
  -20.5993   -5.6700   22.5465 C   0  0  0  0  0  0  0  0  0  0  0  0
  -24.3238  -10.5420   21.0766 C   0  0  0  0  0  0  0  0  0  0  0  0
  -24.6822  -11.2844   18.6625 C   0  0  0  0  0  0  0  0  0  0  0  0
  -28.1897  -34.7045   24.3369 C   0  0  0  0  0  0  0  0  0  0  0  0
  -25.7779  -29.0733   20.2929 C   0  0  0  0  0  0  0  0  0  0  0  0
  -28.1486  -33.3613   23.9167 C   0  0  0  0  0  0  0  0  0  0  0  0
  -24.7949  -28.2974   20.9237 C   0  0  0  0  0  0  0  0  0  0  0  0
  -26.1811  -19.8826   21.9011 C   0  0  0  0  0  0  0  0  0  0  0  0
  -27.7291  -18.2006   21.1191 C   0  0  0  0  0  0  0  0  0  0  0  0
  -27.2409  -20.6000   22.4559 C   0  0  0  0  0  0  0  0  0  0  0  0
  -22.9685   -9.1947   23.1090 C   0  0  0  0  0  0  0  0  0  0  0  0
  -26.0150  -26.2832   20.3202 C   0  0  0  0  0  0  0  0  0  0  0  0
  -21.8943   -7.2399   23.8486 C   0  0  0  0  0  0  0  0  0  0  0  0
  -21.0663   -4.6243   23.3429 C   0  0  0  0  0  0  0  0  0  0  0  0
  -21.0134   -6.9778   22.7994 C   0  0  0  0  0  0  0  0  0  0  0  0
  -25.0239  -11.2386   20.0274 C   0  0  0  0  0  0  0  0  0  0  0  0
  -25.6539  -12.0695   18.0915 C   0  0  0  0  0  0  0  0  0  0  0  0
  -23.5846  -10.6722   17.9725 C   0  0  0  0  0  0  0  0  0  0  0  0
  -25.4662  -31.1345   22.6925 C   0  0  0  0  0  0  0  0  0  0  0  0
  -22.3477  -31.1030   21.8002 C   0  0  0  0  0  0  0  0  0  0  0  0
  -27.0245  -23.0838   22.4653 C   0  0  0  0  0  0  0  0  0  0  0  0
  -19.7912  -29.4471   20.2608 C   0  0  0  0  0  0  0  0  0  0  0  0
  -29.2113  -16.3662   20.2335 C   0  0  0  0  0  0  0  0  0  0  0  0
  -27.0683  -35.3206   25.1353 C   0  0  0  0  0  0  0  0  0  0  0  0
  -25.6496  -30.5710   20.2420 C   0  0  0  0  0  0  0  0  0  0  0  0
  -23.6017  -28.9232   21.5968 C   0  0  0  0  0  0  0  0  0  0  0  0
  -25.7618  -34.5349   25.0571 C   0  0  0  0  0  0  0  0  0  0  0  0
  -30.2354  -13.3505   18.6416 C   0  0  0  0  0  0  0  0  0  0  0  0
  -26.0208  -33.0462   25.2654 C   0  0  0  0  0  0  0  0  0  0  0  0
  -28.9823  -12.4731   18.6867 C   0  0  0  0  0  0  0  0  0  0  0  0
  -30.3801  -14.1981   19.9043 C   0  0  0  0  0  0  0  0  0  0  0  0
  -27.9487  -14.1262   20.2948 C   0  0  0  0  0  0  0  0  0  0  0  0
  -26.9395  -32.4878   24.1719 C   0  0  1  0  0  0  0  0  0  0  0  0
  -24.7753  -31.1341   21.3582 C   0  0  1  0  0  0  0  0  0  0  0  0
  -27.7255  -13.3022   19.0162 C   0  0  2  0  0  0  0  0  0  0  0  0
  -24.7748  -20.3768   22.0059 C   0  0  0  0  0  0  0  0  0  0  0  0
  -29.2499  -26.2607   28.4137 C   0  0  0  0  0  0  0  0  0  0  0  0
  -26.0501  -19.1237   29.1315 C   0  0  0  0  0  0  0  0  0  0  0  0
  -17.3490  -29.6571   19.7235 C   0  0  0  0  0  0  0  0  0  0  0  0
  -21.6556  -30.4336   24.6955 C   0  0  0  0  0  0  0  0  0  0  0  0
  -19.3821  -29.7316   23.9167 C   0  0  0  0  0  0  0  0  0  0  0  0
  -20.1281  -32.0928   23.6146 C   0  0  0  0  0  0  0  0  0  0  0  0
  -20.3042  -29.3414   17.3480 C   0  0  0  0  0  0  0  0  0  0  0  0
  -27.4537  -23.0243   20.9990 C   0  0  0  0  0  0  0  0  0  0  0  0
  -29.3961  -24.7513   28.5241 C   0  0  0  0  0  0  0  0  0  0  0  0
  -26.3425  -20.5119   28.5855 C   0  0  0  0  0  0  0  0  0  0  0  0
  -28.3564  -24.0238   27.6726 C   0  0  0  0  0  0  0  0  0  0  0  0
  -26.6549  -21.7495   24.5773 C   0  0  0  0  0  0  0  0  0  0  0  0
  -27.2211  -20.4419   27.3467 C   0  0  0  0  0  0  0  0  0  0  0  0
  -28.5354  -22.5156   27.7626 C   0  0  0  0  0  0  0  0  0  0  0  0
  -27.8960  -21.8923   25.4381 C   0  0  0  0  0  0  0  0  0  0  0  0
  -27.4498  -24.3865   20.3151 C   0  0  0  0  0  0  0  0  0  1  0  0
  -21.1379  -30.2795   22.1708 C   0  0  1  0  0  0  0  0  0  0  0  0
  -18.7684  -29.9030   19.2360 C   0  0  2  0  0  0  0  0  0  0  0  0
  -20.5993  -30.6224   23.5885 C   0  0  0  0  0  0  0  0  0  0  0  0
  -26.1266  -11.9386   20.3067 N   0  0  0  0  0  0  0  0  0  0  0  0
  -26.4863  -12.4317   19.1094 N   0  0  0  0  0  0  0  0  0  0  0  0
  -23.5243  -30.3916   21.5254 N   0  0  0  0  0  0  0  0  0  0  0  0
  -29.1532  -14.9589   20.1508 N   0  0  0  0  0  0  0  0  0  0  0  0
  -25.8690  -12.4783   16.8231 N   0  0  0  0  0  0  0  0  0  0  0  0
  -22.6791   -9.8983   18.7111 N   0  0  0  0  0  0  0  0  0  0  0  0
  -27.9776  -16.9832   20.4379 N   0  0  0  0  0  0  0  0  0  0  0  0
  -26.1979  -32.2787   22.9468 N   0  0  0  0  0  0  0  0  0  0  0  0
  -20.1672  -30.4751   21.0994 N   0  0  0  0  0  0  0  0  0  0  0  0
  -27.0087  -21.8493   23.1526 N   0  0  0  0  0  0  0  0  0  0  0  0
  -18.9582  -29.1693   17.9528 N   0  3  0  0  0  0  0  0  0  0  0  0
  -27.5192  -21.8431   26.8724 N   0  3  1  0  0  0  0  0  0  0  0  0
  -23.4211  -10.7940   16.7348 O   0  0  0  0  0  0  0  0  0  0  0  0
  -25.3433  -30.1687   23.4368 O   0  0  0  0  0  0  0  0  0  0  0  0
  -22.2504  -32.3316   21.7492 O   0  0  0  0  0  0  0  0  0  0  0  0
  -26.7517  -24.1750   22.9718 O   0  0  0  0  0  0  0  0  0  0  0  0
  -20.2117  -28.2935   20.3146 O   0  0  0  0  0  0  0  0  0  0  0  0
  -30.2732  -16.9806   20.1033 O   0  0  0  0  0  0  0  0  0  0  0  0
  -22.3069   -8.5376   24.1005 O   0  0  0  0  0  0  0  0  0  0  0  0
  -26.1294  -24.9273   20.3393 O   0  0  0  0  0  0  0  0  0  1  0  0
  -20.6700   -3.3682   23.0993 F   0  0  0  0  0  0  0  0  0  0  0  0
  -20.5623   -7.9781   22.0302 F   0  0  0  0  0  0  0  0  0  0  0  0
  1  2  1  0  0  0  0
  1  5  2  0  0  0  0
  2  6  2  0  0  0  0
  3 10  2  0  0  0  0
  3 18  1  0  0  0  0
  4 11  1  0  0  0  0
  4 18  2  0  0  0  0
  5 20  1  0  0  0  0
  6 22  1  0  0  0  0
  7 12  2  0  0  0  0
  7 21  1  0  0  0  0
  8  9  2  0  0  0  0
  8 25  1  0  0  0  0
  9 26  1  0  0  0  0
 10 27  1  0  0  0  0
 11 27  2  0  0  0  0
 12 28  1  0  0  0  0
 13 14  2  0  0  0  0
 13 29  1  0  0  0  0
 14 30  1  0  0  0  0
 15 23  1  0  0  0  0
 15 28  2  0  0  0  0
 16 24  1  0  0  0  0
 16 25  2  0  0  0  0
 17 30  2  0  0  0  0
 17 31  1  0  0  0  0
 18 32  1  0  0  0  0
 19 32  1  0  0  0  0
 19 33  2  0  0  0  0
 19 34  1  0  0  0  0
 20 22  2  0  0  0  0
 20 40  1  0  0  0  0
 21 23  2  0  0  0  0
 21 41  1  0  0  0  0
 22 49  1  0  0  0  0
 23 42  1  0  0  0  0
 24 26  2  0  0  0  0
 24 52  1  0  0  0  0
 25 78  1  0  0  0  0
 26 81  1  0  0  0  0
 27 90  1  0  0  0  0
 28 91  1  0  0  0  0
 29 31  2  0  0  0  0
 29 90  1  0  0  0  0
 30 92  1  0  0  0  0
 31 93  1  0  0  0  0
 32 72  2  0  0  0  0
 33 73  1  0  0  0  0
 33 76  1  0  0  0  0
 34 77  1  0  0  0  0
 34 84  2  0  0  0  0
 35 50  1  0  0  0  0
 35 79  1  0  0  0  0
 35 85  2  0  0  0  0
 36 69  1  0  0  0  0
 36 74  1  0  0  0  0
 36 86  2  0  0  0  0
 37 60  1  0  0  0  0
 37 81  1  0  0  0  0
 37 87  2  0  0  0  0
 38 70  1  0  0  0  0
 38 80  1  0  0  0  0
 38 88  2  0  0  0  0
 39 75  1  0  0  0  0
 39 78  1  0  0  0  0
 39 89  2  0  0  0  0
 40 43  1  0  0  0  0
 41 50  1  0  0  0  0
 42 74  1  0  0  0  0
 43 45  1  0  0  0  0
 44 46  1  0  0  0  0
 44 47  1  0  0  0  0
 45 49  1  0  0  0  0
 46 51  1  0  0  0  0
 47 75  1  0  0  0  0
 48 51  1  0  0  0  0
 48 75  1  0  0  0  0
 49 79  1  0  0  0  0
 50 74  1  0  0  0  0
 51 73  1  0  0  0  0
 53 61  1  0  0  0  0
 54 62  1  0  0  0  0
 55 70  1  0  0  0  0
 56 71  1  0  0  0  0
 57 71  1  0  0  0  0
 58 71  1  0  0  0  0
 59 82  1  0  0  0  0
 60 68  1  0  0  0  0
 61 63  1  0  0  0  0
 62 65  1  0  0  0  0
 63 66  1  0  0  0  0
 64 67  1  0  0  0  0
 64 81  1  0  0  0  0
 65 83  1  0  0  0  0
 66 83  1  0  0  0  0
 67 83  1  0  0  0  0
 68 91  1  0  0  0  0
 69 71  1  0  0  0  0
 69 80  1  0  0  0  0
 70 82  1  0  0  0  0
 72 73  1  0  0  0  0
M  CHG  2  82   1  83   1
M  ISO  4  39 100  68 101  78 100  91 101
M  END
> <Batch ID>
0005

> <Smiles>
CCCCN(CCC)CCN(C(=O)C[101CH2:1][101O:1]c1ccc2c(c1)CN(C(=O)C(NC(=O)C(C)NC)C(C)(C)C)C(C(=O)NC1CCCc3ccccc31)C2)c1ccc([100NH:0][100C:0](=O)N2CCCC(n3nc(-c4ccc(Oc5ccc(F)cc5F)cc4)c(C(N)=O)c3N)C2)cc1C

> <Shape>
0.257

> <Color>
0.077

> <Negative vol penalty>
0.000

$$$$

  -OEChem-04052315263D

 94102  0     1  0  0  0  0  0999 V2000
  -24.2757  -17.4114   27.4374 C   0  0  0  0  0  0  0  0  0  0  0  0
  -25.4427  -17.2433   28.1758 C   0  0  0  0  0  0  0  0  0  0  0  0
  -33.1643  -14.2019   25.1328 C   0  0  0  0  0  0  0  0  0  0  0  0
  -23.1901   -9.8191   19.9315 C   0  0  0  0  0  0  0  0  0  0  0  0
  -23.5694   -9.9994   22.3107 C   0  0  0  0  0  0  0  0  0  0  0  0
  -24.3299  -17.4272   26.0443 C   0  0  0  0  0  0  0  0  0  0  0  0
  -26.6645  -17.0898   27.5215 C   0  0  0  0  0  0  0  0  0  0  0  0
  -33.6253  -18.6098   28.2647 C   0  0  0  0  0  0  0  0  0  0  0  0
  -32.8307  -13.6075   26.3497 C   0  0  0  0  0  0  0  0  0  0  0  0
  -32.4123  -13.9239   23.9914 C   0  0  0  0  0  0  0  0  0  0  0  0
  -22.4244   -8.6721   20.1405 C   0  0  0  0  0  0  0  0  0  0  0  0
  -22.8037   -8.8525   22.5197 C   0  0  0  0  0  0  0  0  0  0  0  0
  -34.8732  -17.9892   28.2278 C   0  0  0  0  0  0  0  0  0  0  0  0
  -21.2479   -5.7680   23.6491 C   0  0  0  0  0  0  0  0  0  0  0  0
  -21.7451   -4.8083   24.5307 C   0  0  0  0  0  0  0  0  0  0  0  0
  -34.8563  -18.1121   25.8186 C   0  0  0  0  0  0  0  0  0  0  0  0
  -23.7032   -4.5451   23.1401 C   0  0  0  0  0  0  0  0  0  0  0  0
  -23.7627  -10.4827   21.0166 C   0  0  0  0  0  0  0  0  0  0  0  0
  -24.1003  -12.9995   20.7729 C   0  0  0  0  0  0  0  0  0  0  0  0
  -25.5542  -17.2835   25.3727 C   0  0  0  0  0  0  0  0  0  0  0  0
  -32.9776  -18.9770   27.0764 C   0  0  0  0  0  0  0  0  0  0  0  0
  -26.7349  -17.1023   26.1180 C   0  0  0  0  0  0  0  0  0  0  0  0
  -33.6014  -18.7396   25.8433 C   0  0  0  0  0  0  0  0  0  0  0  0
  -31.7451  -12.7349   26.4252 C   0  0  0  0  0  0  0  0  0  0  0  0
  -30.9930  -12.4569   25.2838 C   0  0  0  0  0  0  0  0  0  0  0  0
  -31.3266  -13.0514   24.0669 C   0  0  0  0  0  0  0  0  0  0  0  0
  -22.2311   -8.1888   21.4346 C   0  0  0  0  0  0  0  0  0  0  0  0
  -35.4876  -17.7376   27.0045 C   0  0  0  0  0  0  0  0  0  0  0  0
  -21.9784   -6.1162   22.5129 C   0  0  0  0  0  0  0  0  0  0  0  0
  -22.9727   -4.1969   24.2763 C   0  0  0  0  0  0  0  0  0  0  0  0
  -23.2060   -5.5048   22.2584 C   0  0  0  0  0  0  0  0  0  0  0  0
  -24.5543  -11.6673   20.8013 C   0  0  0  0  0  0  0  0  0  0  0  0
  -25.2311  -13.7426   20.5371 C   0  0  0  0  0  0  0  0  0  0  0  0
  -22.7750  -13.5189   20.9444 C   0  0  0  0  0  0  0  0  0  0  0  0
  -30.2439  -18.1693   25.6698 C   0  0  0  0  0  0  0  0  0  0  0  0
  -31.0732  -20.5150   23.5885 C   0  0  0  0  0  0  0  0  0  0  0  0
  -33.5467  -22.4012   22.1844 C   0  0  0  0  0  0  0  0  0  0  0  0
  -31.0364  -12.7842   21.5788 C   0  0  0  0  0  0  0  0  0  0  0  0
  -36.6618  -12.2705   28.6007 C   0  0  0  0  0  0  0  0  0  0  0  0
  -25.5565  -17.2597   23.8647 C   0  0  0  0  0  0  0  0  0  0  0  0
  -31.6437  -19.6698   27.1344 C   0  0  0  0  0  0  0  0  0  0  0  0
  -32.9572  -19.1327   24.5399 C   0  0  0  0  0  0  0  0  0  0  0  0
  -26.9405  -17.4658   23.2544 C   0  0  0  0  0  0  0  0  0  0  0  0
  -29.5222  -13.4655   18.4291 C   0  0  0  0  0  0  0  0  0  0  0  0
  -27.9710  -16.5902   23.9604 C   0  0  0  0  0  0  0  0  0  0  0  0
  -28.0344  -13.2088   18.6790 C   0  0  0  0  0  0  0  0  0  0  0  0
  -30.4041  -12.4807   19.1948 C   0  0  0  0  0  0  0  0  0  0  0  0
  -28.6452  -12.1385   20.8855 C   0  0  0  0  0  0  0  0  0  0  0  0
  -28.0825  -16.9574   25.4450 C   0  0  1  0  0  0  0  0  0  0  0  0
  -30.8442  -19.5359   25.8420 C   0  0  1  0  0  0  0  0  0  0  0  0
  -27.7186  -13.1466   20.1864 C   0  0  2  0  0  0  0  0  0  0  0  0
  -29.8290  -11.5201   25.3698 C   0  0  0  0  0  0  0  0  0  0  0  0
  -33.9210  -24.2100   20.4858 C   0  0  0  0  0  0  0  0  0  0  0  0
  -30.7136  -18.4789   21.3447 C   0  0  0  0  0  0  0  0  0  0  0  0
  -31.9880  -20.0190   19.8372 C   0  0  0  0  0  0  0  0  0  0  0  0
  -29.8253  -20.7605   20.8352 C   0  0  0  0  0  0  0  0  0  0  0  0
  -34.6496  -24.2449   24.2199 C   0  0  0  0  0  0  0  0  0  0  0  0
  -33.6604  -10.9122   28.0841 C   0  0  0  0  0  0  0  0  0  0  0  0
  -32.6376  -11.8972   28.6722 C   0  0  0  0  0  0  0  0  0  0  0  0
  -37.9319  -15.1336   27.4784 C   0  0  0  0  0  0  0  0  0  0  0  0
  -34.8222  -10.6415   29.0357 C   0  0  0  0  0  0  0  0  0  0  0  0
  -38.3339  -14.1154   28.5368 C   0  0  0  0  0  0  0  0  0  0  0  0
  -37.0113  -16.2203   28.0204 C   0  0  0  0  0  0  0  0  0  1  0  0
  -31.8715  -20.5756   22.3086 C   0  0  1  0  0  0  0  0  0  0  0  0
  -33.6638  -23.8967   21.9515 C   0  0  2  0  0  0  0  0  0  0  0  0
  -31.4031  -12.1000   27.7661 C   0  0  1  0  0  0  0  0  0  0  0  0
  -31.1111  -19.9492   21.1057 C   0  0  0  0  0  0  0  0  0  0  0  0
  -30.3430  -12.9316   28.4879 C   0  0  0  0  0  0  0  0  0  0  0  0
  -25.8708  -11.5667   20.5995 N   0  0  0  0  0  0  0  0  0  0  0  0
  -26.2538  -12.8452   20.4420 N   0  0  0  0  0  0  0  0  0  0  0  0
  -31.6502  -19.8017   24.6487 N   0  0  0  0  0  0  0  0  0  0  0  0
  -30.0510  -12.4790   20.6162 N   0  0  0  0  0  0  0  0  0  0  0  0
  -25.4405  -15.0696   20.4039 N   0  0  0  0  0  0  0  0  0  0  0  0
  -21.7288  -12.6163   21.1788 N   0  0  0  0  0  0  0  0  0  0  0  0
  -30.5762  -12.7837   22.8951 N   0  0  0  0  0  0  0  0  0  0  0  0
  -28.8634  -18.1647   25.6098 N   0  0  0  0  0  0  0  0  0  0  0  0
  -32.2367  -21.9756   22.1211 N   0  0  0  0  0  0  0  0  0  0  0  0
  -35.5687  -11.8386   29.3470 N   0  0  0  0  0  0  0  0  0  0  0  0
  -37.1988  -13.4520   29.1163 N   0  0  0  0  0  0  0  0  0  0  0  0
  -34.7846  -24.4600   22.7562 N   0  3  0  0  0  0  0  0  0  0  0  0
  -22.5233  -14.7458   20.8749 O   0  0  0  0  0  0  0  0  0  0  0  0
  -30.9789  -17.1915   25.5954 O   0  0  0  0  0  0  0  0  0  0  0  0
  -29.9813  -21.0859   23.6478 O   0  0  0  0  0  0  0  0  0  0  0  0
  -34.5202  -21.6819   22.3973 O   0  0  0  0  0  0  0  0  0  0  0  0
  -32.1962  -13.0548   21.2569 O   0  0  0  0  0  0  0  0  0  0  0  0
  -37.1023  -11.6883   27.6104 O   0  0  0  0  0  0  0  0  0  0  0  0
  -21.4838   -7.0698   21.6389 O   0  0  0  0  0  0  0  0  0  0  0  0
  -36.7053  -17.1314   26.9656 O   0  0  0  0  0  0  0  0  0  1  0  0
  -23.4508   -3.2764   25.1239 F   0  0  0  0  0  0  0  0  0  0  0  0
  -23.9128   -5.8361   21.1692 F   0  0  0  0  0  0  0  0  0  0  0  0
  -30.8406  -10.8558   27.6040 F   0  0  0  0  0  0  0  0  0  0  0  0
  -29.2117  -13.0102   27.7495 F   0  0  0  0  0  0  0  0  0  0  0  0
  -30.0047  -12.4055   29.6843 F   0  0  0  0  0  0  0  0  0  0  0  0
  -30.7719  -14.1962   28.6987 F   0  0  0  0  0  0  0  0  0  0  0  0
  1  2  1  0  0  0  0
  1  6  2  0  0  0  0
  2  7  2  0  0  0  0
  3  9  2  0  0  0  0
  3 10  1  0  0  0  0
  4 11  2  0  0  0  0
  4 18  1  0  0  0  0
  5 12  1  0  0  0  0
  5 18  2  0  0  0  0
  6 20  1  0  0  0  0
  7 22  1  0  0  0  0
  8 13  2  0  0  0  0
  8 21  1  0  0  0  0
  9 24  1  0  0  0  0
 10 26  2  0  0  0  0
 11 27  1  0  0  0  0
 12 27  2  0  0  0  0
 13 28  1  0  0  0  0
 14 15  2  0  0  0  0
 14 29  1  0  0  0  0
 15 30  1  0  0  0  0
 16 23  1  0  0  0  0
 16 28  2  0  0  0  0
 17 30  2  0  0  0  0
 17 31  1  0  0  0  0
 18 32  1  0  0  0  0
 19 32  1  0  0  0  0
 19 33  2  0  0  0  0
 19 34  1  0  0  0  0
 20 22  2  0  0  0  0
 20 40  1  0  0  0  0
 21 23  2  0  0  0  0
 21 41  1  0  0  0  0
 22 49  1  0  0  0  0
 23 42  1  0  0  0  0
 24 25  2  0  0  0  0
 24 66  1  0  0  0  0
 25 26  1  0  0  0  0
 25 52  1  0  0  0  0
 26 75  1  0  0  0  0
 27 87  1  0  0  0  0
 28 88  1  0  0  0  0
 29 31  2  0  0  0  0
 29 87  1  0  0  0  0
 30 89  1  0  0  0  0
 31 90  1  0  0  0  0
 32 69  2  0  0  0  0
 33 70  1  0  0  0  0
 33 73  1  0  0  0  0
 34 74  1  0  0  0  0
 34 81  2  0  0  0  0
 35 50  1  0  0  0  0
 35 76  1  0  0  0  0
 35 82  2  0  0  0  0
 36 64  1  0  0  0  0
 36 71  1  0  0  0  0
 36 83  2  0  0  0  0
 37 65  1  0  0  0  0
 37 77  1  0  0  0  0
 37 84  2  0  0  0  0
 38 72  1  0  0  0  0
 38 75  1  0  0  0  0
 38 85  2  0  0  0  0
 39 78  1  0  0  0  0
 39 79  1  0  0  0  0
 39 86  2  0  0  0  0
 40 43  1  0  0  0  0
 41 50  1  0  0  0  0
 42 71  1  0  0  0  0
 43 45  1  0  0  0  0
 44 46  1  0  0  0  0
 44 47  1  0  0  0  0
 45 49  1  0  0  0  0
 46 51  1  0  0  0  0
 47 72  1  0  0  0  0
 48 51  1  0  0  0  0
 48 72  1  0  0  0  0
 49 76  1  0  0  0  0
 50 71  1  0  0  0  0
 51 70  1  0  0  0  0
 53 65  1  0  0  0  0
 54 67  1  0  0  0  0
 55 67  1  0  0  0  0
 56 67  1  0  0  0  0
 57 80  1  0  0  0  0
 58 59  1  0  0  0  0
 58 61  1  0  0  0  0
 59 66  1  0  0  0  0
 60 62  1  0  0  0  0
 60 63  1  0  0  0  0
 61 78  1  0  0  0  0
 62 79  1  0  0  0  0
 63 88  1  0  0  0  0
 64 67  1  0  0  0  0
 64 77  1  0  0  0  0
 65 80  1  0  0  0  0
 66 68  1  0  0  0  0
 66 91  1  0  0  0  0
 68 92  1  0  0  0  0
 68 93  1  0  0  0  0
 68 94  1  0  0  0  0
 69 70  1  0  0  0  0
M  CHG  1  80   1
M  ISO  4  38 100  63 101  75 100  88 101
M  END
> <Batch ID>
0005

> <Smiles>
CNC(C)C(=O)NC(C(=O)N1Cc2cc([101O:1][101CH2:1]CCNC(=O)NCCCC(F)(c3cccc([100NH:0][100C:0](=O)N4CCCC(n5nc(-c6ccc(Oc7ccc(F)cc7F)cc6)c(C(N)=O)c5N)C4)c3C)C(F)(F)F)ccc2CC1C(=O)NC1CCCc2ccccc21)C(C)(C)C

> <Shape>
0.145

> <Color>
0.178

> <Negative vol penalty>
0.000

$$$$

  -OEChem-04052315263D

 87 95  0     1  0  0  0  0  0999 V2000
  -29.4115  -34.4021   15.8592 C   0  0  0  0  0  0  0  0  0  0  0  0
  -30.3727  -33.5688   16.4223 C   0  0  0  0  0  0  0  0  0  0  0  0
  -23.0754   -9.8658   19.9446 C   0  0  0  0  0  0  0  0  0  0  0  0
  -23.8311   -9.8804   22.2394 C   0  0  0  0  0  0  0  0  0  0  0  0
  -28.2346  -34.6763   16.5545 C   0  0  0  0  0  0  0  0  0  0  0  0
  -30.1579  -33.0101   17.6818 C   0  0  0  0  0  0  0  0  0  0  0  0
  -31.9528  -27.4820   19.6117 C   0  0  0  0  0  0  0  0  0  0  0  0
  -32.0586  -16.6130   22.5456 C   0  0  0  0  0  0  0  0  0  0  0  0
  -22.3310   -8.7136   20.1970 C   0  0  0  0  0  0  0  0  0  0  0  0
  -23.0866   -8.7281   22.4918 C   0  0  0  0  0  0  0  0  0  0  0  0
  -33.0434  -27.0625   20.3722 C   0  0  0  0  0  0  0  0  0  0  0  0
  -32.6473  -17.4990   23.4477 C   0  0  0  0  0  0  0  0  0  0  0  0
  -19.3800   -7.9220   21.6454 C   0  0  0  0  0  0  0  0  0  0  0  0
  -18.0740   -7.8743   21.1579 C   0  0  0  0  0  0  0  0  0  0  0  0
  -31.6705  -27.1084   22.3552 C   0  0  0  0  0  0  0  0  0  0  0  0
  -30.4644  -18.3529   24.0334 C   0  0  0  0  0  0  0  0  0  0  0  0
  -18.6360   -5.9268   19.8431 C   0  0  0  0  0  0  0  0  0  0  0  0
  -23.8255  -10.4492   20.9658 C   0  0  0  0  0  0  0  0  0  0  0  0
  -24.1678  -12.9739   20.8381 C   0  0  0  0  0  0  0  0  0  0  0  0
  -28.0010  -34.1130   17.8189 C   0  0  0  0  0  0  0  0  0  0  0  0
  -30.7136  -27.7288   20.2200 C   0  0  0  0  0  0  0  0  0  0  0  0
  -28.9774  -33.2782   18.3953 C   0  0  0  0  0  0  0  0  0  0  0  0
  -30.5651  -27.5285   21.5998 C   0  0  0  0  0  0  0  0  0  0  0  0
  -30.6728  -16.5969   22.3872 C   0  0  0  0  0  0  0  0  0  0  0  0
  -22.3365   -8.1447   21.4706 C   0  0  0  0  0  0  0  0  0  0  0  0
  -32.9031  -26.8784   21.7446 C   0  0  0  0  0  0  0  0  0  0  0  0
  -31.8502  -18.3690   24.1917 C   0  0  0  0  0  0  0  0  0  0  0  0
  -20.3141   -6.9722   21.2318 C   0  0  0  0  0  0  0  0  0  0  0  0
  -17.7020   -6.8767   20.2567 C   0  0  0  0  0  0  0  0  0  0  0  0
  -29.8757  -17.4669   23.1312 C   0  0  0  0  0  0  0  0  0  0  0  0
  -19.9421   -5.9746   20.3307 C   0  0  0  0  0  0  0  0  0  0  0  0
  -24.5952  -11.6392   20.7056 C   0  0  0  0  0  0  0  0  0  0  0  0
  -25.2607  -13.7221   20.4743 C   0  0  0  0  0  0  0  0  0  0  0  0
  -22.8966  -13.4912   21.2529 C   0  0  0  0  0  0  0  0  0  0  0  0
  -28.8445  -30.2787   20.5490 C   0  0  0  0  0  0  0  0  0  0  0  0
  -26.7953  -28.1251   21.8471 C   0  0  0  0  0  0  0  0  0  0  0  0
  -34.8350  -24.7593   23.9639 C   0  0  0  0  0  0  0  0  0  0  0  0
  -26.3539  -25.1249   23.4126 C   0  0  0  0  0  0  0  0  0  0  0  0
  -30.7266  -14.7678   20.6558 C   0  0  0  0  0  0  0  0  0  0  0  0
  -26.7345  -34.4764   18.5528 C   0  0  0  0  0  0  0  0  0  0  0  0
  -29.5399  -28.1552   19.3815 C   0  0  0  0  0  0  0  0  0  0  0  0
  -29.2507  -27.7602   22.2978 C   0  0  0  0  0  0  0  0  0  0  0  0
  -26.4185  -33.5452   19.7204 C   0  0  0  0  0  0  0  0  0  0  0  0
  -29.6165  -12.3463   18.2935 C   0  0  0  0  0  0  0  0  0  0  0  0
  -27.6646  -33.3101   20.5682 C   0  0  0  0  0  0  0  0  0  0  0  0
  -28.1760  -12.0562   18.7213 C   0  0  0  0  0  0  0  0  0  0  0  0
  -30.5293  -12.5790   19.4961 C   0  0  0  0  0  0  0  0  0  0  0  0
  -28.6199  -13.3082   20.8713 C   0  0  0  0  0  0  0  0  0  0  0  0
  -28.7700  -32.6334   19.7485 C   0  0  1  0  0  0  0  0  0  0  0  0
  -28.4601  -28.8723   20.1858 C   0  0  1  0  0  0  0  0  0  0  0  0
  -27.6492  -13.1311   19.6923 C   0  0  2  0  0  0  0  0  0  0  0  0
  -24.5678  -23.6532   24.3828 C   0  0  0  0  0  0  0  0  0  0  0  0
  -26.6198  -29.9501   24.2861 C   0  0  0  0  0  0  0  0  0  0  0  0
  -25.6282  -28.0363   25.5599 C   0  0  0  0  0  0  0  0  0  0  0  0
  -24.4403  -28.9557   23.5683 C   0  0  0  0  0  0  0  0  0  0  0  0
  -26.9718  -22.9323   21.5232 C   0  0  0  0  0  0  0  0  0  0  0  0
  -33.6840  -25.6916   23.6519 C   0  0  0  0  0  0  0  0  0  1  0  0
  -35.3159  -21.6448   25.0395 C   0  0  0  0  0  0  0  0  0  0  0  0
  -33.9160  -21.1000   25.3245 C   0  0  0  0  0  0  0  0  0  0  0  0
  -35.5299  -23.0391   25.6202 C   0  0  0  0  0  0  0  0  0  0  0  0
  -33.7391  -19.6930   24.7702 C   0  0  0  0  0  0  0  0  0  0  0  0
  -26.5435  -27.5922   23.2369 C   0  0  1  0  0  0  0  0  0  0  0  0
  -25.3905  -23.9822   23.1468 C   0  0  2  0  0  0  0  0  0  0  0  0
  -25.8334  -28.6310   24.1502 C   0  0  0  0  0  0  0  0  0  0  0  0
  -25.8608  -11.5418   20.2900 N   0  0  0  0  0  0  0  0  0  0  0  0
  -26.2381  -12.8249   20.1581 N   0  0  0  0  0  0  0  0  0  0  0  0
  -28.1345  -28.1824   21.4357 N   0  0  0  0  0  0  0  0  0  0  0  0
  -29.9688  -13.6128   20.3690 N   0  0  0  0  0  0  0  0  0  0  0  0
  -25.4713  -15.0533   20.3973 N   0  0  0  0  0  0  0  0  0  0  0  0
  -21.8840  -12.5832   21.5913 N   0  0  0  0  0  0  0  0  0  0  0  0
  -30.0778  -15.6956   21.4699 N   0  0  0  0  0  0  0  0  0  0  0  0
  -28.4955  -31.2203   19.5997 N   0  0  0  0  0  0  0  0  0  0  0  0
  -34.5905  -24.0063   25.1016 N   0  0  0  0  0  0  0  0  0  0  0  0
  -25.8082  -26.3435   23.0683 N   0  0  0  0  0  0  0  0  0  0  0  0
  -26.1379  -22.7586   22.7403 N   0  3  0  0  0  0  0  0  0  0  0  0
  -22.6603  -14.7220   21.3057 O   0  0  0  0  0  0  0  0  0  0  0  0
  -29.4142  -30.4939   21.6124 O   0  0  0  0  0  0  0  0  0  0  0  0
  -25.8386  -28.4709   21.1495 O   0  0  0  0  0  0  0  0  0  0  0  0
  -35.8492  -24.7018   23.2739 O   0  0  0  0  0  0  0  0  0  0  0  0
  -27.4767  -24.9540   23.8824 O   0  0  0  0  0  0  0  0  0  0  0  0
  -31.8566  -14.9349   20.1897 O   0  0  0  0  0  0  0  0  0  0  0  0
  -21.6100   -7.0205   21.7173 O   0  0  0  0  0  0  0  0  0  0  0  0
  -33.9662  -26.4695   22.4893 O   0  0  0  0  0  0  0  0  0  1  0  0
  -32.4287  -19.2390   25.0791 O   0  0  0  0  0  0  0  0  0  0  0  0
  -16.4474   -6.8300   19.7898 F   0  0  0  0  0  0  0  0  0  0  0  0
  -28.5428  -17.4604   22.9868 F   0  0  0  0  0  0  0  0  0  0  0  0
  -20.8347   -5.0586   19.9305 F   0  0  0  0  0  0  0  0  0  0  0  0
  1  2  1  0  0  0  0
  1  5  2  0  0  0  0
  2  6  2  0  0  0  0
  3  9  2  0  0  0  0
  3 18  1  0  0  0  0
  4 10  1  0  0  0  0
  4 18  2  0  0  0  0
  5 20  1  0  0  0  0
  6 22  1  0  0  0  0
  7 11  2  0  0  0  0
  7 21  1  0  0  0  0
  8 12  2  0  0  0  0
  8 24  1  0  0  0  0
  9 25  1  0  0  0  0
 10 25  2  0  0  0  0
 11 26  1  0  0  0  0
 12 27  1  0  0  0  0
 13 14  2  0  0  0  0
 13 28  1  0  0  0  0
 14 29  1  0  0  0  0
 15 23  1  0  0  0  0
 15 26  2  0  0  0  0
 16 27  2  0  0  0  0
 16 30  1  0  0  0  0
 17 29  2  0  0  0  0
 17 31  1  0  0  0  0
 18 32  1  0  0  0  0
 19 32  1  0  0  0  0
 19 33  2  0  0  0  0
 19 34  1  0  0  0  0
 20 22  2  0  0  0  0
 20 40  1  0  0  0  0
 21 23  2  0  0  0  0
 21 41  1  0  0  0  0
 22 49  1  0  0  0  0
 23 42  1  0  0  0  0
 24 30  2  0  0  0  0
 24 71  1  0  0  0  0
 25 82  1  0  0  0  0
 26 83  1  0  0  0  0
 27 84  1  0  0  0  0
 28 31  2  0  0  0  0
 28 82  1  0  0  0  0
 29 85  1  0  0  0  0
 30 86  1  0  0  0  0
 31 87  1  0  0  0  0
 32 65  2  0  0  0  0
 33 66  1  0  0  0  0
 33 69  1  0  0  0  0
 34 70  1  0  0  0  0
 34 76  2  0  0  0  0
 35 50  1  0  0  0  0
 35 72  1  0  0  0  0
 35 77  2  0  0  0  0
 36 62  1  0  0  0  0
 36 67  1  0  0  0  0
 36 78  2  0  0  0  0
 37 57  1  0  0  0  0
 37 73  1  0  0  0  0
 37 79  2  0  0  0  0
 38 63  1  0  0  0  0
 38 74  1  0  0  0  0
 38 80  2  0  0  0  0
 39 68  1  0  0  0  0
 39 71  1  0  0  0  0
 39 81  2  0  0  0  0
 40 43  1  0  0  0  0
 41 50  1  0  0  0  0
 42 67  1  0  0  0  0
 43 45  1  0  0  0  0
 44 46  1  0  0  0  0
 44 47  1  0  0  0  0
 45 49  1  0  0  0  0
 46 51  1  0  0  0  0
 47 68  1  0  0  0  0
 48 51  1  0  0  0  0
 48 68  1  0  0  0  0
 49 72  1  0  0  0  0
 50 67  1  0  0  0  0
 51 66  1  0  0  0  0
 52 63  1  0  0  0  0
 53 64  1  0  0  0  0
 54 64  1  0  0  0  0
 55 64  1  0  0  0  0
 56 75  1  0  0  0  0
 57 83  1  0  0  0  0
 58 59  1  0  0  0  0
 58 60  1  0  0  0  0
 59 61  1  0  0  0  0
 60 73  1  0  0  0  0
 61 84  1  0  0  0  0
 62 64  1  0  0  0  0
 62 74  1  0  0  0  0
 63 75  1  0  0  0  0
 65 66  1  0  0  0  0
M  CHG  1  75   1
M  ISO  4  39 100  57 101  71 100  83 101
M  END
> <Batch ID>
0005

> <Smiles>
CNC(C)C(=O)NC(C(=O)N1Cc2cc([101O:1][101CH2:1]C(=O)NCCCCOc3ccc([100NH:0][100C:0](=O)N4CCCC(n5nc(-c6ccc(Oc7ccc(F)cc7F)cc6)c(C(N)=O)c5N)C4)c(F)c3)ccc2CC1C(=O)NC1CCCc2ccccc21)C(C)(C)C

> <Shape>
0.206

> <Color>
0.187

> <Negative vol penalty>
0.000

$$$$

  -OEChem-04052315263D

 90 98  0     1  0  0  0  0  0999 V2000
  -27.8965  -17.9104   18.4111 C   0  0  0  0  0  0  0  0  0  0  0  0
  -27.8056  -18.1830   19.7723 C   0  0  0  0  0  0  0  0  0  0  0  0
  -22.9882   -9.9400   19.9662 C   0  0  0  0  0  0  0  0  0  0  0  0
  -23.7412   -9.9306   22.2619 C   0  0  0  0  0  0  0  0  0  0  0  0
  -28.6130  -18.7667   17.5761 C   0  0  0  0  0  0  0  0  0  0  0  0
  -28.4322  -19.3116   20.2995 C   0  0  0  0  0  0  0  0  0  0  0  0
  -27.6580  -24.2352   25.4449 C   0  0  0  0  0  0  0  0  0  0  0  0
  -29.8909  -17.6601   22.7889 C   0  0  0  0  0  0  0  0  0  0  0  0
  -22.2163   -8.8051   20.2147 C   0  0  0  0  0  0  0  0  0  0  0  0
  -22.9692   -8.7957   22.5104 C   0  0  0  0  0  0  0  0  0  0  0  0
  -28.3623  -24.8061   26.5041 C   0  0  0  0  0  0  0  0  0  0  0  0
  -30.4153  -18.8714   23.2395 C   0  0  0  0  0  0  0  0  0  0  0  0
  -23.1826   -5.4673   21.9563 C   0  0  0  0  0  0  0  0  0  0  0  0
  -23.7714   -4.4282   22.6769 C   0  0  0  0  0  0  0  0  0  0  0  0
  -29.5064  -26.2571   24.9533 C   0  0  0  0  0  0  0  0  0  0  0  0
  -31.9489  -17.2088   21.6065 C   0  0  0  0  0  0  0  0  0  0  0  0
  -22.0695   -4.6436   24.3781 C   0  0  0  0  0  0  0  0  0  0  0  0
  -23.7507  -10.5027   20.9898 C   0  0  0  0  0  0  0  0  0  0  0  0
  -24.1529  -13.0189   20.8690 C   0  0  0  0  0  0  0  0  0  0  0  0
  -29.2406  -19.9116   18.0918 C   0  0  0  0  0  0  0  0  0  0  0  0
  -27.8810  -24.6641   24.1286 C   0  0  0  0  0  0  0  0  0  0  0  0
  -29.1589  -20.1833   19.4709 C   0  0  0  0  0  0  0  0  0  0  0  0
  -28.8019  -25.6918   23.8795 C   0  0  0  0  0  0  0  0  0  0  0  0
  -30.6577  -16.8287   21.9725 C   0  0  0  0  0  0  0  0  0  0  0  0
  -22.2068   -8.2329   21.4868 C   0  0  0  0  0  0  0  0  0  0  0  0
  -29.2887  -25.8152   26.2581 C   0  0  0  0  0  0  0  0  0  0  0  0
  -22.0373   -6.0947   22.4467 C   0  0  0  0  0  0  0  0  0  0  0  0
  -31.7065  -19.2516   22.8736 C   0  0  0  0  0  0  0  0  0  0  0  0
  -23.2148   -4.0163   23.8877 C   0  0  0  0  0  0  0  0  0  0  0  0
  -32.4734  -18.4203   22.0571 C   0  0  0  0  0  0  0  0  0  0  0  0
  -21.4807   -5.6828   23.6576 C   0  0  0  0  0  0  0  0  0  0  0  0
  -24.5487  -11.6748   20.7335 C   0  0  0  0  0  0  0  0  0  0  0  0
  -25.2637  -13.7419   20.5085 C   0  0  0  0  0  0  0  0  0  0  0  0
  -22.8938  -13.5652   21.2837 C   0  0  0  0  0  0  0  0  0  0  0  0
  -28.9416  -23.2839   21.4689 C   0  0  0  0  0  0  0  0  0  0  0  0
  -28.1462  -26.1329   20.1373 C   0  0  0  0  0  0  0  0  0  0  0  0
  -32.3559  -26.8277   28.9698 C   0  0  0  0  0  0  0  0  0  0  0  0
  -27.5994  -29.4753   20.5573 C   0  0  0  0  0  0  0  0  0  0  0  0
  -30.7527  -14.6572   20.6989 C   0  0  0  0  0  0  0  0  0  0  0  0
  -30.0436  -20.7821   17.1580 C   0  0  0  0  0  0  0  0  0  0  0  0
  -27.0938  -24.0567   23.0000 C   0  0  0  0  0  0  0  0  0  0  0  0
  -29.0632  -26.2021   22.4867 C   0  0  0  0  0  0  0  0  0  0  0  0
  -30.3644  -22.1591   17.7336 C   0  0  0  0  0  0  0  0  0  0  0  0
  -29.5882  -12.2687   18.3290 C   0  0  0  0  0  0  0  0  0  0  0  0
  -30.8706  -22.0337   19.1671 C   0  0  0  0  0  0  0  0  0  0  0  0
  -28.1407  -12.0119   18.7544 C   0  0  0  0  0  0  0  0  0  0  0  0
  -30.5049  -12.4766   19.5332 C   0  0  0  0  0  0  0  0  0  0  0  0
  -28.6116  -13.2474   20.9082 C   0  0  0  0  0  0  0  0  0  0  0  0
  -29.8041  -21.4111   20.0763 C   0  0  1  0  0  0  0  0  0  0  0  0
  -27.7747  -24.2142   21.6439 C   0  0  1  0  0  0  0  0  0  0  0  0
  -27.6384  -13.0964   19.7276 C   0  0  2  0  0  0  0  0  0  0  0  0
  -27.0006  -31.5494   19.2779 C   0  0  0  0  0  0  0  0  0  0  0  0
  -30.9850  -26.2644   19.0265 C   0  0  0  0  0  0  0  0  0  0  0  0
  -30.6299  -28.7054   18.5984 C   0  0  0  0  0  0  0  0  0  0  0  0
  -29.2070  -27.0174   17.4372 C   0  0  0  0  0  0  0  0  0  0  0  0
  -25.1270  -29.8742   22.1344 C   0  0  0  0  0  0  0  0  0  0  0  0
  -31.5706  -27.9067   28.2406 C   0  0  0  0  0  0  0  0  0  0  0  0
  -33.5736  -23.6441   26.7986 C   0  0  0  0  0  0  0  0  0  0  0  0
  -33.0412  -22.2381   26.5144 C   0  0  0  0  0  0  0  0  0  0  0  0
  -33.7554  -23.8756   28.3016 C   0  0  0  0  0  0  0  0  0  0  0  0
  -32.8907  -21.9934   25.0146 C   0  0  0  0  0  0  0  0  0  0  0  0
  -34.2731  -25.2751   28.6186 C   0  0  0  0  0  0  0  0  0  0  0  0
  -30.9118  -27.4028   26.9658 C   0  0  0  0  0  0  0  0  0  1  0  0
  -32.3213  -20.6118   24.7250 C   0  0  0  0  0  0  0  0  0  0  0  0
  -28.8620  -27.4417   19.9056 C   0  0  1  0  0  0  0  0  0  0  0  0
  -26.4716  -30.3779   20.0906 C   0  0  2  0  0  0  0  0  0  0  0  0
  -29.9177  -27.3465   18.7681 C   0  0  0  0  0  0  0  0  0  0  0  0
  -25.8121  -11.5485   20.3191 N   0  0  0  0  0  0  0  0  0  0  0  0
  -26.2199  -12.8226   20.1910 N   0  0  0  0  0  0  0  0  0  0  0  0
  -28.2731  -25.5720   21.4160 N   0  0  0  0  0  0  0  0  0  0  0  0
  -29.9680  -13.5212   20.4082 N   0  0  0  0  0  0  0  0  0  0  0  0
  -25.5059  -15.0679   20.4351 N   0  0  0  0  0  0  0  0  0  0  0  0
  -21.8595  -12.6806   21.6186 N   0  0  0  0  0  0  0  0  0  0  0  0
  -30.1250  -15.5980   21.5147 N   0  0  0  0  0  0  0  0  0  0  0  0
  -28.7989  -22.3931   20.4222 N   0  0  0  0  0  0  0  0  0  0  0  0
  -33.3712  -26.3140   28.1759 N   0  0  0  0  0  0  0  0  0  0  0  0
  -27.8233  -28.4398   19.6747 N   0  0  0  0  0  0  0  0  0  0  0  0
  -25.7222  -30.9175   21.2603 N   0  3  0  0  0  0  0  0  0  0  0  0
  -22.6868  -14.8011   21.3394 O   0  0  0  0  0  0  0  0  0  0  0  0
  -29.9011  -23.3691   22.2264 O   0  0  0  0  0  0  0  0  0  0  0  0
  -27.4925  -25.6304   19.2198 O   0  0  0  0  0  0  0  0  0  0  0  0
  -32.1049  -26.4717   30.1179 O   0  0  0  0  0  0  0  0  0  0  0  0
  -28.2221  -29.6715   21.5985 O   0  0  0  0  0  0  0  0  0  0  0  0
  -31.8868  -14.7986   20.2345 O   0  0  0  0  0  0  0  0  0  0  0  0
  -21.4536   -7.1256   21.7298 O   0  0  0  0  0  0  0  0  0  0  0  0
  -29.9780  -26.3737   27.2900 O   0  0  0  0  0  0  0  0  0  1  0  0
  -32.2206  -20.4421   23.3179 O   0  0  0  0  0  0  0  0  0  0  0  0
  -23.7794   -3.0174   24.5788 F   0  0  0  0  0  0  0  0  0  0  0  0
  -33.7149  -18.7795   21.7032 F   0  0  0  0  0  0  0  0  0  0  0  0
  -20.3799   -6.2809   24.1332 F   0  0  0  0  0  0  0  0  0  0  0  0
  1  2  1  0  0  0  0
  1  5  2  0  0  0  0
  2  6  2  0  0  0  0
  3  9  2  0  0  0  0
  3 18  1  0  0  0  0
  4 10  1  0  0  0  0
  4 18  2  0  0  0  0
  5 20  1  0  0  0  0
  6 22  1  0  0  0  0
  7 11  2  0  0  0  0
  7 21  1  0  0  0  0
  8 12  2  0  0  0  0
  8 24  1  0  0  0  0
  9 25  1  0  0  0  0
 10 25  2  0  0  0  0
 11 26  1  0  0  0  0
 12 28  1  0  0  0  0
 13 14  2  0  0  0  0
 13 27  1  0  0  0  0
 14 29  1  0  0  0  0
 15 23  1  0  0  0  0
 15 26  2  0  0  0  0
 16 24  2  0  0  0  0
 16 30  1  0  0  0  0
 17 29  2  0  0  0  0
 17 31  1  0  0  0  0
 18 32  1  0  0  0  0
 19 32  1  0  0  0  0
 19 33  2  0  0  0  0
 19 34  1  0  0  0  0
 20 22  2  0  0  0  0
 20 40  1  0  0  0  0
 21 23  2  0  0  0  0
 21 41  1  0  0  0  0
 22 49  1  0  0  0  0
 23 42  1  0  0  0  0
 24 74  1  0  0  0  0
 25 85  1  0  0  0  0
 26 86  1  0  0  0  0
 27 31  2  0  0  0  0
 27 85  1  0  0  0  0
 28 30  2  0  0  0  0
 28 87  1  0  0  0  0
 29 88  1  0  0  0  0
 30 89  1  0  0  0  0
 31 90  1  0  0  0  0
 32 68  2  0  0  0  0
 33 69  1  0  0  0  0
 33 72  1  0  0  0  0
 34 73  1  0  0  0  0
 34 79  2  0  0  0  0
 35 50  1  0  0  0  0
 35 75  1  0  0  0  0
 35 80  2  0  0  0  0
 36 65  1  0  0  0  0
 36 70  1  0  0  0  0
 36 81  2  0  0  0  0
 37 57  1  0  0  0  0
 37 76  1  0  0  0  0
 37 82  2  0  0  0  0
 38 66  1  0  0  0  0
 38 77  1  0  0  0  0
 38 83  2  0  0  0  0
 39 71  1  0  0  0  0
 39 74  1  0  0  0  0
 39 84  2  0  0  0  0
 40 43  1  0  0  0  0
 41 50  1  0  0  0  0
 42 70  1  0  0  0  0
 43 45  1  0  0  0  0
 44 46  1  0  0  0  0
 44 47  1  0  0  0  0
 45 49  1  0  0  0  0
 46 51  1  0  0  0  0
 47 71  1  0  0  0  0
 48 51  1  0  0  0  0
 48 71  1  0  0  0  0
 49 75  1  0  0  0  0
 50 70  1  0  0  0  0
 51 69  1  0  0  0  0
 52 66  1  0  0  0  0
 53 67  1  0  0  0  0
 54 67  1  0  0  0  0
 55 67  1  0  0  0  0
 56 78  1  0  0  0  0
 57 63  1  0  0  0  0
 58 59  1  0  0  0  0
 58 60  1  0  0  0  0
 59 61  1  0  0  0  0
 60 62  1  0  0  0  0
 61 64  1  0  0  0  0
 62 76  1  0  0  0  0
 63 86  1  0  0  0  0
 64 87  1  0  0  0  0
 65 67  1  0  0  0  0
 65 77  1  0  0  0  0
 66 78  1  0  0  0  0
 68 69  1  0  0  0  0
M  CHG  1  78   1
M  ISO  4  39 100  63 101  74 100  86 101
M  END
> <Batch ID>
0005

> <Smiles>
CNC(C)C(=O)NC(C(=O)N1Cc2cc([101O:1][101CH2:1]CC(=O)NCCCCCCOc3ccc([100NH:0][100C:0](=O)N4CCCC(n5nc(-c6ccc(Oc7ccc(F)cc7F)cc6)c(C(N)=O)c5N)C4)cc3F)ccc2CC1C(=O)NC1CCCc2ccccc21)C(C)(C)C

> <Shape>
0.305

> <Color>
0.191

> <Negative vol penalty>
0.000

$$$$

  -OEChem-04052315263D

 82 90  0     1  0  0  0  0  0999 V2000
  -21.8687  -11.7160   19.7349 C   0  0  0  0  0  0  0  0  0  0  0  0
  -21.6022  -13.0503   20.0249 C   0  0  0  0  0  0  0  0  0  0  0  0
  -29.8197  -25.6254   20.5677 C   0  0  0  0  0  0  0  0  0  0  0  0
  -28.5051  -24.5128   22.2621 C   0  0  0  0  0  0  0  0  0  0  0  0
  -23.1472  -11.2004   19.9435 C   0  0  0  0  0  0  0  0  0  0  0  0
  -22.6139  -13.8695   20.5247 C   0  0  0  0  0  0  0  0  0  0  0  0
  -23.4156  -19.8350   19.3953 C   0  0  0  0  0  0  0  0  0  0  0  0
  -17.6197  -27.8748   21.9366 C   0  0  0  0  0  0  0  0  0  0  0  0
  -30.9822  -25.0776   21.1099 C   0  0  0  0  0  0  0  0  0  0  0  0
  -29.6676  -23.9649   22.8043 C   0  0  0  0  0  0  0  0  0  0  0  0
  -23.0792  -20.9797   20.1166 C   0  0  0  0  0  0  0  0  0  0  0  0
  -18.4791  -26.8741   22.3900 C   0  0  0  0  0  0  0  0  0  0  0  0
  -33.0309  -25.6780   23.7303 C   0  0  0  0  0  0  0  0  0  0  0  0
  -34.1297  -26.5218   23.8922 C   0  0  0  0  0  0  0  0  0  0  0  0
  -25.3052  -21.0421   21.0440 C   0  0  0  0  0  0  0  0  0  0  0  0
  -19.4547  -29.4463   21.9268 C   0  0  0  0  0  0  0  0  0  0  0  0
  -35.4315  -25.1073   22.4287 C   0  0  0  0  0  0  0  0  0  0  0  0
  -28.5811  -25.3431   21.1438 C   0  0  0  0  0  0  0  0  0  0  0  0
  -26.5627  -25.3501   19.5838 C   0  0  0  0  0  0  0  0  0  0  0  0
  -24.1775  -12.0162   20.4371 C   0  0  0  0  0  0  0  0  0  0  0  0
  -24.6981  -19.2781   19.5015 C   0  0  0  0  0  0  0  0  0  0  0  0
  -23.9070  -13.3640   20.7414 C   0  0  0  0  0  0  0  0  0  0  0  0
  -25.6561  -19.8918   20.3211 C   0  0  0  0  0  0  0  0  0  0  0  0
  -18.1075  -29.1609   21.7049 C   0  0  0  0  0  0  0  0  0  0  0  0
  -20.3141  -28.4456   22.3803 C   0  0  0  0  0  0  0  0  0  0  0  0
  -30.9062  -24.2474   22.2282 C   0  0  0  0  0  0  0  0  0  0  0  0
  -24.0231  -21.5818   20.9433 C   0  0  0  0  0  0  0  0  0  0  0  0
  -19.8263  -27.1595   22.6119 C   0  0  0  0  0  0  0  0  0  0  0  0
  -33.1324  -24.5488   22.9177 C   0  0  0  0  0  0  0  0  0  0  0  0
  -35.3300  -26.2365   23.2414 C   0  0  0  0  0  0  0  0  0  0  0  0
  -34.3327  -24.2635   22.2669 C   0  0  0  0  0  0  0  0  0  0  0  0
  -27.3799  -25.9091   20.5845 C   0  0  0  0  0  0  0  0  0  0  0  0
  -25.5572  -26.2692   19.4084 C   0  0  0  0  0  0  0  0  0  0  0  0
  -26.7002  -24.1108   18.8760 C   0  0  0  0  0  0  0  0  0  0  0  0
  -25.8582  -16.4925   20.5008 C   0  0  0  0  0  0  0  0  0  0  0  0
  -28.6580  -17.7073   19.4017 C   0  0  0  0  0  0  0  0  0  0  0  0
  -30.5116  -20.4639   18.6195 C   0  0  0  0  0  0  0  0  0  0  0  0
  -22.3114  -29.9805   22.4169 C   0  0  0  0  0  0  0  0  0  0  0  0
  -25.5314  -11.4019   20.6908 C   0  0  0  0  0  0  0  0  0  0  0  0
  -25.0535  -18.0584   18.6963 C   0  0  0  0  0  0  0  0  0  0  0  0
  -27.0532  -19.3450   20.4543 C   0  0  0  0  0  0  0  0  0  0  0  0
  -26.6437  -12.4319   20.8697 C   0  0  0  0  0  0  0  0  0  0  0  0
  -25.0286  -31.0879   20.4001 C   0  0  0  0  0  0  0  0  0  0  0  0
  -26.1986  -13.5387   21.8203 C   0  0  0  0  0  0  0  0  0  0  0  0
  -25.8332  -29.8117   20.1432 C   0  0  0  0  0  0  0  0  0  0  0  0
  -24.4385  -31.1124   21.8089 C   0  0  0  0  0  0  0  0  0  0  0  0
  -24.4556  -28.6512   21.9159 C   0  0  0  0  0  0  0  0  0  0  0  0
  -24.9845  -14.2906   21.2616 C   0  0  1  0  0  0  0  0  0  0  0  0
  -26.2306  -17.2810   19.2771 C   0  0  1  0  0  0  0  0  0  0  0  0
  -25.0157  -28.5513   20.4877 C   0  0  2  0  0  0  0  0  0  0  0  0
  -17.1879  -30.2302   21.2202 C   0  0  0  0  0  0  0  0  0  0  0  0
  -32.4478  -21.7943   17.7370 C   0  0  0  0  0  0  0  0  0  0  0  0
  -29.8496  -17.1120   22.1468 C   0  0  0  0  0  0  0  0  0  0  0  0
  -31.7524  -18.6350   21.5739 C   0  0  0  0  0  0  0  0  0  0  0  0
  -31.3516  -16.5788   20.2196 C   0  0  0  0  0  0  0  0  0  0  0  0
  -29.3748  -20.5244   15.8876 C   0  0  0  0  0  0  0  0  0  0  0  0
  -22.1780  -24.4293   22.3694 C   0  0  0  0  0  0  0  0  0  0  0  0
  -22.3701  -23.2002   21.4949 C   0  0  0  0  0  0  0  0  0  1  0  0
  -20.7824  -25.0163   22.2270 C   0  0  0  0  0  0  0  0  0  0  0  0
  -29.7695  -18.5381   19.9960 C   0  0  1  0  0  0  0  0  0  0  0  0
  -31.3451  -20.8036   17.3971 C   0  0  2  0  0  0  0  0  0  0  0  0
  -30.6539  -17.7254   20.9833 C   0  0  0  0  0  0  0  0  0  0  0  0
  -26.9324  -27.0918   21.0146 N   0  0  0  0  0  0  0  0  0  0  0  0
  -25.8231  -27.2835   20.2806 N   0  0  0  0  0  0  0  0  0  0  0  0
  -27.3503  -18.1471   19.6516 N   0  0  0  0  0  0  0  0  0  0  0  0
  -23.6741  -29.8891   22.0627 N   0  0  0  0  0  0  0  0  0  0  0  0
  -24.4805  -26.3006   18.5947 N   0  0  0  0  0  0  0  0  0  0  0  0
  -27.7915  -23.2854   19.1797 N   0  0  0  0  0  0  0  0  0  0  0  0
  -21.6800  -28.7509   22.6015 N   0  0  0  0  0  0  0  0  0  0  0  0
  -25.3956  -15.2188   20.2303 N   0  0  0  0  0  0  0  0  0  0  0  0
  -30.5004  -19.1080   18.8693 N   0  0  0  0  0  0  0  0  0  0  0  0
  -30.4874  -21.4013   16.3350 N   0  3  0  0  0  0  0  0  0  0  0  0
  -25.8886  -23.7537   17.9887 O   0  0  0  0  0  0  0  0  0  0  0  0
  -25.9829  -17.0015   21.6086 O   0  0  0  0  0  0  0  0  0  0  0  0
  -28.9398  -16.7090   18.7340 O   0  0  0  0  0  0  0  0  0  0  0  0
  -29.9316  -21.3166   19.2881 O   0  0  0  0  0  0  0  0  0  0  0  0
  -21.7393  -31.0686   22.5203 O   0  0  0  0  0  0  0  0  0  0  0  0
  -32.0404  -23.7125   22.7574 O   0  0  0  0  0  0  0  0  0  0  0  0
  -23.6972  -22.6988   21.6490 O   0  0  0  0  0  0  0  0  0  1  0  0
  -20.6540  -26.1621   23.0578 O   0  0  0  0  0  0  0  0  0  0  0  0
  -36.3846  -27.0477   23.3957 F   0  0  0  0  0  0  0  0  0  0  0  0
  -34.4359  -23.1808   21.4839 F   0  0  0  0  0  0  0  0  0  0  0  0
  1  2  1  0  0  0  0
  1  5  2  0  0  0  0
  2  6  2  0  0  0  0
  3  9  2  0  0  0  0
  3 18  1  0  0  0  0
  4 10  1  0  0  0  0
  4 18  2  0  0  0  0
  5 20  1  0  0  0  0
  6 22  1  0  0  0  0
  7 11  2  0  0  0  0
  7 21  1  0  0  0  0
  8 12  2  0  0  0  0
  8 24  1  0  0  0  0
  9 26  1  0  0  0  0
 10 26  2  0  0  0  0
 11 27  1  0  0  0  0
 12 28  1  0  0  0  0
 13 14  2  0  0  0  0
 13 29  1  0  0  0  0
 14 30  1  0  0  0  0
 15 23  1  0  0  0  0
 15 27  2  0  0  0  0
 16 24  2  0  0  0  0
 16 25  1  0  0  0  0
 17 30  2  0  0  0  0
 17 31  1  0  0  0  0
 18 32  1  0  0  0  0
 19 32  1  0  0  0  0
 19 33  2  0  0  0  0
 19 34  1  0  0  0  0
 20 22  2  0  0  0  0
 20 39  1  0  0  0  0
 21 23  2  0  0  0  0
 21 40  1  0  0  0  0
 22 48  1  0  0  0  0
 23 41  1  0  0  0  0
 24 51  1  0  0  0  0
 25 28  2  0  0  0  0
 25 69  1  0  0  0  0
 26 78  1  0  0  0  0
 27 79  1  0  0  0  0
 28 80  1  0  0  0  0
 29 31  2  0  0  0  0
 29 78  1  0  0  0  0
 30 81  1  0  0  0  0
 31 82  1  0  0  0  0
 32 63  2  0  0  0  0
 33 64  1  0  0  0  0
 33 67  1  0  0  0  0
 34 68  1  0  0  0  0
 34 73  2  0  0  0  0
 35 49  1  0  0  0  0
 35 70  1  0  0  0  0
 35 74  2  0  0  0  0
 36 60  1  0  0  0  0
 36 65  1  0  0  0  0
 36 75  2  0  0  0  0
 37 61  1  0  0  0  0
 37 71  1  0  0  0  0
 37 76  2  0  0  0  0
 38 66  1  0  0  0  0
 38 69  1  0  0  0  0
 38 77  2  0  0  0  0
 39 42  1  0  0  0  0
 40 49  1  0  0  0  0
 41 65  1  0  0  0  0
 42 44  1  0  0  0  0
 43 45  1  0  0  0  0
 43 46  1  0  0  0  0
 44 48  1  0  0  0  0
 45 50  1  0  0  0  0
 46 66  1  0  0  0  0
 47 50  1  0  0  0  0
 47 66  1  0  0  0  0
 48 70  1  0  0  0  0
 49 65  1  0  0  0  0
 50 64  1  0  0  0  0
 52 61  1  0  0  0  0
 53 62  1  0  0  0  0
 54 62  1  0  0  0  0
 55 62  1  0  0  0  0
 56 72  1  0  0  0  0
 57 58  1  0  0  0  0
 57 59  1  0  0  0  0
 58 79  1  0  0  0  0
 59 80  1  0  0  0  0
 60 62  1  0  0  0  0
 60 71  1  0  0  0  0
 61 72  1  0  0  0  0
 63 64  1  0  0  0  0
M  CHG  1  72   1
M  ISO  4  38 100  58 101  69 100  79 101
M  END
> <Batch ID>
0005

> <Smiles>
CNC(C)C(=O)NC(C(=O)N1Cc2cc([101O:1][101CH2:1]CCOc3ccc(C)cc3[100NH:0][100C:0](=O)N3CCCC(n4nc(-c5ccc(Oc6ccc(F)cc6F)cc5)c(C(N)=O)c4N)C3)ccc2CC1C(=O)NC1CCCc2ccccc21)C(C)(C)C

> <Shape>
0.225

> <Color>
0.084

> <Negative vol penalty>
0.000

$$$$

  -OEChem-04052315263D

 95103  0     1  0  0  0  0  0999 V2000
  -32.5266  -32.9514   15.5111 C   0  0  0  0  0  0  0  0  0  0  0  0
  -31.9298  -31.7880   15.9861 C   0  0  0  0  0  0  0  0  0  0  0  0
  -28.2534  -16.0828   24.9617 C   0  0  0  0  0  0  0  0  0  0  0  0
  -22.7923  -10.1936   21.0858 C   0  0  0  0  0  0  0  0  0  0  0  0
  -24.4056   -9.0278   22.4551 C   0  0  0  0  0  0  0  0  0  0  0  0
  -32.6504  -34.0610   16.3462 C   0  0  0  0  0  0  0  0  0  0  0  0
  -31.4574  -31.7331   17.2969 C   0  0  0  0  0  0  0  0  0  0  0  0
  -26.8684  -29.6164   17.6212 C   0  0  0  0  0  0  0  0  0  0  0  0
  -29.4966  -15.5720   25.3345 C   0  0  0  0  0  0  0  0  0  0  0  0
  -28.1792  -17.1922   24.1194 C   0  0  0  0  0  0  0  0  0  0  0  0
  -22.1719   -8.9812   20.7845 C   0  0  0  0  0  0  0  0  0  0  0  0
  -23.7852   -7.8153   22.1538 C   0  0  0  0  0  0  0  0  0  0  0  0
  -26.8019  -28.2257   17.5467 C   0  0  0  0  0  0  0  0  0  0  0  0
  -21.0424   -6.1085   23.1459 C   0  0  0  0  0  0  0  0  0  0  0  0
  -20.8160   -5.2194   24.1965 C   0  0  0  0  0  0  0  0  0  0  0  0
  -26.6177  -28.1119   19.9493 C   0  0  0  0  0  0  0  0  0  0  0  0
  -30.5917  -17.2802   24.0230 C   0  0  0  0  0  0  0  0  0  0  0  0
  -22.1821   -3.5628   23.0890 C   0  0  0  0  0  0  0  0  0  0  0  0
  -23.9092  -10.2169   21.9211 C   0  0  0  0  0  0  0  0  0  0  0  0
  -24.2597  -12.3291   23.3081 C   0  0  0  0  0  0  0  0  0  0  0  0
  -32.1706  -34.0230   17.6649 C   0  0  0  0  0  0  0  0  0  0  0  0
  -26.8209  -30.2657   18.8632 C   0  0  0  0  0  0  0  0  0  0  0  0
  -31.5761  -32.8428   18.1509 C   0  0  0  0  0  0  0  0  0  0  0  0
  -26.6811  -29.5110   20.0366 C   0  0  0  0  0  0  0  0  0  0  0  0
  -30.6658  -16.1708   24.8652 C   0  0  0  0  0  0  0  0  0  0  0  0
  -22.6684   -7.7921   21.3185 C   0  0  0  0  0  0  0  0  0  0  0  0
  -26.6795  -27.4731   18.7110 C   0  0  0  0  0  0  0  0  0  0  0  0
  -29.3484  -17.7909   23.6501 C   0  0  0  0  0  0  0  0  0  0  0  0
  -21.8386   -5.7248   22.0668 C   0  0  0  0  0  0  0  0  0  0  0  0
  -21.3858   -3.9466   24.1681 C   0  0  0  0  0  0  0  0  0  0  0  0
  -22.4085   -4.4519   22.0384 C   0  0  0  0  0  0  0  0  0  0  0  0
  -24.5508  -11.4689   22.2323 C   0  0  0  0  0  0  0  0  0  0  0  0
  -25.1401  -13.3730   23.1610 C   0  0  0  0  0  0  0  0  0  0  0  0
  -23.2810  -12.1963   24.3474 C   0  0  0  0  0  0  0  0  0  0  0  0
  -28.8059  -32.1388   20.4925 C   0  0  0  0  0  0  0  0  0  0  0  0
  -26.2811  -32.3987   22.5124 C   0  0  0  0  0  0  0  0  0  0  0  0
  -33.0467  -16.5234   25.3434 C   0  0  0  0  0  0  0  0  0  0  0  0
  -23.3817  -31.0578   23.7135 C   0  0  0  0  0  0  0  0  0  0  0  0
  -30.4942  -13.8505   20.5236 C   0  0  0  0  0  0  0  0  0  0  0  0
  -32.3695  -35.2316   18.5449 C   0  0  0  0  0  0  0  0  0  0  0  0
  -26.8668  -31.7679   18.9246 C   0  0  0  0  0  0  0  0  0  0  0  0
  -26.6053  -30.1609   21.3932 C   0  0  0  0  0  0  0  0  0  0  0  0
  -31.5058  -35.2174   19.8035 C   0  0  0  0  0  0  0  0  0  0  0  0
  -27.5804  -15.7703   19.8160 C   0  0  0  0  0  0  0  0  0  0  0  0
  -31.5712  -33.8521   20.4805 C   0  0  0  0  0  0  0  0  0  0  0  0
  -26.4472  -14.9632   20.4521 C   0  0  0  0  0  0  0  0  0  0  0  0
  -28.6509  -14.8626   19.2143 C   0  0  0  0  0  0  0  0  0  0  0  0
  -28.0676  -13.0480   20.7766 C   0  0  0  0  0  0  0  0  0  0  0  0
  -31.0291  -32.7528   19.5590 C   0  0  1  0  0  0  0  0  0  0  0  0
  -27.3269  -32.2967   20.2796 C   0  0  1  0  0  0  0  0  0  0  0  0
  -26.9915  -13.9198   21.4462 C   0  0  2  0  0  0  0  0  0  0  0  0
  -34.9676  -17.4170   23.1649 C   0  0  0  0  0  0  0  0  0  0  0  0
  -21.5605  -31.4814   25.3871 C   0  0  0  0  0  0  0  0  0  0  0  0
  -28.1543  -31.5430   24.7638 C   0  0  0  0  0  0  0  0  0  0  0  0
  -26.1366  -31.0679   26.1679 C   0  0  0  0  0  0  0  0  0  0  0  0
  -26.5764  -33.3881   25.3641 C   0  0  0  0  0  0  0  0  0  0  0  0
  -21.3076  -31.1570   21.6047 C   0  0  0  0  0  0  0  0  0  0  0  0
  -34.4150  -15.8909   25.0933 C   0  0  0  0  0  0  0  0  0  0  0  0
  -35.4253  -16.8804   24.5116 C   0  0  0  0  0  0  0  0  0  0  0  0
  -32.5774  -13.6359   23.1057 C   0  0  0  0  0  0  0  0  0  0  0  0
  -31.7161  -13.3292   24.3368 C   0  0  0  0  0  0  0  0  0  0  0  0
  -28.2332  -23.2035   20.3904 C   0  0  0  0  0  0  0  0  0  0  0  0
  -27.6456  -24.0371   19.2541 C   0  0  0  0  0  0  0  0  0  0  0  0
  -32.2288  -12.7480   21.9145 C   0  0  0  0  0  0  0  0  0  0  0  0
  -32.0703  -14.2088   25.5320 C   0  0  0  0  0  0  0  0  0  0  0  0
  -28.7774  -21.8805   19.8726 C   0  0  0  0  0  0  0  0  0  0  0  0
  -29.8068  -19.7398   20.6451 C   0  0  0  0  0  0  0  0  0  0  0  0
  -27.1354  -25.3828   19.7496 C   0  0  0  0  0  0  0  0  0  1  0  0
  -30.3325  -19.0471   21.8868 C   0  0  0  0  0  0  0  0  0  0  0  0
  -25.7947  -31.6339   23.7197 C   0  0  1  0  0  0  0  0  0  0  0  0
  -22.0109  -31.6669   23.9465 C   0  0  2  0  0  0  0  0  0  0  0  0
  -26.6689  -31.8956   24.9786 C   0  0  0  0  0  0  0  0  0  0  0  0
  -25.5388  -11.9268   21.4589 N   0  0  0  0  0  0  0  0  0  0  0  0
  -25.8761  -13.0860   22.0492 N   0  0  0  0  0  0  0  0  0  0  0  0
  -26.6607  -31.6321   21.4015 N   0  0  0  0  0  0  0  0  0  0  0  0
  -29.1261  -13.8977   20.2087 N   0  0  0  0  0  0  0  0  0  0  0  0
  -25.3486  -14.4992   23.8755 N   0  0  0  0  0  0  0  0  0  0  0  0
  -22.4582  -11.0616   24.3494 N   0  0  0  0  0  0  0  0  0  0  0  0
  -29.5821  -32.7750   19.5426 N   0  0  0  0  0  0  0  0  0  0  0  0
  -24.3883  -31.9844   23.8855 N   0  0  0  0  0  0  0  0  0  0  0  0
  -30.8592  -12.9118   21.4808 N   0  0  0  0  0  0  0  0  0  0  0  0
  -31.9093  -15.6594   25.2382 N   0  0  0  0  0  0  0  0  0  0  0  0
  -21.0024  -31.0300   23.0530 N   0  3  0  0  0  0  0  0  0  0  0  0
  -29.2949  -21.0882   21.0141 N   0  3  0  0  0  0  0  0  0  0  0  0
  -23.1291  -13.0663   25.2382 O   0  0  0  0  0  0  0  0  0  0  0  0
  -29.2128  -31.4892   21.4486 O   0  0  0  0  0  0  0  0  0  0  0  0
  -26.3159  -33.6311   22.5509 O   0  0  0  0  0  0  0  0  0  0  0  0
  -32.9834  -17.7170   25.6488 O   0  0  0  0  0  0  0  0  0  0  0  0
  -23.5437  -29.8772   23.4129 O   0  0  0  0  0  0  0  0  0  0  0  0
  -31.3279  -14.5939   19.9949 O   0  0  0  0  0  0  0  0  0  0  0  0
  -22.0631   -6.6089   21.0249 O   0  0  0  0  0  0  0  0  0  0  0  0
  -26.6151  -26.1156   18.6412 O   0  0  0  0  0  0  0  0  0  1  0  0
  -29.2756  -18.8811   22.8227 O   0  0  0  0  0  0  0  0  0  0  0  0
  -21.1696   -3.0934   25.1778 F   0  0  0  0  0  0  0  0  0  0  0  0
  -23.1752   -4.0780   21.0049 F   0  0  0  0  0  0  0  0  0  0  0  0
  1  2  1  0  0  0  0
  1  6  2  0  0  0  0
  2  7  2  0  0  0  0
  3  9  2  0  0  0  0
  3 10  1  0  0  0  0
  4 11  2  0  0  0  0
  4 19  1  0  0  0  0
  5 12  1  0  0  0  0
  5 19  2  0  0  0  0
  6 21  1  0  0  0  0
  7 23  1  0  0  0  0
  8 13  2  0  0  0  0
  8 22  1  0  0  0  0
  9 25  1  0  0  0  0
 10 28  2  0  0  0  0
 11 26  1  0  0  0  0
 12 26  2  0  0  0  0
 13 27  1  0  0  0  0
 14 15  2  0  0  0  0
 14 29  1  0  0  0  0
 15 30  1  0  0  0  0
 16 24  1  0  0  0  0
 16 27  2  0  0  0  0
 17 25  2  0  0  0  0
 17 28  1  0  0  0  0
 18 30  2  0  0  0  0
 18 31  1  0  0  0  0
 19 32  1  0  0  0  0
 20 32  1  0  0  0  0
 20 33  2  0  0  0  0
 20 34  1  0  0  0  0
 21 23  2  0  0  0  0
 21 40  1  0  0  0  0
 22 24  2  0  0  0  0
 22 41  1  0  0  0  0
 23 49  1  0  0  0  0
 24 42  1  0  0  0  0
 25 82  1  0  0  0  0
 26 91  1  0  0  0  0
 27 92  1  0  0  0  0
 28 93  1  0  0  0  0
 29 31  2  0  0  0  0
 29 91  1  0  0  0  0
 30 94  1  0  0  0  0
 31 95  1  0  0  0  0
 32 73  2  0  0  0  0
 33 74  1  0  0  0  0
 33 77  1  0  0  0  0
 34 78  1  0  0  0  0
 34 85  2  0  0  0  0
 35 50  1  0  0  0  0
 35 79  1  0  0  0  0
 35 86  2  0  0  0  0
 36 70  1  0  0  0  0
 36 75  1  0  0  0  0
 36 87  2  0  0  0  0
 37 58  1  0  0  0  0
 37 82  1  0  0  0  0
 37 88  2  0  0  0  0
 38 71  1  0  0  0  0
 38 80  1  0  0  0  0
 38 89  2  0  0  0  0
 39 76  1  0  0  0  0
 39 81  1  0  0  0  0
 39 90  2  0  0  0  0
 40 43  1  0  0  0  0
 41 50  1  0  0  0  0
 42 75  1  0  0  0  0
 43 45  1  0  0  0  0
 44 46  1  0  0  0  0
 44 47  1  0  0  0  0
 45 49  1  0  0  0  0
 46 51  1  0  0  0  0
 47 76  1  0  0  0  0
 48 51  1  0  0  0  0
 48 76  1  0  0  0  0
 49 79  1  0  0  0  0
 50 75  1  0  0  0  0
 51 74  1  0  0  0  0
 52 59  1  0  0  0  0
 53 71  1  0  0  0  0
 54 72  1  0  0  0  0
 55 72  1  0  0  0  0
 56 72  1  0  0  0  0
 57 83  1  0  0  0  0
 58 59  1  0  0  0  0
 60 61  1  0  0  0  0
 60 64  1  0  0  0  0
 61 65  1  0  0  0  0
 62 63  1  0  0  0  0
 62 66  1  0  0  0  0
 63 68  1  0  0  0  0
 64 81  1  0  0  0  0
 65 82  1  0  0  0  0
 66 84  1  0  0  0  0
 67 69  1  0  0  0  0
 67 84  1  0  0  0  0
 68 92  1  0  0  0  0
 69 93  1  0  0  0  0
 70 72  1  0  0  0  0
 70 80  1  0  0  0  0
 71 83  1  0  0  0  0
 73 74  1  0  0  0  0
M  CHG  2  83   1  84   1
M  ISO  4  39 100  68 101  81 100  92 101
M  END
> <Batch ID>
0005

> <Smiles>
CCCC(=O)N(CCCC[100NH:0][100C:0](=O)N1CCCC(n2nc(-c3ccc(Oc4ccc(F)cc4F)cc3)c(C(N)=O)c2N)C1)c1cccc(OCCNCCC[101CH2:1][101O:1]c2ccc3c(c2)CN(C(=O)C(NC(=O)C(C)NC)C(C)(C)C)C(C(=O)NC2CCCc4ccccc42)C3)c1

> <Shape>
0.246

> <Color>
0.086

> <Negative vol penalty>
0.000

$$$$

  -OEChem-04052315263D

 97104  0     1  0  0  0  0  0999 V2000
  -15.6600  -27.0492   21.9513 C   0  0  0  0  0  0  0  0  0  0  0  0
  -16.7199  -26.8638   21.0693 C   0  0  0  0  0  0  0  0  0  0  0  0
  -22.4903  -10.6505   21.8044 C   0  0  0  0  0  0  0  0  0  0  0  0
  -24.3844   -9.2648   22.3784 C   0  0  0  0  0  0  0  0  0  0  0  0
  -15.7964  -27.9228   23.0293 C   0  0  0  0  0  0  0  0  0  0  0  0
  -17.9164  -27.5528   21.2643 C   0  0  0  0  0  0  0  0  0  0  0  0
  -23.5701  -25.5220   20.0738 C   0  0  0  0  0  0  0  0  0  0  0  0
  -21.7498   -9.5099   21.4943 C   0  0  0  0  0  0  0  0  0  0  0  0
  -23.6438   -8.1241   22.0683 C   0  0  0  0  0  0  0  0  0  0  0  0
  -24.4311  -25.7223   18.9956 C   0  0  0  0  0  0  0  0  0  0  0  0
  -22.1352   -4.8295   21.7724 C   0  0  0  0  0  0  0  0  0  0  0  0
  -22.1949   -3.7555   22.6603 C   0  0  0  0  0  0  0  0  0  0  0  0
  -25.5213  -27.5023   20.2048 C   0  0  0  0  0  0  0  0  0  0  0  0
  -21.3110   -5.1587   24.4172 C   0  0  0  0  0  0  0  0  0  0  0  0
  -23.8076  -10.5280   22.2464 C   0  0  0  0  0  0  0  0  0  0  0  0
  -24.6639  -12.3473   23.8163 C   0  0  0  0  0  0  0  0  0  0  0  0
  -16.9985  -28.6155   23.2431 C   0  0  0  0  0  0  0  0  0  0  0  0
  -23.6714  -26.3189   21.2231 C   0  0  0  0  0  0  0  0  0  0  0  0
  -18.0685  -28.4375   22.3455 C   0  0  0  0  0  0  0  0  0  0  0  0
  -24.6621  -27.3084   21.2971 C   0  0  0  0  0  0  0  0  0  0  0  0
  -22.3265   -8.2467   21.6262 C   0  0  0  0  0  0  0  0  0  0  0  0
  -25.4050  -26.7145   19.0598 C   0  0  0  0  0  0  0  0  0  0  0  0
  -21.6635   -6.0683   22.2069 C   0  0  0  0  0  0  0  0  0  0  0  0
  -21.7828   -3.9200   23.9826 C   0  0  0  0  0  0  0  0  0  0  0  0
  -21.2514   -6.2328   23.5293 C   0  0  0  0  0  0  0  0  0  0  0  0
  -24.5733  -11.7059   22.5664 C   0  0  0  0  0  0  0  0  0  0  0  0
  -25.5078  -13.4086   23.5972 C   0  0  0  0  0  0  0  0  0  0  0  0
  -24.0411  -12.0136   25.0638 C   0  0  0  0  0  0  0  0  0  0  0  0
  -21.7442  -28.3600   22.7144 C   0  0  0  0  0  0  0  0  0  0  0  0
  -24.1144  -28.3751   24.9290 C   0  0  0  0  0  0  0  0  0  0  0  0
  -29.5394  -24.8452   18.2467 C   0  0  0  0  0  0  0  0  0  0  0  0
  -32.4768  -14.9678   18.9884 C   0  0  0  0  0  0  0  0  0  0  0  0
  -27.4134  -27.8750   25.6454 C   0  0  0  0  0  0  0  0  0  0  0  0
  -29.6527  -14.0203   19.1967 C   0  0  0  0  0  0  0  0  0  0  0  0
  -29.6355  -31.6254   17.7010 C   0  0  0  0  0  0  0  0  0  0  0  0
  -17.0826  -29.5852   24.3952 C   0  0  0  0  0  0  0  0  0  0  0  0
  -22.7524  -26.0724   22.3881 C   0  0  0  0  0  0  0  0  0  0  0  0
  -24.8254  -28.1774   22.5164 C   0  0  0  0  0  0  0  0  0  0  0  0
  -18.5114  -29.9924   24.7457 C   0  0  0  0  0  0  0  0  0  0  0  0
  -26.9529  -16.4149   20.1809 C   0  0  0  0  0  0  0  0  0  0  0  0
  -19.2892  -30.3508   23.4834 C   0  0  0  0  0  0  0  0  0  0  0  0
  -26.0143  -15.4928   20.9577 C   0  0  0  0  0  0  0  0  0  0  0  0
  -27.7218  -15.6468   19.1127 C   0  0  0  0  0  0  0  0  0  0  0  0
  -27.5597  -13.5541   20.4209 C   0  0  0  0  0  0  0  0  0  0  0  0
  -19.3908  -29.1480   22.5377 C   0  0  1  0  0  0  0  0  0  0  0  0
  -22.6111  -27.2839   23.3044 C   0  0  1  0  0  0  0  0  0  0  0  0
  -26.7766  -14.2834   21.5253 C   0  0  2  0  0  0  0  0  0  0  0  0
  -29.0605  -28.0035   27.5342 C   0  0  0  0  0  0  0  0  0  0  0  0
  -30.7932  -12.3842   16.6258 C   0  0  0  0  0  0  0  0  0  0  0  0
  -33.2388  -12.9375   16.6258 C   0  0  0  0  0  0  0  0  0  0  0  0
  -24.1488  -31.4167   24.6889 C   0  0  0  0  0  0  0  0  0  0  0  0
  -26.3781  -31.4118   25.8282 C   0  0  0  0  0  0  0  0  0  0  0  0
  -24.3657  -30.5522   27.0256 C   0  0  0  0  0  0  0  0  0  0  0  0
  -28.0313  -24.9869   25.4566 C   0  0  0  0  0  0  0  0  0  0  0  0
  -29.0596  -23.5320   17.6379 C   0  0  0  0  0  0  0  0  0  0  0  0
  -29.7277  -22.2906   18.2342 C   0  0  0  0  0  0  0  0  0  0  0  0
  -29.2194  -20.9917   17.6003 C   0  0  0  0  0  0  0  0  0  0  0  0
  -29.8850  -19.7679   18.2351 C   0  0  0  0  0  0  0  0  0  0  0  0
  -29.4048  -18.4726   17.5767 C   0  0  0  0  0  0  0  0  0  0  0  0
  -30.0353  -17.2119   18.1798 C   0  0  0  0  0  0  0  0  0  0  0  0
  -30.4163  -27.9533   17.3327 C   0  0  0  0  0  0  0  0  0  0  0  0
  -29.6242  -15.9045   17.5089 C   0  0  0  0  0  0  0  0  0  0  0  0
  -29.2747  -27.3698   18.1636 C   0  0  0  0  0  0  0  0  0  0  0  0
  -27.9734  -25.9102   16.6633 C   0  0  0  0  0  0  0  0  0  0  0  0
  -30.7663  -29.3917   17.6954 C   0  0  0  0  0  0  0  0  0  0  0  0
  -26.5613  -25.7773   17.2050 C   0  0  0  0  0  0  0  0  0  1  0  0
  -25.3678  -29.1875   25.1480 C   0  0  1  0  0  0  0  0  0  0  0  0
  -31.6320  -14.5024   17.8077 C   0  0  1  0  0  0  0  0  0  0  0  0
  -28.0964  -27.1126   26.7664 C   0  0  2  0  0  0  0  0  0  0  0  0
  -31.9306  -13.0396   17.4163 C   0  0  0  0  0  0  0  0  0  0  0  0
  -25.0610  -30.6271   25.6488 C   0  0  0  0  0  0  0  0  0  0  0  0
  -25.3013  -12.3094   21.6231 N   0  0  0  0  0  0  0  0  0  0  0  0
  -25.8574  -13.3412   22.2806 N   0  0  0  0  0  0  0  0  0  0  0  0
  -23.8989  -27.9020   23.6269 N   0  0  0  0  0  0  0  0  0  0  0  0
  -28.4154  -14.4809   19.6764 N   0  0  0  0  0  0  0  0  0  0  0  0
  -25.9775  -14.3836   24.4042 N   0  0  0  0  0  0  0  0  0  0  0  0
  -23.2037  -10.8908   25.1133 N   0  0  0  0  0  0  0  0  0  0  0  0
  -33.6856  -15.5085   18.6046 N   0  0  0  0  0  0  0  0  0  0  0  0
  -28.4960  -32.3821   17.4495 N   0  0  0  0  0  0  0  0  0  0  0  0
  -30.7743  -32.2567   18.1907 N   0  0  0  0  0  0  0  0  0  0  0  0
  -20.4003  -28.2220   23.0045 N   0  0  0  0  0  0  0  0  0  0  0  0
  -26.2075  -28.4072   26.0503 N   0  0  0  0  0  0  0  0  0  0  0  0
  -28.9574  -26.0099   17.7340 N   0  0  0  0  0  0  0  0  0  0  0  0
  -30.2330  -14.7343   18.1374 N   0  0  0  0  0  0  0  0  0  0  0  0
  -29.6076  -30.2526   17.4552 N   0  3  0  0  0  0  0  0  0  0  0  0
  -28.8605  -25.9573   26.2165 N   0  3  0  0  0  0  0  0  0  0  0  0
  -24.2088  -12.7005   26.1000 O   0  0  0  0  0  0  0  0  0  0  0  0
  -22.2569  -29.2505   22.0466 O   0  0  0  0  0  0  0  0  0  0  0  0
  -23.3581  -28.1620   25.8799 O   0  0  0  0  0  0  0  0  0  0  0  0
  -30.3979  -24.8504   19.1325 O   0  0  0  0  0  0  0  0  0  0  0  0
  -32.1343  -14.8457   20.1623 O   0  0  0  0  0  0  0  0  0  0  0  0
  -27.9025  -27.9904   24.5238 O   0  0  0  0  0  0  0  0  0  0  0  0
  -30.2115  -13.0342   19.6939 O   0  0  0  0  0  0  0  0  0  0  0  0
  -21.6042   -7.1334   21.3239 O   0  0  0  0  0  0  0  0  0  0  0  0
  -26.2521  -26.9140   18.0013 O   0  0  0  0  0  0  0  0  0  1  0  0
  -21.8387   -2.8881   24.8348 F   0  0  0  0  0  0  0  0  0  0  0  0
  -20.7962   -7.4202   23.9522 F   0  0  0  0  0  0  0  0  0  0  0  0
  1  2  1  0  0  0  0
  1  5  2  0  0  0  0
  2  6  2  0  0  0  0
  3  8  2  0  0  0  0
  3 15  1  0  0  0  0
  4  9  1  0  0  0  0
  4 15  2  0  0  0  0
  5 17  1  0  0  0  0
  6 19  1  0  0  0  0
  7 10  2  0  0  0  0
  7 18  1  0  0  0  0
  8 21  1  0  0  0  0
  9 21  2  0  0  0  0
 10 22  1  0  0  0  0
 11 12  2  0  0  0  0
 11 23  1  0  0  0  0
 12 24  1  0  0  0  0
 13 20  1  0  0  0  0
 13 22  2  0  0  0  0
 14 24  2  0  0  0  0
 14 25  1  0  0  0  0
 15 26  1  0  0  0  0
 16 26  1  0  0  0  0
 16 27  2  0  0  0  0
 16 28  1  0  0  0  0
 17 19  2  0  0  0  0
 17 36  1  0  0  0  0
 18 20  2  0  0  0  0
 18 37  1  0  0  0  0
 19 45  1  0  0  0  0
 20 38  1  0  0  0  0
 21 94  1  0  0  0  0
 22 95  1  0  0  0  0
 23 25  2  0  0  0  0
 23 94  1  0  0  0  0
 24 96  1  0  0  0  0
 25 97  1  0  0  0  0
 26 72  2  0  0  0  0
 27 73  1  0  0  0  0
 27 76  1  0  0  0  0
 28 77  1  0  0  0  0
 28 87  2  0  0  0  0
 29 46  1  0  0  0  0
 29 81  1  0  0  0  0
 29 88  2  0  0  0  0
 30 67  1  0  0  0  0
 30 74  1  0  0  0  0
 30 89  2  0  0  0  0
 31 55  1  0  0  0  0
 31 83  1  0  0  0  0
 31 90  2  0  0  0  0
 32 68  1  0  0  0  0
 32 78  1  0  0  0  0
 32 91  2  0  0  0  0
 33 69  1  0  0  0  0
 33 82  1  0  0  0  0
 33 92  2  0  0  0  0
 34 75  1  0  0  0  0
 34 84  1  0  0  0  0
 34 93  2  0  0  0  0
 35 79  1  0  0  0  0
 35 80  1  0  0  0  0
 35 85  2  0  0  0  0
 36 39  1  0  0  0  0
 37 46  1  0  0  0  0
 38 74  1  0  0  0  0
 39 41  1  0  0  0  0
 40 42  1  0  0  0  0
 40 43  1  0  0  0  0
 41 45  1  0  0  0  0
 42 47  1  0  0  0  0
 43 75  1  0  0  0  0
 44 47  1  0  0  0  0
 44 75  1  0  0  0  0
 45 81  1  0  0  0  0
 46 74  1  0  0  0  0
 47 73  1  0  0  0  0
 48 69  1  0  0  0  0
 49 70  1  0  0  0  0
 50 70  1  0  0  0  0
 51 71  1  0  0  0  0
 52 71  1  0  0  0  0
 53 71  1  0  0  0  0
 54 86  1  0  0  0  0
 55 56  1  0  0  0  0
 56 57  1  0  0  0  0
 57 58  1  0  0  0  0
 58 59  1  0  0  0  0
 59 60  1  0  0  0  0
 60 62  1  0  0  0  0
 61 63  1  0  0  0  0
 61 65  1  0  0  0  0
 62 84  1  0  0  0  0
 63 83  1  0  0  0  0
 64 66  1  0  0  0  0
 64 83  1  0  0  0  0
 65 85  1  0  0  0  0
 66 95  1  0  0  0  0
 67 71  1  0  0  0  0
 67 82  1  0  0  0  0
 68 70  1  0  0  0  0
 68 84  1  0  0  0  0
 69 86  1  0  0  0  0
 72 73  1  0  0  0  0
M  CHG  2  85   1  86   1
M  ISO  4  34 100  66 101  84 100  95 101
M  END
> <Batch ID>
0005

> <Smiles>
CNC(C)C(=O)NC(C(=O)N1Cc2cc([101O:1][101CH2:1]CN(CCCNC(=N)N)C(=O)CCCCCCC[100N:0](C(C(N)=O)C(C)C)[100C:0](=O)N3CCCC(n4nc(-c5ccc(Oc6ccc(F)cc6F)cc5)c(C(N)=O)c4N)C3)ccc2CC1C(=O)NC1CCCc2ccccc21)C(C)(C)C

> <Shape>
0.277

> <Color>
0.086

> <Negative vol penalty>
0.000

$$$$

  -OEChem-04052315263D

 87 95  0     1  0  0  0  0  0999 V2000
  -21.5486  -14.6785   28.3186 C   0  0  0  0  0  0  0  0  0  0  0  0
  -22.9259  -14.8257   28.1891 C   0  0  0  0  0  0  0  0  0  0  0  0
  -22.9994   -9.8946   19.9809 C   0  0  0  0  0  0  0  0  0  0  0  0
  -23.7243   -9.9452   22.2850 C   0  0  0  0  0  0  0  0  0  0  0  0
  -20.7066  -15.7623   28.0723 C   0  0  0  0  0  0  0  0  0  0  0  0
  -23.4620  -16.0565   27.8120 C   0  0  0  0  0  0  0  0  0  0  0  0
  -28.7638  -18.4893   29.6771 C   0  0  0  0  0  0  0  0  0  0  0  0
  -32.0584  -16.5485   22.5653 C   0  0  0  0  0  0  0  0  0  0  0  0
  -32.6473  -17.4451   23.4569 C   0  0  0  0  0  0  0  0  0  0  0  0
  -22.2325   -8.7604   20.2471 C   0  0  0  0  0  0  0  0  0  0  0  0
  -22.9573   -8.8110   22.5513 C   0  0  0  0  0  0  0  0  0  0  0  0
  -30.0297  -18.5379   29.0951 C   0  0  0  0  0  0  0  0  0  0  0  0
  -21.4746   -5.7184   23.7543 C   0  0  0  0  0  0  0  0  0  0  0  0
  -22.0602   -4.7024   24.5095 C   0  0  0  0  0  0  0  0  0  0  0  0
  -29.5382  -20.7330   28.2237 C   0  0  0  0  0  0  0  0  0  0  0  0
  -29.8805  -17.4477   23.0993 C   0  0  0  0  0  0  0  0  0  0  0  0
  -23.7867   -4.4547   22.8377 C   0  0  0  0  0  0  0  0  0  0  0  0
  -23.7454  -10.4870   20.9999 C   0  0  0  0  0  0  0  0  0  0  0  0
  -24.1316  -13.0025   20.8240 C   0  0  0  0  0  0  0  0  0  0  0  0
  -21.2333  -17.0095   27.7015 C   0  0  0  0  0  0  0  0  0  0  0  0
  -27.8700  -19.5594   29.5274 C   0  0  0  0  0  0  0  0  0  0  0  0
  -22.6263  -17.1575   27.5592 C   0  0  0  0  0  0  0  0  0  0  0  0
  -28.2625  -20.6966   28.8070 C   0  0  0  0  0  0  0  0  0  0  0  0
  -30.6750  -16.5498   22.3865 C   0  0  0  0  0  0  0  0  0  0  0  0
  -31.8527  -18.3430   24.1697 C   0  0  0  0  0  0  0  0  0  0  0  0
  -22.2114   -8.2186   21.5322 C   0  0  0  0  0  0  0  0  0  0  0  0
  -30.4161  -19.6586   28.3658 C   0  0  0  0  0  0  0  0  0  0  0  0
  -22.0450   -6.1025   22.5407 C   0  0  0  0  0  0  0  0  0  0  0  0
  -23.2162   -4.0705   24.0512 C   0  0  0  0  0  0  0  0  0  0  0  0
  -23.2010   -5.4707   22.0824 C   0  0  0  0  0  0  0  0  0  0  0  0
  -30.4693  -18.3443   23.9910 C   0  0  0  0  0  0  0  0  0  0  0  0
  -24.5383  -11.6584   20.7254 C   0  0  0  0  0  0  0  0  0  0  0  0
  -25.2417  -13.7247   20.4598 C   0  0  0  0  0  0  0  0  0  0  0  0
  -22.8638  -13.5493   21.2104 C   0  0  0  0  0  0  0  0  0  0  0  0
  -24.9961  -19.9152   28.2167 C   0  0  0  0  0  0  0  0  0  0  0  0
  -25.2041  -22.8836   29.5079 C   0  0  0  0  0  0  0  0  0  0  0  0
  -27.1892  -25.4113   30.6556 C   0  0  0  0  0  0  0  0  0  0  0  0
  -32.3583  -20.6726   24.8863 C   0  0  0  0  0  0  0  0  0  0  0  0
  -30.7215  -14.6839   20.6946 C   0  0  0  0  0  0  0  0  0  0  0  0
  -20.2806  -18.1391   27.3997 C   0  0  0  0  0  0  0  0  0  0  0  0
  -26.5179  -19.5028   30.1839 C   0  0  0  0  0  0  0  0  0  0  0  0
  -27.3477  -21.8805   28.6338 C   0  0  0  0  0  0  0  0  0  0  0  0
  -20.9515  -19.5100   27.3688 C   0  0  0  0  0  0  0  0  0  0  0  0
  -29.6027  -12.2315   18.3684 C   0  0  0  0  0  0  0  0  0  0  0  0
  -22.2390  -19.4559   26.5525 C   0  0  0  0  0  0  0  0  0  0  0  0
  -28.1519  -11.9743   18.7823 C   0  0  0  0  0  0  0  0  0  0  0  0
  -30.5031  -12.4745   19.5783 C   0  0  0  0  0  0  0  0  0  0  0  0
  -28.5878  -13.2640   20.9116 C   0  0  0  0  0  0  0  0  0  0  0  0
  -23.2473  -18.4834   27.1763 C   0  0  1  0  0  0  0  0  0  0  0  0
  -25.4988  -20.4337   29.5343 C   0  0  1  0  0  0  0  0  0  0  0  0
  -27.6303  -13.0780   19.7233 C   0  0  2  0  0  0  0  0  0  0  0  0
  -27.0724  -27.7280   31.6131 C   0  0  0  0  0  0  0  0  0  0  0  0
  -24.5948  -23.9971   26.7332 C   0  0  0  0  0  0  0  0  0  0  0  0
  -25.4176  -26.2258   27.5232 C   0  0  0  0  0  0  0  0  0  0  0  0
  -23.4324  -25.1749   28.6083 C   0  0  0  0  0  0  0  0  0  0  0  0
  -28.5015  -24.5638   33.1693 C   0  0  0  0  0  0  0  0  0  0  0  0
  -33.1809  -18.7076   26.2346 C   0  0  0  0  0  0  0  0  0  0  0  0
  -32.2316  -18.4680   27.3950 C   0  0  0  0  0  0  0  0  0  1  0  0
  -25.7324  -24.2182   29.0404 C   0  0  1  0  0  0  0  0  0  0  0  0
  -27.1304  -26.2408   31.9256 C   0  0  2  0  0  0  0  0  0  0  0  0
  -32.3409  -21.1240   23.4474 C   0  0  0  0  0  0  0  0  0  0  0  0
  -24.8111  -24.8811   27.9777 C   0  0  0  0  0  0  0  0  0  0  0  0
  -25.8076  -11.5314   20.3294 N   0  0  0  0  0  0  0  0  0  0  0  0
  -26.2081  -12.8051   20.1759 N   0  0  0  0  0  0  0  0  0  0  0  0
  -26.0337  -21.7747   29.2894 N   0  0  0  0  0  0  0  0  0  0  0  0
  -29.9483  -13.5356   20.4216 N   0  0  0  0  0  0  0  0  0  0  0  0
  -25.4756  -15.0503   20.3579 N   0  0  0  0  0  0  0  0  0  0  0  0
  -21.8317  -12.6655   21.5538 N   0  0  0  0  0  0  0  0  0  0  0  0
  -30.0774  -15.6392   21.4801 N   0  0  0  0  0  0  0  0  0  0  0  0
  -23.8927  -19.0898   28.3209 N   0  0  0  0  0  0  0  0  0  0  0  0
  -25.9330  -25.0214   30.2417 N   0  0  0  0  0  0  0  0  0  0  0  0
  -32.5036  -19.2707   25.0969 N   0  0  0  0  0  0  0  0  0  0  0  0
  -28.3327  -25.9842   32.7680 N   0  3  0  0  0  0  0  0  0  0  0  0
  -22.6475  -14.7847   21.2342 O   0  0  0  0  0  0  0  0  0  0  0  0
  -25.5662  -20.2410   27.1820 O   0  0  0  0  0  0  0  0  0  0  0  0
  -24.0992  -22.8282   30.0536 O   0  0  0  0  0  0  0  0  0  0  0  0
  -28.2436  -25.1397   30.0856 O   0  0  0  0  0  0  0  0  0  0  0  0
  -32.2825  -21.5414   25.7597 O   0  0  0  0  0  0  0  0  0  0  0  0
  -31.8602  -14.8224   20.2407 O   0  0  0  0  0  0  0  0  0  0  0  0
  -21.4629   -7.1119   21.7924 O   0  0  0  0  0  0  0  0  0  0  0  0
  -31.6509  -19.7083   27.7961 O   0  0  0  0  0  0  0  0  0  1  0  0
  -23.7793   -3.0959   24.7773 F   0  0  0  0  0  0  0  0  0  0  0  0
  -23.7543   -5.8362   20.9179 F   0  0  0  0  0  0  0  0  0  0  0  0
  -32.4715  -20.0722   22.5946 F   0  0  0  0  0  0  0  0  0  0  0  0
  -31.1814  -21.7424   23.1086 F   0  0  0  0  0  0  0  0  0  0  0  0
  -33.3596  -21.9725   23.1574 F   0  0  0  0  0  0  0  0  0  0  0  0
  -29.4490  -19.4397   24.8535 Cl  0  0  0  0  0  0  0  0  0  0  0  0
  1  2  1  0  0  0  0
  1  5  2  0  0  0  0
  2  6  2  0  0  0  0
  3 10  2  0  0  0  0
  3 18  1  0  0  0  0
  4 11  1  0  0  0  0
  4 18  2  0  0  0  0
  5 20  1  0  0  0  0
  6 22  1  0  0  0  0
  7 12  2  0  0  0  0
  7 21  1  0  0  0  0
  8  9  2  0  0  0  0
  8 24  1  0  0  0  0
  9 25  1  0  0  0  0
 10 26  1  0  0  0  0
 11 26  2  0  0  0  0
 12 27  1  0  0  0  0
 13 14  2  0  0  0  0
 13 28  1  0  0  0  0
 14 29  1  0  0  0  0
 15 23  1  0  0  0  0
 15 27  2  0  0  0  0
 16 24  2  0  0  0  0
 16 31  1  0  0  0  0
 17 29  2  0  0  0  0
 17 30  1  0  0  0  0
 18 32  1  0  0  0  0
 19 32  1  0  0  0  0
 19 33  2  0  0  0  0
 19 34  1  0  0  0  0
 20 22  2  0  0  0  0
 20 40  1  0  0  0  0
 21 23  2  0  0  0  0
 21 41  1  0  0  0  0
 22 49  1  0  0  0  0
 23 42  1  0  0  0  0
 24 69  1  0  0  0  0
 25 31  2  0  0  0  0
 25 72  1  0  0  0  0
 26 80  1  0  0  0  0
 27 81  1  0  0  0  0
 28 30  2  0  0  0  0
 28 80  1  0  0  0  0
 29 82  1  0  0  0  0
 30 83  1  0  0  0  0
 31 87  1  0  0  0  0
 32 63  2  0  0  0  0
 33 64  1  0  0  0  0
 33 67  1  0  0  0  0
 34 68  1  0  0  0  0
 34 74  2  0  0  0  0
 35 50  1  0  0  0  0
 35 70  1  0  0  0  0
 35 75  2  0  0  0  0
 36 59  1  0  0  0  0
 36 65  1  0  0  0  0
 36 76  2  0  0  0  0
 37 60  1  0  0  0  0
 37 71  1  0  0  0  0
 37 77  2  0  0  0  0
 38 61  1  0  0  0  0
 38 72  1  0  0  0  0
 38 78  2  0  0  0  0
 39 66  1  0  0  0  0
 39 69  1  0  0  0  0
 39 79  2  0  0  0  0
 40 43  1  0  0  0  0
 41 50  1  0  0  0  0
 42 65  1  0  0  0  0
 43 45  1  0  0  0  0
 44 46  1  0  0  0  0
 44 47  1  0  0  0  0
 45 49  1  0  0  0  0
 46 51  1  0  0  0  0
 47 66  1  0  0  0  0
 48 51  1  0  0  0  0
 48 66  1  0  0  0  0
 49 70  1  0  0  0  0
 50 65  1  0  0  0  0
 51 64  1  0  0  0  0
 52 60  1  0  0  0  0
 53 62  1  0  0  0  0
 54 62  1  0  0  0  0
 55 62  1  0  0  0  0
 56 73  1  0  0  0  0
 57 58  1  0  0  0  0
 57 72  1  0  0  0  0
 58 81  1  0  0  0  0
 59 62  1  0  0  0  0
 59 71  1  0  0  0  0
 60 73  1  0  0  0  0
 61 84  1  0  0  0  0
 61 85  1  0  0  0  0
 61 86  1  0  0  0  0
 63 64  1  0  0  0  0
M  CHG  1  73   1
M  ISO  4  39 100  58 101  69 100  81 101
M  END
> <Batch ID>
0005

> <Smiles>
CNC(C)C(=O)NC(C(=O)N1Cc2cc([101O:1][101CH2:1]CN(C(=O)C(F)(F)F)c3ccc([100NH:0][100C:0](=O)N4CCCC(n5nc(-c6ccc(Oc7ccc(F)cc7F)cc6)c(C(N)=O)c5N)C4)cc3Cl)ccc2CC1C(=O)NC1CCCc2ccccc21)C(C)(C)C

> <Shape>
0.166

> <Color>
0.202

> <Negative vol penalty>
0.000

$$$$

  -OEChem-04052315263D

 82 90  0     1  0  0  0  0  0999 V2000
  -18.7543  -27.0561   26.0032 C   0  0  0  0  0  0  0  0  0  0  0  0
  -19.9874  -26.5667   25.5846 C   0  0  0  0  0  0  0  0  0  0  0  0
  -27.1802  -20.0208   17.2766 C   0  0  0  0  0  0  0  0  0  0  0  0
  -24.5067   -9.2460   21.1266 C   0  0  0  0  0  0  0  0  0  0  0  0
  -22.5339  -10.5476   20.6255 C   0  0  0  0  0  0  0  0  0  0  0  0
  -17.9992  -27.8606   25.1509 C   0  0  0  0  0  0  0  0  0  0  0  0
  -20.4657  -26.8807   24.3129 C   0  0  0  0  0  0  0  0  0  0  0  0
  -26.3005  -27.8051   22.6986 C   0  0  0  0  0  0  0  0  0  0  0  0
  -28.2504  -20.7922   17.7296 C   0  0  0  0  0  0  0  0  0  0  0  0
  -26.4897  -19.1961   18.1647 C   0  0  0  0  0  0  0  0  0  0  0  0
  -23.7049   -8.1413   21.4139 C   0  0  0  0  0  0  0  0  0  0  0  0
  -21.7321   -9.4429   20.9127 C   0  0  0  0  0  0  0  0  0  0  0  0
  -27.2498  -26.9791   22.0983 C   0  0  0  0  0  0  0  0  0  0  0  0
  -21.7893   -7.0538   23.9774 C   0  0  0  0  0  0  0  0  0  0  0  0
  -22.0833   -6.3221   25.1280 C   0  0  0  0  0  0  0  0  0  0  0  0
  -26.6958  -27.9169   19.9459 C   0  0  0  0  0  0  0  0  0  0  0  0
  -27.9396  -19.9141   19.9589 C   0  0  0  0  0  0  0  0  0  0  0  0
  -22.4520   -4.3510   23.7803 C   0  0  0  0  0  0  0  0  0  0  0  0
  -23.9212  -10.4491   20.7325 C   0  0  0  0  0  0  0  0  0  0  0  0
  -25.2974  -11.9421   19.1882 C   0  0  0  0  0  0  0  0  0  0  0  0
  -18.4727  -28.1926   23.8718 C   0  0  0  0  0  0  0  0  0  0  0  0
  -25.5328  -28.6869   21.9243 C   0  0  0  0  0  0  0  0  0  0  0  0
  -19.7155  -27.6894   23.4422 C   0  0  0  0  0  0  0  0  0  0  0  0
  -25.7392  -28.7548   20.5391 C   0  0  0  0  0  0  0  0  0  0  0  0
  -28.6301  -20.7389   19.0708 C   0  0  0  0  0  0  0  0  0  0  0  0
  -26.8694  -19.1427   19.5058 C   0  0  0  0  0  0  0  0  0  0  0  0
  -22.3177   -8.2398   21.3069 C   0  0  0  0  0  0  0  0  0  0  0  0
  -27.4455  -27.0328   20.7214 C   0  0  0  0  0  0  0  0  0  0  0  0
  -21.8265   -6.4340   22.7283 C   0  0  0  0  0  0  0  0  0  0  0  0
  -22.4147   -4.9708   25.0294 C   0  0  0  0  0  0  0  0  0  0  0  0
  -22.1578   -5.0827   22.6298 C   0  0  0  0  0  0  0  0  0  0  0  0
  -24.7488  -11.5908   20.4362 C   0  0  0  0  0  0  0  0  0  0  0  0
  -25.9969  -13.0983   19.4338 C   0  0  0  0  0  0  0  0  0  0  0  0
  -25.1847  -11.2823   17.9203 C   0  0  0  0  0  0  0  0  0  0  0  0
  -22.4303  -29.0214   21.3189 C   0  0  0  0  0  0  0  0  0  0  0  0
  -23.4182  -31.6967   19.7732 C   0  0  0  0  0  0  0  0  0  0  0  0
  -29.0684  -23.9458   19.7290 C   0  0  0  0  0  0  0  0  0  0  0  0
  -25.9407  -33.3636   18.1904 C   0  0  0  0  0  0  0  0  0  0  0  0
  -26.4146  -18.1354   21.7696 C   0  0  0  0  0  0  0  0  0  0  0  0
  -17.5995  -29.0267   22.9683 C   0  0  0  0  0  0  0  0  0  0  0  0
  -24.5316  -29.5904   22.5905 C   0  0  0  0  0  0  0  0  0  0  0  0
  -24.9551  -29.6988   19.6658 C   0  0  0  0  0  0  0  0  0  0  0  0
  -18.3471  -29.6208   21.7774 C   0  0  0  0  0  0  0  0  0  0  0  0
  -27.2390  -15.3315   23.8032 C   0  0  0  0  0  0  0  0  0  0  0  0
  -19.2170  -28.5602   21.1101 C   0  0  0  0  0  0  0  0  0  0  0  0
  -26.7098  -14.1372   23.0059 C   0  0  0  0  0  0  0  0  0  0  0  0
  -26.3226  -16.5475   23.6788 C   0  0  0  0  0  0  0  0  0  0  0  0
  -25.4781  -15.7546   21.5045 C   0  0  0  0  0  0  0  0  0  0  0  0
  -20.2795  -28.0283   22.0794 C   0  0  1  0  0  0  0  0  0  0  0  0
  -23.4450  -30.0823   21.6393 C   0  0  1  0  0  0  0  0  0  0  0  0
  -26.4013  -14.5260   21.5467 C   0  0  2  0  0  0  0  0  0  0  0  0
  -26.4359  -35.5160   16.9991 C   0  0  0  0  0  0  0  0  0  0  0  0
  -21.9235  -30.6778   17.3160 C   0  0  0  0  0  0  0  0  0  0  0  0
  -23.2105  -32.3238   15.9368 C   0  0  0  0  0  0  0  0  0  0  0  0
  -21.6860  -33.1312   17.7385 C   0  0  0  0  0  0  0  0  0  0  0  0
  -28.0109  -34.1161   20.1670 C   0  0  0  0  0  0  0  0  0  0  0  0
  -29.7820  -21.5695   19.5579 C   0  0  0  0  0  0  0  0  0  0  0  0
  -28.6246  -24.9677   20.7538 C   0  0  0  0  0  0  0  0  0  1  0  0
  -23.8658  -32.0153   18.3671 C   0  0  1  0  0  0  0  0  0  0  0  0
  -26.4532  -34.7854   18.3327 C   0  0  2  0  0  0  0  0  0  0  0  0
  -22.6850  -32.0177   17.3555 C   0  0  0  0  0  0  0  0  0  0  0  0
  -25.0721  -12.4539   21.4029 N   0  0  0  0  0  0  0  0  0  0  0  0
  -25.8315  -13.3589   20.7623 N   0  0  0  0  0  0  0  0  0  0  0  0
  -23.9835  -30.5574   20.3632 N   0  0  0  0  0  0  0  0  0  0  0  0
  -26.0783  -16.8593   22.2689 N   0  0  0  0  0  0  0  0  0  0  0  0
  -26.7312  -13.9073   18.6409 N   0  0  0  0  0  0  0  0  0  0  0  0
  -24.4281  -10.1050   17.8446 N   0  0  0  0  0  0  0  0  0  0  0  0
  -26.1673  -18.3053   20.4078 N   0  0  0  0  0  0  0  0  0  0  0  0
  -21.3692  -28.9726   22.2027 N   0  0  0  0  0  0  0  0  0  0  0  0
  -29.3388  -22.7184   20.3133 N   0  0  0  0  0  0  0  0  0  0  0  0
  -24.5882  -33.2804   18.4454 N   0  0  0  0  0  0  0  0  0  0  0  0
  -27.8512  -34.7828   18.8490 N   0  3  0  0  0  0  0  0  0  0  0  0
  -25.7521  -11.7147   16.8885 O   0  0  0  0  0  0  0  0  0  0  0  0
  -22.5970  -28.3015   20.3414 O   0  0  0  0  0  0  0  0  0  0  0  0
  -22.6026  -32.4357   20.3302 O   0  0  0  0  0  0  0  0  0  0  0  0
  -29.1681  -24.2046   18.5327 O   0  0  0  0  0  0  0  0  0  0  0  0
  -26.6667  -32.4217   17.8801 O   0  0  0  0  0  0  0  0  0  0  0  0
  -26.9125  -19.0038   22.4907 O   0  0  0  0  0  0  0  0  0  0  0  0
  -21.5350   -7.1620   21.5869 O   0  0  0  0  0  0  0  0  0  0  0  0
  -28.3710  -26.2272   20.1328 O   0  0  0  0  0  0  0  0  0  1  0  0
  -22.6986   -4.2687   26.1343 F   0  0  0  0  0  0  0  0  0  0  0  0
  -22.1964   -4.4822   21.4324 F   0  0  0  0  0  0  0  0  0  0  0  0
  1  2  1  0  0  0  0
  1  6  2  0  0  0  0
  2  7  2  0  0  0  0
  3  9  2  0  0  0  0
  3 10  1  0  0  0  0
  4 11  2  0  0  0  0
  4 19  1  0  0  0  0
  5 12  1  0  0  0  0
  5 19  2  0  0  0  0
  6 21  1  0  0  0  0
  7 23  1  0  0  0  0
  8 13  2  0  0  0  0
  8 22  1  0  0  0  0
  9 25  1  0  0  0  0
 10 26  2  0  0  0  0
 11 27  1  0  0  0  0
 12 27  2  0  0  0  0
 13 28  1  0  0  0  0
 14 15  2  0  0  0  0
 14 29  1  0  0  0  0
 15 30  1  0  0  0  0
 16 24  1  0  0  0  0
 16 28  2  0  0  0  0
 17 25  2  0  0  0  0
 17 26  1  0  0  0  0
 18 30  2  0  0  0  0
 18 31  1  0  0  0  0
 19 32  1  0  0  0  0
 20 32  1  0  0  0  0
 20 33  2  0  0  0  0
 20 34  1  0  0  0  0
 21 23  2  0  0  0  0
 21 40  1  0  0  0  0
 22 24  2  0  0  0  0
 22 41  1  0  0  0  0
 23 49  1  0  0  0  0
 24 42  1  0  0  0  0
 25 57  1  0  0  0  0
 26 68  1  0  0  0  0
 27 79  1  0  0  0  0
 28 80  1  0  0  0  0
 29 31  2  0  0  0  0
 29 79  1  0  0  0  0
 30 81  1  0  0  0  0
 31 82  1  0  0  0  0
 32 62  2  0  0  0  0
 33 63  1  0  0  0  0
 33 66  1  0  0  0  0
 34 67  1  0  0  0  0
 34 73  2  0  0  0  0
 35 50  1  0  0  0  0
 35 69  1  0  0  0  0
 35 74  2  0  0  0  0
 36 59  1  0  0  0  0
 36 64  1  0  0  0  0
 36 75  2  0  0  0  0
 37 58  1  0  0  0  0
 37 70  1  0  0  0  0
 37 76  2  0  0  0  0
 38 60  1  0  0  0  0
 38 71  1  0  0  0  0
 38 77  2  0  0  0  0
 39 65  1  0  0  0  0
 39 68  1  0  0  0  0
 39 78  2  0  0  0  0
 40 43  1  0  0  0  0
 41 50  1  0  0  0  0
 42 64  1  0  0  0  0
 43 45  1  0  0  0  0
 44 46  1  0  0  0  0
 44 47  1  0  0  0  0
 45 49  1  0  0  0  0
 46 51  1  0  0  0  0
 47 65  1  0  0  0  0
 48 51  1  0  0  0  0
 48 65  1  0  0  0  0
 49 69  1  0  0  0  0
 50 64  1  0  0  0  0
 51 63  1  0  0  0  0
 52 60  1  0  0  0  0
 53 61  1  0  0  0  0
 54 61  1  0  0  0  0
 55 61  1  0  0  0  0
 56 72  1  0  0  0  0
 57 70  1  0  0  0  0
 58 80  1  0  0  0  0
 59 61  1  0  0  0  0
 59 71  1  0  0  0  0
 60 72  1  0  0  0  0
 62 63  1  0  0  0  0
M  CHG  1  72   1
M  ISO  4  39 100  58 101  68 100  80 101
M  END
> <Batch ID>
0005

> <Smiles>
CNC(C)C(=O)NC(C(=O)N1Cc2cc([101O:1][101CH2:1]C(=O)NCc3cccc([100NH:0][100C:0](=O)N4CCCC(n5nc(-c6ccc(Oc7ccc(F)cc7F)cc6)c(C(N)=O)c5N)C4)c3)ccc2CC1C(=O)NC1CCCc2ccccc21)C(C)(C)C

> <Shape>
0.255

> <Color>
0.132

> <Negative vol penalty>
0.000

$$$$

  -OEChem-04052315263D

 94102  0     1  0  0  0  0  0999 V2000
  -24.5392  -21.5860   19.2763 C   0  0  0  0  0  0  0  0  0  0  0  0
  -25.7223  -21.3830   19.3165 C   0  0  0  0  0  0  0  0  0  0  0  0
  -20.5076  -11.8856   15.0468 C   0  0  0  0  0  0  0  0  0  0  0  0
  -20.1296  -12.8228   14.0907 C   0  0  0  0  0  0  0  0  0  0  0  0
  -23.0706   -9.8767   19.9428 C   0  0  0  0  0  0  0  0  0  0  0  0
  -23.8345   -9.8803   22.2348 C   0  0  0  0  0  0  0  0  0  0  0  0
  -22.5419  -23.3107   15.2672 C   0  0  0  0  0  0  0  0  0  0  0  0
  -21.5113  -12.1934   15.9643 C   0  0  0  0  0  0  0  0  0  0  0  0
  -20.7543  -14.0689   14.0523 C   0  0  0  0  0  0  0  0  0  0  0  0
  -22.7819  -19.1576    9.4359 C   0  0  0  0  0  0  0  0  0  0  0  0
  -22.3251   -8.7247   20.1930 C   0  0  0  0  0  0  0  0  0  0  0  0
  -23.0890   -8.7283   22.4851 C   0  0  0  0  0  0  0  0  0  0  0  0
  -22.2151  -23.9124   14.0520 C   0  0  0  0  0  0  0  0  0  0  0  0
  -22.6621  -20.5306    9.2255 C   0  0  0  0  0  0  0  0  0  0  0  0
  -22.8920   -5.4049   20.4800 C   0  0  0  0  0  0  0  0  0  0  0  0
  -22.9554   -4.3761   19.5404 C   0  0  0  0  0  0  0  0  0  0  0  0
  -21.0862  -21.4559   14.7404 C   0  0  0  0  0  0  0  0  0  0  0  0
  -24.4382  -20.9223   10.8102 C   0  0  0  0  0  0  0  0  0  0  0  0
  -20.5706   -4.5464   19.1930 C   0  0  0  0  0  0  0  0  0  0  0  0
  -23.8254  -10.4545   20.9637 C   0  0  0  0  0  0  0  0  0  0  0  0
  -21.9775  -22.0824   15.6114 C   0  0  0  0  0  0  0  0  0  0  0  0
  -24.1715  -12.9792   20.8452 C   0  0  0  0  0  0  0  0  0  0  0  0
  -22.1553  -13.4402   15.9310 C   0  0  0  0  0  0  0  0  0  0  0  0
  -23.7249  -18.6564   10.3448 C   0  0  0  0  0  0  0  0  0  0  0  0
  -21.7666  -14.3941   14.9711 C   0  0  0  0  0  0  0  0  0  0  0  0
  -24.5697  -19.5424   11.0285 C   0  0  0  0  0  0  0  0  0  0  0  0
  -20.7593  -22.0575   13.5252 C   0  0  0  0  0  0  0  0  0  0  0  0
  -22.3343   -8.1505   21.4642 C   0  0  0  0  0  0  0  0  0  0  0  0
  -23.4884  -21.4133    9.9148 C   0  0  0  0  0  0  0  0  0  0  0  0
  -21.3238  -23.2858   13.1810 C   0  0  0  0  0  0  0  0  0  0  0  0
  -21.6679   -6.0046   20.7762 C   0  0  0  0  0  0  0  0  0  0  0  0
  -21.7947   -3.9468   18.8969 C   0  0  0  0  0  0  0  0  0  0  0  0
  -20.5072   -5.5753   20.1327 C   0  0  0  0  0  0  0  0  0  0  0  0
  -24.5961  -11.6443   20.7056 C   0  0  0  0  0  0  0  0  0  0  0  0
  -25.2643  -13.7270   20.4807 C   0  0  0  0  0  0  0  0  0  0  0  0
  -22.3189  -21.4559   16.8787 C   0  0  0  0  0  0  0  0  0  0  0  0
  -22.9027  -13.4969   21.2668 C   0  0  0  0  0  0  0  0  0  0  0  0
  -23.5714  -16.9742   13.0374 C   0  0  0  0  0  0  0  0  0  0  0  0
  -26.8029  -16.9623   12.7559 C   0  0  0  0  0  0  0  0  0  0  0  0
  -29.6072  -18.4477   11.5004 C   0  0  0  0  0  0  0  0  0  0  0  0
  -30.7502  -14.7361   20.6604 C   0  0  0  0  0  0  0  0  0  0  0  0
  -23.2019  -13.7448   16.9734 C   0  0  0  0  0  0  0  0  0  0  0  0
  -23.8598  -17.1712   10.5406 C   0  0  0  0  0  0  0  0  0  0  0  0
  -25.6120  -19.0541   11.9999 C   0  0  0  0  0  0  0  0  0  0  0  0
  -24.0739  -14.9490   16.6274 C   0  0  0  0  0  0  0  0  0  0  0  0
  -29.6042  -12.3557   18.2736 C   0  0  0  0  0  0  0  0  0  0  0  0
  -23.2112  -16.1145   16.1541 C   0  0  0  0  0  0  0  0  0  0  0  0
  -28.1670  -12.0642   18.7087 C   0  0  0  0  0  0  0  0  0  0  0  0
  -30.5238  -12.5739   19.4730 C   0  0  0  0  0  0  0  0  0  0  0  0
  -28.6258  -13.3071   20.8636 C   0  0  0  0  0  0  0  0  0  0  0  0
  -22.4380  -15.7474   14.8817 C   0  0  1  0  0  0  0  0  0  0  0  0
  -24.5045  -16.8002   11.8726 C   0  0  1  0  0  0  0  0  0  0  0  0
  -27.6493  -13.1353   19.6875 C   0  0  2  0  0  0  0  0  0  0  0  0
  -19.8024  -21.3736   12.6054 C   0  0  0  0  0  0  0  0  0  0  0  0
  -32.1070  -18.2297   11.4714 C   0  0  0  0  0  0  0  0  0  0  0  0
  -26.9295  -18.0631   15.5989 C   0  0  0  0  0  0  0  0  0  0  0  0
  -29.3103  -18.7075   15.1689 C   0  0  0  0  0  0  0  0  0  0  0  0
  -28.6345  -16.3078   15.0830 C   0  0  0  0  0  0  0  0  0  0  0  0
  -29.6602  -18.1159    8.5600 C   0  0  0  0  0  0  0  0  0  0  0  0
  -23.0963  -21.8324   19.2321 C   0  0  0  0  0  0  0  0  0  0  0  0
  -27.1634  -21.1391   19.3638 C   0  0  0  0  0  0  0  0  0  0  0  0
  -30.5437  -18.0411   20.9430 C   0  0  0  0  0  0  0  0  0  0  0  0
  -29.0531  -18.3629   20.8315 C   0  0  0  0  0  0  0  0  0  0  0  0
  -21.9070  -24.6617    9.8931 C   0  0  0  0  0  0  0  0  0  0  0  0
  -30.8221  -16.8855   21.8991 C   0  0  0  0  0  0  0  0  0  0  0  0
  -28.8039  -19.5452   19.9035 C   0  0  0  0  0  0  0  0  0  0  0  0
  -22.0820  -23.2488    9.3588 C   0  0  0  0  0  0  0  0  0  1  0  0
  -22.0142  -24.7139   11.4091 C   0  0  0  0  0  0  0  0  0  0  0  0
  -27.9201  -17.8639   13.2229 C   0  0  1  0  0  0  0  0  0  0  0  0
  -30.8068  -17.8765   10.7660 C   0  0  2  0  0  0  0  0  0  0  0  0
  -28.1777  -17.7452   14.7516 C   0  0  0  0  0  0  0  0  0  0  0  0
  -25.8601  -11.5465   20.2850 N   0  0  0  0  0  0  0  0  0  0  0  0
  -26.2390  -12.8295   20.1572 N   0  0  0  0  0  0  0  0  0  0  0  0
  -25.7009  -17.5934   12.1618 N   0  0  0  0  0  0  0  0  0  0  0  0
  -29.9766  -13.6026   20.3609 N   0  0  0  0  0  0  0  0  0  0  0  0
  -25.4770  -15.0582   20.4085 N   0  0  0  0  0  0  0  0  0  0  0  0
  -21.8897  -12.5892   21.6051 N   0  0  0  0  0  0  0  0  0  0  0  0
  -22.7056  -22.3039   17.9230 N   0  0  0  0  0  0  0  0  0  0  0  0
  -23.3082  -15.8059   13.7268 N   0  0  0  0  0  0  0  0  0  0  0  0
  -29.0775  -17.5421   12.3951 N   0  0  0  0  0  0  0  0  0  0  0  0
  -30.1542  -15.6653   21.5043 N   0  0  0  0  0  0  0  0  0  0  0  0
  -30.8659  -18.4110    9.3761 N   0  3  0  0  0  0  0  0  0  0  0  0
  -22.2825  -20.2187   17.0014 O   0  0  0  0  0  0  0  0  0  0  0  0
  -22.6687  -14.7279   21.3256 O   0  0  0  0  0  0  0  0  0  0  0  0
  -23.1245  -18.0863   13.2928 O   0  0  0  0  0  0  0  0  0  0  0  0
  -26.9075  -15.7424   12.9061 O   0  0  0  0  0  0  0  0  0  0  0  0
  -29.1848  -19.5848   11.3029 O   0  0  0  0  0  0  0  0  0  0  0  0
  -31.8857  -14.9099   20.2050 O   0  0  0  0  0  0  0  0  0  0  0  0
  -21.6067   -7.0265   21.7088 O   0  0  0  0  0  0  0  0  0  0  0  0
  -23.3731  -22.7540    9.7117 O   0  0  0  0  0  0  0  0  0  1  0  0
  -21.0117  -23.8923   11.9921 O   0  0  0  0  0  0  0  0  0  0  0  0
  -27.4115  -19.8244   19.8416 O   0  0  0  0  0  0  0  0  0  0  0  0
  -21.8559   -2.9598   17.9934 F   0  0  0  0  0  0  0  0  0  0  0  0
  -19.3285   -6.1483   20.4122 F   0  0  0  0  0  0  0  0  0  0  0  0
  1  2  3  0  0  0  0
  1 60  1  0  0  0  0
  2 61  1  0  0  0  0
  3  4  1  0  0  0  0
  3  8  2  0  0  0  0
  4  9  2  0  0  0  0
  5 11  2  0  0  0  0
  5 20  1  0  0  0  0
  6 12  1  0  0  0  0
  6 20  2  0  0  0  0
  7 13  2  0  0  0  0
  7 21  1  0  0  0  0
  8 23  1  0  0  0  0
  9 25  1  0  0  0  0
 10 14  2  0  0  0  0
 10 24  1  0  0  0  0
 11 28  1  0  0  0  0
 12 28  2  0  0  0  0
 13 30  1  0  0  0  0
 14 29  1  0  0  0  0
 15 16  2  0  0  0  0
 15 31  1  0  0  0  0
 16 32  1  0  0  0  0
 17 21  2  0  0  0  0
 17 27  1  0  0  0  0
 18 26  1  0  0  0  0
 18 29  2  0  0  0  0
 19 32  2  0  0  0  0
 19 33  1  0  0  0  0
 20 34  1  0  0  0  0
 21 36  1  0  0  0  0
 22 34  1  0  0  0  0
 22 35  2  0  0  0  0
 22 37  1  0  0  0  0
 23 25  2  0  0  0  0
 23 42  1  0  0  0  0
 24 26  2  0  0  0  0
 24 43  1  0  0  0  0
 25 51  1  0  0  0  0
 26 44  1  0  0  0  0
 27 30  2  0  0  0  0
 27 54  1  0  0  0  0
 28 89  1  0  0  0  0
 29 90  1  0  0  0  0
 30 91  1  0  0  0  0
 31 33  2  0  0  0  0
 31 89  1  0  0  0  0
 32 93  1  0  0  0  0
 33 94  1  0  0  0  0
 34 72  2  0  0  0  0
 35 73  1  0  0  0  0
 35 76  1  0  0  0  0
 36 78  1  0  0  0  0
 36 83  2  0  0  0  0
 37 77  1  0  0  0  0
 37 84  2  0  0  0  0
 38 52  1  0  0  0  0
 38 79  1  0  0  0  0
 38 85  2  0  0  0  0
 39 69  1  0  0  0  0
 39 74  1  0  0  0  0
 39 86  2  0  0  0  0
 40 70  1  0  0  0  0
 40 80  1  0  0  0  0
 40 87  2  0  0  0  0
 41 75  1  0  0  0  0
 41 81  1  0  0  0  0
 41 88  2  0  0  0  0
 42 45  1  0  0  0  0
 43 52  1  0  0  0  0
 44 74  1  0  0  0  0
 45 47  1  0  0  0  0
 46 48  1  0  0  0  0
 46 49  1  0  0  0  0
 47 51  1  0  0  0  0
 48 53  1  0  0  0  0
 49 75  1  0  0  0  0
 50 53  1  0  0  0  0
 50 75  1  0  0  0  0
 51 79  1  0  0  0  0
 52 74  1  0  0  0  0
 53 73  1  0  0  0  0
 55 70  1  0  0  0  0
 56 71  1  0  0  0  0
 57 71  1  0  0  0  0
 58 71  1  0  0  0  0
 59 82  1  0  0  0  0
 60 78  1  0  0  0  0
 61 92  1  0  0  0  0
 62 63  1  0  0  0  0
 62 65  1  0  0  0  0
 63 66  1  0  0  0  0
 64 67  1  0  0  0  0
 64 68  1  0  0  0  0
 65 81  1  0  0  0  0
 66 92  1  0  0  0  0
 67 90  1  0  0  0  0
 68 91  1  0  0  0  0
 69 71  1  0  0  0  0
 69 80  1  0  0  0  0
 70 82  1  0  0  0  0
 72 73  1  0  0  0  0
M  CHG  1  82   1
M  ISO  4  41 100  67 101  81 100  90 101
M  END
> <Batch ID>
0005

> <Smiles>
CNC(C)C(=O)NC(C(=O)N1Cc2cc([101O:1][101CH2:1]CCOc3ccc(C(=O)NCC#CCOCCCC[100NH:0][100C:0](=O)N4CCCC(n5nc(-c6ccc(Oc7ccc(F)cc7F)cc6)c(C(N)=O)c5N)C4)cc3C)ccc2CC1C(=O)NC1CCCc2ccccc21)C(C)(C)C

> <Shape>
0.163

> <Color>
0.184

> <Negative vol penalty>
0.000

$$$$

  -OEChem-04052315263D

101109  0     1  0  0  0  0  0999 V2000
  -26.7395  -36.4514   25.1306 C   0  0  0  0  0  0  0  0  0  0  0  0
  -27.3658  -35.2995   24.6654 C   0  0  0  0  0  0  0  0  0  0  0  0
  -30.3140  -18.5253   16.0162 C   0  0  0  0  0  0  0  0  0  0  0  0
  -29.2461  -19.4830   17.9603 C   0  0  0  0  0  0  0  0  0  0  0  0
  -25.3734  -36.4368   25.4089 C   0  0  0  0  0  0  0  0  0  0  0  0
  -26.6264  -34.1320   24.4792 C   0  0  0  0  0  0  0  0  0  0  0  0
  -27.4596  -29.9008   20.1309 C   0  0  0  0  0  0  0  0  0  0  0  0
  -24.9809  -14.9144   23.1663 C   0  0  0  0  0  0  0  0  0  0  0  0
  -23.8515  -15.1449   23.9517 C   0  0  0  0  0  0  0  0  0  0  0  0
  -30.0016  -19.6689   15.2813 C   0  0  0  0  0  0  0  0  0  0  0  0
  -28.9338  -20.6266   17.2254 C   0  0  0  0  0  0  0  0  0  0  0  0
  -28.1102  -28.6677   20.1344 C   0  0  0  0  0  0  0  0  0  0  0  0
  -30.5208  -23.4169   16.1686 C   0  0  0  0  0  0  0  0  0  0  0  0
  -30.7497  -24.6544   16.7700 C   0  0  0  0  0  0  0  0  0  0  0  0
  -26.0051  -27.5650   20.5489 C   0  0  0  0  0  0  0  0  0  0  0  0
  -23.9561  -12.9141   22.2798 C   0  0  0  0  0  0  0  0  0  0  0  0
  -28.4024  -25.1884   16.5646 C   0  0  0  0  0  0  0  0  0  0  0  0
  -29.9362  -18.4323   17.3558 C   0  0  0  0  0  0  0  0  0  0  0  0
  -31.4228  -17.0170   18.8706 C   0  0  0  0  0  0  0  0  0  0  0  0
  -24.6150  -35.2713   25.2168 C   0  0  0  0  0  0  0  0  0  0  0  0
  -26.0762  -29.9763   20.3476 C   0  0  0  0  0  0  0  0  0  0  0  0
  -25.2491  -34.1015   24.7565 C   0  0  0  0  0  0  0  0  0  0  0  0
  -25.3389  -28.8001   20.5451 C   0  0  0  0  0  0  0  0  0  0  0  0
  -25.0332  -13.7990   22.3302 C   0  0  0  0  0  0  0  0  0  0  0  0
  -22.7744  -14.2600   23.9013 C   0  0  0  0  0  0  0  0  0  0  0  0
  -29.3116  -20.7196   15.8858 C   0  0  0  0  0  0  0  0  0  0  0  0
  -27.3834  -27.4998   20.3463 C   0  0  0  0  0  0  0  0  0  0  0  0
  -29.2326  -23.0651   15.7652 C   0  0  0  0  0  0  0  0  0  0  0  0
  -29.6905  -25.5402   16.9680 C   0  0  0  0  0  0  0  0  0  0  0  0
  -22.8267  -13.1446   23.0653 C   0  0  0  0  0  0  0  0  0  0  0  0
  -28.1735  -23.9509   15.9632 C   0  0  0  0  0  0  0  0  0  0  0  0
  -30.2580  -17.2509   18.1153 C   0  0  0  0  0  0  0  0  0  0  0  0
  -31.2459  -15.7595   19.3939 C   0  0  0  0  0  0  0  0  0  0  0  0
  -32.5627  -17.8610   19.0804 C   0  0  0  0  0  0  0  0  0  0  0  0
  -24.2209  -31.3214   22.5503 C   0  0  0  0  0  0  0  0  0  0  0  0
  -21.8369  -30.3371   20.5832 C   0  0  0  0  0  0  0  0  0  0  0  0
  -28.5533  -24.3471   21.6804 C   0  0  0  0  0  0  0  0  0  0  0  0
  -20.3535  -14.0609   24.2512 C   0  0  0  0  0  0  0  0  0  0  0  0
  -20.7900  -28.1820   18.1528 C   0  0  0  0  0  0  0  0  0  0  0  0
  -26.3938  -12.5061   20.6500 C   0  0  0  0  0  0  0  0  0  0  0  0
  -23.1504  -35.2907   25.5763 C   0  0  0  0  0  0  0  0  0  0  0  0
  -25.3852  -31.3119   20.3142 C   0  0  0  0  0  0  0  0  0  0  0  0
  -23.8487  -28.8253   20.7623 C   0  0  0  0  0  0  0  0  0  0  0  0
  -22.3652  -34.1173   24.9960 C   0  0  0  0  0  0  0  0  0  0  0  0
  -29.0649  -11.5954   18.4790 C   0  0  0  0  0  0  0  0  0  0  0  0
  -23.1147  -32.8085   25.2238 C   0  0  0  0  0  0  0  0  0  0  0  0
  -29.7836  -12.9201   18.2130 C   0  0  0  0  0  0  0  0  0  0  0  0
  -27.5514  -11.7804   18.5744 C   0  0  0  0  0  0  0  0  0  0  0  0
  -27.8289  -14.1292   19.2638 C   0  0  0  0  0  0  0  0  0  0  0  0
  -24.4762  -32.8224   24.5182 C   0  0  1  0  0  0  0  0  0  0  0  0
  -24.0528  -31.3140   21.0572 C   0  0  1  0  0  0  0  0  0  0  0  0
  -29.3607  -14.0036   19.2242 C   0  0  2  0  0  0  0  0  0  0  0  0
  -17.6226  -15.4216   24.5262 C   0  0  0  0  0  0  0  0  0  0  0  0
  -19.4567  -12.1756   25.6060 C   0  0  0  0  0  0  0  0  0  0  0  0
  -18.7779  -27.5971   16.7721 C   0  0  0  0  0  0  0  0  0  0  0  0
  -20.5845  -28.9550   22.9980 C   0  0  0  0  0  0  0  0  0  0  0  0
  -19.1580  -27.6383   21.4170 C   0  0  0  0  0  0  0  0  0  0  0  0
  -18.9548  -30.1231   21.5032 C   0  0  0  0  0  0  0  0  0  0  0  0
  -22.2028  -28.7930   15.6251 C   0  0  0  0  0  0  0  0  0  0  0  0
  -20.4169  -18.4390   24.5775 C   0  0  0  0  0  0  0  0  0  0  0  0
  -27.4692  -25.2670   21.1607 C   0  0  0  0  0  0  0  0  0  1  0  0
  -17.8645  -13.9462   24.8204 C   0  0  0  0  0  0  0  0  0  0  0  0
  -26.9643  -20.0170   23.2389 C   0  0  0  0  0  0  0  0  0  0  0  0
  -25.6128  -19.3631   22.9419 C   0  0  0  0  0  0  0  0  0  0  0  0
  -27.6866  -20.4127   21.9493 C   0  0  0  0  0  0  0  0  0  0  0  0
  -24.8757  -19.0037   24.2339 C   0  0  0  0  0  0  0  0  0  0  0  0
  -29.0206  -21.1025   22.2495 C   0  0  0  0  0  0  0  0  0  0  0  0
  -23.4856  -18.4088   23.9936 C   0  0  0  0  0  0  0  0  0  0  0  0
  -28.8556  -22.3428   23.1215 C   0  0  0  0  0  0  0  0  0  0  0  0
  -21.7725  -15.2018   26.0091 C   0  0  0  0  0  0  0  0  0  0  0  0
  -22.7695  -18.0267   25.2815 C   0  0  0  0  0  0  0  0  0  0  0  0
  -20.9605  -16.4832   26.0200 C   0  0  0  0  0  0  0  0  0  0  0  0
  -21.0065  -29.0829   20.4541 C   0  0  1  0  0  0  0  0  0  0  0  0
  -19.3022  -13.6688   25.3040 C   0  0  2  0  0  0  0  0  0  0  0  0
  -20.0559  -28.4181   16.8452 C   0  0  2  0  0  0  0  0  0  0  0  0
  -19.9543  -28.9492   21.5910 C   0  0  0  0  0  0  0  0  0  0  0  0
  -29.4044  -16.2243   18.1528 N   0  0  0  0  0  0  0  0  0  0  0  0
  -30.0333  -15.3331   18.9378 N   0  0  0  0  0  0  0  0  0  0  0  0
  -23.2197  -30.1559   20.7271 N   0  0  0  0  0  0  0  0  0  0  0  0
  -27.2257  -12.8190   19.5542 N   0  0  0  0  0  0  0  0  0  0  0  0
  -32.0109  -14.9880   20.1951 N   0  0  0  0  0  0  0  0  0  0  0  0
  -32.5820  -19.1220   18.4689 N   0  0  0  0  0  0  0  0  0  0  0  0
  -26.1806  -13.5644   21.5327 N   0  0  0  0  0  0  0  0  0  0  0  0
  -24.3128  -32.5860   23.0998 N   0  0  0  0  0  0  0  0  0  0  0  0
  -28.0389  -23.3467   22.4977 N   0  0  0  0  0  0  0  0  0  0  0  0
  -20.4359  -29.1075   19.1117 N   0  0  0  0  0  0  0  0  0  0  0  0
  -21.6068  -14.5010   24.7161 N   0  0  0  0  0  0  0  0  0  0  0  0
  -20.9211  -28.0447   15.6907 N   0  3  0  0  0  0  0  0  0  0  0  0
  -21.4616  -17.4132   24.9425 N   0  3  1  0  0  0  0  0  0  0  0  0
  -33.5426  -17.5009   19.7758 O   0  0  0  0  0  0  0  0  0  0  0  0
  -24.2625  -30.2586   23.1590 O   0  0  0  0  0  0  0  0  0  0  0  0
  -21.2798  -31.4372   20.5501 O   0  0  0  0  0  0  0  0  0  0  0  0
  -29.7395  -24.4923   21.3980 O   0  0  0  0  0  0  0  0  0  0  0  0
  -20.0544  -13.9741   23.0555 O   0  0  0  0  0  0  0  0  0  0  0  0
  -21.5941  -27.2658   18.3093 O   0  0  0  0  0  0  0  0  0  0  0  0
  -25.9286  -11.3747   20.8093 O   0  0  0  0  0  0  0  0  0  0  0  0
  -29.0068  -21.8358   15.1690 O   0  0  0  0  0  0  0  0  0  0  0  0
  -28.0226  -26.2825   20.3509 O   0  0  0  0  0  0  0  0  0  1  0  0
  -29.9103  -26.7279   17.5469 F   0  0  0  0  0  0  0  0  0  0  0  0
  -21.7980  -12.2865   23.0098 F   0  0  0  0  0  0  0  0  0  0  0  0
  -26.9336  -23.6180   15.5788 F   0  0  0  0  0  0  0  0  0  0  0  0
  1  2  1  0  0  0  0
  1  5  2  0  0  0  0
  2  6  2  0  0  0  0
  3 10  2  0  0  0  0
  3 18  1  0  0  0  0
  4 11  1  0  0  0  0
  4 18  2  0  0  0  0
  5 20  1  0  0  0  0
  6 22  1  0  0  0  0
  7 12  2  0  0  0  0
  7 21  1  0  0  0  0
  8  9  2  0  0  0  0
  8 24  1  0  0  0  0
  9 25  1  0  0  0  0
 10 26  1  0  0  0  0
 11 26  2  0  0  0  0
 12 27  1  0  0  0  0
 13 14  2  0  0  0  0
 13 28  1  0  0  0  0
 14 29  1  0  0  0  0
 15 23  1  0  0  0  0
 15 27  2  0  0  0  0
 16 24  2  0  0  0  0
 16 30  1  0  0  0  0
 17 29  2  0  0  0  0
 17 31  1  0  0  0  0
 18 32  1  0  0  0  0
 19 32  1  0  0  0  0
 19 33  2  0  0  0  0
 19 34  1  0  0  0  0
 20 22  2  0  0  0  0
 20 41  1  0  0  0  0
 21 23  2  0  0  0  0
 21 42  1  0  0  0  0
 22 50  1  0  0  0  0
 23 43  1  0  0  0  0
 24 83  1  0  0  0  0
 25 30  2  0  0  0  0
 25 87  1  0  0  0  0
 26 97  1  0  0  0  0
 27 98  1  0  0  0  0
 28 31  2  0  0  0  0
 28 97  1  0  0  0  0
 29 99  1  0  0  0  0
 30100  1  0  0  0  0
 31101  1  0  0  0  0
 32 77  2  0  0  0  0
 33 78  1  0  0  0  0
 33 81  1  0  0  0  0
 34 82  1  0  0  0  0
 34 90  2  0  0  0  0
 35 51  1  0  0  0  0
 35 84  1  0  0  0  0
 35 91  2  0  0  0  0
 36 73  1  0  0  0  0
 36 79  1  0  0  0  0
 36 92  2  0  0  0  0
 37 61  1  0  0  0  0
 37 85  1  0  0  0  0
 37 93  2  0  0  0  0
 38 74  1  0  0  0  0
 38 87  1  0  0  0  0
 38 94  2  0  0  0  0
 39 75  1  0  0  0  0
 39 86  1  0  0  0  0
 39 95  2  0  0  0  0
 40 80  1  0  0  0  0
 40 83  1  0  0  0  0
 40 96  2  0  0  0  0
 41 44  1  0  0  0  0
 42 51  1  0  0  0  0
 43 79  1  0  0  0  0
 44 46  1  0  0  0  0
 45 47  1  0  0  0  0
 45 48  1  0  0  0  0
 46 50  1  0  0  0  0
 47 52  1  0  0  0  0
 48 80  1  0  0  0  0
 49 52  1  0  0  0  0
 49 80  1  0  0  0  0
 50 84  1  0  0  0  0
 51 79  1  0  0  0  0
 52 78  1  0  0  0  0
 53 62  1  0  0  0  0
 54 74  1  0  0  0  0
 55 75  1  0  0  0  0
 56 76  1  0  0  0  0
 57 76  1  0  0  0  0
 58 76  1  0  0  0  0
 59 88  1  0  0  0  0
 60 89  1  0  0  0  0
 61 98  1  0  0  0  0
 62 74  1  0  0  0  0
 63 64  1  0  0  0  0
 63 65  1  0  0  0  0
 64 66  1  0  0  0  0
 65 67  1  0  0  0  0
 66 68  1  0  0  0  0
 67 69  1  0  0  0  0
 68 71  1  0  0  0  0
 69 85  1  0  0  0  0
 70 72  1  0  0  0  0
 70 87  1  0  0  0  0
 71 89  1  0  0  0  0
 72 89  1  0  0  0  0
 73 76  1  0  0  0  0
 73 86  1  0  0  0  0
 75 88  1  0  0  0  0
 77 78  1  0  0  0  0
M  CHG  2  88   1  89   1
M  ISO  4  40 100  61 101  83 100  98 101
M  END
> <Batch ID>
0005

> <Smiles>
CCC(C)C(=O)N(CCN(C)CCCCCCCCNC(=O)[101CH2:1][101O:1]c1ccc2c(c1)CN(C(=O)C(NC(=O)C(C)NC)C(C)(C)C)C(C(=O)NC1CCCc3ccccc31)C2)c1ccc([100NH:0][100C:0](=O)N2CCCC(n3nc(-c4ccc(Oc5ccc(F)cc5F)cc4)c(C(N)=O)c3N)C2)cc1F

> <Shape>
0.231

> <Color>
0.072

> <Negative vol penalty>
0.000

$$$$

  -OEChem-04052315263D

 87 95  0     1  0  0  0  0  0999 V2000
  -21.5417  -13.7306   18.3734 C   0  0  0  0  0  0  0  0  0  0  0  0
  -21.3420  -15.0947   18.5599 C   0  0  0  0  0  0  0  0  0  0  0  0
  -24.7665  -31.6227   21.3509 C   0  0  0  0  0  0  0  0  0  0  0  0
  -30.6518  -20.8643   18.3938 C   0  0  0  0  0  0  0  0  0  0  0  0
  -28.4972  -20.8771   19.4867 C   0  0  0  0  0  0  0  0  0  0  0  0
  -22.0386  -12.9509   19.4170 C   0  0  0  0  0  0  0  0  0  0  0  0
  -21.6381  -15.6797   19.7906 C   0  0  0  0  0  0  0  0  0  0  0  0
  -23.8469  -21.3098   20.7540 C   0  0  0  0  0  0  0  0  0  0  0  0
  -25.8750  -30.7889   21.2044 C   0  0  0  0  0  0  0  0  0  0  0  0
  -23.4945  -31.1571   21.0177 C   0  0  0  0  0  0  0  0  0  0  0  0
  -30.8635  -19.5553   18.8265 C   0  0  0  0  0  0  0  0  0  0  0  0
  -28.7088  -19.5681   19.9194 C   0  0  0  0  0  0  0  0  0  0  0  0
  -23.2332  -22.5101   21.1095 C   0  0  0  0  0  0  0  0  0  0  0  0
  -28.5286  -16.4556   18.6153 C   0  0  0  0  0  0  0  0  0  0  0  0
  -27.4752  -15.5515   18.4796 C   0  0  0  0  0  0  0  0  0  0  0  0
  -23.7791  -22.0971   23.4227 C   0  0  0  0  0  0  0  0  0  0  0  0
  -27.4700  -15.1987   20.8697 C   0  0  0  0  0  0  0  0  0  0  0  0
  -29.4687  -21.5253   18.7240 C   0  0  0  0  0  0  0  0  0  0  0  0
  -28.6423  -23.2886   17.0761 C   0  0  0  0  0  0  0  0  0  0  0  0
  -22.3501  -13.5284   20.6580 C   0  0  0  0  0  0  0  0  0  0  0  0
  -24.4228  -20.4875   21.7331 C   0  0  0  0  0  0  0  0  0  0  0  0
  -22.1384  -14.9068   20.8521 C   0  0  0  0  0  0  0  0  0  0  0  0
  -24.4018  -20.8882   23.0767 C   0  0  0  0  0  0  0  0  0  0  0  0
  -25.7116  -29.4894   20.7245 C   0  0  0  0  0  0  0  0  0  0  0  0
  -23.3312  -29.8575   20.5379 C   0  0  0  0  0  0  0  0  0  0  0  0
  -29.8920  -18.9071   19.5893 C   0  0  0  0  0  0  0  0  0  0  0  0
  -23.1966  -22.9025   22.4443 C   0  0  0  0  0  0  0  0  0  0  0  0
  -29.0528  -16.7313   19.8783 C   0  0  0  0  0  0  0  0  0  0  0  0
  -26.9459  -14.9231   19.6068 C   0  0  0  0  0  0  0  0  0  0  0  0
  -28.5235  -16.1029   21.0054 C   0  0  0  0  0  0  0  0  0  0  0  0
  -24.4397  -29.0237   20.3913 C   0  0  0  0  0  0  0  0  0  0  0  0
  -29.2496  -22.8777   18.2778 C   0  0  0  0  0  0  0  0  0  0  0  0
  -28.6751  -24.6607   17.1264 C   0  0  0  0  0  0  0  0  0  0  0  0
  -28.0973  -22.5003   16.0096 C   0  0  0  0  0  0  0  0  0  0  0  0
  -23.8964  -17.5297   22.7712 C   0  0  0  0  0  0  0  0  0  0  0  0
  -26.5660  -18.0881   24.5272 C   0  0  0  0  0  0  0  0  0  0  0  0
  -28.6515  -20.3621   25.9855 C   0  0  0  0  0  0  0  0  0  0  0  0
  -28.1801  -29.0142   20.8898 C   0  0  0  0  0  0  0  0  0  0  0  0
  -21.2024  -28.7927   21.1949 C   0  0  0  0  0  0  0  0  0  0  0  0
  -22.8403  -12.6366   21.7711 C   0  0  0  0  0  0  0  0  0  0  0  0
  -25.1046  -19.2088   21.3301 C   0  0  0  0  0  0  0  0  0  0  0  0
  -25.0234  -20.0511   24.1636 C   0  0  0  0  0  0  0  0  0  0  0  0
  -23.4823  -13.4010   22.9261 C   0  0  0  0  0  0  0  0  0  0  0  0
  -31.3474  -27.9935   19.6235 C   0  0  0  0  0  0  0  0  0  0  0  0
  -22.6159  -14.5911   23.3256 C   0  0  0  0  0  0  0  0  0  0  0  0
  -31.0717  -26.6103   19.0293 C   0  0  0  0  0  0  0  0  0  0  0  0
  -30.5396  -28.2348   20.8975 C   0  0  0  0  0  0  0  0  0  0  0  0
  -28.8184  -26.6277   20.1737 C   0  0  0  0  0  0  0  0  0  0  0  0
  -22.4711  -15.5825   22.1647 C   0  0  1  0  0  0  0  0  0  0  0  0
  -25.2067  -18.2009   22.4707 C   0  0  1  0  0  0  0  0  0  0  0  0
  -29.5604  -26.3636   18.8534 C   0  0  2  0  0  0  0  0  0  0  0  0
  -30.6650  -21.2249   27.2097 C   0  0  0  0  0  0  0  0  0  0  0  0
  -24.9602  -17.2842   26.9939 C   0  0  0  0  0  0  0  0  0  0  0  0
  -26.7323  -18.3466   28.4079 C   0  0  0  0  0  0  0  0  0  0  0  0
  -27.3025  -16.4094   26.9433 C   0  0  0  0  0  0  0  0  0  0  0  0
  -21.4949  -29.6127   18.8400 C   0  0  0  0  0  0  0  0  0  0  0  0
  -30.2032  -20.6323   23.4798 C   0  0  0  0  0  0  0  0  0  0  0  0
  -21.4075  -26.5929   23.6883 C   0  0  0  0  0  0  0  0  0  0  0  0
  -22.8932  -26.2490   23.7998 C   0  0  0  0  0  0  0  0  0  0  0  0
  -21.1615  -28.0948   23.5852 C   0  0  0  0  0  0  0  0  0  0  0  0
  -23.1108  -24.7478   23.9422 C   0  0  0  0  0  0  0  0  0  1  0  0
  -26.8453  -18.6639   25.8944 C   0  0  1  0  0  0  0  0  0  0  0  0
  -30.1637  -20.4947   25.9735 C   0  0  2  0  0  0  0  0  0  0  0  0
  -26.4466  -17.6911   27.0399 C   0  0  0  0  0  0  0  0  0  0  0  0
  -29.6398  -23.9057   19.0361 N   0  0  0  0  0  0  0  0  0  0  0  0
  -29.2769  -24.9761   18.3090 N   0  0  0  0  0  0  0  0  0  0  0  0
  -25.6726  -18.8064   23.7200 N   0  0  0  0  0  0  0  0  0  0  0  0
  -29.1171  -27.9860   20.6538 N   0  0  0  0  0  0  0  0  0  0  0  0
  -28.2477  -25.6163   16.2740 N   0  0  0  0  0  0  0  0  0  0  0  0
  -28.1452  -21.1039   16.1190 N   0  0  0  0  0  0  0  0  0  0  0  0
  -26.8615  -28.6721   20.5916 N   0  0  0  0  0  0  0  0  0  0  0  0
  -23.6686  -16.3843   22.0324 N   0  0  0  0  0  0  0  0  0  0  0  0
  -28.2536  -19.0448   25.8971 N   0  0  0  0  0  0  0  0  0  0  0  0
  -21.8161  -28.6844   22.4496 N   0  0  0  0  0  0  0  0  0  0  0  0
  -22.0111  -29.4173   20.2054 N   0  0  0  0  0  0  0  0  0  0  0  0
  -30.6078  -21.2508   24.7685 N   0  3  0  0  0  0  0  0  0  0  0  0
  -27.5977  -23.0189   14.9825 O   0  0  0  0  0  0  0  0  0  0  0  0
  -23.1482  -18.0142   23.6121 O   0  0  0  0  0  0  0  0  0  0  0  0
  -27.1257  -17.0434   24.1851 O   0  0  0  0  0  0  0  0  0  0  0  0
  -27.8986  -21.3299   26.0690 O   0  0  0  0  0  0  0  0  0  0  0  0
  -28.5255  -30.1258   21.2985 O   0  0  0  0  0  0  0  0  0  0  0  0
  -20.0548  -28.3799   21.0070 O   0  0  0  0  0  0  0  0  0  0  0  0
  -30.0982  -17.6297   20.0114 O   0  0  0  0  0  0  0  0  0  0  0  0
  -22.5976  -24.0733   22.7942 O   0  0  0  0  0  0  0  0  0  1  0  0
  -25.9333  -14.0560   19.4765 F   0  0  0  0  0  0  0  0  0  0  0  0
  -29.0221  -16.3646   22.2215 F   0  0  0  0  0  0  0  0  0  0  0  0
  -24.2366  -27.4063   19.7952 Cl  0  0  0  0  0  0  0  0  0  0  0  0
  1  2  1  0  0  0  0
  1  6  2  0  0  0  0
  2  7  2  0  0  0  0
  3  9  1  0  0  0  0
  3 10  2  0  0  0  0
  4 11  2  0  0  0  0
  4 18  1  0  0  0  0
  5 12  1  0  0  0  0
  5 18  2  0  0  0  0
  6 20  1  0  0  0  0
  7 22  1  0  0  0  0
  8 13  2  0  0  0  0
  8 21  1  0  0  0  0
  9 24  2  0  0  0  0
 10 25  1  0  0  0  0
 11 26  1  0  0  0  0
 12 26  2  0  0  0  0
 13 27  1  0  0  0  0
 14 15  2  0  0  0  0
 14 28  1  0  0  0  0
 15 29  1  0  0  0  0
 16 23  1  0  0  0  0
 16 27  2  0  0  0  0
 17 29  2  0  0  0  0
 17 30  1  0  0  0  0
 18 32  1  0  0  0  0
 19 32  1  0  0  0  0
 19 33  2  0  0  0  0
 19 34  1  0  0  0  0
 20 22  2  0  0  0  0
 20 40  1  0  0  0  0
 21 23  2  0  0  0  0
 21 41  1  0  0  0  0
 22 49  1  0  0  0  0
 23 42  1  0  0  0  0
 24 31  1  0  0  0  0
 24 71  1  0  0  0  0
 25 31  2  0  0  0  0
 25 75  1  0  0  0  0
 26 83  1  0  0  0  0
 27 84  1  0  0  0  0
 28 30  2  0  0  0  0
 28 83  1  0  0  0  0
 29 85  1  0  0  0  0
 30 86  1  0  0  0  0
 31 87  1  0  0  0  0
 32 65  2  0  0  0  0
 33 66  1  0  0  0  0
 33 69  1  0  0  0  0
 34 70  1  0  0  0  0
 34 77  2  0  0  0  0
 35 50  1  0  0  0  0
 35 72  1  0  0  0  0
 35 78  2  0  0  0  0
 36 62  1  0  0  0  0
 36 67  1  0  0  0  0
 36 79  2  0  0  0  0
 37 63  1  0  0  0  0
 37 73  1  0  0  0  0
 37 80  2  0  0  0  0
 38 68  1  0  0  0  0
 38 71  1  0  0  0  0
 38 81  2  0  0  0  0
 39 74  1  0  0  0  0
 39 75  1  0  0  0  0
 39 82  2  0  0  0  0
 40 43  1  0  0  0  0
 41 50  1  0  0  0  0
 42 67  1  0  0  0  0
 43 45  1  0  0  0  0
 44 46  1  0  0  0  0
 44 47  1  0  0  0  0
 45 49  1  0  0  0  0
 46 51  1  0  0  0  0
 47 68  1  0  0  0  0
 48 51  1  0  0  0  0
 48 68  1  0  0  0  0
 49 72  1  0  0  0  0
 50 67  1  0  0  0  0
 51 66  1  0  0  0  0
 52 63  1  0  0  0  0
 53 64  1  0  0  0  0
 54 64  1  0  0  0  0
 55 64  1  0  0  0  0
 56 75  1  0  0  0  0
 57 76  1  0  0  0  0
 58 59  1  0  0  0  0
 58 60  1  0  0  0  0
 59 61  1  0  0  0  0
 60 74  1  0  0  0  0
 61 84  1  0  0  0  0
 62 64  1  0  0  0  0
 62 73  1  0  0  0  0
 63 76  1  0  0  0  0
 65 66  1  0  0  0  0
M  CHG  1  76   1
M  ISO  4  38 100  61 101  71 100  84 101
M  END
> <Batch ID>
0005

> <Smiles>
CNC(C)C(=O)NC(C(=O)N1Cc2cc([101O:1][101CH2:1]CCCNC(=O)N(C)c3cccc([100NH:0][100C:0](=O)N4CCCC(n5nc(-c6ccc(Oc7ccc(F)cc7F)cc6)c(C(N)=O)c5N)C4)c3Cl)ccc2CC1C(=O)NC1CCCc2ccccc21)C(C)(C)C

> <Shape>
0.207

> <Color>
0.051

> <Negative vol penalty>
0.000

$$$$

  -OEChem-04052315263D

 85 93  0     1  0  0  0  0  0999 V2000
  -15.4864  -28.5373   26.2429 C   0  0  0  0  0  0  0  0  0  0  0  0
  -15.8585  -27.2480   25.8760 C   0  0  0  0  0  0  0  0  0  0  0  0
  -29.9831  -21.5205   19.5472 C   0  0  0  0  0  0  0  0  0  0  0  0
  -28.2054  -20.4986   18.2694 C   0  0  0  0  0  0  0  0  0  0  0  0
  -16.0336  -29.6349   25.5797 C   0  0  0  0  0  0  0  0  0  0  0  0
  -16.7772  -27.0555   24.8449 C   0  0  0  0  0  0  0  0  0  0  0  0
  -20.9930  -22.6311   24.4487 C   0  0  0  0  0  0  0  0  0  0  0  0
  -30.1571  -22.4731   18.5434 C   0  0  0  0  0  0  0  0  0  0  0  0
  -28.3794  -21.4513   17.2655 C   0  0  0  0  0  0  0  0  0  0  0  0
  -21.0156  -21.4153   23.7667 C   0  0  0  0  0  0  0  0  0  0  0  0
  -28.6458  -25.3201   17.5221 C   0  0  0  0  0  0  0  0  0  0  0  0
  -28.7858  -26.6526   17.9101 C   0  0  0  0  0  0  0  0  0  0  0  0
  -22.2077  -22.4632   21.9502 C   0  0  0  0  0  0  0  0  0  0  0  0
  -30.9652  -26.7265   16.8700 C   0  0  0  0  0  0  0  0  0  0  0  0
  -25.0693  -12.6240   19.6763 C   0  0  0  0  0  0  0  0  0  0  0  0
  -29.0073  -20.5331   19.4103 C   0  0  0  0  0  0  0  0  0  0  0  0
  -27.9745  -19.6355   21.5632 C   0  0  0  0  0  0  0  0  0  0  0  0
  -16.9668  -29.4560   24.5464 C   0  0  0  0  0  0  0  0  0  0  0  0
  -21.5691  -23.7765   23.8807 C   0  0  0  0  0  0  0  0  0  0  0  0
  -17.3364  -28.1517   24.1663 C   0  0  0  0  0  0  0  0  0  0  0  0
  -22.1935  -23.6917   22.6281 C   0  0  0  0  0  0  0  0  0  0  0  0
  -29.3553  -22.4386   17.4025 C   0  0  0  0  0  0  0  0  0  0  0  0
  -21.6204  -21.3318   22.5160 C   0  0  0  0  0  0  0  0  0  0  0  0
  -29.6655  -24.6908   16.8081 C   0  0  0  0  0  0  0  0  0  0  0  0
  -29.9454  -27.3558   17.5841 C   0  0  0  0  0  0  0  0  0  0  0  0
  -30.8252  -25.3940   16.4820 C   0  0  0  0  0  0  0  0  0  0  0  0
  -28.8274  -19.5484   20.4466 C   0  0  0  0  0  0  0  0  0  0  0  0
  -24.8710  -13.8729   21.3884 C   0  0  0  0  0  0  0  0  0  0  0  0
  -26.0083  -13.1310   21.6045 C   0  0  0  0  0  0  0  0  0  0  0  0
  -28.1685  -18.4541   22.2364 C   0  0  0  0  0  0  0  0  0  0  0  0
  -27.0862  -20.6899   21.9566 C   0  0  0  0  0  0  0  0  0  0  0  0
  -24.2997  -14.8990   22.2982 C   0  0  0  0  0  0  0  0  0  0  0  0
  -20.4777  -26.6189   22.9680 C   0  0  0  0  0  0  0  0  0  0  0  0
  -23.6244  -27.2355   22.4774 C   0  0  0  0  0  0  0  0  0  0  0  0
  -26.7534  -26.0196   21.8628 C   0  0  0  0  0  0  0  0  0  0  0  0
  -30.0181  -13.0296   20.5031 C   0  0  0  0  0  0  0  0  0  0  0  0
  -17.4952  -30.6717   23.8270 C   0  0  0  0  0  0  0  0  0  0  0  0
  -21.5600  -25.0743   24.6410 C   0  0  0  0  0  0  0  0  0  0  0  0
  -22.8441  -24.8875   21.9837 C   0  0  0  0  0  0  0  0  0  0  0  0
  -18.7453  -30.3925   22.9965 C   0  0  0  0  0  0  0  0  0  0  0  0
  -31.4780  -15.0879   23.0149 C   0  0  0  0  0  0  0  0  0  0  0  0
  -18.5636  -29.1246   22.1681 C   0  0  0  0  0  0  0  0  0  0  0  0
  -30.8873  -16.4723   22.7422 C   0  0  0  0  0  0  0  0  0  0  0  0
  -31.7449  -14.3232   21.7202 C   0  0  0  0  0  0  0  0  0  0  0  0
  -29.9944  -15.5975   20.5431 C   0  0  0  0  0  0  0  0  0  0  0  0
  -18.3487  -27.9028   23.0694 C   0  0  1  0  0  0  0  0  0  0  0  0
  -21.7248  -26.2951   23.7411 C   0  0  1  0  0  0  0  0  0  0  0  0
  -29.6560  -16.3850   21.8205 C   0  0  2  0  0  0  0  0  0  0  0  0
  -26.9708  -13.1029   22.7212 C   0  0  0  0  0  0  0  0  0  0  0  0
  -29.1167  -26.7688   21.4742 C   0  0  0  0  0  0  0  0  0  0  0  0
  -22.8885  -28.0760   19.6381 C   0  0  0  0  0  0  0  0  0  0  0  0
  -25.3106  -27.8938   19.0310 C   0  0  0  0  0  0  0  0  0  0  0  0
  -24.5792  -29.5418   20.7549 C   0  0  0  0  0  0  0  0  0  0  0  0
  -27.7287  -24.5690   24.2510 C   0  0  0  0  0  0  0  0  0  0  0  0
  -22.3840  -17.8640   21.8545 C   0  0  0  0  0  0  0  0  0  0  0  0
  -27.1574  -11.3656   20.2308 C   0  0  0  0  0  0  0  0  0  0  0  0
  -22.4771  -16.5514   22.6207 C   0  0  0  0  0  0  0  0  0  0  0  0
  -28.2123  -11.8749   19.2522 C   0  0  0  0  0  0  0  0  0  0  0  0
  -21.6652  -18.9570   22.6360 C   0  0  0  0  0  0  0  0  0  1  0  0
  -24.5766  -27.0768   21.3168 C   0  0  1  0  0  0  0  0  0  0  0  0
  -28.0949  -26.3191   22.5070 C   0  0  2  0  0  0  0  0  0  0  0  0
  -24.3248  -28.1248   20.1962 C   0  0  0  0  0  0  0  0  0  0  0  0
  -24.2910  -13.5523   20.1866 N   0  0  0  0  0  0  0  0  0  0  0  0
  -29.5124  -18.4024   20.4092 N   0  0  0  0  0  0  0  0  0  0  0  0
  -26.1221  -12.3353   20.4994 N   0  0  0  0  0  0  0  0  0  0  0  0
  -29.0902  -17.7585   21.5106 N   0  0  0  0  0  0  0  0  0  0  0  0
  -22.8035  -26.1354   22.7638 N   0  0  0  0  0  0  0  0  0  0  0  0
  -30.5373  -14.2754   20.8923 N   0  0  0  0  0  0  0  0  0  0  0  0
  -27.6390  -17.9529   23.3726 N   0  0  0  0  0  0  0  0  0  0  0  0
  -27.0089  -21.8340   21.1507 N   0  0  0  0  0  0  0  0  0  0  0  0
  -23.1350  -15.5222   21.8643 N   0  0  0  0  0  0  0  0  0  0  0  0
  -19.6072  -27.4622   23.6320 N   0  0  0  0  0  0  0  0  0  0  0  0
  -25.9206  -27.1184   21.8828 N   0  0  0  0  0  0  0  0  0  0  0  0
  -28.8679  -13.0739   19.7248 N   0  0  0  0  0  0  0  0  0  0  0  0
  -28.6226  -25.1059   23.1929 N   0  3  0  0  0  0  0  0  0  0  0  0
  -26.3941  -20.6267   23.0009 O   0  0  0  0  0  0  0  0  0  0  0  0
  -24.8776  -15.1560   23.3511 O   0  0  0  0  0  0  0  0  0  0  0  0
  -20.3178  -26.1405   21.8513 O   0  0  0  0  0  0  0  0  0  0  0  0
  -23.6144  -28.2937   23.1112 O   0  0  0  0  0  0  0  0  0  0  0  0
  -26.4737  -24.9219   21.3860 O   0  0  0  0  0  0  0  0  0  0  0  0
  -30.5379  -11.9572   20.8298 O   0  0  0  0  0  0  0  0  0  0  0  0
  -29.5247  -23.3681   16.4229 O   0  0  0  0  0  0  0  0  0  0  0  0
  -21.6432  -20.1465   21.8479 O   0  0  0  0  0  0  0  0  0  1  0  0
  -30.0791  -28.6358   17.9554 F   0  0  0  0  0  0  0  0  0  0  0  0
  -31.8077  -24.7951   15.7952 F   0  0  0  0  0  0  0  0  0  0  0  0
  1  2  1  0  0  0  0
  1  5  2  0  0  0  0
  2  6  2  0  0  0  0
  3  8  2  0  0  0  0
  3 16  1  0  0  0  0
  4  9  1  0  0  0  0
  4 16  2  0  0  0  0
  5 18  1  0  0  0  0
  6 20  1  0  0  0  0
  7 10  2  0  0  0  0
  7 19  1  0  0  0  0
  8 22  1  0  0  0  0
  9 22  2  0  0  0  0
 10 23  1  0  0  0  0
 11 12  2  0  0  0  0
 11 24  1  0  0  0  0
 12 25  1  0  0  0  0
 13 21  1  0  0  0  0
 13 23  2  0  0  0  0
 14 25  2  0  0  0  0
 14 26  1  0  0  0  0
 15 63  2  0  0  0  0
 15 65  1  0  0  0  0
 16 27  1  0  0  0  0
 17 27  1  0  0  0  0
 17 30  2  0  0  0  0
 17 31  1  0  0  0  0
 18 20  2  0  0  0  0
 18 37  1  0  0  0  0
 19 21  2  0  0  0  0
 19 38  1  0  0  0  0
 20 46  1  0  0  0  0
 21 39  1  0  0  0  0
 22 82  1  0  0  0  0
 23 83  1  0  0  0  0
 24 26  2  0  0  0  0
 24 82  1  0  0  0  0
 25 84  1  0  0  0  0
 26 85  1  0  0  0  0
 27 64  2  0  0  0  0
 28 29  2  0  0  0  0
 28 32  1  0  0  0  0
 28 63  1  0  0  0  0
 29 49  1  0  0  0  0
 29 65  1  0  0  0  0
 30 66  1  0  0  0  0
 30 69  1  0  0  0  0
 31 70  1  0  0  0  0
 31 76  2  0  0  0  0
 32 71  1  0  0  0  0
 32 77  2  0  0  0  0
 33 47  1  0  0  0  0
 33 72  1  0  0  0  0
 33 78  2  0  0  0  0
 34 60  1  0  0  0  0
 34 67  1  0  0  0  0
 34 79  2  0  0  0  0
 35 61  1  0  0  0  0
 35 73  1  0  0  0  0
 35 80  2  0  0  0  0
 36 68  1  0  0  0  0
 36 74  1  0  0  0  0
 36 81  2  0  0  0  0
 37 40  1  0  0  0  0
 38 47  1  0  0  0  0
 39 67  1  0  0  0  0
 40 42  1  0  0  0  0
 41 43  1  0  0  0  0
 41 44  1  0  0  0  0
 42 46  1  0  0  0  0
 43 48  1  0  0  0  0
 44 68  1  0  0  0  0
 45 48  1  0  0  0  0
 45 68  1  0  0  0  0
 46 72  1  0  0  0  0
 47 67  1  0  0  0  0
 48 66  1  0  0  0  0
 50 61  1  0  0  0  0
 51 62  1  0  0  0  0
 52 62  1  0  0  0  0
 53 62  1  0  0  0  0
 54 75  1  0  0  0  0
 55 57  1  0  0  0  0
 55 59  1  0  0  0  0
 56 58  1  0  0  0  0
 56 65  1  0  0  0  0
 57 71  1  0  0  0  0
 58 74  1  0  0  0  0
 59 83  1  0  0  0  0
 60 62  1  0  0  0  0
 60 73  1  0  0  0  0
 61 75  1  0  0  0  0
 64 66  1  0  0  0  0
M  CHG  1  75   1
M  ISO  4  36 100  59 101  74 100  83 101
M  END
> <Batch ID>
0005

> <Smiles>
CNC(C)C(=O)NC(C(=O)N1Cc2cc([101O:1][101CH2:1]CCNC(=O)c3ncn(CC[100NH:0][100C:0](=O)N4CCCC(n5nc(-c6ccc(Oc7ccc(F)cc7F)cc6)c(C(N)=O)c5N)C4)c3C)ccc2CC1C(=O)NC1CCCc2ccccc21)C(C)(C)C

> <Shape>
0.234

> <Color>
0.050

> <Negative vol penalty>
0.000

$$$$

  -OEChem-04052315263D

101109  0     1  0  0  0  0  0999 V2000
  -16.7163  -28.8632   23.7664 C   0  0  0  0  0  0  0  0  0  0  0  0
  -17.3336  -28.1726   22.7283 C   0  0  0  0  0  0  0  0  0  0  0  0
  -24.5466  -13.5008   15.2155 C   0  0  0  0  0  0  0  0  0  0  0  0
  -30.1552  -18.2470   20.6444 C   0  0  0  0  0  0  0  0  0  0  0  0
  -28.5740  -16.7698   19.5697 C   0  0  0  0  0  0  0  0  0  0  0  0
  -17.3102  -30.0117   24.2882 C   0  0  0  0  0  0  0  0  0  0  0  0
  -18.5446  -28.6308   22.2108 C   0  0  0  0  0  0  0  0  0  0  0  0
  -21.9013  -24.9009   21.5288 C   0  0  0  0  0  0  0  0  0  0  0  0
  -23.7651  -12.7807   16.1189 C   0  0  0  0  0  0  0  0  0  0  0  0
  -24.2562  -14.8400   14.9549 C   0  0  0  0  0  0  0  0  0  0  0  0
  -31.1181  -17.2383   20.6142 C   0  0  0  0  0  0  0  0  0  0  0  0
  -29.5370  -15.7611   19.5395 C   0  0  0  0  0  0  0  0  0  0  0  0
  -21.7352  -24.0924   20.4052 C   0  0  0  0  0  0  0  0  0  0  0  0
  -31.4649  -12.6802   19.5040 C   0  0  0  0  0  0  0  0  0  0  0  0
  -31.0711  -11.3965   19.8815 C   0  0  0  0  0  0  0  0  0  0  0  0
  -23.4492  -25.3442   19.2586 C   0  0  0  0  0  0  0  0  0  0  0  0
  -22.4026  -14.7389   16.5012 C   0  0  0  0  0  0  0  0  0  0  0  0
  -30.4630  -12.2259   22.0677 C   0  0  0  0  0  0  0  0  0  0  0  0
  -28.8831  -18.0127   20.1222 C   0  0  0  0  0  0  0  0  0  0  0  0
  -27.6466  -20.0295   19.1677 C   0  0  0  0  0  0  0  0  0  0  0  0
  -18.5339  -30.4787   23.7833 C   0  0  0  0  0  0  0  0  0  0  0  0
  -22.8365  -25.9458   21.5219 C   0  0  0  0  0  0  0  0  0  0  0  0
  -19.1547  -29.7874   22.7254 C   0  0  0  0  0  0  0  0  0  0  0  0
  -23.6270  -26.1629   20.3843 C   0  0  0  0  0  0  0  0  0  0  0  0
  -22.6931  -13.3997   16.7618 C   0  0  0  0  0  0  0  0  0  0  0  0
  -30.8090  -15.9953   20.0617 C   0  0  0  0  0  0  0  0  0  0  0  0
  -22.5072  -24.3158   19.2688 C   0  0  0  0  0  0  0  0  0  0  0  0
  -23.1842  -15.4590   15.5978 C   0  0  0  0  0  0  0  0  0  0  0  0
  -31.3578  -13.7368   20.4084 C   0  0  0  0  0  0  0  0  0  0  0  0
  -30.5701  -11.1693   21.1634 C   0  0  0  0  0  0  0  0  0  0  0  0
  -30.8569  -13.5097   21.6902 C   0  0  0  0  0  0  0  0  0  0  0  0
  -27.8879  -19.0541   20.1537 C   0  0  0  0  0  0  0  0  0  0  0  0
  -26.6078  -20.7751   19.6692 C   0  0  0  0  0  0  0  0  0  0  0  0
  -28.3027  -20.2424   17.9107 C   0  0  0  0  0  0  0  0  0  0  0  0
  -22.6707  -29.1064   21.8159 C   0  0  0  0  0  0  0  0  0  0  0  0
  -25.9070  -28.8871   21.8016 C   0  0  0  0  0  0  0  0  0  0  0  0
  -21.3990  -13.9751   19.7398 C   0  0  0  0  0  0  0  0  0  0  0  0
  -28.6872  -27.1193   20.9113 C   0  0  0  0  0  0  0  0  0  0  0  0
  -22.2434  -19.5704   23.5873 C   0  0  0  0  0  0  0  0  0  0  0  0
  -19.1138  -31.7514   24.3477 C   0  0  0  0  0  0  0  0  0  0  0  0
  -23.0224  -26.7919   22.7515 C   0  0  0  0  0  0  0  0  0  0  0  0
  -24.6591  -27.2586   20.3332 C   0  0  0  0  0  0  0  0  0  0  0  0
  -20.5846  -31.9592   23.9956 C   0  0  0  0  0  0  0  0  0  0  0  0
  -24.6606  -22.1752   23.8091 C   0  0  0  0  0  0  0  0  0  0  0  0
  -20.8217  -31.6905   22.5129 C   0  0  0  0  0  0  0  0  0  0  0  0
  -25.7400  -21.7586   22.8085 C   0  0  0  0  0  0  0  0  0  0  0  0
  -24.0601  -20.9682   24.5265 C   0  0  0  0  0  0  0  0  0  0  0  0
  -24.6275  -19.4935   22.6352 C   0  0  0  0  0  0  0  0  0  0  0  0
  -20.4812  -30.2390   22.1540 C   0  0  1  0  0  0  0  0  0  0  0  0
  -23.6425  -28.1532   22.4519 C   0  0  1  0  0  0  0  0  0  0  0  0
  -25.2235  -20.6720   21.8464 C   0  0  2  0  0  0  0  0  0  0  0  0
  -25.0976   -6.0449   23.7352 C   0  0  0  0  0  0  0  0  0  0  0  0
  -31.1933  -27.2123   21.0014 C   0  0  0  0  0  0  0  0  0  0  0  0
  -25.9104  -30.9281   19.5335 C   0  0  0  0  0  0  0  0  0  0  0  0
  -28.2762  -30.2731   19.0410 C   0  0  0  0  0  0  0  0  0  0  0  0
  -27.6952  -31.2740   21.2509 C   0  0  0  0  0  0  0  0  0  0  0  0
  -28.8365  -24.6457   22.5293 C   0  0  0  0  0  0  0  0  0  0  0  0
  -21.8572  -12.6294   17.7273 C   0  0  0  0  0  0  0  0  0  0  0  0
  -21.7448  -14.3081   21.1758 C   0  0  0  0  0  0  0  0  0  0  0  0
  -23.9713   -6.8596   23.1192 C   0  0  0  0  0  0  0  0  0  0  0  0
  -24.5062   -8.0917   22.3880 C   0  0  0  0  0  0  0  0  0  0  0  0
  -23.3656   -8.9243   21.7986 C   0  0  0  0  0  0  0  0  0  0  0  0
  -23.8443  -10.1798   21.0638 C   0  0  0  0  0  0  0  0  0  0  0  0
  -22.7098  -10.9736   20.4110 C   0  0  0  0  0  0  0  0  0  0  0  0
  -22.7136  -18.9812   16.2572 C   0  0  0  0  0  0  0  0  0  0  0  0
  -22.1218  -19.8371   17.3748 C   0  0  0  0  0  0  0  0  0  0  0  0
  -20.3131  -16.8792   23.3842 C   0  0  0  0  0  0  0  0  0  0  0  0
  -23.2432  -12.2308   19.7242 C   0  0  0  0  0  0  0  0  0  0  0  0
  -20.5278  -18.1216   22.5304 C   0  0  0  0  0  0  0  0  0  0  0  0
  -22.3078  -17.5200   16.3979 C   0  0  0  0  0  0  0  0  0  0  0  0
  -21.2133  -15.7184   22.9790 C   0  0  0  0  0  0  0  0  0  0  0  0
  -21.9316  -22.1814   18.3920 C   0  0  0  0  0  0  0  0  0  1  0  0
  -26.9752  -28.9060   20.7349 C   0  0  1  0  0  0  0  0  0  0  0  0
  -29.9281  -26.7316   21.6950 C   0  0  2  0  0  0  0  0  0  0  0  0
  -27.1935  -30.3258   20.1400 C   0  0  0  0  0  0  0  0  0  0  0  0
  -22.5078  -21.3098   17.2918 C   0  0  0  0  0  0  0  0  0  0  0  0
  -27.0685  -19.1674   21.2024 N   0  0  0  0  0  0  0  0  0  0  0  0
  -26.3023  -20.2228   20.8782 N   0  0  0  0  0  0  0  0  0  0  0  0
  -24.7991  -28.0630   21.5583 N   0  0  0  0  0  0  0  0  0  0  0  0
  -23.5879  -19.9760   23.5578 N   0  0  0  0  0  0  0  0  0  0  0  0
  -25.9353  -21.8429   19.1896 N   0  0  0  0  0  0  0  0  0  0  0  0
  -29.3505  -19.3843   17.5502 N   0  0  0  0  0  0  0  0  0  0  0  0
  -21.5434  -29.3515   22.5765 N   0  0  0  0  0  0  0  0  0  0  0  0
  -28.1671  -28.3220   21.3405 N   0  0  0  0  0  0  0  0  0  0  0  0
  -21.8772  -18.6316   22.6306 N   0  0  0  0  0  0  0  0  0  0  0  0
  -22.1439  -12.9743   19.0967 N   0  0  0  0  0  0  0  0  0  0  0  0
  -30.0064  -25.2506   21.8419 N   0  3  0  0  0  0  0  0  0  0  0  0
  -27.9804  -21.1764   17.1378 O   0  0  0  0  0  0  0  0  0  0  0  0
  -22.9255  -29.5854   20.7170 O   0  0  0  0  0  0  0  0  0  0  0  0
  -26.0538  -29.5725   22.8166 O   0  0  0  0  0  0  0  0  0  0  0  0
  -20.4856  -14.5982   19.1901 O   0  0  0  0  0  0  0  0  0  0  0  0
  -28.2275  -26.4264   20.0063 O   0  0  0  0  0  0  0  0  0  0  0  0
  -21.4284  -20.0163   24.4021 O   0  0  0  0  0  0  0  0  0  0  0  0
  -31.7485  -15.0109   20.0318 O   0  0  0  0  0  0  0  0  0  0  0  0
  -22.3466  -23.5286   18.1705 O   0  0  0  0  0  0  0  0  0  1  0  0
  -22.8992  -16.7753   15.3422 O   0  0  0  0  0  0  0  0  0  0  0  0
  -20.9268  -15.3656   21.6286 O   0  0  0  0  0  0  0  0  0  0  0  0
  -30.1906   -9.9368   21.5252 F   0  0  0  0  0  0  0  0  0  0  0  0
  -30.7506  -14.5210   22.5630 F   0  0  0  0  0  0  0  0  0  0  0  0
  -23.8621  -21.4158   17.2956 F   0  0  0  0  0  0  0  0  0  0  0  0
  -22.0888  -21.7881   16.0883 F   0  0  0  0  0  0  0  0  0  0  0  0
  1  2  1  0  0  0  0
  1  6  2  0  0  0  0
  2  7  2  0  0  0  0
  3  9  2  0  0  0  0
  3 10  1  0  0  0  0
  4 11  2  0  0  0  0
  4 19  1  0  0  0  0
  5 12  1  0  0  0  0
  5 19  2  0  0  0  0
  6 21  1  0  0  0  0
  7 23  1  0  0  0  0
  8 13  2  0  0  0  0
  8 22  1  0  0  0  0
  9 25  1  0  0  0  0
 10 28  2  0  0  0  0
 11 26  1  0  0  0  0
 12 26  2  0  0  0  0
 13 27  1  0  0  0  0
 14 15  2  0  0  0  0
 14 29  1  0  0  0  0
 15 30  1  0  0  0  0
 16 24  1  0  0  0  0
 16 27  2  0  0  0  0
 17 25  2  0  0  0  0
 17 28  1  0  0  0  0
 18 30  2  0  0  0  0
 18 31  1  0  0  0  0
 19 32  1  0  0  0  0
 20 32  1  0  0  0  0
 20 33  2  0  0  0  0
 20 34  1  0  0  0  0
 21 23  2  0  0  0  0
 21 40  1  0  0  0  0
 22 24  2  0  0  0  0
 22 41  1  0  0  0  0
 23 49  1  0  0  0  0
 24 42  1  0  0  0  0
 25 58  1  0  0  0  0
 26 94  1  0  0  0  0
 27 95  1  0  0  0  0
 28 96  1  0  0  0  0
 29 31  2  0  0  0  0
 29 94  1  0  0  0  0
 30 98  1  0  0  0  0
 31 99  1  0  0  0  0
 32 77  2  0  0  0  0
 33 78  1  0  0  0  0
 33 81  1  0  0  0  0
 34 82  1  0  0  0  0
 34 88  2  0  0  0  0
 35 50  1  0  0  0  0
 35 83  1  0  0  0  0
 35 89  2  0  0  0  0
 36 73  1  0  0  0  0
 36 79  1  0  0  0  0
 36 90  2  0  0  0  0
 37 59  1  0  0  0  0
 37 86  1  0  0  0  0
 37 91  2  0  0  0  0
 38 74  1  0  0  0  0
 38 84  1  0  0  0  0
 38 92  2  0  0  0  0
 39 80  1  0  0  0  0
 39 85  1  0  0  0  0
 39 93  2  0  0  0  0
 40 43  1  0  0  0  0
 41 50  1  0  0  0  0
 42 79  1  0  0  0  0
 43 45  1  0  0  0  0
 44 46  1  0  0  0  0
 44 47  1  0  0  0  0
 45 49  1  0  0  0  0
 46 51  1  0  0  0  0
 47 80  1  0  0  0  0
 48 51  1  0  0  0  0
 48 80  1  0  0  0  0
 49 83  1  0  0  0  0
 50 79  1  0  0  0  0
 51 78  1  0  0  0  0
 52 60  1  0  0  0  0
 53 74  1  0  0  0  0
 54 75  1  0  0  0  0
 55 75  1  0  0  0  0
 56 75  1  0  0  0  0
 57 87  1  0  0  0  0
 58 86  1  0  0  0  0
 59 97  1  0  0  0  0
 60 61  1  0  0  0  0
 61 62  1  0  0  0  0
 62 63  1  0  0  0  0
 63 64  1  0  0  0  0
 64 68  1  0  0  0  0
 65 66  1  0  0  0  0
 65 70  1  0  0  0  0
 66 76  1  0  0  0  0
 67 69  1  0  0  0  0
 67 71  1  0  0  0  0
 68 86  1  0  0  0  0
 69 85  1  0  0  0  0
 70 96  1  0  0  0  0
 71 97  1  0  0  0  0
 72 76  1  0  0  0  0
 72 95  1  0  0  0  0
 73 75  1  0  0  0  0
 73 84  1  0  0  0  0
 74 87  1  0  0  0  0
 76100  1  0  0  0  0
 76101  1  0  0  0  0
 77 78  1  0  0  0  0
M  CHG  1  87   1
M  ISO  4  39 100  72 101  85 100  95 101
M  END
> <Batch ID>
0005

> <Smiles>
CCCCCCCN(Cc1cccc(OCCCC(F)(F)[101CH2:1][101O:1]c2ccc3c(c2)CN(C(=O)C(NC(=O)C(C)NC)C(C)(C)C)C(C(=O)NC2CCCc4ccccc42)C3)c1)C(=O)COCCC[100NH:0][100C:0](=O)N1CCCC(n2nc(-c3ccc(Oc4ccc(F)cc4F)cc3)c(C(N)=O)c2N)C1

> <Shape>
0.217

> <Color>
0.067

> <Negative vol penalty>
0.000

$$$$

  -OEChem-04052315263D

 82 89  0     1  0  0  0  0  0999 V2000
  -16.8659  -28.5574   24.1015 C   0  0  0  0  0  0  0  0  0  0  0  0
  -17.5171  -27.7269   23.1951 C   0  0  0  0  0  0  0  0  0  0  0  0
  -30.1695  -18.5114   16.8885 C   0  0  0  0  0  0  0  0  0  0  0  0
  -28.1667  -19.4238   15.8920 C   0  0  0  0  0  0  0  0  0  0  0  0
  -17.3098  -29.8656   24.2899 C   0  0  0  0  0  0  0  0  0  0  0  0
  -18.6119  -28.2046   22.4756 C   0  0  0  0  0  0  0  0  0  0  0  0
  -22.4462  -24.8990   22.3504 C   0  0  0  0  0  0  0  0  0  0  0  0
  -30.3637  -17.7094   15.7639 C   0  0  0  0  0  0  0  0  0  0  0  0
  -28.3608  -18.6218   14.7674 C   0  0  0  0  0  0  0  0  0  0  0  0
  -22.3372  -23.8307   21.4612 C   0  0  0  0  0  0  0  0  0  0  0  0
  -28.1309  -16.5522   11.7885 C   0  0  0  0  0  0  0  0  0  0  0  0
  -27.0238  -15.8770   11.2748 C   0  0  0  0  0  0  0  0  0  0  0  0
  -23.7708  -24.9882   19.9042 C   0  0  0  0  0  0  0  0  0  0  0  0
  -26.7545  -14.7185   13.3778 C   0  0  0  0  0  0  0  0  0  0  0  0
  -29.0710  -19.3685   16.9526 C   0  0  0  0  0  0  0  0  0  0  0  0
  -29.3586  -21.5001   18.3242 C   0  0  0  0  0  0  0  0  0  0  0  0
  -18.4165  -30.3565   23.5795 C   0  0  0  0  0  0  0  0  0  0  0  0
  -23.2109  -26.0265   22.0180 C   0  0  0  0  0  0  0  0  0  0  0  0
  -19.0702  -29.5210   22.6537 C   0  0  0  0  0  0  0  0  0  0  0  0
  -23.8900  -26.0683   20.7920 C   0  0  0  0  0  0  0  0  0  0  0  0
  -29.4594  -17.7646   14.7034 C   0  0  0  0  0  0  0  0  0  0  0  0
  -22.9971  -23.8764   20.2367 C   0  0  0  0  0  0  0  0  0  0  0  0
  -28.5499  -16.3106   13.0969 C   0  0  0  0  0  0  0  0  0  0  0  0
  -26.3356  -14.9601   12.0694 C   0  0  0  0  0  0  0  0  0  0  0  0
  -27.8616  -15.3937   13.8915 C   0  0  0  0  0  0  0  0  0  0  0  0
  -28.8695  -20.1968   18.1143 C   0  0  0  0  0  0  0  0  0  0  0  0
  -28.8945  -21.8444   19.5702 C   0  0  0  0  0  0  0  0  0  0  0  0
  -30.1605  -22.3257   17.4693 C   0  0  0  0  0  0  0  0  0  0  0  0
  -22.5878  -29.1150   21.5981 C   0  0  0  0  0  0  0  0  0  0  0  0
  -24.2233  -14.4879   20.1800 C   0  0  0  0  0  0  0  0  0  0  0  0
  -25.8135  -29.3299   21.3312 C   0  0  0  0  0  0  0  0  0  0  0  0
  -28.7703  -27.7854   20.6110 C   0  0  0  0  0  0  0  0  0  0  0  0
  -26.4615  -17.0864   21.0473 C   0  0  0  0  0  0  0  0  0  0  0  0
  -18.8304  -31.7926   23.7821 C   0  0  0  0  0  0  0  0  0  0  0  0
  -23.3401  -27.1590   22.9994 C   0  0  0  0  0  0  0  0  0  0  0  0
  -24.7400  -27.2470   20.3961 C   0  0  0  0  0  0  0  0  0  0  0  0
  -20.2292  -32.1035   23.2558 C   0  0  0  0  0  0  0  0  0  0  0  0
  -25.0658  -20.4896   22.1659 C   0  0  0  0  0  0  0  0  0  0  0  0
  -20.4150  -31.5220   21.8579 C   0  0  0  0  0  0  0  0  0  0  0  0
  -26.0426  -21.2326   21.2643 C   0  0  0  0  0  0  0  0  0  0  0  0
  -24.9869  -19.0208   21.7630 C   0  0  0  0  0  0  0  0  0  0  0  0
  -27.4773  -19.1878   21.8916 C   0  0  0  0  0  0  0  0  0  0  0  0
  -20.2767  -29.9949   21.8727 C   0  0  1  0  0  0  0  0  0  0  0  0
  -23.7287  -28.4790   22.3408 C   0  0  1  0  0  0  0  0  0  0  0  0
  -27.4587  -20.6294   21.3419 C   0  0  1  0  0  0  0  0  0  0  0  0
  -24.3204  -13.0784   19.6438 C   0  0  0  0  0  0  0  0  0  0  0  0
  -31.2345  -28.2289   20.4424 C   0  0  0  0  0  0  0  0  0  0  0  0
  -25.3730  -30.7516   18.6676 C   0  0  0  0  0  0  0  0  0  0  0  0
  -27.7767  -30.3176   18.1180 C   0  0  0  0  0  0  0  0  0  0  0  0
  -27.1847  -31.7315   20.0860 C   0  0  0  0  0  0  0  0  0  0  0  0
  -29.3878  -25.8126   22.7288 C   0  0  0  0  0  0  0  0  0  0  0  0
  -22.8226  -15.0324   20.4062 C   0  0  0  0  0  0  0  0  0  0  0  0
  -22.3310  -15.7799   19.1681 C   0  0  0  0  0  0  0  0  0  0  0  0
  -20.9215  -16.3346   19.3780 C   0  0  0  0  0  0  0  0  0  0  0  0
  -20.4060  -17.1626   18.1959 C   0  0  0  0  0  0  0  0  0  0  0  0
  -21.2163  -18.4190   17.8569 C   0  0  0  0  0  0  0  0  0  0  0  0
  -21.2654  -19.4367   18.9986 C   0  0  0  0  0  0  0  0  0  0  0  0
  -22.1126  -20.6689   18.6776 C   0  0  0  0  0  0  0  0  0  0  0  0
  -22.0894  -21.7282   19.7715 C   0  0  0  0  0  0  0  0  0  1  0  0
  -26.8007  -29.2348   20.1931 C   0  0  1  0  0  0  0  0  0  0  0  0
  -30.1002  -27.7645   21.3427 C   0  0  2  0  0  0  0  0  0  0  0  0
  -26.7663  -30.4873   19.2725 C   0  0  0  0  0  0  0  0  0  0  0  0
  -28.1501  -19.7439   19.1444 N   0  0  0  0  0  0  0  0  0  0  0  0
  -25.3379  -15.1249   20.3799 N   0  0  0  0  0  0  0  0  0  0  0  0
  -28.1837  -20.7682   20.0138 N   0  0  0  0  0  0  0  0  0  0  0  0
  -24.8300  -28.3321   21.3870 N   0  0  0  0  0  0  0  0  0  0  0  0
  -26.2977  -18.4059   21.5163 N   0  0  0  0  0  0  0  0  0  0  0  0
  -29.0292  -22.9597   20.3189 N   0  0  0  0  0  0  0  0  0  0  0  0
  -30.5499  -21.8170   16.2228 N   0  0  0  0  0  0  0  0  0  0  0  0
  -21.4840  -29.3830   22.3850 N   0  0  0  0  0  0  0  0  0  0  0  0
  -28.1012  -28.9760   20.8014 N   0  0  0  0  0  0  0  0  0  0  0  0
  -25.2746  -16.3974   20.8307 N   0  0  0  0  0  0  0  0  0  0  0  0
  -30.4097  -26.3854   21.8152 N   0  3  0  0  0  0  0  0  0  0  0  0
  -30.5349  -23.4741   17.8079 O   0  0  0  0  0  0  0  0  0  0  0  0
  -22.7011  -29.3469   20.4002 O   0  0  0  0  0  0  0  0  0  0  0  0
  -25.9156  -30.2513   22.1450 O   0  0  0  0  0  0  0  0  0  0  0  0
  -28.3671  -26.8416   19.9348 O   0  0  0  0  0  0  0  0  0  0  0  0
  -27.5664  -16.5749   20.8419 O   0  0  0  0  0  0  0  0  0  0  0  0
  -29.6487  -16.9823   13.6057 O   0  0  0  0  0  0  0  0  0  0  0  0
  -22.8911  -22.8280   19.3605 O   0  0  0  0  0  0  0  0  0  1  0  0
  -25.2715  -14.3129   11.5764 F   0  0  0  0  0  0  0  0  0  0  0  0
  -28.2587  -15.1583   15.1496 F   0  0  0  0  0  0  0  0  0  0  0  0
  1  2  1  0  0  0  0
  1  5  2  0  0  0  0
  2  6  2  0  0  0  0
  3  8  2  0  0  0  0
  3 15  1  0  0  0  0
  4  9  1  0  0  0  0
  4 15  2  0  0  0  0
  5 17  1  0  0  0  0
  6 19  1  0  0  0  0
  7 10  2  0  0  0  0
  7 18  1  0  0  0  0
  8 21  1  0  0  0  0
  9 21  2  0  0  0  0
 10 22  1  0  0  0  0
 11 12  2  0  0  0  0
 11 23  1  0  0  0  0
 12 24  1  0  0  0  0
 13 20  1  0  0  0  0
 13 22  2  0  0  0  0
 14 24  2  0  0  0  0
 14 25  1  0  0  0  0
 15 26  1  0  0  0  0
 16 26  1  0  0  0  0
 16 27  2  0  0  0  0
 16 28  1  0  0  0  0
 17 19  2  0  0  0  0
 17 34  1  0  0  0  0
 18 20  2  0  0  0  0
 18 35  1  0  0  0  0
 19 43  1  0  0  0  0
 20 36  1  0  0  0  0
 21 79  1  0  0  0  0
 22 80  1  0  0  0  0
 23 25  2  0  0  0  0
 23 79  1  0  0  0  0
 24 81  1  0  0  0  0
 25 82  1  0  0  0  0
 26 63  2  0  0  0  0
 27 65  1  0  0  0  0
 27 68  1  0  0  0  0
 28 69  1  0  0  0  0
 28 74  2  0  0  0  0
 29 44  1  0  0  0  0
 29 70  1  0  0  0  0
 29 75  2  0  0  0  0
 30 46  1  0  0  0  0
 30 52  1  0  0  0  0
 30 64  2  0  0  0  0
 31 60  1  0  0  0  0
 31 66  1  0  0  0  0
 31 76  2  0  0  0  0
 32 61  1  0  0  0  0
 32 71  1  0  0  0  0
 32 77  2  0  0  0  0
 33 67  1  0  0  0  0
 33 72  1  0  0  0  0
 33 78  2  0  0  0  0
 34 37  1  0  0  0  0
 35 44  1  0  0  0  0
 36 66  1  0  0  0  0
 37 39  1  0  0  0  0
 38 40  1  0  0  0  0
 38 41  1  0  0  0  0
 39 43  1  0  0  0  0
 40 45  1  0  0  0  0
 41 67  1  0  0  0  0
 42 45  1  0  0  0  0
 42 67  1  0  0  0  0
 43 70  1  0  0  0  0
 44 66  1  0  0  0  0
 45 65  1  0  0  0  0
 47 61  1  0  0  0  0
 48 62  1  0  0  0  0
 49 62  1  0  0  0  0
 50 62  1  0  0  0  0
 51 73  1  0  0  0  0
 52 53  1  0  0  0  0
 53 54  1  0  0  0  0
 54 55  1  0  0  0  0
 55 56  1  0  0  0  0
 56 57  1  0  0  0  0
 57 58  1  0  0  0  0
 58 59  1  0  0  0  0
 59 80  1  0  0  0  0
 60 62  1  0  0  0  0
 60 71  1  0  0  0  0
 61 73  1  0  0  0  0
 63 65  1  0  0  0  0
 64 72  1  0  0  0  0
M  CHG  1  73   1
M  ISO  4  33 100  59 101  72 100  80 101
M  END
> <Batch ID>
0005

> <Smiles>
CNC(C)C(=O)NC(C(=O)N1Cc2cc([101O:1][101CH2:1]CCCCCCCC(C)=N[100NH:0][100C:0](=O)N3CCCC(n4nc(-c5ccc(Oc6ccc(F)cc6F)cc5)c(C(N)=O)c4N)C3)ccc2CC1C(=O)NC1CCCc2ccccc21)C(C)(C)C

> <Shape>
0.190

> <Color>
0.085

> <Negative vol penalty>
0.000

$$$$

  -OEChem-04052315263D

 86 94  0     1  0  0  0  0  0999 V2000
  -23.4314  -35.8004   15.5870 C   0  0  0  0  0  0  0  0  0  0  0  0
  -24.0719  -34.5667   15.6445 C   0  0  0  0  0  0  0  0  0  0  0  0
  -26.8548  -10.2391   20.9901 C   0  0  0  0  0  0  0  0  0  0  0  0
  -25.8397  -11.8869   19.5440 C   0  0  0  0  0  0  0  0  0  0  0  0
  -23.4383  -36.6407   16.6995 C   0  0  0  0  0  0  0  0  0  0  0  0
  -24.7207  -34.1732   16.8144 C   0  0  0  0  0  0  0  0  0  0  0  0
  -25.1527  -28.4881   19.0504 C   0  0  0  0  0  0  0  0  0  0  0  0
  -29.7698  -21.4520   20.3161 C   0  0  0  0  0  0  0  0  0  0  0  0
  -30.3078  -20.1817   20.5220 C   0  0  0  0  0  0  0  0  0  0  0  0
  -25.5892   -9.7872   21.3637 C   0  0  0  0  0  0  0  0  0  0  0  0
  -24.5740  -11.4349   19.9175 C   0  0  0  0  0  0  0  0  0  0  0  0
  -26.1628  -27.5293   18.9865 C   0  0  0  0  0  0  0  0  0  0  0  0
  -23.1660   -7.8156   20.0697 C   0  0  0  0  0  0  0  0  0  0  0  0
  -22.9540   -6.4375   20.1047 C   0  0  0  0  0  0  0  0  0  0  0  0
  -26.9696  -28.2443   21.1445 C   0  0  0  0  0  0  0  0  0  0  0  0
  -28.4838  -20.6056   18.4541 C   0  0  0  0  0  0  0  0  0  0  0  0
  -22.4169   -6.5797   22.4559 C   0  0  0  0  0  0  0  0  0  0  0  0
  -26.9801  -11.2890   20.0803 C   0  0  0  0  0  0  0  0  0  0  0  0
  -29.0715  -11.2968   18.6197 C   0  0  0  0  0  0  0  0  0  0  0  0
  -24.0792  -36.2531   17.8868 C   0  0  0  0  0  0  0  0  0  0  0  0
  -25.0499  -29.3410   20.1588 C   0  0  0  0  0  0  0  0  0  0  0  0
  -24.7373  -35.0097   17.9434 C   0  0  0  0  0  0  0  0  0  0  0  0
  -25.9558  -29.2114   21.2212 C   0  0  0  0  0  0  0  0  0  0  0  0
  -28.8578  -21.6640   19.2822 C   0  0  0  0  0  0  0  0  0  0  0  0
  -29.9339  -19.1233   19.6939 C   0  0  0  0  0  0  0  0  0  0  0  0
  -24.4488  -10.3851   20.8273 C   0  0  0  0  0  0  0  0  0  0  0  0
  -27.0732  -27.4092   20.0323 C   0  0  0  0  0  0  0  0  0  0  0  0
  -23.0035   -8.5759   21.2279 C   0  0  0  0  0  0  0  0  0  0  0  0
  -29.0219  -19.3353   18.6600 C   0  0  0  0  0  0  0  0  0  0  0  0
  -22.5794   -5.8195   21.2977 C   0  0  0  0  0  0  0  0  0  0  0  0
  -22.6289   -7.9579   22.4210 C   0  0  0  0  0  0  0  0  0  0  0  0
  -28.2872  -11.7566   19.6945 C   0  0  0  0  0  0  0  0  0  0  0  0
  -30.2150  -12.0554   18.6799 C   0  0  0  0  0  0  0  0  0  0  0  0
  -28.7915  -10.2754   17.6532 C   0  0  0  0  0  0  0  0  0  0  0  0
  -25.2318  -32.4843   20.5950 C   0  0  0  0  0  0  0  0  0  0  0  0
  -24.3590  -31.7217   23.6247 C   0  0  0  0  0  0  0  0  0  0  0  0
  -28.5743  -24.1111   19.7973 C   0  0  0  0  0  0  0  0  0  0  0  0
  -24.2386  -29.3775   26.1019 C   0  0  0  0  0  0  0  0  0  0  0  0
  -31.4072  -17.4735   20.8997 C   0  0  0  0  0  0  0  0  0  0  0  0
  -24.1004  -37.2154   19.0478 C   0  0  0  0  0  0  0  0  0  0  0  0
  -23.9383  -30.3522   20.2246 C   0  0  0  0  0  0  0  0  0  0  0  0
  -25.8763  -30.0890   22.4426 C   0  0  0  0  0  0  0  0  0  0  0  0
  -24.4902  -36.5638   20.3721 C   0  0  0  0  0  0  0  0  0  0  0  0
  -32.9865  -14.4107   21.7952 C   0  0  0  0  0  0  0  0  0  0  0  0
  -25.7165  -35.6753   20.1892 C   0  0  0  0  0  0  0  0  0  0  0  0
  -32.0351  -13.3407   21.2550 C   0  0  0  0  0  0  0  0  0  0  0  0
  -32.2291  -15.6213   22.3380 C   0  0  0  0  0  0  0  0  0  0  0  0
  -30.3108  -15.1471   20.8669 C   0  0  0  0  0  0  0  0  0  0  0  0
  -25.4308  -34.5367   19.2026 C   0  0  1  0  0  0  0  0  0  0  0  0
  -24.2405  -31.5117   21.1688 C   0  0  1  0  0  0  0  0  0  0  0  0
  -31.0296  -13.9361   20.2500 C   0  0  2  0  0  0  0  0  0  0  0  0
  -27.5739  -14.4059   16.3696 C   0  0  0  0  0  0  0  0  0  0  0  0
  -23.5009  -29.0599   28.4794 C   0  0  0  0  0  0  0  0  0  0  0  0
  -26.7947  -33.2873   24.5870 C   0  0  0  0  0  0  0  0  0  0  0  0
  -26.5516  -32.1633   26.8109 C   0  0  0  0  0  0  0  0  0  0  0  0
  -24.7274  -33.6318   25.9515 C   0  0  0  0  0  0  0  0  0  0  0  0
  -22.3259  -27.2491   25.3462 C   0  0  0  0  0  0  0  0  0  0  0  0
  -27.7804  -25.2798   19.2439 C   0  0  0  0  0  0  0  0  0  1  0  0
  -27.8199  -15.5818   17.3012 C   0  0  0  0  0  0  0  0  0  0  0  0
  -27.0477  -16.8201   16.8547 C   0  0  0  0  0  0  0  0  0  0  0  0
  -27.2571  -17.9874   17.8089 C   0  0  0  0  0  0  0  0  0  0  0  0
  -25.0973  -31.3660   24.8925 C   0  0  1  0  0  0  0  0  0  0  0  0
  -23.1099  -28.9340   27.0151 C   0  0  2  0  0  0  0  0  0  0  0  0
  -25.7957  -32.5967   25.5367 C   0  0  0  0  0  0  0  0  0  0  0  0
  -28.8821  -12.7316   20.3869 N   0  0  0  0  0  0  0  0  0  0  0  0
  -30.0525  -12.8906   19.7458 N   0  0  0  0  0  0  0  0  0  0  0  0
  -24.7757  -31.0667   22.4571 N   0  0  0  0  0  0  0  0  0  0  0  0
  -31.2986  -16.1342   21.3300 N   0  0  0  0  0  0  0  0  0  0  0  0
  -31.3335  -12.0826   17.9246 N   0  0  0  0  0  0  0  0  0  0  0  0
  -27.5695   -9.5942   17.7361 N   0  0  0  0  0  0  0  0  0  0  0  0
  -28.3127  -22.9530   19.0731 N   0  0  0  0  0  0  0  0  0  0  0  0
  -30.4899  -17.8389   19.9150 N   0  0  0  0  0  0  0  0  0  0  0  0
  -24.6597  -33.4935   19.8442 N   0  0  0  0  0  0  0  0  0  0  0  0
  -24.1258  -30.7084   25.7598 N   0  0  0  0  0  0  0  0  0  0  0  0
  -22.7527  -27.5127   26.7446 N   0  3  0  0  0  0  0  0  0  0  0  0
  -29.6079   -9.9645   16.7531 O   0  0  0  0  0  0  0  0  0  0  0  0
  -26.4269  -32.3313   20.8182 O   0  0  0  0  0  0  0  0  0  0  0  0
  -23.4414  -32.5449   23.6699 O   0  0  0  0  0  0  0  0  0  0  0  0
  -29.3267  -24.2424   20.7572 O   0  0  0  0  0  0  0  0  0  0  0  0
  -25.1330  -28.6199   25.7323 O   0  0  0  0  0  0  0  0  0  0  0  0
  -32.2694  -18.2321   21.3504 O   0  0  0  0  0  0  0  0  0  0  0  0
  -23.2136   -9.9442   21.1914 O   0  0  0  0  0  0  0  0  0  0  0  0
  -28.0605  -26.4746   19.9722 O   0  0  0  0  0  0  0  0  0  1  0  0
  -28.6444  -18.3152   17.8383 O   0  0  0  0  0  0  0  0  0  0  0  0
  -22.3744   -4.4962   21.3308 F   0  0  0  0  0  0  0  0  0  0  0  0
  -22.4701   -8.6832   23.5366 F   0  0  0  0  0  0  0  0  0  0  0  0
  1  2  1  0  0  0  0
  1  5  2  0  0  0  0
  2  6  2  0  0  0  0
  3 10  2  0  0  0  0
  3 18  1  0  0  0  0
  4 11  1  0  0  0  0
  4 18  2  0  0  0  0
  5 20  1  0  0  0  0
  6 22  1  0  0  0  0
  7 12  2  0  0  0  0
  7 21  1  0  0  0  0
  8  9  2  0  0  0  0
  8 24  1  0  0  0  0
  9 25  1  0  0  0  0
 10 26  1  0  0  0  0
 11 26  2  0  0  0  0
 12 27  1  0  0  0  0
 13 14  2  0  0  0  0
 13 28  1  0  0  0  0
 14 30  1  0  0  0  0
 15 23  1  0  0  0  0
 15 27  2  0  0  0  0
 16 24  2  0  0  0  0
 16 29  1  0  0  0  0
 17 30  2  0  0  0  0
 17 31  1  0  0  0  0
 18 32  1  0  0  0  0
 19 32  1  0  0  0  0
 19 33  2  0  0  0  0
 19 34  1  0  0  0  0
 20 22  2  0  0  0  0
 20 40  1  0  0  0  0
 21 23  2  0  0  0  0
 21 41  1  0  0  0  0
 22 49  1  0  0  0  0
 23 42  1  0  0  0  0
 24 71  1  0  0  0  0
 25 29  2  0  0  0  0
 25 72  1  0  0  0  0
 26 82  1  0  0  0  0
 27 83  1  0  0  0  0
 28 31  2  0  0  0  0
 28 82  1  0  0  0  0
 29 84  1  0  0  0  0
 30 85  1  0  0  0  0
 31 86  1  0  0  0  0
 32 65  2  0  0  0  0
 33 66  1  0  0  0  0
 33 69  1  0  0  0  0
 34 70  1  0  0  0  0
 34 76  2  0  0  0  0
 35 50  1  0  0  0  0
 35 73  1  0  0  0  0
 35 77  2  0  0  0  0
 36 62  1  0  0  0  0
 36 67  1  0  0  0  0
 36 78  2  0  0  0  0
 37 58  1  0  0  0  0
 37 71  1  0  0  0  0
 37 79  2  0  0  0  0
 38 63  1  0  0  0  0
 38 74  1  0  0  0  0
 38 80  2  0  0  0  0
 39 68  1  0  0  0  0
 39 72  1  0  0  0  0
 39 81  2  0  0  0  0
 40 43  1  0  0  0  0
 41 50  1  0  0  0  0
 42 67  1  0  0  0  0
 43 45  1  0  0  0  0
 44 46  1  0  0  0  0
 44 47  1  0  0  0  0
 45 49  1  0  0  0  0
 46 51  1  0  0  0  0
 47 68  1  0  0  0  0
 48 51  1  0  0  0  0
 48 68  1  0  0  0  0
 49 73  1  0  0  0  0
 50 67  1  0  0  0  0
 51 66  1  0  0  0  0
 52 59  1  0  0  0  0
 53 63  1  0  0  0  0
 54 64  1  0  0  0  0
 55 64  1  0  0  0  0
 56 64  1  0  0  0  0
 57 75  1  0  0  0  0
 58 83  1  0  0  0  0
 59 60  1  0  0  0  0
 60 61  1  0  0  0  0
 61 84  1  0  0  0  0
 62 64  1  0  0  0  0
 62 74  1  0  0  0  0
 63 75  1  0  0  0  0
 65 66  1  0  0  0  0
M  CHG  1  75   1
M  ISO  4  39 100  58 101  72 100  83 101
M  END
> <Batch ID>
0005

> <Smiles>
CCCCOc1cc(NC(=O)[101CH2:1][101O:1]c2ccc3c(c2)CN(C(=O)C(NC(=O)C(C)NC)C(C)(C)C)C(C(=O)NC2CCCc4ccccc42)C3)ccc1[100NH:0][100C:0](=O)N1CCCC(n2nc(-c3ccc(Oc4ccc(F)cc4F)cc3)c(C(N)=O)c2N)C1

> <Shape>
0.291

> <Color>
0.079

> <Negative vol penalty>
0.000

$$$$

  -OEChem-04052315263D

 97106  0     1  0  0  0  0  0999 V2000
  -20.2720  -25.1087   21.9474 C   0  0  0  0  0  0  0  0  0  0  0  0
  -24.4107  -10.5451   25.7026 C   0  0  0  0  0  0  0  0  0  0  0  0
  -24.3074  -11.9289   25.6029 C   0  0  0  0  0  0  0  0  0  0  0  0
  -27.6179  -17.5778   18.1196 C   0  0  0  0  0  0  0  0  0  0  0  0
  -29.8686  -17.3120   18.9566 C   0  0  0  0  0  0  0  0  0  0  0  0
  -24.2258   -9.7502   24.5722 C   0  0  0  0  0  0  0  0  0  0  0  0
  -24.0201  -12.5186   24.3725 C   0  0  0  0  0  0  0  0  0  0  0  0
  -18.2050  -16.6849   23.5246 C   0  0  0  0  0  0  0  0  0  0  0  0
  -25.1881  -26.5172   21.3794 C   0  0  0  0  0  0  0  0  0  0  0  0
  -25.4431  -26.5690   23.7814 C   0  0  0  0  0  0  0  0  0  0  0  0
  -27.5673  -16.2158   17.8230 C   0  0  0  0  0  0  0  0  0  0  0  0
  -29.8181  -15.9500   18.6600 C   0  0  0  0  0  0  0  0  0  0  0  0
  -17.2289  -17.6638   23.3376 C   0  0  0  0  0  0  0  0  0  0  0  0
  -28.5018  -13.1525   20.0246 C   0  0  0  0  0  0  0  0  0  0  0  0
  -28.9756  -12.2629   20.9888 C   0  0  0  0  0  0  0  0  0  0  0  0
  -24.1465  -27.4404   21.4701 C   0  0  0  0  0  0  0  0  0  0  0  0
  -24.4015  -27.4922   23.8720 C   0  0  0  0  0  0  0  0  0  0  0  0
  -17.8426  -17.8454   21.0055 C   0  0  0  0  0  0  0  0  0  0  0  0
  -30.6245  -11.4449   19.4237 C   0  0  0  0  0  0  0  0  0  0  0  0
  -28.7686  -18.1260   18.6863 C   0  0  0  0  0  0  0  0  0  0  0  0
  -28.6819  -20.6049   18.0907 C   0  0  0  0  0  0  0  0  0  0  0  0
  -23.9265  -10.3299   23.3292 C   0  0  0  0  0  0  0  0  0  0  0  0
  -18.9942  -16.2710   22.4479 C   0  0  0  0  0  0  0  0  0  0  0  0
  -23.8323  -11.7308   23.2241 C   0  0  0  0  0  0  0  0  0  0  0  0
  -18.8135  -16.8564   21.1840 C   0  0  0  0  0  0  0  0  0  0  0  0
  -25.8364  -26.0814   22.5351 C   0  0  0  0  0  0  0  0  0  0  0  0
  -28.6674  -15.4019   18.0932 C   0  0  0  0  0  0  0  0  0  0  0  0
  -17.0483  -18.2428   22.0812 C   0  0  0  0  0  0  0  0  0  0  0  0
  -29.0893  -13.1884   18.7600 C   0  0  0  0  0  0  0  0  0  0  0  0
  -30.0369  -11.4091   20.6883 C   0  0  0  0  0  0  0  0  0  0  0  0
  -30.1506  -12.3346   18.4596 C   0  0  0  0  0  0  0  0  0  0  0  0
  -23.7532  -27.9280   22.7164 C   0  0  0  0  0  0  0  0  0  0  0  0
  -28.8217  -19.5329   18.9924 C   0  0  0  0  0  0  0  0  0  0  0  0
  -28.8092  -21.7284   18.8706 C   0  0  0  0  0  0  0  0  0  0  0  0
  -18.6374  -28.9316   23.4948 C   0  0  0  0  0  0  0  0  0  0  0  0
  -19.9641  -28.9315   23.6909 C   0  0  0  0  0  0  0  0  0  0  0  0
  -28.4572  -20.5868   16.6748 C   0  0  0  0  0  0  0  0  0  0  0  0
  -21.7342  -14.0204   21.2219 C   0  0  0  0  0  0  0  0  0  0  0  0
  -19.5869  -14.0845   19.0320 C   0  0  0  0  0  0  0  0  0  0  0  0
  -17.4829  -13.3782   16.4414 C   0  0  0  0  0  0  0  0  0  0  0  0
  -27.6424  -24.6081   23.4911 C   0  0  0  0  0  0  0  0  0  0  0  0
  -16.5169  -25.1909   23.1050 C   0  0  0  0  0  0  0  0  0  0  0  0
  -23.7818   -9.4325   22.1257 C   0  0  0  0  0  0  0  0  0  0  0  0
  -20.0991  -15.2639   22.6172 C   0  0  0  0  0  0  0  0  0  0  0  0
  -19.7089  -16.4047   20.0627 C   0  0  0  0  0  0  0  0  0  0  0  0
  -17.8363  -27.9876   22.6494 C   0  0  0  0  0  0  0  0  0  0  0  0
  -23.1102  -10.1131   20.9357 C   0  0  0  0  0  0  0  0  0  0  0  0
  -30.3021  -22.2485   23.6792 C   0  0  0  0  0  0  0  0  0  0  0  0
  -23.7149  -11.4934   20.6991 C   0  0  0  0  0  0  0  0  0  0  0  0
  -30.1426  -21.4198   22.4024 C   0  0  0  0  0  0  0  0  0  0  0  0
  -20.5911  -27.5325   21.6247 C   0  0  0  0  0  0  0  0  0  0  0  0
  -28.9505  -22.6444   24.2709 C   0  0  0  0  0  0  0  0  0  0  0  0
  -27.8759  -22.4838   22.0599 C   0  0  0  0  0  0  0  0  0  0  0  0
  -19.5776  -26.3784   21.6338 C   0  0  2  0  0  0  0  0  0  0  0  0
  -23.4975  -12.4063   21.9119 C   0  0  1  0  0  0  0  0  0  0  0  0
  -20.9873  -28.0668   23.0072 C   0  0  1  0  0  0  0  0  0  0  0  0
  -20.2811  -14.3553   21.3882 C   0  0  1  0  0  0  0  0  0  0  0  0
  -29.2107  -22.1162   21.3914 C   0  0  2  0  0  0  0  0  0  0  0  0
  -18.3861  -26.5587   22.5891 C   0  0  2  0  0  0  0  0  0  0  0  0
  -17.4900  -12.6348   14.0446 C   0  0  0  0  0  0  0  0  0  0  0  0
  -20.4624  -16.8771   18.1724 C   0  0  0  0  0  0  0  0  0  0  0  0
  -19.5516  -16.3838   15.8930 C   0  0  0  0  0  0  0  0  0  0  0  0
  -21.4257  -15.0154   16.8084 C   0  0  0  0  0  0  0  0  0  0  0  0
  -15.9329  -10.9374   17.0728 C   0  0  0  0  0  0  0  0  0  0  0  0
  -14.9739  -22.3025   23.7314 C   0  0  0  0  0  0  0  0  0  0  0  0
  -15.3026  -21.3830   22.5548 C   0  0  0  0  0  0  0  0  0  0  0  0
  -14.5357  -23.6928   23.2819 C   0  0  0  0  0  0  0  0  0  0  0  0
  -15.7760  -20.0148   23.0292 C   0  0  0  0  0  0  0  0  0  1  0  0
  -19.1001  -14.7238   17.7562 C   0  0  1  0  0  0  0  0  0  0  0  0
  -17.4103  -12.1917   15.4972 C   0  0  2  0  0  0  0  0  0  0  0  0
  -20.1183  -15.7481   17.1805 C   0  0  0  0  0  0  0  0  0  0  0  0
  -20.8160  -24.1138   22.1931 N   0  0  0  0  0  0  0  0  0  0  0  0
  -29.0224  -19.9389   20.2490 N   0  0  0  0  0  0  0  0  0  0  0  0
  -29.0099  -21.2785   20.1424 N   0  0  0  0  0  0  0  0  0  0  0  0
  -19.8657  -14.9424   20.1030 N   0  0  0  0  0  0  0  0  0  0  0  0
  -28.1234  -23.3024   23.2571 N   0  0  0  0  0  0  0  0  0  0  0  0
  -28.7679  -23.0473   18.5856 N   0  0  0  0  0  0  0  0  0  0  0  0
  -29.5692  -20.5746   15.8219 N   0  0  0  0  0  0  0  0  0  0  0  0
  -26.8945  -25.1435   22.4430 N   0  0  0  0  0  0  0  0  0  0  0  0
  -22.1395  -12.9060   21.9314 N   0  0  0  0  0  0  0  0  0  0  0  0
  -18.7763  -13.6284   16.8486 N   0  0  0  0  0  0  0  0  0  0  0  0
  -15.5545  -24.3775   22.5345 N   0  0  0  0  0  0  0  0  0  0  0  0
  -16.1319  -11.4513   15.6932 N   0  3  0  0  0  0  0  0  0  0  0  0
  -27.3044  -20.5983   16.1804 O   0  0  0  0  0  0  0  0  0  0  0  0
  -22.4369  -14.7199   20.5018 O   0  0  0  0  0  0  0  0  0  0  0  0
  -19.7228  -12.8587   19.0788 O   0  0  0  0  0  0  0  0  0  0  0  0
  -16.4920  -14.0212   16.7806 O   0  0  0  0  0  0  0  0  0  0  0  0
  -27.8996  -25.2175   24.5325 O   0  0  0  0  0  0  0  0  0  0  0  0
  -16.6268  -25.4314   24.3028 O   0  0  0  0  0  0  0  0  0  0  0  0
  -22.6140  -29.8316   24.0629 O   0  0  0  0  0  0  0  0  0  0  0  0
  -22.3186  -29.7791   21.5617 O   0  0  0  0  0  0  0  0  0  0  0  0
  -28.6183  -14.0728   17.8041 O   0  0  0  0  0  0  0  0  0  0  0  0
  -16.0905  -19.1947   21.9046 O   0  0  0  0  0  0  0  0  0  1  0  0
  -17.3369  -25.6939   22.1345 O   0  0  0  0  0  0  0  0  0  0  0  0
  -30.4928  -10.5558   21.6148 F   0  0  0  0  0  0  0  0  0  0  0  0
  -30.7198  -12.3653   17.2468 F   0  0  0  0  0  0  0  0  0  0  0  0
  -22.4362  -29.0949   22.8310 S   0  0  0  0  0  0  0  0  0  0  0  0
  1 54  1  0  0  0  0
  1 72  3  0  0  0  0
  2  3  1  0  0  0  0
  2  6  2  0  0  0  0
  3  7  2  0  0  0  0
  4 11  2  0  0  0  0
  4 20  1  0  0  0  0
  5 12  1  0  0  0  0
  5 20  2  0  0  0  0
  6 22  1  0  0  0  0
  7 24  1  0  0  0  0
  8 13  2  0  0  0  0
  8 23  1  0  0  0  0
  9 16  2  0  0  0  0
  9 26  1  0  0  0  0
 10 17  1  0  0  0  0
 10 26  2  0  0  0  0
 11 27  1  0  0  0  0
 12 27  2  0  0  0  0
 13 28  1  0  0  0  0
 14 15  2  0  0  0  0
 14 29  1  0  0  0  0
 15 30  1  0  0  0  0
 16 32  1  0  0  0  0
 17 32  2  0  0  0  0
 18 25  1  0  0  0  0
 18 28  2  0  0  0  0
 19 30  2  0  0  0  0
 19 31  1  0  0  0  0
 20 33  1  0  0  0  0
 21 33  1  0  0  0  0
 21 34  2  0  0  0  0
 21 37  1  0  0  0  0
 22 24  2  0  0  0  0
 22 43  1  0  0  0  0
 23 25  2  0  0  0  0
 23 44  1  0  0  0  0
 24 55  1  0  0  0  0
 25 45  1  0  0  0  0
 26 79  1  0  0  0  0
 27 92  1  0  0  0  0
 28 93  1  0  0  0  0
 29 31  2  0  0  0  0
 29 92  1  0  0  0  0
 30 95  1  0  0  0  0
 31 96  1  0  0  0  0
 32 97  1  0  0  0  0
 33 73  2  0  0  0  0
 34 74  1  0  0  0  0
 34 77  1  0  0  0  0
 35 36  2  0  0  0  0
 35 46  1  0  0  0  0
 36 56  1  0  0  0  0
 37 78  1  0  0  0  0
 37 84  2  0  0  0  0
 38 57  1  0  0  0  0
 38 80  1  0  0  0  0
 38 85  2  0  0  0  0
 39 69  1  0  0  0  0
 39 75  1  0  0  0  0
 39 86  2  0  0  0  0
 40 70  1  0  0  0  0
 40 81  1  0  0  0  0
 40 87  2  0  0  0  0
 41 76  1  0  0  0  0
 41 79  1  0  0  0  0
 41 88  2  0  0  0  0
 42 82  1  0  0  0  0
 42 89  2  0  0  0  0
 42 94  1  0  0  0  0
 43 47  1  0  0  0  0
 44 57  1  0  0  0  0
 45 75  1  0  0  0  0
 46 59  1  0  0  0  0
 47 49  1  0  0  0  0
 48 50  1  0  0  0  0
 48 52  1  0  0  0  0
 49 55  1  0  0  0  0
 50 58  1  0  0  0  0
 51 54  1  0  0  0  0
 51 56  1  0  0  0  0
 52 76  1  0  0  0  0
 53 58  1  0  0  0  0
 53 76  1  0  0  0  0
 54 59  1  0  0  0  0
 55 80  1  0  0  0  0
 56 97  1  0  0  0  0
 57 75  1  0  0  0  0
 58 74  1  0  0  0  0
 59 94  1  0  0  0  0
 60 70  1  0  0  0  0
 61 71  1  0  0  0  0
 62 71  1  0  0  0  0
 63 71  1  0  0  0  0
 64 83  1  0  0  0  0
 65 66  1  0  0  0  0
 65 67  1  0  0  0  0
 66 68  1  0  0  0  0
 67 82  1  0  0  0  0
 68 93  1  0  0  0  0
 69 71  1  0  0  0  0
 69 81  1  0  0  0  0
 70 83  1  0  0  0  0
 73 74  1  0  0  0  0
 90 97  2  0  0  0  0
 91 97  2  0  0  0  0
M  CHG  1  83   1
M  ISO  4  41 100  68 101  79 100  93 101
M  END
> <Batch ID>
0005

> <Smiles>
CNC(C)C(=O)NC(C(=O)N1Cc2cc([101O:1][101CH2:1]CCCNC(=O)OC3CC=CC(S(=O)(=O)c4ccc([100NH:0][100C:0](=O)N5CCCC(n6nc(-c7ccc(Oc8ccc(F)cc8F)cc7)c(C(N)=O)c6N)C5)cc4)CC3C#N)ccc2CC1C(=O)NC1CCCc2ccccc21)C(C)(C)C

> <Shape>
0.198

> <Color>
0.094

> <Negative vol penalty>
0.000

$$$$

  -OEChem-04052315263D

 84 92  0     1  0  0  0  0  0999 V2000
  -38.1583  -29.2840   24.3759 C   0  0  0  0  0  0  0  0  0  0  0  0
  -37.1852  -28.4271   23.8720 C   0  0  0  0  0  0  0  0  0  0  0  0
  -23.3946   -9.7153   20.0083 C   0  0  0  0  0  0  0  0  0  0  0  0
  -23.9684   -9.9779   22.3404 C   0  0  0  0  0  0  0  0  0  0  0  0
  -37.7938  -30.3297   25.2231 C   0  0  0  0  0  0  0  0  0  0  0  0
  -35.8469  -28.6146   24.2158 C   0  0  0  0  0  0  0  0  0  0  0  0
  -32.7451  -28.2307   20.2313 C   0  0  0  0  0  0  0  0  0  0  0  0
  -30.4446  -18.4850   20.5867 C   0  0  0  0  0  0  0  0  0  0  0  0
  -30.4525  -19.8767   20.4948 C   0  0  0  0  0  0  0  0  0  0  0  0
  -22.7705   -8.5021   20.2984 C   0  0  0  0  0  0  0  0  0  0  0  0
  -23.3442   -8.7647   22.6306 C   0  0  0  0  0  0  0  0  0  0  0  0
  -32.4421  -26.9463   19.7817 C   0  0  0  0  0  0  0  0  0  0  0  0
  -20.1916   -7.6303   23.0721 C   0  0  0  0  0  0  0  0  0  0  0  0
  -19.3556   -7.5838   24.1877 C   0  0  0  0  0  0  0  0  0  0  0  0
  -30.3320  -27.0428   20.9468 C   0  0  0  0  0  0  0  0  0  0  0  0
  -28.6706  -18.6030   22.2226 C   0  0  0  0  0  0  0  0  0  0  0  0
  -20.7497   -5.8673   25.1609 C   0  0  0  0  0  0  0  0  0  0  0  0
  -23.9936  -10.4532   21.0293 C   0  0  0  0  0  0  0  0  0  0  0  0
  -24.0524  -12.9860   20.7306 C   0  0  0  0  0  0  0  0  0  0  0  0
  -36.4492  -30.5360   25.5698 C   0  0  0  0  0  0  0  0  0  0  0  0
  -31.8471  -28.9278   21.0523 C   0  0  0  0  0  0  0  0  0  0  0  0
  -35.4641  -29.6632   25.0695 C   0  0  0  0  0  0  0  0  0  0  0  0
  -30.6248  -28.3370   21.4033 C   0  0  0  0  0  0  0  0  0  0  0  0
  -29.5536  -17.8481   21.4506 C   0  0  0  0  0  0  0  0  0  0  0  0
  -29.5695  -20.6317   21.2668 C   0  0  0  0  0  0  0  0  0  0  0  0
  -22.7453   -8.0268   21.6095 C   0  0  0  0  0  0  0  0  0  0  0  0
  -31.2367  -26.3510   20.1418 C   0  0  0  0  0  0  0  0  0  0  0  0
  -21.3067   -6.7952   23.0009 C   0  0  0  0  0  0  0  0  0  0  0  0
  -28.6786  -19.9949   22.1307 C   0  0  0  0  0  0  0  0  0  0  0  0
  -19.6346   -6.7024   25.2321 C   0  0  0  0  0  0  0  0  0  0  0  0
  -21.5857   -5.9137   24.0453 C   0  0  0  0  0  0  0  0  0  0  0  0
  -24.6390  -11.7062   20.7302 C   0  0  0  0  0  0  0  0  0  0  0  0
  -25.0765  -13.8332   20.3841 C   0  0  0  0  0  0  0  0  0  0  0  0
  -22.7026  -13.3742   21.0185 C   0  0  0  0  0  0  0  0  0  0  0  0
  -31.9514  -30.0939   24.0075 C   0  0  0  0  0  0  0  0  0  0  0  0
  -29.0590  -31.3246   23.2063 C   0  0  0  0  0  0  0  0  0  0  0  0
  -30.4122  -22.8209   20.3552 C   0  0  0  0  0  0  0  0  0  0  0  0
  -26.2735  -31.1367   21.2435 C   0  0  0  0  0  0  0  0  0  0  0  0
  -30.3569  -15.5373   20.8492 C   0  0  0  0  0  0  0  0  0  0  0  0
  -36.1091  -31.6511   26.5266 C   0  0  0  0  0  0  0  0  0  0  0  0
  -32.1771  -30.3230   21.5070 C   0  0  0  0  0  0  0  0  0  0  0  0
  -29.6177  -29.0510   22.2661 C   0  0  0  0  0  0  0  0  0  0  0  0
  -34.6251  -32.0086   26.5426 C   0  0  0  0  0  0  0  0  0  0  0  0
  -29.7134  -12.8436   18.6116 C   0  0  0  0  0  0  0  0  0  0  0  0
  -33.7728  -30.7461   26.6227 C   0  0  0  0  0  0  0  0  0  0  0  0
  -28.2876  -12.4129   18.9633 C   0  0  0  0  0  0  0  0  0  0  0  0
  -30.5002  -13.2662   19.8510 C   0  0  0  0  0  0  0  0  0  0  0  0
  -28.4214  -13.8536   21.0354 C   0  0  0  0  0  0  0  0  0  0  0  0
  -33.9990  -29.8492   25.3996 C   0  0  1  0  0  0  0  0  0  0  0  0
  -31.4145  -30.7389   22.7611 C   0  0  1  0  0  0  0  0  0  0  0  0
  -27.5692  -13.4808   19.8112 C   0  0  2  0  0  0  0  0  0  0  0  0
  -25.6445  -21.7307   23.0106 C   0  0  0  0  0  0  0  0  0  0  0  0
  -24.0640  -32.2582   20.8467 C   0  0  0  0  0  0  0  0  0  0  0  0
  -27.9419  -30.0085   25.7223 C   0  0  0  0  0  0  0  0  0  0  0  0
  -25.6420  -30.3400   24.7904 C   0  0  0  0  0  0  0  0  0  0  0  0
  -27.0830  -32.3158   25.2827 C   0  0  0  0  0  0  0  0  0  0  0  0
  -26.9905  -31.8213   18.4549 C   0  0  0  0  0  0  0  0  0  0  0  0
  -30.1106  -24.2957   20.5466 C   0  0  0  0  0  0  0  0  0  1  0  0
  -26.4180  -20.4674   22.6987 C   0  0  0  0  0  0  0  0  0  0  0  0
  -27.6304  -30.8458   23.2999 C   0  0  1  0  0  0  0  0  0  0  0  0
  -25.5297  -32.1931   20.4466 C   0  0  2  0  0  0  0  0  0  0  0  0
  -27.0939  -30.8630   24.7591 C   0  0  0  0  0  0  0  0  0  0  0  0
  -25.9351  -11.7332   20.4088 N   0  0  0  0  0  0  0  0  0  0  0  0
  -26.1715  -13.0402   20.2039 N   0  0  0  0  0  0  0  0  0  0  0  0
  -29.9891  -30.4109   22.6907 N   0  0  0  0  0  0  0  0  0  0  0  0
  -29.7605  -14.2827   20.6023 N   0  0  0  0  0  0  0  0  0  0  0  0
  -25.1381  -15.1716   20.2190 N   0  0  0  0  0  0  0  0  0  0  0  0
  -21.7783  -12.3766   21.3574 N   0  0  0  0  0  0  0  0  0  0  0  0
  -29.5903  -22.0428   21.1633 N   0  0  0  0  0  0  0  0  0  0  0  0
  -29.5463  -16.4342   21.5443 N   0  0  0  0  0  0  0  0  0  0  0  0
  -33.2833  -30.3675   24.2535 N   0  0  0  0  0  0  0  0  0  0  0  0
  -26.8625  -31.6682   22.3712 N   0  0  0  0  0  0  0  0  0  0  0  0
  -25.6060  -31.8917   18.9891 N   0  3  0  0  0  0  0  0  0  0  0  0
  -22.3233  -14.5685   20.9604 O   0  0  0  0  0  0  0  0  0  0  0  0
  -31.2116  -29.4007   24.6959 O   0  0  0  0  0  0  0  0  0  0  0  0
  -29.3381  -32.4696   23.5704 O   0  0  0  0  0  0  0  0  0  0  0  0
  -31.2786  -22.4382   19.5758 O   0  0  0  0  0  0  0  0  0  0  0  0
  -26.3236  -29.9571   20.9019 O   0  0  0  0  0  0  0  0  0  0  0  0
  -31.4921  -15.8065   20.4482 O   0  0  0  0  0  0  0  0  0  0  0  0
  -22.1361   -6.8431   21.8930 O   0  0  0  0  0  0  0  0  0  0  0  0
  -30.9387  -25.0971   19.7049 O   0  0  0  0  0  0  0  0  0  1  0  0
  -27.8086  -20.7138   22.8952 O   0  0  0  0  0  0  0  0  0  0  0  0
  -18.8326   -6.6589   26.3040 F   0  0  0  0  0  0  0  0  0  0  0  0
  -22.6561   -5.1099   23.9830 F   0  0  0  0  0  0  0  0  0  0  0  0
  1  2  1  0  0  0  0
  1  5  2  0  0  0  0
  2  6  2  0  0  0  0
  3 10  2  0  0  0  0
  3 18  1  0  0  0  0
  4 11  1  0  0  0  0
  4 18  2  0  0  0  0
  5 20  1  0  0  0  0
  6 22  1  0  0  0  0
  7 12  2  0  0  0  0
  7 21  1  0  0  0  0
  8  9  2  0  0  0  0
  8 24  1  0  0  0  0
  9 25  1  0  0  0  0
 10 26  1  0  0  0  0
 11 26  2  0  0  0  0
 12 27  1  0  0  0  0
 13 14  2  0  0  0  0
 13 28  1  0  0  0  0
 14 30  1  0  0  0  0
 15 23  1  0  0  0  0
 15 27  2  0  0  0  0
 16 24  2  0  0  0  0
 16 29  1  0  0  0  0
 17 30  2  0  0  0  0
 17 31  1  0  0  0  0
 18 32  1  0  0  0  0
 19 32  1  0  0  0  0
 19 33  2  0  0  0  0
 19 34  1  0  0  0  0
 20 22  2  0  0  0  0
 20 40  1  0  0  0  0
 21 23  2  0  0  0  0
 21 41  1  0  0  0  0
 22 49  1  0  0  0  0
 23 42  1  0  0  0  0
 24 70  1  0  0  0  0
 25 29  2  0  0  0  0
 25 69  1  0  0  0  0
 26 80  1  0  0  0  0
 27 81  1  0  0  0  0
 28 31  2  0  0  0  0
 28 80  1  0  0  0  0
 29 82  1  0  0  0  0
 30 83  1  0  0  0  0
 31 84  1  0  0  0  0
 32 63  2  0  0  0  0
 33 64  1  0  0  0  0
 33 67  1  0  0  0  0
 34 68  1  0  0  0  0
 34 74  2  0  0  0  0
 35 50  1  0  0  0  0
 35 71  1  0  0  0  0
 35 75  2  0  0  0  0
 36 60  1  0  0  0  0
 36 65  1  0  0  0  0
 36 76  2  0  0  0  0
 37 58  1  0  0  0  0
 37 69  1  0  0  0  0
 37 77  2  0  0  0  0
 38 61  1  0  0  0  0
 38 72  1  0  0  0  0
 38 78  2  0  0  0  0
 39 66  1  0  0  0  0
 39 70  1  0  0  0  0
 39 79  2  0  0  0  0
 40 43  1  0  0  0  0
 41 50  1  0  0  0  0
 42 65  1  0  0  0  0
 43 45  1  0  0  0  0
 44 46  1  0  0  0  0
 44 47  1  0  0  0  0
 45 49  1  0  0  0  0
 46 51  1  0  0  0  0
 47 66  1  0  0  0  0
 48 51  1  0  0  0  0
 48 66  1  0  0  0  0
 49 71  1  0  0  0  0
 50 65  1  0  0  0  0
 51 64  1  0  0  0  0
 52 59  1  0  0  0  0
 53 61  1  0  0  0  0
 54 62  1  0  0  0  0
 55 62  1  0  0  0  0
 56 62  1  0  0  0  0
 57 73  1  0  0  0  0
 58 81  1  0  0  0  0
 59 82  1  0  0  0  0
 60 62  1  0  0  0  0
 60 72  1  0  0  0  0
 61 73  1  0  0  0  0
 63 64  1  0  0  0  0
M  CHG  1  73   1
M  ISO  4  39 100  58 101  70 100  81 101
M  END
> <Batch ID>
0005

> <Smiles>
CCOc1cc([100NH:0][100C:0](=O)N2CCCC(n3nc(-c4ccc(Oc5ccc(F)cc5F)cc4)c(C(N)=O)c3N)C2)ccc1NC(=O)[101CH2:1][101O:1]c1ccc2c(c1)CN(C(=O)C(NC(=O)C(C)NC)C(C)(C)C)C(C(=O)NC1CCCc3ccccc31)C2

> <Shape>
0.296

> <Color>
0.191

> <Negative vol penalty>
0.000

$$$$

  -OEChem-04052315263D

 98106  0     1  0  0  0  0  0999 V2000
  -27.0764  -25.4058   16.0998 C   0  0  0  0  0  0  0  0  0  0  0  0
  -25.8963  -25.8564   16.6826 C   0  0  0  0  0  0  0  0  0  0  0  0
  -26.5648  -14.9881   19.2820 C   0  0  0  0  0  0  0  0  0  0  0  0
  -28.4807  -14.4549   20.6538 C   0  0  0  0  0  0  0  0  0  0  0  0
  -28.2775  -25.4937   16.8023 C   0  0  0  0  0  0  0  0  0  0  0  0
  -25.9165  -26.3942   17.9690 C   0  0  0  0  0  0  0  0  0  0  0  0
  -23.1842  -30.6416   18.3417 C   0  0  0  0  0  0  0  0  0  0  0  0
  -28.0772  -20.7257   16.2935 C   0  0  0  0  0  0  0  0  0  0  0  0
  -26.0157  -13.7370   19.5626 C   0  0  0  0  0  0  0  0  0  0  0  0
  -27.9316  -13.2038   20.9346 C   0  0  0  0  0  0  0  0  0  0  0  0
  -21.7997  -30.5025   18.4294 C   0  0  0  0  0  0  0  0  0  0  0  0
  -27.1965  -20.3565   17.3102 C   0  0  0  0  0  0  0  0  0  0  0  0
  -24.3479  -12.2629   22.1079 C   0  0  0  0  0  0  0  0  0  0  0  0
  -22.9946  -12.2090   22.4416 C   0  0  0  0  0  0  0  0  0  0  0  0
  -21.9258  -30.8132   20.8182 C   0  0  0  0  0  0  0  0  0  0  0  0
  -26.2949  -18.6165   15.8972 C   0  0  0  0  0  0  0  0  0  0  0  0
  -22.5843  -10.7697   20.5450 C   0  0  0  0  0  0  0  0  0  0  0  0
  -27.7974  -15.3470   19.8275 C   0  0  0  0  0  0  0  0  0  0  0  0
  -28.1790  -17.8316   20.2619 C   0  0  0  0  0  0  0  0  0  0  0  0
  -28.3139  -26.0418   18.0942 C   0  0  0  0  0  0  0  0  0  0  0  0
  -23.9523  -30.8571   19.4950 C   0  0  0  0  0  0  0  0  0  0  0  0
  -27.1189  -26.4884   18.6901 C   0  0  0  0  0  0  0  0  0  0  0  0
  -23.3195  -30.9573   20.7422 C   0  0  0  0  0  0  0  0  0  0  0  0
  -27.1756  -18.9858   14.8805 C   0  0  0  0  0  0  0  0  0  0  0  0
  -28.0667  -20.0404   15.0786 C   0  0  0  0  0  0  0  0  0  0  0  0
  -26.6990  -12.8448   20.3889 C   0  0  0  0  0  0  0  0  0  0  0  0
  -21.1706  -30.5854   19.6681 C   0  0  0  0  0  0  0  0  0  0  0  0
  -26.3054  -19.3018   17.1121 C   0  0  0  0  0  0  0  0  0  0  0  0
  -24.8194  -11.5702   20.9927 C   0  0  0  0  0  0  0  0  0  0  0  0
  -22.1128  -11.4624   21.6601 C   0  0  0  0  0  0  0  0  0  0  0  0
  -23.9376  -10.8236   20.2113 C   0  0  0  0  0  0  0  0  0  0  0  0
  -28.3655  -16.6390   19.5375 C   0  0  0  0  0  0  0  0  0  0  0  0
  -28.9248  -18.7650   19.5844 C   0  0  0  0  0  0  0  0  0  0  0  0
  -27.4011  -18.0741   21.4416 C   0  0  0  0  0  0  0  0  0  0  0  0
  -26.2705  -29.2646   20.9760 C   0  0  0  0  0  0  0  0  0  0  0  0
  -26.3703  -31.9179   22.8395 C   0  0  0  0  0  0  0  0  0  0  0  0
  -24.7507  -34.6611   24.0637 C   0  0  0  0  0  0  0  0  0  0  0  0
  -30.2726  -19.8696   13.9384 C   0  0  0  0  0  0  0  0  0  0  0  0
  -18.1944  -26.1879   22.1149 C   0  0  0  0  0  0  0  0  0  0  0  0
  -29.6284  -26.0726   18.8329 C   0  0  0  0  0  0  0  0  0  0  0  0
  -25.4418  -31.0318   19.3803 C   0  0  0  0  0  0  0  0  0  0  0  0
  -24.0966  -31.2078   22.0079 C   0  0  0  0  0  0  0  0  0  0  0  0
  -29.6241  -26.9997   20.0457 C   0  0  0  0  0  0  0  0  0  0  0  0
  -32.6985  -18.5943   16.4080 C   0  0  0  0  0  0  0  0  0  0  0  0
  -28.3673  -26.7793   20.8816 C   0  0  0  0  0  0  0  0  0  0  0  0
  -31.8003  -18.0141   17.4992 C   0  0  0  0  0  0  0  0  0  0  0  0
  -32.0394  -18.5223   15.0337 C   0  0  0  0  0  0  0  0  0  0  0  0
  -29.7924  -18.5770   16.0721 C   0  0  0  0  0  0  0  0  0  0  0  0
  -27.1041  -27.1008   20.0738 C   0  0  1  0  0  0  0  0  0  0  0  0
  -26.1802  -30.7353   20.6819 C   0  0  1  0  0  0  0  0  0  0  0  0
  -30.4109  -18.6743   17.4749 C   0  0  1  0  0  0  0  0  0  0  0  0
  -27.8305  -16.8767   13.6933 C   0  0  0  0  0  0  0  0  0  0  0  0
  -25.0786  -36.6220   25.5948 C   0  0  0  0  0  0  0  0  0  0  0  0
  -26.0595  -30.0804   25.2554 C   0  0  0  0  0  0  0  0  0  0  0  0
  -25.4452  -32.0897   26.6169 C   0  0  0  0  0  0  0  0  0  0  0  0
  -27.7019  -31.9409   25.5643 C   0  0  0  0  0  0  0  0  0  0  0  0
  -24.3039  -36.5966   21.8699 C   0  0  0  0  0  0  0  0  0  0  0  0
  -27.1418  -18.2338   13.5896 C   0  0  0  0  0  0  0  0  0  0  0  0
  -21.6366  -21.9336   20.3265 C   0  0  0  0  0  0  0  0  0  0  0  0
  -21.8763  -20.4445   20.0609 C   0  0  0  0  0  0  0  0  0  0  0  0
  -20.5723  -22.1981   21.3948 C   0  0  0  0  0  0  0  0  0  0  0  0
  -22.9221  -20.1799   18.9751 C   0  0  0  0  0  0  0  0  0  0  0  0
  -20.3476  -23.7017   21.5893 C   0  0  0  0  0  0  0  0  0  0  0  0
  -23.1337  -18.6766   18.7664 C   0  0  0  0  0  0  0  0  0  0  0  0
  -17.9937  -29.1725   20.6581 C   0  0  0  0  0  0  0  0  0  0  0  0
  -19.3021  -24.0193   22.6599 C   0  0  0  0  0  0  0  0  0  0  0  0
  -17.3714  -28.5279   21.8893 C   0  0  0  0  0  0  0  0  0  0  0  0
  -28.4789  -21.2664   12.9377 C   0  0  0  0  0  0  0  0  0  0  0  0
  -24.1948  -18.3847   17.7122 C   0  0  0  0  0  0  0  0  0  0  0  0
  -19.2989  -29.8972   20.9639 C   0  0  0  0  0  0  0  0  0  1  0  0
  -28.8407  -22.7241   13.1267 C   0  0  0  0  0  0  0  0  0  0  0  0
  -25.6795  -32.3611   24.1065 C   0  0  1  0  0  0  0  0  0  0  0  0
  -25.1692  -36.1169   24.1633 C   0  0  2  0  0  0  0  0  0  0  0  0
  -26.2068  -31.6113   25.3624 C   0  0  0  0  0  0  0  0  0  0  0  0
  -29.1668  -16.7975   18.4808 N   0  0  0  0  0  0  0  0  0  0  0  0
  -29.4905  -18.1007   18.5361 N   0  0  0  0  0  0  0  0  0  0  0  0
  -25.5513  -31.3654   21.8446 N   0  0  0  0  0  0  0  0  0  0  0  0
  -30.7019  -19.1160   15.0493 N   0  0  0  0  0  0  0  0  0  0  0  0
  -29.1454  -20.0810   19.7891 N   0  0  0  0  0  0  0  0  0  0  0  0
  -26.6962  -17.0037   22.0088 N   0  0  0  0  0  0  0  0  0  0  0  0
  -26.9070  -28.5322   19.9922 N   0  0  0  0  0  0  0  0  0  0  0  0
  -25.8311  -33.8107   24.1684 N   0  0  0  0  0  0  0  0  0  0  0  0
  -19.1215  -25.4549   22.8373 N   0  0  0  0  0  0  0  0  0  0  0  0
  -18.2317  -27.5309   22.4816 N   0  0  0  0  0  0  0  0  0  0  0  0
  -28.9848  -20.4394   14.0381 N   0  0  0  0  0  0  0  0  0  0  0  0
  -24.2934  -36.9673   23.3084 N   0  3  0  0  0  0  0  0  0  0  0  0
  -27.3200  -19.2100   21.9676 O   0  0  0  0  0  0  0  0  0  0  0  0
  -25.7990  -28.8269   22.0190 O   0  0  0  0  0  0  0  0  0  0  0  0
  -27.5907  -32.0633   22.7335 O   0  0  0  0  0  0  0  0  0  0  0  0
  -23.5818  -34.3129   23.9121 O   0  0  0  0  0  0  0  0  0  0  0  0
  -30.9948  -20.0437   12.9496 O   0  0  0  0  0  0  0  0  0  0  0  0
  -17.4374  -25.7225   21.2641 O   0  0  0  0  0  0  0  0  0  0  0  0
  -26.1633  -11.6240   20.6632 O   0  0  0  0  0  0  0  0  0  0  0  0
  -19.8098  -30.4483   19.7572 O   0  0  0  0  0  0  0  0  0  1  0  0
  -25.4402  -18.9385   18.1117 O   0  0  0  0  0  0  0  0  0  0  0  0
  -20.8135  -11.4095   21.9816 F   0  0  0  0  0  0  0  0  0  0  0  0
  -24.3848  -10.1551   19.1395 F   0  0  0  0  0  0  0  0  0  0  0  0
  -30.1939  -22.8369   13.2107 F   0  0  0  0  0  0  0  0  0  0  0  0
  1  2  1  0  0  0  0
  1  5  2  0  0  0  0
  2  6  2  0  0  0  0
  3  9  2  0  0  0  0
  3 18  1  0  0  0  0
  4 10  1  0  0  0  0
  4 18  2  0  0  0  0
  5 20  1  0  0  0  0
  6 22  1  0  0  0  0
  7 11  2  0  0  0  0
  7 21  1  0  0  0  0
  8 12  2  0  0  0  0
  8 25  1  0  0  0  0
  9 26  1  0  0  0  0
 10 26  2  0  0  0  0
 11 27  1  0  0  0  0
 12 28  1  0  0  0  0
 13 14  2  0  0  0  0
 13 29  1  0  0  0  0
 14 30  1  0  0  0  0
 15 23  1  0  0  0  0
 15 27  2  0  0  0  0
 16 24  1  0  0  0  0
 16 28  2  0  0  0  0
 17 30  2  0  0  0  0
 17 31  1  0  0  0  0
 18 32  1  0  0  0  0
 19 32  1  0  0  0  0
 19 33  2  0  0  0  0
 19 34  1  0  0  0  0
 20 22  2  0  0  0  0
 20 40  1  0  0  0  0
 21 23  2  0  0  0  0
 21 41  1  0  0  0  0
 22 49  1  0  0  0  0
 23 42  1  0  0  0  0
 24 25  2  0  0  0  0
 24 58  1  0  0  0  0
 25 85  1  0  0  0  0
 26 93  1  0  0  0  0
 27 94  1  0  0  0  0
 28 95  1  0  0  0  0
 29 31  2  0  0  0  0
 29 93  1  0  0  0  0
 30 96  1  0  0  0  0
 31 97  1  0  0  0  0
 32 75  2  0  0  0  0
 33 76  1  0  0  0  0
 33 79  1  0  0  0  0
 34 80  1  0  0  0  0
 34 87  2  0  0  0  0
 35 50  1  0  0  0  0
 35 81  1  0  0  0  0
 35 88  2  0  0  0  0
 36 72  1  0  0  0  0
 36 77  1  0  0  0  0
 36 89  2  0  0  0  0
 37 73  1  0  0  0  0
 37 82  1  0  0  0  0
 37 90  2  0  0  0  0
 38 78  1  0  0  0  0
 38 85  1  0  0  0  0
 38 91  2  0  0  0  0
 39 83  1  0  0  0  0
 39 84  1  0  0  0  0
 39 92  2  0  0  0  0
 40 43  1  0  0  0  0
 41 50  1  0  0  0  0
 42 77  1  0  0  0  0
 43 45  1  0  0  0  0
 44 46  1  0  0  0  0
 44 47  1  0  0  0  0
 45 49  1  0  0  0  0
 46 51  1  0  0  0  0
 47 78  1  0  0  0  0
 48 51  1  0  0  0  0
 48 78  1  0  0  0  0
 49 81  1  0  0  0  0
 50 77  1  0  0  0  0
 51 76  1  0  0  0  0
 52 58  1  0  0  0  0
 53 73  1  0  0  0  0
 54 74  1  0  0  0  0
 55 74  1  0  0  0  0
 56 74  1  0  0  0  0
 57 86  1  0  0  0  0
 59 60  1  0  0  0  0
 59 61  1  0  0  0  0
 60 62  1  0  0  0  0
 61 63  1  0  0  0  0
 62 64  1  0  0  0  0
 63 66  1  0  0  0  0
 64 69  1  0  0  0  0
 65 67  1  0  0  0  0
 65 70  1  0  0  0  0
 66 83  1  0  0  0  0
 67 84  1  0  0  0  0
 68 71  1  0  0  0  0
 68 85  1  0  0  0  0
 69 95  1  0  0  0  0
 70 94  1  0  0  0  0
 71 98  1  0  0  0  0
 72 74  1  0  0  0  0
 72 82  1  0  0  0  0
 73 86  1  0  0  0  0
 75 76  1  0  0  0  0
M  CHG  1  86   1
M  ISO  4  38 100  70 101  85 100  94 101
M  END
> <Batch ID>
0005

> <Smiles>
CCc1cc(OCCCCCCCCNC(=O)NCC[101CH2:1][101O:1]c2ccc3c(c2)CN(C(=O)C(NC(=O)C(C)NC)C(C)(C)C)C(C(=O)NC2CCCc4ccccc42)C3)ccc1[100N:0](CCF)[100C:0](=O)N1CCCC(n2nc(-c3ccc(Oc4ccc(F)cc4F)cc3)c(C(N)=O)c2N)C1

> <Shape>
0.291

> <Color>
0.071

> <Negative vol penalty>
0.000

$$$$

  -OEChem-04052315263D

 92101  0     1  0  0  0  0  0999 V2000
  -17.0435  -32.5188   21.7579 C   0  0  0  0  0  0  0  0  0  0  0  0
  -18.3537  -32.8568   22.0814 C   0  0  0  0  0  0  0  0  0  0  0  0
  -21.7950   -9.7357   20.9827 C   0  0  0  0  0  0  0  0  0  0  0  0
  -23.7357  -11.0879   21.4748 C   0  0  0  0  0  0  0  0  0  0  0  0
  -16.5791  -31.2260   21.9966 C   0  0  0  0  0  0  0  0  0  0  0  0
  -19.1999  -31.9025   22.6448 C   0  0  0  0  0  0  0  0  0  0  0  0
  -26.1857  -29.3675   20.2364 C   0  0  0  0  0  0  0  0  0  0  0  0
  -26.4159  -20.5771   19.4996 C   0  0  0  0  0  0  0  0  0  0  0  0
  -25.2870  -19.8152   19.1987 C   0  0  0  0  0  0  0  0  0  0  0  0
  -22.5763   -8.5834   21.0678 C   0  0  0  0  0  0  0  0  0  0  0  0
  -24.5171   -9.9356   21.5600 C   0  0  0  0  0  0  0  0  0  0  0  0
  -27.3544  -28.7262   19.8254 C   0  0  0  0  0  0  0  0  0  0  0  0
  -23.9859   -5.2621   21.5116 C   0  0  0  0  0  0  0  0  0  0  0  0
  -23.4703   -4.1802   22.2252 C   0  0  0  0  0  0  0  0  0  0  0  0
  -26.6944  -26.7321   21.0235 C   0  0  0  0  0  0  0  0  0  0  0  0
  -26.4613  -19.6320   21.7226 C   0  0  0  0  0  0  0  0  0  0  0  0
  -23.3601   -5.5455   24.2154 C   0  0  0  0  0  0  0  0  0  0  0  0
  -22.3747  -10.9880   21.1861 C   0  0  0  0  0  0  0  0  0  0  0  0
  -20.4446  -12.5045   21.8808 C   0  0  0  0  0  0  0  0  0  0  0  0
  -17.4230  -30.2526   22.5543 C   0  0  0  0  0  0  0  0  0  0  0  0
  -25.2584  -28.6874   21.0308 C   0  0  0  0  0  0  0  0  0  0  0  0
  -18.7460  -30.5958   22.8924 C   0  0  0  0  0  0  0  0  0  0  0  0
  -25.5160  -27.3650   21.4280 C   0  0  0  0  0  0  0  0  0  0  0  0
  -27.0031  -20.4855   20.7615 C   0  0  0  0  0  0  0  0  0  0  0  0
  -24.7451  -18.9617   20.1597 C   0  0  0  0  0  0  0  0  0  0  0  0
  -23.9373   -8.6833   21.3564 C   0  0  0  0  0  0  0  0  0  0  0  0
  -27.6083  -27.4119   20.2182 C   0  0  0  0  0  0  0  0  0  0  0  0
  -24.1887   -6.4857   22.1499 C   0  0  0  0  0  0  0  0  0  0  0  0
  -25.3323  -18.8701   21.4217 C   0  0  0  0  0  0  0  0  0  0  0  0
  -23.1574   -4.3219   23.5771 C   0  0  0  0  0  0  0  0  0  0  0  0
  -23.8758   -6.6274   23.5018 C   0  0  0  0  0  0  0  0  0  0  0  0
  -21.5683  -12.1788   21.0978 C   0  0  0  0  0  0  0  0  0  0  0  0
  -20.0410  -13.7298   21.4092 C   0  0  0  0  0  0  0  0  0  0  0  0
  -19.8214  -11.7657   22.9397 C   0  0  0  0  0  0  0  0  0  0  0  0
  -28.8102  -22.1534   20.2353 C   0  0  0  0  0  0  0  0  0  0  0  0
  -21.9657  -28.7842   22.8266 C   0  0  0  0  0  0  0  0  0  0  0  0
  -30.2595  -24.9743   19.6728 C   0  0  0  0  0  0  0  0  0  0  0  0
  -22.1856  -26.0188   21.5172 C   0  0  0  0  0  0  0  0  0  0  0  0
  -21.5905  -23.0058   20.0323 C   0  0  0  0  0  0  0  0  0  0  0  0
  -22.9025  -18.1790   18.6305 C   0  0  0  0  0  0  0  0  0  0  0  0
  -16.8620  -28.8816   22.8376 C   0  0  0  0  0  0  0  0  0  0  0  0
  -24.0153  -29.3592   21.5478 C   0  0  0  0  0  0  0  0  0  0  0  0
  -24.5065  -26.6843   22.3114 C   0  0  0  0  0  0  0  0  0  0  0  0
  -17.9344  -27.8252   23.0912 C   0  0  0  0  0  0  0  0  0  0  0  0
  -31.8961  -21.6759   19.9879 C   0  0  0  0  0  0  0  0  0  0  0  0
  -20.0567  -16.4036   17.4362 C   0  0  0  0  0  0  0  0  0  0  0  0
  -18.9866  -28.3545   24.0604 C   0  0  0  0  0  0  0  0  0  0  0  0
  -31.0382  -21.7205   21.2511 C   0  0  0  0  0  0  0  0  0  0  0  0
  -20.0155  -15.1513   18.3150 C   0  0  0  0  0  0  0  0  0  0  0  0
  -31.8819  -23.1134   19.4957 C   0  0  0  0  0  0  0  0  0  0  0  0
  -21.4895  -16.8177   17.1056 C   0  0  0  0  0  0  0  0  0  0  0  0
  -22.3324  -15.7245   19.1461 C   0  0  0  0  0  0  0  0  0  0  0  0
  -19.7018  -29.5815   23.4821 C   0  0  1  0  0  0  0  0  0  0  0  0
  -29.9823  -22.7742   20.9341 C   0  0  1  0  0  0  0  0  0  0  0  0
  -22.8106  -28.4061   21.6456 C   0  0  1  0  0  0  0  0  0  0  0  0
  -20.9118  -15.3064   19.5593 C   0  0  2  0  0  0  0  0  0  0  0  0
  -20.2879  -20.8827   20.3370 C   0  0  0  0  0  0  0  0  0  0  0  0
  -25.8838  -17.2236   24.3672 C   0  0  0  0  0  0  0  0  0  0  0  0
  -25.0603  -15.6607   22.5697 C   0  0  0  0  0  0  0  0  0  0  0  0
  -24.1768  -25.1061   23.6400 C   0  0  0  0  0  0  0  0  0  0  0  0
  -23.4457  -22.7503   23.2114 C   0  0  0  0  0  0  0  0  0  0  0  0
  -21.8088  -24.4258   24.0692 C   0  0  0  0  0  0  0  0  0  0  0  0
  -20.0883  -23.4300   17.5179 C   0  0  0  0  0  0  0  0  0  0  0  0
  -28.9477  -25.4465   20.2467 C   0  0  0  0  0  0  0  0  0  1  0  0
  -22.5938  -24.5755   21.6705 C   0  0  1  0  0  0  0  0  0  0  0  0
  -20.2976  -22.2734   19.7218 C   0  0  2  0  0  0  0  0  0  0  0  0
  -25.6742  -17.0186   22.8746 C   0  0  0  0  0  0  0  0  0  0  0  0
  -23.0163  -24.2305   23.1266 C   0  0  0  0  0  0  0  0  0  0  0  0
  -21.8598  -13.1210   20.1970 N   0  0  0  0  0  0  0  0  0  0  0  0
  -20.9133  -14.0508   20.4110 N   0  0  0  0  0  0  0  0  0  0  0  0
  -23.1448  -26.9854   21.8428 N   0  0  0  0  0  0  0  0  0  0  0  0
  -30.6342  -23.6786   19.9913 N   0  0  0  0  0  0  0  0  0  0  0  0
  -22.2780  -16.9493   18.3327 N   0  0  0  0  0  0  0  0  0  0  0  0
  -19.0286  -14.5530   21.7550 N   0  0  0  0  0  0  0  0  0  0  0  0
  -20.3645  -10.5242   23.2978 N   0  0  0  0  0  0  0  0  0  0  0  0
  -28.1480  -21.2591   21.0668 N   0  0  0  0  0  0  0  0  0  0  0  0
  -23.5975  -18.1949   19.8394 N   0  0  0  0  0  0  0  0  0  0  0  0
  -20.6826  -29.1775   22.4976 N   0  0  0  0  0  0  0  0  0  0  0  0
  -21.4789  -23.7803   21.1676 N   0  0  0  0  0  0  0  0  0  0  0  0
  -20.1206  -22.1368   18.2484 N   0  3  0  0  0  0  0  0  0  0  0  0
  -18.8030  -12.1861   23.5393 O   0  0  0  0  0  0  0  0  0  0  0  0
  -28.5376  -22.4542   19.0777 O   0  0  0  0  0  0  0  0  0  0  0  0
  -22.4414  -28.7225   23.9543 O   0  0  0  0  0  0  0  0  0  0  0  0
  -30.9323  -25.7279   18.9661 O   0  0  0  0  0  0  0  0  0  0  0  0
  -21.0460  -26.2849   21.1250 O   0  0  0  0  0  0  0  0  0  0  0  0
  -22.5998  -22.8985   19.3392 O   0  0  0  0  0  0  0  0  0  0  0  0
  -22.8038  -19.1549   17.8823 O   0  0  0  0  0  0  0  0  0  0  0  0
  -24.7000   -7.5590   21.4398 O   0  0  0  0  0  0  0  0  0  0  0  0
  -28.7491  -26.7903   19.8096 O   0  0  0  0  0  0  0  0  0  1  0  0
  -24.8177  -18.0437   22.3759 O   0  0  0  0  0  0  0  0  0  0  0  0
  -22.6608   -3.2833   24.2619 F   0  0  0  0  0  0  0  0  0  0  0  0
  -24.0673   -7.8008   24.1201 F   0  0  0  0  0  0  0  0  0  0  0  0
  1  2  1  0  0  0  0
  1  5  2  0  0  0  0
  2  6  2  0  0  0  0
  3 10  2  0  0  0  0
  3 18  1  0  0  0  0
  4 11  1  0  0  0  0
  4 18  2  0  0  0  0
  5 20  1  0  0  0  0
  6 22  1  0  0  0  0
  7 12  2  0  0  0  0
  7 21  1  0  0  0  0
  8  9  2  0  0  0  0
  8 24  1  0  0  0  0
  9 25  1  0  0  0  0
 10 26  1  0  0  0  0
 11 26  2  0  0  0  0
 12 27  1  0  0  0  0
 13 14  2  0  0  0  0
 13 28  1  0  0  0  0
 14 30  1  0  0  0  0
 15 23  1  0  0  0  0
 15 27  2  0  0  0  0
 16 24  2  0  0  0  0
 16 29  1  0  0  0  0
 17 30  2  0  0  0  0
 17 31  1  0  0  0  0
 18 32  1  0  0  0  0
 19 32  1  0  0  0  0
 19 33  2  0  0  0  0
 19 34  1  0  0  0  0
 20 22  2  0  0  0  0
 20 41  1  0  0  0  0
 21 23  2  0  0  0  0
 21 42  1  0  0  0  0
 22 53  1  0  0  0  0
 23 43  1  0  0  0  0
 24 76  1  0  0  0  0
 25 29  2  0  0  0  0
 25 77  1  0  0  0  0
 26 88  1  0  0  0  0
 27 89  1  0  0  0  0
 28 31  2  0  0  0  0
 28 88  1  0  0  0  0
 29 90  1  0  0  0  0
 30 91  1  0  0  0  0
 31 92  1  0  0  0  0
 32 69  2  0  0  0  0
 33 70  1  0  0  0  0
 33 74  1  0  0  0  0
 34 75  1  0  0  0  0
 34 81  2  0  0  0  0
 35 54  1  0  0  0  0
 35 76  1  0  0  0  0
 35 82  2  0  0  0  0
 36 55  1  0  0  0  0
 36 78  1  0  0  0  0
 36 83  2  0  0  0  0
 37 64  1  0  0  0  0
 37 72  1  0  0  0  0
 37 84  2  0  0  0  0
 38 65  1  0  0  0  0
 38 71  1  0  0  0  0
 38 85  2  0  0  0  0
 39 66  1  0  0  0  0
 39 79  1  0  0  0  0
 39 86  2  0  0  0  0
 40 73  1  0  0  0  0
 40 77  1  0  0  0  0
 40 87  2  0  0  0  0
 41 44  1  0  0  0  0
 42 55  1  0  0  0  0
 43 71  1  0  0  0  0
 44 47  1  0  0  0  0
 45 48  1  0  0  0  0
 45 50  1  0  0  0  0
 46 49  1  0  0  0  0
 46 51  1  0  0  0  0
 47 53  1  0  0  0  0
 48 54  1  0  0  0  0
 49 56  1  0  0  0  0
 50 72  1  0  0  0  0
 51 73  1  0  0  0  0
 52 56  1  0  0  0  0
 52 73  1  0  0  0  0
 53 78  1  0  0  0  0
 54 72  1  0  0  0  0
 55 71  1  0  0  0  0
 56 70  1  0  0  0  0
 57 66  1  0  0  0  0
 58 67  1  0  0  0  0
 59 67  1  0  0  0  0
 60 68  1  0  0  0  0
 61 68  1  0  0  0  0
 62 68  1  0  0  0  0
 63 80  1  0  0  0  0
 64 89  1  0  0  0  0
 65 68  1  0  0  0  0
 65 79  1  0  0  0  0
 66 80  1  0  0  0  0
 67 90  1  0  0  0  0
 69 70  1  0  0  0  0
M  CHG  1  80   1
M  ISO  4  40 100  64 101  77 100  89 101
M  END
> <Batch ID>
0005

> <Smiles>
CNC(C)C(=O)NC(C(=O)N1Cc2cc([101O:1][101CH2:1]C(=O)N3CCCC3C(=O)Nc3ccc([100NH:0][100C:0](=O)N4CCCC(n5nc(-c6ccc(Oc7ccc(F)cc7F)cc6)c(C(N)=O)c5N)C4)c(OC(C)C)c3)ccc2CC1C(=O)NC1CCCc2ccccc21)C(C)(C)C

> <Shape>
0.200

> <Color>
0.092

> <Negative vol penalty>
0.000

$$$$

  -OEChem-04052315263D

 88 96  0     1  0  0  0  0  0999 V2000
  -31.3229  -24.4780   17.4506 C   0  0  0  0  0  0  0  0  0  0  0  0
  -29.9634  -24.5377   17.7396 C   0  0  0  0  0  0  0  0  0  0  0  0
  -24.5531   -9.1903   21.8758 C   0  0  0  0  0  0  0  0  0  0  0  0
  -22.7629  -10.2633   20.6589 C   0  0  0  0  0  0  0  0  0  0  0  0
  -32.2508  -24.9805   18.3619 C   0  0  0  0  0  0  0  0  0  0  0  0
  -29.5310  -25.0989   18.9406 C   0  0  0  0  0  0  0  0  0  0  0  0
  -25.5967  -28.2261   18.3183 C   0  0  0  0  0  0  0  0  0  0  0  0
  -23.6194   -8.4254   22.5750 C   0  0  0  0  0  0  0  0  0  0  0  0
  -21.8292   -9.4984   21.3580 C   0  0  0  0  0  0  0  0  0  0  0  0
  -24.3415  -27.6439   18.1468 C   0  0  0  0  0  0  0  0  0  0  0  0
  -21.7403   -5.6697   22.0201 C   0  0  0  0  0  0  0  0  0  0  0  0
  -21.9993   -4.3072   22.1686 C   0  0  0  0  0  0  0  0  0  0  0  0
  -23.8355  -28.0657   20.4674 C   0  0  0  0  0  0  0  0  0  0  0  0
  -24.4211  -19.5698   20.1199 C   0  0  0  0  0  0  0  0  0  0  0  0
  -22.1313  -19.1992   18.5700 C   0  0  0  0  0  0  0  0  0  0  0  0
  -21.9857   -4.5664   24.5706 C   0  0  0  0  0  0  0  0  0  0  0  0
  -24.1248  -10.1093   20.9179 C   0  0  0  0  0  0  0  0  0  0  0  0
  -25.7181  -10.5719   18.9800 C   0  0  0  0  0  0  0  0  0  0  0  0
  -31.8291  -25.5570   19.5703 C   0  0  0  0  0  0  0  0  0  0  0  0
  -25.9855  -28.7234   19.5704 C   0  0  0  0  0  0  0  0  0  0  0  0
  -30.4542  -25.6084   19.8695 C   0  0  0  0  0  0  0  0  0  0  0  0
  -25.0952  -28.6560   20.6516 C   0  0  0  0  0  0  0  0  0  0  0  0
  -24.2182  -18.3615   19.4533 C   0  0  0  0  0  0  0  0  0  0  0  0
  -22.3342  -20.4075   19.2367 C   0  0  0  0  0  0  0  0  0  0  0  0
  -22.2575   -8.5794   22.3161 C   0  0  0  0  0  0  0  0  0  0  0  0
  -23.4618  -27.5610   19.2222 C   0  0  0  0  0  0  0  0  0  0  0  0
  -21.6040   -6.4806   23.1469 C   0  0  0  0  0  0  0  0  0  0  0  0
  -23.4790  -20.5928   20.0117 C   0  0  0  0  0  0  0  0  0  0  0  0
  -22.1219   -3.7555   23.4438 C   0  0  0  0  0  0  0  0  0  0  0  0
  -21.7267   -5.9289   24.4222 C   0  0  0  0  0  0  0  0  0  0  0  0
  -23.0733  -18.1762   18.6784 C   0  0  0  0  0  0  0  0  0  0  0  0
  -25.0887  -10.9002   20.1957 C   0  0  0  0  0  0  0  0  0  0  0  0
  -26.5372  -11.6426   18.7173 C   0  0  0  0  0  0  0  0  0  0  0  0
  -25.5749   -9.4036   18.1614 C   0  0  0  0  0  0  0  0  0  0  0  0
  -28.2998  -28.0343   21.6376 C   0  0  0  0  0  0  0  0  0  0  0  0
  -27.1530  -30.6397   23.1929 C   0  0  0  0  0  0  0  0  0  0  0  0
  -21.0492  -24.9811   18.4876 C   0  0  0  0  0  0  0  0  0  0  0  0
  -24.5298  -32.7428   23.7782 C   0  0  0  0  0  0  0  0  0  0  0  0
  -26.3765  -17.3960   20.3228 C   0  0  0  0  0  0  0  0  0  0  0  0
  -32.8717  -26.0440   20.5451 C   0  0  0  0  0  0  0  0  0  0  0  0
  -27.3327  -29.3726   19.7324 C   0  0  0  0  0  0  0  0  0  0  0  0
  -25.4567  -29.1935   22.0113 C   0  0  0  0  0  0  0  0  0  0  0  0
  -32.3112  -26.9620   21.6284 C   0  0  0  0  0  0  0  0  0  0  0  0
  -29.0201  -15.0893   20.9287 C   0  0  0  0  0  0  0  0  0  0  0  0
  -31.0349  -26.3724   22.2200 C   0  0  0  0  0  0  0  0  0  0  0  0
  -28.3708  -13.7236   20.6929 C   0  0  0  0  0  0  0  0  0  0  0  0
  -28.0535  -16.0703   21.5897 C   0  0  0  0  0  0  0  0  0  0  0  0
  -26.1141  -14.8610   20.6701 C   0  0  0  0  0  0  0  0  0  0  0  0
  -29.9447  -26.2321   21.1507 C   0  0  1  0  0  0  0  0  0  0  0  0
  -27.8214  -29.3824   21.1776 C   0  0  1  0  0  0  0  0  0  0  0  0
  -27.0288  -13.8589   19.9471 C   0  0  2  0  0  0  0  0  0  0  0  0
  -23.8832  -34.7574   25.1277 C   0  0  0  0  0  0  0  0  0  0  0  0
  -26.9087  -28.8913   25.6816 C   0  0  0  0  0  0  0  0  0  0  0  0
  -25.4137  -30.6363   26.6757 C   0  0  0  0  0  0  0  0  0  0  0  0
  -27.7771  -31.1975   26.1080 C   0  0  0  0  0  0  0  0  0  0  0  0
  -21.5478  -23.6976   16.4004 C   0  0  0  0  0  0  0  0  0  0  0  0
  -23.9944  -34.3435   21.3471 C   0  0  0  0  0  0  0  0  0  0  0  0
  -24.4108  -22.7805   19.9700 C   0  0  0  0  0  0  0  0  0  0  0  0
  -22.1239  -25.9646   18.0745 C   0  0  0  0  0  0  0  0  0  1  0  0
  -20.4203  -21.4927   18.0598 C   0  0  0  0  0  0  0  0  0  0  0  0
  -19.8077  -22.8780   17.9394 C   0  0  0  0  0  0  0  0  0  0  0  0
  -26.0974  -30.8778   24.2456 C   0  0  1  0  0  0  0  0  0  0  0  0
  -24.4397  -34.2580   23.8034 C   0  0  2  0  0  0  0  0  0  0  0  0
  -26.5428  -30.3888   25.6527 C   0  0  0  0  0  0  0  0  0  0  0  0
  -25.4751  -12.0866   20.6724 N   0  0  0  0  0  0  0  0  0  0  0  0
  -26.3561  -12.5131   19.7516 N   0  0  0  0  0  0  0  0  0  0  0  0
  -26.7876  -29.8133   22.1209 N   0  0  0  0  0  0  0  0  0  0  0  0
  -26.8065  -16.1499   20.8259 N   0  0  0  0  0  0  0  0  0  0  0  0
  -27.3877  -11.9150   17.7049 N   0  0  0  0  0  0  0  0  0  0  0  0
  -24.6905   -8.3996   18.5787 N   0  0  0  0  0  0  0  0  0  0  0  0
  -25.1945  -17.3430   19.5847 N   0  0  0  0  0  0  0  0  0  0  0  0
  -21.3882  -21.4177   19.1210 N   0  0  0  0  0  0  0  0  0  0  0  0
  -29.3333  -27.5158   20.8809 N   0  0  0  0  0  0  0  0  0  0  0  0
  -25.7709  -32.2982   24.1824 N   0  0  0  0  0  0  0  0  0  0  0  0
  -20.8118  -23.8964   17.6428 N   0  0  0  0  0  0  0  0  0  0  0  0
  -23.5526  -34.7424   22.7082 N   0  3  0  0  0  0  0  0  0  0  0  0
  -26.2247   -9.2470   17.0998 O   0  0  0  0  0  0  0  0  0  0  0  0
  -27.7715  -27.5046   22.6081 O   0  0  0  0  0  0  0  0  0  0  0  0
  -28.2586  -31.1734   23.3137 O   0  0  0  0  0  0  0  0  0  0  0  0
  -20.4422  -25.1755   19.5453 O   0  0  0  0  0  0  0  0  0  0  0  0
  -23.5917  -32.0253   23.4380 O   0  0  0  0  0  0  0  0  0  0  0  0
  -27.0245  -18.4293   20.5083 O   0  0  0  0  0  0  0  0  0  0  0  0
  -21.3461   -7.8330   22.9979 O   0  0  0  0  0  0  0  0  0  0  0  0
  -23.6953  -21.7658   20.6713 O   0  0  0  0  0  0  0  0  0  0  0  0
  -22.2363  -26.9927   19.0577 O   0  0  0  0  0  0  0  0  0  1  0  0
  -22.3691   -2.4468   23.5863 F   0  0  0  0  0  0  0  0  0  0  0  0
  -21.5957   -6.7027   25.5084 F   0  0  0  0  0  0  0  0  0  0  0  0
  -22.7827  -16.6956   17.8366 Cl  0  0  0  0  0  0  0  0  0  0  0  0
  1  2  1  0  0  0  0
  1  5  2  0  0  0  0
  2  6  2  0  0  0  0
  3  8  2  0  0  0  0
  3 17  1  0  0  0  0
  4  9  1  0  0  0  0
  4 17  2  0  0  0  0
  5 19  1  0  0  0  0
  6 21  1  0  0  0  0
  7 10  2  0  0  0  0
  7 20  1  0  0  0  0
  8 25  1  0  0  0  0
  9 25  2  0  0  0  0
 10 26  1  0  0  0  0
 11 12  2  0  0  0  0
 11 27  1  0  0  0  0
 12 29  1  0  0  0  0
 13 22  1  0  0  0  0
 13 26  2  0  0  0  0
 14 23  2  0  0  0  0
 14 28  1  0  0  0  0
 15 24  1  0  0  0  0
 15 31  2  0  0  0  0
 16 29  2  0  0  0  0
 16 30  1  0  0  0  0
 17 32  1  0  0  0  0
 18 32  1  0  0  0  0
 18 33  2  0  0  0  0
 18 34  1  0  0  0  0
 19 21  2  0  0  0  0
 19 40  1  0  0  0  0
 20 22  2  0  0  0  0
 20 41  1  0  0  0  0
 21 49  1  0  0  0  0
 22 42  1  0  0  0  0
 23 31  1  0  0  0  0
 23 71  1  0  0  0  0
 24 28  2  0  0  0  0
 24 72  1  0  0  0  0
 25 83  1  0  0  0  0
 26 85  1  0  0  0  0
 27 30  2  0  0  0  0
 27 83  1  0  0  0  0
 28 84  1  0  0  0  0
 29 86  1  0  0  0  0
 30 87  1  0  0  0  0
 31 88  1  0  0  0  0
 32 65  2  0  0  0  0
 33 66  1  0  0  0  0
 33 69  1  0  0  0  0
 34 70  1  0  0  0  0
 34 77  2  0  0  0  0
 35 50  1  0  0  0  0
 35 73  1  0  0  0  0
 35 78  2  0  0  0  0
 36 62  1  0  0  0  0
 36 67  1  0  0  0  0
 36 79  2  0  0  0  0
 37 59  1  0  0  0  0
 37 75  1  0  0  0  0
 37 80  2  0  0  0  0
 38 63  1  0  0  0  0
 38 74  1  0  0  0  0
 38 81  2  0  0  0  0
 39 68  1  0  0  0  0
 39 71  1  0  0  0  0
 39 82  2  0  0  0  0
 40 43  1  0  0  0  0
 41 50  1  0  0  0  0
 42 67  1  0  0  0  0
 43 45  1  0  0  0  0
 44 46  1  0  0  0  0
 44 47  1  0  0  0  0
 45 49  1  0  0  0  0
 46 51  1  0  0  0  0
 47 68  1  0  0  0  0
 48 51  1  0  0  0  0
 48 68  1  0  0  0  0
 49 73  1  0  0  0  0
 50 67  1  0  0  0  0
 51 66  1  0  0  0  0
 52 63  1  0  0  0  0
 53 64  1  0  0  0  0
 54 64  1  0  0  0  0
 55 64  1  0  0  0  0
 56 75  1  0  0  0  0
 57 76  1  0  0  0  0
 58 84  1  0  0  0  0
 59 85  1  0  0  0  0
 60 61  1  0  0  0  0
 60 72  1  0  0  0  0
 61 75  1  0  0  0  0
 62 64  1  0  0  0  0
 62 74  1  0  0  0  0
 63 76  1  0  0  0  0
 65 66  1  0  0  0  0
M  CHG  1  76   1
M  ISO  4  39 100  59 101  71 100  85 101
M  END
> <Batch ID>
0005

> <Smiles>
CNC(C)C(=O)NC(C(=O)N1Cc2cc([101O:1][101CH2:1]C(=O)N(C)CCNc3cc(Cl)c([100NH:0][100C:0](=O)N4CCCC(n5nc(-c6ccc(Oc7ccc(F)cc7F)cc6)c(C(N)=O)c5N)C4)cc3OC)ccc2CC1C(=O)NC1CCCc2ccccc21)C(C)(C)C

> <Shape>
0.283

> <Color>
0.074

> <Negative vol penalty>
0.000

$$$$

  -OEChem-04052315263D

 90 98  0     1  0  0  0  0  0999 V2000
  -18.9745  -24.5436   22.3360 C   0  0  0  0  0  0  0  0  0  0  0  0
  -20.2033  -24.7732   21.7254 C   0  0  0  0  0  0  0  0  0  0  0  0
  -24.0991   -9.5265   22.0007 C   0  0  0  0  0  0  0  0  0  0  0  0
  -24.0738   -9.4231   19.5870 C   0  0  0  0  0  0  0  0  0  0  0  0
  -18.1845  -25.6203   22.7368 C   0  0  0  0  0  0  0  0  0  0  0  0
  -20.6423  -26.0797   21.5143 C   0  0  0  0  0  0  0  0  0  0  0  0
  -25.5056  -26.7220   22.7718 C   0  0  0  0  0  0  0  0  0  0  0  0
  -22.7053   -9.5796   22.0130 C   0  0  0  0  0  0  0  0  0  0  0  0
  -22.6800   -9.4763   19.5993 C   0  0  0  0  0  0  0  0  0  0  0  0
  -26.4629  -26.2621   21.8686 C   0  0  0  0  0  0  0  0  0  0  0  0
  -20.1271   -7.4169   21.6841 C   0  0  0  0  0  0  0  0  0  0  0  0
  -19.4555   -6.6055   22.5985 C   0  0  0  0  0  0  0  0  0  0  0  0
  -26.7614  -28.5111   21.0489 C   0  0  0  0  0  0  0  0  0  0  0  0
  -18.4674   -8.5641   23.6108 C   0  0  0  0  0  0  0  0  0  0  0  0
  -24.7834   -9.4483   20.7877 C   0  0  0  0  0  0  0  0  0  0  0  0
  -27.0308   -8.2416   20.8149 C   0  0  0  0  0  0  0  0  0  0  0  0
  -18.6185  -26.9406   22.5392 C   0  0  0  0  0  0  0  0  0  0  0  0
  -25.1605  -28.0806   22.8129 C   0  0  0  0  0  0  0  0  0  0  0  0
  -19.8568  -27.1751   21.9116 C   0  0  0  0  0  0  0  0  0  0  0  0
  -25.8013  -28.9862   21.9553 C   0  0  0  0  0  0  0  0  0  0  0  0
  -21.9958   -9.5545   20.8124 C   0  0  0  0  0  0  0  0  0  0  0  0
  -27.0889  -27.1562   21.0050 C   0  0  0  0  0  0  0  0  0  0  0  0
  -19.9689   -8.8020   21.7331 C   0  0  0  0  0  0  0  0  0  0  0  0
  -18.6256   -7.1791   23.5619 C   0  0  0  0  0  0  0  0  0  0  0  0
  -19.1390   -9.3756   22.6964 C   0  0  0  0  0  0  0  0  0  0  0  0
  -26.2231   -9.3939   20.7743 C   0  0  0  0  0  0  0  0  0  0  0  0
  -28.3169   -8.7222   20.7801 C   0  0  0  0  0  0  0  0  0  0  0  0
  -26.6522   -6.8601   20.8785 C   0  0  0  0  0  0  0  0  0  0  0  0
  -26.5566  -16.4533   14.3652 C   0  0  0  0  0  0  0  0  0  0  0  0
  -22.4930  -29.7337   22.3080 C   0  0  0  0  0  0  0  0  0  0  0  0
  -24.3018  -32.2210   23.3394 C   0  0  0  0  0  0  0  0  0  0  0  0
  -29.3986  -24.9938   19.1123 C   0  0  0  0  0  0  0  0  0  0  0  0
  -27.4119  -33.5562   23.7771 C   0  0  0  0  0  0  0  0  0  0  0  0
  -28.6162  -12.1168   17.2394 C   0  0  0  0  0  0  0  0  0  0  0  0
  -17.7086  -28.0724   22.9465 C   0  0  0  0  0  0  0  0  0  0  0  0
  -24.1453  -28.5651   23.8113 C   0  0  0  0  0  0  0  0  0  0  0  0
  -25.4813  -30.4578   21.9737 C   0  0  0  0  0  0  0  0  0  0  0  0
  -18.4149  -29.4234   23.0255 C   0  0  0  0  0  0  0  0  0  0  0  0
  -28.1992  -13.3833   20.6223 C   0  0  0  0  0  0  0  0  0  0  0  0
  -19.2826  -29.6452   21.7907 C   0  0  0  0  0  0  0  0  0  0  0  0
  -29.0144  -12.3854   21.4372 C   0  0  0  0  0  0  0  0  0  0  0  0
  -27.4738  -14.1460   14.2440 C   0  0  0  0  0  0  0  0  0  0  0  0
  -28.0078  -15.6397   16.2195 C   0  0  0  0  0  0  0  0  0  0  0  0
  -28.8252  -13.6529   19.2569 C   0  0  0  0  0  0  0  0  0  0  0  0
  -27.8648  -12.8969   15.0333 C   0  0  0  0  0  0  0  0  0  0  0  0
  -28.9972  -14.5142   16.5222 C   0  0  0  0  0  0  0  0  0  0  0  0
  -29.8624  -11.3940   19.2511 C   0  0  0  0  0  0  0  0  0  0  0  0
  -20.3787  -28.5778   21.6877 C   0  0  1  0  0  0  0  0  0  0  0  0
  -26.9591  -15.2512   15.1663 C   0  0  0  0  0  0  0  0  0  0  0  0
  -23.4996  -29.8885   23.4127 C   0  0  1  0  0  0  0  0  0  0  0  0
  -29.3385  -11.0953   20.6671 C   0  0  2  0  0  0  0  0  0  0  0  0
  -28.5698  -35.6213   24.6089 C   0  0  0  0  0  0  0  0  0  0  0  0
  -23.5259  -33.6852   20.7774 C   0  0  0  0  0  0  0  0  0  0  0  0
  -25.4106  -35.2782   21.1996 C   0  0  0  0  0  0  0  0  0  0  0  0
  -23.5321  -35.1104   22.8323 C   0  0  0  0  0  0  0  0  0  0  0  0
  -28.8395  -32.0471   25.8850 C   0  0  0  0  0  0  0  0  0  0  0  0
  -28.3214  -25.3232   20.1236 C   0  0  0  0  0  0  0  0  0  1  0  0
  -28.4292  -21.1828   15.6949 C   0  0  0  0  0  0  0  0  0  0  0  0
  -27.3236  -20.1338   15.8356 C   0  0  0  0  0  0  0  0  0  0  0  0
  -29.0125  -21.5634   17.0579 C   0  0  0  0  0  0  0  0  0  0  0  0
  -26.7219  -19.7771   14.4729 C   0  0  0  0  0  0  0  0  0  0  0  0
  -30.1388  -22.5906   16.9109 C   0  0  0  0  0  0  0  0  0  0  0  0
  -25.5994  -18.7404   14.5536 C   0  0  0  0  0  0  0  0  0  0  0  0
  -30.7100  -23.0647   18.2495 C   0  0  0  0  0  0  0  0  0  0  0  0
  -25.2122  -33.2275   22.6781 C   0  0  1  0  0  0  0  0  0  0  0  0
  -28.0573  -34.2361   24.9711 C   0  0  2  0  0  0  0  0  0  0  0  0
  -24.4250  -34.2973   21.8699 C   0  0  0  0  0  0  0  0  0  0  0  0
  -26.9365  -10.5218   20.7180 N   0  0  0  0  0  0  0  0  0  0  0  0
  -28.2058  -10.0804   20.7232 N   0  0  0  0  0  0  0  0  0  0  0  0
  -24.4773  -30.8817   22.9635 N   0  0  0  0  0  0  0  0  0  0  0  0
  -29.0997  -12.4116   18.5238 N   0  0  0  0  0  0  0  0  0  0  0  0
  -28.3826  -13.1930   16.3696 N   0  0  0  0  0  0  0  0  0  0  0  0
  -29.5207   -8.1114   20.7929 N   0  0  0  0  0  0  0  0  0  0  0  0
  -25.2875   -6.5420   20.9071 N   0  0  0  0  0  0  0  0  0  0  0  0
  -21.4568  -28.8701   22.6079 N   0  0  0  0  0  0  0  0  0  0  0  0
  -26.0460  -17.4895   15.1235 N   0  0  0  0  0  0  0  0  0  0  0  0
  -29.7025  -23.6490   19.1269 N   0  0  0  0  0  0  0  0  0  0  0  0
  -26.0513  -33.7768   23.7376 N   0  0  0  0  0  0  0  0  0  0  0  0
  -29.2043  -33.4263   25.4707 N   0  3  0  0  0  0  0  0  0  0  0  0
  -27.4991   -5.9360   20.9255 O   0  0  0  0  0  0  0  0  0  0  0  0
  -26.6996  -16.4439   13.1482 O   0  0  0  0  0  0  0  0  0  0  0  0
  -22.6443  -30.3532   21.2615 O   0  0  0  0  0  0  0  0  0  0  0  0
  -23.4706  -32.6080   24.1646 O   0  0  0  0  0  0  0  0  0  0  0  0
  -29.9136  -25.8428   18.3898 O   0  0  0  0  0  0  0  0  0  0  0  0
  -28.0513  -32.8986   22.9590 O   0  0  0  0  0  0  0  0  0  0  0  0
  -28.3900  -10.9523   16.8841 O   0  0  0  0  0  0  0  0  0  0  0  0
  -20.6357   -9.6061   20.8240 O   0  0  0  0  0  0  0  0  0  0  0  0
  -28.0329  -26.7051   20.1128 O   0  0  0  0  0  0  0  0  0  1  0  0
  -17.9795   -6.3997   24.4389 F   0  0  0  0  0  0  0  0  0  0  0  0
  -18.9822  -10.7054   22.7476 F   0  0  0  0  0  0  0  0  0  0  0  0
  1  2  1  0  0  0  0
  1  5  2  0  0  0  0
  2  6  2  0  0  0  0
  3  8  2  0  0  0  0
  3 15  1  0  0  0  0
  4  9  1  0  0  0  0
  4 15  2  0  0  0  0
  5 17  1  0  0  0  0
  6 19  1  0  0  0  0
  7 10  2  0  0  0  0
  7 18  1  0  0  0  0
  8 21  1  0  0  0  0
  9 21  2  0  0  0  0
 10 22  1  0  0  0  0
 11 12  2  0  0  0  0
 11 23  1  0  0  0  0
 12 24  1  0  0  0  0
 13 20  1  0  0  0  0
 13 22  2  0  0  0  0
 14 24  2  0  0  0  0
 14 25  1  0  0  0  0
 15 26  1  0  0  0  0
 16 26  1  0  0  0  0
 16 27  2  0  0  0  0
 16 28  1  0  0  0  0
 17 19  2  0  0  0  0
 17 35  1  0  0  0  0
 18 20  2  0  0  0  0
 18 36  1  0  0  0  0
 19 48  1  0  0  0  0
 20 37  1  0  0  0  0
 21 87  1  0  0  0  0
 22 88  1  0  0  0  0
 23 25  2  0  0  0  0
 23 87  1  0  0  0  0
 24 89  1  0  0  0  0
 25 90  1  0  0  0  0
 26 68  2  0  0  0  0
 27 69  1  0  0  0  0
 27 73  1  0  0  0  0
 28 74  1  0  0  0  0
 28 80  2  0  0  0  0
 29 49  1  0  0  0  0
 29 76  1  0  0  0  0
 29 81  2  0  0  0  0
 30 50  1  0  0  0  0
 30 75  1  0  0  0  0
 30 82  2  0  0  0  0
 31 65  1  0  0  0  0
 31 70  1  0  0  0  0
 31 83  2  0  0  0  0
 32 57  1  0  0  0  0
 32 77  1  0  0  0  0
 32 84  2  0  0  0  0
 33 66  1  0  0  0  0
 33 78  1  0  0  0  0
 33 85  2  0  0  0  0
 34 71  1  0  0  0  0
 34 72  1  0  0  0  0
 34 86  2  0  0  0  0
 35 38  1  0  0  0  0
 36 50  1  0  0  0  0
 37 70  1  0  0  0  0
 38 40  1  0  0  0  0
 39 41  1  0  0  0  0
 39 44  1  0  0  0  0
 40 48  1  0  0  0  0
 41 51  1  0  0  0  0
 42 45  1  0  0  0  0
 42 49  1  0  0  0  0
 43 46  1  0  0  0  0
 43 49  1  0  0  0  0
 44 71  1  0  0  0  0
 45 72  1  0  0  0  0
 46 72  1  0  0  0  0
 47 51  1  0  0  0  0
 47 71  1  0  0  0  0
 48 75  1  0  0  0  0
 50 70  1  0  0  0  0
 51 69  1  0  0  0  0
 52 66  1  0  0  0  0
 53 67  1  0  0  0  0
 54 67  1  0  0  0  0
 55 67  1  0  0  0  0
 56 79  1  0  0  0  0
 57 88  1  0  0  0  0
 58 59  1  0  0  0  0
 58 60  1  0  0  0  0
 59 61  1  0  0  0  0
 60 62  1  0  0  0  0
 61 63  1  0  0  0  0
 62 64  1  0  0  0  0
 63 76  1  0  0  0  0
 64 77  1  0  0  0  0
 65 67  1  0  0  0  0
 65 78  1  0  0  0  0
 66 79  1  0  0  0  0
 68 69  1  0  0  0  0
M  CHG  1  79   1
M  ISO  4  34 100  57 101  72 100  88 101
M  END
> <Batch ID>
0005

> <Smiles>
CNC(C)C(=O)NC(C(=O)N1Cc2cc([101O:1][101CH2:1]C(=O)NCCCCCCCNC(=O)C3CC[100N:0]([100C:0](=O)N4CCCC(n5nc(-c6ccc(Oc7ccc(F)cc7F)cc6)c(C(N)=O)c5N)C4)CC3)ccc2CC1C(=O)NC1CCCc2ccccc21)C(C)(C)C

> <Shape>
0.253

> <Color>
0.101

> <Negative vol penalty>
0.000

$$$$

  -OEChem-04052315263D

 89 97  0     1  0  0  0  0  0999 V2000
  -16.2844  -26.0974   22.1421 C   0  0  0  0  0  0  0  0  0  0  0  0
  -16.2325  -24.9440   21.3661 C   0  0  0  0  0  0  0  0  0  0  0  0
  -28.1962  -26.3692   19.3218 C   0  0  0  0  0  0  0  0  0  0  0  0
  -28.8008  -25.6171   21.5367 C   0  0  0  0  0  0  0  0  0  0  0  0
  -17.5172  -26.6550   22.4787 C   0  0  0  0  0  0  0  0  0  0  0  0
  -17.4136  -24.3479   20.9253 C   0  0  0  0  0  0  0  0  0  0  0  0
  -20.2094  -17.9203   19.4468 C   0  0  0  0  0  0  0  0  0  0  0  0
  -27.6894  -27.5513   19.8615 C   0  0  0  0  0  0  0  0  0  0  0  0
  -28.2940  -26.7993   22.0765 C   0  0  0  0  0  0  0  0  0  0  0  0
  -20.8810  -17.2465   18.4277 C   0  0  0  0  0  0  0  0  0  0  0  0
  -24.8850  -28.5595   21.4564 C   0  0  0  0  0  0  0  0  0  0  0  0
  -23.6467  -29.0039   20.9932 C   0  0  0  0  0  0  0  0  0  0  0  0
  -22.9552  -18.2533   19.1370 C   0  0  0  0  0  0  0  0  0  0  0  0
  -25.9490  -13.6166   19.9284 C   0  0  0  0  0  0  0  0  0  0  0  0
  -24.5245  -14.7925   22.0190 C   0  0  0  0  0  0  0  0  0  0  0  0
  -24.6689  -31.0553   20.2290 C   0  0  0  0  0  0  0  0  0  0  0  0
  -28.7518  -25.4020   20.1594 C   0  0  0  0  0  0  0  0  0  0  0  0
  -30.5907  -23.9418   19.1626 C   0  0  0  0  0  0  0  0  0  0  0  0
  -18.7142  -26.0600   22.0499 C   0  0  0  0  0  0  0  0  0  0  0  0
  -20.9051  -18.7757   20.3134 C   0  0  0  0  0  0  0  0  0  0  0  0
  -18.6635  -24.8988   21.2553 C   0  0  0  0  0  0  0  0  0  0  0  0
  -22.2906  -18.9349   20.1679 C   0  0  0  0  0  0  0  0  0  0  0  0
  -26.5737  -13.8497   21.1535 C   0  0  0  0  0  0  0  0  0  0  0  0
  -27.7383  -27.7664   21.2388 C   0  0  0  0  0  0  0  0  0  0  0  0
  -22.2536  -17.4152   18.2708 C   0  0  0  0  0  0  0  0  0  0  0  0
  -26.0153  -29.3630   21.3060 C   0  0  0  0  0  0  0  0  0  0  0  0
  -24.6120  -13.9715   19.7485 C   0  0  0  0  0  0  0  0  0  0  0  0
  -23.8998  -14.5594   20.7938 C   0  0  0  0  0  0  0  0  0  0  0  0
  -23.5386  -30.2518   20.3794 C   0  0  0  0  0  0  0  0  0  0  0  0
  -25.9072  -30.6109   20.6923 C   0  0  0  0  0  0  0  0  0  0  0  0
  -25.8615  -14.4377   22.1988 C   0  0  0  0  0  0  0  0  0  0  0  0
  -29.2749  -24.1804   19.6026 C   0  0  0  0  0  0  0  0  0  0  0  0
  -30.5758  -22.6398   18.7255 C   0  0  0  0  0  0  0  0  0  0  0  0
  -31.7251  -24.8186   19.1502 C   0  0  0  0  0  0  0  0  0  0  0  0
  -20.7776  -21.8808   20.9807 C   0  0  0  0  0  0  0  0  0  0  0  0
  -22.9336  -21.0803   23.2683 C   0  0  0  0  0  0  0  0  0  0  0  0
  -25.3367  -18.9136   24.3535 C   0  0  0  0  0  0  0  0  0  0  0  0
  -29.2283  -17.3881   19.4681 C   0  0  0  0  0  0  0  0  0  0  0  0
  -20.0216  -26.7258   22.3992 C   0  0  0  0  0  0  0  0  0  0  0  0
  -20.1705  -19.4745   21.4244 C   0  0  0  0  0  0  0  0  0  0  0  0
  -23.0869  -19.8259   21.0846 C   0  0  0  0  0  0  0  0  0  0  0  0
  -21.2363  -25.8216   22.2062 C   0  0  0  0  0  0  0  0  0  0  0  0
  -26.7092  -19.4778   17.9239 C   0  0  0  0  0  0  0  0  0  0  0  0
  -21.1625  -25.1087   20.8596 C   0  0  0  0  0  0  0  0  0  0  0  0
  -27.2687  -20.8763   18.1908 C   0  0  0  0  0  0  0  0  0  0  0  0
  -26.9654  -18.5454   19.1043 C   0  0  0  0  0  0  0  0  0  0  0  0
  -28.9581  -19.8330   19.7712 C   0  0  0  0  0  0  0  0  0  0  0  0
  -19.9234  -24.2090   20.7788 C   0  0  1  0  0  0  0  0  0  0  0  0
  -20.8933  -20.7201   21.9278 C   0  0  1  0  0  0  0  0  0  0  0  0
  -28.7509  -20.8171   18.6055 C   0  0  2  0  0  0  0  0  0  0  0  0
  -27.0231  -17.8948   25.9077 C   0  0  0  0  0  0  0  0  0  0  0  0
  -24.7491  -23.2592   22.1430 C   0  0  0  0  0  0  0  0  0  0  0  0
  -26.6514  -22.2271   23.4017 C   0  0  0  0  0  0  0  0  0  0  0  0
  -24.6875  -23.1394   24.6402 C   0  0  0  0  0  0  0  0  0  0  0  0
  -28.3330  -12.0991   21.1373 C   0  0  0  0  0  0  0  0  0  0  0  0
  -23.2930  -17.1968   25.6322 C   0  0  0  0  0  0  0  0  0  0  0  0
  -21.9377  -15.5058   21.7478 C   0  0  0  0  0  0  0  0  0  0  0  0
  -29.9534  -14.5898   20.4871 C   0  0  0  0  0  0  0  0  0  0  0  0
  -23.5063  -14.6109   16.3530 C   0  0  0  0  0  0  0  0  0  0  0  0
  -29.3454  -14.9329   19.1285 C   0  0  0  0  0  0  0  0  0  0  0  0
  -28.9297  -14.4788   21.6162 C   0  0  0  0  0  0  0  0  0  0  0  0
  -22.3842  -15.4963   16.8720 C   0  0  0  0  0  0  0  0  0  1  0  0
  -24.5786  -14.3760   17.4052 C   0  0  0  0  0  0  0  0  0  0  0  0
  -24.4391  -20.9893   23.3335 C   0  0  1  0  0  0  0  0  0  0  0  0
  -25.5584  -18.2469   25.6991 C   0  0  2  0  0  0  0  0  0  0  0  0
  -25.1168  -22.3884   23.3610 C   0  0  0  0  0  0  0  0  0  0  0  0
  -28.4818  -23.1155   19.4581 N   0  0  0  0  0  0  0  0  0  0  0  0
  -29.3015  -22.1951   18.9223 N   0  0  0  0  0  0  0  0  0  0  0  0
  -22.3224  -20.4925   22.1517 N   0  0  0  0  0  0  0  0  0  0  0  0
  -28.3969  -18.5199   19.4362 N   0  0  0  0  0  0  0  0  0  0  0  0
  -31.5284  -21.8433   18.1958 N   0  0  0  0  0  0  0  0  0  0  0  0
  -31.5661  -26.1236   19.6359 N   0  0  0  0  0  0  0  0  0  0  0  0
  -20.1399  -22.9832   21.5170 N   0  0  0  0  0  0  0  0  0  0  0  0
  -24.7478  -20.1531   24.4884 N   0  0  0  0  0  0  0  0  0  0  0  0
  -28.6178  -16.1825   19.1449 N   0  0  0  0  0  0  0  0  0  0  0  0
  -27.9290  -13.4794   21.3051 N   0  0  3  0  0  0  0  0  0  0  0  0
  -24.7558  -16.9949   25.7953 N   0  3  0  0  0  0  0  0  0  0  0  0
  -32.8422  -24.4607   18.7059 O   0  0  0  0  0  0  0  0  0  0  0  0
  -21.2345  -21.7841   19.8477 O   0  0  0  0  0  0  0  0  0  0  0  0
  -22.3220  -21.6456   24.1782 O   0  0  0  0  0  0  0  0  0  0  0  0
  -25.6575  -18.3891   23.2893 O   0  0  0  0  0  0  0  0  0  0  0  0
  -30.4281  -17.4481   19.7581 O   0  0  0  0  0  0  0  0  0  0  0  0
  -27.2442  -28.9200   21.7658 O   0  0  0  0  0  0  0  0  0  0  0  0
  -22.5937  -14.9102   20.6302 O   0  0  0  0  0  0  0  0  0  0  0  0
  -22.9114  -16.7591   17.2765 O   0  0  0  0  0  0  0  0  0  1  0  0
  -24.0093  -13.7374   18.5400 O   0  0  0  0  0  0  0  0  0  0  0  0
  -22.3497  -30.6778   19.9332 F   0  0  0  0  0  0  0  0  0  0  0  0
  -26.9897  -31.3867   20.5439 F   0  0  0  0  0  0  0  0  0  0  0  0
  -26.5966  -14.7439   23.7318 Cl  0  0  0  0  0  0  0  0  0  0  0  0
  1  2  1  0  0  0  0
  1  5  2  0  0  0  0
  2  6  2  0  0  0  0
  3  8  2  0  0  0  0
  3 17  1  0  0  0  0
  4  9  1  0  0  0  0
  4 17  2  0  0  0  0
  5 19  1  0  0  0  0
  6 21  1  0  0  0  0
  7 10  2  0  0  0  0
  7 20  1  0  0  0  0
  8 24  1  0  0  0  0
  9 24  2  0  0  0  0
 10 25  1  0  0  0  0
 11 12  2  0  0  0  0
 11 26  1  0  0  0  0
 12 29  1  0  0  0  0
 13 22  1  0  0  0  0
 13 25  2  0  0  0  0
 14 23  2  0  0  0  0
 14 27  1  0  0  0  0
 15 28  1  0  0  0  0
 15 31  2  0  0  0  0
 16 29  2  0  0  0  0
 16 30  1  0  0  0  0
 17 32  1  0  0  0  0
 18 32  1  0  0  0  0
 18 33  2  0  0  0  0
 18 34  1  0  0  0  0
 19 21  2  0  0  0  0
 19 39  1  0  0  0  0
 20 22  2  0  0  0  0
 20 40  1  0  0  0  0
 21 48  1  0  0  0  0
 22 41  1  0  0  0  0
 23 31  1  0  0  0  0
 23 76  1  0  0  0  0
 24 83  1  0  0  0  0
 25 85  1  0  0  0  0
 26 30  2  0  0  0  0
 26 83  1  0  0  0  0
 27 28  2  0  0  0  0
 27 86  1  0  0  0  0
 28 84  1  0  0  0  0
 29 87  1  0  0  0  0
 30 88  1  0  0  0  0
 31 89  1  0  0  0  0
 32 67  2  0  0  0  0
 33 68  1  0  0  0  0
 33 71  1  0  0  0  0
 34 72  1  0  0  0  0
 34 78  2  0  0  0  0
 35 49  1  0  0  0  0
 35 73  1  0  0  0  0
 35 79  2  0  0  0  0
 36 64  1  0  0  0  0
 36 69  1  0  0  0  0
 36 80  2  0  0  0  0
 37 65  1  0  0  0  0
 37 74  1  0  0  0  0
 37 81  2  0  0  0  0
 38 70  1  0  0  0  0
 38 75  1  0  0  0  0
 38 82  2  0  0  0  0
 39 42  1  0  0  0  0
 40 49  1  0  0  0  0
 41 69  1  0  0  0  0
 42 44  1  0  0  0  0
 43 45  1  0  0  0  0
 43 46  1  0  0  0  0
 44 48  1  0  0  0  0
 45 50  1  0  0  0  0
 46 70  1  0  0  0  0
 47 50  1  0  0  0  0
 47 70  1  0  0  0  0
 48 73  1  0  0  0  0
 49 69  1  0  0  0  0
 50 68  1  0  0  0  0
 51 65  1  0  0  0  0
 52 66  1  0  0  0  0
 53 66  1  0  0  0  0
 54 66  1  0  0  0  0
 55 76  1  0  0  0  0
 56 77  1  0  0  0  0
 57 84  1  0  0  0  0
 58 60  1  0  0  0  0
 58 61  1  0  0  0  0
 59 62  1  0  0  0  0
 59 63  1  0  0  0  0
 60 75  1  0  0  0  0
 61 76  1  0  0  0  0
 62 85  1  0  0  0  0
 63 86  1  0  0  0  0
 64 66  1  0  0  0  0
 64 74  1  0  0  0  0
 65 77  1  0  0  0  0
 67 68  1  0  0  0  0
M  CHG  1  77   1
M  ISO  4  38 100  62 101  75 100  85 101
M  END
> <Batch ID>
0005

> <Smiles>
CNC(C)C(=O)NC(C(=O)N1Cc2cc([101O:1][101CH2:1]CCOc3cc(N(C)CCC[100NH:0][100C:0](=O)N4CCCC(n5nc(-c6ccc(Oc7ccc(F)cc7F)cc6)c(C(N)=O)c5N)C4)c(Cl)cc3OC)ccc2CC1C(=O)NC1CCCc2ccccc21)C(C)(C)C

> <Shape>
0.211

> <Color>
0.062

> <Negative vol penalty>
0.000

$$$$

  -OEChem-04052315263D

 89 97  0     1  0  0  0  0  0999 V2000
  -28.9519  -10.1293   16.9123 C   0  0  0  0  0  0  0  0  0  0  0  0
  -27.9468  -11.0014   16.5063 C   0  0  0  0  0  0  0  0  0  0  0  0
  -22.7415  -25.2193   24.7033 C   0  0  0  0  0  0  0  0  0  0  0  0
  -21.3485  -27.0516   25.4379 C   0  0  0  0  0  0  0  0  0  0  0  0
  -29.6406  -10.3663   18.1011 C   0  0  0  0  0  0  0  0  0  0  0  0
  -27.6291  -12.1103   17.2897 C   0  0  0  0  0  0  0  0  0  0  0  0
  -25.8259  -17.6192   15.3130 C   0  0  0  0  0  0  0  0  0  0  0  0
  -26.6302  -28.9831   18.0769 C   0  0  0  0  0  0  0  0  0  0  0  0
  -27.0581  -26.7042   18.7555 C   0  0  0  0  0  0  0  0  0  0  0  0
  -22.5957  -24.6091   25.9491 C   0  0  0  0  0  0  0  0  0  0  0  0
  -21.2026  -26.4413   26.6836 C   0  0  0  0  0  0  0  0  0  0  0  0
  -24.5674  -18.2070   15.1932 C   0  0  0  0  0  0  0  0  0  0  0  0
  -25.8735  -28.5205   17.0004 C   0  0  0  0  0  0  0  0  0  0  0  0
  -26.3012  -26.2415   17.6790 C   0  0  0  0  0  0  0  0  0  0  0  0
  -23.8940  -24.9410   29.0521 C   0  0  0  0  0  0  0  0  0  0  0  0
  -25.0381  -24.4182   29.6547 C   0  0  0  0  0  0  0  0  0  0  0  0
  -24.8695  -19.2757   17.3347 C   0  0  0  0  0  0  0  0  0  0  0  0
  -24.0314  -22.2219   29.6607 C   0  0  0  0  0  0  0  0  0  0  0  0
  -22.1179  -26.4407   24.4477 C   0  0  0  0  0  0  0  0  0  0  0  0
  -21.4484  -26.9022   22.0298 C   0  0  0  0  0  0  0  0  0  0  0  0
  -29.3378  -11.4840   18.8946 C   0  0  0  0  0  0  0  0  0  0  0  0
  -26.6125  -17.8468   16.4514 C   0  0  0  0  0  0  0  0  0  0  0  0
  -28.3135  -12.3617   18.4910 C   0  0  0  0  0  0  0  0  0  0  0  0
  -26.1387  -18.6916   17.4653 C   0  0  0  0  0  0  0  0  0  0  0  0
  -27.2226  -28.0749   18.9545 C   0  0  0  0  0  0  0  0  0  0  0  0
  -21.8262  -25.2200   26.9392 C   0  0  0  0  0  0  0  0  0  0  0  0
  -25.7089  -27.1497   16.8015 C   0  0  0  0  0  0  0  0  0  0  0  0
  -24.0878  -19.0331   16.2055 C   0  0  0  0  0  0  0  0  0  0  0  0
  -22.8185  -24.1042   28.7538 C   0  0  0  0  0  0  0  0  0  0  0  0
  -25.1069  -23.0587   29.9590 C   0  0  0  0  0  0  0  0  0  0  0  0
  -22.8872  -22.7447   29.0581 C   0  0  0  0  0  0  0  0  0  0  0  0
  -22.2686  -27.0719   23.1613 C   0  0  0  0  0  0  0  0  0  0  0  0
  -22.0098  -27.7132   21.0740 C   0  0  0  0  0  0  0  0  0  0  0  0
  -20.2832  -26.0846   21.8581 C   0  0  0  0  0  0  0  0  0  0  0  0
  -27.8073  -16.0123   18.7559 C   0  0  0  0  0  0  0  0  0  0  0  0
  -29.2804  -18.7619   19.6455 C   0  0  0  0  0  0  0  0  0  0  0  0
  -21.6252  -21.6867   15.9998 C   0  0  0  0  0  0  0  0  0  0  0  0
  -29.3145  -22.1743   19.6062 C   0  0  0  0  0  0  0  0  0  0  0  0
  -27.7606  -29.7802   20.7134 C   0  0  0  0  0  0  0  0  0  0  0  0
  -30.0773  -11.6727   20.1954 C   0  0  0  0  0  0  0  0  0  0  0  0
  -27.9790  -17.2266   16.5532 C   0  0  0  0  0  0  0  0  0  0  0  0
  -26.9525  -18.9842   18.6984 C   0  0  0  0  0  0  0  0  0  0  0  0
  -29.9352  -13.0761   20.7789 C   0  0  0  0  0  0  0  0  0  0  0  0
  -24.5996  -31.6980   20.5616 C   0  0  0  0  0  0  0  0  0  0  0  0
  -28.4777  -13.5246   20.7419 C   0  0  0  0  0  0  0  0  0  0  0  0
  -23.5913  -30.7408   21.1944 C   0  0  0  0  0  0  0  0  0  0  0  0
  -26.0073  -31.4803   21.1081 C   0  0  0  0  0  0  0  0  0  0  0  0
  -25.4771  -29.1116   21.6078 C   0  0  0  0  0  0  0  0  0  0  0  0
  -27.9568  -13.5892   19.3010 C   0  0  1  0  0  0  0  0  0  0  0  0
  -28.4796  -17.1164   17.9901 C   0  0  1  0  0  0  0  0  0  0  0  0
  -24.0586  -29.2837   21.0443 C   0  0  1  0  0  0  0  0  0  0  0  0
  -30.3691  -28.2815   19.4291 C   0  0  0  0  0  0  0  0  0  0  0  0
  -30.6236  -24.1411   20.4519 C   0  0  0  0  0  0  0  0  0  0  0  0
  -28.1063  -18.3429   22.4304 C   0  0  0  0  0  0  0  0  0  0  0  0
  -28.6291  -20.7387   22.9353 C   0  0  0  0  0  0  0  0  0  0  0  0
  -30.4746  -19.1459   22.4068 C   0  0  0  0  0  0  0  0  0  0  0  0
  -29.8917  -23.1179   16.8611 C   0  0  0  0  0  0  0  0  0  0  0  0
  -22.6716  -20.8707   16.7284 C   0  0  0  0  0  0  0  0  0  1  0  0
  -22.2255  -25.6713   15.7249 C   0  0  0  0  0  0  0  0  0  0  0  0
  -21.0825  -24.8516   15.1180 C   0  0  0  0  0  0  0  0  0  0  0  0
  -22.7850  -26.6753   14.7120 C   0  0  0  0  0  0  0  0  0  0  0  0
  -29.2575  -27.8636   20.3705 C   0  0  0  0  0  0  0  0  0  0  0  0
  -20.4628  -23.8821   16.1197 C   0  0  0  0  0  0  0  0  0  0  0  0
  -23.9025  -27.5273   15.3015 C   0  0  0  0  0  0  0  0  0  0  0  0
  -28.9330  -19.9146   20.5563 C   0  0  1  0  0  0  0  0  0  0  0  0
  -30.4217  -23.1671   19.3015 C   0  0  2  0  0  0  0  0  0  0  0  0
  -29.0193  -19.5287   22.0600 C   0  0  0  0  0  0  0  0  0  0  0  0
  -23.2746  -27.9237   22.9459 N   0  0  0  0  0  0  0  0  0  0  0  0
  -23.0902  -28.2965   21.6679 N   0  0  0  0  0  0  0  0  0  0  0  0
  -28.2797  -18.3493   18.7544 N   0  0  0  0  0  0  0  0  0  0  0  0
  -26.4154  -30.0778   21.0135 N   0  0  0  0  0  0  0  0  0  0  0  0
  -21.6797  -27.9772   19.7919 N   0  0  0  0  0  0  0  0  0  0  0  0
  -19.8422  -25.3137   22.9423 N   0  0  0  0  0  0  0  0  0  0  0  0
  -28.4353  -14.7865   18.6438 N   0  0  0  0  0  0  0  0  0  0  0  0
  -21.4125  -22.9115   16.6128 N   0  0  0  0  0  0  0  0  0  0  0  0
  -29.8074  -21.0171   20.1712 N   0  0  0  0  0  0  0  0  0  0  0  0
  -28.0053  -28.5532   20.0677 N   0  0  0  0  0  0  0  0  0  0  0  0
  -30.0936  -23.9489   18.0759 N   0  3  0  0  0  0  0  0  0  0  0  0
  -19.6614  -26.0264   20.7702 O   0  0  0  0  0  0  0  0  0  0  0  0
  -26.7945  -16.2548   19.4018 O   0  0  0  0  0  0  0  0  0  0  0  0
  -30.4010  -18.2513   19.7170 O   0  0  0  0  0  0  0  0  0  0  0  0
  -21.0518  -21.2836   14.9916 O   0  0  0  0  0  0  0  0  0  0  0  0
  -28.1304  -22.4039   19.3702 O   0  0  0  0  0  0  0  0  0  0  0  0
  -28.6867  -30.5296   21.0471 O   0  0  0  0  0  0  0  0  0  0  0  0
  -21.6835  -24.6246   28.1548 O   0  0  0  0  0  0  0  0  0  0  0  0
  -22.8595  -19.6077   16.0914 O   0  0  0  0  0  0  0  0  0  1  0  0
  -24.9650  -26.6949   15.7433 O   0  0  0  0  0  0  0  0  0  0  0  0
  -26.2063  -22.5565   30.5363 F   0  0  0  0  0  0  0  0  0  0  0  0
  -21.8577  -21.9357   28.7729 F   0  0  0  0  0  0  0  0  0  0  0  0
  1  2  1  0  0  0  0
  1  5  2  0  0  0  0
  2  6  2  0  0  0  0
  3 10  2  0  0  0  0
  3 19  1  0  0  0  0
  4 11  1  0  0  0  0
  4 19  2  0  0  0  0
  5 21  1  0  0  0  0
  6 23  1  0  0  0  0
  7 12  2  0  0  0  0
  7 22  1  0  0  0  0
  8 13  2  0  0  0  0
  8 25  1  0  0  0  0
  9 14  1  0  0  0  0
  9 25  2  0  0  0  0
 10 26  1  0  0  0  0
 11 26  2  0  0  0  0
 12 28  1  0  0  0  0
 13 27  1  0  0  0  0
 14 27  2  0  0  0  0
 15 16  2  0  0  0  0
 15 29  1  0  0  0  0
 16 30  1  0  0  0  0
 17 24  1  0  0  0  0
 17 28  2  0  0  0  0
 18 30  2  0  0  0  0
 18 31  1  0  0  0  0
 19 32  1  0  0  0  0
 20 32  1  0  0  0  0
 20 33  2  0  0  0  0
 20 34  1  0  0  0  0
 21 23  2  0  0  0  0
 21 40  1  0  0  0  0
 22 24  2  0  0  0  0
 22 41  1  0  0  0  0
 23 49  1  0  0  0  0
 24 42  1  0  0  0  0
 25 77  1  0  0  0  0
 26 85  1  0  0  0  0
 27 87  1  0  0  0  0
 28 86  1  0  0  0  0
 29 31  2  0  0  0  0
 29 85  1  0  0  0  0
 30 88  1  0  0  0  0
 31 89  1  0  0  0  0
 32 68  2  0  0  0  0
 33 69  1  0  0  0  0
 33 72  1  0  0  0  0
 34 73  1  0  0  0  0
 34 79  2  0  0  0  0
 35 50  1  0  0  0  0
 35 74  1  0  0  0  0
 35 80  2  0  0  0  0
 36 65  1  0  0  0  0
 36 70  1  0  0  0  0
 36 81  2  0  0  0  0
 37 58  1  0  0  0  0
 37 75  1  0  0  0  0
 37 82  2  0  0  0  0
 38 66  1  0  0  0  0
 38 76  1  0  0  0  0
 38 83  2  0  0  0  0
 39 71  1  0  0  0  0
 39 77  1  0  0  0  0
 39 84  2  0  0  0  0
 40 43  1  0  0  0  0
 41 50  1  0  0  0  0
 42 70  1  0  0  0  0
 43 45  1  0  0  0  0
 44 46  1  0  0  0  0
 44 47  1  0  0  0  0
 45 49  1  0  0  0  0
 46 51  1  0  0  0  0
 47 71  1  0  0  0  0
 48 51  1  0  0  0  0
 48 71  1  0  0  0  0
 49 74  1  0  0  0  0
 50 70  1  0  0  0  0
 51 69  1  0  0  0  0
 52 62  1  0  0  0  0
 53 66  1  0  0  0  0
 54 67  1  0  0  0  0
 55 67  1  0  0  0  0
 56 67  1  0  0  0  0
 57 78  1  0  0  0  0
 58 86  1  0  0  0  0
 59 60  1  0  0  0  0
 59 61  1  0  0  0  0
 60 63  1  0  0  0  0
 61 64  1  0  0  0  0
 62 77  1  0  0  0  0
 63 75  1  0  0  0  0
 64 87  1  0  0  0  0
 65 67  1  0  0  0  0
 65 76  1  0  0  0  0
 66 78  1  0  0  0  0
 68 69  1  0  0  0  0
M  CHG  1  78   1
M  ISO  4  39 100  58 101  77 100  86 101
M  END
> <Batch ID>
0005

> <Smiles>
CC[100N:0](c1ccc(OCCCCCNC(=O)[101CH2:1][101O:1]c2ccc3c(c2)CN(C(=O)C(NC(=O)C(C)NC)C(C)(C)C)C(C(=O)NC2CCCc4ccccc42)C3)cc1)[100C:0](=O)N1CCCC(n2nc(-c3ccc(Oc4ccc(F)cc4F)cc3)c(C(N)=O)c2N)C1

> <Shape>
0.212

> <Color>
0.060

> <Negative vol penalty>
0.000

$$$$

  -OEChem-04052315263D

 98106  0     1  0  0  0  0  0999 V2000
  -30.5534  -24.8076   17.1081 C   0  0  0  0  0  0  0  0  0  0  0  0
  -29.2628  -24.7858   17.6270 C   0  0  0  0  0  0  0  0  0  0  0  0
  -21.1975  -21.8386   15.4473 C   0  0  0  0  0  0  0  0  0  0  0  0
  -24.0263  -12.3009   21.4238 C   0  0  0  0  0  0  0  0  0  0  0  0
  -25.2566  -14.3799   21.3908 C   0  0  0  0  0  0  0  0  0  0  0  0
  -22.2684  -22.5362   16.0060 C   0  0  0  0  0  0  0  0  0  0  0  0
  -31.5613  -25.4997   17.7781 C   0  0  0  0  0  0  0  0  0  0  0  0
  -28.9796  -25.4553   18.8170 C   0  0  0  0  0  0  0  0  0  0  0  0
  -24.6848  -28.1270   18.5684 C   0  0  0  0  0  0  0  0  0  0  0  0
  -20.6319  -20.7634   16.1328 C   0  0  0  0  0  0  0  0  0  0  0  0
  -25.2149  -11.5946   21.2390 C   0  0  0  0  0  0  0  0  0  0  0  0
  -26.4452  -13.6737   21.2061 C   0  0  0  0  0  0  0  0  0  0  0  0
  -23.4883  -27.4217   18.6888 C   0  0  0  0  0  0  0  0  0  0  0  0
  -28.0694  -12.1526   18.6607 C   0  0  0  0  0  0  0  0  0  0  0  0
  -28.9600  -12.6238   17.6961 C   0  0  0  0  0  0  0  0  0  0  0  0
  -22.2083  -21.0834   17.9354 C   0  0  0  0  0  0  0  0  0  0  0  0
  -23.3350  -28.0888   21.0020 C   0  0  0  0  0  0  0  0  0  0  0  0
  -30.6508  -12.9114   19.3978 C   0  0  0  0  0  0  0  0  0  0  0  0
  -24.0472  -13.6936   21.4996 C   0  0  0  0  0  0  0  0  0  0  0  0
  -22.7738  -22.1586   17.2500 C   0  0  0  0  0  0  0  0  0  0  0  0
  -22.2306  -14.7919   22.9144 C   0  0  0  0  0  0  0  0  0  0  0  0
  -31.2882  -26.1861   18.9719 C   0  0  0  0  0  0  0  0  0  0  0  0
  -25.2219  -28.8107   19.6686 C   0  0  0  0  0  0  0  0  0  0  0  0
  -29.9851  -26.1561   19.5043 C   0  0  0  0  0  0  0  0  0  0  0  0
  -24.5372  -28.8042   20.8922 C   0  0  0  0  0  0  0  0  0  0  0  0
  -21.1373  -20.3858   17.3768 C   0  0  0  0  0  0  0  0  0  0  0  0
  -26.4243  -12.2810   21.1302 C   0  0  0  0  0  0  0  0  0  0  0  0
  -22.8146  -27.4001   19.9066 C   0  0  0  0  0  0  0  0  0  0  0  0
  -28.4694  -12.0608   19.9939 C   0  0  0  0  0  0  0  0  0  0  0  0
  -30.2507  -13.0032   18.0647 C   0  0  0  0  0  0  0  0  0  0  0  0
  -29.7601  -12.4402   20.3624 C   0  0  0  0  0  0  0  0  0  0  0  0
  -22.8197  -14.4237   21.6899 C   0  0  0  0  0  0  0  0  0  0  0  0
  -21.0873  -15.4638   22.5570 C   0  0  0  0  0  0  0  0  0  0  0  0
  -23.9144  -22.9026   17.8438 C   0  0  0  0  0  0  0  0  0  0  0  0
  -22.6772  -14.5484   24.2549 C   0  0  0  0  0  0  0  0  0  0  0  0
  -27.9093  -28.5914   21.3519 C   0  0  0  0  0  0  0  0  0  0  0  0
  -26.7664  -31.2640   22.7917 C   0  0  0  0  0  0  0  0  0  0  0  0
  -26.2249  -19.6537   23.3866 C   0  0  0  0  0  0  0  0  0  0  0  0
  -20.5446  -24.8880   21.1728 C   0  0  0  0  0  0  0  0  0  0  0  0
  -24.0681  -33.1900   23.6019 C   0  0  0  0  0  0  0  0  0  0  0  0
  -19.4958  -18.4960   17.6603 C   0  0  0  0  0  0  0  0  0  0  0  0
  -32.4209  -26.8809   19.6852 C   0  0  0  0  0  0  0  0  0  0  0  0
  -26.4999  -29.5890   19.5150 C   0  0  0  0  0  0  0  0  0  0  0  0
  -25.0612  -29.5388   22.0981 C   0  0  0  0  0  0  0  0  0  0  0  0
  -31.9543  -27.8768   20.7438 C   0  0  0  0  0  0  0  0  0  0  0  0
  -17.8132  -15.6925   19.0696 C   0  0  0  0  0  0  0  0  0  0  0  0
  -30.8652  -27.2589   21.6150 C   0  0  0  0  0  0  0  0  0  0  0  0
  -18.8504  -15.0860   20.0175 C   0  0  0  0  0  0  0  0  0  0  0  0
  -18.4589  -16.2420   17.7988 C   0  0  0  0  0  0  0  0  0  0  0  0
  -20.6008  -16.5772   18.9689 C   0  0  0  0  0  0  0  0  0  0  0  0
  -29.6331  -26.8908   20.7797 C   0  0  1  0  0  0  0  0  0  0  0  0
  -27.2193  -29.8239   20.8397 C   0  0  1  0  0  0  0  0  0  0  0  0
  -20.0055  -16.0688   20.2921 C   0  0  2  0  0  0  0  0  0  0  0  0
  -23.4442  -35.2959   24.8158 C   0  0  0  0  0  0  0  0  0  0  0  0
  -27.1299  -29.8305   25.4605 C   0  0  0  0  0  0  0  0  0  0  0  0
  -25.6440  -31.5517   26.5081 C   0  0  0  0  0  0  0  0  0  0  0  0
  -27.8054  -32.2384   25.4692 C   0  0  0  0  0  0  0  0  0  0  0  0
  -22.9658  -34.4175   21.1448 C   0  0  0  0  0  0  0  0  0  0  0  0
  -26.7794  -19.3082   22.0187 C   0  0  0  0  0  0  0  0  0  0  0  0
  -21.3442  -26.1660   21.3103 C   0  0  0  0  0  0  0  0  0  1  0  0
  -27.1012  -20.5476   21.1855 C   0  0  0  0  0  0  0  0  0  0  0  0
  -25.8836  -21.4559   20.9925 C   0  0  0  0  0  0  0  0  0  0  0  0
  -22.3007  -20.5651   23.6782 C   0  0  0  0  0  0  0  0  0  0  0  0
  -21.4654  -21.8477   23.6639 C   0  0  0  0  0  0  0  0  0  0  0  0
  -26.2442  -22.7006   20.1805 C   0  0  0  0  0  0  0  0  0  0  0  0
  -23.3566  -20.6057   24.7882 C   0  0  0  0  0  0  0  0  0  0  0  0
  -20.3950  -21.8662   22.5665 C   0  0  0  0  0  0  0  0  0  0  0  0
  -25.0259  -23.5877   19.9536 C   0  0  0  0  0  0  0  0  0  0  0  0
  -24.2167  -19.3462   24.8227 C   0  0  0  0  0  0  0  0  0  0  0  0
  -19.5038  -23.1048   22.5593 C   0  0  0  0  0  0  0  0  0  0  0  0
  -25.8822  -31.5415   23.9834 C   0  0  1  0  0  0  0  0  0  0  0  0
  -23.8218  -34.6827   23.4763 C   0  0  2  0  0  0  0  0  0  0  0  0
  -26.6062  -31.2750   25.3333 C   0  0  0  0  0  0  0  0  0  0  0  0
  -22.1091  -14.8280   20.6337 N   0  0  0  0  0  0  0  0  0  0  0  0
  -21.0618  -15.4572   21.1934 N   0  0  0  0  0  0  0  0  0  0  0  0
  -26.3176  -30.2800   21.8994 N   0  0  0  0  0  0  0  0  0  0  0  0
  -19.5413  -17.1688   18.1369 N   0  0  0  0  0  0  0  0  0  0  0  0
  -20.1112  -16.0537   23.2794 N   0  0  0  0  0  0  0  0  0  0  0  0
  -23.8734  -13.8427   24.4429 N   0  0  0  0  0  0  0  0  0  0  0  0
  -20.5624  -19.2938   18.0730 N   0  0  0  0  0  0  0  0  0  0  0  0
  -23.9947  -22.8941   19.2315 N   0  0  0  0  0  0  0  0  0  0  0  0
  -28.8513  -28.0723   20.4843 N   0  0  0  0  0  0  0  0  0  0  0  0
  -24.9509  -19.1453   23.6038 N   0  0  0  0  0  0  0  0  0  0  0  0
  -20.2550  -24.3294   22.4078 N   0  0  0  0  0  0  0  0  0  0  0  0
  -25.3996  -32.9090   23.8241 N   0  0  0  0  0  0  0  0  0  0  0  0
  -22.7174  -34.9460   22.5109 N   0  3  0  0  0  0  0  0  0  0  0  0
  -24.6982  -23.4904   17.1030 O   0  0  0  0  0  0  0  0  0  0  0  0
  -22.0260  -14.9307   25.2566 O   0  0  0  0  0  0  0  0  0  0  0  0
  -27.6104  -28.1452   22.4534 O   0  0  0  0  0  0  0  0  0  0  0  0
  -27.8130  -31.9021   22.6536 O   0  0  0  0  0  0  0  0  0  0  0  0
  -26.8691  -20.3236   24.1910 O   0  0  0  0  0  0  0  0  0  0  0  0
  -20.2101  -24.4274   20.0847 O   0  0  0  0  0  0  0  0  0  0  0  0
  -23.1686  -32.3569   23.5156 O   0  0  0  0  0  0  0  0  0  0  0  0
  -18.5641  -18.9030   16.9615 O   0  0  0  0  0  0  0  0  0  0  0  0
  -27.5843  -11.5921   20.9501 O   0  0  0  0  0  0  0  0  0  0  0  0
  -21.6469  -26.7119   20.0271 O   0  0  0  0  0  0  0  0  0  1  0  0
  -31.1064  -13.4542   17.1381 F   0  0  0  0  0  0  0  0  0  0  0  0
  -30.1505  -12.3532   21.6414 F   0  0  0  0  0  0  0  0  0  0  0  0
  1  2  1  0  0  0  0
  1  7  2  0  0  0  0
  2  8  2  0  0  0  0
  3  6  2  0  0  0  0
  3 10  1  0  0  0  0
  4 11  2  0  0  0  0
  4 19  1  0  0  0  0
  5 12  1  0  0  0  0
  5 19  2  0  0  0  0
  6 20  1  0  0  0  0
  7 22  1  0  0  0  0
  8 24  1  0  0  0  0
  9 13  2  0  0  0  0
  9 23  1  0  0  0  0
 10 26  2  0  0  0  0
 11 27  1  0  0  0  0
 12 27  2  0  0  0  0
 13 28  1  0  0  0  0
 14 15  2  0  0  0  0
 14 29  1  0  0  0  0
 15 30  1  0  0  0  0
 16 20  2  0  0  0  0
 16 26  1  0  0  0  0
 17 25  1  0  0  0  0
 17 28  2  0  0  0  0
 18 30  2  0  0  0  0
 18 31  1  0  0  0  0
 19 32  1  0  0  0  0
 20 34  1  0  0  0  0
 21 32  1  0  0  0  0
 21 33  2  0  0  0  0
 21 35  1  0  0  0  0
 22 24  2  0  0  0  0
 22 42  1  0  0  0  0
 23 25  2  0  0  0  0
 23 43  1  0  0  0  0
 24 51  1  0  0  0  0
 25 44  1  0  0  0  0
 26 80  1  0  0  0  0
 27 95  1  0  0  0  0
 28 96  1  0  0  0  0
 29 31  2  0  0  0  0
 29 95  1  0  0  0  0
 30 97  1  0  0  0  0
 31 98  1  0  0  0  0
 32 74  2  0  0  0  0
 33 75  1  0  0  0  0
 33 78  1  0  0  0  0
 34 81  1  0  0  0  0
 34 87  2  0  0  0  0
 35 79  1  0  0  0  0
 35 88  2  0  0  0  0
 36 52  1  0  0  0  0
 36 82  1  0  0  0  0
 36 89  2  0  0  0  0
 37 71  1  0  0  0  0
 37 76  1  0  0  0  0
 37 90  2  0  0  0  0
 38 59  1  0  0  0  0
 38 83  1  0  0  0  0
 38 91  2  0  0  0  0
 39 60  1  0  0  0  0
 39 84  1  0  0  0  0
 39 92  2  0  0  0  0
 40 72  1  0  0  0  0
 40 85  1  0  0  0  0
 40 93  2  0  0  0  0
 41 77  1  0  0  0  0
 41 80  1  0  0  0  0
 41 94  2  0  0  0  0
 42 45  1  0  0  0  0
 43 52  1  0  0  0  0
 44 76  1  0  0  0  0
 45 47  1  0  0  0  0
 46 48  1  0  0  0  0
 46 49  1  0  0  0  0
 47 51  1  0  0  0  0
 48 53  1  0  0  0  0
 49 77  1  0  0  0  0
 50 53  1  0  0  0  0
 50 77  1  0  0  0  0
 51 82  1  0  0  0  0
 52 76  1  0  0  0  0
 53 75  1  0  0  0  0
 54 72  1  0  0  0  0
 55 73  1  0  0  0  0
 56 73  1  0  0  0  0
 57 73  1  0  0  0  0
 58 86  1  0  0  0  0
 59 61  1  0  0  0  0
 60 96  1  0  0  0  0
 61 62  1  0  0  0  0
 62 65  1  0  0  0  0
 63 64  1  0  0  0  0
 63 66  1  0  0  0  0
 64 67  1  0  0  0  0
 65 68  1  0  0  0  0
 66 69  1  0  0  0  0
 67 70  1  0  0  0  0
 68 81  1  0  0  0  0
 69 83  1  0  0  0  0
 70 84  1  0  0  0  0
 71 73  1  0  0  0  0
 71 85  1  0  0  0  0
 72 86  1  0  0  0  0
 74 75  1  0  0  0  0
M  CHG  1  86   1
M  ISO  4  41 100  60 101  80 100  96 101
M  END
> <Batch ID>
0005

> <Smiles>
CNC(C)C(=O)NC(C(=O)N1Cc2cc([101O:1][101CH2:1]C(=O)NCCCCCCNC(=O)CCCCCNC(=O)c3cccc([100NH:0][100C:0](=O)N4CCCC(n5nc(-c6ccc(Oc7ccc(F)cc7F)cc6)c(C(N)=O)c5N)C4)c3)ccc2CC1C(=O)NC1CCCc2ccccc21)C(C)(C)C

> <Shape>
0.250

> <Color>
0.076

> <Negative vol penalty>
0.000

$$$$

  -OEChem-04052315263D

 98106  0     1  0  0  0  0  0999 V2000
  -40.8517  -27.0860   21.2803 C   0  0  0  0  0  0  0  0  0  0  0  0
  -40.2877  -25.9470   21.8460 C   0  0  0  0  0  0  0  0  0  0  0  0
  -30.6812  -19.8014   21.3800 C   0  0  0  0  0  0  0  0  0  0  0  0
  -31.4035  -18.9650   20.5291 C   0  0  0  0  0  0  0  0  0  0  0  0
  -23.0002   -9.8941   19.9803 C   0  0  0  0  0  0  0  0  0  0  0  0
  -23.7249   -9.9445   22.2845 C   0  0  0  0  0  0  0  0  0  0  0  0
  -40.8058  -28.2992   21.9657 C   0  0  0  0  0  0  0  0  0  0  0  0
  -39.6784  -26.0204   23.0981 C   0  0  0  0  0  0  0  0  0  0  0  0
  -35.2385  -23.5891   23.2435 C   0  0  0  0  0  0  0  0  0  0  0  0
  -29.7538  -19.2587   22.2696 C   0  0  0  0  0  0  0  0  0  0  0  0
  -31.1985  -17.5858   20.5675 C   0  0  0  0  0  0  0  0  0  0  0  0
  -22.2334   -8.7597   20.2463 C   0  0  0  0  0  0  0  0  0  0  0  0
  -22.9580   -8.8102   22.5505 C   0  0  0  0  0  0  0  0  0  0  0  0
  -35.2767  -22.1996   23.3515 C   0  0  0  0  0  0  0  0  0  0  0  0
  -23.2018   -5.4712   22.0782 C   0  0  0  0  0  0  0  0  0  0  0  0
  -23.7890   -4.4538   22.8302 C   0  0  0  0  0  0  0  0  0  0  0  0
  -34.8365  -22.3775   25.7166 C   0  0  0  0  0  0  0  0  0  0  0  0
  -22.0648   -4.6968   24.5051 C   0  0  0  0  0  0  0  0  0  0  0  0
  -23.7460  -10.4865   20.9994 C   0  0  0  0  0  0  0  0  0  0  0  0
  -24.1318  -13.0020   20.8238 C   0  0  0  0  0  0  0  0  0  0  0  0
  -40.1870  -28.3896   23.2226 C   0  0  0  0  0  0  0  0  0  0  0  0
  -35.0094  -24.3850   24.3751 C   0  0  0  0  0  0  0  0  0  0  0  0
  -39.6253  -27.2357   23.8016 C   0  0  0  0  0  0  0  0  0  0  0  0
  -34.7933  -23.7767   25.6198 C   0  0  0  0  0  0  0  0  0  0  0  0
  -29.5488  -17.8795   22.3080 C   0  0  0  0  0  0  0  0  0  0  0  0
  -30.2711  -17.0430   21.4570 C   0  0  0  0  0  0  0  0  0  0  0  0
  -22.2123   -8.2177   21.5314 C   0  0  0  0  0  0  0  0  0  0  0  0
  -35.0785  -21.5937   24.5887 C   0  0  0  0  0  0  0  0  0  0  0  0
  -22.0461   -6.1016   22.5396 C   0  0  0  0  0  0  0  0  0  0  0  0
  -23.2205   -4.0666   24.0437 C   0  0  0  0  0  0  0  0  0  0  0  0
  -21.4776   -5.7143   23.7530 C   0  0  0  0  0  0  0  0  0  0  0  0
  -24.5387  -11.6580   20.7251 C   0  0  0  0  0  0  0  0  0  0  0  0
  -25.2418  -13.7245   20.4598 C   0  0  0  0  0  0  0  0  0  0  0  0
  -22.8639  -13.5486   21.2102 C   0  0  0  0  0  0  0  0  0  0  0  0
  -36.6686  -26.6082   25.9269 C   0  0  0  0  0  0  0  0  0  0  0  0
  -33.9243  -26.9128   27.6293 C   0  0  0  0  0  0  0  0  0  0  0  0
  -32.8751  -18.3132   24.8790 C   0  0  0  0  0  0  0  0  0  0  0  0
  -29.9798  -17.7364   25.3397 C   0  0  0  0  0  0  0  0  0  0  0  0
  -31.0094  -25.4999   28.7037 C   0  0  0  0  0  0  0  0  0  0  0  0
  -30.7214  -14.6844   20.6951 C   0  0  0  0  0  0  0  0  0  0  0  0
  -40.2038  -29.7127   23.9465 C   0  0  0  0  0  0  0  0  0  0  0  0
  -34.9447  -25.8813   24.2370 C   0  0  0  0  0  0  0  0  0  0  0  0
  -34.5235  -24.5854   26.8615 C   0  0  0  0  0  0  0  0  0  0  0  0
  -39.2094  -29.7872   25.1023 C   0  0  0  0  0  0  0  0  0  0  0  0
  -29.6031  -12.2321   18.3685 C   0  0  0  0  0  0  0  0  0  0  0  0
  -39.2936  -28.5292   25.9609 C   0  0  0  0  0  0  0  0  0  0  0  0
  -28.1524  -11.9747   18.7823 C   0  0  0  0  0  0  0  0  0  0  0  0
  -30.5034  -12.4752   19.5785 C   0  0  0  0  0  0  0  0  0  0  0  0
  -28.5880  -13.2642   20.9118 C   0  0  0  0  0  0  0  0  0  0  0  0
  -38.9336  -27.2805   25.1468 C   0  0  1  0  0  0  0  0  0  0  0  0
  -35.2148  -26.6145   25.5473 C   0  0  1  0  0  0  0  0  0  0  0  0
  -27.6305  -13.0782   19.7233 C   0  0  2  0  0  0  0  0  0  0  0  0
  -28.9896  -25.9805   30.1132 C   0  0  0  0  0  0  0  0  0  0  0  0
  -32.5473  -18.1732   29.6353 C   0  0  0  0  0  0  0  0  0  0  0  0
  -32.1294  -15.8590   28.7830 C   0  0  0  0  0  0  0  0  0  0  0  0
  -26.5955  -18.7035   22.3651 C   0  0  0  0  0  0  0  0  0  0  0  0
  -26.4108  -17.6939   24.6392 C   0  0  0  0  0  0  0  0  0  0  0  0
  -35.5919  -26.5086   30.1524 C   0  0  0  0  0  0  0  0  0  0  0  0
  -33.4691  -26.0505   31.3982 C   0  0  0  0  0  0  0  0  0  0  0  0
  -33.8340  -28.2780   30.3361 C   0  0  0  0  0  0  0  0  0  0  0  0
  -32.8288  -15.7994   24.9684 C   0  0  0  0  0  0  0  0  0  0  0  0
  -29.1789  -25.1577   26.4033 C   0  0  0  0  0  0  0  0  0  0  0  0
  -34.1158  -18.1527   24.0067 C   0  0  0  0  0  0  0  0  0  0  0  0
  -31.3293  -17.8865   27.4556 C   0  0  0  0  0  0  0  0  0  0  0  0
  -29.1406  -15.4797   24.8063 C   0  0  0  0  0  0  0  0  0  0  0  0
  -28.4596  -15.3015   26.1501 C   0  0  0  0  0  0  0  0  0  0  0  0
  -34.7081  -19.4827   23.5580 C   0  0  0  0  0  0  0  0  0  1  0  0
  -28.5330  -17.3172   23.2863 C   0  0  2  0  0  0  0  0  0  0  0  0
  -33.3614  -26.2702   28.8740 C   0  0  1  0  0  0  0  0  0  0  0  0
  -31.1061  -17.0995   26.1569 C   0  0  2  0  0  0  0  0  0  0  0  0
  -29.5825  -26.0180   28.7133 C   0  0  2  0  0  0  0  0  0  0  0  0
  -32.4188  -17.3057   28.3801 C   0  0  0  0  0  0  0  0  0  0  0  0
  -27.3833  -18.3022   23.6188 C   0  0  0  0  0  0  0  0  0  0  0  0
  -34.0711  -26.7614   30.1673 C   0  0  0  0  0  0  0  0  0  0  0  0
  -25.8081  -11.5313   20.3292 N   0  0  0  0  0  0  0  0  0  0  0  0
  -26.2083  -12.8050   20.1758 N   0  0  0  0  0  0  0  0  0  0  0  0
  -34.4762  -26.0452   26.6762 N   0  0  0  0  0  0  0  0  0  0  0  0
  -29.9484  -13.5361   20.4219 N   0  0  0  0  0  0  0  0  0  0  0  0
  -25.4755  -15.0501   20.3580 N   0  0  0  0  0  0  0  0  0  0  0  0
  -21.8318  -12.6646   21.5534 N   0  0  0  0  0  0  0  0  0  0  0  0
  -30.0772  -15.6396   21.4806 N   0  0  0  0  0  0  0  0  0  0  0  0
  -37.4992  -27.1805   24.9825 N   0  0  0  0  0  0  0  0  0  0  0  0
  -31.9245  -26.5211   28.8489 N   0  0  0  0  0  0  0  0  0  0  0  0
  -32.2849  -17.1128   25.3233 N   0  0  0  0  0  0  0  0  0  0  0  0
  -29.2579  -16.8971   24.4836 N   0  0  0  0  0  0  0  0  0  0  0  0
  -28.2987  -13.8557   26.4424 N   0  3  0  0  0  0  0  0  0  0  0  0
  -28.7252  -25.1912   27.8175 N   0  3  0  0  0  0  0  0  0  0  0  0
  -22.6474  -14.7840   21.2341 O   0  0  0  0  0  0  0  0  0  0  0  0
  -37.0112  -26.1215   26.9981 O   0  0  0  0  0  0  0  0  0  0  0  0
  -33.8696  -28.1387   27.5041 O   0  0  0  0  0  0  0  0  0  0  0  0
  -32.4451  -19.4356   25.1576 O   0  0  0  0  0  0  0  0  0  0  0  0
  -29.7156  -18.9352   25.4830 O   0  0  0  0  0  0  0  0  0  0  0  0
  -31.2845  -24.3082   28.5834 O   0  0  0  0  0  0  0  0  0  0  0  0
  -31.8602  -14.8232   20.2413 O   0  0  0  0  0  0  0  0  0  0  0  0
  -21.4639   -7.1109   21.7914 O   0  0  0  0  0  0  0  0  0  0  0  0
  -35.1162  -20.2281   24.6979 O   0  0  0  0  0  0  0  0  0  1  0  0
  -23.7836   -3.0885   24.7651 F   0  0  0  0  0  0  0  0  0  0  0  0
  -20.3668   -6.3153   24.2009 F   0  0  0  0  0  0  0  0  0  0  0  0
  1  2  1  0  0  0  0
  1  7  2  0  0  0  0
  2  8  2  0  0  0  0
  3  4  1  0  0  0  0
  3 10  2  0  0  0  0
  4 11  2  0  0  0  0
  5 12  2  0  0  0  0
  5 19  1  0  0  0  0
  6 13  1  0  0  0  0
  6 19  2  0  0  0  0
  7 21  1  0  0  0  0
  8 23  1  0  0  0  0
  9 14  2  0  0  0  0
  9 22  1  0  0  0  0
 10 25  1  0  0  0  0
 11 26  1  0  0  0  0
 12 27  1  0  0  0  0
 13 27  2  0  0  0  0
 14 28  1  0  0  0  0
 15 16  2  0  0  0  0
 15 29  1  0  0  0  0
 16 30  1  0  0  0  0
 17 24  1  0  0  0  0
 17 28  2  0  0  0  0
 18 30  2  0  0  0  0
 18 31  1  0  0  0  0
 19 32  1  0  0  0  0
 20 32  1  0  0  0  0
 20 33  2  0  0  0  0
 20 34  1  0  0  0  0
 21 23  2  0  0  0  0
 21 41  1  0  0  0  0
 22 24  2  0  0  0  0
 22 42  1  0  0  0  0
 23 50  1  0  0  0  0
 24 43  1  0  0  0  0
 25 26  2  0  0  0  0
 25 68  1  0  0  0  0
 26 81  1  0  0  0  0
 27 95  1  0  0  0  0
 28 96  1  0  0  0  0
 29 31  2  0  0  0  0
 29 95  1  0  0  0  0
 30 97  1  0  0  0  0
 31 98  1  0  0  0  0
 32 75  2  0  0  0  0
 33 76  1  0  0  0  0
 33 79  1  0  0  0  0
 34 80  1  0  0  0  0
 34 88  2  0  0  0  0
 35 51  1  0  0  0  0
 35 82  1  0  0  0  0
 35 89  2  0  0  0  0
 36 69  1  0  0  0  0
 36 77  1  0  0  0  0
 36 90  2  0  0  0  0
 37 63  1  0  0  0  0
 37 84  1  0  0  0  0
 37 91  2  0  0  0  0
 38 70  1  0  0  0  0
 38 85  1  0  0  0  0
 38 92  2  0  0  0  0
 39 71  1  0  0  0  0
 39 83  1  0  0  0  0
 39 93  2  0  0  0  0
 40 78  1  0  0  0  0
 40 81  1  0  0  0  0
 40 94  2  0  0  0  0
 41 44  1  0  0  0  0
 42 51  1  0  0  0  0
 43 77  1  0  0  0  0
 44 46  1  0  0  0  0
 45 47  1  0  0  0  0
 45 48  1  0  0  0  0
 46 50  1  0  0  0  0
 47 52  1  0  0  0  0
 48 78  1  0  0  0  0
 49 52  1  0  0  0  0
 49 78  1  0  0  0  0
 50 82  1  0  0  0  0
 51 77  1  0  0  0  0
 52 76  1  0  0  0  0
 53 71  1  0  0  0  0
 54 72  1  0  0  0  0
 55 72  1  0  0  0  0
 56 73  1  0  0  0  0
 57 73  1  0  0  0  0
 58 74  1  0  0  0  0
 59 74  1  0  0  0  0
 60 74  1  0  0  0  0
 61 84  1  0  0  0  0
 62 87  1  0  0  0  0
 63 67  1  0  0  0  0
 64 70  1  0  0  0  0
 64 72  1  0  0  0  0
 65 66  1  0  0  0  0
 65 85  1  0  0  0  0
 66 86  1  0  0  0  0
 67 96  1  0  0  0  0
 68 73  1  0  0  0  0
 68 85  1  0  0  0  0
 69 74  1  0  0  0  0
 69 83  1  0  0  0  0
 70 84  1  0  0  0  0
 71 87  1  0  0  0  0
 75 76  1  0  0  0  0
M  CHG  2  86   1  87   1
M  ISO  4  40 100  67 101  81 100  96 101
M  END
> <Batch ID>
0005

> <Smiles>
CNC(C)C(=O)NC(C(=O)N1Cc2cc([101O:1][101CH2:1]CC(=O)N(C)C(CC(C)C)C(=O)N(CCN)C(c3ccccc3[100NH:0][100C:0](=O)N3CCCC(n4nc(-c5ccc(Oc6ccc(F)cc6F)cc5)c(C(N)=O)c4N)C3)C(C)C)ccc2CC1C(=O)NC1CCCc2ccccc21)C(C)(C)C

> <Shape>
0.173

> <Color>
0.182

> <Negative vol penalty>
0.000

$$$$

  -OEChem-04052315263D

 98107  0     1  0  0  0  0  0999 V2000
  -17.4487  -25.6632   15.2327 C   0  0  0  0  0  0  0  0  0  0  0  0
  -18.8234  -25.5027   15.3737 C   0  0  0  0  0  0  0  0  0  0  0  0
  -30.9616  -22.3139   22.4699 C   0  0  0  0  0  0  0  0  0  0  0  0
  -23.0253   -9.9016   19.9175 C   0  0  0  0  0  0  0  0  0  0  0  0
  -23.8164   -9.8178   22.1988 C   0  0  0  0  0  0  0  0  0  0  0  0
  -16.8533  -26.8812   15.5580 C   0  0  0  0  0  0  0  0  0  0  0  0
  -19.6037  -26.5606   15.8389 C   0  0  0  0  0  0  0  0  0  0  0  0
  -22.9715  -25.1027   19.3285 C   0  0  0  0  0  0  0  0  0  0  0  0
  -30.5265  -22.2733   21.1453 C   0  0  0  0  0  0  0  0  0  0  0  0
  -23.5368  -15.1881   17.4281 C   0  0  0  0  0  0  0  0  0  0  0  0
  -31.0640  -21.1339   23.2068 C   0  0  0  0  0  0  0  0  0  0  0  0
  -22.2614   -8.7560   20.1403 C   0  0  0  0  0  0  0  0  0  0  0  0
  -23.0524   -8.6722   22.4216 C   0  0  0  0  0  0  0  0  0  0  0  0
  -24.1235  -24.4628   18.8734 C   0  0  0  0  0  0  0  0  0  0  0  0
  -24.0017  -16.5031   17.4101 C   0  0  0  0  0  0  0  0  0  0  0  0
  -19.8171   -7.9198   23.0438 C   0  0  0  0  0  0  0  0  0  0  0  0
  -19.0755   -7.8565   24.2235 C   0  0  0  0  0  0  0  0  0  0  0  0
  -25.3492  -26.5293   19.0884 C   0  0  0  0  0  0  0  0  0  0  0  0
  -30.2961  -19.8730   21.2944 C   0  0  0  0  0  0  0  0  0  0  0  0
  -25.4488  -14.4942   16.1243 C   0  0  0  0  0  0  0  0  0  0  0  0
  -20.2869   -5.8714   24.8784 C   0  0  0  0  0  0  0  0  0  0  0  0
  -23.8028  -10.4325   20.9468 C   0  0  0  0  0  0  0  0  0  0  0  0
  -24.1947  -12.9529   20.9044 C   0  0  0  0  0  0  0  0  0  0  0  0
  -17.6253  -27.9515   16.0366 C   0  0  0  0  0  0  0  0  0  0  0  0
  -22.9972  -26.4657   19.6572 C   0  0  0  0  0  0  0  0  0  0  0  0
  -19.0182  -27.7945   16.1696 C   0  0  0  0  0  0  0  0  0  0  0  0
  -24.1969  -27.1836   19.5500 C   0  0  0  0  0  0  0  0  0  0  0  0
  -30.1938  -21.0529   20.5575 C   0  0  0  0  0  0  0  0  0  0  0  0
  -24.2604  -14.1837   16.7853 C   0  0  0  0  0  0  0  0  0  0  0  0
  -30.7312  -19.9135   22.6190 C   0  0  0  0  0  0  0  0  0  0  0  0
  -22.2750   -8.1413   21.3923 C   0  0  0  0  0  0  0  0  0  0  0  0
  -25.3119  -25.1767   18.7505 C   0  0  0  0  0  0  0  0  0  0  0  0
  -20.7936   -6.9589   22.7814 C   0  0  0  0  0  0  0  0  0  0  0  0
  -25.1901  -16.8137   16.7491 C   0  0  0  0  0  0  0  0  0  0  0  0
  -19.3104   -6.8323   25.1408 C   0  0  0  0  0  0  0  0  0  0  0  0
  -21.0284   -5.9347   23.6987 C   0  0  0  0  0  0  0  0  0  0  0  0
  -25.9137  -15.8092   16.1062 C   0  0  0  0  0  0  0  0  0  0  0  0
  -24.5926  -11.6156   20.7171 C   0  0  0  0  0  0  0  0  0  0  0  0
  -25.2970  -13.6919   20.5503 C   0  0  0  0  0  0  0  0  0  0  0  0
  -22.9409  -13.4800   21.3581 C   0  0  0  0  0  0  0  0  0  0  0  0
  -21.5284  -29.0645   18.5652 C   0  0  0  0  0  0  0  0  0  0  0  0
  -23.0106  -30.4831   21.0778 C   0  0  0  0  0  0  0  0  0  0  0  0
  -28.0345  -22.8066   18.7239 C   0  0  0  0  0  0  0  0  0  0  0  0
  -25.5859  -30.4514   23.3169 C   0  0  0  0  0  0  0  0  0  0  0  0
  -30.8025  -14.5940   20.6934 C   0  0  0  0  0  0  0  0  0  0  0  0
  -16.9433  -29.2642   16.3304 C   0  0  0  0  0  0  0  0  0  0  0  0
  -21.7524  -27.1349   20.1722 C   0  0  0  0  0  0  0  0  0  0  0  0
  -24.2821  -28.6438   19.9093 C   0  0  0  0  0  0  0  0  0  0  0  0
  -17.7899  -30.2155   17.1721 C   0  0  0  0  0  0  0  0  0  0  0  0
  -29.5838  -12.3128   18.2465 C   0  0  0  0  0  0  0  0  0  0  0  0
  -19.2144  -30.2834   16.6308 C   0  0  0  0  0  0  0  0  0  0  0  0
  -28.1467  -12.0338   18.6901 C   0  0  0  0  0  0  0  0  0  0  0  0
  -30.5216  -12.4755   19.4407 C   0  0  0  0  0  0  0  0  0  0  0  0
  -28.6543  -13.1984   20.8775 C   0  0  0  0  0  0  0  0  0  0  0  0
  -19.8949  -28.9107   16.6947 C   0  0  1  0  0  0  0  0  0  0  0  0
  -21.7689  -28.6494   19.9891 C   0  0  1  0  0  0  0  0  0  0  0  0
  -27.6608  -13.0823   19.7089 C   0  0  2  0  0  0  0  0  0  0  0  0
  -23.7626  -12.7779   16.8047 C   0  0  0  0  0  0  0  0  0  0  0  0
  -26.5540  -31.7635   25.2244 C   0  0  0  0  0  0  0  0  0  0  0  0
  -24.1393  -32.5167   19.1029 C   0  0  0  0  0  0  0  0  0  0  0  0
  -25.8016  -33.1874   20.8508 C   0  0  0  0  0  0  0  0  0  0  0  0
  -23.3614  -33.4894   21.2715 C   0  0  0  0  0  0  0  0  0  0  0  0
  -31.6668  -18.6657   24.5499 C   0  0  0  0  0  0  0  0  0  0  0  0
  -25.2176  -28.2013   25.2037 C   0  0  0  0  0  0  0  0  0  0  0  0
  -29.7249  -21.0098   19.1319 C   0  0  0  0  0  0  0  0  0  0  0  0
  -26.5686  -23.1636   18.5958 C   0  0  0  0  0  0  0  0  0  1  0  0
  -26.9637  -19.7646   17.8511 C   0  0  0  0  0  0  0  0  0  0  0  0
  -27.3270  -20.4462   19.1637 C   0  0  0  0  0  0  0  0  0  0  0  0
  -30.9293  -16.7009   21.9988 C   0  0  0  0  0  0  0  0  0  0  0  0
  -30.1007  -17.5375   22.9614 C   0  0  0  0  0  0  0  0  0  0  0  0
  -25.8824  -18.7035   18.0160 C   0  0  0  0  0  0  0  0  0  0  0  0
  -24.3433  -31.1597   21.2898 C   0  0  1  0  0  0  0  0  0  0  0  0
  -25.6134  -30.6379   24.8232 C   0  0  2  0  0  0  0  0  0  0  0  0
  -24.4097  -32.5613   20.6201 C   0  0  0  0  0  0  0  0  0  0  0  0
  -25.8494  -11.5082   20.2779 N   0  0  0  0  0  0  0  0  0  0  0  0
  -26.2508  -12.7875   20.1862 N   0  0  0  0  0  0  0  0  0  0  0  0
  -23.0366  -29.2549   20.4021 N   0  0  0  0  0  0  0  0  0  0  0  0
  -30.0043  -13.4851   20.3676 N   0  0  0  0  0  0  0  0  0  0  0  0
  -25.5336  -15.0206   20.5178 N   0  0  0  0  0  0  0  0  0  0  0  0
  -21.9152  -12.5807   21.6799 N   0  0  0  0  0  0  0  0  0  0  0  0
  -20.3265  -28.6229   18.0457 N   0  0  0  0  0  0  0  0  0  0  0  0
  -24.5686  -31.1749   22.7312 N   0  0  0  0  0  0  0  0  0  0  0  0
  -30.2340  -15.5064   21.5738 N   0  0  0  0  0  0  0  0  0  0  0  0
  -30.8352  -18.7204   23.3641 N   0  0  3  0  0  0  0  0  0  0  0  0
  -28.3502  -21.4749   18.9955 N   0  0  0  0  0  0  0  0  0  0  0  0
  -26.0667  -29.3857   25.4920 N   0  3  0  0  0  0  0  0  0  0  0  0
  -22.7307  -14.7125   21.4590 O   0  0  0  0  0  0  0  0  0  0  0  0
  -22.3703  -29.7370   17.9815 O   0  0  0  0  0  0  0  0  0  0  0  0
  -21.9849  -31.0210   21.5025 O   0  0  0  0  0  0  0  0  0  0  0  0
  -28.8770  -23.6973   18.5768 O   0  0  0  0  0  0  0  0  0  0  0  0
  -26.3890  -29.7384   22.7192 O   0  0  0  0  0  0  0  0  0  0  0  0
  -31.9355  -14.7615   20.2296 O   0  0  0  0  0  0  0  0  0  0  0  0
  -21.5295   -7.0236   21.6101 O   0  0  0  0  0  0  0  0  0  0  0  0
  -26.4376  -24.5547   18.3059 O   0  0  0  0  0  0  0  0  0  1  0  0
  -25.6231  -18.1140   16.7488 O   0  0  0  0  0  0  0  0  0  0  0  0
  -18.5993   -6.7725   26.2743 F   0  0  0  0  0  0  0  0  0  0  0  0
  -21.9660   -5.0093   23.4527 F   0  0  0  0  0  0  0  0  0  0  0  0
  -27.3869  -16.1653   15.2818 Cl  0  0  0  0  0  0  0  0  0  0  0  0
  1  2  1  0  0  0  0
  1  6  2  0  0  0  0
  2  7  2  0  0  0  0
  3  9  2  0  0  0  0
  3 11  1  0  0  0  0
  4 12  2  0  0  0  0
  4 22  1  0  0  0  0
  5 13  1  0  0  0  0
  5 22  2  0  0  0  0
  6 24  1  0  0  0  0
  7 26  1  0  0  0  0
  8 14  2  0  0  0  0
  8 25  1  0  0  0  0
  9 28  1  0  0  0  0
 10 15  2  0  0  0  0
 10 29  1  0  0  0  0
 11 30  2  0  0  0  0
 12 31  1  0  0  0  0
 13 31  2  0  0  0  0
 14 32  1  0  0  0  0
 15 34  1  0  0  0  0
 16 17  2  0  0  0  0
 16 33  1  0  0  0  0
 17 35  1  0  0  0  0
 18 27  1  0  0  0  0
 18 32  2  0  0  0  0
 19 28  2  0  0  0  0
 19 30  1  0  0  0  0
 20 29  2  0  0  0  0
 20 37  1  0  0  0  0
 21 35  2  0  0  0  0
 21 36  1  0  0  0  0
 22 38  1  0  0  0  0
 23 38  1  0  0  0  0
 23 39  2  0  0  0  0
 23 40  1  0  0  0  0
 24 26  2  0  0  0  0
 24 46  1  0  0  0  0
 25 27  2  0  0  0  0
 25 47  1  0  0  0  0
 26 55  1  0  0  0  0
 27 48  1  0  0  0  0
 28 65  1  0  0  0  0
 29 58  1  0  0  0  0
 30 84  1  0  0  0  0
 31 93  1  0  0  0  0
 32 94  1  0  0  0  0
 33 36  2  0  0  0  0
 33 93  1  0  0  0  0
 34 37  2  0  0  0  0
 34 95  1  0  0  0  0
 35 96  1  0  0  0  0
 36 97  1  0  0  0  0
 37 98  1  0  0  0  0
 38 75  2  0  0  0  0
 39 76  1  0  0  0  0
 39 79  1  0  0  0  0
 40 80  1  0  0  0  0
 40 87  2  0  0  0  0
 41 56  1  0  0  0  0
 41 81  1  0  0  0  0
 41 88  2  0  0  0  0
 42 72  1  0  0  0  0
 42 77  1  0  0  0  0
 42 89  2  0  0  0  0
 43 66  1  0  0  0  0
 43 85  1  0  0  0  0
 43 90  2  0  0  0  0
 44 73  1  0  0  0  0
 44 82  1  0  0  0  0
 44 91  2  0  0  0  0
 45 78  1  0  0  0  0
 45 83  1  0  0  0  0
 45 92  2  0  0  0  0
 46 49  1  0  0  0  0
 47 56  1  0  0  0  0
 48 77  1  0  0  0  0
 49 51  1  0  0  0  0
 50 52  1  0  0  0  0
 50 53  1  0  0  0  0
 51 55  1  0  0  0  0
 52 57  1  0  0  0  0
 53 78  1  0  0  0  0
 54 57  1  0  0  0  0
 54 78  1  0  0  0  0
 55 81  1  0  0  0  0
 56 77  1  0  0  0  0
 57 76  1  0  0  0  0
 59 73  1  0  0  0  0
 60 74  1  0  0  0  0
 61 74  1  0  0  0  0
 62 74  1  0  0  0  0
 63 84  1  0  0  0  0
 64 86  1  0  0  0  0
 65 85  1  0  0  0  0
 66 94  1  0  0  0  0
 67 68  1  0  0  0  0
 67 71  1  0  0  0  0
 68 85  1  0  0  0  0
 69 70  1  0  0  0  0
 69 83  1  0  0  0  0
 70 84  1  0  0  0  0
 71 95  1  0  0  0  0
 72 74  1  0  0  0  0
 72 82  1  0  0  0  0
 73 86  1  0  0  0  0
 75 76  1  0  0  0  0
M  CHG  1  86   1
M  ISO  4  45 100  66 101  83 100  94 101
M  END
> <Batch ID>
0005

> <Smiles>
CNC(C)C(=O)NC(C(=O)N1Cc2cc([101O:1][101CH2:1]C(=O)N(CCCOc3ccc(C)cc3Cl)Cc3cccc(N(C)CC[100NH:0][100C:0](=O)N4CCCC(n5nc(-c6ccc(Oc7ccc(F)cc7F)cc6)c(C(N)=O)c5N)C4)c3)ccc2CC1C(=O)NC1CCCc2ccccc21)C(C)(C)C

> <Shape>
0.289

> <Color>
0.199

> <Negative vol penalty>
0.000

$$$$

  -OEChem-04052315263D

 84 92  0     1  0  0  0  0  0999 V2000
  -25.6472  -34.5403   15.1283 C   0  0  0  0  0  0  0  0  0  0  0  0
  -26.3435  -33.4632   15.6671 C   0  0  0  0  0  0  0  0  0  0  0  0
  -23.0418   -9.9805   19.9237 C   0  0  0  0  0  0  0  0  0  0  0  0
  -23.8965   -9.8313   22.1786 C   0  0  0  0  0  0  0  0  0  0  0  0
  -25.0653  -35.4853   15.9724 C   0  0  0  0  0  0  0  0  0  0  0  0
  -26.4593  -33.3310   17.0505 C   0  0  0  0  0  0  0  0  0  0  0  0
  -25.6045  -28.5953   18.6277 C   0  0  0  0  0  0  0  0  0  0  0  0
  -22.3252   -8.7996   20.1172 C   0  0  0  0  0  0  0  0  0  0  0  0
  -23.1798   -8.6503   22.3721 C   0  0  0  0  0  0  0  0  0  0  0  0
  -26.6361  -27.6725   18.4604 C   0  0  0  0  0  0  0  0  0  0  0  0
  -23.4935   -5.3839   21.5578 C   0  0  0  0  0  0  0  0  0  0  0  0
  -24.1526   -4.3191   22.1719 C   0  0  0  0  0  0  0  0  0  0  0  0
  -27.2442  -27.9411   20.7793 C   0  0  0  0  0  0  0  0  0  0  0  0
  -30.1849  -19.2257   23.0210 C   0  0  0  0  0  0  0  0  0  0  0  0
  -30.6163  -19.3264   20.6460 C   0  0  0  0  0  0  0  0  0  0  0  0
  -22.5216   -4.3374   23.9542 C   0  0  0  0  0  0  0  0  0  0  0  0
  -23.8276  -10.4963   20.9544 C   0  0  0  0  0  0  0  0  0  0  0  0
  -24.1289  -13.0289   21.0088 C   0  0  0  0  0  0  0  0  0  0  0  0
  -25.1658  -35.3593   17.3669 C   0  0  0  0  0  0  0  0  0  0  0  0
  -25.3915  -29.2071   19.8714 C   0  0  0  0  0  0  0  0  0  0  0  0
  -25.8794  -34.2758   17.9139 C   0  0  0  0  0  0  0  0  0  0  0  0
  -26.2077  -28.8694   20.9604 C   0  0  0  0  0  0  0  0  0  0  0  0
  -30.0335  -17.8418   22.9349 C   0  0  0  0  0  0  0  0  0  0  0  0
  -30.1736  -17.2001   21.7043 C   0  0  0  0  0  0  0  0  0  0  0  0
  -22.3941   -8.1345   21.3413 C   0  0  0  0  0  0  0  0  0  0  0  0
  -27.4580  -27.3474   19.5355 C   0  0  0  0  0  0  0  0  0  0  0  0
  -22.3485   -5.9256   22.1419 C   0  0  0  0  0  0  0  0  0  0  0  0
  -30.4762  -19.9680   21.8766 C   0  0  0  0  0  0  0  0  0  0  0  0
  -23.6667   -3.7958   23.3701 C   0  0  0  0  0  0  0  0  0  0  0  0
  -30.4650  -17.9424   20.5598 C   0  0  0  0  0  0  0  0  0  0  0  0
  -21.8625   -5.4024   23.3401 C   0  0  0  0  0  0  0  0  0  0  0  0
  -24.5686  -11.7159   20.7550 C   0  0  0  0  0  0  0  0  0  0  0  0
  -25.1944  -13.8216   20.6583 C   0  0  0  0  0  0  0  0  0  0  0  0
  -22.8699  -13.4908   21.5161 C   0  0  0  0  0  0  0  0  0  0  0  0
  -25.4709  -32.1988   20.9425 C   0  0  0  0  0  0  0  0  0  0  0  0
  -24.3633  -30.8388   23.6712 C   0  0  0  0  0  0  0  0  0  0  0  0
  -24.0844  -28.0433   25.6088 C   0  0  0  0  0  0  0  0  0  0  0  0
  -30.6480  -14.9442   20.6885 C   0  0  0  0  0  0  0  0  0  0  0  0
  -24.5606  -36.4314   18.2381 C   0  0  0  0  0  0  0  0  0  0  0  0
  -24.2576  -30.1805   20.0423 C   0  0  0  0  0  0  0  0  0  0  0  0
  -26.0079  -29.4828   22.3214 C   0  0  0  0  0  0  0  0  0  0  0  0
  -24.4096  -36.0158   19.6992 C   0  0  0  0  0  0  0  0  0  0  0  0
  -29.4695  -12.6930   18.1944 C   0  0  0  0  0  0  0  0  0  0  0  0
  -25.6910  -35.3589   20.2025 C   0  0  0  0  0  0  0  0  0  0  0  0
  -28.0532  -12.3461   18.6591 C   0  0  0  0  0  0  0  0  0  0  0  0
  -30.4307  -12.8481   19.3716 C   0  0  0  0  0  0  0  0  0  0  0  0
  -28.5731  -13.4362   20.8791 C   0  0  0  0  0  0  0  0  0  0  0  0
  -26.0057  -34.0845   19.4098 C   0  0  1  0  0  0  0  0  0  0  0  0
  -24.4555  -31.1272   21.2221 C   0  0  1  0  0  0  0  0  0  0  0  0
  -27.5545  -13.3338   19.7321 C   0  0  2  0  0  0  0  0  0  0  0  0
  -29.7214  -17.0722   24.1772 C   0  0  0  0  0  0  0  0  0  0  0  0
  -23.1568  -27.2510   27.8017 C   0  0  0  0  0  0  0  0  0  0  0  0
  -26.6768  -32.1869   25.1340 C   0  0  0  0  0  0  0  0  0  0  0  0
  -26.2716  -30.6373   27.0583 C   0  0  0  0  0  0  0  0  0  0  0  0
  -24.4957  -32.2424   26.3564 C   0  0  0  0  0  0  0  0  0  0  0  0
  -22.2864  -26.1041   24.2799 C   0  0  0  0  0  0  0  0  0  0  0  0
  -29.3787  -24.3219   20.0673 C   0  0  0  0  0  0  0  0  0  0  0  0
  -29.7636  -23.4487   21.2565 C   0  0  0  0  0  0  0  0  0  0  0  0
  -28.8312  -25.6708   20.5148 C   0  0  0  0  0  0  0  0  0  1  0  0
  -30.2707  -22.0843   20.8113 C   0  0  0  0  0  0  0  0  0  0  0  0
  -25.0000  -30.2376   24.9009 C   0  0  1  0  0  0  0  0  0  0  0  0
  -22.8926  -27.4211   26.3138 C   0  0  2  0  0  0  0  0  0  0  0  0
  -25.6163  -31.3157   25.8364 C   0  0  0  0  0  0  0  0  0  0  0  0
  -25.8161  -11.6727   20.2798 N   0  0  0  0  0  0  0  0  0  0  0  0
  -26.1694  -12.9684   20.2321 N   0  0  0  0  0  0  0  0  0  0  0  0
  -24.8899  -30.4338   22.4365 N   0  0  0  0  0  0  0  0  0  0  0  0
  -29.8945  -13.8017   20.3452 N   0  0  0  0  0  0  0  0  0  0  0  0
  -25.3830  -15.1582   20.6761 N   0  0  0  0  0  0  0  0  0  0  0  0
  -21.8857  -12.5421   21.8256 N   0  0  0  0  0  0  0  0  0  0  0  0
  -30.0225  -15.7952   21.5990 N   0  0  0  0  0  0  0  0  0  0  0  0
  -25.1655  -32.9928   19.8536 N   0  0  0  0  0  0  0  0  0  0  0  0
  -23.9731  -29.4155   25.5318 N   0  0  0  0  0  0  0  0  0  0  0  0
  -22.5889  -26.0822   25.7342 N   0  3  0  0  0  0  0  0  0  0  0  0
  -22.6191  -14.7096   21.6744 O   0  0  0  0  0  0  0  0  0  0  0  0
  -26.4576  -32.2989   21.6623 O   0  0  0  0  0  0  0  0  0  0  0  0
  -23.4283  -31.6328   23.8011 O   0  0  0  0  0  0  0  0  0  0  0  0
  -25.0222  -27.3788   25.1734 O   0  0  0  0  0  0  0  0  0  0  0  0
  -31.7541  -15.1661   20.1893 O   0  0  0  0  0  0  0  0  0  0  0  0
  -21.6948   -6.9823   21.5305 O   0  0  0  0  0  0  0  0  0  0  0  0
  -28.4660  -26.4475   19.3748 O   0  0  0  0  0  0  0  0  0  1  0  0
  -30.6251  -21.3281   21.9609 O   0  0  0  0  0  0  0  0  0  0  0  0
  -24.2989   -2.7722   23.9590 F   0  0  0  0  0  0  0  0  0  0  0  0
  -30.6020  -17.3373   19.3712 F   0  0  0  0  0  0  0  0  0  0  0  0
  -20.7622   -5.9178   23.9054 F   0  0  0  0  0  0  0  0  0  0  0  0
  1  2  1  0  0  0  0
  1  5  2  0  0  0  0
  2  6  2  0  0  0  0
  3  8  2  0  0  0  0
  3 17  1  0  0  0  0
  4  9  1  0  0  0  0
  4 17  2  0  0  0  0
  5 19  1  0  0  0  0
  6 21  1  0  0  0  0
  7 10  2  0  0  0  0
  7 20  1  0  0  0  0
  8 25  1  0  0  0  0
  9 25  2  0  0  0  0
 10 26  1  0  0  0  0
 11 12  2  0  0  0  0
 11 27  1  0  0  0  0
 12 29  1  0  0  0  0
 13 22  1  0  0  0  0
 13 26  2  0  0  0  0
 14 23  2  0  0  0  0
 14 28  1  0  0  0  0
 15 28  2  0  0  0  0
 15 30  1  0  0  0  0
 16 29  2  0  0  0  0
 16 31  1  0  0  0  0
 17 32  1  0  0  0  0
 18 32  1  0  0  0  0
 18 33  2  0  0  0  0
 18 34  1  0  0  0  0
 19 21  2  0  0  0  0
 19 39  1  0  0  0  0
 20 22  2  0  0  0  0
 20 40  1  0  0  0  0
 21 48  1  0  0  0  0
 22 41  1  0  0  0  0
 23 24  1  0  0  0  0
 23 51  1  0  0  0  0
 24 30  2  0  0  0  0
 24 70  1  0  0  0  0
 25 79  1  0  0  0  0
 26 80  1  0  0  0  0
 27 31  2  0  0  0  0
 27 79  1  0  0  0  0
 28 81  1  0  0  0  0
 29 82  1  0  0  0  0
 30 83  1  0  0  0  0
 31 84  1  0  0  0  0
 32 64  2  0  0  0  0
 33 65  1  0  0  0  0
 33 68  1  0  0  0  0
 34 69  1  0  0  0  0
 34 74  2  0  0  0  0
 35 49  1  0  0  0  0
 35 71  1  0  0  0  0
 35 75  2  0  0  0  0
 36 61  1  0  0  0  0
 36 66  1  0  0  0  0
 36 76  2  0  0  0  0
 37 62  1  0  0  0  0
 37 72  1  0  0  0  0
 37 77  2  0  0  0  0
 38 67  1  0  0  0  0
 38 70  1  0  0  0  0
 38 78  2  0  0  0  0
 39 42  1  0  0  0  0
 40 49  1  0  0  0  0
 41 66  1  0  0  0  0
 42 44  1  0  0  0  0
 43 45  1  0  0  0  0
 43 46  1  0  0  0  0
 44 48  1  0  0  0  0
 45 50  1  0  0  0  0
 46 67  1  0  0  0  0
 47 50  1  0  0  0  0
 47 67  1  0  0  0  0
 48 71  1  0  0  0  0
 49 66  1  0  0  0  0
 50 65  1  0  0  0  0
 52 62  1  0  0  0  0
 53 63  1  0  0  0  0
 54 63  1  0  0  0  0
 55 63  1  0  0  0  0
 56 73  1  0  0  0  0
 57 58  1  0  0  0  0
 57 59  1  0  0  0  0
 58 60  1  0  0  0  0
 59 80  1  0  0  0  0
 60 81  1  0  0  0  0
 61 63  1  0  0  0  0
 61 72  1  0  0  0  0
 62 73  1  0  0  0  0
 64 65  1  0  0  0  0
M  CHG  1  73   1
M  ISO  4  38 100  59 101  70 100  80 101
M  END
> <Batch ID>
0005

> <Smiles>
CNC(C)C(=O)NC(C(=O)N1Cc2cc([101O:1][101CH2:1]CCCOc3cc(C)c([100NH:0][100C:0](=O)N4CCCC(n5nc(-c6ccc(Oc7ccc(F)cc7F)cc6)c(C(N)=O)c5N)C4)c(F)c3)ccc2CC1C(=O)NC1CCCc2ccccc21)C(C)(C)C

> <Shape>
0.334

> <Color>
0.274

> <Negative vol penalty>
0.000

$$$$

  -OEChem-04052315263D

100108  0     1  0  0  0  0  0999 V2000
  -26.8019  -19.4877   15.0299 C   0  0  0  0  0  0  0  0  0  0  0  0
  -26.9967  -19.6406   16.3989 C   0  0  0  0  0  0  0  0  0  0  0  0
  -22.5595  -29.2239   21.1176 C   0  0  0  0  0  0  0  0  0  0  0  0
  -23.8274  -28.6773   23.1002 C   0  0  0  0  0  0  0  0  0  0  0  0
  -26.0195  -18.4377   14.5513 C   0  0  0  0  0  0  0  0  0  0  0  0
  -26.4083  -18.7440   17.2901 C   0  0  0  0  0  0  0  0  0  0  0  0
  -29.6026  -17.2307   20.9166 C   0  0  0  0  0  0  0  0  0  0  0  0
  -33.9245  -23.0635   20.4755 C   0  0  0  0  0  0  0  0  0  0  0  0
  -21.5142  -29.6904   21.9147 C   0  0  0  0  0  0  0  0  0  0  0  0
  -22.7821  -29.1438   23.8973 C   0  0  0  0  0  0  0  0  0  0  0  0
  -29.8348  -18.1142   21.9699 C   0  0  0  0  0  0  0  0  0  0  0  0
  -33.5066  -24.3925   20.4073 C   0  0  0  0  0  0  0  0  0  0  0  0
  -18.3649  -30.6930   23.4312 C   0  0  0  0  0  0  0  0  0  0  0  0
  -17.0674  -30.3104   23.0911 C   0  0  0  0  0  0  0  0  0  0  0  0
  -28.2791  -16.8803   23.3398 C   0  0  0  0  0  0  0  0  0  0  0  0
  -31.7105  -22.3346   19.8400 C   0  0  0  0  0  0  0  0  0  0  0  0
  -17.6766  -27.9901   23.3776 C   0  0  0  0  0  0  0  0  0  0  0  0
  -23.7161  -28.7173   21.7104 C   0  0  0  0  0  0  0  0  0  0  0  0
  -25.8864  -28.9765   20.3950 C   0  0  0  0  0  0  0  0  0  0  0  0
  -25.4290  -17.5221   15.4366 C   0  0  0  0  0  0  0  0  0  0  0  0
  -28.6972  -16.1700   21.0637 C   0  0  0  0  0  0  0  0  0  0  0  0
  -25.6161  -17.6815   16.8230 C   0  0  0  0  0  0  0  0  0  0  0  0
  -28.0392  -15.9832   22.2877 C   0  0  0  0  0  0  0  0  0  0  0  0
  -33.0265  -22.0346   20.1918 C   0  0  0  0  0  0  0  0  0  0  0  0
  -31.2926  -23.6637   19.7718 C   0  0  0  0  0  0  0  0  0  0  0  0
  -21.6255  -29.6504   23.3045 C   0  0  0  0  0  0  0  0  0  0  0  0
  -29.1708  -17.9407   23.1807 C   0  0  0  0  0  0  0  0  0  0  0  0
  -32.1906  -24.6926   20.0555 C   0  0  0  0  0  0  0  0  0  0  0  0
  -19.3183  -29.7242   23.7444 C   0  0  0  0  0  0  0  0  0  0  0  0
  -16.7232  -28.9589   23.0643 C   0  0  0  0  0  0  0  0  0  0  0  0
  -18.9741  -28.3727   23.7176 C   0  0  0  0  0  0  0  0  0  0  0  0
  -24.7960  -28.2348   20.8876 C   0  0  0  0  0  0  0  0  0  0  0  0
  -26.6226  -28.0678   19.6748 C   0  0  0  0  0  0  0  0  0  0  0  0
  -26.2054  -30.3630   20.5727 C   0  0  0  0  0  0  0  0  0  0  0  0
  -25.9748  -15.3327   19.6526 C   0  0  0  0  0  0  0  0  0  0  0  0
  -26.2963  -12.6749   21.4844 C   0  0  0  0  0  0  0  0  0  0  0  0
  -26.8842  -28.2340   26.5955 C   0  0  0  0  0  0  0  0  0  0  0  0
  -29.2884  -21.1026   24.9519 C   0  0  0  0  0  0  0  0  0  0  0  0
  -27.6116  -11.2243   24.2795 C   0  0  0  0  0  0  0  0  0  0  0  0
  -28.9450  -23.0395   19.1040 C   0  0  0  0  0  0  0  0  0  0  0  0
  -24.5527  -16.4308   14.8746 C   0  0  0  0  0  0  0  0  0  0  0  0
  -28.4780  -15.2100   19.9267 C   0  0  0  0  0  0  0  0  0  0  0  0
  -27.0727  -14.8484   22.5034 C   0  0  0  0  0  0  0  0  0  0  0  0
  -24.2719  -15.3042   15.8657 C   0  0  0  0  0  0  0  0  0  0  0  0
  -25.5128  -23.3514   18.2098 C   0  0  0  0  0  0  0  0  0  0  0  0
  -23.8787  -15.8744   17.2247 C   0  0  0  0  0  0  0  0  0  0  0  0
  -25.1101  -24.7107   18.7862 C   0  0  0  0  0  0  0  0  0  0  0  0
  -26.4961  -22.6181   19.1204 C   0  0  0  0  0  0  0  0  0  0  0  0
  -27.2850  -24.7488   20.0727 C   0  0  0  0  0  0  0  0  0  0  0  0
  -25.0147  -16.7149   17.8200 C   0  0  1  0  0  0  0  0  0  0  0  0
  -27.1480  -14.4683   20.0189 C   0  0  1  0  0  0  0  0  0  0  0  0
  -26.3457  -25.5531   19.1593 C   0  0  2  0  0  0  0  0  0  0  0  0
  -27.6680   -9.0488   25.5291 C   0  0  0  0  0  0  0  0  0  0  0  0
  -23.4741  -13.1989   22.5193 C   0  0  0  0  0  0  0  0  0  0  0  0
  -23.9445  -11.6144   24.3998 C   0  0  0  0  0  0  0  0  0  0  0  0
  -23.9814  -10.7967   22.0434 C   0  0  0  0  0  0  0  0  0  0  0  0
  -30.5464  -10.9927   23.9759 C   0  0  0  0  0  0  0  0  0  0  0  0
  -25.9035  -27.0811   26.6801 C   0  0  0  0  0  0  0  0  0  0  0  0
  -29.7402  -20.1443   23.8706 C   0  0  0  0  0  0  0  0  0  1  0  0
  -26.2758  -25.9245   25.7540 C   0  0  0  0  0  0  0  0  0  0  0  0
  -27.6258  -25.2976   26.1136 C   0  0  0  0  0  0  0  0  0  0  0  0
  -29.1728  -28.5508   23.2833 C   0  0  0  0  0  0  0  0  0  0  0  0
  -30.5723  -28.0950   22.8655 C   0  0  0  0  0  0  0  0  0  0  0  0
  -27.9563  -24.1257   25.1884 C   0  0  0  0  0  0  0  0  0  0  0  0
  -29.2251  -29.4196   24.5435 C   0  0  0  0  0  0  0  0  0  0  0  0
  -30.5260  -27.2562   21.5901 C   0  0  0  0  0  0  0  0  0  0  0  0
  -29.3170  -23.5240   25.5189 C   0  0  0  0  0  0  0  0  0  0  0  0
  -27.8420  -29.8794   24.9939 C   0  0  0  0  0  0  0  0  0  0  0  0
  -31.9097  -26.7631   21.1913 C   0  0  0  0  0  0  0  0  0  0  0  0
  -25.8585  -12.2737   22.8723 C   0  0  1  0  0  0  0  0  0  0  0  0
  -28.3510   -9.9140   24.4813 C   0  0  2  0  0  0  0  0  0  0  0  0
  -33.4742  -20.6139   20.2650 C   0  0  0  0  0  0  0  0  0  0  0  0
  -24.3314  -11.9936   22.9543 C   0  0  0  0  0  0  0  0  0  0  0  0
  -24.8322  -26.9535   20.5118 N   0  0  0  0  0  0  0  0  0  0  0  0
  -25.9542  -26.8832   19.7755 N   0  0  0  0  0  0  0  0  0  0  0  0
  -26.8872  -13.9402   21.3596 N   0  0  0  0  0  0  0  0  0  0  0  0
  -27.6428  -23.4757   19.4278 N   0  0  0  0  0  0  0  0  0  0  0  0
  -27.7698  -28.1745   18.9713 N   0  0  0  0  0  0  0  0  0  0  0  0
  -25.3415  -31.1540   21.3424 N   0  0  0  0  0  0  0  0  0  0  0  0
  -29.9525  -23.9527   19.4134 N   0  0  0  0  0  0  0  0  0  0  0  0
  -26.0397  -15.8578   18.3761 N   0  0  0  0  0  0  0  0  0  0  0  0
  -26.9705  -28.7753   25.3240 N   0  0  0  0  0  0  0  0  0  0  0  0
  -29.6302  -22.4119   24.6517 N   0  0  0  0  0  0  0  0  0  0  0  0
  -26.6951  -11.1406   23.2526 N   0  0  0  0  0  0  0  0  0  0  0  0
  -29.7504  -10.1718   24.9243 N   0  3  0  0  0  0  0  0  0  0  0  0
  -27.2176  -30.8887   20.0505 O   0  0  0  0  0  0  0  0  0  0  0  0
  -25.0765  -15.5088   20.4673 O   0  0  0  0  0  0  0  0  0  0  0  0
  -26.1268  -11.8915   20.5467 O   0  0  0  0  0  0  0  0  0  0  0  0
  -27.5189  -28.6116   27.5780 O   0  0  0  0  0  0  0  0  0  0  0  0
  -28.6947  -20.7331   25.9613 O   0  0  0  0  0  0  0  0  0  0  0  0
  -27.8229  -12.2211   24.9666 O   0  0  0  0  0  0  0  0  0  0  0  0
  -29.1488  -21.9485   18.5653 O   0  0  0  0  0  0  0  0  0  0  0  0
  -20.6058  -30.1057   24.0826 O   0  0  0  0  0  0  0  0  0  0  0  0
  -29.3951  -18.8020   24.2102 O   0  0  0  0  0  0  0  0  0  1  0  0
  -31.7999  -26.0051   19.9945 O   0  0  0  0  0  0  0  0  0  0  0  0
  -15.4768  -28.5917   22.7392 F   0  0  0  0  0  0  0  0  0  0  0  0
  -19.8854  -27.4375   24.0187 F   0  0  0  0  0  0  0  0  0  0  0  0
  -34.7852  -20.4706   20.6212 F   0  0  0  0  0  0  0  0  0  0  0  0
  -32.7758  -19.8664   21.1702 F   0  0  0  0  0  0  0  0  0  0  0  0
  -33.3452  -19.9605   19.0736 F   0  0  0  0  0  0  0  0  0  0  0  0
  1  2  1  0  0  0  0
  1  5  2  0  0  0  0
  2  6  2  0  0  0  0
  3  9  2  0  0  0  0
  3 18  1  0  0  0  0
  4 10  1  0  0  0  0
  4 18  2  0  0  0  0
  5 20  1  0  0  0  0
  6 22  1  0  0  0  0
  7 11  2  0  0  0  0
  7 21  1  0  0  0  0
  8 12  2  0  0  0  0
  8 24  1  0  0  0  0
  9 26  1  0  0  0  0
 10 26  2  0  0  0  0
 11 27  1  0  0  0  0
 12 28  1  0  0  0  0
 13 14  2  0  0  0  0
 13 29  1  0  0  0  0
 14 30  1  0  0  0  0
 15 23  1  0  0  0  0
 15 27  2  0  0  0  0
 16 24  2  0  0  0  0
 16 25  1  0  0  0  0
 17 30  2  0  0  0  0
 17 31  1  0  0  0  0
 18 32  1  0  0  0  0
 19 32  1  0  0  0  0
 19 33  2  0  0  0  0
 19 34  1  0  0  0  0
 20 22  2  0  0  0  0
 20 41  1  0  0  0  0
 21 23  2  0  0  0  0
 21 42  1  0  0  0  0
 22 50  1  0  0  0  0
 23 43  1  0  0  0  0
 24 72  1  0  0  0  0
 25 28  2  0  0  0  0
 25 80  1  0  0  0  0
 26 93  1  0  0  0  0
 27 94  1  0  0  0  0
 28 95  1  0  0  0  0
 29 31  2  0  0  0  0
 29 93  1  0  0  0  0
 30 96  1  0  0  0  0
 31 97  1  0  0  0  0
 32 74  2  0  0  0  0
 33 75  1  0  0  0  0
 33 78  1  0  0  0  0
 34 79  1  0  0  0  0
 34 86  2  0  0  0  0
 35 51  1  0  0  0  0
 35 81  1  0  0  0  0
 35 87  2  0  0  0  0
 36 70  1  0  0  0  0
 36 76  1  0  0  0  0
 36 88  2  0  0  0  0
 37 58  1  0  0  0  0
 37 82  1  0  0  0  0
 37 89  2  0  0  0  0
 38 59  1  0  0  0  0
 38 83  1  0  0  0  0
 38 90  2  0  0  0  0
 39 71  1  0  0  0  0
 39 84  1  0  0  0  0
 39 91  2  0  0  0  0
 40 77  1  0  0  0  0
 40 80  1  0  0  0  0
 40 92  2  0  0  0  0
 41 44  1  0  0  0  0
 42 51  1  0  0  0  0
 43 76  1  0  0  0  0
 44 46  1  0  0  0  0
 45 47  1  0  0  0  0
 45 48  1  0  0  0  0
 46 50  1  0  0  0  0
 47 52  1  0  0  0  0
 48 77  1  0  0  0  0
 49 52  1  0  0  0  0
 49 77  1  0  0  0  0
 50 81  1  0  0  0  0
 51 76  1  0  0  0  0
 52 75  1  0  0  0  0
 53 71  1  0  0  0  0
 54 73  1  0  0  0  0
 55 73  1  0  0  0  0
 56 73  1  0  0  0  0
 57 85  1  0  0  0  0
 58 60  1  0  0  0  0
 59 94  1  0  0  0  0
 60 61  1  0  0  0  0
 61 64  1  0  0  0  0
 62 63  1  0  0  0  0
 62 65  1  0  0  0  0
 63 66  1  0  0  0  0
 64 67  1  0  0  0  0
 65 68  1  0  0  0  0
 66 69  1  0  0  0  0
 67 83  1  0  0  0  0
 68 82  1  0  0  0  0
 69 95  1  0  0  0  0
 70 73  1  0  0  0  0
 70 84  1  0  0  0  0
 71 85  1  0  0  0  0
 72 98  1  0  0  0  0
 72 99  1  0  0  0  0
 72100  1  0  0  0  0
 74 75  1  0  0  0  0
M  CHG  1  85   1
M  ISO  4  40 100  59 101  80 100  94 101
M  END
> <Batch ID>
0005

> <Smiles>
CNC(C)C(=O)NC(C(=O)N1Cc2cc([101O:1][101CH2:1]C(=O)NCCCCCC(=O)NCCCCCCOc3ccc(C(F)(F)F)cc3[100NH:0][100C:0](=O)N3CCCC(n4nc(-c5ccc(Oc6ccc(F)cc6F)cc5)c(C(N)=O)c4N)C3)ccc2CC1C(=O)NC1CCCc2ccccc21)C(C)(C)C

> <Shape>
0.212

> <Color>
0.068

> <Negative vol penalty>
0.000

$$$$

  -OEChem-04052315263D

 99108  0     1  0  0  0  0  0999 V2000
  -29.0076  -24.5144   17.4259 C   0  0  0  0  0  0  0  0  0  0  0  0
  -27.7801  -24.6561   18.0649 C   0  0  0  0  0  0  0  0  0  0  0  0
  -28.4856  -18.3905   22.8212 C   0  0  0  0  0  0  0  0  0  0  0  0
  -28.1344  -20.1097   21.1605 C   0  0  0  0  0  0  0  0  0  0  0  0
  -30.1361  -25.1545   17.9366 C   0  0  0  0  0  0  0  0  0  0  0  0
  -27.6805  -25.4371   19.2158 C   0  0  0  0  0  0  0  0  0  0  0  0
  -23.6361  -28.4840   19.1519 C   0  0  0  0  0  0  0  0  0  0  0  0
  -20.0156  -17.7544   25.0515 C   0  0  0  0  0  0  0  0  0  0  0  0
  -17.9951  -18.7276   25.9500 C   0  0  0  0  0  0  0  0  0  0  0  0
  -29.2995  -17.6939   21.9279 C   0  0  0  0  0  0  0  0  0  0  0  0
  -28.9483  -19.4132   20.2672 C   0  0  0  0  0  0  0  0  0  0  0  0
  -22.4005  -27.9083   19.4443 C   0  0  0  0  0  0  0  0  0  0  0  0
  -19.2750  -17.1598   24.0300 C   0  0  0  0  0  0  0  0  0  0  0  0
  -17.2545  -18.1331   24.9284 C   0  0  0  0  0  0  0  0  0  0  0  0
  -32.4793  -17.8768   20.7929 C   0  0  0  0  0  0  0  0  0  0  0  0
  -33.6833  -17.3651   21.2768 C   0  0  0  0  0  0  0  0  0  0  0  0
  -22.5443  -28.7588   21.6972 C   0  0  0  0  0  0  0  0  0  0  0  0
  -18.7363  -21.6457   20.3413 C   0  0  0  0  0  0  0  0  0  0  0  0
  -18.4726  -23.3115   22.5635 C   0  0  0  0  0  0  0  0  0  0  0  0
  -32.9682  -15.1320   20.6943 C   0  0  0  0  0  0  0  0  0  0  0  0
  -27.9030  -19.5984   22.4375 C   0  0  0  0  0  0  0  0  0  0  0  0
  -27.4616  -21.2974   24.2885 C   0  0  0  0  0  0  0  0  0  0  0  0
  -30.0483  -25.9516   19.0888 C   0  0  0  0  0  0  0  0  0  0  0  0
  -24.3413  -29.1934   20.1346 C   0  0  0  0  0  0  0  0  0  0  0  0
  -28.8091  -26.0874   19.7432 C   0  0  0  0  0  0  0  0  0  0  0  0
  -23.7874  -29.3448   21.4139 C   0  0  0  0  0  0  0  0  0  0  0  0
  -19.4853  -22.8194   20.4259 C   0  0  0  0  0  0  0  0  0  0  0  0
  -17.7236  -22.1379   22.4789 C   0  0  0  0  0  0  0  0  0  0  0  0
  -19.3757  -18.5382   26.0116 C   0  0  0  0  0  0  0  0  0  0  0  0
  -17.8554  -21.3050   21.3678 C   0  0  0  0  0  0  0  0  0  0  0  0
  -29.5309  -18.2052   20.6510 C   0  0  0  0  0  0  0  0  0  0  0  0
  -17.8944  -17.3492   23.9684 C   0  0  0  0  0  0  0  0  0  0  0  0
  -21.8557  -28.0432   20.7180 C   0  0  0  0  0  0  0  0  0  0  0  0
  -31.5197  -17.0162   20.2598 C   0  0  0  0  0  0  0  0  0  0  0  0
  -19.3534  -23.6523   21.5370 C   0  0  0  0  0  0  0  0  0  0  0  0
  -33.9278  -15.9927   21.2274 C   0  0  0  0  0  0  0  0  0  0  0  0
  -31.7642  -15.6438   20.2105 C   0  0  0  0  0  0  0  0  0  0  0  0
  -27.0617  -20.3181   23.3596 C   0  0  0  0  0  0  0  0  0  0  0  0
  -26.2988  -21.6689   24.9179 C   0  0  0  0  0  0  0  0  0  0  0  0
  -28.7676  -21.8242   24.5582 C   0  0  0  0  0  0  0  0  0  0  0  0
  -27.1568  -28.8431   21.5677 C   0  0  0  0  0  0  0  0  0  0  0  0
  -26.4081  -31.7139   22.8793 C   0  0  0  0  0  0  0  0  0  0  0  0
  -17.1242  -19.1833   20.2248 C   0  0  0  0  0  0  0  0  0  0  0  0
  -23.9879  -33.9463   23.7769 C   0  0  0  0  0  0  0  0  0  0  0  0
  -21.4875  -19.5335   26.8724 C   0  0  0  0  0  0  0  0  0  0  0  0
  -31.3051  -26.5856   19.6304 C   0  0  0  0  0  0  0  0  0  0  0  0
  -25.6606  -29.8312   19.7955 C   0  0  0  0  0  0  0  0  0  0  0  0
  -24.4950  -30.1138   22.4985 C   0  0  0  0  0  0  0  0  0  0  0  0
  -31.0392  -27.6985   20.6408 C   0  0  0  0  0  0  0  0  0  0  0  0
  -21.4927  -21.3798   23.8336 C   0  0  0  0  0  0  0  0  0  0  0  0
  -29.9946  -27.2555   21.6604 C   0  0  0  0  0  0  0  0  0  0  0  0
  -22.9802  -21.3827   23.4829 C   0  0  0  0  0  0  0  0  0  0  0  0
  -21.0444  -20.0389   24.4158 C   0  0  0  0  0  0  0  0  0  0  0  0
  -23.3408  -19.5877   25.2204 C   0  0  0  0  0  0  0  0  0  0  0  0
  -28.6558  -26.9462   20.9797 C   0  0  1  0  0  0  0  0  0  0  0  0
  -26.5297  -30.0944   21.0213 C   0  0  1  0  0  0  0  0  0  0  0  0
  -23.8321  -20.9422   24.6863 C   0  0  1  0  0  0  0  0  0  0  0  0
  -20.4219  -23.1687   19.3168 C   0  0  0  0  0  0  0  0  0  0  0  0
  -16.7876  -21.7974   23.5929 C   0  0  0  0  0  0  0  0  0  0  0  0
  -19.5781  -16.4401   30.5301 C   0  0  0  0  0  0  0  0  0  0  0  0
  -23.6802  -36.1876   24.8628 C   0  0  0  0  0  0  0  0  0  0  0  0
  -26.9145  -30.4563   25.6128 C   0  0  0  0  0  0  0  0  0  0  0  0
  -25.7017  -32.3865   26.6480 C   0  0  0  0  0  0  0  0  0  0  0  0
  -27.7978  -32.7818   25.3545 C   0  0  0  0  0  0  0  0  0  0  0  0
  -22.7529  -35.0864   21.3409 C   0  0  0  0  0  0  0  0  0  0  0  0
  -16.1604  -18.0384   20.5105 C   0  0  0  0  0  0  0  0  0  0  0  0
  -20.0910  -17.5557   29.6328 C   0  0  0  0  0  0  0  0  0  0  0  0
  -16.8312  -16.6697   20.5794 C   0  0  0  0  0  0  0  0  0  0  0  0
  -18.9467  -18.4383   29.1293 C   0  0  0  0  0  0  0  0  0  0  0  0
  -19.4371  -19.6024   28.2747 C   0  0  0  0  0  0  0  0  0  0  0  0
  -17.8324  -16.5632   21.7247 C   0  0  0  0  0  0  0  0  0  0  0  0
  -20.4332  -27.0653   22.3539 C   0  0  0  0  0  0  0  0  0  1  0  0
  -19.4880  -25.8795   22.3598 C   0  0  0  0  0  0  0  0  0  0  0  0
  -25.6786  -32.1639   24.1220 C   0  0  1  0  0  0  0  0  0  0  0  0
  -23.8630  -35.4421   23.5500 C   0  0  2  0  0  0  0  0  0  0  0  0
  -26.5105  -31.9309   25.4147 C   0  0  0  0  0  0  0  0  0  0  0  0
  -25.7474  -20.0823   23.3927 N   0  0  0  0  0  0  0  0  0  0  0  0
  -25.3115  -20.9186   24.3500 N   0  0  0  0  0  0  0  0  0  0  0  0
  -25.7851  -30.7136   22.1197 N   0  0  0  0  0  0  0  0  0  0  0  0
  -21.9109  -19.6407   25.5342 N   0  0  0  0  0  0  0  0  0  0  0  0
  -26.0347  -22.5609   25.8961 N   0  0  0  0  0  0  0  0  0  0  0  0
  -29.8523  -21.3316   23.8199 N   0  0  0  0  0  0  0  0  0  0  0  0
  -17.1133  -20.1257   21.2645 N   0  0  0  0  0  0  0  0  0  0  0  0
  -27.9555  -28.1721   20.6615 N   0  0  0  0  0  0  0  0  0  0  0  0
  -25.3050  -33.5557   23.8945 N   0  0  0  0  0  0  0  0  0  0  0  0
  -20.1424  -19.1538   27.0693 N   0  0  0  0  0  0  0  0  0  0  0  0
  -22.6934  -35.7374   22.6750 N   0  3  0  0  0  0  0  0  0  0  0  0
  -28.9691  -22.6937   25.4396 O   0  0  0  0  0  0  0  0  0  0  0  0
  -26.9339  -28.5117   22.7263 O   0  0  0  0  0  0  0  0  0  0  0  0
  -27.4875  -32.2359   22.5893 O   0  0  0  0  0  0  0  0  0  0  0  0
  -17.7839  -19.2378   19.1922 O   0  0  0  0  0  0  0  0  0  0  0  0
  -23.0141  -33.1996   23.8468 O   0  0  0  0  0  0  0  0  0  0  0  0
  -22.2582  -19.7357   27.8185 O   0  0  0  0  0  0  0  0  0  0  0  0
  -30.3252  -17.5259   19.7791 O   0  0  0  0  0  0  0  0  0  0  0  0
  -17.1667  -16.7652   22.9648 O   0  0  0  0  0  0  0  0  0  0  0  0
  -20.6501  -27.4817   21.0063 O   0  0  0  0  0  0  0  0  0  1  0  0
  -20.0813  -24.8088   21.6353 O   0  0  0  0  0  0  0  0  0  0  0  0
  -35.0846  -15.5015   21.6907 F   0  0  0  0  0  0  0  0  0  0  0  0
  -30.8466  -14.8122   19.6984 F   0  0  0  0  0  0  0  0  0  0  0  0
  1  2  1  0  0  0  0
  1  5  2  0  0  0  0
  2  6  2  0  0  0  0
  3 10  2  0  0  0  0
  3 21  1  0  0  0  0
  4 11  1  0  0  0  0
  4 21  2  0  0  0  0
  5 23  1  0  0  0  0
  6 25  1  0  0  0  0
  7 12  2  0  0  0  0
  7 24  1  0  0  0  0
  8 13  2  0  0  0  0
  8 29  1  0  0  0  0
  9 14  1  0  0  0  0
  9 29  2  0  0  0  0
 10 31  1  0  0  0  0
 11 31  2  0  0  0  0
 12 33  1  0  0  0  0
 13 32  1  0  0  0  0
 14 32  2  0  0  0  0
 15 16  2  0  0  0  0
 15 34  1  0  0  0  0
 16 36  1  0  0  0  0
 17 26  1  0  0  0  0
 17 33  2  0  0  0  0
 18 27  2  0  0  0  0
 18 30  1  0  0  0  0
 19 28  1  0  0  0  0
 19 35  2  0  0  0  0
 20 36  2  0  0  0  0
 20 37  1  0  0  0  0
 21 38  1  0  0  0  0
 22 38  1  0  0  0  0
 22 39  2  0  0  0  0
 22 40  1  0  0  0  0
 23 25  2  0  0  0  0
 23 46  1  0  0  0  0
 24 26  2  0  0  0  0
 24 47  1  0  0  0  0
 25 55  1  0  0  0  0
 26 48  1  0  0  0  0
 27 35  1  0  0  0  0
 27 58  1  0  0  0  0
 28 30  2  0  0  0  0
 28 59  1  0  0  0  0
 29 86  1  0  0  0  0
 30 83  1  0  0  0  0
 31 94  1  0  0  0  0
 32 95  1  0  0  0  0
 33 96  1  0  0  0  0
 34 37  2  0  0  0  0
 34 94  1  0  0  0  0
 35 97  1  0  0  0  0
 36 98  1  0  0  0  0
 37 99  1  0  0  0  0
 38 77  2  0  0  0  0
 39 78  1  0  0  0  0
 39 81  1  0  0  0  0
 40 82  1  0  0  0  0
 40 88  2  0  0  0  0
 41 56  1  0  0  0  0
 41 84  1  0  0  0  0
 41 89  2  0  0  0  0
 42 74  1  0  0  0  0
 42 79  1  0  0  0  0
 42 90  2  0  0  0  0
 43 66  1  0  0  0  0
 43 83  1  0  0  0  0
 43 91  2  0  0  0  0
 44 75  1  0  0  0  0
 44 85  1  0  0  0  0
 44 92  2  0  0  0  0
 45 80  1  0  0  0  0
 45 86  1  0  0  0  0
 45 93  2  0  0  0  0
 46 49  1  0  0  0  0
 47 56  1  0  0  0  0
 48 79  1  0  0  0  0
 49 51  1  0  0  0  0
 50 52  1  0  0  0  0
 50 53  1  0  0  0  0
 51 55  1  0  0  0  0
 52 57  1  0  0  0  0
 53 80  1  0  0  0  0
 54 57  1  0  0  0  0
 54 80  1  0  0  0  0
 55 84  1  0  0  0  0
 56 79  1  0  0  0  0
 57 78  1  0  0  0  0
 60 67  1  0  0  0  0
 61 75  1  0  0  0  0
 62 76  1  0  0  0  0
 63 76  1  0  0  0  0
 64 76  1  0  0  0  0
 65 87  1  0  0  0  0
 66 68  1  0  0  0  0
 67 69  1  0  0  0  0
 68 71  1  0  0  0  0
 69 70  1  0  0  0  0
 70 86  1  0  0  0  0
 71 95  1  0  0  0  0
 72 73  1  0  0  0  0
 72 96  1  0  0  0  0
 73 97  1  0  0  0  0
 74 76  1  0  0  0  0
 74 85  1  0  0  0  0
 75 87  1  0  0  0  0
 77 78  1  0  0  0  0
M  CHG  1  87   1
M  ISO  4  45 100  72 101  86 100  96 101
M  END
> <Batch ID>
0005

> <Smiles>
CCCC[100N:0](c1ccc(OCCCC(=O)Nc2cc(C)c(OC[101CH2:1][101O:1]c3ccc4c(c3)CN(C(=O)C(NC(=O)C(C)NC)C(C)(C)C)C(C(=O)NC3CCCc5ccccc53)C4)cc2C)cc1)[100C:0](=O)N1CCCC(n2nc(-c3ccc(Oc4ccc(F)cc4F)cc3)c(C(N)=O)c2N)C1

> <Shape>
0.220

> <Color>
0.062

> <Negative vol penalty>
0.000

$$$$

  -OEChem-04052315263D

106114  0     1  0  0  0  0  0999 V2000
  -29.0536  -24.3003   17.7398 C   0  0  0  0  0  0  0  0  0  0  0  0
  -27.8844  -24.4131   18.4852 C   0  0  0  0  0  0  0  0  0  0  0  0
  -23.3451  -11.1426   23.0786 C   0  0  0  0  0  0  0  0  0  0  0  0
  -22.3654  -10.5488   20.9515 C   0  0  0  0  0  0  0  0  0  0  0  0
  -31.8304  -19.3225   19.9146 C   0  0  0  0  0  0  0  0  0  0  0  0
  -32.4782  -17.8588   21.7243 C   0  0  0  0  0  0  0  0  0  0  0  0
  -30.1731  -25.0574   18.0825 C   0  0  0  0  0  0  0  0  0  0  0  0
  -27.8344  -25.2822   19.5745 C   0  0  0  0  0  0  0  0  0  0  0  0
  -23.5819  -28.0303   19.6735 C   0  0  0  0  0  0  0  0  0  0  0  0
  -30.5638  -18.7387   19.8956 C   0  0  0  0  0  0  0  0  0  0  0  0
  -31.2115  -17.2750   21.7054 C   0  0  0  0  0  0  0  0  0  0  0  0
  -22.3142  -10.4750   23.7398 C   0  0  0  0  0  0  0  0  0  0  0  0
  -21.3345   -9.8812   21.6126 C   0  0  0  0  0  0  0  0  0  0  0  0
  -22.4267  -27.3994   20.1331 C   0  0  0  0  0  0  0  0  0  0  0  0
  -20.1367   -8.6201   25.9831 C   0  0  0  0  0  0  0  0  0  0  0  0
  -20.4811   -7.7894   27.0495 C   0  0  0  0  0  0  0  0  0  0  0  0
  -22.7166  -28.4495   22.2853 C   0  0  0  0  0  0  0  0  0  0  0  0
  -21.8424   -6.4519   25.5680 C   0  0  0  0  0  0  0  0  0  0  0  0
  -23.3706  -11.1796   21.6844 C   0  0  0  0  0  0  0  0  0  0  0  0
  -32.7877  -18.8826   20.8289 C   0  0  0  0  0  0  0  0  0  0  0  0
  -25.6669  -11.3310   20.5835 C   0  0  0  0  0  0  0  0  0  0  0  0
  -30.1337  -25.9435   19.1706 C   0  0  0  0  0  0  0  0  0  0  0  0
  -24.3204  -28.8683   20.5212 C   0  0  0  0  0  0  0  0  0  0  0  0
  -28.9548  -26.0509   19.9328 C   0  0  0  0  0  0  0  0  0  0  0  0
  -23.8795  -29.0919   21.8333 C   0  0  0  0  0  0  0  0  0  0  0  0
  -30.2543  -17.7149   20.7910 C   0  0  0  0  0  0  0  0  0  0  0  0
  -21.3089   -9.8443   23.0068 C   0  0  0  0  0  0  0  0  0  0  0  0
  -21.9955  -27.6067   21.4400 C   0  0  0  0  0  0  0  0  0  0  0  0
  -20.6451   -8.3666   24.7092 C   0  0  0  0  0  0  0  0  0  0  0  0
  -21.3339   -6.7054   26.8419 C   0  0  0  0  0  0  0  0  0  0  0  0
  -21.4980   -7.2825   24.5016 C   0  0  0  0  0  0  0  0  0  0  0  0
  -24.4350  -11.8695   21.0008 C   0  0  0  0  0  0  0  0  0  0  0  0
  -26.3181  -12.3839   19.9887 C   0  0  0  0  0  0  0  0  0  0  0  0
  -34.1240  -19.4984   20.8487 C   0  0  0  0  0  0  0  0  0  0  0  0
  -26.1770   -9.9981   20.7212 C   0  0  0  0  0  0  0  0  0  0  0  0
  -27.2768  -28.8355   21.6886 C   0  0  0  0  0  0  0  0  0  0  0  0
  -26.4386  -31.7516   22.8360 C   0  0  0  0  0  0  0  0  0  0  0  0
  -24.4514  -18.5872   23.6390 C   0  0  0  0  0  0  0  0  0  0  0  0
  -19.7650  -24.8813   22.3159 C   0  0  0  0  0  0  0  0  0  0  0  0
  -23.9507  -33.8836   23.7909 C   0  0  0  0  0  0  0  0  0  0  0  0
  -27.8035  -17.8463   20.3774 C   0  0  0  0  0  0  0  0  0  0  0  0
  -31.3840  -26.7059   19.5315 C   0  0  0  0  0  0  0  0  0  0  0  0
  -25.5497  -29.5625   20.0020 C   0  0  0  0  0  0  0  0  0  0  0  0
  -24.6254  -29.9982   22.7770 C   0  0  0  0  0  0  0  0  0  0  0  0
  -31.1304  -27.8815   20.4717 C   0  0  0  0  0  0  0  0  0  0  0  0
  -24.6680  -16.9629   18.6457 C   0  0  0  0  0  0  0  0  0  0  0  0
  -30.2232  -27.4585   21.6227 C   0  0  0  0  0  0  0  0  0  0  0  0
  -24.4027  -15.5377   19.1278 C   0  0  0  0  0  0  0  0  0  0  0  0
  -25.4253  -17.7817   19.6870 C   0  0  0  0  0  0  0  0  0  0  0  0
  -26.4317  -15.7221   20.6226 C   0  0  0  0  0  0  0  0  0  0  0  0
  -28.8537  -27.0011   21.1063 C   0  0  1  0  0  0  0  0  0  0  0  0
  -26.5077  -29.9893   21.1099 C   0  0  1  0  0  0  0  0  0  0  0  0
  -25.7078  -14.8590   19.5782 C   0  0  1  0  0  0  0  0  0  0  0  0
  -28.4443  -15.2737   22.3408 C   0  0  0  0  0  0  0  0  0  0  0  0
  -23.5770  -36.1844   24.7204 C   0  0  0  0  0  0  0  0  0  0  0  0
  -27.2941  -30.7727   25.5964 C   0  0  0  0  0  0  0  0  0  0  0  0
  -26.0408  -32.6983   26.5910 C   0  0  0  0  0  0  0  0  0  0  0  0
  -27.9697  -33.1216   25.0669 C   0  0  0  0  0  0  0  0  0  0  0  0
  -35.5313  -21.5003   21.1417 C   0  0  0  0  0  0  0  0  0  0  0  0
  -22.6670  -16.9274   23.2442 C   0  0  0  0  0  0  0  0  0  0  0  0
  -22.4089  -34.7220   21.4078 C   0  0  0  0  0  0  0  0  0  0  0  0
  -24.9694  -19.9960   23.3697 C   0  0  0  0  0  0  0  0  0  0  0  0
  -20.5353  -25.7327   21.3294 C   0  0  0  0  0  0  0  0  0  1  0  0
  -26.3143  -20.3021   24.0362 C   0  0  0  0  0  0  0  0  0  0  0  0
  -26.8383  -21.7283   23.8202 C   0  0  0  0  0  0  0  0  0  0  0  0
  -28.1965  -21.9913   24.4752 C   0  0  0  0  0  0  0  0  0  0  0  0
  -28.6808  -23.4149   24.1899 C   0  0  0  0  0  0  0  0  0  0  0  0
  -30.0012  -23.7648   24.8842 C   0  0  0  0  0  0  0  0  0  0  0  0
  -31.1911  -22.8539   24.5629 C   0  0  0  0  0  0  0  0  0  0  0  0
  -31.5418  -22.7997   23.0740 C   0  0  0  0  0  0  0  0  0  0  0  0
  -20.5407  -20.9212   22.3571 C   0  0  0  0  0  0  0  0  0  0  0  0
  -32.7162  -21.8495   22.8175 C   0  0  0  0  0  0  0  0  0  0  0  0
  -19.5926  -21.6997   23.2746 C   0  0  0  0  0  0  0  0  0  0  0  0
  -21.3974  -19.9341   23.1564 C   0  0  0  0  0  0  0  0  0  0  0  0
  -28.8392  -15.6570   20.9289 C   0  0  0  0  0  0  0  0  0  0  0  0
  -18.6815  -22.6506   22.5051 C   0  0  0  0  0  0  0  0  0  0  0  0
  -33.0833  -21.7590   21.3400 C   0  0  0  0  0  0  0  0  0  0  0  0
  -22.3961  -19.1830   22.2821 C   0  0  0  0  0  0  0  0  0  0  0  0
  -25.7971  -32.2568   24.1057 C   0  0  1  0  0  0  0  0  0  0  0  0
  -23.6917  -35.3422   23.4594 C   0  0  2  0  0  0  0  0  0  0  0  0
  -26.7622  -32.1937   25.3231 C   0  0  0  0  0  0  0  0  0  0  0  0
  -24.3087  -13.1640   20.6970 N   0  0  0  0  0  0  0  0  0  0  0  0
  -25.4698  -13.4478   20.0826 N   0  0  0  0  0  0  0  0  0  0  0  0
  -25.8247  -30.6492   22.2246 N   0  0  0  0  0  0  0  0  0  0  0  0
  -26.6378  -17.0933   20.1315 N   0  0  0  0  0  0  0  0  0  0  0  0
  -27.5278  -12.4943   19.3999 N   0  0  0  0  0  0  0  0  0  0  0  0
  -25.3774   -9.0392   21.3580 N   0  0  0  0  0  0  0  0  0  0  0  0
  -28.0353  -28.1444   20.7632 N   0  0  0  0  0  0  0  0  0  0  0  0
  -19.4179  -23.6471   21.7779 N   0  0  0  0  0  0  0  0  0  0  0  0
  -25.2990  -33.5951   23.8068 N   0  0  0  0  0  0  0  0  0  0  0  0
  -28.9428  -17.1113   20.7707 N   0  0  0  0  0  0  0  0  0  0  0  0
  -34.2003  -20.8851   21.1069 N   0  0  0  0  0  0  0  0  0  0  0  0
  -23.2252  -18.2595   23.0512 N   0  0  0  0  0  0  0  0  0  0  0  0
  -22.4258  -35.4805   22.6851 N   0  3  0  0  0  0  0  0  0  0  0  0
  -35.0744  -18.7433   20.6472 O   0  0  0  0  0  0  0  0  0  0  0  0
  -27.3150   -9.6714   20.3068 O   0  0  0  0  0  0  0  0  0  0  0  0
  -27.1896  -28.5913   22.8863 O   0  0  0  0  0  0  0  0  0  0  0  0
  -27.4430  -32.3187   22.3988 O   0  0  0  0  0  0  0  0  0  0  0  0
  -25.1049  -17.7993   24.3271 O   0  0  0  0  0  0  0  0  0  0  0  0
  -19.4918  -25.2624   23.4509 O   0  0  0  0  0  0  0  0  0  0  0  0
  -23.0475  -33.0813   24.0171 O   0  0  0  0  0  0  0  0  0  0  0  0
  -27.8310  -19.0737   20.2281 O   0  0  0  0  0  0  0  0  0  0  0  0
  -20.3029   -9.1926   23.6517 O   0  0  0  0  0  0  0  0  0  0  0  0
  -20.8569  -26.9852   21.8960 O   0  0  0  0  0  0  0  0  0  1  0  0
  -21.6658   -5.9087   27.8663 F   0  0  0  0  0  0  0  0  0  0  0  0
  -21.9905   -7.0346   23.2802 F   0  0  0  0  0  0  0  0  0  0  0  0
  1  2  1  0  0  0  0
  1  7  2  0  0  0  0
  2  8  2  0  0  0  0
  3 12  2  0  0  0  0
  3 19  1  0  0  0  0
  4 13  1  0  0  0  0
  4 19  2  0  0  0  0
  5 10  2  0  0  0  0
  5 20  1  0  0  0  0
  6 11  1  0  0  0  0
  6 20  2  0  0  0  0
  7 22  1  0  0  0  0
  8 24  1  0  0  0  0
  9 14  2  0  0  0  0
  9 23  1  0  0  0  0
 10 26  1  0  0  0  0
 11 26  2  0  0  0  0
 12 27  1  0  0  0  0
 13 27  2  0  0  0  0
 14 28  1  0  0  0  0
 15 16  2  0  0  0  0
 15 29  1  0  0  0  0
 16 30  1  0  0  0  0
 17 25  1  0  0  0  0
 17 28  2  0  0  0  0
 18 30  2  0  0  0  0
 18 31  1  0  0  0  0
 19 32  1  0  0  0  0
 20 34  1  0  0  0  0
 21 32  1  0  0  0  0
 21 33  2  0  0  0  0
 21 35  1  0  0  0  0
 22 24  2  0  0  0  0
 22 42  1  0  0  0  0
 23 25  2  0  0  0  0
 23 43  1  0  0  0  0
 24 51  1  0  0  0  0
 25 44  1  0  0  0  0
 26 91  1  0  0  0  0
 27103  1  0  0  0  0
 28104  1  0  0  0  0
 29 31  2  0  0  0  0
 29103  1  0  0  0  0
 30105  1  0  0  0  0
 31106  1  0  0  0  0
 32 82  2  0  0  0  0
 33 83  1  0  0  0  0
 33 86  1  0  0  0  0
 34 92  1  0  0  0  0
 34 95  2  0  0  0  0
 35 87  1  0  0  0  0
 35 96  2  0  0  0  0
 36 52  1  0  0  0  0
 36 88  1  0  0  0  0
 36 97  2  0  0  0  0
 37 79  1  0  0  0  0
 37 84  1  0  0  0  0
 37 98  2  0  0  0  0
 38 62  1  0  0  0  0
 38 93  1  0  0  0  0
 38 99  2  0  0  0  0
 39 63  1  0  0  0  0
 39 89  1  0  0  0  0
 39100  2  0  0  0  0
 40 80  1  0  0  0  0
 40 90  1  0  0  0  0
 40101  2  0  0  0  0
 41 85  1  0  0  0  0
 41 91  1  0  0  0  0
 41102  2  0  0  0  0
 42 45  1  0  0  0  0
 43 52  1  0  0  0  0
 44 84  1  0  0  0  0
 45 47  1  0  0  0  0
 46 48  1  0  0  0  0
 46 49  1  0  0  0  0
 47 51  1  0  0  0  0
 48 53  1  0  0  0  0
 49 85  1  0  0  0  0
 50 53  1  0  0  0  0
 50 85  1  0  0  0  0
 51 88  1  0  0  0  0
 52 84  1  0  0  0  0
 53 83  1  0  0  0  0
 54 75  1  0  0  0  0
 55 80  1  0  0  0  0
 56 81  1  0  0  0  0
 57 81  1  0  0  0  0
 58 81  1  0  0  0  0
 59 92  1  0  0  0  0
 60 93  1  0  0  0  0
 61 94  1  0  0  0  0
 62 64  1  0  0  0  0
 63104  1  0  0  0  0
 64 65  1  0  0  0  0
 65 66  1  0  0  0  0
 66 67  1  0  0  0  0
 67 68  1  0  0  0  0
 68 69  1  0  0  0  0
 69 70  1  0  0  0  0
 70 72  1  0  0  0  0
 71 73  1  0  0  0  0
 71 74  1  0  0  0  0
 72 77  1  0  0  0  0
 73 76  1  0  0  0  0
 74 78  1  0  0  0  0
 75 91  1  0  0  0  0
 76 89  1  0  0  0  0
 77 92  1  0  0  0  0
 78 93  1  0  0  0  0
 79 81  1  0  0  0  0
 79 90  1  0  0  0  0
 80 94  1  0  0  0  0
 82 83  1  0  0  0  0
M  CHG  1  94   1
M  ISO  4  41 100  63 101  91 100 104 101
M  END
> <Batch ID>
0005

> <Smiles>
CC[100N:0](c1ccc(C(=O)N(C)CCCCCCCCCCC(=O)N(C)CCCCCNC(=O)[101CH2:1][101O:1]c2ccc3c(c2)CN(C(=O)C(NC(=O)C(C)NC)C(C)(C)C)C(C(=O)NC2CCCc4ccccc42)C3)cc1)[100C:0](=O)N1CCCC(n2nc(-c3ccc(Oc4ccc(F)cc4F)cc3)c(C(N)=O)c2N)C1

> <Shape>
0.300

> <Color>
0.057

> <Negative vol penalty>
0.000

$$$$

  -OEChem-04052315263D

 97105  0     1  0  0  0  0  0999 V2000
  -32.9903  -13.7649   20.0056 C   0  0  0  0  0  0  0  0  0  0  0  0
  -32.1609  -14.8260   19.6571 C   0  0  0  0  0  0  0  0  0  0  0  0
  -29.5938  -28.7611   20.5281 C   0  0  0  0  0  0  0  0  0  0  0  0
  -27.9065  -27.6059   19.2414 C   0  0  0  0  0  0  0  0  0  0  0  0
  -18.4769  -27.3690   23.5519 C   0  0  0  0  0  0  0  0  0  0  0  0
  -32.4913  -12.4630   20.0075 C   0  0  0  0  0  0  0  0  0  0  0  0
  -30.8322  -14.5858   19.3091 C   0  0  0  0  0  0  0  0  0  0  0  0
  -26.0161  -18.1900   20.4581 C   0  0  0  0  0  0  0  0  0  0  0  0
  -19.5388  -28.2701   23.6287 C   0  0  0  0  0  0  0  0  0  0  0  0
  -30.4791  -27.7043   20.3161 C   0  0  0  0  0  0  0  0  0  0  0  0
  -28.7918  -26.5490   19.0294 C   0  0  0  0  0  0  0  0  0  0  0  0
  -25.3321  -19.1193   19.6755 C   0  0  0  0  0  0  0  0  0  0  0  0
  -29.9437  -23.8796   20.7553 C   0  0  0  0  0  0  0  0  0  0  0  0
  -29.4565  -22.5831   20.9205 C   0  0  0  0  0  0  0  0  0  0  0  0
  -18.9607  -26.9981   21.2141 C   0  0  0  0  0  0  0  0  0  0  0  0
  -23.7038  -17.4327   19.1067 C   0  0  0  0  0  0  0  0  0  0  0  0
  -29.9977  -22.0864   18.6189 C   0  0  0  0  0  0  0  0  0  0  0  0
  -28.3075  -28.7119   19.9908 C   0  0  0  0  0  0  0  0  0  0  0  0
  -18.1879  -26.7329   22.3446 C   0  0  0  0  0  0  0  0  0  0  0  0
  -27.2235  -30.9456   19.4050 C   0  0  0  0  0  0  0  0  0  0  0  0
  -31.1531  -12.2077   19.6687 C   0  0  0  0  0  0  0  0  0  0  0  0
  -25.5544  -16.8700   20.5623 C   0  0  0  0  0  0  0  0  0  0  0  0
  -30.3151  -13.2791   19.3051 C   0  0  0  0  0  0  0  0  0  0  0  0
  -24.3824  -16.4893   19.8933 C   0  0  0  0  0  0  0  0  0  0  0  0
  -20.0226  -27.8993   21.2909 C   0  0  0  0  0  0  0  0  0  0  0  0
  -20.3116  -28.5353   22.4982 C   0  0  0  0  0  0  0  0  0  0  0  0
  -30.0781  -26.5982   19.5668 C   0  0  0  0  0  0  0  0  0  0  0  0
  -24.1774  -18.7399   18.9974 C   0  0  0  0  0  0  0  0  0  0  0  0
  -30.4578  -24.2796   19.5218 C   0  0  0  0  0  0  0  0  0  0  0  0
  -29.4836  -21.6865   19.8524 C   0  0  0  0  0  0  0  0  0  0  0  0
  -30.4848  -23.3829   18.4536 C   0  0  0  0  0  0  0  0  0  0  0  0
  -27.3923  -29.8031   20.2099 C   0  0  0  0  0  0  0  0  0  0  0  0
  -26.2434  -31.6700   20.0384 C   0  0  0  0  0  0  0  0  0  0  0  0
  -17.0561  -25.7740   22.2629 C   0  0  0  0  0  0  0  0  0  0  0  0
  -27.8927  -31.3188   18.1932 C   0  0  0  0  0  0  0  0  0  0  0  0
  -26.7283  -14.0163   19.7996 C   0  0  0  0  0  0  0  0  0  0  0  0
  -24.0601  -12.9490   21.3043 C   0  0  0  0  0  0  0  0  0  0  0  0
  -20.8636  -13.5726   22.3242 C   0  0  0  0  0  0  0  0  0  0  0  0
  -17.0663  -21.7392   16.2561 C   0  0  0  0  0  0  0  0  0  0  0  0
  -21.7918  -30.1612   23.7278 C   0  0  0  0  0  0  0  0  0  0  0  0
  -30.6717  -10.7787   19.6392 C   0  0  0  0  0  0  0  0  0  0  0  0
  -26.2888  -15.8867   21.4319 C   0  0  0  0  0  0  0  0  0  0  0  0
  -23.8338  -15.0898   19.9886 C   0  0  0  0  0  0  0  0  0  0  0  0
  -29.1508  -10.6486   19.6206 C   0  0  0  0  0  0  0  0  0  0  0  0
  -24.4076  -32.4855   24.3857 C   0  0  0  0  0  0  0  0  0  0  0  0
  -28.5460  -11.6022   18.5952 C   0  0  0  0  0  0  0  0  0  0  0  0
  -25.4518  -32.1694   23.3125 C   0  0  0  0  0  0  0  0  0  0  0  0
  -23.7141  -31.2219   24.8918 C   0  0  0  0  0  0  0  0  0  0  0  0
  -24.1774  -30.0549   22.7722 C   0  0  0  0  0  0  0  0  0  0  0  0
  -28.8613  -13.0614   18.9455 C   0  0  1  0  0  0  0  0  0  0  0  0
  -26.0149  -14.4342   21.0542 C   0  0  1  0  0  0  0  0  0  0  0  0
  -24.8569  -31.3029   22.1852 C   0  0  2  0  0  0  0  0  0  0  0  0
  -20.8337  -28.1648   20.0643 C   0  0  0  0  0  0  0  0  0  0  0  0
  -18.9244  -12.4948   23.4968 C   0  0  0  0  0  0  0  0  0  0  0  0
  -16.5819  -23.7523   13.9997 C   0  0  0  0  0  0  0  0  0  0  0  0
  -18.8223  -23.1377   13.0587 C   0  0  0  0  0  0  0  0  0  0  0  0
  -23.4374  -11.3384   18.7887 C   0  0  0  0  0  0  0  0  0  0  0  0
  -21.0948  -11.0639   19.6286 C   0  0  0  0  0  0  0  0  0  0  0  0
  -23.0038  -10.1301   20.9350 C   0  0  0  0  0  0  0  0  0  0  0  0
  -20.9007  -15.5912   24.4882 C   0  0  0  0  0  0  0  0  0  0  0  0
  -15.7732  -23.3529   20.3862 C   0  0  0  0  0  0  0  0  0  0  0  0
  -16.5902  -23.3298   19.0897 C   0  0  0  0  0  0  0  0  0  0  0  0
  -19.9110  -20.6893   17.7716 C   0  0  0  0  0  0  0  0  0  0  0  0
  -21.4294  -20.8252   17.8890 C   0  0  0  0  0  0  0  0  0  0  0  0
  -15.3428  -24.7623   20.7806 C   0  0  0  0  0  0  0  0  0  0  0  0
  -17.0306  -21.9204   18.7138 C   0  0  0  0  0  0  0  0  0  0  0  0
  -19.2161  -22.0351   17.5912 C   0  0  0  0  0  0  0  0  0  0  0  0
  -22.0969  -19.4734   18.1089 C   0  0  0  0  0  0  0  0  0  1  0  0
  -22.6469  -12.6324   20.8783 C   0  0  1  0  0  0  0  0  0  0  0  0
  -20.1703  -13.3521   23.6565 C   0  0  2  0  0  0  0  0  0  0  0  0
  -17.8750  -21.7361   14.9596 C   0  0  2  0  0  0  0  0  0  0  0  0
  -17.9513  -23.1416   14.3193 C   0  0  0  0  0  0  0  0  0  0  0  0
  -22.5569  -11.3171   20.0541 C   0  0  0  0  0  0  0  0  0  0  0  0
  -26.5844  -29.7976   21.2735 N   0  0  0  0  0  0  0  0  0  0  0  0
  -25.8984  -30.9457   21.1413 N   0  0  0  0  0  0  0  0  0  0  0  0
  -24.5910  -14.1631   20.8462 N   0  0  0  0  0  0  0  0  0  0  0  0
  -23.1715  -30.4538   23.7691 N   0  0  0  0  0  0  0  0  0  0  0  0
  -25.6517  -32.8496   19.7539 N   0  0  0  0  0  0  0  0  0  0  0  0
  -28.8737  -30.4594   17.6798 N   0  0  0  0  0  0  0  0  0  0  0  0
  -21.3860  -29.4539   22.5966 N   0  0  0  0  0  0  0  0  0  0  0  0
  -16.4623  -25.6321   21.0137 N   0  0  0  0  0  0  0  0  0  0  0  0
  -28.0008  -13.5220   20.0141 N   0  0  0  0  0  0  0  0  0  0  0  0
  -21.8442  -12.6303   22.0966 N   0  0  0  0  0  0  0  0  0  0  0  0
  -17.7909  -21.9066   17.4571 N   0  0  0  0  0  0  0  0  0  0  0  0
  -17.2822  -20.7508   14.0018 N   0  3  0  0  0  0  0  0  0  0  0  0
  -19.7694  -14.6571   24.2541 N   0  3  0  0  0  0  0  0  0  0  0  0
  -16.6950  -25.1841   23.2779 O   0  0  0  0  0  0  0  0  0  0  0  0
  -27.6403  -32.3907   17.5925 O   0  0  0  0  0  0  0  0  0  0  0  0
  -26.1655  -14.1322   18.7173 O   0  0  0  0  0  0  0  0  0  0  0  0
  -24.6681  -12.1518   22.0230 O   0  0  0  0  0  0  0  0  0  0  0  0
  -20.5628  -14.4870   21.5600 O   0  0  0  0  0  0  0  0  0  0  0  0
  -15.8386  -21.6052   16.2077 O   0  0  0  0  0  0  0  0  0  0  0  0
  -21.0221  -30.5359   24.6161 O   0  0  0  0  0  0  0  0  0  0  0  0
  -30.9417  -25.5669   19.3595 O   0  0  0  0  0  0  0  0  0  0  0  0
  -23.5082  -19.6448   18.2324 O   0  0  0  0  0  0  0  0  0  1  0  0
  -29.0172  -20.4410   20.0117 F   0  0  0  0  0  0  0  0  0  0  0  0
  -30.9786  -23.7610   17.2666 F   0  0  0  0  0  0  0  0  0  0  0  0
  1  2  1  0  0  0  0
  1  6  2  0  0  0  0
  2  7  2  0  0  0  0
  3 10  2  0  0  0  0
  3 18  1  0  0  0  0
  4 11  1  0  0  0  0
  4 18  2  0  0  0  0
  5  9  2  0  0  0  0
  5 19  1  0  0  0  0
  6 21  1  0  0  0  0
  7 23  1  0  0  0  0
  8 12  2  0  0  0  0
  8 22  1  0  0  0  0
  9 26  1  0  0  0  0
 10 27  1  0  0  0  0
 11 27  2  0  0  0  0
 12 28  1  0  0  0  0
 13 14  2  0  0  0  0
 13 29  1  0  0  0  0
 14 30  1  0  0  0  0
 15 19  2  0  0  0  0
 15 25  1  0  0  0  0
 16 24  1  0  0  0  0
 16 28  2  0  0  0  0
 17 30  2  0  0  0  0
 17 31  1  0  0  0  0
 18 32  1  0  0  0  0
 19 34  1  0  0  0  0
 20 32  1  0  0  0  0
 20 33  2  0  0  0  0
 20 35  1  0  0  0  0
 21 23  2  0  0  0  0
 21 41  1  0  0  0  0
 22 24  2  0  0  0  0
 22 42  1  0  0  0  0
 23 50  1  0  0  0  0
 24 43  1  0  0  0  0
 25 26  2  0  0  0  0
 25 53  1  0  0  0  0
 26 80  1  0  0  0  0
 27 94  1  0  0  0  0
 28 95  1  0  0  0  0
 29 31  2  0  0  0  0
 29 94  1  0  0  0  0
 30 96  1  0  0  0  0
 31 97  1  0  0  0  0
 32 74  2  0  0  0  0
 33 75  1  0  0  0  0
 33 78  1  0  0  0  0
 34 81  1  0  0  0  0
 34 87  2  0  0  0  0
 35 79  1  0  0  0  0
 35 88  2  0  0  0  0
 36 51  1  0  0  0  0
 36 82  1  0  0  0  0
 36 89  2  0  0  0  0
 37 69  1  0  0  0  0
 37 76  1  0  0  0  0
 37 90  2  0  0  0  0
 38 70  1  0  0  0  0
 38 83  1  0  0  0  0
 38 91  2  0  0  0  0
 39 71  1  0  0  0  0
 39 84  1  0  0  0  0
 39 92  2  0  0  0  0
 40 77  1  0  0  0  0
 40 80  1  0  0  0  0
 40 93  2  0  0  0  0
 41 44  1  0  0  0  0
 42 51  1  0  0  0  0
 43 76  1  0  0  0  0
 44 46  1  0  0  0  0
 45 47  1  0  0  0  0
 45 48  1  0  0  0  0
 46 50  1  0  0  0  0
 47 52  1  0  0  0  0
 48 77  1  0  0  0  0
 49 52  1  0  0  0  0
 49 77  1  0  0  0  0
 50 82  1  0  0  0  0
 51 76  1  0  0  0  0
 52 75  1  0  0  0  0
 54 70  1  0  0  0  0
 55 72  1  0  0  0  0
 56 72  1  0  0  0  0
 57 73  1  0  0  0  0
 58 73  1  0  0  0  0
 59 73  1  0  0  0  0
 60 86  1  0  0  0  0
 61 62  1  0  0  0  0
 61 65  1  0  0  0  0
 62 66  1  0  0  0  0
 63 64  1  0  0  0  0
 63 67  1  0  0  0  0
 64 68  1  0  0  0  0
 65 81  1  0  0  0  0
 66 84  1  0  0  0  0
 67 84  1  0  0  0  0
 68 95  1  0  0  0  0
 69 73  1  0  0  0  0
 69 83  1  0  0  0  0
 70 86  1  0  0  0  0
 71 72  1  0  0  0  0
 71 85  1  0  0  0  0
 74 75  1  0  0  0  0
M  CHG  2  85   1  86   1
M  ISO  4  40 100  68 101  80 100  95 101
M  END
> <Batch ID>
0005

> <Smiles>
CNC(C)C(=O)NC(C(=O)N1Cc2cc([101O:1][101CH2:1]CCCN(CCCCNC(=O)c3ccc([100NH:0][100C:0](=O)N4CCCC(n5nc(-c6ccc(Oc7ccc(F)cc7F)cc6)c(C(N)=O)c5N)C4)c(C)c3)C(=O)C(N)C(C)C)ccc2CC1C(=O)NC1CCCc2ccccc21)C(C)(C)C

> <Shape>
0.299

> <Color>
0.073

> <Negative vol penalty>
0.000

$$$$

  -OEChem-04052315263D

 85 93  0     1  0  0  0  0  0999 V2000
  -24.1560  -16.7226   25.9521 C   0  0  0  0  0  0  0  0  0  0  0  0
  -25.3877  -17.3420   25.7652 C   0  0  0  0  0  0  0  0  0  0  0  0
  -22.9993   -9.8943   19.9813 C   0  0  0  0  0  0  0  0  0  0  0  0
  -23.7237   -9.9458   22.2856 C   0  0  0  0  0  0  0  0  0  0  0  0
  -23.0063  -17.4945   26.1137 C   0  0  0  0  0  0  0  0  0  0  0  0
  -25.4700  -18.7337   25.7387 C   0  0  0  0  0  0  0  0  0  0  0  0
  -29.3444  -20.5031   28.4779 C   0  0  0  0  0  0  0  0  0  0  0  0
  -22.2323   -8.7602   20.2477 C   0  0  0  0  0  0  0  0  0  0  0  0
  -22.9566   -8.8116   22.5520 C   0  0  0  0  0  0  0  0  0  0  0  0
  -30.6148  -20.4243   27.9091 C   0  0  0  0  0  0  0  0  0  0  0  0
  -21.4736   -5.7195   23.7559 C   0  0  0  0  0  0  0  0  0  0  0  0
  -22.0590   -4.7038   24.5116 C   0  0  0  0  0  0  0  0  0  0  0  0
  -30.4739  -22.7507   27.2868 C   0  0  0  0  0  0  0  0  0  0  0  0
  -30.3545  -18.9662   23.1165 C   0  0  0  0  0  0  0  0  0  0  0  0
  -31.8908  -17.2476   21.5452 C   0  0  0  0  0  0  0  0  0  0  0  0
  -23.7858   -4.4554   22.8402 C   0  0  0  0  0  0  0  0  0  0  0  0
  -23.7451  -10.4871   21.0002 C   0  0  0  0  0  0  0  0  0  0  0  0
  -24.1314  -13.0025   20.8235 C   0  0  0  0  0  0  0  0  0  0  0  0
  -23.0760  -18.8965   26.0988 C   0  0  0  0  0  0  0  0  0  0  0  0
  -28.6235  -21.7055   28.4458 C   0  0  0  0  0  0  0  0  0  0  0  0
  -24.3199  -19.5251   25.8989 C   0  0  0  0  0  0  0  0  0  0  0  0
  -29.1956  -22.8428   27.8582 C   0  0  0  0  0  0  0  0  0  0  0  0
  -29.8274  -17.7438   22.6999 C   0  0  0  0  0  0  0  0  0  0  0  0
  -31.6497  -19.3293   22.7473 C   0  0  0  0  0  0  0  0  0  0  0  0
  -30.5955  -16.8845   21.9143 C   0  0  0  0  0  0  0  0  0  0  0  0
  -22.2109   -8.2189   21.5331 C   0  0  0  0  0  0  0  0  0  0  0  0
  -31.1786  -21.5474   27.3108 C   0  0  0  0  0  0  0  0  0  0  0  0
  -22.0443   -6.1032   22.5423 C   0  0  0  0  0  0  0  0  0  0  0  0
  -32.4178  -18.4700   21.9617 C   0  0  0  0  0  0  0  0  0  0  0  0
  -23.2151   -4.0717   24.0538 C   0  0  0  0  0  0  0  0  0  0  0  0
  -23.2004   -5.4712   22.0845 C   0  0  0  0  0  0  0  0  0  0  0  0
  -24.5381  -11.6583   20.7255 C   0  0  0  0  0  0  0  0  0  0  0  0
  -25.2416  -13.7245   20.4593 C   0  0  0  0  0  0  0  0  0  0  0  0
  -22.8635  -13.5495   21.2094 C   0  0  0  0  0  0  0  0  0  0  0  0
  -25.8617  -22.6317   27.1737 C   0  0  0  0  0  0  0  0  0  0  0  0
  -26.4844  -25.3748   28.7892 C   0  0  0  0  0  0  0  0  0  0  0  0
  -28.8011  -27.4332   30.2185 C   0  0  0  0  0  0  0  0  0  0  0  0
  -30.7213  -14.6836   20.6949 C   0  0  0  0  0  0  0  0  0  0  0  0
  -21.7991  -19.6883   26.2304 C   0  0  0  0  0  0  0  0  0  0  0  0
  -27.2652  -21.7811   29.0875 C   0  0  0  0  0  0  0  0  0  0  0  0
  -28.4714  -24.1627   27.8154 C   0  0  0  0  0  0  0  0  0  0  0  0
  -22.0269  -21.1603   26.5644 C   0  0  0  0  0  0  0  0  0  0  0  0
  -29.6029  -12.2304   18.3694 C   0  0  0  0  0  0  0  0  0  0  0  0
  -23.1149  -21.7482   25.6714 C   0  0  0  0  0  0  0  0  0  0  0  0
  -28.1521  -11.9735   18.7831 C   0  0  0  0  0  0  0  0  0  0  0  0
  -30.5031  -12.4739   19.5794 C   0  0  0  0  0  0  0  0  0  0  0  0
  -28.5876  -13.2639   20.9120 C   0  0  0  0  0  0  0  0  0  0  0  0
  -24.4536  -21.0325   25.8889 C   0  0  1  0  0  0  0  0  0  0  0  0
  -26.4096  -22.9206   28.5426 C   0  0  1  0  0  0  0  0  0  0  0  0
  -27.6303  -13.0775   19.7235 C   0  0  2  0  0  0  0  0  0  0  0  0
  -28.4372  -17.3805   23.1104 C   0  0  0  0  0  0  0  0  0  0  0  0
  -29.0121  -29.6215   31.4284 C   0  0  0  0  0  0  0  0  0  0  0  0
  -34.9835  -21.3256   25.4492 C   0  0  0  0  0  0  0  0  0  0  0  0
  -26.1038  -26.8655   26.1542 C   0  0  0  0  0  0  0  0  0  0  0  0
  -27.2340  -28.8445   27.1910 C   0  0  0  0  0  0  0  0  0  0  0  0
  -25.0928  -27.9916   28.1454 C   0  0  0  0  0  0  0  0  0  0  0  0
  -29.9216  -26.1266   32.6260 C   0  0  0  0  0  0  0  0  0  0  0  0
  -34.3979  -17.8716   20.7882 C   0  0  0  0  0  0  0  0  0  0  0  0
  -32.2014  -20.6479   23.2039 C   0  0  0  0  0  0  0  0  0  0  0  0
  -32.6855  -22.3323   25.6468 C   0  0  0  0  0  0  0  0  0  1  0  0
  -27.2152  -26.6579   28.4753 C   0  0  1  0  0  0  0  0  0  0  0  0
  -28.8414  -28.1173   31.5730 C   0  0  2  0  0  0  0  0  0  0  0  0
  -33.6875  -21.6491   24.7243 C   0  0  2  0  0  0  0  0  0  0  0  0
  -26.4246  -27.5646   27.4904 C   0  0  0  0  0  0  0  0  0  0  0  0
  -25.8075  -11.5312   20.3298 N   0  0  0  0  0  0  0  0  0  0  0  0
  -26.2080  -12.8048   20.1759 N   0  0  0  0  0  0  0  0  0  0  0  0
  -27.1434  -24.1844   28.4508 N   0  0  0  0  0  0  0  0  0  0  0  0
  -29.9482  -13.5353   20.4221 N   0  0  0  0  0  0  0  0  0  0  0  0
  -25.4756  -15.0501   20.3569 N   0  0  0  0  0  0  0  0  0  0  0  0
  -21.8313  -12.6658   21.5529 N   0  0  0  0  0  0  0  0  0  0  0  0
  -30.0771  -15.6393   21.4799 N   0  0  0  0  0  0  0  0  0  0  0  0
  -25.0808  -21.4935   27.1090 N   0  0  0  0  0  0  0  0  0  0  0  0
  -27.5094  -27.2847   29.7595 N   0  0  0  0  0  0  0  0  0  0  0  0
  -29.9748  -27.5916   32.3854 N   0  3  0  0  0  0  0  0  0  0  0  0
  -22.6473  -14.7849   21.2327 O   0  0  0  0  0  0  0  0  0  0  0  0
  -26.1265  -23.3863   26.2452 O   0  0  0  0  0  0  0  0  0  0  0  0
  -25.3729  -25.4266   29.3216 O   0  0  0  0  0  0  0  0  0  0  0  0
  -29.8144  -27.0703   29.6251 O   0  0  0  0  0  0  0  0  0  0  0  0
  -31.8602  -14.8220   20.2412 O   0  0  0  0  0  0  0  0  0  0  0  0
  -21.4623   -7.1123   21.7935 O   0  0  0  0  0  0  0  0  0  0  0  0
  -33.6843  -18.8094   21.5915 O   0  0  0  0  0  0  0  0  0  0  0  0
  -32.4182  -21.4730   26.7543 O   0  0  0  0  0  0  0  0  0  1  0  0
  -33.1312  -20.4230   24.2522 O   0  0  0  0  0  0  0  0  0  0  0  0
  -23.7780   -3.0974   24.7804 F   0  0  0  0  0  0  0  0  0  0  0  0
  -23.7539   -5.8362   20.9199 F   0  0  0  0  0  0  0  0  0  0  0  0
  1  2  1  0  0  0  0
  1  5  2  0  0  0  0
  2  6  2  0  0  0  0
  3  8  2  0  0  0  0
  3 17  1  0  0  0  0
  4  9  1  0  0  0  0
  4 17  2  0  0  0  0
  5 19  1  0  0  0  0
  6 21  1  0  0  0  0
  7 10  2  0  0  0  0
  7 20  1  0  0  0  0
  8 26  1  0  0  0  0
  9 26  2  0  0  0  0
 10 27  1  0  0  0  0
 11 12  2  0  0  0  0
 11 28  1  0  0  0  0
 12 30  1  0  0  0  0
 13 22  1  0  0  0  0
 13 27  2  0  0  0  0
 14 23  2  0  0  0  0
 14 24  1  0  0  0  0
 15 25  2  0  0  0  0
 15 29  1  0  0  0  0
 16 30  2  0  0  0  0
 16 31  1  0  0  0  0
 17 32  1  0  0  0  0
 18 32  1  0  0  0  0
 18 33  2  0  0  0  0
 18 34  1  0  0  0  0
 19 21  2  0  0  0  0
 19 39  1  0  0  0  0
 20 22  2  0  0  0  0
 20 40  1  0  0  0  0
 21 48  1  0  0  0  0
 22 41  1  0  0  0  0
 23 25  1  0  0  0  0
 23 51  1  0  0  0  0
 24 29  2  0  0  0  0
 24 59  1  0  0  0  0
 25 71  1  0  0  0  0
 26 80  1  0  0  0  0
 27 82  1  0  0  0  0
 28 31  2  0  0  0  0
 28 80  1  0  0  0  0
 29 81  1  0  0  0  0
 30 84  1  0  0  0  0
 31 85  1  0  0  0  0
 32 65  2  0  0  0  0
 33 66  1  0  0  0  0
 33 69  1  0  0  0  0
 34 70  1  0  0  0  0
 34 75  2  0  0  0  0
 35 49  1  0  0  0  0
 35 72  1  0  0  0  0
 35 76  2  0  0  0  0
 36 61  1  0  0  0  0
 36 67  1  0  0  0  0
 36 77  2  0  0  0  0
 37 62  1  0  0  0  0
 37 73  1  0  0  0  0
 37 78  2  0  0  0  0
 38 68  1  0  0  0  0
 38 71  1  0  0  0  0
 38 79  2  0  0  0  0
 39 42  1  0  0  0  0
 40 49  1  0  0  0  0
 41 67  1  0  0  0  0
 42 44  1  0  0  0  0
 43 45  1  0  0  0  0
 43 46  1  0  0  0  0
 44 48  1  0  0  0  0
 45 50  1  0  0  0  0
 46 68  1  0  0  0  0
 47 50  1  0  0  0  0
 47 68  1  0  0  0  0
 48 72  1  0  0  0  0
 49 67  1  0  0  0  0
 50 66  1  0  0  0  0
 52 62  1  0  0  0  0
 53 63  1  0  0  0  0
 54 64  1  0  0  0  0
 55 64  1  0  0  0  0
 56 64  1  0  0  0  0
 57 74  1  0  0  0  0
 58 81  1  0  0  0  0
 59 83  1  0  0  0  0
 60 63  1  0  0  0  0
 60 82  1  0  0  0  0
 61 64  1  0  0  0  0
 61 73  1  0  0  0  0
 62 74  1  0  0  0  0
 63 83  1  0  0  0  0
 65 66  1  0  0  0  0
M  CHG  1  74   1
M  ISO  4  38 100  60 101  71 100  82 101
M  END
> <Batch ID>
0005

> <Smiles>
CNC(C)C(=O)NC(C(=O)N1Cc2cc([101O:1][101CH2:1]C(C)OCc3cc(C)c([100NH:0][100C:0](=O)N4CCCC(n5nc(-c6ccc(Oc7ccc(F)cc7F)cc6)c(C(N)=O)c5N)C4)cc3OC)ccc2CC1C(=O)NC1CCCc2ccccc21)C(C)(C)C

> <Shape>
0.173

> <Color>
0.198

> <Negative vol penalty>
0.000

$$$$

  -OEChem-04052315263D

 86 94  0     1  0  0  0  0  0999 V2000
  -32.4103  -14.2834   19.6891 C   0  0  0  0  0  0  0  0  0  0  0  0
  -31.6180  -15.4231   19.5955 C   0  0  0  0  0  0  0  0  0  0  0  0
  -30.0897  -23.8296   20.1244 C   0  0  0  0  0  0  0  0  0  0  0  0
  -28.1260  -23.4873   18.7593 C   0  0  0  0  0  0  0  0  0  0  0  0
  -31.8136  -13.0272   19.7884 C   0  0  0  0  0  0  0  0  0  0  0  0
  -30.2284  -15.3071   19.6000 C   0  0  0  0  0  0  0  0  0  0  0  0
  -26.2150  -19.2279   22.0547 C   0  0  0  0  0  0  0  0  0  0  0  0
  -30.2887  -22.4503   20.1840 C   0  0  0  0  0  0  0  0  0  0  0  0
  -28.3250  -22.1080   18.8188 C   0  0  0  0  0  0  0  0  0  0  0  0
  -25.4389  -20.2453   21.5010 C   0  0  0  0  0  0  0  0  0  0  0  0
  -30.3085  -19.8126   17.3297 C   0  0  0  0  0  0  0  0  0  0  0  0
  -30.1849  -19.0897   16.1433 C   0  0  0  0  0  0  0  0  0  0  0  0
  -23.5743  -18.7239   21.3344 C   0  0  0  0  0  0  0  0  0  0  0  0
  -21.4869  -26.8061   19.3323 C   0  0  0  0  0  0  0  0  0  0  0  0
  -22.3326  -26.1751   21.5056 C   0  0  0  0  0  0  0  0  0  0  0  0
  -28.3981  -17.7904   17.1211 C   0  0  0  0  0  0  0  0  0  0  0  0
  -29.0083  -24.3481   19.4121 C   0  0  0  0  0  0  0  0  0  0  0  0
  -29.3140  -26.6653   18.3899 C   0  0  0  0  0  0  0  0  0  0  0  0
  -30.4160  -12.8966   19.8039 C   0  0  0  0  0  0  0  0  0  0  0  0
  -25.6790  -17.9458   22.2426 C   0  0  0  0  0  0  0  0  0  0  0  0
  -29.6125  -14.0479   19.6983 C   0  0  0  0  0  0  0  0  0  0  0  0
  -24.3449  -17.6927   21.8930 C   0  0  0  0  0  0  0  0  0  0  0  0
  -21.9036  -27.1597   20.6156 C   0  0  0  0  0  0  0  0  0  0  0  0
  -21.4991  -25.4678   18.9389 C   0  0  0  0  0  0  0  0  0  0  0  0
  -22.3449  -24.8368   21.1123 C   0  0  0  0  0  0  0  0  0  0  0  0
  -21.9282  -24.4832   19.8289 C   0  0  0  0  0  0  0  0  0  0  0  0
  -29.4064  -21.5895   19.5312 C   0  0  0  0  0  0  0  0  0  0  0  0
  -24.1193  -19.9925   21.1381 C   0  0  0  0  0  0  0  0  0  0  0  0
  -29.4770  -19.5244   18.4119 C   0  0  0  0  0  0  0  0  0  0  0  0
  -29.2297  -18.0787   16.0389 C   0  0  0  0  0  0  0  0  0  0  0  0
  -28.5217  -18.5133   18.3076 C   0  0  0  0  0  0  0  0  0  0  0  0
  -28.8019  -25.7728   19.3506 C   0  0  0  0  0  0  0  0  0  0  0  0
  -28.8333  -27.8939   18.7719 C   0  0  0  0  0  0  0  0  0  0  0  0
  -30.1494  -26.4069   17.2537 C   0  0  0  0  0  0  0  0  0  0  0  0
  -26.3554  -15.0465   21.1291 C   0  0  0  0  0  0  0  0  0  0  0  0
  -24.0800  -14.1267   23.2501 C   0  0  0  0  0  0  0  0  0  0  0  0
  -21.3235  -14.9559   25.0834 C   0  0  0  0  0  0  0  0  0  0  0  0
  -23.9560  -29.1580   22.2581 C   0  0  0  0  0  0  0  0  0  0  0  0
  -29.8168  -11.5139   19.8653 C   0  0  0  0  0  0  0  0  0  0  0  0
  -26.5211  -16.8665   22.8658 C   0  0  0  0  0  0  0  0  0  0  0  0
  -23.7159  -16.3389   22.0929 C   0  0  0  0  0  0  0  0  0  0  0  0
  -28.3371  -11.5074   20.2405 C   0  0  0  0  0  0  0  0  0  0  0  0
  -27.4411  -30.3496   22.6276 C   0  0  0  0  0  0  0  0  0  0  0  0
  -27.5768  -12.5542   19.4324 C   0  0  0  0  0  0  0  0  0  0  0  0
  -28.2293  -29.3356   21.8003 C   0  0  0  0  0  0  0  0  0  0  0  0
  -26.1617  -29.7446   23.1976 C   0  0  0  0  0  0  0  0  0  0  0  0
  -26.0680  -28.1101   21.3445 C   0  0  0  0  0  0  0  0  0  0  0  0
  -28.1017  -13.9650   19.7249 C   0  0  1  0  0  0  0  0  0  0  0  0
  -26.0297  -15.4603   22.5364 C   0  0  1  0  0  0  0  0  0  0  0  0
  -27.3395  -28.7011   20.7172 C   0  0  2  0  0  0  0  0  0  0  0  0
  -21.0460  -25.1196   17.5582 C   0  0  0  0  0  0  0  0  0  0  0  0
  -22.9343  -31.3450   19.9363 C   0  0  0  0  0  0  0  0  0  0  0  0
  -19.6628  -13.9829   26.6937 C   0  0  0  0  0  0  0  0  0  0  0  0
  -22.6881  -12.6926   20.9445 C   0  0  0  0  0  0  0  0  0  0  0  0
  -20.6260  -12.5676   22.3589 C   0  0  0  0  0  0  0  0  0  0  0  0
  -22.7151  -11.4226   23.0987 C   0  0  0  0  0  0  0  0  0  0  0  0
  -20.7584  -22.3020   19.6446 C   0  0  0  0  0  0  0  0  0  0  0  0
  -22.0979  -16.8599   27.2127 C   0  0  0  0  0  0  0  0  0  0  0  0
  -21.8909  -28.5903   21.0364 C   0  0  0  0  0  0  0  0  0  0  0  0
  -23.5817  -29.9757   19.8929 C   0  0  0  0  0  0  0  0  0  0  0  0
  -23.0949  -22.5533   18.7924 C   0  0  0  0  0  0  0  0  0  0  0  0
  -24.0397  -21.9809   19.8357 C   0  0  0  0  0  0  0  0  0  1  0  0
  -22.5821  -13.9453   23.1996 C   0  0  1  0  0  0  0  0  0  0  0  0
  -20.9797  -14.7288   26.5445 C   0  0  2  0  0  0  0  0  0  0  0  0
  -22.1650  -12.6821   22.3947 C   0  0  0  0  0  0  0  0  0  0  0  0
  -28.0534  -26.3825   20.2737 N   0  0  0  0  0  0  0  0  0  0  0  0
  -28.0916  -27.6713   19.8947 N   0  0  0  0  0  0  0  0  0  0  0  0
  -24.5819  -15.3147   22.7000 N   0  0  0  0  0  0  0  0  0  0  0  0
  -25.3559  -29.1107   22.1535 N   0  0  0  0  0  0  0  0  0  0  0  0
  -22.7833  -23.8565   22.0308 N   0  0  0  0  0  0  0  0  0  0  0  0
  -28.9769  -29.1321   18.2536 N   0  0  0  0  0  0  0  0  0  0  0  0
  -30.5520  -25.0873   17.0067 N   0  0  0  0  0  0  0  0  0  0  0  0
  -27.5904  -14.4419   20.9920 N   0  0  0  0  0  0  0  0  0  0  0  0
  -22.1234  -13.9498   24.5845 N   0  0  0  0  0  0  0  0  0  0  0  0
  -21.9387  -23.1399   19.4305 N   0  0  3  0  0  0  0  0  0  0  0  0
  -23.2253  -29.1723   21.0603 N   0  0  0  0  0  0  0  0  0  0  0  0
  -20.8653  -16.0319   27.2584 N   0  3  0  0  0  0  0  0  0  0  0  0
  -30.5412  -27.3214   16.4897 O   0  0  0  0  0  0  0  0  0  0  0  0
  -25.5455  -15.2585   20.2342 O   0  0  0  0  0  0  0  0  0  0  0  0
  -24.7783  -13.2500   23.7654 O   0  0  0  0  0  0  0  0  0  0  0  0
  -20.9194  -15.9268   24.4472 O   0  0  0  0  0  0  0  0  0  0  0  0
  -23.3919  -29.1956   23.3591 O   0  0  0  0  0  0  0  0  0  0  0  0
  -29.6004  -20.2435   19.5889 O   0  0  0  0  0  0  0  0  0  0  0  0
  -23.3598  -20.9835   20.5969 O   0  0  0  0  0  0  0  0  0  1  0  0
  -29.1100  -17.3856   14.8990 F   0  0  0  0  0  0  0  0  0  0  0  0
  -27.7192  -18.2327   19.3435 F   0  0  0  0  0  0  0  0  0  0  0  0
  1  2  1  0  0  0  0
  1  5  2  0  0  0  0
  2  6  2  0  0  0  0
  3  8  2  0  0  0  0
  3 17  1  0  0  0  0
  4  9  1  0  0  0  0
  4 17  2  0  0  0  0
  5 19  1  0  0  0  0
  6 21  1  0  0  0  0
  7 10  2  0  0  0  0
  7 20  1  0  0  0  0
  8 27  1  0  0  0  0
  9 27  2  0  0  0  0
 10 28  1  0  0  0  0
 11 12  2  0  0  0  0
 11 29  1  0  0  0  0
 12 30  1  0  0  0  0
 13 22  1  0  0  0  0
 13 28  2  0  0  0  0
 14 23  1  0  0  0  0
 14 24  2  0  0  0  0
 15 23  2  0  0  0  0
 15 25  1  0  0  0  0
 16 30  2  0  0  0  0
 16 31  1  0  0  0  0
 17 32  1  0  0  0  0
 18 32  1  0  0  0  0
 18 33  2  0  0  0  0
 18 34  1  0  0  0  0
 19 21  2  0  0  0  0
 19 39  1  0  0  0  0
 20 22  2  0  0  0  0
 20 40  1  0  0  0  0
 21 48  1  0  0  0  0
 22 41  1  0  0  0  0
 23 59  1  0  0  0  0
 24 26  1  0  0  0  0
 24 51  1  0  0  0  0
 25 26  2  0  0  0  0
 25 70  1  0  0  0  0
 26 75  1  0  0  0  0
 27 83  1  0  0  0  0
 28 84  1  0  0  0  0
 29 31  2  0  0  0  0
 29 83  1  0  0  0  0
 30 85  1  0  0  0  0
 31 86  1  0  0  0  0
 32 66  2  0  0  0  0
 33 67  1  0  0  0  0
 33 71  1  0  0  0  0
 34 72  1  0  0  0  0
 34 78  2  0  0  0  0
 35 49  1  0  0  0  0
 35 73  1  0  0  0  0
 35 79  2  0  0  0  0
 36 63  1  0  0  0  0
 36 68  1  0  0  0  0
 36 80  2  0  0  0  0
 37 64  1  0  0  0  0
 37 74  1  0  0  0  0
 37 81  2  0  0  0  0
 38 69  1  0  0  0  0
 38 76  1  0  0  0  0
 38 82  2  0  0  0  0
 39 42  1  0  0  0  0
 40 49  1  0  0  0  0
 41 68  1  0  0  0  0
 42 44  1  0  0  0  0
 43 45  1  0  0  0  0
 43 46  1  0  0  0  0
 44 48  1  0  0  0  0
 45 50  1  0  0  0  0
 46 69  1  0  0  0  0
 47 50  1  0  0  0  0
 47 69  1  0  0  0  0
 48 73  1  0  0  0  0
 49 68  1  0  0  0  0
 50 67  1  0  0  0  0
 52 60  1  0  0  0  0
 53 64  1  0  0  0  0
 54 65  1  0  0  0  0
 55 65  1  0  0  0  0
 56 65  1  0  0  0  0
 57 75  1  0  0  0  0
 58 77  1  0  0  0  0
 59 76  1  0  0  0  0
 60 76  1  0  0  0  0
 61 62  1  0  0  0  0
 61 75  1  0  0  0  0
 62 84  1  0  0  0  0
 63 65  1  0  0  0  0
 63 74  1  0  0  0  0
 64 77  1  0  0  0  0
 66 67  1  0  0  0  0
M  CHG  1  77   1
M  ISO  4  38 100  62 101  76 100  84 101
M  END
> <Batch ID>
0005

> <Smiles>
CC[100N:0](Cc1cc(C)c(N(C)C[101CH2:1][101O:1]c2ccc3c(c2)CN(C(=O)C(NC(=O)C(C)NC)C(C)(C)C)C(C(=O)NC2CCCc4ccccc42)C3)c(N)c1)[100C:0](=O)N1CCCC(n2nc(-c3ccc(Oc4ccc(F)cc4F)cc3)c(C(N)=O)c2N)C1

> <Shape>
0.210

> <Color>
0.085

> <Negative vol penalty>
0.000

$$$$

  -OEChem-04052315263D

 87 95  0     1  0  0  0  0  0999 V2000
  -26.9990  -33.0123   14.7744 C   0  0  0  0  0  0  0  0  0  0  0  0
  -27.7611  -32.0351   15.4065 C   0  0  0  0  0  0  0  0  0  0  0  0
  -22.9792   -9.9216   20.0306 C   0  0  0  0  0  0  0  0  0  0  0  0
  -23.6530  -10.0772   22.3455 C   0  0  0  0  0  0  0  0  0  0  0  0
  -25.9637  -33.6419   15.4642 C   0  0  0  0  0  0  0  0  0  0  0  0
  -27.4890  -31.6876   16.7293 C   0  0  0  0  0  0  0  0  0  0  0  0
  -28.0042  -26.1333   19.2571 C   0  0  0  0  0  0  0  0  0  0  0  0
  -32.4202  -18.5173   21.8305 C   0  0  0  0  0  0  0  0  0  0  0  0
  -31.9065  -17.2776   21.4501 C   0  0  0  0  0  0  0  0  0  0  0  0
  -22.1950   -8.8087   20.3336 C   0  0  0  0  0  0  0  0  0  0  0  0
  -22.8687   -8.9642   22.6486 C   0  0  0  0  0  0  0  0  0  0  0  0
  -29.0025  -25.5443   20.0319 C   0  0  0  0  0  0  0  0  0  0  0  0
  -23.0881   -5.6042   22.3438 C   0  0  0  0  0  0  0  0  0  0  0  0
  -23.6478   -4.6190   23.1573 C   0  0  0  0  0  0  0  0  0  0  0  0
  -27.7946  -26.1429   22.0324 C   0  0  0  0  0  0  0  0  0  0  0  0
  -29.8112  -17.8158   22.5258 C   0  0  0  0  0  0  0  0  0  0  0  0
  -21.8894   -4.9591   24.7789 C   0  0  0  0  0  0  0  0  0  0  0  0
  -23.7084  -10.5559   21.0365 C   0  0  0  0  0  0  0  0  0  0  0  0
  -24.1242  -13.0562   20.7485 C   0  0  0  0  0  0  0  0  0  0  0  0
  -25.6726  -33.2951   16.7929 C   0  0  0  0  0  0  0  0  0  0  0  0
  -26.8972  -26.7422   19.8655 C   0  0  0  0  0  0  0  0  0  0  0  0
  -26.4497  -32.3141   17.4379 C   0  0  0  0  0  0  0  0  0  0  0  0
  -26.7824  -26.7367   21.2629 C   0  0  0  0  0  0  0  0  0  0  0  0
  -31.6295  -19.4063   22.5586 C   0  0  0  0  0  0  0  0  0  0  0  0
  -30.6019  -16.9268   21.7978 C   0  0  0  0  0  0  0  0  0  0  0  0
  -22.1396   -8.3300   21.6426 C   0  0  0  0  0  0  0  0  0  0  0  0
  -28.8992  -25.5516   21.4198 C   0  0  0  0  0  0  0  0  0  0  0  0
  -21.9291   -6.2669   22.7478 C   0  0  0  0  0  0  0  0  0  0  0  0
  -30.3249  -19.0556   22.9063 C   0  0  0  0  0  0  0  0  0  0  0  0
  -23.0485   -4.2965   24.3748 C   0  0  0  0  0  0  0  0  0  0  0  0
  -21.3298   -5.9443   23.9653 C   0  0  0  0  0  0  0  0  0  0  0  0
  -24.5192  -11.7052   20.7240 C   0  0  0  0  0  0  0  0  0  0  0  0
  -25.2494  -13.7497   20.3752 C   0  0  0  0  0  0  0  0  0  0  0  0
  -22.8537  -13.6327   21.0790 C   0  0  0  0  0  0  0  0  0  0  0  0
  -25.7191  -29.6935   19.9382 C   0  0  0  0  0  0  0  0  0  0  0  0
  -23.2875  -28.2652   21.5412 C   0  0  0  0  0  0  0  0  0  0  0  0
  -31.0102  -22.9031   22.6834 C   0  0  0  0  0  0  0  0  0  0  0  0
  -22.2246  -25.6554   23.4664 C   0  0  0  0  0  0  0  0  0  0  0  0
  -30.7321  -14.6689   20.6882 C   0  0  0  0  0  0  0  0  0  0  0  0
  -24.5742  -34.0368   17.5128 C   0  0  0  0  0  0  0  0  0  0  0  0
  -25.8157  -27.3496   19.0147 C   0  0  0  0  0  0  0  0  0  0  0  0
  -25.6039  -27.3593   21.9643 C   0  0  0  0  0  0  0  0  0  0  0  0
  -24.1091  -33.3453   18.7917 C   0  0  0  0  0  0  0  0  0  0  0  0
  -29.6404  -12.1171   18.4581 C   0  0  0  0  0  0  0  0  0  0  0  0
  -25.3074  -32.9053   19.6268 C   0  0  0  0  0  0  0  0  0  0  0  0
  -28.1782  -11.8936   18.8508 C   0  0  0  0  0  0  0  0  0  0  0  0
  -30.5161  -12.4101   19.6751 C   0  0  0  0  0  0  0  0  0  0  0  0
  -28.5797  -13.2808   20.9248 C   0  0  0  0  0  0  0  0  0  0  0  0
  -26.1693  -31.8921   18.8639 C   0  0  1  0  0  0  0  0  0  0  0  0
  -24.9873  -28.3938   19.7570 C   0  0  1  0  0  0  0  0  0  0  0  0
  -27.6471  -13.0463   19.7253 C   0  0  2  0  0  0  0  0  0  0  0  0
  -20.1938  -24.7832   24.6549 C   0  0  0  0  0  0  0  0  0  0  0  0
  -26.2699  -21.7801   23.3060 C   0  0  0  0  0  0  0  0  0  0  0  0
  -27.3158  -20.6447   25.2845 C   0  0  0  0  0  0  0  0  0  0  0  0
  -23.6940  -30.3328   23.7479 C   0  0  0  0  0  0  0  0  0  0  0  0
  -22.3434  -28.8728   25.2687 C   0  0  0  0  0  0  0  0  0  0  0  0
  -21.3023  -29.8324   23.2149 C   0  0  0  0  0  0  0  0  0  0  0  0
  -22.1891  -23.1851   21.8369 C   0  0  0  0  0  0  0  0  0  0  0  0
  -32.1992  -20.7362   22.9596 C   0  0  0  0  0  0  0  0  0  0  0  0
  -30.5759  -23.8754   21.6075 C   0  0  0  0  0  0  0  0  0  1  0  0
  -28.3238  -20.3368   23.0047 C   0  0  0  0  0  0  0  0  0  0  0  0
  -22.9930  -27.9659   22.9913 C   0  0  1  0  0  0  0  0  0  0  0  0
  -21.0010  -24.7626   23.3662 C   0  0  2  0  0  0  0  0  0  0  0  0
  -27.5819  -21.3029   23.9324 C   0  0  0  0  0  0  0  0  0  0  0  0
  -22.6065  -29.2408   23.7929 C   0  0  0  0  0  0  0  0  0  0  0  0
  -25.7956  -11.5476   20.3636 N   0  0  0  0  0  0  0  0  0  0  0  0
  -26.2124  -12.8086   20.1581 N   0  0  0  0  0  0  0  0  0  0  0  0
  -24.5757  -27.9461   21.0890 N   0  0  0  0  0  0  0  0  0  0  0  0
  -29.9535  -13.5159   20.4534 N   0  0  0  0  0  0  0  0  0  0  0  0
  -25.4992  -15.0667   20.2148 N   0  0  0  0  0  0  0  0  0  0  0  0
  -21.8052  -12.7761   21.4410 N   0  0  0  0  0  0  0  0  0  0  0  0
  -30.0806  -15.6671   21.4119 N   0  0  0  0  0  0  0  0  0  0  0  0
  -25.5546  -30.5823   18.8930 N   0  0  0  0  0  0  0  0  0  0  0  0
  -31.6798  -21.8134   22.1492 N   0  0  0  0  0  0  0  0  0  0  0  0
  -21.9702  -26.9255   22.9938 N   0  0  0  0  0  0  0  0  0  0  0  0
  -21.4074  -23.3560   23.0887 N   0  3  0  0  0  0  0  0  0  0  0  0
  -22.6496  -14.8697   21.0383 O   0  0  0  0  0  0  0  0  0  0  0  0
  -26.3825  -29.8770   20.9520 O   0  0  0  0  0  0  0  0  0  0  0  0
  -22.4047  -28.7571   20.8339 O   0  0  0  0  0  0  0  0  0  0  0  0
  -30.7806  -23.0857   23.8759 O   0  0  0  0  0  0  0  0  0  0  0  0
  -23.2977  -25.2662   23.9220 O   0  0  0  0  0  0  0  0  0  0  0  0
  -31.8821  -14.7748   20.2543 O   0  0  0  0  0  0  0  0  0  0  0  0
  -21.3742   -7.2442   21.9387 O   0  0  0  0  0  0  0  0  0  0  0  0
  -29.8725  -24.9779   22.1785 O   0  0  0  0  0  0  0  0  0  1  0  0
  -29.5396  -19.9122   23.6175 O   0  0  0  0  0  0  0  0  0  0  0  0
  -23.5852   -3.3493   25.1552 F   0  0  0  0  0  0  0  0  0  0  0  0
  -20.2155   -6.5767   24.3583 F   0  0  0  0  0  0  0  0  0  0  0  0
  1  2  1  0  0  0  0
  1  5  2  0  0  0  0
  2  6  2  0  0  0  0
  3 10  2  0  0  0  0
  3 18  1  0  0  0  0
  4 11  1  0  0  0  0
  4 18  2  0  0  0  0
  5 20  1  0  0  0  0
  6 22  1  0  0  0  0
  7 12  2  0  0  0  0
  7 21  1  0  0  0  0
  8  9  2  0  0  0  0
  8 24  1  0  0  0  0
  9 25  1  0  0  0  0
 10 26  1  0  0  0  0
 11 26  2  0  0  0  0
 12 27  1  0  0  0  0
 13 14  2  0  0  0  0
 13 28  1  0  0  0  0
 14 30  1  0  0  0  0
 15 23  1  0  0  0  0
 15 27  2  0  0  0  0
 16 25  2  0  0  0  0
 16 29  1  0  0  0  0
 17 30  2  0  0  0  0
 17 31  1  0  0  0  0
 18 32  1  0  0  0  0
 19 32  1  0  0  0  0
 19 33  2  0  0  0  0
 19 34  1  0  0  0  0
 20 22  2  0  0  0  0
 20 40  1  0  0  0  0
 21 23  2  0  0  0  0
 21 41  1  0  0  0  0
 22 49  1  0  0  0  0
 23 42  1  0  0  0  0
 24 29  2  0  0  0  0
 24 59  1  0  0  0  0
 25 72  1  0  0  0  0
 26 83  1  0  0  0  0
 27 84  1  0  0  0  0
 28 31  2  0  0  0  0
 28 83  1  0  0  0  0
 29 85  1  0  0  0  0
 30 86  1  0  0  0  0
 31 87  1  0  0  0  0
 32 66  2  0  0  0  0
 33 67  1  0  0  0  0
 33 70  1  0  0  0  0
 34 71  1  0  0  0  0
 34 77  2  0  0  0  0
 35 50  1  0  0  0  0
 35 73  1  0  0  0  0
 35 78  2  0  0  0  0
 36 62  1  0  0  0  0
 36 68  1  0  0  0  0
 36 79  2  0  0  0  0
 37 60  1  0  0  0  0
 37 74  1  0  0  0  0
 37 80  2  0  0  0  0
 38 63  1  0  0  0  0
 38 75  1  0  0  0  0
 38 81  2  0  0  0  0
 39 69  1  0  0  0  0
 39 72  1  0  0  0  0
 39 82  2  0  0  0  0
 40 43  1  0  0  0  0
 41 50  1  0  0  0  0
 42 68  1  0  0  0  0
 43 45  1  0  0  0  0
 44 46  1  0  0  0  0
 44 47  1  0  0  0  0
 45 49  1  0  0  0  0
 46 51  1  0  0  0  0
 47 69  1  0  0  0  0
 48 51  1  0  0  0  0
 48 69  1  0  0  0  0
 49 73  1  0  0  0  0
 50 68  1  0  0  0  0
 51 67  1  0  0  0  0
 52 63  1  0  0  0  0
 53 64  1  0  0  0  0
 54 64  1  0  0  0  0
 55 65  1  0  0  0  0
 56 65  1  0  0  0  0
 57 65  1  0  0  0  0
 58 76  1  0  0  0  0
 59 74  1  0  0  0  0
 60 84  1  0  0  0  0
 61 64  1  0  0  0  0
 61 85  1  0  0  0  0
 62 65  1  0  0  0  0
 62 75  1  0  0  0  0
 63 76  1  0  0  0  0
 66 67  1  0  0  0  0
M  CHG  1  76   1
M  ISO  4  39 100  60 101  72 100  84 101
M  END
> <Batch ID>
0005

> <Smiles>
CNC(C)C(=O)NC(C(=O)N1Cc2cc([101O:1][101CH2:1]C(=O)NCc3ccc([100NH:0][100C:0](=O)N4CCCC(n5nc(-c6ccc(Oc7ccc(F)cc7F)cc6)c(C(N)=O)c5N)C4)cc3OCC(C)C)ccc2CC1C(=O)NC1CCCc2ccccc21)C(C)(C)C

> <Shape>
0.274

> <Color>
0.196

> <Negative vol penalty>
0.000

$$$$

  -OEChem-04052315263D

 85 93  0     1  0  0  0  0  0999 V2000
  -16.7119  -29.4833   23.1138 C   0  0  0  0  0  0  0  0  0  0  0  0
  -17.6801  -29.6157   22.1236 C   0  0  0  0  0  0  0  0  0  0  0  0
  -26.5995  -12.6639   21.9808 C   0  0  0  0  0  0  0  0  0  0  0  0
  -25.7758  -14.3325   20.4399 C   0  0  0  0  0  0  0  0  0  0  0  0
  -17.0902  -29.1782   24.4207 C   0  0  0  0  0  0  0  0  0  0  0  0
  -19.0273  -29.4443   22.4400 C   0  0  0  0  0  0  0  0  0  0  0  0
  -25.1636  -27.0544   19.6203 C   0  0  0  0  0  0  0  0  0  0  0  0
  -30.6548  -22.6297   21.9584 C   0  0  0  0  0  0  0  0  0  0  0  0
  -25.3566  -12.0311   21.9599 C   0  0  0  0  0  0  0  0  0  0  0  0
  -24.5329  -13.6997   20.4190 C   0  0  0  0  0  0  0  0  0  0  0  0
  -26.4831  -27.4554   19.4156 C   0  0  0  0  0  0  0  0  0  0  0  0
  -30.9586  -23.7061   21.1249 C   0  0  0  0  0  0  0  0  0  0  0  0
  -23.6563   -9.9477   19.9102 C   0  0  0  0  0  0  0  0  0  0  0  0
  -23.6381   -8.5588   19.7828 C   0  0  0  0  0  0  0  0  0  0  0  0
  -27.0130  -26.8523   21.6903 C   0  0  0  0  0  0  0  0  0  0  0  0
  -29.1175  -23.1067   19.6798 C   0  0  0  0  0  0  0  0  0  0  0  0
  -22.4919   -8.3795   21.9020 C   0  0  0  0  0  0  0  0  0  0  0  0
  -26.8091  -13.8147   21.2208 C   0  0  0  0  0  0  0  0  0  0  0  0
  -29.1865  -14.2234   20.3912 C   0  0  0  0  0  0  0  0  0  0  0  0
  -18.4419  -28.9933   24.7511 C   0  0  0  0  0  0  0  0  0  0  0  0
  -24.7556  -26.5586   20.8670 C   0  0  0  0  0  0  0  0  0  0  0  0
  -19.4241  -29.1377   23.7527 C   0  0  0  0  0  0  0  0  0  0  0  0
  -25.6884  -26.4432   21.9076 C   0  0  0  0  0  0  0  0  0  0  0  0
  -29.5824  -21.7917   21.6525 C   0  0  0  0  0  0  0  0  0  0  0  0
  -24.3234  -12.5490   21.1790 C   0  0  0  0  0  0  0  0  0  0  0  0
  -27.4073  -27.3571   20.4515 C   0  0  0  0  0  0  0  0  0  0  0  0
  -30.1899  -23.9446   19.9857 C   0  0  0  0  0  0  0  0  0  0  0  0
  -23.0923  -10.5525   21.0335 C   0  0  0  0  0  0  0  0  0  0  0  0
  -28.8138  -22.0302   20.5132 C   0  0  0  0  0  0  0  0  0  0  0  0
  -23.0558   -7.7747   20.7787 C   0  0  0  0  0  0  0  0  0  0  0  0
  -22.5101   -9.7684   22.0294 C   0  0  0  0  0  0  0  0  0  0  0  0
  -28.0925  -14.4691   21.2424 C   0  0  0  0  0  0  0  0  0  0  0  0
  -30.1565  -15.0972   20.8177 C   0  0  0  0  0  0  0  0  0  0  0  0
  -29.3144  -13.2888   19.3114 C   0  0  0  0  0  0  0  0  0  0  0  0
  -22.6521  -27.4758   23.0665 C   0  0  0  0  0  0  0  0  0  0  0  0
  -23.4630  -24.6589   24.4556 C   0  0  0  0  0  0  0  0  0  0  0  0
  -25.7687  -22.1707   24.8293 C   0  0  0  0  0  0  0  0  0  0  0  0
  -29.9561  -20.3401   23.6773 C   0  0  0  0  0  0  0  0  0  0  0  0
  -18.8061  -28.7113   26.1873 C   0  0  0  0  0  0  0  0  0  0  0  0
  -23.3350  -26.1052   21.0637 C   0  0  0  0  0  0  0  0  0  0  0  0
  -25.3058  -25.8987   23.2587 C   0  0  0  0  0  0  0  0  0  0  0  0
  -20.2250  -28.1760   26.3620 C   0  0  0  0  0  0  0  0  0  0  0  0
  -31.6608  -17.3998   24.7382 C   0  0  0  0  0  0  0  0  0  0  0  0
  -21.2129  -29.0071   25.5496 C   0  0  0  0  0  0  0  0  0  0  0  0
  -31.0431  -16.2931   23.8803 C   0  0  0  0  0  0  0  0  0  0  0  0
  -30.6260  -18.4482   25.1426 C   0  0  0  0  0  0  0  0  0  0  0  0
  -29.2438  -17.9207   23.1726 C   0  0  0  0  0  0  0  0  0  0  0  0
  -20.8937  -28.9347   24.0515 C   0  0  1  0  0  0  0  0  0  0  0  0
  -22.9080  -26.0965   22.5282 C   0  0  1  0  0  0  0  0  0  0  0  0
  -30.2612  -16.8756   22.6866 C   0  0  2  0  0  0  0  0  0  0  0  0
  -26.7306  -19.9837   25.5968 C   0  0  0  0  0  0  0  0  0  0  0  0
  -27.8061  -19.0471   19.1804 C   0  0  0  0  0  0  0  0  0  0  0  0
  -26.6456  -20.9950   18.0802 C   0  0  0  0  0  0  0  0  0  0  0  0
  -24.0610  -26.2302   27.0018 C   0  0  0  0  0  0  0  0  0  0  0  0
  -25.3206  -24.2401   27.8510 C   0  0  0  0  0  0  0  0  0  0  0  0
  -22.8797  -24.0569   27.3703 C   0  0  0  0  0  0  0  0  0  0  0  0
  -24.6882  -20.7371   22.4764 C   0  0  0  0  0  0  0  0  0  0  0  0
  -30.7210  -27.3931   18.9922 C   0  0  0  0  0  0  0  0  0  0  0  0
  -29.2186  -27.6203   18.9330 C   0  0  0  0  0  0  0  0  0  1  0  0
  -31.0765  -26.1417   19.7795 C   0  0  0  0  0  0  0  0  0  0  0  0
  -24.5129  -24.2190   25.4472 C   0  0  1  0  0  0  0  0  0  0  0  0
  -25.6354  -20.6591   24.7863 C   0  0  2  0  0  0  0  0  0  0  0  0
  -27.8173  -20.5493   18.9417 C   0  0  0  0  0  0  0  0  0  0  0  0
  -24.2006  -24.6987   26.8928 C   0  0  0  0  0  0  0  0  0  0  0  0
  -28.3434  -15.4242   22.1418 N   0  0  0  0  0  0  0  0  0  0  0  0
  -29.6062  -15.7862   21.8582 N   0  0  0  0  0  0  0  0  0  0  0  0
  -23.9035  -25.4745   23.4036 N   0  0  0  0  0  0  0  0  0  0  0  0
  -29.9281  -18.9581   23.9603 N   0  0  0  0  0  0  0  0  0  0  0  0
  -31.4181  -15.3358   20.4005 N   0  0  0  0  0  0  0  0  0  0  0  0
  -28.2212  -12.4665   19.0065 N   0  0  0  0  0  0  0  0  0  0  0  0
  -29.2855  -20.7033   22.5098 N   0  0  0  0  0  0  0  0  0  0  0  0
  -21.3549  -27.6803   23.4965 N   0  0  0  0  0  0  0  0  0  0  0  0
  -24.6237  -22.7709   25.3090 N   0  0  0  0  0  0  0  0  0  0  0  0
  -25.7221  -20.1713   23.3808 N   0  3  0  0  0  0  0  0  0  0  0  0
  -30.3726  -13.1745   18.6476 O   0  0  0  0  0  0  0  0  0  0  0  0
  -23.5645  -28.2935   23.0912 O   0  0  0  0  0  0  0  0  0  0  0  0
  -22.2965  -24.2865   24.6048 O   0  0  0  0  0  0  0  0  0  0  0  0
  -26.7880  -22.7598   24.4766 O   0  0  0  0  0  0  0  0  0  0  0  0
  -30.5556  -21.1388   24.4016 O   0  0  0  0  0  0  0  0  0  0  0  0
  -23.1105  -11.9316   21.1582 O   0  0  0  0  0  0  0  0  0  0  0  0
  -28.6957  -27.7485   20.2546 O   0  0  0  0  0  0  0  0  0  1  0  0
  -30.4874  -25.0027   19.1668 O   0  0  0  0  0  0  0  0  0  0  0  0
  -27.7610  -21.2242   20.1964 O   0  0  0  0  0  0  0  0  0  0  0  0
  -23.0371   -6.4410   20.6554 F   0  0  0  0  0  0  0  0  0  0  0  0
  -21.9657  -10.3438   23.1103 F   0  0  0  0  0  0  0  0  0  0  0  0
  1  2  1  0  0  0  0
  1  5  2  0  0  0  0
  2  6  2  0  0  0  0
  3  9  2  0  0  0  0
  3 18  1  0  0  0  0
  4 10  1  0  0  0  0
  4 18  2  0  0  0  0
  5 20  1  0  0  0  0
  6 22  1  0  0  0  0
  7 11  2  0  0  0  0
  7 21  1  0  0  0  0
  8 12  2  0  0  0  0
  8 24  1  0  0  0  0
  9 25  1  0  0  0  0
 10 25  2  0  0  0  0
 11 26  1  0  0  0  0
 12 27  1  0  0  0  0
 13 14  2  0  0  0  0
 13 28  1  0  0  0  0
 14 30  1  0  0  0  0
 15 23  1  0  0  0  0
 15 26  2  0  0  0  0
 16 27  2  0  0  0  0
 16 29  1  0  0  0  0
 17 30  2  0  0  0  0
 17 31  1  0  0  0  0
 18 32  1  0  0  0  0
 19 32  1  0  0  0  0
 19 33  2  0  0  0  0
 19 34  1  0  0  0  0
 20 22  2  0  0  0  0
 20 39  1  0  0  0  0
 21 23  2  0  0  0  0
 21 40  1  0  0  0  0
 22 48  1  0  0  0  0
 23 41  1  0  0  0  0
 24 29  2  0  0  0  0
 24 71  1  0  0  0  0
 25 80  1  0  0  0  0
 26 81  1  0  0  0  0
 27 82  1  0  0  0  0
 28 31  2  0  0  0  0
 28 80  1  0  0  0  0
 29 83  1  0  0  0  0
 30 84  1  0  0  0  0
 31 85  1  0  0  0  0
 32 65  2  0  0  0  0
 33 66  1  0  0  0  0
 33 69  1  0  0  0  0
 34 70  1  0  0  0  0
 34 75  2  0  0  0  0
 35 49  1  0  0  0  0
 35 72  1  0  0  0  0
 35 76  2  0  0  0  0
 36 61  1  0  0  0  0
 36 67  1  0  0  0  0
 36 77  2  0  0  0  0
 37 62  1  0  0  0  0
 37 73  1  0  0  0  0
 37 78  2  0  0  0  0
 38 68  1  0  0  0  0
 38 71  1  0  0  0  0
 38 79  2  0  0  0  0
 39 42  1  0  0  0  0
 40 49  1  0  0  0  0
 41 67  1  0  0  0  0
 42 44  1  0  0  0  0
 43 45  1  0  0  0  0
 43 46  1  0  0  0  0
 44 48  1  0  0  0  0
 45 50  1  0  0  0  0
 46 68  1  0  0  0  0
 47 50  1  0  0  0  0
 47 68  1  0  0  0  0
 48 72  1  0  0  0  0
 49 67  1  0  0  0  0
 50 66  1  0  0  0  0
 51 62  1  0  0  0  0
 52 63  1  0  0  0  0
 53 63  1  0  0  0  0
 54 64  1  0  0  0  0
 55 64  1  0  0  0  0
 56 64  1  0  0  0  0
 57 74  1  0  0  0  0
 58 59  1  0  0  0  0
 58 60  1  0  0  0  0
 59 81  1  0  0  0  0
 60 82  1  0  0  0  0
 61 64  1  0  0  0  0
 61 73  1  0  0  0  0
 62 74  1  0  0  0  0
 63 83  1  0  0  0  0
 65 66  1  0  0  0  0
M  CHG  1  74   1
M  ISO  4  38 100  59 101  71 100  81 101
M  END
> <Batch ID>
0005

> <Smiles>
CNC(C)C(=O)NC(C(=O)N1Cc2cc([101O:1][101CH2:1]CCOc3ccc([100NH:0][100C:0](=O)N4CCCC(n5nc(-c6ccc(Oc7ccc(F)cc7F)cc6)c(C(N)=O)c5N)C4)c(OC(C)C)c3)ccc2CC1C(=O)NC1CCCc2ccccc21)C(C)(C)C

> <Shape>
0.255

> <Color>
0.093

> <Negative vol penalty>
0.000

$$$$

  -OEChem-04052315263D

 93101  0     1  0  0  0  0  0999 V2000
  -28.6496  -36.3538   27.1821 C   0  0  0  0  0  0  0  0  0  0  0  0
  -28.6458  -35.0318   26.7489 C   0  0  0  0  0  0  0  0  0  0  0  0
  -24.6061   -8.3194   21.3264 C   0  0  0  0  0  0  0  0  0  0  0  0
  -23.2721  -10.2833   21.7742 C   0  0  0  0  0  0  0  0  0  0  0  0
  -27.4823  -37.1129   27.1110 C   0  0  0  0  0  0  0  0  0  0  0  0
  -27.4742  -34.4677   26.2453 C   0  0  0  0  0  0  0  0  0  0  0  0
  -28.2651  -31.8012   22.0133 C   0  0  0  0  0  0  0  0  0  0  0  0
  -26.4339  -17.9208   20.9253 C   0  0  0  0  0  0  0  0  0  0  0  0
  -23.9237   -7.6277   22.3271 C   0  0  0  0  0  0  0  0  0  0  0  0
  -22.5897   -9.5916   22.7749 C   0  0  0  0  0  0  0  0  0  0  0  0
  -28.8090  -30.5256   22.1568 C   0  0  0  0  0  0  0  0  0  0  0  0
  -26.1922  -19.2861   21.0777 C   0  0  0  0  0  0  0  0  0  0  0  0
  -20.9440   -6.0717   22.6919 C   0  0  0  0  0  0  0  0  0  0  0  0
  -20.5176   -4.7744   22.4079 C   0  0  0  0  0  0  0  0  0  0  0  0
  -26.6095  -29.5664   21.9093 C   0  0  0  0  0  0  0  0  0  0  0  0
  -28.7920  -18.3689   20.6501 C   0  0  0  0  0  0  0  0  0  0  0  0
  -21.8581   -3.9342   24.2339 C   0  0  0  0  0  0  0  0  0  0  0  0
  -24.2803   -9.6472   21.0499 C   0  0  0  0  0  0  0  0  0  0  0  0
  -24.6438  -10.4417   18.6532 C   0  0  0  0  0  0  0  0  0  0  0  0
  -26.2983  -36.5608   26.5973 C   0  0  0  0  0  0  0  0  0  0  0  0
  -26.8854  -31.9699   21.8273 C   0  0  0  0  0  0  0  0  0  0  0  0
  -26.2896  -35.2197   26.1684 C   0  0  0  0  0  0  0  0  0  0  0  0
  -26.0509  -30.8451   21.7611 C   0  0  0  0  0  0  0  0  0  0  0  0
  -27.7338  -17.4622   20.7116 C   0  0  0  0  0  0  0  0  0  0  0  0
  -22.9155   -8.2638   23.0514 C   0  0  0  0  0  0  0  0  0  0  0  0
  -27.9808  -29.4081   22.1077 C   0  0  0  0  0  0  0  0  0  0  0  0
  -21.8275   -6.3004   23.7468 C   0  0  0  0  0  0  0  0  0  0  0  0
  -27.2504  -20.1928   21.0162 C   0  0  0  0  0  0  0  0  0  0  0  0
  -20.9746   -3.7056   23.1790 C   0  0  0  0  0  0  0  0  0  0  0  0
  -28.5503  -19.7342   20.8025 C   0  0  0  0  0  0  0  0  0  0  0  0
  -22.2846   -5.2316   24.5178 C   0  0  0  0  0  0  0  0  0  0  0  0
  -24.9852  -10.3625   20.0166 C   0  0  0  0  0  0  0  0  0  0  0  0
  -25.6210  -11.2326   18.1000 C   0  0  0  0  0  0  0  0  0  0  0  0
  -23.5419   -9.8531   17.9496 C   0  0  0  0  0  0  0  0  0  0  0  0
  -24.5612  -33.4024   23.4550 C   0  0  0  0  0  0  0  0  0  0  0  0
  -22.7893  -32.6238   20.8518 C   0  0  0  0  0  0  0  0  0  0  0  0
  -22.3558  -30.5918   18.1445 C   0  0  0  0  0  0  0  0  0  0  0  0
  -26.7423  -22.2017   19.9613 C   0  0  0  0  0  0  0  0  0  0  0  0
  -29.2088  -15.4544   20.3382 C   0  0  0  0  0  0  0  0  0  0  0  0
  -25.0492  -37.4059   26.5841 C   0  0  0  0  0  0  0  0  0  0  0  0
  -26.3179  -33.3512   21.6474 C   0  0  0  0  0  0  0  0  0  0  0  0
  -24.5659  -30.9712   21.5431 C   0  0  0  0  0  0  0  0  0  0  0  0
  -23.9455  -36.8477   25.6894 C   0  0  0  0  0  0  0  0  0  0  0  0
  -30.2115  -12.4684   18.6781 C   0  0  0  0  0  0  0  0  0  0  0  0
  -23.7651  -35.3528   25.9338 C   0  0  0  0  0  0  0  0  0  0  0  0
  -28.9523  -11.5991   18.7035 C   0  0  0  0  0  0  0  0  0  0  0  0
  -30.3622  -13.2861   19.9597 C   0  0  0  0  0  0  0  0  0  0  0  0
  -27.9304  -13.2226   20.3489 C   0  0  0  0  0  0  0  0  0  0  0  0
  -25.0449  -34.5798   25.5929 C   0  0  1  0  0  0  0  0  0  0  0  0
  -24.8306  -33.4337   21.9771 C   0  0  1  0  0  0  0  0  0  0  0  0
  -27.7013  -12.4294   19.0520 C   0  0  2  0  0  0  0  0  0  0  0  0
  -32.1033  -21.7965   15.9561 C   0  0  0  0  0  0  0  0  0  0  0  0
  -20.7950  -30.1748   16.2242 C   0  0  0  0  0  0  0  0  0  0  0  0
  -20.8103  -31.2900   22.7531 C   0  0  0  0  0  0  0  0  0  0  0  0
  -19.8214  -30.1056   20.7815 C   0  0  0  0  0  0  0  0  0  0  0  0
  -19.7569  -32.5965   20.8990 C   0  0  0  0  0  0  0  0  0  0  0  0
  -24.4726  -31.1472   16.1522 C   0  0  0  0  0  0  0  0  0  0  0  0
  -26.4957  -23.6674   20.2537 C   0  0  0  0  0  0  0  0  0  0  0  0
  -31.8294  -23.2567   16.2824 C   0  0  0  0  0  0  0  0  0  0  0  0
  -30.3651  -23.4778   16.6623 C   0  0  0  0  0  0  0  0  0  0  0  0
  -30.0380  -24.9349   17.0074 C   0  0  0  0  0  0  0  0  0  0  0  0
  -29.0513  -26.1640   20.2263 C   0  0  0  0  0  0  0  0  0  0  0  0
  -30.0167  -26.5235   21.3533 C   0  0  0  0  0  0  0  0  0  0  0  0
  -26.8274  -24.5768   19.0806 C   0  0  0  0  0  0  0  0  0  0  0  0
  -28.6078  -25.2072   17.4578 C   0  0  0  0  0  0  0  0  0  0  0  0
  -29.2009  -24.7046   19.8234 C   0  0  0  0  0  0  0  0  0  0  0  0
  -29.8492  -27.9698   21.7970 C   0  0  0  0  0  0  0  0  0  1  0  0
  -21.9551  -31.4337   20.4434 C   0  0  1  0  0  0  0  0  0  0  0  0
  -22.0461  -30.9024   16.6912 C   0  0  2  0  0  0  0  0  0  0  0  0
  -20.6136  -31.3538   21.2253 C   0  0  0  0  0  0  0  0  0  0  0  0
  -26.0928  -11.0482   20.3116 N   0  0  0  0  0  0  0  0  0  0  0  0
  -26.4560  -11.5658   19.1257 N   0  0  0  0  0  0  0  0  0  0  0  0
  -24.0578  -32.3432   21.3790 N   0  0  0  0  0  0  0  0  0  0  0  0
  -29.1407  -14.0498   20.2237 N   0  0  0  0  0  0  0  0  0  0  0  0
  -25.8390  -11.6686   16.8411 N   0  0  0  0  0  0  0  0  0  0  0  0
  -22.6310   -9.0690   18.6707 N   0  0  0  0  0  0  0  0  0  0  0  0
  -27.9795  -16.0753   20.5568 N   0  0  0  0  0  0  0  0  0  0  0  0
  -25.1730  -34.4212   24.1601 N   0  0  0  0  0  0  0  0  0  0  0  0
  -21.7985  -31.5225   18.9957 N   0  0  0  0  0  0  0  0  0  0  0  0
  -23.1825  -30.4899   15.8198 N   0  3  0  0  0  0  0  0  0  0  0  0
  -28.2787  -24.4141   18.6992 N   0  3  1  0  0  0  0  0  0  0  0  0
  -23.3793  -10.0040   16.7150 O   0  0  0  0  0  0  0  0  0  0  0  0
  -23.8495  -32.5203   23.9208 O   0  0  0  0  0  0  0  0  0  0  0  0
  -22.3350  -33.7608   20.7018 O   0  0  0  0  0  0  0  0  0  0  0  0
  -23.0220  -29.6186   18.4903 O   0  0  0  0  0  0  0  0  0  0  0  0
  -26.7016  -21.6825   18.8541 O   0  0  0  0  0  0  0  0  0  0  0  0
  -30.2750  -16.0641   20.2218 O   0  0  0  0  0  0  0  0  0  0  0  0
  -22.2493   -7.5891   24.0279 O   0  0  0  0  0  0  0  0  0  0  0  0
  -27.0065  -21.5596   21.1698 O   0  0  0  0  0  0  0  0  0  0  0  0
  -28.5091  -28.1618   22.2481 O   0  0  0  0  0  0  0  0  0  1  0  0
  -20.5639   -2.4600   22.9072 F   0  0  0  0  0  0  0  0  0  0  0  0
  -29.5711  -20.6004   20.7437 F   0  0  0  0  0  0  0  0  0  0  0  0
  -23.1325   -5.4452   25.5333 F   0  0  0  0  0  0  0  0  0  0  0  0
  1  2  1  0  0  0  0
  1  5  2  0  0  0  0
  2  6  2  0  0  0  0
  3  9  2  0  0  0  0
  3 18  1  0  0  0  0
  4 10  1  0  0  0  0
  4 18  2  0  0  0  0
  5 20  1  0  0  0  0
  6 22  1  0  0  0  0
  7 11  2  0  0  0  0
  7 21  1  0  0  0  0
  8 12  2  0  0  0  0
  8 24  1  0  0  0  0
  9 25  1  0  0  0  0
 10 25  2  0  0  0  0
 11 26  1  0  0  0  0
 12 28  1  0  0  0  0
 13 14  2  0  0  0  0
 13 27  1  0  0  0  0
 14 29  1  0  0  0  0
 15 23  1  0  0  0  0
 15 26  2  0  0  0  0
 16 24  2  0  0  0  0
 16 30  1  0  0  0  0
 17 29  2  0  0  0  0
 17 31  1  0  0  0  0
 18 32  1  0  0  0  0
 19 32  1  0  0  0  0
 19 33  2  0  0  0  0
 19 34  1  0  0  0  0
 20 22  2  0  0  0  0
 20 40  1  0  0  0  0
 21 23  2  0  0  0  0
 21 41  1  0  0  0  0
 22 49  1  0  0  0  0
 23 42  1  0  0  0  0
 24 77  1  0  0  0  0
 25 88  1  0  0  0  0
 26 90  1  0  0  0  0
 27 31  2  0  0  0  0
 27 88  1  0  0  0  0
 28 30  2  0  0  0  0
 28 89  1  0  0  0  0
 29 91  1  0  0  0  0
 30 92  1  0  0  0  0
 31 93  1  0  0  0  0
 32 71  2  0  0  0  0
 33 72  1  0  0  0  0
 33 75  1  0  0  0  0
 34 76  1  0  0  0  0
 34 82  2  0  0  0  0
 35 50  1  0  0  0  0
 35 78  1  0  0  0  0
 35 83  2  0  0  0  0
 36 68  1  0  0  0  0
 36 73  1  0  0  0  0
 36 84  2  0  0  0  0
 37 69  1  0  0  0  0
 37 79  1  0  0  0  0
 37 85  2  0  0  0  0
 38 58  1  0  0  0  0
 38 86  2  0  0  0  0
 38 89  1  0  0  0  0
 39 74  1  0  0  0  0
 39 77  1  0  0  0  0
 39 87  2  0  0  0  0
 40 43  1  0  0  0  0
 41 50  1  0  0  0  0
 42 73  1  0  0  0  0
 43 45  1  0  0  0  0
 44 46  1  0  0  0  0
 44 47  1  0  0  0  0
 45 49  1  0  0  0  0
 46 51  1  0  0  0  0
 47 74  1  0  0  0  0
 48 51  1  0  0  0  0
 48 74  1  0  0  0  0
 49 78  1  0  0  0  0
 50 73  1  0  0  0  0
 51 72  1  0  0  0  0
 52 59  1  0  0  0  0
 53 69  1  0  0  0  0
 54 70  1  0  0  0  0
 55 70  1  0  0  0  0
 56 70  1  0  0  0  0
 57 80  1  0  0  0  0
 58 64  1  0  0  0  0
 59 60  1  0  0  0  0
 60 61  1  0  0  0  0
 61 65  1  0  0  0  0
 62 63  1  0  0  0  0
 62 66  1  0  0  0  0
 63 67  1  0  0  0  0
 64 81  1  0  0  0  0
 65 81  1  0  0  0  0
 66 81  1  0  0  0  0
 67 90  1  0  0  0  0
 68 70  1  0  0  0  0
 68 79  1  0  0  0  0
 69 80  1  0  0  0  0
 71 72  1  0  0  0  0
M  CHG  2  80   1  81   1
M  ISO  4  39 100  67 101  77 100  90 101
M  END
> <Batch ID>
0005

> <Smiles>
CCCCCN(CCC[101CH2:1][101O:1]c1ccc2c(c1)CN(C(=O)C(NC(=O)C(C)NC)C(C)(C)C)C(C(=O)NC1CCCc3ccccc31)C2)CCC(=O)Oc1ccc([100NH:0][100C:0](=O)N2CCCC(n3nc(-c4ccc(Oc5ccc(F)cc5F)cc4)c(C(N)=O)c3N)C2)cc1F

> <Shape>
0.265

> <Color>
0.081

> <Negative vol penalty>
0.000

$$$$

  -OEChem-04052315263D

 89 97  0     1  0  0  0  0  0999 V2000
  -19.4264   -8.3621   21.0079 C   0  0  0  0  0  0  0  0  0  0  0  0
  -19.3855   -9.5039   21.8017 C   0  0  0  0  0  0  0  0  0  0  0  0
  -29.0165  -20.1316   24.1312 C   0  0  0  0  0  0  0  0  0  0  0  0
  -23.1786  -28.9220   19.3016 C   0  0  0  0  0  0  0  0  0  0  0  0
  -23.5744  -28.6098   21.6644 C   0  0  0  0  0  0  0  0  0  0  0  0
  -20.6501   -7.8783   20.5470 C   0  0  0  0  0  0  0  0  0  0  0  0
  -20.5686  -10.1619   22.1360 C   0  0  0  0  0  0  0  0  0  0  0  0
  -21.3519  -16.1943   22.8452 C   0  0  0  0  0  0  0  0  0  0  0  0
  -28.9866  -20.9543   23.0052 C   0  0  0  0  0  0  0  0  0  0  0  0
  -28.8803  -20.6861   25.4039 C   0  0  0  0  0  0  0  0  0  0  0  0
  -21.8370  -29.2003   19.5631 C   0  0  0  0  0  0  0  0  0  0  0  0
  -22.2329  -28.8882   21.9259 C   0  0  0  0  0  0  0  0  0  0  0  0
  -21.3890  -17.0088   23.9761 C   0  0  0  0  0  0  0  0  0  0  0  0
  -19.2718  -27.2658   21.7505 C   0  0  0  0  0  0  0  0  0  0  0  0
  -18.5996  -26.4329   22.6448 C   0  0  0  0  0  0  0  0  0  0  0  0
  -23.7978  -16.8790   23.9831 C   0  0  0  0  0  0  0  0  0  0  0  0
  -18.1598  -28.3272   24.0785 C   0  0  0  0  0  0  0  0  0  0  0  0
  -24.0473  -28.6267   20.3522 C   0  0  0  0  0  0  0  0  0  0  0  0
  -26.4972  -29.2585   20.0261 C   0  0  0  0  0  0  0  0  0  0  0  0
  -21.8479   -8.5363   20.8679 C   0  0  0  0  0  0  0  0  0  0  0  0
  -22.5390  -15.7063   22.2802 C   0  0  0  0  0  0  0  0  0  0  0  0
  -21.8096   -9.6857   21.6801 C   0  0  0  0  0  0  0  0  0  0  0  0
  -23.7732  -16.0606   22.8435 C   0  0  0  0  0  0  0  0  0  0  0  0
  -28.6843  -22.8860   24.4245 C   0  0  0  0  0  0  0  0  0  0  0  0
  -28.8205  -22.3314   23.1518 C   0  0  0  0  0  0  0  0  0  0  0  0
  -28.7143  -22.0633   25.5505 C   0  0  0  0  0  0  0  0  0  0  0  0
  -21.3642  -29.1834   20.8752 C   0  0  0  0  0  0  0  0  0  0  0  0
  -22.6119  -17.3489   24.5470 C   0  0  0  0  0  0  0  0  0  0  0  0
  -19.3882  -28.6294   22.0201 C   0  0  0  0  0  0  0  0  0  0  0  0
  -18.0435  -26.9636   23.8088 C   0  0  0  0  0  0  0  0  0  0  0  0
  -18.8321  -29.1601   23.1841 C   0  0  0  0  0  0  0  0  0  0  0  0
  -25.4331  -28.3386   20.0827 C   0  0  0  0  0  0  0  0  0  0  0  0
  -27.5999  -28.4909   19.7408 C   0  0  0  0  0  0  0  0  0  0  0  0
  -26.4896  -30.6798   20.2147 C   0  0  0  0  0  0  0  0  0  0  0  0
  -23.7694  -12.8161   21.7942 C   0  0  0  0  0  0  0  0  0  0  0  0
  -26.0594  -14.4837   20.2139 C   0  0  0  0  0  0  0  0  0  0  0  0
  -27.3996  -23.3190   27.2006 C   0  0  0  0  0  0  0  0  0  0  0  0
  -23.4466  -20.2273   26.5881 C   0  0  0  0  0  0  0  0  0  0  0  0
  -27.7031  -17.4413   19.7699 C   0  0  0  0  0  0  0  0  0  0  0  0
  -28.9188  -22.7370   20.6674 C   0  0  0  0  0  0  0  0  0  0  0  0
  -23.1506   -7.9488   20.3856 C   0  0  0  0  0  0  0  0  0  0  0  0
  -22.4832  -14.8507   21.0445 C   0  0  0  0  0  0  0  0  0  0  0  0
  -25.0771  -15.5795   22.2632 C   0  0  0  0  0  0  0  0  0  0  0  0
  -24.3261   -8.9186   20.4744 C   0  0  0  0  0  0  0  0  0  0  0  0
  -28.8693  -24.4330   17.5371 C   0  0  0  0  0  0  0  0  0  0  0  0
  -24.3429   -9.6142   21.8319 C   0  0  0  0  0  0  0  0  0  0  0  0
  -28.0846  -25.7136   17.8310 C   0  0  0  0  0  0  0  0  0  0  0  0
  -28.3141  -23.2377   18.3097 C   0  0  0  0  0  0  0  0  0  0  0  0
  -27.4015  -24.7207   20.0524 C   0  0  0  0  0  0  0  0  0  0  0  0
  -23.0692  -10.4415   22.0437 C   0  0  1  0  0  0  0  0  0  0  0  0
  -23.7287  -13.9898   20.8571 C   0  0  1  0  0  0  0  0  0  0  0  0
  -27.9641  -25.9654   19.3468 C   0  0  2  0  0  0  0  0  0  0  0  0
  -28.5069  -24.3647   24.5820 C   0  0  0  0  0  0  0  0  0  0  0  0
  -29.5519  -18.4861   18.4328 C   0  0  0  0  0  0  0  0  0  0  0  0
  -28.1206  -13.0663   21.9609 C   0  0  0  0  0  0  0  0  0  0  0  0
  -29.7931  -14.7965   21.2701 C   0  0  0  0  0  0  0  0  0  0  0  0
  -28.7723  -13.2974   19.5575 C   0  0  0  0  0  0  0  0  0  0  0  0
  -29.6662  -22.4223   27.8368 C   0  0  0  0  0  0  0  0  0  0  0  0
  -25.8635  -19.4124   18.5495 C   0  0  0  0  0  0  0  0  0  0  0  0
  -26.3433  -23.4037   26.0964 C   0  0  0  0  0  0  0  0  0  0  0  0
  -23.7984  -18.9762   25.8120 C   0  0  0  0  0  0  0  0  0  1  0  0
  -24.9019  -23.4863   26.6135 C   0  0  0  0  0  0  0  0  0  0  0  0
  -24.4904  -22.2996   27.4835 C   0  0  0  0  0  0  0  0  0  0  0  0
  -27.3704  -15.1264   20.5974 C   0  0  1  0  0  0  0  0  0  0  0  0
  -28.0571  -18.2185   18.5148 C   0  0  2  0  0  0  0  0  0  0  0  0
  -28.4896  -14.0793   20.8588 C   0  0  0  0  0  0  0  0  0  0  0  0
  -25.8244  -27.0826   19.8517 N   0  0  0  0  0  0  0  0  0  0  0  0
  -27.1467  -27.2079   19.6471 N   0  0  0  0  0  0  0  0  0  0  0  0
  -24.9699  -14.7402   21.0584 N   0  0  0  0  0  0  0  0  0  0  0  0
  -28.2325  -23.5478   19.7387 N   0  0  0  0  0  0  0  0  0  0  0  0
  -28.9031  -28.7950   19.5634 N   0  0  0  0  0  0  0  0  0  0  0  0
  -25.2707  -31.3093   20.5013 N   0  0  0  0  0  0  0  0  0  0  0  0
  -28.7945  -23.1481   21.9941 N   0  0  0  0  0  0  0  0  0  0  0  0
  -23.1452  -11.6842   21.3057 N   0  0  0  0  0  0  0  0  0  0  0  0
  -24.5517  -21.0434   26.7727 N   0  0  0  0  0  0  0  0  0  0  0  0
  -27.6814  -16.0820   19.5398 N   0  0  0  0  0  0  0  0  0  0  0  0
  -28.5786  -22.6089   26.8627 N   0  0  0  0  0  0  0  0  0  0  0  0
  -27.3437  -19.5268   18.4973 N   0  3  0  0  0  0  0  0  0  0  0  0
  -27.5302  -31.3732   20.1153 O   0  0  0  0  0  0  0  0  0  0  0  0
  -24.3272  -12.9285   22.8796 O   0  0  0  0  0  0  0  0  0  0  0  0
  -26.0022  -13.7857   19.1984 O   0  0  0  0  0  0  0  0  0  0  0  0
  -27.1683  -23.8337   28.2972 O   0  0  0  0  0  0  0  0  0  0  0  0
  -22.3109  -20.4609   26.9925 O   0  0  0  0  0  0  0  0  0  0  0  0
  -27.4729  -17.9855   20.8476 O   0  0  0  0  0  0  0  0  0  0  0  0
  -29.5912  -21.7666   20.3093 O   0  0  0  0  0  0  0  0  0  0  0  0
  -20.0552  -29.4551   21.1308 O   0  0  0  0  0  0  0  0  0  0  0  0
  -22.6509  -18.1432   25.6513 O   0  0  0  0  0  0  0  0  0  1  0  0
  -17.3967  -26.1639   24.6668 F   0  0  0  0  0  0  0  0  0  0  0  0
  -18.9397  -30.4695   23.4480 F   0  0  0  0  0  0  0  0  0  0  0  0
  1  2  1  0  0  0  0
  1  6  2  0  0  0  0
  2  7  2  0  0  0  0
  3  9  1  0  0  0  0
  3 10  2  0  0  0  0
  4 11  2  0  0  0  0
  4 18  1  0  0  0  0
  5 12  1  0  0  0  0
  5 18  2  0  0  0  0
  6 20  1  0  0  0  0
  7 22  1  0  0  0  0
  8 13  2  0  0  0  0
  8 21  1  0  0  0  0
  9 25  2  0  0  0  0
 10 26  1  0  0  0  0
 11 27  1  0  0  0  0
 12 27  2  0  0  0  0
 13 28  1  0  0  0  0
 14 15  2  0  0  0  0
 14 29  1  0  0  0  0
 15 30  1  0  0  0  0
 16 23  1  0  0  0  0
 16 28  2  0  0  0  0
 17 30  2  0  0  0  0
 17 31  1  0  0  0  0
 18 32  1  0  0  0  0
 19 32  1  0  0  0  0
 19 33  2  0  0  0  0
 19 34  1  0  0  0  0
 20 22  2  0  0  0  0
 20 41  1  0  0  0  0
 21 23  2  0  0  0  0
 21 42  1  0  0  0  0
 22 50  1  0  0  0  0
 23 43  1  0  0  0  0
 24 25  1  0  0  0  0
 24 26  2  0  0  0  0
 24 53  1  0  0  0  0
 25 73  1  0  0  0  0
 26 77  1  0  0  0  0
 27 86  1  0  0  0  0
 28 87  1  0  0  0  0
 29 31  2  0  0  0  0
 29 86  1  0  0  0  0
 30 88  1  0  0  0  0
 31 89  1  0  0  0  0
 32 67  2  0  0  0  0
 33 68  1  0  0  0  0
 33 71  1  0  0  0  0
 34 72  1  0  0  0  0
 34 79  2  0  0  0  0
 35 51  1  0  0  0  0
 35 74  1  0  0  0  0
 35 80  2  0  0  0  0
 36 64  1  0  0  0  0
 36 69  1  0  0  0  0
 36 81  2  0  0  0  0
 37 60  1  0  0  0  0
 37 77  1  0  0  0  0
 37 82  2  0  0  0  0
 38 61  1  0  0  0  0
 38 75  1  0  0  0  0
 38 83  2  0  0  0  0
 39 65  1  0  0  0  0
 39 76  1  0  0  0  0
 39 84  2  0  0  0  0
 40 70  1  0  0  0  0
 40 73  1  0  0  0  0
 40 85  2  0  0  0  0
 41 44  1  0  0  0  0
 42 51  1  0  0  0  0
 43 69  1  0  0  0  0
 44 46  1  0  0  0  0
 45 47  1  0  0  0  0
 45 48  1  0  0  0  0
 46 50  1  0  0  0  0
 47 52  1  0  0  0  0
 48 70  1  0  0  0  0
 49 52  1  0  0  0  0
 49 70  1  0  0  0  0
 50 74  1  0  0  0  0
 51 69  1  0  0  0  0
 52 68  1  0  0  0  0
 54 65  1  0  0  0  0
 55 66  1  0  0  0  0
 56 66  1  0  0  0  0
 57 66  1  0  0  0  0
 58 77  1  0  0  0  0
 59 78  1  0  0  0  0
 60 62  1  0  0  0  0
 61 87  1  0  0  0  0
 62 63  1  0  0  0  0
 63 75  1  0  0  0  0
 64 66  1  0  0  0  0
 64 76  1  0  0  0  0
 65 78  1  0  0  0  0
 67 68  1  0  0  0  0
M  CHG  1  78   1
M  ISO  4  40 100  61 101  73 100  87 101
M  END
> <Batch ID>
0005

> <Smiles>
CNC(C)C(=O)NC(C(=O)N1Cc2cc([101O:1][101CH2:1]C(=O)NCCCC(=O)N(C)c3cccc([100NH:0][100C:0](=O)N4CCCC(n5nc(-c6ccc(Oc7ccc(F)cc7F)cc6)c(C(N)=O)c5N)C4)c3C)ccc2CC1C(=O)NC1CCCc2ccccc21)C(C)(C)C

> <Shape>
0.251

> <Color>
0.048

> <Negative vol penalty>
0.000

$$$$

  -OEChem-04052315263D

 87 95  0     1  0  0  0  0  0999 V2000
  -29.8620  -29.4556   12.7357 C   0  0  0  0  0  0  0  0  0  0  0  0
  -30.0459  -28.8332   13.9663 C   0  0  0  0  0  0  0  0  0  0  0  0
  -23.4204   -9.8482   19.8206 C   0  0  0  0  0  0  0  0  0  0  0  0
  -24.0579   -9.8362   22.1509 C   0  0  0  0  0  0  0  0  0  0  0  0
  -29.1846  -30.6722   12.6656 C   0  0  0  0  0  0  0  0  0  0  0  0
  -29.5534  -29.4276   15.1275 C   0  0  0  0  0  0  0  0  0  0  0  0
  -27.2042  -26.1190   18.1574 C   0  0  0  0  0  0  0  0  0  0  0  0
  -29.6105  -18.7921   21.9125 C   0  0  0  0  0  0  0  0  0  0  0  0
  -29.8424  -17.7072   22.7580 C   0  0  0  0  0  0  0  0  0  0  0  0
  -22.8295   -8.5943   19.9757 C   0  0  0  0  0  0  0  0  0  0  0  0
  -23.4669   -8.5823   22.3061 C   0  0  0  0  0  0  0  0  0  0  0  0
  -28.0076  -25.2849   18.9337 C   0  0  0  0  0  0  0  0  0  0  0  0
  -20.3520   -7.3288   22.6896 C   0  0  0  0  0  0  0  0  0  0  0  0
  -19.5506   -7.1263   23.8131 C   0  0  0  0  0  0  0  0  0  0  0  0
  -27.6476  -26.7209   20.8383 C   0  0  0  0  0  0  0  0  0  0  0  0
  -29.8240  -20.2997   23.7884 C   0  0  0  0  0  0  0  0  0  0  0  0
  -21.0069   -5.3365   24.5293 C   0  0  0  0  0  0  0  0  0  0  0  0
  -24.0347  -10.4692   20.9082 C   0  0  0  0  0  0  0  0  0  0  0  0
  -24.0341  -13.0202   20.9224 C   0  0  0  0  0  0  0  0  0  0  0  0
  -28.6751  -31.2770   13.8254 C   0  0  0  0  0  0  0  0  0  0  0  0
  -26.6244  -27.2682   18.7139 C   0  0  0  0  0  0  0  0  0  0  0  0
  -28.8697  -30.6540   15.0730 C   0  0  0  0  0  0  0  0  0  0  0  0
  -26.8352  -27.5665   20.0676 C   0  0  0  0  0  0  0  0  0  0  0  0
  -29.6013  -20.0883   22.4277 C   0  0  0  0  0  0  0  0  0  0  0  0
  -30.0650  -17.9185   24.1187 C   0  0  0  0  0  0  0  0  0  0  0  0
  -22.8527   -7.9614   21.2185 C   0  0  0  0  0  0  0  0  0  0  0  0
  -28.2318  -25.5873   20.2736 C   0  0  0  0  0  0  0  0  0  0  0  0
  -21.4809   -6.5351   22.4858 C   0  0  0  0  0  0  0  0  0  0  0  0
  -19.8781   -6.1302   24.7330 C   0  0  0  0  0  0  0  0  0  0  0  0
  -30.0558  -19.2148   24.6339 C   0  0  0  0  0  0  0  0  0  0  0  0
  -21.8083   -5.5390   23.4057 C   0  0  0  0  0  0  0  0  0  0  0  0
  -24.6458  -11.7642   20.7484 C   0  0  0  0  0  0  0  0  0  0  0  0
  -25.0304  -13.9272   20.6554 C   0  0  0  0  0  0  0  0  0  0  0  0
  -22.6860  -13.3384   21.2923 C   0  0  0  0  0  0  0  0  0  0  0  0
  -26.8478  -30.3892   18.1544 C   0  0  0  0  0  0  0  0  0  0  0  0
  -24.4697  -30.5584   20.3540 C   0  0  0  0  0  0  0  0  0  0  0  0
  -29.3228  -22.5359   21.9120 C   0  0  0  0  0  0  0  0  0  0  0  0
  -22.8696  -29.1267   23.0066 C   0  0  0  0  0  0  0  0  0  0  0  0
  -31.0036  -13.6240   20.9381 C   0  0  0  0  0  0  0  0  0  0  0  0
  -27.9909  -32.6157   13.7054 C   0  0  0  0  0  0  0  0  0  0  0  0
  -25.7386  -28.1432   17.8700 C   0  0  0  0  0  0  0  0  0  0  0  0
  -26.2192  -28.7773   20.7181 C   0  0  0  0  0  0  0  0  0  0  0  0
  -27.1728  -32.9943   14.9373 C   0  0  0  0  0  0  0  0  0  0  0  0
  -29.0341  -14.4440   18.0876 C   0  0  0  0  0  0  0  0  0  0  0  0
  -27.9752  -32.7406   16.2096 C   0  0  0  0  0  0  0  0  0  0  0  0
  -27.6309  -13.9635   18.4620 C   0  0  0  0  0  0  0  0  0  0  0  0
  -30.1138  -13.5096   18.6291 C   0  0  0  0  0  0  0  0  0  0  0  0
  -28.6320  -12.7659   20.4525 C   0  0  0  0  0  0  0  0  0  0  0  0
  -28.3285  -31.2552   16.3520 C   0  0  1  0  0  0  0  0  0  0  0  0
  -25.6169  -29.5657   18.4077 C   0  0  1  0  0  0  0  0  0  0  0  0
  -27.5117  -13.7063   19.9762 C   0  0  2  0  0  0  0  0  0  0  0  0
  -20.9848  -29.5197   24.6161 C   0  0  0  0  0  0  0  0  0  0  0  0
  -26.1932  -32.5616   21.8794 C   0  0  0  0  0  0  0  0  0  0  0  0
  -24.7334  -32.1892   23.8790 C   0  0  0  0  0  0  0  0  0  0  0  0
  -23.7610  -33.1362   21.7860 C   0  0  0  0  0  0  0  0  0  0  0  0
  -30.5310  -17.0256   26.3871 C   0  0  0  0  0  0  0  0  0  0  0  0
  -21.4323  -26.7056   22.0949 C   0  0  0  0  0  0  0  0  0  0  0  0
  -29.0417  -23.3904   20.6900 C   0  0  0  0  0  0  0  0  0  1  0  0
  -31.6519  -15.1218   23.8353 C   0  0  0  0  0  0  0  0  0  0  0  0
  -31.7476  -13.6926   23.3047 C   0  0  0  0  0  0  0  0  0  0  0  0
  -30.2946  -15.4689   24.4457 C   0  0  0  0  0  0  0  0  0  0  0  0
  -24.4107  -30.6939   21.8564 C   0  0  1  0  0  0  0  0  0  0  0  0
  -21.3959  -28.8984   23.2903 C   0  0  2  0  0  0  0  0  0  0  0  0
  -24.7879  -32.1234   22.3377 C   0  0  0  0  0  0  0  0  0  0  0  0
  -25.9310  -11.8608   20.3978 N   0  0  0  0  0  0  0  0  0  0  0  0
  -26.1351  -13.1882   20.3493 N   0  0  0  0  0  0  0  0  0  0  0  0
  -25.3660  -29.6053   19.8498 N   0  0  0  0  0  0  0  0  0  0  0  0
  -29.9451  -13.3085   20.0703 N   0  0  0  0  0  0  0  0  0  0  0  0
  -25.0604  -15.2768   20.6549 N   0  0  0  0  0  0  0  0  0  0  0  0
  -21.7922  -12.2855   21.5306 N   0  0  0  0  0  0  0  0  0  0  0  0
  -29.3656  -21.1887   21.5696 N   0  0  0  0  0  0  0  0  0  0  0  0
  -27.1819  -30.5054   16.8186 N   0  0  0  0  0  0  0  0  0  0  0  0
  -23.0745  -30.2630   22.2529 N   0  0  0  0  0  0  0  0  0  0  0  0
  -30.7582  -13.4097   22.2889 N   0  0  0  0  0  0  0  0  0  0  0  0
  -30.2983  -16.8196   24.9715 N   0  0  3  0  0  0  0  0  0  0  0  0
  -21.0985  -27.4390   23.3430 N   0  3  0  0  0  0  0  0  0  0  0  0
  -22.2814  -14.5216   21.3922 O   0  0  0  0  0  0  0  0  0  0  0  0
  -27.4492  -30.8838   19.1006 O   0  0  0  0  0  0  0  0  0  0  0  0
  -23.7421  -31.2669   19.6538 O   0  0  0  0  0  0  0  0  0  0  0  0
  -29.4802  -23.0339   23.0219 O   0  0  0  0  0  0  0  0  0  0  0  0
  -23.7511  -28.3745   23.4161 O   0  0  0  0  0  0  0  0  0  0  0  0
  -32.0851  -14.0691   20.5392 O   0  0  0  0  0  0  0  0  0  0  0  0
  -22.2759   -6.7379   21.3703 O   0  0  0  0  0  0  0  0  0  0  0  0
  -29.0160  -24.7753   21.0334 O   0  0  0  0  0  0  0  0  0  1  0  0
  -19.1093   -5.9369   25.8127 F   0  0  0  0  0  0  0  0  0  0  0  0
  -30.2670  -19.4290   25.9403 F   0  0  0  0  0  0  0  0  0  0  0  0
  -22.8922   -4.7741   23.2159 F   0  0  0  0  0  0  0  0  0  0  0  0
  1  2  1  0  0  0  0
  1  5  2  0  0  0  0
  2  6  2  0  0  0  0
  3 10  2  0  0  0  0
  3 18  1  0  0  0  0
  4 11  1  0  0  0  0
  4 18  2  0  0  0  0
  5 20  1  0  0  0  0
  6 22  1  0  0  0  0
  7 12  2  0  0  0  0
  7 21  1  0  0  0  0
  8  9  2  0  0  0  0
  8 24  1  0  0  0  0
  9 25  1  0  0  0  0
 10 26  1  0  0  0  0
 11 26  2  0  0  0  0
 12 27  1  0  0  0  0
 13 14  2  0  0  0  0
 13 28  1  0  0  0  0
 14 29  1  0  0  0  0
 15 23  1  0  0  0  0
 15 27  2  0  0  0  0
 16 24  2  0  0  0  0
 16 30  1  0  0  0  0
 17 29  2  0  0  0  0
 17 31  1  0  0  0  0
 18 32  1  0  0  0  0
 19 32  1  0  0  0  0
 19 33  2  0  0  0  0
 19 34  1  0  0  0  0
 20 22  2  0  0  0  0
 20 40  1  0  0  0  0
 21 23  2  0  0  0  0
 21 41  1  0  0  0  0
 22 49  1  0  0  0  0
 23 42  1  0  0  0  0
 24 71  1  0  0  0  0
 25 30  2  0  0  0  0
 25 75  1  0  0  0  0
 26 83  1  0  0  0  0
 27 84  1  0  0  0  0
 28 31  2  0  0  0  0
 28 83  1  0  0  0  0
 29 85  1  0  0  0  0
 30 86  1  0  0  0  0
 31 87  1  0  0  0  0
 32 65  2  0  0  0  0
 33 66  1  0  0  0  0
 33 69  1  0  0  0  0
 34 70  1  0  0  0  0
 34 77  2  0  0  0  0
 35 50  1  0  0  0  0
 35 72  1  0  0  0  0
 35 78  2  0  0  0  0
 36 62  1  0  0  0  0
 36 67  1  0  0  0  0
 36 79  2  0  0  0  0
 37 58  1  0  0  0  0
 37 71  1  0  0  0  0
 37 80  2  0  0  0  0
 38 63  1  0  0  0  0
 38 73  1  0  0  0  0
 38 81  2  0  0  0  0
 39 68  1  0  0  0  0
 39 74  1  0  0  0  0
 39 82  2  0  0  0  0
 40 43  1  0  0  0  0
 41 50  1  0  0  0  0
 42 67  1  0  0  0  0
 43 45  1  0  0  0  0
 44 46  1  0  0  0  0
 44 47  1  0  0  0  0
 45 49  1  0  0  0  0
 46 51  1  0  0  0  0
 47 68  1  0  0  0  0
 48 51  1  0  0  0  0
 48 68  1  0  0  0  0
 49 72  1  0  0  0  0
 50 67  1  0  0  0  0
 51 66  1  0  0  0  0
 52 63  1  0  0  0  0
 53 64  1  0  0  0  0
 54 64  1  0  0  0  0
 55 64  1  0  0  0  0
 56 75  1  0  0  0  0
 57 76  1  0  0  0  0
 58 84  1  0  0  0  0
 59 60  1  0  0  0  0
 59 61  1  0  0  0  0
 60 74  1  0  0  0  0
 61 75  1  0  0  0  0
 62 64  1  0  0  0  0
 62 73  1  0  0  0  0
 63 76  1  0  0  0  0
 65 66  1  0  0  0  0
M  CHG  1  76   1
M  ISO  4  39 100  58 101  74 100  84 101
M  END
> <Batch ID>
0005

> <Smiles>
CNC(C)C(=O)NC(C(=O)N1Cc2cc([101O:1][101CH2:1]C(=O)Nc3ccc(N(C)CCC[100NH:0][100C:0](=O)N4CCCC(n5nc(-c6ccc(Oc7ccc(F)cc7F)cc6)c(C(N)=O)c5N)C4)c(F)c3)ccc2CC1C(=O)NC1CCCc2ccccc21)C(C)(C)C

> <Shape>
0.295

> <Color>
0.180

> <Negative vol penalty>
0.000

$$$$

  -OEChem-04052315263D

 84 92  0     1  0  0  0  0  0999 V2000
  -31.1990  -26.9257   15.9678 C   0  0  0  0  0  0  0  0  0  0  0  0
  -29.8213  -26.7445   16.0355 C   0  0  0  0  0  0  0  0  0  0  0  0
  -28.2543  -15.5334   19.9278 C   0  0  0  0  0  0  0  0  0  0  0  0
  -27.5716  -17.1609   21.5777 C   0  0  0  0  0  0  0  0  0  0  0  0
  -31.9176  -27.2362   17.1215 C   0  0  0  0  0  0  0  0  0  0  0  0
  -29.1615  -26.8728   17.2573 C   0  0  0  0  0  0  0  0  0  0  0  0
  -23.5303  -29.0941   18.1849 C   0  0  0  0  0  0  0  0  0  0  0  0
  -17.5516  -19.7995   21.3204 C   0  0  0  0  0  0  0  0  0  0  0  0
  -19.0515  -20.0947   23.1913 C   0  0  0  0  0  0  0  0  0  0  0  0
  -18.2323  -18.6373   20.9580 C   0  0  0  0  0  0  0  0  0  0  0  0
  -19.7322  -18.9324   22.8289 C   0  0  0  0  0  0  0  0  0  0  0  0
  -29.3660  -16.3160   19.6158 C   0  0  0  0  0  0  0  0  0  0  0  0
  -28.6833  -17.9435   21.2658 C   0  0  0  0  0  0  0  0  0  0  0  0
  -22.2953  -28.4733   18.3673 C   0  0  0  0  0  0  0  0  0  0  0  0
  -29.5986  -20.1184   18.8444 C   0  0  0  0  0  0  0  0  0  0  0  0
  -29.4018  -21.4902   18.6869 C   0  0  0  0  0  0  0  0  0  0  0  0
  -22.5638  -28.6550   20.7578 C   0  0  0  0  0  0  0  0  0  0  0  0
  -30.9485  -21.9195   20.4926 C   0  0  0  0  0  0  0  0  0  0  0  0
  -27.3570  -15.9559   20.9087 C   0  0  0  0  0  0  0  0  0  0  0  0
  -26.1291  -14.1314   22.2015 C   0  0  0  0  0  0  0  0  0  0  0  0
  -31.2650  -27.3778   18.3563 C   0  0  0  0  0  0  0  0  0  0  0  0
  -24.2975  -29.4909   19.2896 C   0  0  0  0  0  0  0  0  0  0  0  0
  -29.8723  -27.1842   18.4288 C   0  0  0  0  0  0  0  0  0  0  0  0
  -23.8070  -29.2829   20.5867 C   0  0  0  0  0  0  0  0  0  0  0  0
  -17.9612  -20.5283   22.4370 C   0  0  0  0  0  0  0  0  0  0  0  0
  -19.3226  -18.2037   21.7123 C   0  0  0  0  0  0  0  0  0  0  0  0
  -29.5805  -17.5210   20.2848 C   0  0  0  0  0  0  0  0  0  0  0  0
  -21.8132  -28.2510   19.6539 C   0  0  0  0  0  0  0  0  0  0  0  0
  -30.4703  -19.6470   19.8261 C   0  0  0  0  0  0  0  0  0  0  0  0
  -30.0768  -22.3908   19.5109 C   0  0  0  0  0  0  0  0  0  0  0  0
  -31.1453  -20.5476   20.6502 C   0  0  0  0  0  0  0  0  0  0  0  0
  -26.2082  -15.1482   21.2310 C   0  0  0  0  0  0  0  0  0  0  0  0
  -24.8361  -13.6760   22.1169 C   0  0  0  0  0  0  0  0  0  0  0  0
  -27.1345  -13.6425   23.0991 C   0  0  0  0  0  0  0  0  0  0  0  0
  -27.1662  -28.7205   20.4213 C   0  0  0  0  0  0  0  0  0  0  0  0
  -26.5509  -31.1155   22.5208 C   0  0  0  0  0  0  0  0  0  0  0  0
  -18.2753  -23.7247   21.7008 C   0  0  0  0  0  0  0  0  0  0  0  0
  -24.2313  -33.0327   24.1302 C   0  0  0  0  0  0  0  0  0  0  0  0
  -19.7376  -16.1831   20.2662 C   0  0  0  0  0  0  0  0  0  0  0  0
  -32.0906  -27.6678   19.5847 C   0  0  0  0  0  0  0  0  0  0  0  0
  -25.6155  -30.1834   19.0756 C   0  0  0  0  0  0  0  0  0  0  0  0
  -24.5827  -29.7083   21.8056 C   0  0  0  0  0  0  0  0  0  0  0  0
  -31.2648  -28.1549   20.7726 C   0  0  0  0  0  0  0  0  0  0  0  0
  -21.2274  -13.2057   19.0040 C   0  0  0  0  0  0  0  0  0  0  0  0
  -30.0313  -27.2776   20.9610 C   0  0  0  0  0  0  0  0  0  0  0  0
  -22.6648  -13.2704   19.5253 C   0  0  0  0  0  0  0  0  0  0  0  0
  -20.6999  -14.5876   18.6220 C   0  0  0  0  0  0  0  0  0  0  0  0
  -22.2578  -15.6742   20.1909 C   0  0  0  0  0  0  0  0  0  0  0  0
  -29.1174  -27.3393   19.7312 C   0  0  1  0  0  0  0  0  0  0  0  0
  -26.5463  -30.0819   20.2800 C   0  0  1  0  0  0  0  0  0  0  0  0
  -22.8101  -14.3147   20.6495 C   0  0  2  0  0  0  0  0  0  0  0  0
  -24.0303  -34.8820   25.8146 C   0  0  0  0  0  0  0  0  0  0  0  0
  -27.1507  -29.1350   24.7632 C   0  0  0  0  0  0  0  0  0  0  0  0
  -26.0356  -30.7101   26.3581 C   0  0  0  0  0  0  0  0  0  0  0  0
  -28.0793  -31.4293   25.1216 C   0  0  0  0  0  0  0  0  0  0  0  0
  -22.9148  -34.8251   22.1775 C   0  0  0  0  0  0  0  0  0  0  0  0
  -17.2284  -21.7794   22.8269 C   0  0  0  0  0  0  0  0  0  0  0  0
  -19.2322  -24.8722   21.9704 C   0  0  0  0  0  0  0  0  0  0  0  0
  -19.4457  -25.7535   20.7450 C   0  0  0  0  0  0  0  0  0  0  0  0
  -20.4433  -26.8690   21.0211 C   0  0  0  0  0  0  0  0  0  1  0  0
  -25.8908  -31.2064   23.8754 C   0  0  1  0  0  0  0  0  0  0  0  0
  -24.1338  -34.5333   24.3379 C   0  0  2  0  0  0  0  0  0  0  0  0
  -26.7751  -30.6103   25.0068 C   0  0  0  0  0  0  0  0  0  0  0  0
  -25.0571  -15.3282   20.5778 N   0  0  0  0  0  0  0  0  0  0  0  0
  -24.2425  -14.4184   21.1389 N   0  0  0  0  0  0  0  0  0  0  0  0
  -25.8687  -30.3758   21.5444 N   0  0  0  0  0  0  0  0  0  0  0  0
  -20.8665  -15.5228   19.7366 N   0  0  0  0  0  0  0  0  0  0  0  0
  -24.1603  -12.7167   22.7845 N   0  0  0  0  0  0  0  0  0  0  0  0
  -28.4097  -14.2223   23.0538 N   0  0  0  0  0  0  0  0  0  0  0  0
  -20.0141  -17.0229   21.3446 N   0  0  0  0  0  0  0  0  0  0  0  0
  -28.3533  -28.5684   19.7305 N   0  0  0  0  0  0  0  0  0  0  0  0
  -18.0941  -22.9348   22.8267 N   0  0  0  0  0  0  0  0  0  0  0  0
  -25.5423  -32.6101   24.0662 N   0  0  0  0  0  0  0  0  0  0  0  0
  -22.9329  -35.0757   23.6417 N   0  3  0  0  0  0  0  0  0  0  0  0
  -26.9134  -12.7077   23.9058 O   0  0  0  0  0  0  0  0  0  0  0  0
  -26.6096  -27.8714   21.1075 O   0  0  0  0  0  0  0  0  0  0  0  0
  -27.6286  -31.6858   22.3338 O   0  0  0  0  0  0  0  0  0  0  0  0
  -17.7374  -23.5361   20.6130 O   0  0  0  0  0  0  0  0  0  0  0  0
  -23.2434  -32.3075   24.0379 O   0  0  0  0  0  0  0  0  0  0  0  0
  -18.6049  -15.9950   19.8151 O   0  0  0  0  0  0  0  0  0  0  0  0
  -30.6653  -18.2848   19.9808 O   0  0  0  0  0  0  0  0  0  0  0  0
  -20.6085  -27.6447   19.8347 O   0  0  0  0  0  0  0  0  0  1  0  0
  -29.8888  -23.7082   19.3585 F   0  0  0  0  0  0  0  0  0  0  0  0
  -31.9849  -20.1008   21.5943 F   0  0  0  0  0  0  0  0  0  0  0  0
  1  2  1  0  0  0  0
  1  5  2  0  0  0  0
  2  6  2  0  0  0  0
  3 12  2  0  0  0  0
  3 19  1  0  0  0  0
  4 13  1  0  0  0  0
  4 19  2  0  0  0  0
  5 21  1  0  0  0  0
  6 23  1  0  0  0  0
  7 14  2  0  0  0  0
  7 22  1  0  0  0  0
  8 10  2  0  0  0  0
  8 25  1  0  0  0  0
  9 11  1  0  0  0  0
  9 25  2  0  0  0  0
 10 26  1  0  0  0  0
 11 26  2  0  0  0  0
 12 27  1  0  0  0  0
 13 27  2  0  0  0  0
 14 28  1  0  0  0  0
 15 16  2  0  0  0  0
 15 29  1  0  0  0  0
 16 30  1  0  0  0  0
 17 24  1  0  0  0  0
 17 28  2  0  0  0  0
 18 30  2  0  0  0  0
 18 31  1  0  0  0  0
 19 32  1  0  0  0  0
 20 32  1  0  0  0  0
 20 33  2  0  0  0  0
 20 34  1  0  0  0  0
 21 23  2  0  0  0  0
 21 40  1  0  0  0  0
 22 24  2  0  0  0  0
 22 41  1  0  0  0  0
 23 49  1  0  0  0  0
 24 42  1  0  0  0  0
 25 57  1  0  0  0  0
 26 70  1  0  0  0  0
 27 81  1  0  0  0  0
 28 82  1  0  0  0  0
 29 31  2  0  0  0  0
 29 81  1  0  0  0  0
 30 83  1  0  0  0  0
 31 84  1  0  0  0  0
 32 64  2  0  0  0  0
 33 65  1  0  0  0  0
 33 68  1  0  0  0  0
 34 69  1  0  0  0  0
 34 75  2  0  0  0  0
 35 50  1  0  0  0  0
 35 71  1  0  0  0  0
 35 76  2  0  0  0  0
 36 61  1  0  0  0  0
 36 66  1  0  0  0  0
 36 77  2  0  0  0  0
 37 58  1  0  0  0  0
 37 72  1  0  0  0  0
 37 78  2  0  0  0  0
 38 62  1  0  0  0  0
 38 73  1  0  0  0  0
 38 79  2  0  0  0  0
 39 67  1  0  0  0  0
 39 70  1  0  0  0  0
 39 80  2  0  0  0  0
 40 43  1  0  0  0  0
 41 50  1  0  0  0  0
 42 66  1  0  0  0  0
 43 45  1  0  0  0  0
 44 46  1  0  0  0  0
 44 47  1  0  0  0  0
 45 49  1  0  0  0  0
 46 51  1  0  0  0  0
 47 67  1  0  0  0  0
 48 51  1  0  0  0  0
 48 67  1  0  0  0  0
 49 71  1  0  0  0  0
 50 66  1  0  0  0  0
 51 65  1  0  0  0  0
 52 62  1  0  0  0  0
 53 63  1  0  0  0  0
 54 63  1  0  0  0  0
 55 63  1  0  0  0  0
 56 74  1  0  0  0  0
 57 72  1  0  0  0  0
 58 59  1  0  0  0  0
 59 60  1  0  0  0  0
 60 82  1  0  0  0  0
 61 63  1  0  0  0  0
 61 73  1  0  0  0  0
 62 74  1  0  0  0  0
 64 65  1  0  0  0  0
M  CHG  1  74   1
M  ISO  4  39 100  60 101  70 100  82 101
M  END
> <Batch ID>
0005

> <Smiles>
CNC(C)C(=O)NC(C(=O)N1Cc2cc([101O:1][101CH2:1]CCC(=O)NCc3ccc([100NH:0][100C:0](=O)N4CCCC(n5nc(-c6ccc(Oc7ccc(F)cc7F)cc6)c(C(N)=O)c5N)C4)cc3)ccc2CC1C(=O)NC1CCCc2ccccc21)C(C)(C)C

> <Shape>
0.241

> <Color>
0.066

> <Negative vol penalty>
0.000

$$$$

  -OEChem-04052315263D

102111  0     1  0  0  0  0  0999 V2000
  -17.0369  -30.7831   23.2569 C   0  0  0  0  0  0  0  0  0  0  0  0
  -18.2594  -31.1415   23.8159 C   0  0  0  0  0  0  0  0  0  0  0  0
  -32.8284  -11.7642   24.8467 C   0  0  0  0  0  0  0  0  0  0  0  0
  -24.4745   -9.4696   22.1457 C   0  0  0  0  0  0  0  0  0  0  0  0
  -24.0110   -9.2435   19.7854 C   0  0  0  0  0  0  0  0  0  0  0  0
  -16.8684  -29.5127   22.7077 C   0  0  0  0  0  0  0  0  0  0  0  0
  -19.3139  -30.2291   23.8269 C   0  0  0  0  0  0  0  0  0  0  0  0
  -25.2787  -31.4896   23.2452 C   0  0  0  0  0  0  0  0  0  0  0  0
  -28.3579  -17.7783   24.6640 C   0  0  0  0  0  0  0  0  0  0  0  0
  -30.2987  -16.3629   24.9233 C   0  0  0  0  0  0  0  0  0  0  0  0
  -28.6804  -18.4377   25.8500 C   0  0  0  0  0  0  0  0  0  0  0  0
  -30.6212  -17.0224   26.1094 C   0  0  0  0  0  0  0  0  0  0  0  0
  -23.3302   -8.7290   22.4414 C   0  0  0  0  0  0  0  0  0  0  0  0
  -22.8666   -8.5028   20.0811 C   0  0  0  0  0  0  0  0  0  0  0  0
  -26.3024  -31.6342   24.1805 C   0  0  0  0  0  0  0  0  0  0  0  0
  -20.7273   -6.5910   23.8086 C   0  0  0  0  0  0  0  0  0  0  0  0
  -20.8327   -5.5940   24.7784 C   0  0  0  0  0  0  0  0  0  0  0  0
  -33.6062  -11.9776   23.7142 C   0  0  0  0  0  0  0  0  0  0  0  0
  -31.4434  -11.8491   24.7582 C   0  0  0  0  0  0  0  0  0  0  0  0
  -26.9401  -29.3344   23.8290 C   0  0  0  0  0  0  0  0  0  0  0  0
  -22.5132   -4.4782   23.4486 C   0  0  0  0  0  0  0  0  0  0  0  0
  -24.8149   -9.7269   20.8176 C   0  0  0  0  0  0  0  0  0  0  0  0
  -27.2986   -9.9992   20.3029 C   0  0  0  0  0  0  0  0  0  0  0  0
  -17.9244  -28.5877   22.7033 C   0  0  0  0  0  0  0  0  0  0  0  0
  -25.0708  -30.2612   22.6017 C   0  0  0  0  0  0  0  0  0  0  0  0
  -19.1590  -28.9447   23.2783 C   0  0  0  0  0  0  0  0  0  0  0  0
  -25.9147  -29.1776   22.8841 C   0  0  0  0  0  0  0  0  0  0  0  0
  -29.1671  -16.7408   24.2006 C   0  0  0  0  0  0  0  0  0  0  0  0
  -29.8120  -18.0598   26.5727 C   0  0  0  0  0  0  0  0  0  0  0  0
  -22.5262   -8.2456   21.4091 C   0  0  0  0  0  0  0  0  0  0  0  0
  -27.1315  -30.5557   24.4747 C   0  0  0  0  0  0  0  0  0  0  0  0
  -21.5148   -6.5316   22.6588 C   0  0  0  0  0  0  0  0  0  0  0  0
  -21.7257   -4.5376   24.5984 C   0  0  0  0  0  0  0  0  0  0  0  0
  -22.4078   -5.4753   22.4788 C   0  0  0  0  0  0  0  0  0  0  0  0
  -25.9966  -10.4924   20.5115 C   0  0  0  0  0  0  0  0  0  0  0  0
  -32.9556  -12.2707   22.5264 C   0  0  0  0  0  0  0  0  0  0  0  0
  -30.8896  -12.1481   23.5238 C   0  0  0  0  0  0  0  0  0  0  0  0
  -28.0527  -11.1183   20.0467 C   0  0  0  0  0  0  0  0  0  0  0  0
  -27.7830   -8.6502   20.3374 C   0  0  0  0  0  0  0  0  0  0  0  0
  -22.6826  -28.1667   22.4836 C   0  0  0  0  0  0  0  0  0  0  0  0
  -24.5702  -26.7285   20.2720 C   0  0  0  0  0  0  0  0  0  0  0  0
  -28.9373  -28.7429   27.6527 C   0  0  0  0  0  0  0  0  0  0  0  0
  -27.7064  -26.2360   19.0195 C   0  0  0  0  0  0  0  0  0  0  0  0
  -28.1531  -16.7188   21.9276 C   0  0  0  0  0  0  0  0  0  0  0  0
  -17.6802  -27.2099   22.1405 C   0  0  0  0  0  0  0  0  0  0  0  0
  -23.9790  -30.1291   21.5755 C   0  0  0  0  0  0  0  0  0  0  0  0
  -25.7461  -27.8434   22.2059 C   0  0  0  0  0  0  0  0  0  0  0  0
  -18.9625  -26.4323   21.8557 C   0  0  0  0  0  0  0  0  0  0  0  0
  -27.0894  -15.7183   18.5397 C   0  0  0  0  0  0  0  0  0  0  0  0
  -19.9229  -26.5356   23.0363 C   0  0  0  0  0  0  0  0  0  0  0  0
  -26.7596  -14.2363   18.7102 C   0  0  0  0  0  0  0  0  0  0  0  0
  -26.8568  -16.5025   19.8277 C   0  0  0  0  0  0  0  0  0  0  0  0
  -27.2512  -14.4652   21.1783 C   0  0  0  0  0  0  0  0  0  0  0  0
  -20.3343  -27.9915   23.2870 C   0  0  1  0  0  0  0  0  0  0  0  0
  -23.5335  -28.6862   21.3593 C   0  0  1  0  0  0  0  0  0  0  0  0
  -27.5164  -13.6403   19.9098 C   0  0  1  0  0  0  0  0  0  0  0  0
  -33.7587  -12.5052   21.2905 C   0  0  0  0  0  0  0  0  0  0  0  0
  -28.9384  -24.9774   17.2319 C   0  0  0  0  0  0  0  0  0  0  0  0
  -24.3165  -24.1641   21.9060 C   0  0  0  0  0  0  0  0  0  0  0  0
  -26.2742  -23.2480   20.6426 C   0  0  0  0  0  0  0  0  0  0  0  0
  -24.1766  -23.8416   19.4299 C   0  0  0  0  0  0  0  0  0  0  0  0
  -31.3241  -18.3266   28.5227 C   0  0  0  0  0  0  0  0  0  0  0  0
  -27.2342  -29.8904   29.1474 C   0  0  0  0  0  0  0  0  0  0  0  0
  -28.6616  -28.7358   17.7556 C   0  0  0  0  0  0  0  0  0  0  0  0
  -29.3910  -12.2481   23.3903 C   0  0  0  0  0  0  0  0  0  0  0  0
  -28.4600  -27.4101   28.2191 C   0  0  0  0  0  0  0  0  0  0  0  0
  -28.8377  -13.6582   23.6373 C   0  0  0  0  0  0  0  0  0  0  0  0
  -29.1928  -26.1940   27.6469 C   0  0  0  0  0  0  0  0  0  0  0  0
  -28.6886  -24.8738   28.2407 C   0  0  0  0  0  0  0  0  0  0  0  0
  -29.4629  -23.6821   27.6718 C   0  0  0  0  0  0  0  0  0  0  0  0
  -28.9925  -22.3322   28.2226 C   0  0  0  0  0  0  0  0  0  0  0  0
  -29.8196  -21.1471   27.7128 C   0  0  0  0  0  0  0  0  0  0  0  0
  -29.4194  -14.7365   22.7256 C   0  0  0  0  0  0  0  0  0  0  0  0
  -29.3290  -19.8103   28.2647 C   0  0  0  0  0  0  0  0  0  0  0  0
  -28.7087  -31.2008   27.6699 C   0  0  0  0  0  0  0  0  0  0  0  0
  -27.9225  -31.6293   26.4439 C   0  0  0  0  0  0  0  0  0  1  0  0
  -25.6621  -25.6868   20.3133 C   0  0  1  0  0  0  0  0  0  0  0  0
  -28.2421  -26.2784   17.5998 C   0  0  2  0  0  0  0  0  0  0  0  0
  -25.1096  -24.2596   20.5873 C   0  0  0  0  0  0  0  0  0  0  0  0
  -25.9243  -11.8213   20.3979 N   0  0  0  0  0  0  0  0  0  0  0  0
  -31.6126  -12.3618   22.4016 N   0  0  0  0  0  0  0  0  0  0  0  0
  -27.1902  -12.1726   20.1152 N   0  0  0  0  0  0  0  0  0  0  0  0
  -24.6604  -27.7624   21.2148 N   0  0  0  0  0  0  0  0  0  0  0  0
  -27.5502  -15.8890   20.9611 N   0  0  0  0  0  0  0  0  0  0  0  0
  -29.3627  -11.2934   19.7719 N   0  0  0  0  0  0  0  0  0  0  0  0
  -26.8736   -7.6207   20.6154 N   0  0  0  0  0  0  0  0  0  0  0  0
  -21.3314  -28.4078   22.3242 N   0  0  0  0  0  0  0  0  0  0  0  0
  -26.3945  -25.8132   19.0579 N   0  0  0  0  0  0  0  0  0  0  0  0
  -28.8321  -16.0573   22.9737 N   0  0  0  0  0  0  0  0  0  0  0  0
  -30.1362  -18.7237   27.7646 N   0  0  3  0  0  0  0  0  0  0  0  0
  -28.2971  -29.8856   28.1451 N   0  0  0  0  0  0  0  0  0  0  0  0
  -29.2191  -27.3935   17.4479 N   0  3  0  0  0  0  0  0  0  0  0  0
  -28.9898   -8.3678   20.1442 O   0  0  0  0  0  0  0  0  0  0  0  0
  -23.2127  -27.5886   23.4251 O   0  0  0  0  0  0  0  0  0  0  0  0
  -23.6743  -26.6323   19.4296 O   0  0  0  0  0  0  0  0  0  0  0  0
  -29.8324  -28.7808   26.8046 O   0  0  0  0  0  0  0  0  0  0  0  0
  -28.3850  -26.5433   19.9970 O   0  0  0  0  0  0  0  0  0  0  0  0
  -28.1130  -17.9522   21.8452 O   0  0  0  0  0  0  0  0  0  0  0  0
  -21.4096   -7.5226   21.6973 O   0  0  0  0  0  0  0  0  0  0  0  0
  -28.1381  -30.6949   25.3942 O   0  0  0  0  0  0  0  0  0  1  0  0
  -21.8279   -3.5811   25.5305 F   0  0  0  0  0  0  0  0  0  0  0  0
  -23.1678   -5.4134   21.3769 F   0  0  0  0  0  0  0  0  0  0  0  0
  1  2  1  0  0  0  0
  1  6  2  0  0  0  0
  2  7  2  0  0  0  0
  3 18  1  0  0  0  0
  3 19  2  0  0  0  0
  4 13  2  0  0  0  0
  4 22  1  0  0  0  0
  5 14  1  0  0  0  0
  5 22  2  0  0  0  0
  6 24  1  0  0  0  0
  7 26  1  0  0  0  0
  8 15  2  0  0  0  0
  8 25  1  0  0  0  0
  9 11  2  0  0  0  0
  9 28  1  0  0  0  0
 10 12  1  0  0  0  0
 10 28  2  0  0  0  0
 11 29  1  0  0  0  0
 12 29  2  0  0  0  0
 13 30  1  0  0  0  0
 14 30  2  0  0  0  0
 15 31  1  0  0  0  0
 16 17  2  0  0  0  0
 16 32  1  0  0  0  0
 17 33  1  0  0  0  0
 18 36  2  0  0  0  0
 19 37  1  0  0  0  0
 20 27  1  0  0  0  0
 20 31  2  0  0  0  0
 21 33  2  0  0  0  0
 21 34  1  0  0  0  0
 22 35  1  0  0  0  0
 23 35  1  0  0  0  0
 23 38  2  0  0  0  0
 23 39  1  0  0  0  0
 24 26  2  0  0  0  0
 24 45  1  0  0  0  0
 25 27  2  0  0  0  0
 25 46  1  0  0  0  0
 26 54  1  0  0  0  0
 27 47  1  0  0  0  0
 28 89  1  0  0  0  0
 29 90  1  0  0  0  0
 30 99  1  0  0  0  0
 31100  1  0  0  0  0
 32 34  2  0  0  0  0
 32 99  1  0  0  0  0
 33101  1  0  0  0  0
 34102  1  0  0  0  0
 35 80  2  0  0  0  0
 36 57  1  0  0  0  0
 36 81  1  0  0  0  0
 37 65  1  0  0  0  0
 37 81  2  0  0  0  0
 38 82  1  0  0  0  0
 38 85  1  0  0  0  0
 39 86  1  0  0  0  0
 39 93  2  0  0  0  0
 40 55  1  0  0  0  0
 40 87  1  0  0  0  0
 40 94  2  0  0  0  0
 41 77  1  0  0  0  0
 41 83  1  0  0  0  0
 41 95  2  0  0  0  0
 42 66  1  0  0  0  0
 42 91  1  0  0  0  0
 42 96  2  0  0  0  0
 43 78  1  0  0  0  0
 43 88  1  0  0  0  0
 43 97  2  0  0  0  0
 44 84  1  0  0  0  0
 44 89  1  0  0  0  0
 44 98  2  0  0  0  0
 45 48  1  0  0  0  0
 46 55  1  0  0  0  0
 47 83  1  0  0  0  0
 48 50  1  0  0  0  0
 49 51  1  0  0  0  0
 49 52  1  0  0  0  0
 50 54  1  0  0  0  0
 51 56  1  0  0  0  0
 52 84  1  0  0  0  0
 53 56  1  0  0  0  0
 53 84  1  0  0  0  0
 54 87  1  0  0  0  0
 55 83  1  0  0  0  0
 56 82  1  0  0  0  0
 58 78  1  0  0  0  0
 59 79  1  0  0  0  0
 60 79  1  0  0  0  0
 61 79  1  0  0  0  0
 62 90  1  0  0  0  0
 63 91  1  0  0  0  0
 64 92  1  0  0  0  0
 65 67  1  0  0  0  0
 66 68  1  0  0  0  0
 67 73  1  0  0  0  0
 68 69  1  0  0  0  0
 69 70  1  0  0  0  0
 70 71  1  0  0  0  0
 71 72  1  0  0  0  0
 72 74  1  0  0  0  0
 73 89  1  0  0  0  0
 74 90  1  0  0  0  0
 75 76  1  0  0  0  0
 75 91  1  0  0  0  0
 76100  1  0  0  0  0
 77 79  1  0  0  0  0
 77 88  1  0  0  0  0
 78 92  1  0  0  0  0
 80 82  1  0  0  0  0
M  CHG  1  92   1
M  ISO  4  44 100  76 101  89 100 100 101
M  END
> <Batch ID>
0005

> <Smiles>
CNC(C)C(=O)NC(C(=O)N1Cc2cc([101O:1][101CH2:1]CN(C)C(=O)CCCCCCCN(C)c3ccc([100N:0](CCCc4cccc(C)n4)[100C:0](=O)N4CCCC(n5nc(-c6ccc(Oc7ccc(F)cc7F)cc6)c(C(N)=O)c5N)C4)cc3)ccc2CC1C(=O)NC1CCCc2ccccc21)C(C)(C)C

> <Shape>
0.268

> <Color>
0.125

> <Negative vol penalty>
0.000

$$$$

  -OEChem-04052315263D

101109  0     1  0  0  0  0  0999 V2000
  -30.5620  -16.3595   16.4816 C   0  0  0  0  0  0  0  0  0  0  0  0
  -29.2871  -16.4575   15.9359 C   0  0  0  0  0  0  0  0  0  0  0  0
  -24.8547  -30.8904   20.3288 C   0  0  0  0  0  0  0  0  0  0  0  0
  -29.6577  -16.8067   19.7946 C   0  0  0  0  0  0  0  0  0  0  0  0
  -27.4145  -17.2330   19.0052 C   0  0  0  0  0  0  0  0  0  0  0  0
  -30.7502  -16.5706   17.8459 C   0  0  0  0  0  0  0  0  0  0  0  0
  -28.2018  -16.7784   16.7520 C   0  0  0  0  0  0  0  0  0  0  0  0
  -25.6528  -21.9676   19.5011 C   0  0  0  0  0  0  0  0  0  0  0  0
  -23.4933  -30.7138   20.5759 C   0  0  0  0  0  0  0  0  0  0  0  0
  -25.7976  -30.2149   21.1037 C   0  0  0  0  0  0  0  0  0  0  0  0
  -29.3711  -15.4439   19.8732 C   0  0  0  0  0  0  0  0  0  0  0  0
  -27.1279  -15.8702   19.0838 C   0  0  0  0  0  0  0  0  0  0  0  0
  -26.8360  -22.7006   19.5826 C   0  0  0  0  0  0  0  0  0  0  0  0
  -25.6919  -12.5482   19.4188 C   0  0  0  0  0  0  0  0  0  0  0  0
  -24.4769  -12.1732   19.9921 C   0  0  0  0  0  0  0  0  0  0  0  0
  -27.5565  -21.7596   17.4815 C   0  0  0  0  0  0  0  0  0  0  0  0
  -25.1194  -13.2492   22.0576 C   0  0  0  0  0  0  0  0  0  0  0  0
  -28.6794  -17.7013   19.3607 C   0  0  0  0  0  0  0  0  0  0  0  0
  -29.4963  -19.8063   18.1735 C   0  0  0  0  0  0  0  0  0  0  0  0
  -29.6642  -16.8819   18.6806 C   0  0  0  0  0  0  0  0  0  0  0  0
  -25.4170  -21.1154   18.4128 C   0  0  0  0  0  0  0  0  0  0  0  0
  -28.3749  -17.0186   18.1271 C   0  0  0  0  0  0  0  0  0  0  0  0
  -26.3684  -21.0189   17.3873 C   0  0  0  0  0  0  0  0  0  0  0  0
  -23.0748  -29.8619   21.5980 C   0  0  0  0  0  0  0  0  0  0  0  0
  -28.1062  -14.9756   19.5178 C   0  0  0  0  0  0  0  0  0  0  0  0
  -27.7894  -22.5945   18.5742 C   0  0  0  0  0  0  0  0  0  0  0  0
  -25.3790  -29.3630   22.1258 C   0  0  0  0  0  0  0  0  0  0  0  0
  -26.6207  -13.2736   20.1649 C   0  0  0  0  0  0  0  0  0  0  0  0
  -24.0176  -29.1865   22.3730 C   0  0  0  0  0  0  0  0  0  0  0  0
  -24.1906  -12.5237   21.3115 C   0  0  0  0  0  0  0  0  0  0  0  0
  -26.3345  -13.6242   21.4843 C   0  0  0  0  0  0  0  0  0  0  0  0
  -28.9747  -19.1093   19.2798 C   0  0  0  0  0  0  0  0  0  0  0  0
  -29.5920  -21.1078   18.6018 C   0  0  0  0  0  0  0  0  0  0  0  0
  -29.8615  -19.3208   16.8749 C   0  0  0  0  0  0  0  0  0  0  0  0
  -24.9622  -17.9883   18.0698 C   0  0  0  0  0  0  0  0  0  0  0  0
  -24.3772  -18.8062   14.9858 C   0  0  0  0  0  0  0  0  0  0  0  0
  -18.5026  -29.9631   23.5958 C   0  0  0  0  0  0  0  0  0  0  0  0
  -21.0857  -28.8943   22.8022 C   0  0  0  0  0  0  0  0  0  0  0  0
  -21.0497  -19.4286   14.5530 C   0  0  0  0  0  0  0  0  0  0  0  0
  -26.6114  -23.9359   23.0032 C   0  0  0  0  0  0  0  0  0  0  0  0
  -29.9259  -17.1081   20.1488 C   0  0  0  0  0  0  0  0  0  0  0  0
  -24.1239  -20.3520   18.3264 C   0  0  0  0  0  0  0  0  0  0  0  0
  -26.1544  -20.1337   16.1877 C   0  0  0  0  0  0  0  0  0  0  0  0
  -28.6648  -17.0039   21.0003 C   0  0  0  0  0  0  0  0  0  0  0  0
  -30.1605  -22.4623   23.1121 C   0  0  0  0  0  0  0  0  0  0  0  0
  -27.5567  -17.8519   20.3940 C   0  0  0  0  0  0  0  0  0  0  0  0
  -30.3473  -22.5559   21.6007 C   0  0  0  0  0  0  0  0  0  0  0  0
  -29.0145  -23.3556   23.5769 C   0  0  0  0  0  0  0  0  0  0  0  0
  -27.8116  -22.1649   21.7444 C   0  0  0  0  0  0  0  0  0  0  0  0
  -27.1748  -17.3363   19.0007 C   0  0  1  0  0  0  0  0  0  0  0  0
  -24.2147  -19.1226   17.4278 C   0  0  1  0  0  0  0  0  0  0  0  0
  -29.0368  -22.3041   20.8236 C   0  0  2  0  0  0  0  0  0  0  0  0
  -17.1703  -30.0079   22.9242 C   0  0  0  0  0  0  0  0  0  0  0  0
  -20.9361  -21.7628   15.4675 C   0  0  0  0  0  0  0  0  0  0  0  0
  -22.8488  -15.5400   15.5005 C   0  0  0  0  0  0  0  0  0  0  0  0
  -22.0819  -17.1475   17.2600 C   0  0  0  0  0  0  0  0  0  0  0  0
  -24.5178  -16.8817   16.7923 C   0  0  0  0  0  0  0  0  0  0  0  0
  -17.9761  -20.0006   16.2392 C   0  0  0  0  0  0  0  0  0  0  0  0
  -22.1152  -28.1582   23.6483 C   0  0  0  0  0  0  0  0  0  0  0  0
  -23.5508  -28.4740   23.2336 C   0  0  0  0  0  0  0  0  0  0  0  0
  -24.3072  -27.2059   22.8341 C   0  0  0  0  0  0  0  0  0  0  0  0
  -28.2506  -26.5273   19.9170 C   0  0  0  0  0  0  0  0  0  0  0  0
  -28.8748  -27.6414   20.7597 C   0  0  0  0  0  0  0  0  0  0  0  0
  -25.5562  -27.0093   23.6984 C   0  0  0  0  0  0  0  0  0  0  0  0
  -20.9090  -29.8257   25.0170 C   0  0  0  0  0  0  0  0  0  0  0  0
  -29.3228  -25.5903   19.3532 C   0  0  0  0  0  0  0  0  0  0  0  0
  -28.3382  -27.6239   22.1894 C   0  0  0  0  0  0  0  0  0  0  0  0
  -21.8769  -28.6422   25.0001 C   0  0  0  0  0  0  0  0  0  0  0  0
  -19.6200  -29.5157   25.7716 C   0  0  0  0  0  0  0  0  0  0  0  0
  -25.5567  -25.6725   24.4324 C   0  0  0  0  0  0  0  0  0  0  0  0
  -29.1160  -24.1463   19.7939 C   0  0  0  0  0  0  0  0  0  1  0  0
  -27.6799  -28.9457   22.5586 C   0  0  0  0  0  0  0  0  0  0  0  0
  -22.2128  -28.2138   23.5782 C   0  0  0  0  0  0  0  0  0  0  0  0
  -23.0576  -18.0844   15.1149 C   0  0  1  0  0  0  0  0  0  0  0  0
  -20.1464  -20.5122   15.1137 C   0  0  2  0  0  0  0  0  0  0  0  0
  -23.1186  -16.9167   16.1398 C   0  0  0  0  0  0  0  0  0  0  0  0
  -28.7546  -19.9023   20.3319 N   0  0  0  0  0  0  0  0  0  0  0  0
  -29.1399  -21.1110   19.8886 N   0  0  0  0  0  0  0  0  0  0  0  0
  -24.8770  -19.4026   16.1521 N   0  0  0  0  0  0  0  0  0  0  0  0
  -27.7919  -23.2014   22.7782 N   0  0  0  0  0  0  0  0  0  0  0  0
  -30.0180  -22.2384   17.9995 N   0  0  0  0  0  0  0  0  0  0  0  0
  -29.6989  -17.9557   16.6019 N   0  0  0  0  0  0  0  0  0  0  0  0
  -21.7078  -29.6960   21.8328 N   0  0  0  0  0  0  0  0  0  0  0  0
  -26.2769  -18.2831   18.3767 N   0  0  0  0  0  0  0  0  0  0  0  0
  -18.4540  -29.6190   24.9379 N   0  0  0  0  0  0  0  0  0  0  0  0
  -22.0634  -19.1045   15.4298 N   0  0  0  0  0  0  0  0  0  0  0  0
  -26.6776  -24.8395   24.0607 N   0  0  0  0  0  0  0  0  0  0  0  0
  -19.4578  -20.0276   16.3433 N   0  3  0  0  0  0  0  0  0  0  0  0
  -30.3338  -20.0721   15.9884 O   0  0  0  0  0  0  0  0  0  0  0  0
  -24.3883  -16.9248   18.2731 O   0  0  0  0  0  0  0  0  0  0  0  0
  -24.9470  -18.8336   13.8921 O   0  0  0  0  0  0  0  0  0  0  0  0
  -19.5130  -30.2195   22.9515 O   0  0  0  0  0  0  0  0  0  0  0  0
  -19.8799  -28.7664   22.9868 O   0  0  0  0  0  0  0  0  0  0  0  0
  -20.8716  -18.9180   13.4494 O   0  0  0  0  0  0  0  0  0  0  0  0
  -25.5899  -23.7964   22.3238 O   0  0  0  0  0  0  0  0  0  0  0  0
  -27.8263  -13.6458   19.5941 O   0  0  0  0  0  0  0  0  0  0  0  0
  -28.9454  -23.3082   18.6516 O   0  0  0  0  0  0  0  0  0  1  0  0
  -26.3167  -28.7062   22.8797 O   0  0  0  0  0  0  0  0  0  0  0  0
  -23.6168  -28.3517   23.3749 O   0  0  0  0  0  0  0  0  0  0  0  0
  -23.0231  -12.1649   21.8614 F   0  0  0  0  0  0  0  0  0  0  0  0
  -27.2224  -14.3220   22.2057 F   0  0  0  0  0  0  0  0  0  0  0  0
  1  2  1  0  0  0  0
  1  6  2  0  0  0  0
  2  7  2  0  0  0  0
  3  9  1  0  0  0  0
  3 10  2  0  0  0  0
  4 11  2  0  0  0  0
  4 18  1  0  0  0  0
  5 12  1  0  0  0  0
  5 18  2  0  0  0  0
  6 20  1  0  0  0  0
  7 22  1  0  0  0  0
  8 13  2  0  0  0  0
  8 21  1  0  0  0  0
  9 24  2  0  0  0  0
 10 27  1  0  0  0  0
 11 25  1  0  0  0  0
 12 25  2  0  0  0  0
 13 26  1  0  0  0  0
 14 15  2  0  0  0  0
 14 28  1  0  0  0  0
 15 30  1  0  0  0  0
 16 23  1  0  0  0  0
 16 26  2  0  0  0  0
 17 30  2  0  0  0  0
 17 31  1  0  0  0  0
 18 32  1  0  0  0  0
 19 32  1  0  0  0  0
 19 33  2  0  0  0  0
 19 34  1  0  0  0  0
 20 22  2  0  0  0  0
 20 41  1  0  0  0  0
 21 23  2  0  0  0  0
 21 42  1  0  0  0  0
 22 50  1  0  0  0  0
 23 43  1  0  0  0  0
 24 29  1  0  0  0  0
 24 83  1  0  0  0  0
 25 96  1  0  0  0  0
 26 97  1  0  0  0  0
 27 29  2  0  0  0  0
 27 98  1  0  0  0  0
 28 31  2  0  0  0  0
 28 96  1  0  0  0  0
 29 99  1  0  0  0  0
 30100  1  0  0  0  0
 31101  1  0  0  0  0
 32 77  2  0  0  0  0
 33 78  1  0  0  0  0
 33 81  1  0  0  0  0
 34 82  1  0  0  0  0
 34 89  2  0  0  0  0
 35 51  1  0  0  0  0
 35 84  1  0  0  0  0
 35 90  2  0  0  0  0
 36 74  1  0  0  0  0
 36 79  1  0  0  0  0
 36 91  2  0  0  0  0
 37 53  1  0  0  0  0
 37 85  1  0  0  0  0
 37 92  2  0  0  0  0
 38 59  1  0  0  0  0
 38 83  1  0  0  0  0
 38 93  2  0  0  0  0
 39 75  1  0  0  0  0
 39 86  1  0  0  0  0
 39 94  2  0  0  0  0
 40 80  1  0  0  0  0
 40 87  1  0  0  0  0
 40 95  2  0  0  0  0
 41 44  1  0  0  0  0
 42 51  1  0  0  0  0
 43 79  1  0  0  0  0
 44 46  1  0  0  0  0
 45 47  1  0  0  0  0
 45 48  1  0  0  0  0
 46 50  1  0  0  0  0
 47 52  1  0  0  0  0
 48 80  1  0  0  0  0
 49 52  1  0  0  0  0
 49 80  1  0  0  0  0
 50 84  1  0  0  0  0
 51 79  1  0  0  0  0
 52 78  1  0  0  0  0
 54 75  1  0  0  0  0
 55 76  1  0  0  0  0
 56 76  1  0  0  0  0
 57 76  1  0  0  0  0
 58 88  1  0  0  0  0
 59 60  1  0  0  0  0
 60 61  1  0  0  0  0
 61 64  1  0  0  0  0
 62 63  1  0  0  0  0
 62 66  1  0  0  0  0
 63 67  1  0  0  0  0
 64 70  1  0  0  0  0
 65 68  1  0  0  0  0
 65 69  1  0  0  0  0
 66 71  1  0  0  0  0
 67 72  1  0  0  0  0
 68 73  1  0  0  0  0
 69 85  1  0  0  0  0
 70 87  1  0  0  0  0
 71 97  1  0  0  0  0
 72 98  1  0  0  0  0
 73 99  1  0  0  0  0
 74 76  1  0  0  0  0
 74 86  1  0  0  0  0
 75 88  1  0  0  0  0
 77 78  1  0  0  0  0
M  CHG  1  88   1
M  ISO  4  40 100  71 101  87 100  97 101
M  END
> <Batch ID>
0005

> <Smiles>
CNC(C)C(=O)NC(C(=O)N1Cc2cc([101O:1][101CH2:1]CCCCCOc3cccc(NC(=O)CCCCC[100NH:0][100C:0](=O)N4CCCC(n5nc(-c6ccc(Oc7ccc(F)cc7F)cc6)c(C(N)=O)c5N)C4)c3OCCCCNC(C)=O)ccc2CC1C(=O)NC1CCCc2ccccc21)C(C)(C)C

> <Shape>
0.239

> <Color>
0.078

> <Negative vol penalty>
0.000

$$$$

  -OEChem-04052315263D

 90 98  0     1  0  0  0  0  0999 V2000
  -32.0442  -29.9629   13.6727 C   0  0  0  0  0  0  0  0  0  0  0  0
  -31.7244  -30.1400   15.0150 C   0  0  0  0  0  0  0  0  0  0  0  0
  -23.3951   -9.8214   20.7664 C   0  0  0  0  0  0  0  0  0  0  0  0
  -24.1146  -10.3749   23.0054 C   0  0  0  0  0  0  0  0  0  0  0  0
  -31.4075  -28.9688   12.9309 C   0  0  0  0  0  0  0  0  0  0  0  0
  -30.7668  -29.3238   15.6160 C   0  0  0  0  0  0  0  0  0  0  0  0
  -32.4099  -25.2804   21.3469 C   0  0  0  0  0  0  0  0  0  0  0  0
  -33.1440  -14.3105   22.7090 C   0  0  0  0  0  0  0  0  0  0  0  0
  -34.0298  -14.7747   23.6814 C   0  0  0  0  0  0  0  0  0  0  0  0
  -22.7435   -8.6893   21.2556 C   0  0  0  0  0  0  0  0  0  0  0  0
  -23.4629   -9.2428   23.4946 C   0  0  0  0  0  0  0  0  0  0  0  0
  -32.5898  -24.6390   22.5726 C   0  0  0  0  0  0  0  0  0  0  0  0
  -22.2924   -6.3046   25.2853 C   0  0  0  0  0  0  0  0  0  0  0  0
  -22.9759   -5.5102   26.2059 C   0  0  0  0  0  0  0  0  0  0  0  0
  -30.3346  -23.7732   22.4626 C   0  0  0  0  0  0  0  0  0  0  0  0
  -31.4188  -14.0898   24.3859 C   0  0  0  0  0  0  0  0  0  0  0  0
  -24.7161   -5.1189   24.5763 C   0  0  0  0  0  0  0  0  0  0  0  0
  -24.0807  -10.6642   21.6412 C   0  0  0  0  0  0  0  0  0  0  0  0
  -24.2180  -13.1267   20.9893 C   0  0  0  0  0  0  0  0  0  0  0  0
  -30.4486  -28.1336   13.5256 C   0  0  0  0  0  0  0  0  0  0  0  0
  -31.1954  -25.1578   20.6662 C   0  0  0  0  0  0  0  0  0  0  0  0
  -30.1156  -28.3185   14.8811 C   0  0  0  0  0  0  0  0  0  0  0  0
  -30.1528  -24.4031   21.2285 C   0  0  0  0  0  0  0  0  0  0  0  0
  -32.3046  -14.5539   25.3583 C   0  0  0  0  0  0  0  0  0  0  0  0
  -31.8385  -13.9681   23.0612 C   0  0  0  0  0  0  0  0  0  0  0  0
  -33.6101  -14.8963   25.0060 C   0  0  0  0  0  0  0  0  0  0  0  0
  -22.7773   -8.4000   22.6197 C   0  0  0  0  0  0  0  0  0  0  0  0
  -31.5546  -23.8875   23.1291 C   0  0  0  0  0  0  0  0  0  0  0  0
  -22.8207   -6.5060   24.0101 C   0  0  0  0  0  0  0  0  0  0  0  0
  -24.1877   -4.9174   25.8514 C   0  0  0  0  0  0  0  0  0  0  0  0
  -24.0326   -5.9132   23.6556 C   0  0  0  0  0  0  0  0  0  0  0  0
  -24.7545  -11.8335   21.1364 C   0  0  0  0  0  0  0  0  0  0  0  0
  -25.2513  -13.8705   20.4742 C   0  0  0  0  0  0  0  0  0  0  0  0
  -22.9031  -13.6121   21.2913 C   0  0  0  0  0  0  0  0  0  0  0  0
  -29.1748  -26.0343   17.6289 C   0  0  0  0  0  0  0  0  0  0  0  0
  -28.5876  -23.0928   18.2713 C   0  0  0  0  0  0  0  0  0  0  0  0
  -34.0169  -19.9667   25.8529 C   0  0  0  0  0  0  0  0  0  0  0  0
  -28.5367  -19.7753   19.0643 C   0  0  0  0  0  0  0  0  0  0  0  0
  -31.1961  -13.3159   20.7142 C   0  0  0  0  0  0  0  0  0  0  0  0
  -29.7528  -27.1039   12.6711 C   0  0  0  0  0  0  0  0  0  0  0  0
  -30.9360  -25.8817   19.3729 C   0  0  0  0  0  0  0  0  0  0  0  0
  -28.8518  -24.3275   20.4772 C   0  0  0  0  0  0  0  0  0  0  0  0
  -29.0210  -26.0355   13.4794 C   0  0  0  0  0  0  0  0  0  0  0  0
  -29.1868  -13.4509   17.7779 C   0  0  0  0  0  0  0  0  0  0  0  0
  -28.1997  -26.6778   14.5929 C   0  0  0  0  0  0  0  0  0  0  0  0
  -27.7725  -13.1752   18.2934 C   0  0  0  0  0  0  0  0  0  0  0  0
  -30.2341  -12.6298   18.5282 C   0  0  0  0  0  0  0  0  0  0  0  0
  -28.7737  -12.4767   20.5063 C   0  0  0  0  0  0  0  0  0  0  0  0
  -29.1002  -27.4368   15.5750 C   0  0  1  0  0  0  0  0  0  0  0  0
  -30.0412  -25.0867   18.4052 C   0  0  1  0  0  0  0  0  0  0  0  0
  -27.6908  -13.3292   19.8248 C   0  0  2  0  0  0  0  0  0  0  0  0
  -31.8291  -14.6735   26.7698 C   0  0  0  0  0  0  0  0  0  0  0  0
  -27.4995  -17.5991   18.3671 C   0  0  0  0  0  0  0  0  0  0  0  0
  -25.9646  -23.9259   19.5863 C   0  0  0  0  0  0  0  0  0  0  0  0
  -25.3432  -21.5041   19.7171 C   0  0  0  0  0  0  0  0  0  0  0  0
  -25.7021  -22.5795   17.4952 C   0  0  0  0  0  0  0  0  0  0  0  0
  -35.3588  -14.4103   26.6990 C   0  0  0  0  0  0  0  0  0  0  0  0
  -35.8067  -20.0325   24.0988 C   0  0  0  0  0  0  0  0  0  0  0  0
  -31.1747  -18.5796   18.4559 C   0  0  0  0  0  0  0  0  0  0  0  0
  -33.1822  -20.8214   24.9080 C   0  0  0  0  0  0  0  0  0  0  0  0
  -31.8077  -21.1596   25.4812 C   0  0  0  0  0  0  0  0  0  0  0  0
  -36.0408  -17.3042   25.9268 C   0  0  0  0  0  0  0  0  0  0  0  0
  -34.6507  -16.7674   26.2615 C   0  0  0  0  0  0  0  0  0  0  0  0
  -36.2053  -18.7988   26.1939 C   0  0  0  0  0  0  0  0  0  0  0  0
  -31.0105  -22.0522   24.5410 C   0  0  0  0  0  0  0  0  0  1  0  0
  -27.6934  -22.1068   18.9795 C   0  0  1  0  0  0  0  0  0  0  0  0
  -28.6899  -18.5319   18.2069 C   0  0  2  0  0  0  0  0  0  0  0  0
  -26.1999  -22.5385   18.9564 C   0  0  0  0  0  0  0  0  0  0  0  0
  -26.0296  -11.7568   20.7461 N   0  0  0  0  0  0  0  0  0  0  0  0
  -26.3029  -13.0111   20.3487 N   0  0  0  0  0  0  0  0  0  0  0  0
  -29.1111  -24.1385   19.0414 N   0  0  0  0  0  0  0  0  0  0  0  0
  -30.0988  -12.8290   19.9728 N   0  0  0  0  0  0  0  0  0  0  0  0
  -25.3539  -15.1694   20.1209 N   0  0  0  0  0  0  0  0  0  0  0  0
  -21.9631  -12.7138   21.8146 N   0  0  0  0  0  0  0  0  0  0  0  0
  -30.9394  -13.4961   22.0730 N   0  0  0  0  0  0  0  0  0  0  0  0
  -29.7605  -26.5132   16.4725 N   0  0  0  0  0  0  0  0  0  0  0  0
  -27.9498  -20.8087   18.3651 N   0  0  0  0  0  0  0  0  0  0  0  0
  -34.5159  -15.3660   25.9723 N   0  0  3  0  0  0  0  0  0  0  0  0
  -35.2927  -19.6128   25.4006 N   0  0  0  0  0  0  0  0  0  0  0  0
  -29.9241  -17.7887   18.5880 N   0  3  0  0  0  0  0  0  0  0  0  0
  -22.5667  -14.8032   21.0873 O   0  0  0  0  0  0  0  0  0  0  0  0
  -28.0563  -26.3104   18.0465 O   0  0  0  0  0  0  0  0  0  0  0  0
  -28.8131  -22.9454   17.0668 O   0  0  0  0  0  0  0  0  0  0  0  0
  -33.5654  -19.6222   26.9483 O   0  0  0  0  0  0  0  0  0  0  0  0
  -28.8979  -19.8236   20.2380 O   0  0  0  0  0  0  0  0  0  0  0  0
  -32.2751  -13.5812   20.1782 O   0  0  0  0  0  0  0  0  0  0  0  0
  -22.1414   -7.2956   23.0975 O   0  0  0  0  0  0  0  0  0  0  0  0
  -31.7385  -23.2602   24.3239 O   0  0  0  0  0  0  0  0  0  1  0  0
  -24.8447   -4.1559   26.7361 F   0  0  0  0  0  0  0  0  0  0  0  0
  -24.5457   -6.1041   22.4325 F   0  0  0  0  0  0  0  0  0  0  0  0
  1  2  1  0  0  0  0
  1  5  2  0  0  0  0
  2  6  2  0  0  0  0
  3 10  2  0  0  0  0
  3 18  1  0  0  0  0
  4 11  1  0  0  0  0
  4 18  2  0  0  0  0
  5 20  1  0  0  0  0
  6 22  1  0  0  0  0
  7 12  2  0  0  0  0
  7 21  1  0  0  0  0
  8  9  2  0  0  0  0
  8 25  1  0  0  0  0
  9 26  1  0  0  0  0
 10 27  1  0  0  0  0
 11 27  2  0  0  0  0
 12 28  1  0  0  0  0
 13 14  2  0  0  0  0
 13 29  1  0  0  0  0
 14 30  1  0  0  0  0
 15 23  1  0  0  0  0
 15 28  2  0  0  0  0
 16 24  1  0  0  0  0
 16 25  2  0  0  0  0
 17 30  2  0  0  0  0
 17 31  1  0  0  0  0
 18 32  1  0  0  0  0
 19 32  1  0  0  0  0
 19 33  2  0  0  0  0
 19 34  1  0  0  0  0
 20 22  2  0  0  0  0
 20 40  1  0  0  0  0
 21 23  2  0  0  0  0
 21 41  1  0  0  0  0
 22 49  1  0  0  0  0
 23 42  1  0  0  0  0
 24 26  2  0  0  0  0
 24 52  1  0  0  0  0
 25 75  1  0  0  0  0
 26 78  1  0  0  0  0
 27 87  1  0  0  0  0
 28 88  1  0  0  0  0
 29 31  2  0  0  0  0
 29 87  1  0  0  0  0
 30 89  1  0  0  0  0
 31 90  1  0  0  0  0
 32 69  2  0  0  0  0
 33 70  1  0  0  0  0
 33 73  1  0  0  0  0
 34 74  1  0  0  0  0
 34 81  2  0  0  0  0
 35 50  1  0  0  0  0
 35 76  1  0  0  0  0
 35 82  2  0  0  0  0
 36 66  1  0  0  0  0
 36 71  1  0  0  0  0
 36 83  2  0  0  0  0
 37 60  1  0  0  0  0
 37 79  1  0  0  0  0
 37 84  2  0  0  0  0
 38 67  1  0  0  0  0
 38 77  1  0  0  0  0
 38 85  2  0  0  0  0
 39 72  1  0  0  0  0
 39 75  1  0  0  0  0
 39 86  2  0  0  0  0
 40 43  1  0  0  0  0
 41 50  1  0  0  0  0
 42 71  1  0  0  0  0
 43 45  1  0  0  0  0
 44 46  1  0  0  0  0
 44 47  1  0  0  0  0
 45 49  1  0  0  0  0
 46 51  1  0  0  0  0
 47 72  1  0  0  0  0
 48 51  1  0  0  0  0
 48 72  1  0  0  0  0
 49 76  1  0  0  0  0
 50 71  1  0  0  0  0
 51 70  1  0  0  0  0
 53 67  1  0  0  0  0
 54 68  1  0  0  0  0
 55 68  1  0  0  0  0
 56 68  1  0  0  0  0
 57 78  1  0  0  0  0
 58 79  1  0  0  0  0
 59 80  1  0  0  0  0
 60 61  1  0  0  0  0
 61 65  1  0  0  0  0
 62 63  1  0  0  0  0
 62 64  1  0  0  0  0
 63 78  1  0  0  0  0
 64 79  1  0  0  0  0
 65 88  1  0  0  0  0
 66 68  1  0  0  0  0
 66 77  1  0  0  0  0
 67 80  1  0  0  0  0
 69 70  1  0  0  0  0
M  CHG  1  80   1
M  ISO  4  39 100  65 101  75 100  88 101
M  END
> <Batch ID>
0005

> <Smiles>
CNC(C)C(=O)NC(C(=O)N1Cc2cc([101O:1][101CH2:1]CCC(=O)N(C)CCCN(C)c3ccc([100NH:0][100C:0](=O)N4CCCC(n5nc(-c6ccc(Oc7ccc(F)cc7F)cc6)c(C(N)=O)c5N)C4)cc3C)ccc2CC1C(=O)NC1CCCc2ccccc21)C(C)(C)C

> <Shape>
0.203

> <Color>
0.157

> <Negative vol penalty>
0.000

$$$$

  -OEChem-04052315263D

 91 99  0     1  0  0  0  0  0999 V2000
  -32.7692  -25.9403   15.2113 C   0  0  0  0  0  0  0  0  0  0  0  0
  -31.3888  -26.0983   15.1415 C   0  0  0  0  0  0  0  0  0  0  0  0
  -29.0836  -18.3771   21.4392 C   0  0  0  0  0  0  0  0  0  0  0  0
  -28.0975  -17.7824   19.3153 C   0  0  0  0  0  0  0  0  0  0  0  0
  -33.3893  -25.7762   16.4492 C   0  0  0  0  0  0  0  0  0  0  0  0
  -30.6274  -26.0910   16.3098 C   0  0  0  0  0  0  0  0  0  0  0  0
  -25.5708  -29.3596   17.4290 C   0  0  0  0  0  0  0  0  0  0  0  0
  -20.2158  -19.7205   17.5344 C   0  0  0  0  0  0  0  0  0  0  0  0
  -29.8581  -17.2176   21.4043 C   0  0  0  0  0  0  0  0  0  0  0  0
  -28.8721  -16.6229   19.2804 C   0  0  0  0  0  0  0  0  0  0  0  0
  -24.2149  -29.0419   17.3633 C   0  0  0  0  0  0  0  0  0  0  0  0
  -19.1892  -19.6036   16.5975 C   0  0  0  0  0  0  0  0  0  0  0  0
  -30.3251  -13.3257   18.8036 C   0  0  0  0  0  0  0  0  0  0  0  0
  -29.6963  -12.1369   18.4334 C   0  0  0  0  0  0  0  0  0  0  0  0
  -24.2164  -28.5733   19.7297 C   0  0  0  0  0  0  0  0  0  0  0  0
  -18.6268  -20.5022   19.1780 C   0  0  0  0  0  0  0  0  0  0  0  0
  -28.1841  -12.3539   20.3051 C   0  0  0  0  0  0  0  0  0  0  0  0
  -28.2032  -18.6595   20.3947 C   0  0  0  0  0  0  0  0  0  0  0  0
  -27.7429  -21.1228   19.9177 C   0  0  0  0  0  0  0  0  0  0  0  0
  -32.6362  -25.7765   17.6339 C   0  0  0  0  0  0  0  0  0  0  0  0
  -26.2634  -29.2759   18.6454 C   0  0  0  0  0  0  0  0  0  0  0  0
  -31.2379  -25.9253   17.5646 C   0  0  0  0  0  0  0  0  0  0  0  0
  -25.5804  -28.8929   19.8086 C   0  0  0  0  0  0  0  0  0  0  0  0
  -19.9346  -20.1698   18.8247 C   0  0  0  0  0  0  0  0  0  0  0  0
  -29.7524  -16.3405   20.3249 C   0  0  0  0  0  0  0  0  0  0  0  0
  -23.5381  -28.6458   18.5132 C   0  0  0  0  0  0  0  0  0  0  0  0
  -29.8834  -14.0286   19.9246 C   0  0  0  0  0  0  0  0  0  0  0  0
  -17.8814  -19.9361   16.9507 C   0  0  0  0  0  0  0  0  0  0  0  0
  -28.6258  -11.6510   19.1841 C   0  0  0  0  0  0  0  0  0  0  0  0
  -17.6002  -20.3853   18.2410 C   0  0  0  0  0  0  0  0  0  0  0  0
  -28.8129  -13.5427   20.6753 C   0  0  0  0  0  0  0  0  0  0  0  0
  -27.4024  -19.8568   20.4305 C   0  0  0  0  0  0  0  0  0  0  0  0
  -26.6550  -21.9119   20.2009 C   0  0  0  0  0  0  0  0  0  0  0  0
  -28.9360  -21.5476   19.2454 C   0  0  0  0  0  0  0  0  0  0  0  0
  -28.7202  -27.5658   19.7147 C   0  0  0  0  0  0  0  0  0  0  0  0
  -28.4028  -29.4642   22.3258 C   0  0  0  0  0  0  0  0  0  0  0  0
  -17.1954  -23.5976   15.5067 C   0  0  0  0  0  0  0  0  0  0  0  0
  -26.3922  -31.4573   24.2316 C   0  0  0  0  0  0  0  0  0  0  0  0
  -20.8694  -20.7182   21.0989 C   0  0  0  0  0  0  0  0  0  0  0  0
  -33.3457  -25.5484   18.9451 C   0  0  0  0  0  0  0  0  0  0  0  0
  -27.7196  -29.6478   18.7047 C   0  0  0  0  0  0  0  0  0  0  0  0
  -26.2734  -28.8066   21.1430 C   0  0  0  0  0  0  0  0  0  0  0  0
  -32.5091  -25.9275   20.1644 C   0  0  0  0  0  0  0  0  0  0  0  0
  -23.0781  -22.3674   23.3525 C   0  0  0  0  0  0  0  0  0  0  0  0
  -31.0960  -25.3672   20.0373 C   0  0  0  0  0  0  0  0  0  0  0  0
  -24.4685  -22.0310   22.8087 C   0  0  0  0  0  0  0  0  0  0  0  0
  -22.1101  -21.1957   23.1983 C   0  0  0  0  0  0  0  0  0  0  0  0
  -23.4013  -20.3106   21.2961 C   0  0  0  0  0  0  0  0  0  0  0  0
  -30.3805  -25.9477   18.8115 C   0  0  1  0  0  0  0  0  0  0  0  0
  -28.4456  -29.0318   19.8967 C   0  0  1  0  0  0  0  0  0  0  0  0
  -24.3935  -21.4826   21.3703 C   0  0  2  0  0  0  0  0  0  0  0  0
  -26.4040  -32.8395   26.3260 C   0  0  0  0  0  0  0  0  0  0  0  0
  -28.2557  -26.9196   24.0031 C   0  0  0  0  0  0  0  0  0  0  0  0
  -27.3337  -28.2942   25.8815 C   0  0  0  0  0  0  0  0  0  0  0  0
  -29.6250  -28.7545   25.0093 C   0  0  0  0  0  0  0  0  0  0  0  0
  -17.1293  -23.2386   13.0271 C   0  0  0  0  0  0  0  0  0  0  0  0
  -25.7680  -33.9351   22.7383 C   0  0  0  0  0  0  0  0  0  0  0  0
  -18.3013  -24.6126   15.2390 C   0  0  0  0  0  0  0  0  0  0  0  0
  -18.8453  -25.2856   16.5017 C   0  0  0  0  0  0  0  0  0  0  0  0
  -20.0074  -26.2387   16.2024 C   0  0  0  0  0  0  0  0  0  0  0  0
  -20.5562  -26.8628   17.4893 C   0  0  0  0  0  0  0  0  0  0  0  0
  -16.0347  -20.6012   13.9260 C   0  0  0  0  0  0  0  0  0  0  0  0
  -15.6096  -21.9541   14.4813 C   0  0  0  0  0  0  0  0  0  0  0  0
  -21.7306  -27.7963   17.2221 C   0  0  0  0  0  0  0  0  0  1  0  0
  -17.2279  -20.0077   14.6652 C   0  0  0  0  0  0  0  0  0  0  0  0
  -27.6160  -29.3902   23.6121 C   0  0  1  0  0  0  0  0  0  0  0  0
  -26.6101  -32.8399   24.8193 C   0  0  2  0  0  0  0  0  0  0  0  0
  -28.1947  -28.3393   24.6012 C   0  0  0  0  0  0  0  0  0  0  0  0
  -26.1929  -19.8381   20.9967 N   0  0  0  0  0  0  0  0  0  0  0  0
  -25.7638  -21.1022   20.8414 N   0  0  0  0  0  0  0  0  0  0  0  0
  -27.6990  -29.1742   21.1483 N   0  0  0  0  0  0  0  0  0  0  0  0
  -22.0883  -20.7319   21.8093 N   0  0  0  0  0  0  0  0  0  0  0  0
  -26.3833  -23.2125   19.9620 N   0  0  0  0  0  0  0  0  0  0  0  0
  -29.9552  -20.6087   19.0359 N   0  0  0  0  0  0  0  0  0  0  0  0
  -20.9774  -20.2885   19.7767 N   0  0  0  0  0  0  0  0  0  0  0  0
  -29.9193  -27.2919   19.0850 N   0  0  0  0  0  0  0  0  0  0  0  0
  -27.5716  -30.7487   24.1422 N   0  0  0  0  0  0  0  0  0  0  0  0
  -16.6649  -22.9547   14.3828 N   0  0  0  0  0  0  0  0  0  0  0  0
  -25.6590  -33.8153   24.2151 N   0  3  0  0  0  0  0  0  0  0  0  0
  -29.1002  -22.7290   18.8569 O   0  0  0  0  0  0  0  0  0  0  0  0
  -27.9052  -26.7439   20.1173 O   0  0  0  0  0  0  0  0  0  0  0  0
  -29.5959  -29.7749   22.3637 O   0  0  0  0  0  0  0  0  0  0  0  0
  -16.8160  -23.3709   16.6585 O   0  0  0  0  0  0  0  0  0  0  0  0
  -25.2858  -31.0456   23.8898 O   0  0  0  0  0  0  0  0  0  0  0  0
  -19.8124  -21.0882   21.6165 O   0  0  0  0  0  0  0  0  0  0  0  0
  -30.5082  -15.2090   20.2904 O   0  0  0  0  0  0  0  0  0  0  0  0
  -22.2148  -28.3345   18.4518 O   0  0  0  0  0  0  0  0  0  1  0  0
  -16.8738  -19.8199   16.0289 O   0  0  0  0  0  0  0  0  0  0  0  0
  -28.0211  -10.5102   18.8276 F   0  0  0  0  0  0  0  0  0  0  0  0
  -16.3455  -20.7050   18.5865 F   0  0  0  0  0  0  0  0  0  0  0  0
  -28.3833  -14.2142   21.7526 F   0  0  0  0  0  0  0  0  0  0  0  0
  1  2  1  0  0  0  0
  1  5  2  0  0  0  0
  2  6  2  0  0  0  0
  3  9  2  0  0  0  0
  3 18  1  0  0  0  0
  4 10  1  0  0  0  0
  4 18  2  0  0  0  0
  5 20  1  0  0  0  0
  6 22  1  0  0  0  0
  7 11  2  0  0  0  0
  7 21  1  0  0  0  0
  8 12  2  0  0  0  0
  8 24  1  0  0  0  0
  9 25  1  0  0  0  0
 10 25  2  0  0  0  0
 11 26  1  0  0  0  0
 12 28  1  0  0  0  0
 13 14  2  0  0  0  0
 13 27  1  0  0  0  0
 14 29  1  0  0  0  0
 15 23  1  0  0  0  0
 15 26  2  0  0  0  0
 16 24  2  0  0  0  0
 16 30  1  0  0  0  0
 17 29  2  0  0  0  0
 17 31  1  0  0  0  0
 18 32  1  0  0  0  0
 19 32  1  0  0  0  0
 19 33  2  0  0  0  0
 19 34  1  0  0  0  0
 20 22  2  0  0  0  0
 20 40  1  0  0  0  0
 21 23  2  0  0  0  0
 21 41  1  0  0  0  0
 22 49  1  0  0  0  0
 23 42  1  0  0  0  0
 24 75  1  0  0  0  0
 25 86  1  0  0  0  0
 26 87  1  0  0  0  0
 27 31  2  0  0  0  0
 27 86  1  0  0  0  0
 28 30  2  0  0  0  0
 28 88  1  0  0  0  0
 29 89  1  0  0  0  0
 30 90  1  0  0  0  0
 31 91  1  0  0  0  0
 32 69  2  0  0  0  0
 33 70  1  0  0  0  0
 33 73  1  0  0  0  0
 34 74  1  0  0  0  0
 34 80  2  0  0  0  0
 35 50  1  0  0  0  0
 35 76  1  0  0  0  0
 35 81  2  0  0  0  0
 36 66  1  0  0  0  0
 36 71  1  0  0  0  0
 36 82  2  0  0  0  0
 37 58  1  0  0  0  0
 37 78  1  0  0  0  0
 37 83  2  0  0  0  0
 38 67  1  0  0  0  0
 38 77  1  0  0  0  0
 38 84  2  0  0  0  0
 39 72  1  0  0  0  0
 39 75  1  0  0  0  0
 39 85  2  0  0  0  0
 40 43  1  0  0  0  0
 41 50  1  0  0  0  0
 42 71  1  0  0  0  0
 43 45  1  0  0  0  0
 44 46  1  0  0  0  0
 44 47  1  0  0  0  0
 45 49  1  0  0  0  0
 46 51  1  0  0  0  0
 47 72  1  0  0  0  0
 48 51  1  0  0  0  0
 48 72  1  0  0  0  0
 49 76  1  0  0  0  0
 50 71  1  0  0  0  0
 51 70  1  0  0  0  0
 52 67  1  0  0  0  0
 53 68  1  0  0  0  0
 54 68  1  0  0  0  0
 55 68  1  0  0  0  0
 56 78  1  0  0  0  0
 57 79  1  0  0  0  0
 58 59  1  0  0  0  0
 59 60  1  0  0  0  0
 60 61  1  0  0  0  0
 61 64  1  0  0  0  0
 62 63  1  0  0  0  0
 62 65  1  0  0  0  0
 63 78  1  0  0  0  0
 64 87  1  0  0  0  0
 65 88  1  0  0  0  0
 66 68  1  0  0  0  0
 66 77  1  0  0  0  0
 67 79  1  0  0  0  0
 69 70  1  0  0  0  0
M  CHG  1  79   1
M  ISO  4  39 100  64 101  75 100  87 101
M  END
> <Batch ID>
0005

> <Smiles>
CNC(C)C(=O)NC(C(=O)N1Cc2cc([101O:1][101CH2:1]CCCCC(=O)N(C)CCCOc3ccc([100NH:0][100C:0](=O)N4CCCC(n5nc(-c6ccc(Oc7ccc(F)cc7F)cc6)c(C(N)=O)c5N)C4)cc3F)ccc2CC1C(=O)NC1CCCc2ccccc21)C(C)(C)C

> <Shape>
0.214

> <Color>
0.075

> <Negative vol penalty>
0.000

$$$$

  -OEChem-04052315262D

  0  0  0     0  0  0  0  0  0999 V2000
M  END
$$$$

  -OEChem-04052315263D

 94102  0     1  0  0  0  0  0999 V2000
  -22.7571  -20.0571   20.0734 C   0  0  0  0  0  0  0  0  0  0  0  0
  -22.7019  -21.4042   20.4167 C   0  0  0  0  0  0  0  0  0  0  0  0
  -22.9349  -10.0835   19.8976 C   0  0  0  0  0  0  0  0  0  0  0  0
  -23.9122   -9.6608   22.0663 C   0  0  0  0  0  0  0  0  0  0  0  0
  -31.6175  -18.7967   21.2998 C   0  0  0  0  0  0  0  0  0  0  0  0
  -23.9919  -19.4317   19.9061 C   0  0  0  0  0  0  0  0  0  0  0  0
  -23.8815  -22.1263   20.5940 C   0  0  0  0  0  0  0  0  0  0  0  0
  -24.8304  -28.0205   19.2287 C   0  0  0  0  0  0  0  0  0  0  0  0
  -31.3851  -17.4405   21.0714 C   0  0  0  0  0  0  0  0  0  0  0  0
  -22.1667   -8.9255   20.0181 C   0  0  0  0  0  0  0  0  0  0  0  0
  -23.1440   -8.5028   22.1868 C   0  0  0  0  0  0  0  0  0  0  0  0
  -24.8174  -29.1774   20.0067 C   0  0  0  0  0  0  0  0  0  0  0  0
  -23.2276   -5.3263   21.0319 C   0  0  0  0  0  0  0  0  0  0  0  0
  -23.8621   -4.1728   21.4927 C   0  0  0  0  0  0  0  0  0  0  0  0
  -30.1760  -18.7176   23.2370 C   0  0  0  0  0  0  0  0  0  0  0  0
  -27.2135  -29.0355   20.2471 C   0  0  0  0  0  0  0  0  0  0  0  0
  -22.3431   -4.0872   23.3696 C   0  0  0  0  0  0  0  0  0  0  0  0
  -23.8076  -10.4512   20.9218 C   0  0  0  0  0  0  0  0  0  0  0  0
  -31.0130  -19.4353   22.3827 C   0  0  0  0  0  0  0  0  0  0  0  0
  -24.2513  -12.9468   21.2092 C   0  0  0  0  0  0  0  0  0  0  0  0
  -25.1872  -20.1489   20.0721 C   0  0  0  0  0  0  0  0  0  0  0  0
  -26.0359  -27.3552   18.9628 C   0  0  0  0  0  0  0  0  0  0  0  0
  -25.1335  -21.5095   20.4302 C   0  0  0  0  0  0  0  0  0  0  0  0
  -27.2395  -27.8718   19.4634 C   0  0  0  0  0  0  0  0  0  0  0  0
  -30.5481  -16.7228   21.9258 C   0  0  0  0  0  0  0  0  0  0  0  0
  -22.2712   -8.1352   21.1627 C   0  0  0  0  0  0  0  0  0  0  0  0
  -26.0087  -29.6834   20.5184 C   0  0  0  0  0  0  0  0  0  0  0  0
  -22.1509   -5.8604   21.7399 C   0  0  0  0  0  0  0  0  0  0  0  0
  -23.4198   -3.5532   22.6616 C   0  0  0  0  0  0  0  0  0  0  0  0
  -29.9435  -17.3613   23.0087 C   0  0  0  0  0  0  0  0  0  0  0  0
  -21.7087   -5.2408   22.9087 C   0  0  0  0  0  0  0  0  0  0  0  0
  -24.6018  -11.6470   20.7977 C   0  0  0  0  0  0  0  0  0  0  0  0
  -25.3364  -13.7182   20.8715 C   0  0  0  0  0  0  0  0  0  0  0  0
  -31.2605  -20.8799   22.6257 C   0  0  0  0  0  0  0  0  0  0  0  0
  -23.0521  -13.4150   21.8404 C   0  0  0  0  0  0  0  0  0  0  0  0
  -27.1922  -24.4651   19.6062 C   0  0  0  0  0  0  0  0  0  0  0  0
  -29.6463  -25.4565   17.7308 C   0  0  0  0  0  0  0  0  0  0  0  0
  -31.4230  -28.0589   16.4201 C   0  0  0  0  0  0  0  0  0  0  0  0
  -30.8359  -14.5631   20.6613 C   0  0  0  0  0  0  0  0  0  0  0  0
  -25.7562  -30.3208   25.1468 C   0  0  0  0  0  0  0  0  0  0  0  0
  -26.4985  -19.4180   19.9270 C   0  0  0  0  0  0  0  0  0  0  0  0
  -26.0362  -26.1233   18.0996 C   0  0  0  0  0  0  0  0  0  0  0  0
  -28.5627  -27.2064   19.1899 C   0  0  0  0  0  0  0  0  0  0  0  0
  -27.6991  -20.3469   19.7662 C   0  0  0  0  0  0  0  0  0  0  0  0
  -29.3889  -12.6415   18.0362 C   0  0  0  0  0  0  0  0  0  0  0  0
  -27.6456  -21.4714   20.7955 C   0  0  0  0  0  0  0  0  0  0  0  0
  -27.9857  -12.3184   18.5544 C   0  0  0  0  0  0  0  0  0  0  0  0
  -30.4253  -12.6271   19.1584 C   0  0  0  0  0  0  0  0  0  0  0  0
  -28.6957  -13.1470   20.8340 C   0  0  0  0  0  0  0  0  0  0  0  0
  -26.3909  -22.3327   20.6070 C   0  0  1  0  0  0  0  0  0  0  0  0
  -27.2599  -25.2394   18.3203 C   0  0  1  0  0  0  0  0  0  0  0  0
  -27.6068  -13.2134   19.7507 C   0  0  2  0  0  0  0  0  0  0  0  0
  -33.3976  -28.5553   14.9533 C   0  0  0  0  0  0  0  0  0  0  0  0
  -31.5272  -24.7167   20.0166 C   0  0  0  0  0  0  0  0  0  0  0  0
  -33.3055  -26.0823   18.9027 C   0  0  0  0  0  0  0  0  0  0  0  0
  -32.3540  -24.0903   17.7410 C   0  0  0  0  0  0  0  0  0  0  0  0
  -29.7460  -29.4990   14.4522 C   0  0  0  0  0  0  0  0  0  0  0  0
  -27.9063  -25.4436   25.3906 C   0  0  0  0  0  0  0  0  0  0  0  0
  -29.1596  -24.9880   24.6395 C   0  0  0  0  0  0  0  0  0  0  0  0
  -27.9764  -26.9323   25.7393 C   0  0  0  0  0  0  0  0  0  0  0  0
  -29.0995  -23.4916   24.3181 C   0  0  0  0  0  0  0  0  0  0  0  0
  -26.7079  -27.3916   26.4640 C   0  0  0  0  0  0  0  0  0  0  0  0
  -30.3353  -22.9759   23.5779 C   0  0  0  0  0  0  0  0  0  0  0  0
  -26.7539  -28.8569   26.9042 C   0  0  0  0  0  0  0  0  0  0  0  0
  -25.1978  -31.8740   23.2814 C   0  0  0  0  0  0  0  0  0  0  0  0
  -24.8264  -31.0636   22.0525 C   0  0  0  0  0  0  0  0  0  1  0  0
  -30.9495  -26.1801   17.9695 C   0  0  1  0  0  0  0  0  0  0  0  0
  -31.8921  -28.3470   15.0055 C   0  0  2  0  0  0  0  0  0  0  0  0
  -32.0090  -25.2791   18.6644 C   0  0  0  0  0  0  0  0  0  0  0  0
  -25.8147  -11.5919   20.2409 N   0  0  0  0  0  0  0  0  0  0  0  0
  -26.2357  -12.8668   20.3002 N   0  0  0  0  0  0  0  0  0  0  0  0
  -28.5102  -26.0012   18.3459 N   0  0  0  0  0  0  0  0  0  0  0  0
  -30.0013  -13.5004   20.2550 N   0  0  0  0  0  0  0  0  0  0  0  0
  -25.5993  -15.0350   21.0104 N   0  0  0  0  0  0  0  0  0  0  0  0
  -22.0370  -12.4889   22.1165 N   0  0  0  0  0  0  0  0  0  0  0  0
  -30.3135  -15.3453   21.6907 N   0  0  0  0  0  0  0  0  0  0  0  0
  -30.2528  -21.5496   23.2873 N   0  0  0  0  0  0  0  0  0  0  0  0
  -26.5634  -23.2399   19.4927 N   0  0  0  0  0  0  0  0  0  0  0  0
  -31.3683  -26.7047   16.6742 N   0  0  0  0  0  0  0  0  0  0  0  0
  -26.8615  -29.7785   25.7969 N   0  0  0  0  0  0  0  0  0  0  0  0
  -26.1415  -31.1785   24.1158 N   0  0  0  0  0  0  0  0  0  0  0  0
  -31.2294  -29.5741   14.4798 N   0  3  0  0  0  0  0  0  0  0  0  0
  -32.3033  -21.3865   22.2202 O   0  0  0  0  0  0  0  0  0  0  0  0
  -22.8789  -14.6219   22.1354 O   0  0  0  0  0  0  0  0  0  0  0  0
  -27.6761  -24.9431   20.6255 O   0  0  0  0  0  0  0  0  0  0  0  0
  -29.6355  -24.4492   17.0188 O   0  0  0  0  0  0  0  0  0  0  0  0
  -31.1374  -28.9463   17.2210 O   0  0  0  0  0  0  0  0  0  0  0  0
  -31.9211  -14.7808   20.1163 O   0  0  0  0  0  0  0  0  0  0  0  0
  -24.5867  -30.0777   25.4415 O   0  0  0  0  0  0  0  0  0  0  0  0
  -21.5216   -7.0052   21.2806 O   0  0  0  0  0  0  0  0  0  0  0  0
  -25.9987  -30.8121   21.2786 O   0  0  0  0  0  0  0  0  0  1  0  0
  -24.0282   -2.4446   23.1032 F   0  0  0  0  0  0  0  0  0  0  0  0
  -29.1366  -16.6818   23.8363 F   0  0  0  0  0  0  0  0  0  0  0  0
  -20.6741   -5.7485   23.5925 F   0  0  0  0  0  0  0  0  0  0  0  0
  1  2  1  0  0  0  0
  1  6  2  0  0  0  0
  2  7  2  0  0  0  0
  3 10  2  0  0  0  0
  3 18  1  0  0  0  0
  4 11  1  0  0  0  0
  4 18  2  0  0  0  0
  5  9  2  0  0  0  0
  5 19  1  0  0  0  0
  6 21  1  0  0  0  0
  7 23  1  0  0  0  0
  8 12  2  0  0  0  0
  8 22  1  0  0  0  0
  9 25  1  0  0  0  0
 10 26  1  0  0  0  0
 11 26  2  0  0  0  0
 12 27  1  0  0  0  0
 13 14  2  0  0  0  0
 13 28  1  0  0  0  0
 14 29  1  0  0  0  0
 15 19  2  0  0  0  0
 15 30  1  0  0  0  0
 16 24  1  0  0  0  0
 16 27  2  0  0  0  0
 17 29  2  0  0  0  0
 17 31  1  0  0  0  0
 18 32  1  0  0  0  0
 19 34  1  0  0  0  0
 20 32  1  0  0  0  0
 20 33  2  0  0  0  0
 20 35  1  0  0  0  0
 21 23  2  0  0  0  0
 21 41  1  0  0  0  0
 22 24  2  0  0  0  0
 22 42  1  0  0  0  0
 23 50  1  0  0  0  0
 24 43  1  0  0  0  0
 25 30  2  0  0  0  0
 25 76  1  0  0  0  0
 26 90  1  0  0  0  0
 27 91  1  0  0  0  0
 28 31  2  0  0  0  0
 28 90  1  0  0  0  0
 29 92  1  0  0  0  0
 30 93  1  0  0  0  0
 31 94  1  0  0  0  0
 32 70  2  0  0  0  0
 33 71  1  0  0  0  0
 33 74  1  0  0  0  0
 34 77  1  0  0  0  0
 34 83  2  0  0  0  0
 35 75  1  0  0  0  0
 35 84  2  0  0  0  0
 36 51  1  0  0  0  0
 36 78  1  0  0  0  0
 36 85  2  0  0  0  0
 37 67  1  0  0  0  0
 37 72  1  0  0  0  0
 37 86  2  0  0  0  0
 38 68  1  0  0  0  0
 38 79  1  0  0  0  0
 38 87  2  0  0  0  0
 39 73  1  0  0  0  0
 39 76  1  0  0  0  0
 39 88  2  0  0  0  0
 40 80  1  0  0  0  0
 40 81  1  0  0  0  0
 40 89  2  0  0  0  0
 41 44  1  0  0  0  0
 42 51  1  0  0  0  0
 43 72  1  0  0  0  0
 44 46  1  0  0  0  0
 45 47  1  0  0  0  0
 45 48  1  0  0  0  0
 46 50  1  0  0  0  0
 47 52  1  0  0  0  0
 48 73  1  0  0  0  0
 49 52  1  0  0  0  0
 49 73  1  0  0  0  0
 50 78  1  0  0  0  0
 51 72  1  0  0  0  0
 52 71  1  0  0  0  0
 53 68  1  0  0  0  0
 54 69  1  0  0  0  0
 55 69  1  0  0  0  0
 56 69  1  0  0  0  0
 57 82  1  0  0  0  0
 58 59  1  0  0  0  0
 58 60  1  0  0  0  0
 59 61  1  0  0  0  0
 60 62  1  0  0  0  0
 61 63  1  0  0  0  0
 62 64  1  0  0  0  0
 63 77  1  0  0  0  0
 64 80  1  0  0  0  0
 65 66  1  0  0  0  0
 65 81  1  0  0  0  0
 66 91  1  0  0  0  0
 67 69  1  0  0  0  0
 67 79  1  0  0  0  0
 68 82  1  0  0  0  0
 70 71  1  0  0  0  0
M  CHG  1  82   1
M  ISO  4  39 100  66 101  76 100  91 101
M  END
> <Batch ID>
0005

> <Smiles>
CNC(C)C(=O)NC(C(=O)N1Cc2cc([101O:1][101CH2:1]CNC(=O)NCCCCCCCNC(=O)c3ccc([100NH:0][100C:0](=O)N4CCCC(n5nc(-c6ccc(Oc7ccc(F)cc7F)cc6)c(C(N)=O)c5N)C4)c(F)c3)ccc2CC1C(=O)NC1CCCc2ccccc21)C(C)(C)C

> <Shape>
0.321

> <Color>
0.173

> <Negative vol penalty>
0.000

$$$$

  -OEChem-04052315263D

 99108  0     1  0  0  0  0  0999 V2000
  -19.9053  -23.7768   22.8088 C   0  0  0  0  0  0  0  0  0  0  0  0
  -21.2766  -23.6852   23.0247 C   0  0  0  0  0  0  0  0  0  0  0  0
  -27.0060  -12.5698   21.9717 C   0  0  0  0  0  0  0  0  0  0  0  0
  -25.8808  -14.5891   21.2693 C   0  0  0  0  0  0  0  0  0  0  0  0
  -19.3742  -24.8984   22.1735 C   0  0  0  0  0  0  0  0  0  0  0  0
  -22.1177  -24.7148   22.6043 C   0  0  0  0  0  0  0  0  0  0  0  0
  -27.2218  -26.6613   25.3729 C   0  0  0  0  0  0  0  0  0  0  0  0
  -28.2522  -24.3615   21.2897 C   0  0  0  0  0  0  0  0  0  0  0  0
  -28.9208  -23.2090   21.7023 C   0  0  0  0  0  0  0  0  0  0  0  0
  -25.7719  -11.9469   22.1580 C   0  0  0  0  0  0  0  0  0  0  0  0
  -24.6467  -13.9662   21.4555 C   0  0  0  0  0  0  0  0  0  0  0  0
  -28.5716  -26.3962   25.1456 C   0  0  0  0  0  0  0  0  0  0  0  0
  -22.9247   -9.7089   22.4731 C   0  0  0  0  0  0  0  0  0  0  0  0
  -22.7740   -8.4100   21.9877 C   0  0  0  0  0  0  0  0  0  0  0  0
  -27.4718  -23.2032   19.3183 C   0  0  0  0  0  0  0  0  0  0  0  0
  -28.7381  -28.4080   23.8250 C   0  0  0  0  0  0  0  0  0  0  0  0
  -23.2499   -9.1906   19.7513 C   0  0  0  0  0  0  0  0  0  0  0  0
  -27.0605  -13.8909   21.5274 C   0  0  0  0  0  0  0  0  0  0  0  0
  -29.3665  -14.1359   20.4645 C   0  0  0  0  0  0  0  0  0  0  0  0
  -20.2081  -25.9468   21.7537 C   0  0  0  0  0  0  0  0  0  0  0  0
  -26.6164  -27.7979   24.8179 C   0  0  0  0  0  0  0  0  0  0  0  0
  -21.5974  -25.8510   21.9615 C   0  0  0  0  0  0  0  0  0  0  0  0
  -28.1405  -22.0507   19.7308 C   0  0  0  0  0  0  0  0  0  0  0  0
  -27.3811  -28.6866   24.0488 C   0  0  0  0  0  0  0  0  0  0  0  0
  -27.5276  -24.3586   20.0978 C   0  0  0  0  0  0  0  0  0  0  0  0
  -28.8650  -22.0536   20.9228 C   0  0  0  0  0  0  0  0  0  0  0  0
  -24.5923  -12.6451   21.8999 C   0  0  0  0  0  0  0  0  0  0  0  0
  -29.3293  -27.2681   24.3692 C   0  0  0  0  0  0  0  0  0  0  0  0
  -23.2379  -10.7487   21.5977 C   0  0  0  0  0  0  0  0  0  0  0  0
  -22.9366   -8.1508   20.6268 C   0  0  0  0  0  0  0  0  0  0  0  0
  -23.4005  -10.4895   20.2368 C   0  0  0  0  0  0  0  0  0  0  0  0
  -28.3349  -14.5350   21.3354 C   0  0  0  0  0  0  0  0  0  0  0  0
  -30.3556  -15.0701   20.6529 C   0  0  0  0  0  0  0  0  0  0  0  0
  -29.4254  -13.0204   19.5657 C   0  0  0  0  0  0  0  0  0  0  0  0
  -24.2499  -28.2978   22.7555 C   0  0  0  0  0  0  0  0  0  0  0  0
  -24.7384  -31.4055   23.5466 C   0  0  0  0  0  0  0  0  0  0  0  0
  -26.0853  -25.6990   18.5325 C   0  0  0  0  0  0  0  0  0  0  0  0
  -31.2975  -28.0573   19.7597 C   0  0  0  0  0  0  0  0  0  0  0  0
  -26.8661  -33.7906   24.7429 C   0  0  0  0  0  0  0  0  0  0  0  0
  -30.3076  -20.7457   22.5212 C   0  0  0  0  0  0  0  0  0  0  0  0
  -19.5933  -27.1178   21.0289 C   0  0  0  0  0  0  0  0  0  0  0  0
  -25.1658  -28.0836   25.0945 C   0  0  0  0  0  0  0  0  0  0  0  0
  -26.7836  -29.9313   23.4472 C   0  0  0  0  0  0  0  0  0  0  0  0
  -20.5110  -28.3351   20.9498 C   0  0  0  0  0  0  0  0  0  0  0  0
  -26.7814  -18.9623   16.9365 C   0  0  0  0  0  0  0  0  0  0  0  0
  -27.9185  -19.8851   16.5088 C   0  0  0  0  0  0  0  0  0  0  0  0
  -26.8630  -18.6195   18.4209 C   0  0  0  0  0  0  0  0  0  0  0  0
  -32.1168  -18.0425   23.9691 C   0  0  0  0  0  0  0  0  0  0  0  0
  -27.9731  -21.1480   17.3665 C   0  0  0  0  0  0  0  0  0  0  0  0
  -26.9123  -19.8761   19.2881 C   0  0  0  0  0  0  0  0  0  0  0  0
  -21.9148  -27.9185   20.5226 C   0  0  0  0  0  0  0  0  0  0  0  0
  -31.4501  -16.8001   23.3741 C   0  0  0  0  0  0  0  0  0  0  0  0
  -31.1029  -19.1497   24.2519 C   0  0  0  0  0  0  0  0  0  0  0  0
  -29.5866  -18.2768   22.5175 C   0  0  0  0  0  0  0  0  0  0  0  0
  -28.0609  -20.8107   18.8663 C   0  0  0  0  0  0  0  0  0  0  0  0
  -22.5396  -26.9585   21.5422 C   0  0  1  0  0  0  0  0  0  0  0  0
  -24.5284  -28.9998   24.0544 C   0  0  1  0  0  0  0  0  0  0  0  0
  -30.5771  -17.1581   22.1554 C   0  0  2  0  0  0  0  0  0  0  0  0
  -26.9929  -36.2472   25.2389 C   0  0  0  0  0  0  0  0  0  0  0  0
  -25.0166  -31.9907   20.5649 C   0  0  0  0  0  0  0  0  0  0  0  0
  -26.0598  -34.1863   21.1642 C   0  0  0  0  0  0  0  0  0  0  0  0
  -23.7107  -33.6964   21.8454 C   0  0  0  0  0  0  0  0  0  0  0  0
  -31.9837  -25.6435   19.3576 C   0  0  0  0  0  0  0  0  0  0  0  0
  -27.3705  -33.3021   27.6179 C   0  0  0  0  0  0  0  0  0  0  0  0
  -25.5115  -27.1046   18.4331 C   0  0  0  0  0  0  0  0  0  0  0  0
  -30.3547  -27.9341   18.5700 C   0  0  0  0  0  0  0  0  0  0  0  0
  -26.5975  -28.1819   18.3988 C   0  0  0  0  0  0  0  0  0  0  0  0
  -29.5793  -29.2243   18.2926 C   0  0  0  0  0  0  0  0  0  0  0  0
  -27.5550  -28.0073   17.2157 C   0  0  0  0  0  0  0  0  0  0  0  0
  -28.6062  -29.1173   17.1119 C   0  0  0  0  0  0  0  0  0  0  0  0
  -32.3439  -26.5539   22.5062 C   0  0  0  0  0  0  0  0  0  0  0  0
  -32.9854  -26.9572   21.1854 C   0  0  0  0  0  0  0  0  0  0  0  0
  -31.1997  -27.4737   22.9149 C   0  0  0  0  0  0  0  0  0  1  0  0
  -25.6135  -32.5176   23.0209 C   0  0  1  0  0  0  0  0  0  0  0  0
  -26.6821  -34.8672   25.7972 C   0  0  2  0  0  0  0  0  0  0  0  0
  -25.1112  -33.0733   21.6585 C   0  0  0  0  0  0  0  0  0  0  0  0
  -28.6404  -15.6369   22.0257 N   0  0  0  0  0  0  0  0  0  0  0  0
  -29.8751  -15.9381   21.5888 N   0  0  0  0  0  0  0  0  0  0  0  0
  -25.3598  -30.1637   23.7411 N   0  0  0  0  0  0  0  0  0  0  0  0
  -30.3152  -19.4382   23.0514 N   0  0  0  0  0  0  0  0  0  0  0  0
  -31.5807  -15.2256   20.1076 N   0  0  0  0  0  0  0  0  0  0  0  0
  -28.9670  -13.1953   18.2528 N   0  0  0  0  0  0  0  0  0  0  0  0
  -26.8473  -25.5268   19.6810 N   0  0  0  0  0  0  0  0  0  0  0  0
  -29.5497  -20.8926   21.3599 N   0  0  0  0  0  0  0  0  0  0  0  0
  -23.0113  -27.6877   22.6999 N   0  0  0  0  0  0  0  0  0  0  0  0
  -25.6872  -33.5155   24.0826 N   0  0  0  0  0  0  0  0  0  0  0  0
  -32.0422  -26.9152   20.0750 N   0  0  0  0  0  0  0  0  0  0  0  0
  -27.5831  -34.6156   26.9572 N   0  3  0  0  0  0  0  0  0  0  0  0
  -29.8562  -11.8971   19.9211 O   0  0  0  0  0  0  0  0  0  0  0  0
  -25.0956  -28.3100   21.8687 O   0  0  0  0  0  0  0  0  0  0  0  0
  -23.5491  -31.6321   23.7828 O   0  0  0  0  0  0  0  0  0  0  0  0
  -25.8552  -24.8718   17.6547 O   0  0  0  0  0  0  0  0  0  0  0  0
  -31.3747  -29.1147   20.3907 O   0  0  0  0  0  0  0  0  0  0  0  0
  -27.9482  -33.2505   24.5242 O   0  0  0  0  0  0  0  0  0  0  0  0
  -30.9496  -21.6611   23.0425 O   0  0  0  0  0  0  0  0  0  0  0  0
  -23.3879  -12.0376   22.0813 O   0  0  0  0  0  0  0  0  0  0  0  0
  -30.6562  -27.0096   24.1437 O   0  0  0  0  0  0  0  0  0  1  0  0
  -22.7934   -6.9031   20.1610 F   0  0  0  0  0  0  0  0  0  0  0  0
  -23.7026  -11.4842   19.3911 F   0  0  0  0  0  0  0  0  0  0  0  0
  1  2  1  0  0  0  0
  1  5  2  0  0  0  0
  2  6  2  0  0  0  0
  3 10  2  0  0  0  0
  3 18  1  0  0  0  0
  4 11  1  0  0  0  0
  4 18  2  0  0  0  0
  5 20  1  0  0  0  0
  6 22  1  0  0  0  0
  7 12  2  0  0  0  0
  7 21  1  0  0  0  0
  8  9  2  0  0  0  0
  8 25  1  0  0  0  0
  9 26  1  0  0  0  0
 10 27  1  0  0  0  0
 11 27  2  0  0  0  0
 12 28  1  0  0  0  0
 13 14  2  0  0  0  0
 13 29  1  0  0  0  0
 14 30  1  0  0  0  0
 15 23  1  0  0  0  0
 15 25  2  0  0  0  0
 16 24  1  0  0  0  0
 16 28  2  0  0  0  0
 17 30  2  0  0  0  0
 17 31  1  0  0  0  0
 18 32  1  0  0  0  0
 19 32  1  0  0  0  0
 19 33  2  0  0  0  0
 19 34  1  0  0  0  0
 20 22  2  0  0  0  0
 20 41  1  0  0  0  0
 21 24  2  0  0  0  0
 21 42  1  0  0  0  0
 22 56  1  0  0  0  0
 23 26  2  0  0  0  0
 23 55  1  0  0  0  0
 24 43  1  0  0  0  0
 25 83  1  0  0  0  0
 26 84  1  0  0  0  0
 27 96  1  0  0  0  0
 28 97  1  0  0  0  0
 29 31  2  0  0  0  0
 29 96  1  0  0  0  0
 30 98  1  0  0  0  0
 31 99  1  0  0  0  0
 32 77  2  0  0  0  0
 33 78  1  0  0  0  0
 33 81  1  0  0  0  0
 34 82  1  0  0  0  0
 34 89  2  0  0  0  0
 35 57  1  0  0  0  0
 35 85  1  0  0  0  0
 35 90  2  0  0  0  0
 36 74  1  0  0  0  0
 36 79  1  0  0  0  0
 36 91  2  0  0  0  0
 37 65  1  0  0  0  0
 37 83  1  0  0  0  0
 37 92  2  0  0  0  0
 38 66  1  0  0  0  0
 38 87  1  0  0  0  0
 38 93  2  0  0  0  0
 39 75  1  0  0  0  0
 39 86  1  0  0  0  0
 39 94  2  0  0  0  0
 40 80  1  0  0  0  0
 40 84  1  0  0  0  0
 40 95  2  0  0  0  0
 41 44  1  0  0  0  0
 42 57  1  0  0  0  0
 43 79  1  0  0  0  0
 44 51  1  0  0  0  0
 45 46  1  0  0  0  0
 45 47  1  0  0  0  0
 46 49  1  0  0  0  0
 47 50  1  0  0  0  0
 48 52  1  0  0  0  0
 48 53  1  0  0  0  0
 49 55  1  0  0  0  0
 50 55  1  0  0  0  0
 51 56  1  0  0  0  0
 52 58  1  0  0  0  0
 53 80  1  0  0  0  0
 54 58  1  0  0  0  0
 54 80  1  0  0  0  0
 56 85  1  0  0  0  0
 57 79  1  0  0  0  0
 58 78  1  0  0  0  0
 59 75  1  0  0  0  0
 60 76  1  0  0  0  0
 61 76  1  0  0  0  0
 62 76  1  0  0  0  0
 63 87  1  0  0  0  0
 64 88  1  0  0  0  0
 65 67  1  0  0  0  0
 66 68  1  0  0  0  0
 67 69  1  0  0  0  0
 68 70  1  0  0  0  0
 69 70  1  0  0  0  0
 71 72  1  0  0  0  0
 71 73  1  0  0  0  0
 72 87  1  0  0  0  0
 73 97  1  0  0  0  0
 74 76  1  0  0  0  0
 74 86  1  0  0  0  0
 75 88  1  0  0  0  0
 77 78  1  0  0  0  0
M  CHG  1  88   1
M  ISO  4  40 100  73 101  84 100  97 101
M  END
> <Batch ID>
0005

> <Smiles>
CNC(C)C(=O)NC(C(=O)N1Cc2cc([101O:1][101CH2:1]CCN(C)C(=O)CCCCCCC(=O)Nc3ccc([100NH:0][100C:0](=O)N4CCCC(n5nc(-c6ccc(Oc7ccc(F)cc7F)cc6)c(C(N)=O)c5N)C4)c(C4CCCCC4)c3)ccc2CC1C(=O)NC1CCCc2ccccc21)C(C)(C)C

> <Shape>
0.281

> <Color>
0.061

> <Negative vol penalty>
0.000

$$$$

  -OEChem-04052315263D

 90 98  0     1  0  0  0  0  0999 V2000
  -25.3572  -23.0275   19.3766 C   0  0  0  0  0  0  0  0  0  0  0  0
  -24.5135  -23.9584   19.9741 C   0  0  0  0  0  0  0  0  0  0  0  0
  -24.5463   -9.3034   20.5962 C   0  0  0  0  0  0  0  0  0  0  0  0
  -22.6950  -10.2676   21.8128 C   0  0  0  0  0  0  0  0  0  0  0  0
  -26.7329  -23.0956   19.5926 C   0  0  0  0  0  0  0  0  0  0  0  0
  -25.0451  -24.9574   20.7889 C   0  0  0  0  0  0  0  0  0  0  0  0
  -23.0460  -29.5113   19.8345 C   0  0  0  0  0  0  0  0  0  0  0  0
  -25.4413  -21.1381   25.2056 C   0  0  0  0  0  0  0  0  0  0  0  0
  -25.9818  -19.8782   24.9489 C   0  0  0  0  0  0  0  0  0  0  0  0
  -23.9445   -8.0475   20.6758 C   0  0  0  0  0  0  0  0  0  0  0  0
  -22.0932   -9.0117   21.8924 C   0  0  0  0  0  0  0  0  0  0  0  0
  -21.7787  -29.7719   20.3540 C   0  0  0  0  0  0  0  0  0  0  0  0
  -22.4283   -6.2013   23.7417 C   0  0  0  0  0  0  0  0  0  0  0  0
  -21.8969   -5.8141   24.9718 C   0  0  0  0  0  0  0  0  0  0  0  0
  -22.7827  -31.0028   22.1695 C   0  0  0  0  0  0  0  0  0  0  0  0
  -24.1653  -21.0080   23.1581 C   0  0  0  0  0  0  0  0  0  0  0  0
  -19.7110   -5.6095   23.9631 C   0  0  0  0  0  0  0  0  0  0  0  0
  -23.9216  -10.4134   21.1648 C   0  0  0  0  0  0  0  0  0  0  0  0
  -24.3756  -12.6714   20.0679 C   0  0  0  0  0  0  0  0  0  0  0  0
  -27.2825  -24.1017   20.4027 C   0  0  0  0  0  0  0  0  0  0  0  0
  -24.1936  -29.9860   20.4857 C   0  0  0  0  0  0  0  0  0  0  0  0
  -26.4293  -25.0382   21.0170 C   0  0  0  0  0  0  0  0  0  0  0  0
  -24.0633  -30.7490   21.6548 C   0  0  0  0  0  0  0  0  0  0  0  0
  -24.5330  -21.7030   24.3102 C   0  0  0  0  0  0  0  0  0  0  0  0
  -25.6141  -19.1831   23.7968 C   0  0  0  0  0  0  0  0  0  0  0  0
  -22.7180   -7.9017   21.3239 C   0  0  0  0  0  0  0  0  0  0  0  0
  -21.6471  -30.5153   21.5233 C   0  0  0  0  0  0  0  0  0  0  0  0
  -21.6011   -6.2927   22.6223 C   0  0  0  0  0  0  0  0  0  0  0  0
  -24.7058  -19.7480   22.9014 C   0  0  0  0  0  0  0  0  0  0  0  0
  -20.5382   -5.5182   25.0826 C   0  0  0  0  0  0  0  0  0  0  0  0
  -20.2425   -5.9968   22.7330 C   0  0  0  0  0  0  0  0  0  0  0  0
  -24.5430  -11.7108   21.0834 C   0  0  0  0  0  0  0  0  0  0  0  0
  -25.1740  -13.7206   20.4528 C   0  0  0  0  0  0  0  0  0  0  0  0
  -23.5704  -12.6198   18.8827 C   0  0  0  0  0  0  0  0  0  0  0  0
  -26.7261  -28.6273   21.8436 C   0  0  0  0  0  0  0  0  0  0  0  0
  -27.7401  -31.6966   22.1149 C   0  0  0  0  0  0  0  0  0  0  0  0
  -26.9366  -35.0093   22.2811 C   0  0  0  0  0  0  0  0  0  0  0  0
  -27.0867  -17.2138   24.3441 C   0  0  0  0  0  0  0  0  0  0  0  0
  -23.0698  -23.6963   23.7937 C   0  0  0  0  0  0  0  0  0  0  0  0
  -28.7711  -24.1064   20.6448 C   0  0  0  0  0  0  0  0  0  0  0  0
  -25.5521  -29.7190   19.8979 C   0  0  0  0  0  0  0  0  0  0  0  0
  -25.2629  -31.2987   22.3809 C   0  0  0  0  0  0  0  0  0  0  0  0
  -29.2905  -25.4216   21.2200 C   0  0  0  0  0  0  0  0  0  0  0  0
  -28.6704  -14.0343   24.0996 C   0  0  0  0  0  0  0  0  0  0  0  0
  -28.4026  -25.8895   22.3687 C   0  0  0  0  0  0  0  0  0  0  0  0
  -27.7240  -13.2254   23.2095 C   0  0  0  0  0  0  0  0  0  0  0  0
  -27.9076  -14.9720   25.0337 C   0  0  0  0  0  0  0  0  0  0  0  0
  -25.9966  -15.0500   23.4809 C   0  0  0  0  0  0  0  0  0  0  0  0
  -26.9704  -26.1516   21.8875 C   0  0  1  0  0  0  0  0  0  0  0  0
  -26.6767  -29.8148   20.9243 C   0  0  1  0  0  0  0  0  0  0  0  0
  -26.7211  -14.1383   22.4772 C   0  0  2  0  0  0  0  0  0  0  0  0
  -27.9772  -37.2780   22.5405 C   0  0  0  0  0  0  0  0  0  0  0  0
  -28.1437  -31.1683   25.0928 C   0  0  0  0  0  0  0  0  0  0  0  0
  -28.2532  -33.6445   25.4461 C   0  0  0  0  0  0  0  0  0  0  0  0
  -29.9566  -32.5138   24.0169 C   0  0  0  0  0  0  0  0  0  0  0  0
  -25.9185  -35.9049   19.6504 C   0  0  0  0  0  0  0  0  0  0  0  0
  -23.1983  -18.2301   21.8626 C   0  0  0  0  0  0  0  0  0  0  0  0
  -19.6808  -28.0825   24.1376 C   0  0  0  0  0  0  0  0  0  0  0  0
  -19.4204  -26.6296   23.7340 C   0  0  0  0  0  0  0  0  0  0  0  0
  -18.6457  -29.0236   23.5172 C   0  0  0  0  0  0  0  0  0  0  0  0
  -20.4374  -25.6462   24.3179 C   0  0  0  0  0  0  0  0  0  0  0  0
  -18.9221  -30.4782   23.8914 C   0  0  0  0  0  0  0  0  0  0  0  0
  -21.8604  -25.8838   23.8265 C   0  0  0  0  0  0  0  0  0  0  0  0
  -20.3104  -30.9181   23.4486 C   0  0  0  0  0  0  0  0  0  1  0  0
  -27.5955  -32.7824   23.1537 C   0  0  1  0  0  0  0  0  0  0  0  0
  -27.4995  -36.2197   21.5583 C   0  0  2  0  0  0  0  0  0  0  0  0
  -28.4646  -32.5154   24.4150 C   0  0  0  0  0  0  0  0  0  0  0  0
  -25.3819  -12.1140   22.0413 N   0  0  0  0  0  0  0  0  0  0  0  0
  -25.7489  -13.3395   21.6294 N   0  0  0  0  0  0  0  0  0  0  0  0
  -26.5700  -31.0054   21.7701 N   0  0  0  0  0  0  0  0  0  0  0  0
  -26.9799  -15.8089   24.2695 N   0  0  0  0  0  0  0  0  0  0  0  0
  -25.4334  -14.9228   19.8962 N   0  0  0  0  0  0  0  0  0  0  0  0
  -22.8115  -11.4667   18.6402 N   0  0  0  0  0  0  0  0  0  0  0  0
  -26.1725  -17.9046   23.5493 N   0  0  0  0  0  0  0  0  0  0  0  0
  -23.9856  -22.9810   24.5704 N   0  0  0  0  0  0  0  0  0  0  0  0
  -26.8944  -27.4194   21.1938 N   0  0  0  0  0  0  0  0  0  0  0  0
  -27.8965  -34.0387   22.4757 N   0  0  0  0  0  0  0  0  0  0  0  0
  -22.7728  -24.9287   24.3939 N   0  0  0  0  0  0  0  0  0  0  0  0
  -26.4604  -36.8283   20.6803 N   0  3  0  0  0  0  0  0  0  0  0  0
  -23.5380  -13.5615   18.0547 O   0  0  0  0  0  0  0  0  0  0  0  0
  -26.6210  -28.7947   23.0530 O   0  0  0  0  0  0  0  0  0  0  0  0
  -28.8490  -31.4749   21.6221 O   0  0  0  0  0  0  0  0  0  0  0  0
  -25.7638  -34.9339   22.6406 O   0  0  0  0  0  0  0  0  0  0  0  0
  -27.9450  -17.7634   25.0393 O   0  0  0  0  0  0  0  0  0  0  0  0
  -22.5708  -23.3345   22.7308 O   0  0  0  0  0  0  0  0  0  0  0  0
  -22.1304   -6.6765   21.4015 O   0  0  0  0  0  0  0  0  0  0  0  0
  -24.3345  -19.0865   21.7688 O   0  0  0  0  0  0  0  0  0  0  0  0
  -20.4113  -30.7706   22.0329 O   0  0  0  0  0  0  0  0  0  1  0  0
  -20.0284   -5.1449   26.2636 F   0  0  0  0  0  0  0  0  0  0  0  0
  -19.4431   -6.0816   21.6608 F   0  0  0  0  0  0  0  0  0  0  0  0
  1  2  1  0  0  0  0
  1  5  2  0  0  0  0
  2  6  2  0  0  0  0
  3 10  2  0  0  0  0
  3 18  1  0  0  0  0
  4 11  1  0  0  0  0
  4 18  2  0  0  0  0
  5 20  1  0  0  0  0
  6 22  1  0  0  0  0
  7 12  2  0  0  0  0
  7 21  1  0  0  0  0
  8  9  2  0  0  0  0
  8 24  1  0  0  0  0
  9 25  1  0  0  0  0
 10 26  1  0  0  0  0
 11 26  2  0  0  0  0
 12 27  1  0  0  0  0
 13 14  2  0  0  0  0
 13 28  1  0  0  0  0
 14 30  1  0  0  0  0
 15 23  1  0  0  0  0
 15 27  2  0  0  0  0
 16 24  2  0  0  0  0
 16 29  1  0  0  0  0
 17 30  2  0  0  0  0
 17 31  1  0  0  0  0
 18 32  1  0  0  0  0
 19 32  1  0  0  0  0
 19 33  2  0  0  0  0
 19 34  1  0  0  0  0
 20 22  2  0  0  0  0
 20 40  1  0  0  0  0
 21 23  2  0  0  0  0
 21 41  1  0  0  0  0
 22 49  1  0  0  0  0
 23 42  1  0  0  0  0
 24 75  1  0  0  0  0
 25 29  2  0  0  0  0
 25 74  1  0  0  0  0
 26 86  1  0  0  0  0
 27 88  1  0  0  0  0
 28 31  2  0  0  0  0
 28 86  1  0  0  0  0
 29 87  1  0  0  0  0
 30 89  1  0  0  0  0
 31 90  1  0  0  0  0
 32 68  2  0  0  0  0
 33 69  1  0  0  0  0
 33 72  1  0  0  0  0
 34 73  1  0  0  0  0
 34 80  2  0  0  0  0
 35 50  1  0  0  0  0
 35 76  1  0  0  0  0
 35 81  2  0  0  0  0
 36 65  1  0  0  0  0
 36 70  1  0  0  0  0
 36 82  2  0  0  0  0
 37 66  1  0  0  0  0
 37 77  1  0  0  0  0
 37 83  2  0  0  0  0
 38 71  1  0  0  0  0
 38 74  1  0  0  0  0
 38 84  2  0  0  0  0
 39 75  1  0  0  0  0
 39 78  1  0  0  0  0
 39 85  2  0  0  0  0
 40 43  1  0  0  0  0
 41 50  1  0  0  0  0
 42 70  1  0  0  0  0
 43 45  1  0  0  0  0
 44 46  1  0  0  0  0
 44 47  1  0  0  0  0
 45 49  1  0  0  0  0
 46 51  1  0  0  0  0
 47 71  1  0  0  0  0
 48 51  1  0  0  0  0
 48 71  1  0  0  0  0
 49 76  1  0  0  0  0
 50 70  1  0  0  0  0
 51 69  1  0  0  0  0
 52 66  1  0  0  0  0
 53 67  1  0  0  0  0
 54 67  1  0  0  0  0
 55 67  1  0  0  0  0
 56 79  1  0  0  0  0
 57 87  1  0  0  0  0
 58 59  1  0  0  0  0
 58 60  1  0  0  0  0
 59 61  1  0  0  0  0
 60 62  1  0  0  0  0
 61 63  1  0  0  0  0
 62 64  1  0  0  0  0
 63 78  1  0  0  0  0
 64 88  1  0  0  0  0
 65 67  1  0  0  0  0
 65 77  1  0  0  0  0
 66 79  1  0  0  0  0
 68 69  1  0  0  0  0
M  CHG  1  79   1
M  ISO  4  38 100  64 101  74 100  88 101
M  END
> <Batch ID>
0005

> <Smiles>
CNC(C)C(=O)NC(C(=O)N1Cc2cc([101O:1][101CH2:1]CCCCCCNC(=O)Nc3ccc([100NH:0][100C:0](=O)N4CCCC(n5nc(-c6ccc(Oc7ccc(F)cc7F)cc6)c(C(N)=O)c5N)C4)c(OC)c3)ccc2CC1C(=O)NC1CCCc2ccccc21)C(C)(C)C

> <Shape>
0.224

> <Color>
0.104

> <Negative vol penalty>
0.000

$$$$

  -OEChem-04052315263D

 98105  0     1  0  0  0  0  0999 V2000
  -23.0603  -19.5853   19.3681 C   0  0  0  0  0  0  0  0  0  0  0  0
  -23.7755  -20.2634   20.3500 C   0  0  0  0  0  0  0  0  0  0  0  0
  -23.1153   -9.7611   20.0245 C   0  0  0  0  0  0  0  0  0  0  0  0
  -23.8421   -9.9231   22.3229 C   0  0  0  0  0  0  0  0  0  0  0  0
  -23.7338  -18.7974   18.4356 C   0  0  0  0  0  0  0  0  0  0  0  0
  -25.1646  -20.1530   20.4006 C   0  0  0  0  0  0  0  0  0  0  0  0
  -29.1455  -24.5042   22.0516 C   0  0  0  0  0  0  0  0  0  0  0  0
  -22.3999   -8.6039   20.3323 C   0  0  0  0  0  0  0  0  0  0  0  0
  -23.1267   -8.7660   22.6308 C   0  0  0  0  0  0  0  0  0  0  0  0
  -29.8118  -24.7604   23.2492 C   0  0  0  0  0  0  0  0  0  0  0  0
  -21.1988   -6.0565   24.1006 C   0  0  0  0  0  0  0  0  0  0  0  0
  -20.4275   -6.0599   25.2627 C   0  0  0  0  0  0  0  0  0  0  0  0
  -31.7386  -23.5649   22.4260 C   0  0  0  0  0  0  0  0  0  0  0  0
  -19.1407   -7.9153   24.4032 C   0  0  0  0  0  0  0  0  0  0  0  0
  -23.8365  -10.4207   21.0198 C   0  0  0  0  0  0  0  0  0  0  0  0
  -24.1106  -12.9432   20.7562 C   0  0  0  0  0  0  0  0  0  0  0  0
  -25.1327  -18.6851   18.4689 C   0  0  0  0  0  0  0  0  0  0  0  0
  -29.7678  -23.7658   21.0347 C   0  0  0  0  0  0  0  0  0  0  0  0
  -25.8573  -19.3618   19.4686 C   0  0  0  0  0  0  0  0  0  0  0  0
  -31.0790  -23.3028   21.2155 C   0  0  0  0  0  0  0  0  0  0  0  0
  -22.4055   -8.1064   21.6354 C   0  0  0  0  0  0  0  0  0  0  0  0
  -31.1075  -24.2882   23.4377 C   0  0  0  0  0  0  0  0  0  0  0  0
  -20.9412   -6.9826   23.0897 C   0  0  0  0  0  0  0  0  0  0  0  0
  -19.3984   -6.9893   25.4140 C   0  0  0  0  0  0  0  0  0  0  0  0
  -19.9121   -7.9119   23.2411 C   0  0  0  0  0  0  0  0  0  0  0  0
  -24.5762  -11.6157   20.7024 C   0  0  0  0  0  0  0  0  0  0  0  0
  -25.1868  -13.7007   20.3633 C   0  0  0  0  0  0  0  0  0  0  0  0
  -22.8206  -13.4464   21.1282 C   0  0  0  0  0  0  0  0  0  0  0  0
  -29.1637  -21.0079   19.5743 C   0  0  0  0  0  0  0  0  0  0  0  0
  -31.6624  -21.8971   17.7066 C   0  0  0  0  0  0  0  0  0  0  0  0
  -32.1215  -18.3298   23.3366 C   0  0  0  0  0  0  0  0  0  0  0  0
  -36.4611  -23.8933   25.3950 C   0  0  0  0  0  0  0  0  0  0  0  0
  -33.6643  -25.5956   25.6216 C   0  0  0  0  0  0  0  0  0  0  0  0
  -34.5152  -23.7393   17.3685 C   0  0  0  0  0  0  0  0  0  0  0  0
  -30.6373  -14.8834   20.5604 C   0  0  0  0  0  0  0  0  0  0  0  0
  -25.8126  -17.7838   17.4689 C   0  0  0  0  0  0  0  0  0  0  0  0
  -29.0454  -23.5209   19.7384 C   0  0  0  0  0  0  0  0  0  0  0  0
  -31.7988  -22.5227   20.1470 C   0  0  0  0  0  0  0  0  0  0  0  0
  -27.3171  -18.0188   17.3614 C   0  0  0  0  0  0  0  0  0  0  0  0
  -29.5995  -12.3327   18.3035 C   0  0  0  0  0  0  0  0  0  0  0  0
  -27.9440  -18.1073   18.7492 C   0  0  0  0  0  0  0  0  0  0  0  0
  -28.1647  -12.0242   18.7349 C   0  0  0  0  0  0  0  0  0  0  0  0
  -30.4931  -12.6489   19.5008 C   0  0  0  0  0  0  0  0  0  0  0  0
  -28.5525  -13.4056   20.8182 C   0  0  0  0  0  0  0  0  0  0  0  0
  -27.3671  -19.2869   19.5410 C   0  0  1  0  0  0  0  0  0  0  0  0
  -29.5856  -22.3179   18.9713 C   0  0  1  0  0  0  0  0  0  0  0  0
  -27.6003  -13.1352   19.6407 C   0  0  2  0  0  0  0  0  0  0  0  0
  -36.3613  -24.2311   15.7413 C   0  0  0  0  0  0  0  0  0  0  0  0
  -32.9292  -19.1922   18.3302 C   0  0  0  0  0  0  0  0  0  0  0  0
  -35.1095  -20.1001   17.4992 C   0  0  0  0  0  0  0  0  0  0  0  0
  -33.1606  -19.9290   15.9515 C   0  0  0  0  0  0  0  0  0  0  0  0
  -35.6191  -26.7329   26.6882 C   0  0  0  0  0  0  0  0  0  0  0  0
  -33.8205  -26.6145   17.2710 C   0  0  0  0  0  0  0  0  0  0  0  0
  -31.4262  -17.0235   22.9656 C   0  0  0  0  0  0  0  0  0  0  0  0
  -35.9946  -25.1969   24.7992 C   0  0  0  0  0  0  0  0  0  0  0  0
  -33.1813  -24.6464   24.5453 C   0  0  0  0  0  0  0  0  0  1  0  0
  -35.7759  -20.7423   24.9772 C   0  0  0  0  0  0  0  0  0  0  0  0
  -30.9441  -17.8122   26.7302 C   0  0  0  0  0  0  0  0  0  0  0  0
  -37.1838  -20.8032   24.3761 C   0  0  0  0  0  0  0  0  0  0  0  0
  -35.0168  -19.5065   24.4835 C   0  0  0  0  0  0  0  0  0  0  0  0
  -30.3877  -17.9828   28.1474 C   0  0  0  0  0  0  0  0  0  0  0  0
  -32.3994  -17.3275   26.7622 C   0  0  0  0  0  0  0  0  0  0  0  0
  -30.6265  -17.1034   21.6698 C   0  0  0  0  0  0  0  0  0  0  0  0
  -37.9906  -21.9903   24.8922 C   0  0  0  0  0  0  0  0  0  0  0  0
  -33.5888  -19.4445   25.0154 C   0  0  0  0  0  0  0  0  0  0  0  0
  -28.9198  -18.3903   28.1777 C   0  0  0  0  0  0  0  0  0  0  0  0
  -34.4215  -16.5978   25.4037 C   0  0  0  0  0  0  0  0  0  0  0  0
  -33.1581  -21.6992   17.7567 C   0  0  1  0  0  0  0  0  0  0  0  0
  -34.9962  -24.6569   16.2589 C   0  0  2  0  0  0  0  0  0  0  0  0
  -32.9707  -17.0838   25.3563 C   0  0  2  0  0  0  0  0  0  0  0  0
  -33.5754  -20.2432   17.4055 C   0  0  0  0  0  0  0  0  0  0  0  0
  -25.8490  -11.5314   20.3063 N   0  0  0  0  0  0  0  0  0  0  0  0
  -26.1923  -12.8155   20.1077 N   0  0  0  0  0  0  0  0  0  0  0  0
  -31.0481  -22.3036   18.8996 N   0  0  0  0  0  0  0  0  0  0  0  0
  -29.9020  -13.7114   20.3180 N   0  0  0  0  0  0  0  0  0  0  0  0
  -25.3616  -15.0311   20.2150 N   0  0  0  0  0  0  0  0  0  0  0  0
  -21.8293  -12.5303   21.5054 N   0  0  0  0  0  0  0  0  0  0  0  0
  -27.9579  -20.5311   19.0967 N   0  0  0  0  0  0  0  0  0  0  0  0
  -37.3762  -23.2576   24.5681 N   0  0  0  0  0  0  0  0  0  0  0  0
  -33.7337  -22.7136   16.8802 N   0  0  0  0  0  0  0  0  0  0  0  0
  -30.0009  -15.8424   21.3390 N   0  0  0  0  0  0  0  0  0  0  0  0
  -35.0370  -25.8327   25.7004 N   0  0  0  0  0  0  0  0  0  0  0  0
  -32.8737  -18.2956   24.5329 N   0  0  0  0  0  0  0  0  0  0  0  0
  -28.7186  -19.6785   27.4738 N   0  3  0  0  0  0  0  0  0  0  0  0
  -35.0975  -26.0590   16.7536 N   0  3  0  0  0  0  0  0  0  0  0  0
  -22.5498  -14.6712   21.1102 O   0  0  0  0  0  0  0  0  0  0  0  0
  -29.8799  -20.4688   20.4099 O   0  0  0  0  0  0  0  0  0  0  0  0
  -31.0621  -21.7052   16.6462 O   0  0  0  0  0  0  0  0  0  0  0  0
  -32.0133  -19.3250   22.6155 O   0  0  0  0  0  0  0  0  0  0  0  0
  -36.0701  -23.4672   26.4785 O   0  0  0  0  0  0  0  0  0  0  0  0
  -32.8316  -26.1180   26.3690 O   0  0  0  0  0  0  0  0  0  0  0  0
  -34.8070  -23.9128   18.5497 O   0  0  0  0  0  0  0  0  0  0  0  0
  -31.7743  -15.0641   20.1116 O   0  0  0  0  0  0  0  0  0  0  0  0
  -34.4753  -15.2061   25.6899 O   0  0  0  0  0  0  0  0  0  0  0  0
  -21.7074   -6.9774   21.9362 O   0  0  0  0  0  0  0  0  0  0  0  0
  -31.7598  -24.5363   24.6059 O   0  0  0  0  0  0  0  0  0  1  0  0
  -18.6568   -6.9915   26.5295 F   0  0  0  0  0  0  0  0  0  0  0  0
  -19.6591   -8.8033   22.2729 F   0  0  0  0  0  0  0  0  0  0  0  0
  1  2  1  0  0  0  0
  1  5  2  0  0  0  0
  2  6  2  0  0  0  0
  3  8  2  0  0  0  0
  3 15  1  0  0  0  0
  4  9  1  0  0  0  0
  4 15  2  0  0  0  0
  5 17  1  0  0  0  0
  6 19  1  0  0  0  0
  7 10  2  0  0  0  0
  7 18  1  0  0  0  0
  8 21  1  0  0  0  0
  9 21  2  0  0  0  0
 10 22  1  0  0  0  0
 11 12  2  0  0  0  0
 11 23  1  0  0  0  0
 12 24  1  0  0  0  0
 13 20  1  0  0  0  0
 13 22  2  0  0  0  0
 14 24  2  0  0  0  0
 14 25  1  0  0  0  0
 15 26  1  0  0  0  0
 16 26  1  0  0  0  0
 16 27  2  0  0  0  0
 16 28  1  0  0  0  0
 17 19  2  0  0  0  0
 17 36  1  0  0  0  0
 18 20  2  0  0  0  0
 18 37  1  0  0  0  0
 19 45  1  0  0  0  0
 20 38  1  0  0  0  0
 21 95  1  0  0  0  0
 22 96  1  0  0  0  0
 23 25  2  0  0  0  0
 23 95  1  0  0  0  0
 24 97  1  0  0  0  0
 25 98  1  0  0  0  0
 26 72  2  0  0  0  0
 27 73  1  0  0  0  0
 27 76  1  0  0  0  0
 28 77  1  0  0  0  0
 28 86  2  0  0  0  0
 29 46  1  0  0  0  0
 29 78  1  0  0  0  0
 29 87  2  0  0  0  0
 30 68  1  0  0  0  0
 30 74  1  0  0  0  0
 30 88  2  0  0  0  0
 31 54  1  0  0  0  0
 31 83  1  0  0  0  0
 31 89  2  0  0  0  0
 32 55  1  0  0  0  0
 32 79  1  0  0  0  0
 32 90  2  0  0  0  0
 33 56  1  0  0  0  0
 33 82  1  0  0  0  0
 33 91  2  0  0  0  0
 34 69  1  0  0  0  0
 34 80  1  0  0  0  0
 34 92  2  0  0  0  0
 35 75  1  0  0  0  0
 35 81  1  0  0  0  0
 35 93  2  0  0  0  0
 36 39  1  0  0  0  0
 37 46  1  0  0  0  0
 38 74  1  0  0  0  0
 39 41  1  0  0  0  0
 40 42  1  0  0  0  0
 40 43  1  0  0  0  0
 41 45  1  0  0  0  0
 42 47  1  0  0  0  0
 43 75  1  0  0  0  0
 44 47  1  0  0  0  0
 44 75  1  0  0  0  0
 45 78  1  0  0  0  0
 46 74  1  0  0  0  0
 47 73  1  0  0  0  0
 48 69  1  0  0  0  0
 49 71  1  0  0  0  0
 50 71  1  0  0  0  0
 51 71  1  0  0  0  0
 52 82  1  0  0  0  0
 53 85  1  0  0  0  0
 54 63  1  0  0  0  0
 55 82  1  0  0  0  0
 56 96  1  0  0  0  0
 57 59  1  0  0  0  0
 57 60  1  0  0  0  0
 58 61  1  0  0  0  0
 58 62  1  0  0  0  0
 59 64  1  0  0  0  0
 60 65  1  0  0  0  0
 61 66  1  0  0  0  0
 62 70  1  0  0  0  0
 63 81  1  0  0  0  0
 64 79  1  0  0  0  0
 65 83  1  0  0  0  0
 66 84  1  0  0  0  0
 67 70  1  0  0  0  0
 67 94  1  0  0  0  0
 68 71  1  0  0  0  0
 68 80  1  0  0  0  0
 69 85  1  0  0  0  0
 70 83  1  0  0  0  0
 72 73  1  0  0  0  0
M  CHG  2  84   1  85   1
M  ISO  4  35 100  56 101  81 100  96 101
M  END
> <Batch ID>
0005

> <Smiles>
CNC(C)C(=O)NC(C(=O)N1Cc2cc([101O:1][101CH2:1]C(=O)N(C)CC(=O)NCCCCCN(C(=O)CC[100NH:0][100C:0](=O)N3CCCC(n4nc(-c5ccc(Oc6ccc(F)cc6F)cc5)c(C(N)=O)c4N)C3)C(CO)CCCCN)ccc2CC1C(=O)NC1CCCc2ccccc21)C(C)(C)C

> <Shape>
0.204

> <Color>
0.182

> <Negative vol penalty>
0.000

$$$$

  -OEChem-04052315263D

114122  0     1  0  0  0  0  0999 V2000
  -29.5863  -32.7460   22.7193 C   0  0  0  0  0  0  0  0  0  0  0  0
  -29.2651  -31.3970   22.6080 C   0  0  0  0  0  0  0  0  0  0  0  0
  -31.3127  -25.6433   18.4969 C   0  0  0  0  0  0  0  0  0  0  0  0
  -27.6041  -12.1375   21.7079 C   0  0  0  0  0  0  0  0  0  0  0  0
  -26.8249  -14.1090   20.5490 C   0  0  0  0  0  0  0  0  0  0  0  0
  -28.6291  -33.6545   23.1691 C   0  0  0  0  0  0  0  0  0  0  0  0
  -27.9867  -30.9556   22.9474 C   0  0  0  0  0  0  0  0  0  0  0  0
  -26.0829  -27.7193   19.5493 C   0  0  0  0  0  0  0  0  0  0  0  0
  -32.3056  -24.6655   18.4370 C   0  0  0  0  0  0  0  0  0  0  0  0
  -30.5890  -25.8313   19.6745 C   0  0  0  0  0  0  0  0  0  0  0  0
  -26.6363  -11.3724   21.0571 C   0  0  0  0  0  0  0  0  0  0  0  0
  -25.8571  -13.3438   19.8981 C   0  0  0  0  0  0  0  0  0  0  0  0
  -26.5418  -26.4036   19.5963 C   0  0  0  0  0  0  0  0  0  0  0  0
  -23.3214  -10.7794   21.3463 C   0  0  0  0  0  0  0  0  0  0  0  0
  -22.5908   -9.8715   22.1128 C   0  0  0  0  0  0  0  0  0  0  0  0
  -24.5443  -25.7556   20.7835 C   0  0  0  0  0  0  0  0  0  0  0  0
  -23.4039   -8.0578   20.7392 C   0  0  0  0  0  0  0  0  0  0  0  0
  -27.6984  -13.5058   21.4539 C   0  0  0  0  0  0  0  0  0  0  0  0
  -30.0099  -14.5590   21.6895 C   0  0  0  0  0  0  0  0  0  0  0  0
  -27.3354  -33.2255   23.5050 C   0  0  0  0  0  0  0  0  0  0  0  0
  -24.8542  -28.0657   20.1296 C   0  0  0  0  0  0  0  0  0  0  0  0
  -27.0117  -31.8590   23.4034 C   0  0  0  0  0  0  0  0  0  0  0  0
  -24.0709  -27.0759   20.7402 C   0  0  0  0  0  0  0  0  0  0  0  0
  -32.5748  -23.8756   19.5547 C   0  0  0  0  0  0  0  0  0  0  0  0
  -30.8583  -25.0414   20.7922 C   0  0  0  0  0  0  0  0  0  0  0  0
  -31.8512  -24.0636   20.7323 C   0  0  0  0  0  0  0  0  0  0  0  0
  -25.7629  -11.9755   20.1522 C   0  0  0  0  0  0  0  0  0  0  0  0
  -25.7739  -25.4221   20.2160 C   0  0  0  0  0  0  0  0  0  0  0  0
  -24.0931  -10.3266   20.2763 C   0  0  0  0  0  0  0  0  0  0  0  0
  -22.6321   -8.5106   21.8092 C   0  0  0  0  0  0  0  0  0  0  0  0
  -24.1344   -8.9658   19.9727 C   0  0  0  0  0  0  0  0  0  0  0  0
  -28.6975  -14.2968   22.1263 C   0  0  0  0  0  0  0  0  0  0  0  0
  -30.5477  -15.3513   22.6741 C   0  0  0  0  0  0  0  0  0  0  0  0
  -30.6827  -14.1251   20.5000 C   0  0  0  0  0  0  0  0  0  0  0  0
  -23.9509  -30.0069   22.4790 C   0  0  0  0  0  0  0  0  0  0  0  0
  -20.9735  -29.1941   21.4805 C   0  0  0  0  0  0  0  0  0  0  0  0
  -30.1830  -20.9813   14.1684 C   0  0  0  0  0  0  0  0  0  0  0  0
  -30.3755  -22.6350   23.6385 C   0  0  0  0  0  0  0  0  0  0  0  0
  -27.5026  -22.4763   17.9253 C   0  0  0  0  0  0  0  0  0  0  0  0
  -18.9672  -26.9415   19.8845 C   0  0  0  0  0  0  0  0  0  0  0  0
  -28.1213  -19.0381   26.7202 C   0  0  0  0  0  0  0  0  0  0  0  0
  -25.5132  -16.9587   14.1398 C   0  0  0  0  0  0  0  0  0  0  0  0
  -26.3488  -34.2374   24.0314 C   0  0  0  0  0  0  0  0  0  0  0  0
  -24.3609  -29.4842   20.0469 C   0  0  0  0  0  0  0  0  0  0  0  0
  -22.7352  -27.3921   21.3603 C   0  0  0  0  0  0  0  0  0  0  0  0
  -24.9038  -33.7455   24.0141 C   0  0  0  0  0  0  0  0  0  0  0  0
  -30.2204  -16.2354   27.3647 C   0  0  0  0  0  0  0  0  0  0  0  0
  -24.8140  -32.3329   24.5829 C   0  0  0  0  0  0  0  0  0  0  0  0
  -30.1865  -15.4444   26.0558 C   0  0  0  0  0  0  0  0  0  0  0  0
  -28.8688  -16.8765   27.6718 C   0  0  0  0  0  0  0  0  0  0  0  0
  -28.2842  -16.9192   25.2780 C   0  0  0  0  0  0  0  0  0  0  0  0
  -25.6282  -31.3453   23.7384 C   0  0  1  0  0  0  0  0  0  0  0  0
  -23.3327  -29.8228   21.1219 C   0  0  1  0  0  0  0  0  0  0  0  0
  -29.6402  -16.3004   24.8974 C   0  0  2  0  0  0  0  0  0  0  0  0
  -33.6435  -22.8357   19.4644 C   0  0  0  0  0  0  0  0  0  0  0  0
  -30.0692  -25.2632   22.0411 C   0  0  0  0  0  0  0  0  0  0  0  0
  -16.5712  -26.5339   19.2596 C   0  0  0  0  0  0  0  0  0  0  0  0
  -20.3596  -28.4005   24.3620 C   0  0  0  0  0  0  0  0  0  0  0  0
  -18.3621  -27.1491   23.5183 C   0  0  0  0  0  0  0  0  0  0  0  0
  -18.5108  -29.6186   23.1990 C   0  0  0  0  0  0  0  0  0  0  0  0
  -19.6004  -26.9398   16.9935 C   0  0  0  0  0  0  0  0  0  0  0  0
  -32.1410  -23.2133   21.9353 C   0  0  0  0  0  0  0  0  0  0  0  0
  -29.2278  -22.0991   13.7848 C   0  0  0  0  0  0  0  0  0  0  0  0
  -29.1599  -21.7635   23.9286 C   0  0  0  0  0  0  0  0  0  0  0  0
  -27.7705  -22.6649   16.4360 C   0  0  0  0  0  0  0  0  0  0  0  0
  -29.4033  -23.3713   14.6135 C   0  0  0  0  0  0  0  0  0  0  0  0
  -28.5762  -22.0152   25.3221 C   0  0  0  0  0  0  0  0  0  0  0  0
  -29.1959  -23.1218   16.1130 C   0  0  0  0  0  0  0  0  0  0  0  0
  -30.3275  -18.5688   18.0814 C   0  0  0  0  0  0  0  0  0  0  0  0
  -30.8326  -19.5835   19.1085 C   0  0  0  0  0  0  0  0  0  0  0  0
  -30.5920  -19.0450   16.6521 C   0  0  0  0  0  0  0  0  0  0  0  0
  -30.5384  -19.1224   20.5375 C   0  0  0  0  0  0  0  0  0  0  0  0
  -30.1172  -18.0160   15.6261 C   0  0  0  0  0  0  0  0  0  0  0  0
  -31.0712  -20.1251   21.5653 C   0  0  0  0  0  0  0  0  0  0  0  0
  -25.1808  -20.3608   16.7869 C   0  0  0  0  0  0  0  0  0  0  0  0
  -24.0818  -20.0882   15.7538 C   0  0  0  0  0  0  0  0  0  0  0  0
  -27.3695  -21.1318   25.6202 C   0  0  0  0  0  0  0  0  0  0  0  0
  -30.3457  -18.5068   14.2016 C   0  0  0  0  0  0  0  0  0  0  0  0
  -30.4414  -21.5063   21.4171 C   0  0  0  0  0  0  0  0  0  0  0  0
  -25.1804  -21.8072   17.2720 C   0  0  0  0  0  0  0  0  0  0  0  0
  -25.8037  -21.8446   19.6563 C   0  0  0  0  0  0  0  0  0  0  0  0
  -24.0599  -18.6300   15.3072 C   0  0  0  0  0  0  0  0  0  0  0  0
  -25.2340  -23.1069   20.2784 C   0  0  0  0  0  0  0  0  0  1  0  0
  -19.9923  -28.0996   21.8242 C   0  0  1  0  0  0  0  0  0  0  0  0
  -17.9029  -27.1199   18.8169 C   0  0  2  0  0  0  0  0  0  0  0  0
  -19.3322  -28.3110   23.2160 C   0  0  0  0  0  0  0  0  0  0  0  0
  -28.4186  -14.8755   23.2973 N   0  0  0  0  0  0  0  0  0  0  0  0
  -29.5632  -15.5092   23.6047 N   0  0  0  0  0  0  0  0  0  0  0  0
  -22.2992  -28.7946   21.2594 N   0  0  0  0  0  0  0  0  0  0  0  0
  -28.4077  -17.6756   26.5339 N   0  0  0  0  0  0  0  0  0  0  0  0
  -31.7619  -15.9214   22.8260 N   0  0  0  0  0  0  0  0  0  0  0  0
  -29.9834  -13.3155   19.5945 N   0  0  0  0  0  0  0  0  0  0  0  0
  -26.7359  -16.6502   13.5530 N   0  0  0  0  0  0  0  0  0  0  0  0
  -24.5159  -15.9897   14.1782 N   0  0  0  0  0  0  0  0  0  0  0  0
  -24.9094  -31.0009   22.5305 N   0  0  0  0  0  0  0  0  0  0  0  0
  -29.6266  -19.7311   13.9401 N   0  0  0  0  0  0  0  0  0  0  0  0
  -19.0447  -28.0383   20.7166 N   0  0  0  0  0  0  0  0  0  0  0  0
  -27.6961  -19.7236   25.5889 N   0  0  0  0  0  0  0  0  0  0  0  0
  -30.9625  -22.4508   22.3660 N   0  0  0  0  0  0  0  0  0  0  0  0
  -26.2123  -22.0590   18.2702 N   0  0  0  0  0  0  0  0  0  0  0  0
  -25.3159  -18.2329   14.6754 N   0  3  0  0  0  0  0  0  0  0  0  0
  -18.3171  -26.4445   17.5546 N   0  3  0  0  0  0  0  0  0  0  0  0
  -31.8740  -14.4323   20.2556 O   0  0  0  0  0  0  0  0  0  0  0  0
  -23.5844  -29.3003   23.4107 O   0  0  0  0  0  0  0  0  0  0  0  0
  -20.5770  -30.3597   21.4037 O   0  0  0  0  0  0  0  0  0  0  0  0
  -31.3138  -21.1792   14.6046 O   0  0  0  0  0  0  0  0  0  0  0  0
  -30.7890  -23.4335   24.4834 O   0  0  0  0  0  0  0  0  0  0  0  0
  -28.3885  -22.6941   18.7558 O   0  0  0  0  0  0  0  0  0  0  0  0
  -19.6580  -25.9289   19.9738 O   0  0  0  0  0  0  0  0  0  0  0  0
  -28.2410  -19.6030   27.8127 O   0  0  0  0  0  0  0  0  0  0  0  0
  -24.8185  -11.2292   19.5168 O   0  0  0  0  0  0  0  0  0  0  0  0
  -26.2229  -24.1283   20.2642 O   0  0  0  0  0  0  0  0  0  1  0  0
  -21.9317   -7.6387   22.5463 F   0  0  0  0  0  0  0  0  0  0  0  0
  -24.8750   -8.5247   18.9467 F   0  0  0  0  0  0  0  0  0  0  0  0
  1  2  1  0  0  0  0
  1  6  2  0  0  0  0
  2  7  2  0  0  0  0
  3  9  1  0  0  0  0
  3 10  2  0  0  0  0
  4 11  2  0  0  0  0
  4 18  1  0  0  0  0
  5 12  1  0  0  0  0
  5 18  2  0  0  0  0
  6 20  1  0  0  0  0
  7 22  1  0  0  0  0
  8 13  2  0  0  0  0
  8 21  1  0  0  0  0
  9 24  2  0  0  0  0
 10 25  1  0  0  0  0
 11 27  1  0  0  0  0
 12 27  2  0  0  0  0
 13 28  1  0  0  0  0
 14 15  2  0  0  0  0
 14 29  1  0  0  0  0
 15 30  1  0  0  0  0
 16 23  1  0  0  0  0
 16 28  2  0  0  0  0
 17 30  2  0  0  0  0
 17 31  1  0  0  0  0
 18 32  1  0  0  0  0
 19 32  1  0  0  0  0
 19 33  2  0  0  0  0
 19 34  1  0  0  0  0
 20 22  2  0  0  0  0
 20 43  1  0  0  0  0
 21 23  2  0  0  0  0
 21 44  1  0  0  0  0
 22 52  1  0  0  0  0
 23 45  1  0  0  0  0
 24 26  1  0  0  0  0
 24 55  1  0  0  0  0
 25 26  2  0  0  0  0
 25 56  1  0  0  0  0
 26 62  1  0  0  0  0
 27111  1  0  0  0  0
 28112  1  0  0  0  0
 29 31  2  0  0  0  0
 29111  1  0  0  0  0
 30113  1  0  0  0  0
 31114  1  0  0  0  0
 32 87  2  0  0  0  0
 33 88  1  0  0  0  0
 33 91  1  0  0  0  0
 34 92  1  0  0  0  0
 34103  2  0  0  0  0
 35 53  1  0  0  0  0
 35 95  1  0  0  0  0
 35104  2  0  0  0  0
 36 84  1  0  0  0  0
 36 89  1  0  0  0  0
 36105  2  0  0  0  0
 37 63  1  0  0  0  0
 37 96  1  0  0  0  0
 37106  2  0  0  0  0
 38 64  1  0  0  0  0
 38 99  1  0  0  0  0
 38107  2  0  0  0  0
 39 65  1  0  0  0  0
 39100  1  0  0  0  0
 39108  2  0  0  0  0
 40 85  1  0  0  0  0
 40 97  1  0  0  0  0
 40109  2  0  0  0  0
 41 90  1  0  0  0  0
 41 98  1  0  0  0  0
 41110  2  0  0  0  0
 42 93  1  0  0  0  0
 42 94  1  0  0  0  0
 42101  2  0  0  0  0
 43 46  1  0  0  0  0
 44 53  1  0  0  0  0
 45 89  1  0  0  0  0
 46 48  1  0  0  0  0
 47 49  1  0  0  0  0
 47 50  1  0  0  0  0
 48 52  1  0  0  0  0
 49 54  1  0  0  0  0
 50 90  1  0  0  0  0
 51 54  1  0  0  0  0
 51 90  1  0  0  0  0
 52 95  1  0  0  0  0
 53 89  1  0  0  0  0
 54 88  1  0  0  0  0
 57 85  1  0  0  0  0
 58 86  1  0  0  0  0
 59 86  1  0  0  0  0
 60 86  1  0  0  0  0
 61102  1  0  0  0  0
 62 99  1  0  0  0  0
 63 66  1  0  0  0  0
 64 67  1  0  0  0  0
 65 68  1  0  0  0  0
 66 68  1  0  0  0  0
 67 77  1  0  0  0  0
 69 70  1  0  0  0  0
 69 71  1  0  0  0  0
 70 72  1  0  0  0  0
 71 73  1  0  0  0  0
 72 74  1  0  0  0  0
 73 78  1  0  0  0  0
 74 79  1  0  0  0  0
 75 76  1  0  0  0  0
 75 80  1  0  0  0  0
 76 82  1  0  0  0  0
 77 98  1  0  0  0  0
 78 96  1  0  0  0  0
 79 99  1  0  0  0  0
 80100  1  0  0  0  0
 81 83  1  0  0  0  0
 81100  1  0  0  0  0
 82101  1  0  0  0  0
 83112  1  0  0  0  0
 84 86  1  0  0  0  0
 84 97  1  0  0  0  0
 85102  1  0  0  0  0
 87 88  1  0  0  0  0
M  CHG  2 101   1 102   1
M  ISO  4  41 100  83 101  98 100 112 101
M  END
> <Batch ID>
0005

> <Smiles>
CNC(C)C(=O)NC(C(=O)N1Cc2cc([101O:1][101CH2:1]CN(CCCCNC(=N)N)C(=O)CCCCC(=O)NCCCCCCCCN(Cc3c(C)cccc3C)C(=O)CCC[100NH:0][100C:0](=O)N3CCCC(n4nc(-c5ccc(Oc6ccc(F)cc6F)cc5)c(C(N)=O)c4N)C3)ccc2CC1C(=O)NC1CCCc2ccccc21)C(C)(C)C

> <Shape>
0.255

> <Color>
0.056

> <Negative vol penalty>
0.000

$$$$

  -OEChem-04052315263D

 97106  0     1  0  0  0  0  0999 V2000
  -27.7210  -24.7593   15.9658 C   0  0  0  0  0  0  0  0  0  0  0  0
  -26.5489  -24.9556   16.6889 C   0  0  0  0  0  0  0  0  0  0  0  0
  -23.6776   -9.7011   20.1181 C   0  0  0  0  0  0  0  0  0  0  0  0
  -23.5776  -10.2718   22.4636 C   0  0  0  0  0  0  0  0  0  0  0  0
  -28.9488  -25.1204   16.5191 C   0  0  0  0  0  0  0  0  0  0  0  0
  -26.6039  -25.5121   17.9663 C   0  0  0  0  0  0  0  0  0  0  0  0
  -23.0764  -29.0731   18.6878 C   0  0  0  0  0  0  0  0  0  0  0  0
  -30.2349  -20.1432   21.1849 C   0  0  0  0  0  0  0  0  0  0  0  0
  -30.1980  -18.7768   21.4627 C   0  0  0  0  0  0  0  0  0  0  0  0
  -24.5171  -22.9603   22.8964 C   0  0  0  0  0  0  0  0  0  0  0  0
  -23.8672  -22.2036   20.6960 C   0  0  0  0  0  0  0  0  0  0  0  0
  -23.3587  -23.7335   22.9727 C   0  0  0  0  0  0  0  0  0  0  0  0
  -22.7087  -22.9767   20.7723 C   0  0  0  0  0  0  0  0  0  0  0  0
  -23.0114   -8.5041   20.3809 C   0  0  0  0  0  0  0  0  0  0  0  0
  -22.9113   -9.0748   22.7264 C   0  0  0  0  0  0  0  0  0  0  0  0
  -21.7759  -28.6390   18.9408 C   0  0  0  0  0  0  0  0  0  0  0  0
  -19.7735   -7.8556   22.4302 C   0  0  0  0  0  0  0  0  0  0  0  0
  -18.6610   -7.9058   23.2700 C   0  0  0  0  0  0  0  0  0  0  0  0
  -22.1139  -29.0201   21.2987 C   0  0  0  0  0  0  0  0  0  0  0  0
  -19.7493   -6.3877   24.8024 C   0  0  0  0  0  0  0  0  0  0  0  0
  -23.9608  -10.5849   21.1595 C   0  0  0  0  0  0  0  0  0  0  0  0
  -28.0749  -20.4145   22.2326 C   0  0  0  0  0  0  0  0  0  0  0  0
  -24.0712  -13.0625   20.5622 C   0  0  0  0  0  0  0  0  0  0  0  0
  -29.0181  -25.6905   17.8000 C   0  0  0  0  0  0  0  0  0  0  0  0
  -23.9105  -29.4743   19.7412 C   0  0  0  0  0  0  0  0  0  0  0  0
  -27.8339  -25.8799   18.5378 C   0  0  0  0  0  0  0  0  0  0  0  0
  -23.4237  -29.4613   21.0561 C   0  0  0  0  0  0  0  0  0  0  0  0
  -29.1734  -20.9621   21.5700 C   0  0  0  0  0  0  0  0  0  0  0  0
  -28.0379  -19.0480   22.5103 C   0  0  0  0  0  0  0  0  0  0  0  0
  -24.7714  -22.1954   21.7580 C   0  0  0  0  0  0  0  0  0  0  0  0
  -22.4545  -23.7417   21.9107 C   0  0  0  0  0  0  0  0  0  0  0  0
  -29.0995  -18.2292   22.1253 C   0  0  0  0  0  0  0  0  0  0  0  0
  -22.6282   -8.1910   21.6851 C   0  0  0  0  0  0  0  0  0  0  0  0
  -21.2954  -28.6097   20.2467 C   0  0  0  0  0  0  0  0  0  0  0  0
  -20.8739   -7.0714   22.7763 C   0  0  0  0  0  0  0  0  0  0  0  0
  -18.6488   -7.1719   24.4561 C   0  0  0  0  0  0  0  0  0  0  0  0
  -20.8618   -6.3375   23.9624 C   0  0  0  0  0  0  0  0  0  0  0  0
  -24.6494  -11.8212   20.8887 C   0  0  0  0  0  0  0  0  0  0  0  0
  -25.1414  -13.9085   20.4029 C   0  0  0  0  0  0  0  0  0  0  0  0
  -26.9557  -21.2819   22.6383 C   0  0  0  0  0  0  0  0  0  0  0  0
  -22.6902  -13.4190   20.4161 C   0  0  0  0  0  0  0  0  0  0  0  0
  -26.6788  -28.4538   20.9239 C   0  0  0  0  0  0  0  0  0  0  0  0
  -26.4190  -31.1044   22.7757 C   0  0  0  0  0  0  0  0  0  0  0  0
  -20.2775  -24.6506   21.0290 C   0  0  0  0  0  0  0  0  0  0  0  0
  -24.3979  -33.4565   24.2005 C   0  0  0  0  0  0  0  0  0  0  0  0
  -30.0647  -15.9028   22.0724 C   0  0  0  0  0  0  0  0  0  0  0  0
  -30.3725  -26.0211   18.3752 C   0  0  0  0  0  0  0  0  0  0  0  0
  -25.3018  -29.9652   19.4489 C   0  0  0  0  0  0  0  0  0  0  0  0
  -24.2722  -29.9009   22.2203 C   0  0  0  0  0  0  0  0  0  0  0  0
  -30.3104  -26.9506   19.5845 C   0  0  0  0  0  0  0  0  0  0  0  0
  -30.0993  -12.9299   20.1134 C   0  0  0  0  0  0  0  0  0  0  0  0
  -29.2400  -26.4808   20.5645 C   0  0  0  0  0  0  0  0  0  0  0  0
  -28.6370  -12.4786   20.1136 C   0  0  0  0  0  0  0  0  0  0  0  0
  -30.5058  -13.5365   21.4552 C   0  0  0  0  0  0  0  0  0  0  0  0
  -28.1732  -14.1651   21.9377 C   0  0  0  0  0  0  0  0  0  0  0  0
  -27.8504  -26.5036   19.9165 C   0  0  1  0  0  0  0  0  0  0  0  0
  -26.2362  -29.8635   20.6506 C   0  0  1  0  0  0  0  0  0  0  0  0
  -27.6991  -13.6067   20.5860 C   0  0  2  0  0  0  0  0  0  0  0  0
  -26.8585  -18.4585   23.2206 C   0  0  0  0  0  0  0  0  0  0  0  0
  -24.4703  -35.4738   25.6913 C   0  0  0  0  0  0  0  0  0  0  0  0
  -26.8047  -29.2947   25.2018 C   0  0  0  0  0  0  0  0  0  0  0  0
  -25.9337  -31.1514   26.6380 C   0  0  0  0  0  0  0  0  0  0  0  0
  -28.0274  -31.4731   25.3204 C   0  0  0  0  0  0  0  0  0  0  0  0
  -23.2832  -35.2024   22.0867 C   0  0  0  0  0  0  0  0  0  0  0  0
  -19.1885  -25.5971   21.5146 C   0  0  0  0  0  0  0  0  0  0  0  0
  -18.5017  -26.3377   20.3724 C   0  0  0  0  0  0  0  0  0  0  0  0
  -19.4782  -27.2165   19.6044 C   0  0  0  0  0  0  0  0  0  1  0  0
  -25.8036  -31.4140   24.1190 C   0  0  1  0  0  0  0  0  0  0  0  0
  -24.4982  -34.9702   24.2566 C   0  0  2  0  0  0  0  0  0  0  0  0
  -29.2427  -22.4220   21.2581 C   0  0  0  0  0  0  0  0  0  0  0  0
  -26.6267  -30.8231   25.2983 C   0  0  0  0  0  0  0  0  0  0  0  0
  -25.9834  -11.8698   20.9343 N   0  0  0  0  0  0  0  0  0  0  0  0
  -26.2524  -13.1519   20.6342 N   0  0  0  0  0  0  0  0  0  0  0  0
  -25.6277  -30.3666   21.8838 N   0  0  0  0  0  0  0  0  0  0  0  0
  -29.5748  -14.6008   21.8364 N   0  0  0  0  0  0  0  0  0  0  0  0
  -25.2312  -15.2184   20.0887 N   0  0  0  0  0  0  0  0  0  0  0  0
  -21.7196  -12.4277   20.6152 N   0  0  0  0  0  0  0  0  0  0  0  0
  -25.9302  -21.4223   21.6814 N   0  0  0  0  0  0  0  0  0  0  0  0
  -21.2791  -24.5260   21.9878 N   0  0  0  0  0  0  0  0  0  0  0  0
  -29.0827  -16.8384   22.3961 N   0  0  0  0  0  0  0  0  0  0  0  0
  -27.3382  -27.8562   19.8667 N   0  0  0  0  0  0  0  0  0  0  0  0
  -25.6422  -32.8630   24.1699 N   0  0  0  0  0  0  0  0  0  0  0  0
  -23.3631  -35.5923   23.5180 N   0  3  0  0  0  0  0  0  0  0  0  0
  -26.9616  -21.8553   23.7256 O   0  0  0  0  0  0  0  0  0  0  0  0
  -22.3283  -14.5782   20.1018 O   0  0  0  0  0  0  0  0  0  0  0  0
  -26.4411  -27.9465   22.0137 O   0  0  0  0  0  0  0  0  0  0  0  0
  -27.5569  -31.5087   22.5243 O   0  0  0  0  0  0  0  0  0  0  0  0
  -20.2234  -24.1034   19.9326 O   0  0  0  0  0  0  0  0  0  0  0  0
  -23.3234  -32.8601   24.1890 O   0  0  0  0  0  0  0  0  0  0  0  0
  -31.2635  -16.1742   21.9666 O   0  0  0  0  0  0  0  0  0  0  0  0
  -21.9779   -7.0232   21.9418 O   0  0  0  0  0  0  0  0  0  0  0  0
  -20.0266  -28.1858   20.4965 O   0  0  0  0  0  0  0  0  0  1  0  0
  -17.5811   -7.2214   25.2633 F   0  0  0  0  0  0  0  0  0  0  0  0
  -21.9164   -5.5832   24.3009 F   0  0  0  0  0  0  0  0  0  0  0  0
  -30.3858  -22.7861   20.6075 F   0  0  0  0  0  0  0  0  0  0  0  0
  -28.2230  -22.8570   20.4623 F   0  0  0  0  0  0  0  0  0  0  0  0
  -29.1930  -23.1980   22.3784 F   0  0  0  0  0  0  0  0  0  0  0  0
  1  2  1  0  0  0  0
  1  5  2  0  0  0  0
  2  6  2  0  0  0  0
  3 14  2  0  0  0  0
  3 21  1  0  0  0  0
  4 15  1  0  0  0  0
  4 21  2  0  0  0  0
  5 24  1  0  0  0  0
  6 26  1  0  0  0  0
  7 16  2  0  0  0  0
  7 25  1  0  0  0  0
  8  9  1  0  0  0  0
  8 28  2  0  0  0  0
  9 32  2  0  0  0  0
 10 12  2  0  0  0  0
 10 30  1  0  0  0  0
 11 13  1  0  0  0  0
 11 30  2  0  0  0  0
 12 31  1  0  0  0  0
 13 31  2  0  0  0  0
 14 33  1  0  0  0  0
 15 33  2  0  0  0  0
 16 34  1  0  0  0  0
 17 18  2  0  0  0  0
 17 35  1  0  0  0  0
 18 36  1  0  0  0  0
 19 27  1  0  0  0  0
 19 34  2  0  0  0  0
 20 36  2  0  0  0  0
 20 37  1  0  0  0  0
 21 38  1  0  0  0  0
 22 28  1  0  0  0  0
 22 29  2  0  0  0  0
 22 40  1  0  0  0  0
 23 38  1  0  0  0  0
 23 39  2  0  0  0  0
 23 41  1  0  0  0  0
 24 26  2  0  0  0  0
 24 47  1  0  0  0  0
 25 27  2  0  0  0  0
 25 48  1  0  0  0  0
 26 56  1  0  0  0  0
 27 49  1  0  0  0  0
 28 70  1  0  0  0  0
 29 32  1  0  0  0  0
 29 59  1  0  0  0  0
 30 78  1  0  0  0  0
 31 79  1  0  0  0  0
 32 80  1  0  0  0  0
 33 91  1  0  0  0  0
 34 92  1  0  0  0  0
 35 37  2  0  0  0  0
 35 91  1  0  0  0  0
 36 93  1  0  0  0  0
 37 94  1  0  0  0  0
 38 72  2  0  0  0  0
 39 73  1  0  0  0  0
 39 76  1  0  0  0  0
 40 78  1  0  0  0  0
 40 84  2  0  0  0  0
 41 77  1  0  0  0  0
 41 85  2  0  0  0  0
 42 57  1  0  0  0  0
 42 81  1  0  0  0  0
 42 86  2  0  0  0  0
 43 68  1  0  0  0  0
 43 74  1  0  0  0  0
 43 87  2  0  0  0  0
 44 65  1  0  0  0  0
 44 79  1  0  0  0  0
 44 88  2  0  0  0  0
 45 69  1  0  0  0  0
 45 82  1  0  0  0  0
 45 89  2  0  0  0  0
 46 75  1  0  0  0  0
 46 80  1  0  0  0  0
 46 90  2  0  0  0  0
 47 50  1  0  0  0  0
 48 57  1  0  0  0  0
 49 74  1  0  0  0  0
 50 52  1  0  0  0  0
 51 53  1  0  0  0  0
 51 54  1  0  0  0  0
 52 56  1  0  0  0  0
 53 58  1  0  0  0  0
 54 75  1  0  0  0  0
 55 58  1  0  0  0  0
 55 75  1  0  0  0  0
 56 81  1  0  0  0  0
 57 74  1  0  0  0  0
 58 73  1  0  0  0  0
 60 69  1  0  0  0  0
 61 71  1  0  0  0  0
 62 71  1  0  0  0  0
 63 71  1  0  0  0  0
 64 83  1  0  0  0  0
 65 66  1  0  0  0  0
 66 67  1  0  0  0  0
 67 92  1  0  0  0  0
 68 71  1  0  0  0  0
 68 82  1  0  0  0  0
 69 83  1  0  0  0  0
 70 95  1  0  0  0  0
 70 96  1  0  0  0  0
 70 97  1  0  0  0  0
 72 73  1  0  0  0  0
M  CHG  1  83   1
M  ISO  4  46 100  67 101  80 100  92 101
M  END
> <Batch ID>
0005

> <Smiles>
CNC(C)C(=O)NC(C(=O)N1Cc2cc([101O:1][101CH2:1]CCC(=O)Nc3ccc(NC(=O)c4c(C(F)(F)F)ccc([100NH:0][100C:0](=O)N5CCCC(n6nc(-c7ccc(Oc8ccc(F)cc8F)cc7)c(C(N)=O)c6N)C5)c4C)cc3)ccc2CC1C(=O)NC1CCCc2ccccc21)C(C)(C)C

> <Shape>
0.375

> <Color>
0.165

> <Negative vol penalty>
0.000

$$$$

  -OEChem-04052315263D

 91 99  0     1  0  0  0  0  0999 V2000
  -26.8882  -33.4558   21.8982 C   0  0  0  0  0  0  0  0  0  0  0  0
  -26.9910  -32.2583   21.1976 C   0  0  0  0  0  0  0  0  0  0  0  0
  -29.6211  -20.8338   21.7828 C   0  0  0  0  0  0  0  0  0  0  0  0
  -27.9471  -19.7745   20.3999 C   0  0  0  0  0  0  0  0  0  0  0  0
  -26.1830  -33.5006   23.1001 C   0  0  0  0  0  0  0  0  0  0  0  0
  -26.3895  -31.1046   21.6991 C   0  0  0  0  0  0  0  0  0  0  0  0
  -23.1905  -25.0772   19.5187 C   0  0  0  0  0  0  0  0  0  0  0  0
  -24.5043  -14.8503   19.4680 C   0  0  0  0  0  0  0  0  0  0  0  0
  -29.6888  -21.8991   20.8850 C   0  0  0  0  0  0  0  0  0  0  0  0
  -28.0147  -20.8398   19.5020 C   0  0  0  0  0  0  0  0  0  0  0  0
  -23.2567  -23.6964   19.6999 C   0  0  0  0  0  0  0  0  0  0  0  0
  -25.1822  -13.6316   19.4383 C   0  0  0  0  0  0  0  0  0  0  0  0
  -27.8862  -24.6674   20.1639 C   0  0  0  0  0  0  0  0  0  0  0  0
  -27.8924  -25.9592   20.6900 C   0  0  0  0  0  0  0  0  0  0  0  0
  -21.9968  -23.9105   21.7459 C   0  0  0  0  0  0  0  0  0  0  0  0
  -24.7872  -13.3542   21.8056 C   0  0  0  0  0  0  0  0  0  0  0  0
  -30.0445  -26.3645   19.6694 C   0  0  0  0  0  0  0  0  0  0  0  0
  -28.7503  -19.7715   21.5403 C   0  0  0  0  0  0  0  0  0  0  0  0
  -27.8319  -18.5523   23.5843 C   0  0  0  0  0  0  0  0  0  0  0  0
  -25.5643  -32.3490   23.6117 C   0  0  0  0  0  0  0  0  0  0  0  0
  -22.5352  -25.8876   20.4570 C   0  0  0  0  0  0  0  0  0  0  0  0
  -25.6764  -31.1337   22.9096 C   0  0  0  0  0  0  0  0  0  0  0  0
  -21.9215  -25.3010   21.5730 C   0  0  0  0  0  0  0  0  0  0  0  0
  -24.1094  -14.5730   21.8353 C   0  0  0  0  0  0  0  0  0  0  0  0
  -23.9680  -15.3210   20.6665 C   0  0  0  0  0  0  0  0  0  0  0  0
  -28.8856  -21.9021   19.7446 C   0  0  0  0  0  0  0  0  0  0  0  0
  -22.6624  -23.1132   20.8151 C   0  0  0  0  0  0  0  0  0  0  0  0
  -25.3236  -12.8835   20.6071 C   0  0  0  0  0  0  0  0  0  0  0  0
  -28.9592  -24.2241   19.3906 C   0  0  0  0  0  0  0  0  0  0  0  0
  -28.9715  -26.8078   20.4427 C   0  0  0  0  0  0  0  0  0  0  0  0
  -30.0383  -25.0727   19.1434 C   0  0  0  0  0  0  0  0  0  0  0  0
  -28.6803  -18.6705   22.4671 C   0  0  0  0  0  0  0  0  0  0  0  0
  -28.1510  -17.3331   24.1303 C   0  0  0  0  0  0  0  0  0  0  0  0
  -26.8436  -19.4631   24.0837 C   0  0  0  0  0  0  0  0  0  0  0  0
  -23.4224  -28.2531   22.3860 C   0  0  0  0  0  0  0  0  0  0  0  0
  -20.2408  -28.4294   22.9932 C   0  0  0  0  0  0  0  0  0  0  0  0
  -23.7542  -17.6303   21.5008 C   0  0  0  0  0  0  0  0  0  0  0  0
  -17.2083  -26.8643   23.0359 C   0  0  0  0  0  0  0  0  0  0  0  0
  -30.5315  -12.3381   21.8425 C   0  0  0  0  0  0  0  0  0  0  0  0
  -24.8528  -32.4358   24.9387 C   0  0  0  0  0  0  0  0  0  0  0  0
  -22.4496  -27.3725   20.2333 C   0  0  0  0  0  0  0  0  0  0  0  0
  -21.1884  -26.1246   22.5991 C   0  0  0  0  0  0  0  0  0  0  0  0
  -23.9276  -31.2528   25.2123 C   0  0  0  0  0  0  0  0  0  0  0  0
  -31.7934  -14.2609   24.5605 C   0  0  0  0  0  0  0  0  0  0  0  0
  -24.6323  -29.9386   24.8914 C   0  0  0  0  0  0  0  0  0  0  0  0
  -31.0621  -15.5984   24.4330 C   0  0  0  0  0  0  0  0  0  0  0  0
  -32.1267  -13.6673   23.1935 C   0  0  0  0  0  0  0  0  0  0  0  0
  -30.2458  -14.8717   22.1517 C   0  0  0  0  0  0  0  0  0  0  0  0
  -25.0168  -29.8664   23.4087 C   0  0  1  0  0  0  0  0  0  0  0  0
  -22.1999  -28.1569   21.5177 C   0  0  1  0  0  0  0  0  0  0  0  0
  -29.8389  -15.4823   23.5037 C   0  0  2  0  0  0  0  0  0  0  0  0
  -23.5454  -15.0524   23.1334 C   0  0  0  0  0  0  0  0  0  0  0  0
  -19.5593  -16.5060   19.6709 C   0  0  0  0  0  0  0  0  0  0  0  0
  -14.7984  -27.2542   23.6168 C   0  0  0  0  0  0  0  0  0  0  0  0
  -20.9212  -28.2009   25.9588 C   0  0  0  0  0  0  0  0  0  0  0  0
  -18.5199  -27.6432   26.3955 C   0  0  0  0  0  0  0  0  0  0  0  0
  -19.1272  -29.8595   25.4249 C   0  0  0  0  0  0  0  0  0  0  0  0
  -16.3338  -26.3440   20.2568 C   0  0  0  0  0  0  0  0  0  0  0  0
  -22.9409  -18.9226   21.4899 C   0  0  0  0  0  0  0  0  0  0  0  0
  -20.7942  -16.3610   20.5488 C   0  0  0  0  0  0  0  0  0  0  0  0
  -23.5275  -19.9972   22.4041 C   0  0  0  0  0  0  0  0  0  0  0  0
  -27.8562  -10.4289   21.3867 C   0  0  0  0  0  0  0  0  0  0  0  0
  -22.0784  -16.7533   19.8282 C   0  0  0  0  0  0  0  0  0  0  0  0
  -28.8433  -11.1417   20.4723 C   0  0  0  0  0  0  0  0  0  0  0  0
  -22.7255  -21.2890   22.3397 C   0  0  0  0  0  0  0  0  0  1  0  0
  -26.6657  -11.3004   21.7682 C   0  0  0  0  0  0  0  0  0  0  0  0
  -19.3051  -27.7866   23.9884 C   0  0  1  0  0  0  0  0  0  0  0  0
  -15.8473  -27.2909   22.5163 C   0  0  2  0  0  0  0  0  0  0  0  0
  -19.4838  -28.3570   25.4238 C   0  0  0  0  0  0  0  0  0  0  0  0
  -29.4785  -17.6109   22.3115 N   0  0  0  0  0  0  0  0  0  0  0  0
  -29.1332  -16.8154   23.3381 N   0  0  0  0  0  0  0  0  0  0  0  0
  -21.1376  -27.5728   22.3392 N   0  0  0  0  0  0  0  0  0  0  0  0
  -30.9237  -13.5829   22.3618 N   0  0  0  0  0  0  0  0  0  0  0  0
  -27.6846  -16.6641   25.2061 N   0  0  0  0  0  0  0  0  0  0  0  0
  -26.6433  -20.6713   23.4020 N   0  0  0  0  0  0  0  0  0  0  0  0
  -23.8590  -29.5463   22.6014 N   0  0  0  0  0  0  0  0  0  0  0  0
  -17.9603  -27.9451   23.4456 N   0  0  0  0  0  0  0  0  0  0  0  0
  -29.3766  -12.3455   21.0700 N   0  0  0  0  0  0  0  0  0  0  0  0
  -23.2693  -16.5902   20.6766 N   0  0  0  0  0  0  0  0  0  0  0  0
  -15.4062  -26.3872   21.4164 N   0  3  0  0  0  0  0  0  0  0  0  0
  -26.1700  -19.2203   25.1136 O   0  0  0  0  0  0  0  0  0  0  0  0
  -23.9309  -27.2299   22.8290 O   0  0  0  0  0  0  0  0  0  0  0  0
  -20.1734  -29.6455   22.7980 O   0  0  0  0  0  0  0  0  0  0  0  0
  -24.7456  -17.5478   22.2302 O   0  0  0  0  0  0  0  0  0  0  0  0
  -17.5670  -25.6896   23.0778 O   0  0  0  0  0  0  0  0  0  0  0  0
  -31.1608  -11.2963   22.0563 O   0  0  0  0  0  0  0  0  0  0  0  0
  -28.9512  -22.9416   18.8683 O   0  0  0  0  0  0  0  0  0  0  0  0
  -22.7261  -21.7658   20.9947 O   0  0  0  0  0  0  0  0  0  1  0  0
  -25.9846  -11.6940   20.5780 O   0  0  0  0  0  0  0  0  0  0  0  0
  -28.9766  -28.0488   20.9467 F   0  0  0  0  0  0  0  0  0  0  0  0
  -31.0714  -24.6528   18.4002 F   0  0  0  0  0  0  0  0  0  0  0  0
  1  2  1  0  0  0  0
  1  5  2  0  0  0  0
  2  6  2  0  0  0  0
  3  9  2  0  0  0  0
  3 18  1  0  0  0  0
  4 10  1  0  0  0  0
  4 18  2  0  0  0  0
  5 20  1  0  0  0  0
  6 22  1  0  0  0  0
  7 11  2  0  0  0  0
  7 21  1  0  0  0  0
  8 12  2  0  0  0  0
  8 25  1  0  0  0  0
  9 26  1  0  0  0  0
 10 26  2  0  0  0  0
 11 27  1  0  0  0  0
 12 28  1  0  0  0  0
 13 14  2  0  0  0  0
 13 29  1  0  0  0  0
 14 30  1  0  0  0  0
 15 23  1  0  0  0  0
 15 27  2  0  0  0  0
 16 24  1  0  0  0  0
 16 28  2  0  0  0  0
 17 30  2  0  0  0  0
 17 31  1  0  0  0  0
 18 32  1  0  0  0  0
 19 32  1  0  0  0  0
 19 33  2  0  0  0  0
 19 34  1  0  0  0  0
 20 22  2  0  0  0  0
 20 40  1  0  0  0  0
 21 23  2  0  0  0  0
 21 41  1  0  0  0  0
 22 49  1  0  0  0  0
 23 42  1  0  0  0  0
 24 25  2  0  0  0  0
 24 52  1  0  0  0  0
 25 79  1  0  0  0  0
 26 87  1  0  0  0  0
 27 88  1  0  0  0  0
 28 89  1  0  0  0  0
 29 31  2  0  0  0  0
 29 87  1  0  0  0  0
 30 90  1  0  0  0  0
 31 91  1  0  0  0  0
 32 70  2  0  0  0  0
 33 71  1  0  0  0  0
 33 74  1  0  0  0  0
 34 75  1  0  0  0  0
 34 81  2  0  0  0  0
 35 50  1  0  0  0  0
 35 76  1  0  0  0  0
 35 82  2  0  0  0  0
 36 67  1  0  0  0  0
 36 72  1  0  0  0  0
 36 83  2  0  0  0  0
 37 59  1  0  0  0  0
 37 79  1  0  0  0  0
 37 84  2  0  0  0  0
 38 68  1  0  0  0  0
 38 77  1  0  0  0  0
 38 85  2  0  0  0  0
 39 73  1  0  0  0  0
 39 78  1  0  0  0  0
 39 86  2  0  0  0  0
 40 43  1  0  0  0  0
 41 50  1  0  0  0  0
 42 72  1  0  0  0  0
 43 45  1  0  0  0  0
 44 46  1  0  0  0  0
 44 47  1  0  0  0  0
 45 49  1  0  0  0  0
 46 51  1  0  0  0  0
 47 73  1  0  0  0  0
 48 51  1  0  0  0  0
 48 73  1  0  0  0  0
 49 76  1  0  0  0  0
 50 72  1  0  0  0  0
 51 71  1  0  0  0  0
 53 60  1  0  0  0  0
 54 68  1  0  0  0  0
 55 69  1  0  0  0  0
 56 69  1  0  0  0  0
 57 69  1  0  0  0  0
 58 80  1  0  0  0  0
 59 61  1  0  0  0  0
 60 63  1  0  0  0  0
 61 65  1  0  0  0  0
 62 64  1  0  0  0  0
 62 66  1  0  0  0  0
 63 79  1  0  0  0  0
 64 78  1  0  0  0  0
 65 88  1  0  0  0  0
 66 89  1  0  0  0  0
 67 69  1  0  0  0  0
 67 77  1  0  0  0  0
 68 80  1  0  0  0  0
 70 71  1  0  0  0  0
M  CHG  1  80   1
M  ISO  4  39 100  65 101  78 100  88 101
M  END
> <Batch ID>
0005

> <Smiles>
CCCN(C(=O)CC[101CH2:1][101O:1]c1ccc2c(c1)CN(C(=O)C(NC(=O)C(C)NC)C(C)(C)C)C(C(=O)NC1CCCc3ccccc31)C2)c1ccc(OCCC[100NH:0][100C:0](=O)N2CCCC(n3nc(-c4ccc(Oc5ccc(F)cc5F)cc4)c(C(N)=O)c3N)C2)cc1C

> <Shape>
0.249

> <Color>
0.039

> <Negative vol penalty>
0.000

$$$$

  -OEChem-04052315263D

 98106  0     1  0  0  0  0  0999 V2000
  -21.5128  -16.3420   22.2974 C   0  0  0  0  0  0  0  0  0  0  0  0
  -20.8227  -17.5234   22.5494 C   0  0  0  0  0  0  0  0  0  0  0  0
  -26.5227  -12.8194   21.7120 C   0  0  0  0  0  0  0  0  0  0  0  0
  -25.9974  -14.0042   19.6730 C   0  0  0  0  0  0  0  0  0  0  0  0
  -22.5869  -15.9770   23.1079 C   0  0  0  0  0  0  0  0  0  0  0  0
  -21.2057  -18.3400   23.6129 C   0  0  0  0  0  0  0  0  0  0  0  0
  -23.1708  -25.1826   22.5133 C   0  0  0  0  0  0  0  0  0  0  0  0
  -29.0265  -22.6868   17.3301 C   0  0  0  0  0  0  0  0  0  0  0  0
  -29.0250  -21.6020   18.2068 C   0  0  0  0  0  0  0  0  0  0  0  0
  -25.2595  -12.2283   21.6940 C   0  0  0  0  0  0  0  0  0  0  0  0
  -24.7342  -13.4131   19.6550 C   0  0  0  0  0  0  0  0  0  0  0  0
  -23.3573  -26.5613   22.4104 C   0  0  0  0  0  0  0  0  0  0  0  0
  -23.7222   -9.6849   20.0813 C   0  0  0  0  0  0  0  0  0  0  0  0
  -23.6431   -8.3165   20.3395 C   0  0  0  0  0  0  0  0  0  0  0  0
  -23.8260  -26.6854   24.7796 C   0  0  0  0  0  0  0  0  0  0  0  0
  -30.1034  -22.9602   19.8890 C   0  0  0  0  0  0  0  0  0  0  0  0
  -22.2267   -8.7582   22.2463 C   0  0  0  0  0  0  0  0  0  0  0  0
  -26.8917  -13.7075   20.7016 C   0  0  0  0  0  0  0  0  0  0  0  0
  -29.3749  -13.8251   20.1292 C   0  0  0  0  0  0  0  0  0  0  0  0
  -22.9894  -16.7944   24.1759 C   0  0  0  0  0  0  0  0  0  0  0  0
  -23.3264  -24.5471   23.7483 C   0  0  0  0  0  0  0  0  0  0  0  0
  -22.2854  -17.9850   24.4392 C   0  0  0  0  0  0  0  0  0  0  0  0
  -23.6526  -25.3029   24.8863 C   0  0  0  0  0  0  0  0  0  0  0  0
  -29.5664  -23.9083   17.7327 C   0  0  0  0  0  0  0  0  0  0  0  0
  -29.5634  -21.7387   19.4863 C   0  0  0  0  0  0  0  0  0  0  0  0
  -24.3652  -12.5251   20.6655 C   0  0  0  0  0  0  0  0  0  0  0  0
  -23.6838  -27.3108   23.5408 C   0  0  0  0  0  0  0  0  0  0  0  0
  -23.0536  -10.5900   20.9056 C   0  0  0  0  0  0  0  0  0  0  0  0
  -30.1049  -24.0450   19.0122 C   0  0  0  0  0  0  0  0  0  0  0  0
  -22.8954   -7.8531   21.4220 C   0  0  0  0  0  0  0  0  0  0  0  0
  -22.3059  -10.1267   21.9881 C   0  0  0  0  0  0  0  0  0  0  0  0
  -28.1963  -14.3188   20.7199 C   0  0  0  0  0  0  0  0  0  0  0  0
  -30.3295  -14.7661   20.4290 C   0  0  0  0  0  0  0  0  0  0  0  0
  -29.5878  -12.6235   19.3766 C   0  0  0  0  0  0  0  0  0  0  0  0
  -23.2639  -21.3275   25.6734 C   0  0  0  0  0  0  0  0  0  0  0  0
  -25.6502  -22.9457   26.7208 C   0  0  0  0  0  0  0  0  0  0  0  0
  -24.3735  -31.5224   23.0964 C   0  0  0  0  0  0  0  0  0  0  0  0
  -28.4170  -24.8561   27.2976 C   0  0  0  0  0  0  0  0  0  0  0  0
  -30.0569  -20.6027   21.6800 C   0  0  0  0  0  0  0  0  0  0  0  0
  -24.1266  -16.3346   25.0534 C   0  0  0  0  0  0  0  0  0  0  0  0
  -23.0748  -23.0734   23.9176 C   0  0  0  0  0  0  0  0  0  0  0  0
  -23.7758  -24.5818   26.2008 C   0  0  0  0  0  0  0  0  0  0  0  0
  -24.7054  -17.4419   25.9304 C   0  0  0  0  0  0  0  0  0  0  0  0
  -31.4452  -18.0472   23.7341 C   0  0  0  0  0  0  0  0  0  0  0  0
  -23.5861  -18.2277   26.6061 C   0  0  0  0  0  0  0  0  0  0  0  0
  -30.8817  -16.7558   23.1368 C   0  0  0  0  0  0  0  0  0  0  0  0
  -30.4271  -19.1852   23.6872 C   0  0  0  0  0  0  0  0  0  0  0  0
  -29.2814  -18.1518   21.7666 C   0  0  0  0  0  0  0  0  0  0  0  0
  -22.6865  -18.9095   25.5681 C   0  0  1  0  0  0  0  0  0  0  0  0
  -24.0034  -22.4180   24.9555 C   0  0  1  0  0  0  0  0  0  0  0  0
  -30.2929  -16.9944   21.7325 C   0  0  2  0  0  0  0  0  0  0  0  0
  -29.5596  -25.0585   16.7808 C   0  0  0  0  0  0  0  0  0  0  0  0
  -30.4988  -24.9361   28.6965 C   0  0  0  0  0  0  0  0  0  0  0  0
  -22.5072  -36.9216   22.4682 C   0  0  0  0  0  0  0  0  0  0  0  0
  -24.0995  -36.9039   24.3984 C   0  0  0  0  0  0  0  0  0  0  0  0
  -23.9901  -23.7898   29.1364 C   0  0  0  0  0  0  0  0  0  0  0  0
  -26.0730  -24.7451   30.1449 C   0  0  0  0  0  0  0  0  0  0  0  0
  -25.9270  -22.3005   29.6702 C   0  0  0  0  0  0  0  0  0  0  0  0
  -30.1636  -24.8012   24.9090 C   0  0  0  0  0  0  0  0  0  0  0  0
  -25.1742  -30.4148   22.4195 C   0  0  0  0  0  0  0  0  0  0  0  0
  -29.1594  -30.3752   22.6934 C   0  0  0  0  0  0  0  0  0  0  0  0
  -29.3875  -31.8855   22.6038 C   0  0  0  0  0  0  0  0  0  0  0  0
  -29.7866  -29.6482   21.5006 C   0  0  0  0  0  0  0  0  0  0  0  0
  -28.8589  -32.6556   23.8178 C   0  0  0  0  0  0  0  0  0  0  0  0
  -29.5862  -28.1349   21.6070 C   0  0  0  0  0  0  0  0  0  0  0  0
  -27.3679  -32.4793   24.1242 C   0  0  0  0  0  0  0  0  0  0  0  0
  -30.2068  -27.3584   20.4455 C   0  0  0  0  0  0  0  0  0  0  0  0
  -23.7778  -34.8127   22.9699 C   0  0  0  0  0  0  0  0  0  0  0  0
  -26.4592  -32.9043   22.9714 C   0  0  0  0  0  0  0  0  0  0  0  0
  -24.4274  -33.8679   23.9783 C   0  0  0  0  0  0  0  0  0  0  0  0
  -24.3633  -29.1460   22.1878 C   0  0  0  0  0  0  0  0  0  1  0  0
  -30.0438  -25.8488   20.5608 C   0  0  0  0  0  0  0  0  0  0  0  0
  -26.1620  -23.9247   27.7470 C   0  0  1  0  0  0  0  0  0  0  0  0
  -29.8904  -24.4985   27.3732 C   0  0  2  0  0  0  0  0  0  0  0  0
  -23.1168  -36.0644   23.5809 C   0  0  0  0  0  0  0  0  0  0  0  0
  -25.5291  -23.6987   29.1490 C   0  0  0  0  0  0  0  0  0  0  0  0
  -28.3827  -15.4829   21.3477 N   0  0  0  0  0  0  0  0  0  0  0  0
  -29.6896  -15.7285   21.1532 N   0  0  0  0  0  0  0  0  0  0  0  0
  -24.5001  -23.3150   26.0128 N   0  0  0  0  0  0  0  0  0  0  0  0
  -29.9159  -19.3559   22.3255 N   0  0  0  0  0  0  0  0  0  0  0  0
  -31.6453  -14.8558   20.1413 N   0  0  0  0  0  0  0  0  0  0  0  0
  -28.4985  -11.7682   19.1612 N   0  0  0  0  0  0  0  0  0  0  0  0
  -29.5625  -20.6363   20.3765 N   0  0  0  0  0  0  0  0  0  0  0  0
  -23.3273  -20.0977   25.0465 N   0  0  0  0  0  0  0  0  0  0  0  0
  -27.6168  -23.8172   27.7237 N   0  0  0  0  0  0  0  0  0  0  0  0
  -25.0597  -32.7170   23.3388 N   0  0  0  0  0  0  0  0  0  0  0  0
  -30.6414  -25.1602   26.2691 N   0  3  0  0  0  0  0  0  0  0  0  0
  -30.7142  -12.3091   18.9231 O   0  0  0  0  0  0  0  0  0  0  0  0
  -22.6796  -21.5815   26.7201 O   0  0  0  0  0  0  0  0  0  0  0  0
  -26.2487  -21.8794   26.5534 O   0  0  0  0  0  0  0  0  0  0  0  0
  -23.1908  -31.3456   23.3998 O   0  0  0  0  0  0  0  0  0  0  0  0
  -28.0162  -25.9491   26.9036 O   0  0  0  0  0  0  0  0  0  0  0  0
  -30.6023  -21.5615   22.2325 O   0  0  0  0  0  0  0  0  0  0  0  0
  -23.1325  -11.9483   20.6475 O   0  0  0  0  0  0  0  0  0  0  0  0
  -23.8703  -28.6652   23.4317 O   0  0  0  0  0  0  0  0  0  1  0  0
  -30.6395  -25.2378   19.4233 O   0  0  0  0  0  0  0  0  0  0  0  0
  -22.8182   -6.5388   21.6690 F   0  0  0  0  0  0  0  0  0  0  0  0
  -21.6604  -10.9913   22.7828 F   0  0  0  0  0  0  0  0  0  0  0  0
  1  2  1  0  0  0  0
  1  5  2  0  0  0  0
  2  6  2  0  0  0  0
  3 10  2  0  0  0  0
  3 18  1  0  0  0  0
  4 11  1  0  0  0  0
  4 18  2  0  0  0  0
  5 20  1  0  0  0  0
  6 22  1  0  0  0  0
  7 12  2  0  0  0  0
  7 21  1  0  0  0  0
  8  9  2  0  0  0  0
  8 24  1  0  0  0  0
  9 25  1  0  0  0  0
 10 26  1  0  0  0  0
 11 26  2  0  0  0  0
 12 27  1  0  0  0  0
 13 14  2  0  0  0  0
 13 28  1  0  0  0  0
 14 30  1  0  0  0  0
 15 23  1  0  0  0  0
 15 27  2  0  0  0  0
 16 25  2  0  0  0  0
 16 29  1  0  0  0  0
 17 30  2  0  0  0  0
 17 31  1  0  0  0  0
 18 32  1  0  0  0  0
 19 32  1  0  0  0  0
 19 33  2  0  0  0  0
 19 34  1  0  0  0  0
 20 22  2  0  0  0  0
 20 40  1  0  0  0  0
 21 23  2  0  0  0  0
 21 41  1  0  0  0  0
 22 49  1  0  0  0  0
 23 42  1  0  0  0  0
 24 29  2  0  0  0  0
 24 52  1  0  0  0  0
 25 83  1  0  0  0  0
 26 94  1  0  0  0  0
 27 95  1  0  0  0  0
 28 31  2  0  0  0  0
 28 94  1  0  0  0  0
 29 96  1  0  0  0  0
 30 97  1  0  0  0  0
 31 98  1  0  0  0  0
 32 77  2  0  0  0  0
 33 78  1  0  0  0  0
 33 81  1  0  0  0  0
 34 82  1  0  0  0  0
 34 88  2  0  0  0  0
 35 50  1  0  0  0  0
 35 84  1  0  0  0  0
 35 89  2  0  0  0  0
 36 73  1  0  0  0  0
 36 79  1  0  0  0  0
 36 90  2  0  0  0  0
 37 60  1  0  0  0  0
 37 86  1  0  0  0  0
 37 91  2  0  0  0  0
 38 74  1  0  0  0  0
 38 85  1  0  0  0  0
 38 92  2  0  0  0  0
 39 80  1  0  0  0  0
 39 83  1  0  0  0  0
 39 93  2  0  0  0  0
 40 43  1  0  0  0  0
 41 50  1  0  0  0  0
 42 79  1  0  0  0  0
 43 45  1  0  0  0  0
 44 46  1  0  0  0  0
 44 47  1  0  0  0  0
 45 49  1  0  0  0  0
 46 51  1  0  0  0  0
 47 80  1  0  0  0  0
 48 51  1  0  0  0  0
 48 80  1  0  0  0  0
 49 84  1  0  0  0  0
 50 79  1  0  0  0  0
 51 78  1  0  0  0  0
 53 74  1  0  0  0  0
 54 75  1  0  0  0  0
 55 75  1  0  0  0  0
 56 76  1  0  0  0  0
 57 76  1  0  0  0  0
 58 76  1  0  0  0  0
 59 87  1  0  0  0  0
 60 71  1  0  0  0  0
 61 62  1  0  0  0  0
 61 63  1  0  0  0  0
 62 64  1  0  0  0  0
 63 65  1  0  0  0  0
 64 66  1  0  0  0  0
 65 67  1  0  0  0  0
 66 69  1  0  0  0  0
 67 72  1  0  0  0  0
 68 70  1  0  0  0  0
 68 75  1  0  0  0  0
 69 86  1  0  0  0  0
 70 86  1  0  0  0  0
 71 95  1  0  0  0  0
 72 96  1  0  0  0  0
 73 76  1  0  0  0  0
 73 85  1  0  0  0  0
 74 87  1  0  0  0  0
 77 78  1  0  0  0  0
M  CHG  1  87   1
M  ISO  4  39 100  71 101  83 100  95 101
M  END
> <Batch ID>
0005

> <Smiles>
CNC(C)C(=O)NC(C(=O)N1Cc2cc([101O:1][101CH2:1]CC(=O)N(CCCCCCCCCOc3cc([100NH:0][100C:0](=O)N4CCCC(n5nc(-c6ccc(Oc7ccc(F)cc7F)cc6)c(C(N)=O)c5N)C4)ccc3C)CCC(C)C)ccc2CC1C(=O)NC1CCCc2ccccc21)C(C)(C)C

> <Shape>
0.251

> <Color>
0.091

> <Negative vol penalty>
0.000

$$$$

  -OEChem-04052315263D

 84 93  0     1  0  0  0  0  0999 V2000
  -27.0409  -35.1570   25.5075 C   0  0  0  0  0  0  0  0  0  0  0  0
  -27.6769  -34.3990   26.4855 C   0  0  0  0  0  0  0  0  0  0  0  0
  -23.2407  -10.1721   22.1500 C   0  0  0  0  0  0  0  0  0  0  0  0
  -23.5368   -9.5400   19.8371 C   0  0  0  0  0  0  0  0  0  0  0  0
  -25.8699  -34.6867   24.9146 C   0  0  0  0  0  0  0  0  0  0  0  0
  -27.1416  -33.1708   26.8720 C   0  0  0  0  0  0  0  0  0  0  0  0
  -32.6581  -17.3130   23.5873 C   0  0  0  0  0  0  0  0  0  0  0  0
  -30.9744  -27.1012   26.2716 C   0  0  0  0  0  0  0  0  0  0  0  0
  -32.0644  -16.4537   22.6631 C   0  0  0  0  0  0  0  0  0  0  0  0
  -22.4810   -9.0226   22.3670 C   0  0  0  0  0  0  0  0  0  0  0  0
  -22.7770   -8.3905   20.0540 C   0  0  0  0  0  0  0  0  0  0  0  0
  -31.7186  -25.9267   26.3847 C   0  0  0  0  0  0  0  0  0  0  0  0
  -23.0392   -5.7261   22.8713 C   0  0  0  0  0  0  0  0  0  0  0  0
  -23.3051   -4.9805   24.0198 C   0  0  0  0  0  0  0  0  0  0  0  0
  -29.8900  -17.3140   23.2609 C   0  0  0  0  0  0  0  0  0  0  0  0
  -29.7600  -24.7492   27.1756 C   0  0  0  0  0  0  0  0  0  0  0  0
  -21.0337   -5.3235   24.7683 C   0  0  0  0  0  0  0  0  0  0  0  0
  -23.7686  -10.4308   20.8851 C   0  0  0  0  0  0  0  0  0  0  0  0
  -24.1408  -12.9539   20.8279 C   0  0  0  0  0  0  0  0  0  0  0  0
  -25.3252  -33.4477   25.2871 C   0  0  0  0  0  0  0  0  0  0  0  0
  -29.6149  -27.1004   26.5958 C   0  0  0  0  0  0  0  0  0  0  0  0
  -31.8737  -18.1864   24.3542 C   0  0  0  0  0  0  0  0  0  0  0  0
  -25.9615  -32.6842   26.2845 C   0  0  0  0  0  0  0  0  0  0  0  0
  -30.4752  -18.1733   24.2015 C   0  0  0  0  0  0  0  0  0  0  0  0
  -29.0066  -25.9196   27.0524 C   0  0  0  0  0  0  0  0  0  0  0  0
  -30.6817  -16.4563   22.4981 C   0  0  0  0  0  0  0  0  0  0  0  0
  -22.2491   -8.1318   21.3190 C   0  0  0  0  0  0  0  0  0  0  0  0
  -31.1129  -24.7537   26.8358 C   0  0  0  0  0  0  0  0  0  0  0  0
  -21.7706   -6.2706   22.6714 C   0  0  0  0  0  0  0  0  0  0  0  0
  -22.3024   -4.7792   24.9682 C   0  0  0  0  0  0  0  0  0  0  0  0
  -20.7679   -6.0692   23.6199 C   0  0  0  0  0  0  0  0  0  0  0  0
  -24.5531  -11.6183   20.6602 C   0  0  0  0  0  0  0  0  0  0  0  0
  -25.2436  -13.6989   20.4886 C   0  0  0  0  0  0  0  0  0  0  0  0
  -22.8741  -13.4745   21.2525 C   0  0  0  0  0  0  0  0  0  0  0  0
  -26.4253  -29.0608   26.8401 C   0  0  0  0  0  0  0  0  0  0  0  0
  -32.1314  -21.3886   26.1758 C   0  0  0  0  0  0  0  0  0  0  0  0
  -25.6914  -26.3010   25.7197 C   0  0  0  0  0  0  0  0  0  0  0  0
  -24.2600  -23.6651   24.0948 C   0  0  0  0  0  0  0  0  0  0  0  0
  -30.7207  -14.6749   20.7172 C   0  0  0  0  0  0  0  0  0  0  0  0
  -24.0317  -33.0028   24.6519 C   0  0  0  0  0  0  0  0  0  0  0  0
  -28.7888  -28.3571   26.5478 C   0  0  0  0  0  0  0  0  0  0  0  0
  -29.6036  -19.1107   24.9977 C   0  0  0  0  0  0  0  0  0  0  0  0
  -32.5459  -19.0945   25.3539 C   0  0  0  0  0  0  0  0  0  0  0  0
  -27.5496  -25.9742   27.4228 C   0  0  0  0  0  0  0  0  0  0  0  0
  -23.7345  -31.5187   24.8503 C   0  0  0  0  0  0  0  0  0  0  0  0
  -29.5911  -12.3323   18.2855 C   0  0  0  0  0  0  0  0  0  0  0  0
  -23.9632  -31.1182   26.3043 C   0  0  0  0  0  0  0  0  0  0  0  0
  -28.1458  -12.0476   18.7003 C   0  0  0  0  0  0  0  0  0  0  0  0
  -30.3041  -19.6263   26.2514 C   0  0  0  0  0  0  0  0  0  0  0  0
  -30.5022  -12.5212   19.4971 C   0  0  0  0  0  0  0  0  0  0  0  0
  -28.5963  -13.2347   20.8854 C   0  0  0  0  0  0  0  0  0  0  0  0
  -25.4252  -31.3355   26.7129 C   0  0  1  0  0  0  0  0  0  0  0  0
  -27.3315  -28.1054   26.1209 C   0  0  1  0  0  0  0  0  0  0  0  0
  -27.6280  -13.1015   19.6987 C   0  0  2  0  0  0  0  0  0  0  0  0
  -22.0626  -22.4886   23.8038 C   0  0  0  0  0  0  0  0  0  0  0  0
  -26.0103  -25.0317   28.4748 C   0  0  0  0  0  0  0  0  0  0  0  0
  -24.4134  -23.2420   27.7569 C   0  0  0  0  0  0  0  0  0  0  0  0
  -23.6575  -25.6170   27.8615 C   0  0  0  0  0  0  0  0  0  0  0  0
  -24.2226  -24.2079   21.1857 C   0  0  0  0  0  0  0  0  0  0  0  0
  -31.1499  -22.3768   26.7532 C   0  0  0  0  0  0  0  0  0  1  0  0
  -25.2300  -24.8968   26.0174 C   0  0  1  0  0  0  0  0  0  0  0  0
  -22.9947  -23.5614   23.2625 C   0  0  2  0  0  0  0  0  0  0  0  0
  -24.8516  -24.7019   27.5128 C   0  0  0  0  0  0  0  0  0  0  0  0
  -25.8190  -11.5176   20.2464 N   0  0  0  0  0  0  0  0  0  0  0  0
  -26.2117  -12.7993   20.1511 N   0  0  0  0  0  0  0  0  0  0  0  0
  -31.6485  -20.1054   25.9189 N   0  0  0  0  0  0  0  0  0  0  0  0
  -26.8074  -26.7636   26.4275 N   0  0  0  0  0  0  0  0  0  0  0  0
  -29.9505  -13.5371   20.3962 N   0  0  0  0  0  0  0  0  0  0  0  0
  -25.4701  -15.0291   20.4489 N   0  0  0  0  0  0  0  0  0  0  0  0
  -21.8497  -12.5696   21.5624 N   0  0  0  0  0  0  0  0  0  0  0  0
  -30.0797  -15.5876   21.5543 N   0  0  0  0  0  0  0  0  0  0  0  0
  -26.2582  -30.2714   26.1951 N   0  0  0  0  0  0  0  0  0  0  0  0
  -24.1434  -24.6178   25.0848 N   0  0  0  0  0  0  0  0  0  0  0  0
  -23.3300  -23.2237   21.8502 N   0  3  0  0  0  0  0  0  0  0  0  0
  -22.6520  -14.7061   21.3383 O   0  0  0  0  0  0  0  0  0  0  0  0
  -25.9134  -28.7250   27.9017 O   0  0  0  0  0  0  0  0  0  0  0  0
  -33.2914  -21.7472   25.9566 O   0  0  0  0  0  0  0  0  0  0  0  0
  -25.0774  -26.9738   24.8868 O   0  0  0  0  0  0  0  0  0  0  0  0
  -25.2511  -22.9679   23.8898 O   0  0  0  0  0  0  0  0  0  0  0  0
  -31.8543  -14.8414   20.2598 O   0  0  0  0  0  0  0  0  0  0  0  0
  -21.5080   -7.0099   21.5303 O   0  0  0  0  0  0  0  0  0  0  0  0
  -31.8442  -23.6095   26.9396 O   0  0  0  0  0  0  0  0  0  1  0  0
  -22.5574   -4.0618   26.0703 F   0  0  0  0  0  0  0  0  0  0  0  0
  -19.5468   -6.5887   23.4327 F   0  0  0  0  0  0  0  0  0  0  0  0
  1  2  1  0  0  0  0
  1  5  2  0  0  0  0
  2  6  2  0  0  0  0
  3 10  2  0  0  0  0
  3 18  1  0  0  0  0
  4 11  1  0  0  0  0
  4 18  2  0  0  0  0
  5 20  1  0  0  0  0
  6 23  1  0  0  0  0
  7  9  2  0  0  0  0
  7 22  1  0  0  0  0
  8 12  2  0  0  0  0
  8 21  1  0  0  0  0
  9 26  1  0  0  0  0
 10 27  1  0  0  0  0
 11 27  2  0  0  0  0
 12 28  1  0  0  0  0
 13 14  2  0  0  0  0
 13 29  1  0  0  0  0
 14 30  1  0  0  0  0
 15 24  1  0  0  0  0
 15 26  2  0  0  0  0
 16 25  1  0  0  0  0
 16 28  2  0  0  0  0
 17 30  2  0  0  0  0
 17 31  1  0  0  0  0
 18 32  1  0  0  0  0
 19 32  1  0  0  0  0
 19 33  2  0  0  0  0
 19 34  1  0  0  0  0
 20 23  2  0  0  0  0
 20 40  1  0  0  0  0
 21 25  2  0  0  0  0
 21 41  1  0  0  0  0
 22 24  2  0  0  0  0
 22 43  1  0  0  0  0
 23 52  1  0  0  0  0
 24 42  1  0  0  0  0
 25 44  1  0  0  0  0
 26 71  1  0  0  0  0
 27 81  1  0  0  0  0
 28 82  1  0  0  0  0
 29 31  2  0  0  0  0
 29 81  1  0  0  0  0
 30 83  1  0  0  0  0
 31 84  1  0  0  0  0
 32 64  2  0  0  0  0
 33 65  1  0  0  0  0
 33 69  1  0  0  0  0
 34 70  1  0  0  0  0
 34 75  2  0  0  0  0
 35 53  1  0  0  0  0
 35 72  1  0  0  0  0
 35 76  2  0  0  0  0
 36 60  1  0  0  0  0
 36 66  1  0  0  0  0
 36 77  2  0  0  0  0
 37 61  1  0  0  0  0
 37 67  1  0  0  0  0
 37 78  2  0  0  0  0
 38 62  1  0  0  0  0
 38 73  1  0  0  0  0
 38 79  2  0  0  0  0
 39 68  1  0  0  0  0
 39 71  1  0  0  0  0
 39 80  2  0  0  0  0
 40 45  1  0  0  0  0
 41 53  1  0  0  0  0
 42 49  1  0  0  0  0
 43 66  1  0  0  0  0
 44 67  1  0  0  0  0
 45 47  1  0  0  0  0
 46 48  1  0  0  0  0
 46 50  1  0  0  0  0
 47 52  1  0  0  0  0
 48 54  1  0  0  0  0
 49 66  1  0  0  0  0
 50 68  1  0  0  0  0
 51 54  1  0  0  0  0
 51 68  1  0  0  0  0
 52 72  1  0  0  0  0
 53 67  1  0  0  0  0
 54 65  1  0  0  0  0
 55 62  1  0  0  0  0
 56 63  1  0  0  0  0
 57 63  1  0  0  0  0
 58 63  1  0  0  0  0
 59 74  1  0  0  0  0
 60 82  1  0  0  0  0
 61 63  1  0  0  0  0
 61 73  1  0  0  0  0
 62 74  1  0  0  0  0
 64 65  1  0  0  0  0
M  CHG  1  74   1
M  ISO  4  39 100  60 101  71 100  82 101
M  END
> <Batch ID>
0005

> <Smiles>
CNC(C)C(=O)NC(C(=O)N1Cc2cc([101O:1][101CH2:1]C(=O)N3CCc4cc([100NH:0][100C:0](=O)N5CCCC(n6nc(-c7ccc(Oc8ccc(F)cc8F)cc7)c(C(N)=O)c6N)C5)ccc4C3)ccc2CC1C(=O)NC1CCCc2ccccc21)C(C)(C)C

> <Shape>
0.224

> <Color>
0.208

> <Negative vol penalty>
0.000

$$$$

  -OEChem-04052315263D

 99107  0     1  0  0  0  0  0999 V2000
  -29.9698  -27.4437   15.5394 C   0  0  0  0  0  0  0  0  0  0  0  0
  -28.6198  -27.2483   15.8124 C   0  0  0  0  0  0  0  0  0  0  0  0
  -20.6291  -11.7422   20.2650 C   0  0  0  0  0  0  0  0  0  0  0  0
  -29.2800  -19.4110   19.2489 C   0  0  0  0  0  0  0  0  0  0  0  0
  -28.0920  -18.8628   21.2800 C   0  0  0  0  0  0  0  0  0  0  0  0
  -30.8434  -27.7982   16.5666 C   0  0  0  0  0  0  0  0  0  0  0  0
  -28.1427  -27.4061   17.1131 C   0  0  0  0  0  0  0  0  0  0  0  0
  -22.6706  -29.5873   18.7879 C   0  0  0  0  0  0  0  0  0  0  0  0
  -21.8140  -11.9755   19.5670 C   0  0  0  0  0  0  0  0  0  0  0  0
  -20.5814  -11.9417   21.6447 C   0  0  0  0  0  0  0  0  0  0  0  0
  -29.1498  -20.7691   19.5393 C   0  0  0  0  0  0  0  0  0  0  0  0
  -27.9619  -20.2209   21.5705 C   0  0  0  0  0  0  0  0  0  0  0  0
  -21.4856  -28.9577   19.1661 C   0  0  0  0  0  0  0  0  0  0  0  0
  -26.0087  -22.8016   20.5929 C   0  0  0  0  0  0  0  0  0  0  0  0
  -24.7623  -23.2556   21.0238 C   0  0  0  0  0  0  0  0  0  0  0  0
  -22.0958  -29.2160   21.4856 C   0  0  0  0  0  0  0  0  0  0  0  0
  -22.9038  -12.6077   21.6286 C   0  0  0  0  0  0  0  0  0  0  0  0
  -25.7520  -24.0059   23.0961 C   0  0  0  0  0  0  0  0  0  0  0  0
  -28.7510  -18.4579   20.1192 C   0  0  0  0  0  0  0  0  0  0  0  0
  -29.9351  -16.1999   20.2033 C   0  0  0  0  0  0  0  0  0  0  0  0
  -30.3750  -27.9699   17.8787 C   0  0  0  0  0  0  0  0  0  0  0  0
  -23.5838  -30.0270   19.7571 C   0  0  0  0  0  0  0  0  0  0  0  0
  -29.0110  -27.7619   18.1591 C   0  0  0  0  0  0  0  0  0  0  0  0
  -23.2905  -29.8532   21.1172 C   0  0  0  0  0  0  0  0  0  0  0  0
  -22.9513  -12.4082   20.2488 C   0  0  0  0  0  0  0  0  0  0  0  0
  -28.4908  -21.1740   20.7001 C   0  0  0  0  0  0  0  0  0  0  0  0
  -21.1994  -28.7693   20.5151 C   0  0  0  0  0  0  0  0  0  0  0  0
  -21.7188  -12.3744   22.3265 C   0  0  0  0  0  0  0  0  0  0  0  0
  -27.1269  -22.9496   21.4136 C   0  0  0  0  0  0  0  0  0  0  0  0
  -24.6339  -23.8577   22.2754 C   0  0  0  0  0  0  0  0  0  0  0  0
  -26.9985  -23.5518   22.6652 C   0  0  0  0  0  0  0  0  0  0  0  0
  -28.8846  -17.0549   19.8195 C   0  0  0  0  0  0  0  0  0  0  0  0
  -29.5942  -14.9786   19.6753 C   0  0  0  0  0  0  0  0  0  0  0  0
  -31.1136  -16.4841   20.9688 C   0  0  0  0  0  0  0  0  0  0  0  0
  -26.5987  -29.3262   20.4800 C   0  0  0  0  0  0  0  0  0  0  0  0
  -26.2562  -31.7770   22.5772 C   0  0  0  0  0  0  0  0  0  0  0  0
  -22.1258  -15.8334   27.3815 C   0  0  0  0  0  0  0  0  0  0  0  0
  -18.4983  -27.2618   22.5211 C   0  0  0  0  0  0  0  0  0  0  0  0
  -24.1642  -33.7150   24.4520 C   0  0  0  0  0  0  0  0  0  0  0  0
  -24.3713  -12.4965   18.1699 C   0  0  0  0  0  0  0  0  0  0  0  0
  -31.3656  -28.3073   18.9648 C   0  0  0  0  0  0  0  0  0  0  0  0
  -24.8451  -30.7284   19.3334 C   0  0  0  0  0  0  0  0  0  0  0  0
  -24.2281  -30.3251   22.1972 C   0  0  0  0  0  0  0  0  0  0  0  0
  -30.7135  -28.8208   20.2459 C   0  0  0  0  0  0  0  0  0  0  0  0
  -27.1757  -13.0148   16.0382 C   0  0  0  0  0  0  0  0  0  0  0  0
  -29.5350  -27.9349   20.6372 C   0  0  0  0  0  0  0  0  0  0  0  0
  -28.0308  -14.0272   16.8036 C   0  0  0  0  0  0  0  0  0  0  0  0
  -25.6826  -13.2867   16.2125 C   0  0  0  0  0  0  0  0  0  0  0  0
  -26.0843  -14.4046   18.3707 C   0  0  0  0  0  0  0  0  0  0  0  0
  -28.4510  -27.9479   19.5526 C   0  0  1  0  0  0  0  0  0  0  0  0
  -25.9427  -30.6751   20.3916 C   0  0  1  0  0  0  0  0  0  0  0  0
  -27.5946  -14.1326   18.2782 C   0  0  2  0  0  0  0  0  0  0  0  0
  -24.1801  -35.6126   26.0940 C   0  0  0  0  0  0  0  0  0  0  0  0
  -27.2078  -29.8737   24.7640 C   0  0  0  0  0  0  0  0  0  0  0  0
  -26.3109  -31.4837   26.4587 C   0  0  0  0  0  0  0  0  0  0  0  0
  -28.1411  -32.1889   24.9173 C   0  0  0  0  0  0  0  0  0  0  0  0
  -24.1720  -17.3018   27.4593 C   0  0  0  0  0  0  0  0  0  0  0  0
  -22.5487  -35.4305   22.6616 C   0  0  0  0  0  0  0  0  0  0  0  0
  -22.7441  -15.2360   26.1224 C   0  0  0  0  0  0  0  0  0  0  0  0
  -19.8030  -27.9887   22.2748 C   0  0  0  0  0  0  0  0  0  1  0  0
  -21.8974  -14.1390   25.4779 C   0  0  0  0  0  0  0  0  0  0  0  0
  -19.7376  -22.7082   26.6106 C   0  0  0  0  0  0  0  0  0  0  0  0
  -19.9275  -21.1944   26.7320 C   0  0  0  0  0  0  0  0  0  0  0  0
  -18.6085  -23.0508   25.6370 C   0  0  0  0  0  0  0  0  0  0  0  0
  -21.0317  -20.8538   27.7354 C   0  0  0  0  0  0  0  0  0  0  0  0
  -18.4398  -24.5644   25.4906 C   0  0  0  0  0  0  0  0  0  0  0  0
  -21.2152  -19.3482   27.9500 C   0  0  0  0  0  0  0  0  0  0  0  0
  -17.2891  -24.9052   24.5393 C   0  0  0  0  0  0  0  0  0  0  0  0
  -22.2662  -19.0105   29.0125 C   0  0  0  0  0  0  0  0  0  0  0  0
  -17.0864  -26.4090   24.3825 C   0  0  0  0  0  0  0  0  0  0  0  0
  -22.4412  -17.5064   29.2018 C   0  0  0  0  0  0  0  0  0  0  0  0
  -22.5330  -13.5679   24.2155 C   0  0  0  0  0  0  0  0  0  0  0  0
  -25.7986  -31.9016   24.0105 C   0  0  1  0  0  0  0  0  0  0  0  0
  -24.0735  -35.2200   24.6287 C   0  0  2  0  0  0  0  0  0  0  0  0
  -26.8476  -31.3512   25.0175 C   0  0  0  0  0  0  0  0  0  0  0  0
  -27.9467  -16.4298   19.1028 N   0  0  0  0  0  0  0  0  0  0  0  0
  -28.4067  -15.1690   19.0320 N   0  0  0  0  0  0  0  0  0  0  0  0
  -25.4514  -30.9996   21.7323 N   0  0  0  0  0  0  0  0  0  0  0  0
  -25.3422  -13.3692   17.6345 N   0  0  0  0  0  0  0  0  0  0  0  0
  -30.1973  -13.7712   19.7030 N   0  0  0  0  0  0  0  0  0  0  0  0
  -31.3085  -17.7915   21.4348 N   0  0  0  0  0  0  0  0  0  0  0  0
  -24.1547  -12.6453   19.5393 N   0  0  0  0  0  0  0  0  0  0  0  0
  -27.6751  -29.1672   19.6281 N   0  0  0  0  0  0  0  0  0  0  0  0
  -18.2559  -27.0739   23.8770 N   0  0  0  0  0  0  0  0  0  0  0  0
  -25.4587  -33.3063   24.2097 N   0  0  0  0  0  0  0  0  0  0  0  0
  -22.8846  -16.8514   28.0022 N   0  0  0  0  0  0  0  0  0  0  0  0
  -22.7755  -35.7262   24.0997 N   0  3  0  0  0  0  0  0  0  0  0  0
  -31.9767  -15.6086   21.2178 O   0  0  0  0  0  0  0  0  0  0  0  0
  -26.1617  -28.4920   21.2641 O   0  0  0  0  0  0  0  0  0  0  0  0
  -27.2858  -32.3542   22.2188 O   0  0  0  0  0  0  0  0  0  0  0  0
  -21.0408  -15.4251   27.8031 O   0  0  0  0  0  0  0  0  0  0  0  0
  -17.7616  -26.8921   21.6108 O   0  0  0  0  0  0  0  0  0  0  0  0
  -23.1854  -32.9754   24.5256 O   0  0  0  0  0  0  0  0  0  0  0  0
  -23.7956  -11.6588   17.4706 O   0  0  0  0  0  0  0  0  0  0  0  0
  -28.3639  -22.4991   20.9840 O   0  0  0  0  0  0  0  0  0  0  0  0
  -20.0318  -28.1480   20.8908 O   0  0  0  0  0  0  0  0  0  1  0  0
  -21.6722  -12.5702   23.6821 O   0  0  0  0  0  0  0  0  0  0  0  0
  -23.4371  -24.2951   22.6885 F   0  0  0  0  0  0  0  0  0  0  0  0
  -28.0693  -23.6979   23.4576 F   0  0  0  0  0  0  0  0  0  0  0  0
  1  2  1  0  0  0  0
  1  6  2  0  0  0  0
  2  7  2  0  0  0  0
  3  9  1  0  0  0  0
  3 10  2  0  0  0  0
  4 11  2  0  0  0  0
  4 19  1  0  0  0  0
  5 12  1  0  0  0  0
  5 19  2  0  0  0  0
  6 21  1  0  0  0  0
  7 23  1  0  0  0  0
  8 13  2  0  0  0  0
  8 22  1  0  0  0  0
  9 25  2  0  0  0  0
 10 28  1  0  0  0  0
 11 26  1  0  0  0  0
 12 26  2  0  0  0  0
 13 27  1  0  0  0  0
 14 15  2  0  0  0  0
 14 29  1  0  0  0  0
 15 30  1  0  0  0  0
 16 24  1  0  0  0  0
 16 27  2  0  0  0  0
 17 25  1  0  0  0  0
 17 28  2  0  0  0  0
 18 30  2  0  0  0  0
 18 31  1  0  0  0  0
 19 32  1  0  0  0  0
 20 32  1  0  0  0  0
 20 33  2  0  0  0  0
 20 34  1  0  0  0  0
 21 23  2  0  0  0  0
 21 41  1  0  0  0  0
 22 24  2  0  0  0  0
 22 42  1  0  0  0  0
 23 50  1  0  0  0  0
 24 43  1  0  0  0  0
 25 82  1  0  0  0  0
 26 95  1  0  0  0  0
 27 96  1  0  0  0  0
 28 97  1  0  0  0  0
 29 31  2  0  0  0  0
 29 95  1  0  0  0  0
 30 98  1  0  0  0  0
 31 99  1  0  0  0  0
 32 76  2  0  0  0  0
 33 77  1  0  0  0  0
 33 80  1  0  0  0  0
 34 81  1  0  0  0  0
 34 88  2  0  0  0  0
 35 51  1  0  0  0  0
 35 83  1  0  0  0  0
 35 89  2  0  0  0  0
 36 73  1  0  0  0  0
 36 78  1  0  0  0  0
 36 90  2  0  0  0  0
 37 59  1  0  0  0  0
 37 86  1  0  0  0  0
 37 91  2  0  0  0  0
 38 60  1  0  0  0  0
 38 84  1  0  0  0  0
 38 92  2  0  0  0  0
 39 74  1  0  0  0  0
 39 85  1  0  0  0  0
 39 93  2  0  0  0  0
 40 79  1  0  0  0  0
 40 82  1  0  0  0  0
 40 94  2  0  0  0  0
 41 44  1  0  0  0  0
 42 51  1  0  0  0  0
 43 78  1  0  0  0  0
 44 46  1  0  0  0  0
 45 47  1  0  0  0  0
 45 48  1  0  0  0  0
 46 50  1  0  0  0  0
 47 52  1  0  0  0  0
 48 79  1  0  0  0  0
 49 52  1  0  0  0  0
 49 79  1  0  0  0  0
 50 83  1  0  0  0  0
 51 78  1  0  0  0  0
 52 77  1  0  0  0  0
 53 74  1  0  0  0  0
 54 75  1  0  0  0  0
 55 75  1  0  0  0  0
 56 75  1  0  0  0  0
 57 86  1  0  0  0  0
 58 87  1  0  0  0  0
 59 61  1  0  0  0  0
 60 96  1  0  0  0  0
 61 72  1  0  0  0  0
 62 63  1  0  0  0  0
 62 64  1  0  0  0  0
 63 65  1  0  0  0  0
 64 66  1  0  0  0  0
 65 67  1  0  0  0  0
 66 68  1  0  0  0  0
 67 69  1  0  0  0  0
 68 70  1  0  0  0  0
 69 71  1  0  0  0  0
 70 84  1  0  0  0  0
 71 86  1  0  0  0  0
 72 97  1  0  0  0  0
 73 75  1  0  0  0  0
 73 85  1  0  0  0  0
 74 87  1  0  0  0  0
 76 77  1  0  0  0  0
M  CHG  1  87   1
M  ISO  4  40 100  60 101  82 100  96 101
M  END
> <Batch ID>
0005

> <Smiles>
CNC(C)C(=O)NC(C(=O)N1Cc2cc([101O:1][101CH2:1]C(=O)NCCCCCCCCCCN(C)C(=O)CCCOc3cccc([100NH:0][100C:0](=O)N4CCCC(n5nc(-c6ccc(Oc7ccc(F)cc7F)cc6)c(C(N)=O)c5N)C4)c3)ccc2CC1C(=O)NC1CCCc2ccccc21)C(C)(C)C

> <Shape>
0.273

> <Color>
0.048

> <Negative vol penalty>
0.000

$$$$

  -OEChem-04052315262D

  0  0  0     0  0  0  0  0  0999 V2000
M  END
$$$$

  -OEChem-04052315263D

 80 88  0     1  0  0  0  0  0999 V2000
  -28.1137  -33.7718   25.6668 C   0  0  0  0  0  0  0  0  0  0  0  0
  -28.6839  -32.6161   25.1429 C   0  0  0  0  0  0  0  0  0  0  0  0
  -24.4539   -9.6200   21.3502 C   0  0  0  0  0  0  0  0  0  0  0  0
  -24.8841  -10.6190   23.5076 C   0  0  0  0  0  0  0  0  0  0  0  0
  -26.7268  -33.8867   25.7520 C   0  0  0  0  0  0  0  0  0  0  0  0
  -27.8675  -31.5740   24.7048 C   0  0  0  0  0  0  0  0  0  0  0  0
  -28.9148  -27.8099   19.9888 C   0  0  0  0  0  0  0  0  0  0  0  0
  -24.1352   -8.4131   21.9726 C   0  0  0  0  0  0  0  0  0  0  0  0
  -24.5653   -9.4121   24.1300 C   0  0  0  0  0  0  0  0  0  0  0  0
  -29.4305  -26.5165   19.9176 C   0  0  0  0  0  0  0  0  0  0  0  0
  -22.8595   -5.1726   23.0150 C   0  0  0  0  0  0  0  0  0  0  0  0
  -21.7209   -4.4972   22.5757 C   0  0  0  0  0  0  0  0  0  0  0  0
  -27.1872  -25.6299   19.8918 C   0  0  0  0  0  0  0  0  0  0  0  0
  -28.5802  -21.2764   22.0692 C   0  0  0  0  0  0  0  0  0  0  0  0
  -28.8170  -21.3066   19.6650 C   0  0  0  0  0  0  0  0  0  0  0  0
  -20.3599   -6.4009   23.1763 C   0  0  0  0  0  0  0  0  0  0  0  0
  -24.8284  -10.7230   22.1177 C   0  0  0  0  0  0  0  0  0  0  0  0
  -24.2790  -13.0239   21.1628 C   0  0  0  0  0  0  0  0  0  0  0  0
  -25.8927  -32.8494   25.3058 C   0  0  0  0  0  0  0  0  0  0  0  0
  -27.5292  -28.0227   20.0231 C   0  0  0  0  0  0  0  0  0  0  0  0
  -26.4681  -31.6745   24.7853 C   0  0  0  0  0  0  0  0  0  0  0  0
  -26.6564  -26.9271   19.9609 C   0  0  0  0  0  0  0  0  0  0  0  0
  -28.6005  -19.8818   22.0537 C   0  0  0  0  0  0  0  0  0  0  0  0
  -28.8373  -19.9119   19.6495 C   0  0  0  0  0  0  0  0  0  0  0  0
  -28.6884  -21.9888   20.8748 C   0  0  0  0  0  0  0  0  0  0  0  0
  -28.7291  -19.1996   20.8439 C   0  0  0  0  0  0  0  0  0  0  0  0
  -24.1909   -8.3091   23.3625 C   0  0  0  0  0  0  0  0  0  0  0  0
  -28.5667  -25.4261   19.8720 C   0  0  0  0  0  0  0  0  0  0  0  0
  -22.7483   -6.4621   23.5351 C   0  0  0  0  0  0  0  0  0  0  0  0
  -20.4711   -5.1113   22.6562 C   0  0  0  0  0  0  0  0  0  0  0  0
  -21.4985   -7.0763   23.6157 C   0  0  0  0  0  0  0  0  0  0  0  0
  -25.1583  -11.9698   21.4753 C   0  0  0  0  0  0  0  0  0  0  0  0
  -25.0758  -13.9704   20.5666 C   0  0  0  0  0  0  0  0  0  0  0  0
  -22.8681  -13.1372   21.3912 C   0  0  0  0  0  0  0  0  0  0  0  0
  -25.5089  -29.3120   22.1112 C   0  0  0  0  0  0  0  0  0  0  0  0
  -23.3603  -28.8528   19.7247 C   0  0  0  0  0  0  0  0  0  0  0  0
  -22.4790  -27.1348   16.9107 C   0  0  0  0  0  0  0  0  0  0  0  0
  -29.7707  -16.9570   20.3619 C   0  0  0  0  0  0  0  0  0  0  0  0
  -24.4002  -33.0000   25.4618 C   0  0  0  0  0  0  0  0  0  0  0  0
  -26.9885  -29.4254   20.0731 C   0  0  0  0  0  0  0  0  0  0  0  0
  -25.1607  -27.1030   19.9745 C   0  0  0  0  0  0  0  0  0  0  0  0
  -23.5972  -32.0035   24.6297 C   0  0  0  0  0  0  0  0  0  0  0  0
  -29.8600  -13.6956   18.9363 C   0  0  0  0  0  0  0  0  0  0  0  0
  -24.1690  -30.5976   24.7821 C   0  0  0  0  0  0  0  0  0  0  0  0
  -28.5724  -13.0426   19.4441 C   0  0  0  0  0  0  0  0  0  0  0  0
  -30.4873  -14.6069   19.9897 C   0  0  0  0  0  0  0  0  0  0  0  0
  -28.2972  -14.9673   21.0586 C   0  0  0  0  0  0  0  0  0  0  0  0
  -25.6154  -30.5325   24.2768 C   0  0  1  0  0  0  0  0  0  0  0  0
  -25.5668  -29.4986   20.6214 C   0  0  1  0  0  0  0  0  0  0  0  0
  -27.5940  -14.0907   20.0094 C   0  0  2  0  0  0  0  0  0  0  0  0
  -28.4820  -19.1468   23.3496 C   0  0  0  0  0  0  0  0  0  0  0  0
  -28.9753  -19.2090   18.3378 C   0  0  0  0  0  0  0  0  0  0  0  0
  -20.6483  -26.9571   15.2035 C   0  0  0  0  0  0  0  0  0  0  0  0
  -21.6277  -27.3566   21.7420 C   0  0  0  0  0  0  0  0  0  0  0  0
  -20.3297  -26.4113   19.8211 C   0  0  0  0  0  0  0  0  0  0  0  0
  -20.3661  -28.8755   20.2071 C   0  0  0  0  0  0  0  0  0  0  0  0
  -24.3091  -27.8648   14.7023 C   0  0  0  0  0  0  0  0  0  0  0  0
  -22.4372  -27.7293   19.3188 C   0  0  1  0  0  0  0  0  0  0  0  0
  -21.9768  -27.6070   15.5582 C   0  0  2  0  0  0  0  0  0  0  0  0
  -21.2183  -27.5894   20.2739 C   0  0  0  0  0  0  0  0  0  0  0  0
  -26.4173  -12.2225   21.1078 N   0  0  0  0  0  0  0  0  0  0  0  0
  -26.3349  -13.4461   20.5582 N   0  0  0  0  0  0  0  0  0  0  0  0
  -24.6807  -28.4937   20.0304 N   0  0  0  0  0  0  0  0  0  0  0  0
  -29.5033  -15.5763   20.4762 N   0  0  0  0  0  0  0  0  0  0  0  0
  -24.8153  -15.1917   20.0538 N   0  0  0  0  0  0  0  0  0  0  0  0
  -22.2046  -12.0723   22.0158 N   0  0  0  0  0  0  0  0  0  0  0  0
  -28.7484  -17.7828   20.8284 N   0  0  0  0  0  0  0  0  0  0  0  0
  -28.6682  -23.3896   20.8895 N   0  0  0  0  0  0  0  0  0  1  0  0
  -25.6437  -30.4840   22.8306 N   0  0  0  0  0  0  0  0  0  0  0  0
  -22.0798  -27.9776   17.9263 N   0  0  0  0  0  0  0  0  0  0  0  0
  -22.9635  -27.2710   14.4931 N   0  3  0  0  0  0  0  0  0  0  0  0
  -22.2121  -14.1459   21.0367 O   0  0  0  0  0  0  0  0  0  0  0  0
  -25.3519  -28.1881   22.5736 O   0  0  0  0  0  0  0  0  0  0  0  0
  -22.9277  -30.0074   19.7620 O   0  0  0  0  0  0  0  0  0  0  0  0
  -23.1546  -26.1180   17.0525 O   0  0  0  0  0  0  0  0  0  0  0  0
  -30.8170  -17.3760   19.8604 O   0  0  0  0  0  0  0  0  0  0  0  0
  -23.8797   -7.1317   23.9702 O   0  0  0  0  0  0  0  0  0  0  0  0
  -29.0675  -24.1627   19.8031 O   0  0  0  0  0  0  0  0  0  1  0  0
  -19.3780   -4.4632   22.2328 F   0  0  0  0  0  0  0  0  0  0  0  0
  -21.3855   -8.3154   24.1132 F   0  0  0  0  0  0  0  0  0  0  0  0
  1  2  1  0  0  0  0
  1  5  2  0  0  0  0
  2  6  2  0  0  0  0
  3  8  2  0  0  0  0
  3 17  1  0  0  0  0
  4  9  1  0  0  0  0
  4 17  2  0  0  0  0
  5 19  1  0  0  0  0
  6 21  1  0  0  0  0
  7 10  2  0  0  0  0
  7 20  1  0  0  0  0
  8 27  1  0  0  0  0
  9 27  2  0  0  0  0
 10 28  1  0  0  0  0
 11 12  2  0  0  0  0
 11 29  1  0  0  0  0
 12 30  1  0  0  0  0
 13 22  1  0  0  0  0
 13 28  2  0  0  0  0
 14 23  2  0  0  0  0
 14 25  1  0  0  0  0
 15 24  1  0  0  0  0
 15 25  2  0  0  0  0
 16 30  2  0  0  0  0
 16 31  1  0  0  0  0
 17 32  1  0  0  0  0
 18 32  1  0  0  0  0
 18 33  2  0  0  0  0
 18 34  1  0  0  0  0
 19 21  2  0  0  0  0
 19 39  1  0  0  0  0
 20 22  2  0  0  0  0
 20 40  1  0  0  0  0
 21 48  1  0  0  0  0
 22 41  1  0  0  0  0
 23 26  1  0  0  0  0
 23 51  1  0  0  0  0
 24 26  2  0  0  0  0
 24 52  1  0  0  0  0
 25 68  1  0  0  0  0
 26 67  1  0  0  0  0
 27 77  1  0  0  0  0
 28 78  1  0  0  0  0
 29 31  2  0  0  0  0
 29 77  1  0  0  0  0
 30 79  1  0  0  0  0
 31 80  1  0  0  0  0
 32 61  2  0  0  0  0
 33 62  1  0  0  0  0
 33 65  1  0  0  0  0
 34 66  1  0  0  0  0
 34 72  2  0  0  0  0
 35 49  1  0  0  0  0
 35 69  1  0  0  0  0
 35 73  2  0  0  0  0
 36 58  1  0  0  0  0
 36 63  1  0  0  0  0
 36 74  2  0  0  0  0
 37 59  1  0  0  0  0
 37 70  1  0  0  0  0
 37 75  2  0  0  0  0
 38 64  1  0  0  0  0
 38 67  1  0  0  0  0
 38 76  2  0  0  0  0
 39 42  1  0  0  0  0
 40 49  1  0  0  0  0
 41 63  1  0  0  0  0
 42 44  1  0  0  0  0
 43 45  1  0  0  0  0
 43 46  1  0  0  0  0
 44 48  1  0  0  0  0
 45 50  1  0  0  0  0
 46 64  1  0  0  0  0
 47 50  1  0  0  0  0
 47 64  1  0  0  0  0
 48 69  1  0  0  0  0
 49 63  1  0  0  0  0
 50 62  1  0  0  0  0
 53 59  1  0  0  0  0
 54 60  1  0  0  0  0
 55 60  1  0  0  0  0
 56 60  1  0  0  0  0
 57 71  1  0  0  0  0
 58 60  1  0  0  0  0
 58 70  1  0  0  0  0
 59 71  1  0  0  0  0
 61 62  1  0  0  0  0
 68 78  1  0  0  0  0
M  CHG  1  71   1
M  ISO  4  38 100  67 100  68 101  78 101
M  END
> <Batch ID>
0005

> <Smiles>
CNC(C)C(=O)NC(C(=O)N1Cc2cc([101O:1][101NH:1]c3cc(C)c([100NH:0][100C:0](=O)N4CCCC(n5nc(-c6ccc(Oc7ccc(F)cc7F)cc6)c(C(N)=O)c5N)C4)c(C)c3)ccc2CC1C(=O)NC1CCCc2ccccc21)C(C)(C)C

> <Shape>
0.350

> <Color>
0.128

> <Negative vol penalty>
0.000

$$$$

  -OEChem-04052315263D

 98106  0     1  0  0  0  0  0999 V2000
  -26.1382  -17.8674   17.3729 C   0  0  0  0  0  0  0  0  0  0  0  0
  -26.6869  -18.3621   18.5517 C   0  0  0  0  0  0  0  0  0  0  0  0
  -26.7830  -12.9167   21.6987 C   0  0  0  0  0  0  0  0  0  0  0  0
  -26.2441  -14.1844   19.7139 C   0  0  0  0  0  0  0  0  0  0  0  0
  -25.6393  -18.7482   16.4142 C   0  0  0  0  0  0  0  0  0  0  0  0
  -26.7380  -19.7380   18.7721 C   0  0  0  0  0  0  0  0  0  0  0  0
  -26.1280  -22.6329   24.1343 C   0  0  0  0  0  0  0  0  0  0  0  0
  -25.4661  -12.4621   21.7660 C   0  0  0  0  0  0  0  0  0  0  0  0
  -24.9271  -13.7298   19.7812 C   0  0  0  0  0  0  0  0  0  0  0  0
  -27.0605  -23.1508   25.0320 C   0  0  0  0  0  0  0  0  0  0  0  0
  -23.5577  -10.1221   20.2442 C   0  0  0  0  0  0  0  0  0  0  0  0
  -23.3523   -8.7654   20.4947 C   0  0  0  0  0  0  0  0  0  0  0  0
  -26.8030  -25.3311   24.0325 C   0  0  0  0  0  0  0  0  0  0  0  0
  -30.5992  -22.4313   17.1133 C   0  0  0  0  0  0  0  0  0  0  0  0
  -30.6889  -22.7872   19.8788 C   0  0  0  0  0  0  0  0  0  0  0  0
  -22.1287   -9.3214   22.5024 C   0  0  0  0  0  0  0  0  0  0  0  0
  -27.1720  -13.7779   20.6727 C   0  0  0  0  0  0  0  0  0  0  0  0
  -29.6071  -13.6434   19.9244 C   0  0  0  0  0  0  0  0  0  0  0  0
  -25.6755  -20.1353   16.6271 C   0  0  0  0  0  0  0  0  0  0  0  0
  -25.5331  -23.4594   23.1702 C   0  0  0  0  0  0  0  0  0  0  0  0
  -26.2403  -20.6383   17.8147 C   0  0  0  0  0  0  0  0  0  0  0  0
  -25.8613  -24.8219   23.1253 C   0  0  0  0  0  0  0  0  0  0  0  0
  -30.5439  -21.3250   17.9610 C   0  0  0  0  0  0  0  0  0  0  0  0
  -30.5887  -21.5029   19.3437 C   0  0  0  0  0  0  0  0  0  0  0  0
  -24.5381  -12.8686   20.8073 C   0  0  0  0  0  0  0  0  0  0  0  0
  -27.4003  -24.4995   24.9794 C   0  0  0  0  0  0  0  0  0  0  0  0
  -23.0488  -11.0785   21.1229 C   0  0  0  0  0  0  0  0  0  0  0  0
  -30.6995  -23.7156   17.6484 C   0  0  0  0  0  0  0  0  0  0  0  0
  -30.7443  -23.8935   19.0311 C   0  0  0  0  0  0  0  0  0  0  0  0
  -22.6377   -8.3650   21.6237 C   0  0  0  0  0  0  0  0  0  0  0  0
  -22.3342  -10.6781   22.2520 C   0  0  0  0  0  0  0  0  0  0  0  0
  -28.5322  -14.2483   20.6029 C   0  0  0  0  0  0  0  0  0  0  0  0
  -30.6749  -14.4735   20.1637 C   0  0  0  0  0  0  0  0  0  0  0  0
  -29.6377  -12.4389   19.1473 C   0  0  0  0  0  0  0  0  0  0  0  0
  -25.4897  -23.5273   19.9925 C   0  0  0  0  0  0  0  0  0  0  0  0
  -23.3438  -25.9143   20.4613 C   0  0  0  0  0  0  0  0  0  0  0  0
  -33.8609  -26.4528   17.5255 C   0  0  0  0  0  0  0  0  0  0  0  0
  -32.0254  -25.1025   24.6637 C   0  0  0  0  0  0  0  0  0  0  0  0
  -22.1231  -28.3506   22.5158 C   0  0  0  0  0  0  0  0  0  0  0  0
  -31.1122  -20.2844   21.4856 C   0  0  0  0  0  0  0  0  0  0  0  0
  -25.1670  -21.0499   15.5410 C   0  0  0  0  0  0  0  0  0  0  0  0
  -24.5091  -22.8911   22.2263 C   0  0  0  0  0  0  0  0  0  0  0  0
  -25.2360  -25.7556   22.1225 C   0  0  0  0  0  0  0  0  0  0  0  0
  -24.9179  -22.4793   16.0156 C   0  0  0  0  0  0  0  0  0  0  0  0
  -32.3627  -17.5627   23.4106 C   0  0  0  0  0  0  0  0  0  0  0  0
  -26.0969  -22.9798   16.8439 C   0  0  0  0  0  0  0  0  0  0  0  0
  -31.6247  -16.3480   22.8432 C   0  0  0  0  0  0  0  0  0  0  0  0
  -31.4704  -18.8021   23.4476 C   0  0  0  0  0  0  0  0  0  0  0  0
  -30.0890  -17.9276   21.6047 C   0  0  0  0  0  0  0  0  0  0  0  0
  -26.2910  -22.1234   18.1011 C   0  0  1  0  0  0  0  0  0  0  0  0
  -24.3488  -23.7147   20.9522 C   0  0  1  0  0  0  0  0  0  0  0  0
  -30.9670  -16.6710   21.4872 C   0  0  2  0  0  0  0  0  0  0  0  0
  -30.4382  -19.9609   17.3602 C   0  0  0  0  0  0  0  0  0  0  0  0
  -29.6473  -27.0670   20.3412 C   0  0  0  0  0  0  0  0  0  0  0  0
  -20.3914  -30.1644   22.6082 C   0  0  0  0  0  0  0  0  0  0  0  0
  -25.0774  -27.6582   18.6547 C   0  0  0  0  0  0  0  0  0  0  0  0
  -23.8585  -29.6602   19.5347 C   0  0  0  0  0  0  0  0  0  0  0  0
  -22.6157  -27.8958   18.2837 C   0  0  0  0  0  0  0  0  0  0  0  0
  -20.7643  -27.0956   24.8261 C   0  0  0  0  0  0  0  0  0  0  0  0
  -32.6247  -27.0399   16.8651 C   0  0  0  0  0  0  0  0  0  0  0  0
  -32.4131  -26.0571   23.5517 C   0  0  0  0  0  0  0  0  0  0  0  0
  -33.4460  -25.4590   22.5982 C   0  0  0  0  0  0  0  0  0  0  0  0
  -32.1874  -26.2931   15.6089 C   0  0  0  0  0  0  0  0  0  0  0  0
  -33.8827  -26.4473   21.5130 C   0  0  0  0  0  0  0  0  0  0  0  0
  -34.9370  -25.8299   20.5933 C   0  0  0  0  0  0  0  0  0  0  0  0
  -35.3455  -26.7974   19.4889 C   0  0  0  0  0  0  0  0  0  0  0  0
  -30.5695  -24.9213   26.6731 C   0  0  0  0  0  0  0  0  0  0  0  0
  -29.7883  -25.5624   20.4299 C   0  0  0  0  0  0  0  0  0  0  0  0
  -31.8338  -24.8362   15.8839 C   0  0  0  0  0  0  0  0  0  0  0  0
  -29.3281  -24.1218   26.3198 C   0  0  0  0  0  0  0  0  0  1  0  0
  -23.4304  -27.4123   20.6277 C   0  0  1  0  0  0  0  0  0  0  0  0
  -20.7047  -28.7095   22.9207 C   0  0  2  0  0  0  0  0  0  0  0  0
  -23.7589  -28.1389   19.2929 C   0  0  0  0  0  0  0  0  0  0  0  0
  -28.8849  -15.3755   21.2266 N   0  0  0  0  0  0  0  0  0  0  0  0
  -30.1935  -15.4855   20.9409 N   0  0  0  0  0  0  0  0  0  0  0  0
  -24.2450  -25.1511   21.2170 N   0  0  0  0  0  0  0  0  0  0  0  0
  -30.8855  -19.0487   22.1278 N   0  0  0  0  0  0  0  0  0  0  0  0
  -31.9693  -14.4291   19.7829 N   0  0  0  0  0  0  0  0  0  0  0  0
  -28.4513  -11.7067   19.0027 N   0  0  0  0  0  0  0  0  0  0  0  0
  -30.5336  -20.3918   20.2213 N   0  0  0  0  0  0  0  0  0  0  0  0
  -25.3160  -22.4784   19.1099 N   0  0  0  0  0  0  0  0  0  0  0  0
  -34.2253  -27.1621   18.6654 N   0  0  0  0  0  0  0  0  0  0  0  0
  -31.0871  -25.6356   25.5364 N   0  0  0  0  0  0  0  0  0  0  0  0
  -22.1735  -27.8281   21.2408 N   0  0  0  0  0  0  0  0  0  0  0  0
  -20.5122  -28.4907   24.3822 N   0  3  0  0  0  0  0  0  0  0  0  0
  -30.6896  -12.0154   18.6110 O   0  0  0  0  0  0  0  0  0  0  0  0
  -26.4554  -24.2797   20.0478 O   0  0  0  0  0  0  0  0  0  0  0  0
  -22.5027  -25.4387   19.6946 O   0  0  0  0  0  0  0  0  0  0  0  0
  -34.4423  -25.4569   17.1034 O   0  0  0  0  0  0  0  0  0  0  0  0
  -32.5203  -23.9806   24.7497 O   0  0  0  0  0  0  0  0  0  0  0  0
  -23.0901  -28.5205   23.2552 O   0  0  0  0  0  0  0  0  0  0  0  0
  -31.7938  -21.1710   22.0064 O   0  0  0  0  0  0  0  0  0  0  0  0
  -23.2530  -12.4251   20.8725 O   0  0  0  0  0  0  0  0  0  0  0  0
  -28.3107  -25.0074   25.8541 O   0  0  0  0  0  0  0  0  0  1  0  0
  -30.7520  -24.7947   16.8051 O   0  0  0  0  0  0  0  0  0  0  0  0
  -30.8422  -25.1428   19.5655 O   0  0  0  0  0  0  0  0  0  0  0  0
  -22.4392   -7.0622   21.8633 F   0  0  0  0  0  0  0  0  0  0  0  0
  -21.8418  -11.5923   23.0991 F   0  0  0  0  0  0  0  0  0  0  0  0
  1  2  1  0  0  0  0
  1  5  2  0  0  0  0
  2  6  2  0  0  0  0
  3  8  2  0  0  0  0
  3 17  1  0  0  0  0
  4  9  1  0  0  0  0
  4 17  2  0  0  0  0
  5 19  1  0  0  0  0
  6 21  1  0  0  0  0
  7 10  2  0  0  0  0
  7 20  1  0  0  0  0
  8 25  1  0  0  0  0
  9 25  2  0  0  0  0
 10 26  1  0  0  0  0
 11 12  2  0  0  0  0
 11 27  1  0  0  0  0
 12 30  1  0  0  0  0
 13 22  1  0  0  0  0
 13 26  2  0  0  0  0
 14 23  2  0  0  0  0
 14 28  1  0  0  0  0
 15 24  2  0  0  0  0
 15 29  1  0  0  0  0
 16 30  2  0  0  0  0
 16 31  1  0  0  0  0
 17 32  1  0  0  0  0
 18 32  1  0  0  0  0
 18 33  2  0  0  0  0
 18 34  1  0  0  0  0
 19 21  2  0  0  0  0
 19 41  1  0  0  0  0
 20 22  2  0  0  0  0
 20 42  1  0  0  0  0
 21 50  1  0  0  0  0
 22 43  1  0  0  0  0
 23 24  1  0  0  0  0
 23 53  1  0  0  0  0
 24 80  1  0  0  0  0
 25 93  1  0  0  0  0
 26 94  1  0  0  0  0
 27 31  2  0  0  0  0
 27 93  1  0  0  0  0
 28 29  2  0  0  0  0
 28 95  1  0  0  0  0
 29 96  1  0  0  0  0
 30 97  1  0  0  0  0
 31 98  1  0  0  0  0
 32 74  2  0  0  0  0
 33 75  1  0  0  0  0
 33 78  1  0  0  0  0
 34 79  1  0  0  0  0
 34 86  2  0  0  0  0
 35 51  1  0  0  0  0
 35 81  1  0  0  0  0
 35 87  2  0  0  0  0
 36 71  1  0  0  0  0
 36 76  1  0  0  0  0
 36 88  2  0  0  0  0
 37 60  1  0  0  0  0
 37 82  1  0  0  0  0
 37 89  2  0  0  0  0
 38 61  1  0  0  0  0
 38 83  1  0  0  0  0
 38 90  2  0  0  0  0
 39 72  1  0  0  0  0
 39 84  1  0  0  0  0
 39 91  2  0  0  0  0
 40 77  1  0  0  0  0
 40 80  1  0  0  0  0
 40 92  2  0  0  0  0
 41 44  1  0  0  0  0
 42 51  1  0  0  0  0
 43 76  1  0  0  0  0
 44 46  1  0  0  0  0
 45 47  1  0  0  0  0
 45 48  1  0  0  0  0
 46 50  1  0  0  0  0
 47 52  1  0  0  0  0
 48 77  1  0  0  0  0
 49 52  1  0  0  0  0
 49 77  1  0  0  0  0
 50 81  1  0  0  0  0
 51 76  1  0  0  0  0
 52 75  1  0  0  0  0
 54 68  1  0  0  0  0
 55 72  1  0  0  0  0
 56 73  1  0  0  0  0
 57 73  1  0  0  0  0
 58 73  1  0  0  0  0
 59 85  1  0  0  0  0
 60 63  1  0  0  0  0
 61 62  1  0  0  0  0
 62 64  1  0  0  0  0
 63 69  1  0  0  0  0
 64 65  1  0  0  0  0
 65 66  1  0  0  0  0
 66 82  1  0  0  0  0
 67 70  1  0  0  0  0
 67 83  1  0  0  0  0
 68 96  1  0  0  0  0
 69 95  1  0  0  0  0
 70 94  1  0  0  0  0
 71 73  1  0  0  0  0
 71 84  1  0  0  0  0
 72 85  1  0  0  0  0
 74 75  1  0  0  0  0
M  CHG  1  85   1
M  ISO  4  40 100  70 101  80 100  94 101
M  END
> <Batch ID>
0005

> <Smiles>
CCOc1cc([100NH:0][100C:0](=O)N2CCCC(n3nc(-c4ccc(Oc5ccc(F)cc5F)cc4)c(C(N)=O)c3N)C2)c(C)cc1OCCCC(=O)NCCCCCC(=O)NC[101CH2:1][101O:1]c1ccc2c(c1)CN(C(=O)C(NC(=O)C(C)NC)C(C)(C)C)C(C(=O)NC1CCCc3ccccc31)C2

> <Shape>
0.227

> <Color>
0.066

> <Negative vol penalty>
0.000

$$$$

  -OEChem-04052315263D

 82 90  0     1  0  0  0  0  0999 V2000
  -28.4353  -32.7061   28.2182 C   0  0  0  0  0  0  0  0  0  0  0  0
  -28.3458  -31.6820   27.2809 C   0  0  0  0  0  0  0  0  0  0  0  0
  -24.6068   -8.6828   21.4336 C   0  0  0  0  0  0  0  0  0  0  0  0
  -23.1647  -10.6099   21.2236 C   0  0  0  0  0  0  0  0  0  0  0  0
  -27.3849  -33.6115   28.3622 C   0  0  0  0  0  0  0  0  0  0  0  0
  -27.2053  -31.5621   26.4876 C   0  0  0  0  0  0  0  0  0  0  0  0
  -28.3058  -30.6897   21.6222 C   0  0  0  0  0  0  0  0  0  0  0  0
  -26.1556  -18.0367   19.7879 C   0  0  0  0  0  0  0  0  0  0  0  0
  -28.3999  -18.4803   20.5646 C   0  0  0  0  0  0  0  0  0  0  0  0
  -23.7770   -8.1705   22.4309 C   0  0  0  0  0  0  0  0  0  0  0  0
  -22.3349  -10.0975   22.2208 C   0  0  0  0  0  0  0  0  0  0  0  0
  -28.6745  -29.3905   21.2758 C   0  0  0  0  0  0  0  0  0  0  0  0
  -25.7701  -19.3223   20.1677 C   0  0  0  0  0  0  0  0  0  0  0  0
  -28.0144  -19.7659   20.9444 C   0  0  0  0  0  0  0  0  0  0  0  0
  -20.8206   -6.5402   22.6173 C   0  0  0  0  0  0  0  0  0  0  0  0
  -20.4844   -5.1882   22.5496 C   0  0  0  0  0  0  0  0  0  0  0  0
  -26.4414  -28.9805   20.4607 C   0  0  0  0  0  0  0  0  0  0  0  0
  -21.5037   -4.8265   24.7100 C   0  0  0  0  0  0  0  0  0  0  0  0
  -24.3007   -9.9026   20.8300 C   0  0  0  0  0  0  0  0  0  0  0  0
  -25.0599  -10.2084   18.4139 C   0  0  0  0  0  0  0  0  0  0  0  0
  -26.2350  -33.5084   27.5636 C   0  0  0  0  0  0  0  0  0  0  0  0
  -26.9969  -31.1413   21.4000 C   0  0  0  0  0  0  0  0  0  0  0  0
  -26.1379  -32.4662   26.6220 C   0  0  0  0  0  0  0  0  0  0  0  0
  -26.0593  -30.2867   20.8028 C   0  0  0  0  0  0  0  0  0  0  0  0
  -27.4705  -17.6157   19.9865 C   0  0  0  0  0  0  0  0  0  0  0  0
  -22.6410   -8.8778   22.8245 C   0  0  0  0  0  0  0  0  0  0  0  0
  -26.6994  -20.1869   20.7459 C   0  0  0  0  0  0  0  0  0  0  0  0
  -27.7415  -28.5347   20.6976 C   0  0  0  0  0  0  0  0  0  0  0  0
  -21.4985   -7.0354   23.7313 C   0  0  0  0  0  0  0  0  0  0  0  0
  -20.8259   -4.3313   23.5960 C   0  0  0  0  0  0  0  0  0  0  0  0
  -21.8400   -6.1786   24.7777 C   0  0  0  0  0  0  0  0  0  0  0  0
  -25.1578  -10.4326   19.8002 C   0  0  0  0  0  0  0  0  0  0  0  0
  -26.0985  -10.9280   17.8755 C   0  0  0  0  0  0  0  0  0  0  0  0
  -24.1145   -9.4203   17.6785 C   0  0  0  0  0  0  0  0  0  0  0  0
  -24.6350  -32.1752   23.2590 C   0  0  0  0  0  0  0  0  0  0  0  0
  -23.1907  -32.7871   20.4197 C   0  0  0  0  0  0  0  0  0  0  0  0
  -22.9348  -32.0878   17.0892 C   0  0  0  0  0  0  0  0  0  0  0  0
  -29.1265  -15.7349   19.7276 C   0  0  0  0  0  0  0  0  0  0  0  0
  -25.1055  -34.4823   27.7882 C   0  0  0  0  0  0  0  0  0  0  0  0
  -26.6224  -32.5541   21.7548 C   0  0  0  0  0  0  0  0  0  0  0  0
  -24.6469  -30.7295   20.5247 C   0  0  0  0  0  0  0  0  0  0  0  0
  -24.0901  -34.5107   26.6487 C   0  0  0  0  0  0  0  0  0  0  0  0
  -30.4822  -12.5399   18.9334 C   0  0  0  0  0  0  0  0  0  0  0  0
  -23.7074  -33.0920   26.2391 C   0  0  0  0  0  0  0  0  0  0  0  0
  -29.2609  -11.6176   18.9334 C   0  0  0  0  0  0  0  0  0  0  0  0
  -30.3839  -13.6113   20.0179 C   0  0  0  0  0  0  0  0  0  0  0  0
  -27.9240  -13.4777   20.0009 C   0  0  0  0  0  0  0  0  0  0  0  0
  -24.9276  -32.3180   25.7258 C   0  0  1  0  0  0  0  0  0  0  0  0
  -25.1217  -32.7420   21.9554 C   0  0  1  0  0  0  0  0  0  0  0  0
  -27.9472  -12.4222   18.8833 C   0  0  2  0  0  0  0  0  0  0  0  0
  -21.6379  -32.7230   15.0369 C   0  0  0  0  0  0  0  0  0  0  0  0
  -20.8142  -31.1552   21.4192 C   0  0  0  0  0  0  0  0  0  0  0  0
  -19.9998  -31.0231   19.0554 C   0  0  0  0  0  0  0  0  0  0  0  0
  -20.2013  -33.2399   20.1813 C   0  0  0  0  0  0  0  0  0  0  0  0
  -25.3721  -33.0292   15.6991 C   0  0  0  0  0  0  0  0  0  0  0  0
  -26.6764  -23.8123   20.7993 C   0  0  0  0  0  0  0  0  0  0  0  0
  -27.7164  -24.9244   20.7195 C   0  0  0  0  0  0  0  0  0  0  0  0
  -27.3204  -22.4594   21.0714 C   0  0  0  0  0  0  0  0  0  0  0  0
  -27.0778  -26.2698   20.4050 C   0  0  0  0  0  0  0  0  0  1  0  0
  -22.2967  -32.0084   19.4852 C   0  0  1  0  0  0  0  0  0  0  0  0
  -22.8805  -32.9923   15.8712 C   0  0  2  0  0  0  0  0  0  0  0  0
  -20.8540  -31.8474   20.0422 C   0  0  0  0  0  0  0  0  0  0  0  0
  -26.1782  -11.2319   20.1225 N   0  0  0  0  0  0  0  0  0  0  0  0
  -26.7310  -11.5163   18.9310 N   0  0  0  0  0  0  0  0  0  0  0  0
  -24.3273  -32.1181   20.8953 N   0  0  0  0  0  0  0  0  0  0  0  0
  -29.1157  -14.3353   19.9056 N   0  0  0  0  0  0  0  0  0  0  0  0
  -26.5234  -11.1086   16.6069 N   0  0  0  0  0  0  0  0  0  0  0  0
  -23.1114   -8.7460   18.3881 N   0  0  0  0  0  0  0  0  0  0  0  0
  -27.8623  -16.3097   19.6008 N   0  0  0  0  0  0  0  0  0  0  0  0
  -25.2473  -32.7184   24.3723 N   0  0  0  0  0  0  0  0  0  0  0  0
  -22.3669  -32.6850   18.1946 N   0  0  0  0  0  0  0  0  0  0  0  0
  -24.0791  -32.7769   15.0123 N   0  3  0  0  0  0  0  0  0  0  0  0
  -24.1679   -9.3037   16.4307 O   0  0  0  0  0  0  0  0  0  0  0  0
  -23.7670  -31.3102   23.2552 O   0  0  0  0  0  0  0  0  0  0  0  0
  -22.8953  -33.9488   20.7110 O   0  0  0  0  0  0  0  0  0  0  0  0
  -23.4280  -30.9624   17.0617 O   0  0  0  0  0  0  0  0  0  0  0  0
  -30.1805  -16.3728   19.6632 O   0  0  0  0  0  0  0  0  0  0  0  0
  -21.8309   -8.3781   23.7974 O   0  0  0  0  0  0  0  0  0  0  0  0
  -26.3207  -21.4501   21.1190 O   0  0  0  0  0  0  0  0  0  0  0  0
  -28.0986  -27.2660   20.3592 O   0  0  0  0  0  0  0  0  0  1  0  0
  -20.5016   -3.0333   23.5315 F   0  0  0  0  0  0  0  0  0  0  0  0
  -22.4902   -6.6487   25.8510 F   0  0  0  0  0  0  0  0  0  0  0  0
  1  2  1  0  0  0  0
  1  5  2  0  0  0  0
  2  6  2  0  0  0  0
  3 10  2  0  0  0  0
  3 19  1  0  0  0  0
  4 11  1  0  0  0  0
  4 19  2  0  0  0  0
  5 21  1  0  0  0  0
  6 23  1  0  0  0  0
  7 12  2  0  0  0  0
  7 22  1  0  0  0  0
  8 13  2  0  0  0  0
  8 25  1  0  0  0  0
  9 14  1  0  0  0  0
  9 25  2  0  0  0  0
 10 26  1  0  0  0  0
 11 26  2  0  0  0  0
 12 28  1  0  0  0  0
 13 27  1  0  0  0  0
 14 27  2  0  0  0  0
 15 16  2  0  0  0  0
 15 29  1  0  0  0  0
 16 30  1  0  0  0  0
 17 24  1  0  0  0  0
 17 28  2  0  0  0  0
 18 30  2  0  0  0  0
 18 31  1  0  0  0  0
 19 32  1  0  0  0  0
 20 32  1  0  0  0  0
 20 33  2  0  0  0  0
 20 34  1  0  0  0  0
 21 23  2  0  0  0  0
 21 39  1  0  0  0  0
 22 24  2  0  0  0  0
 22 40  1  0  0  0  0
 23 48  1  0  0  0  0
 24 41  1  0  0  0  0
 25 69  1  0  0  0  0
 26 78  1  0  0  0  0
 27 79  1  0  0  0  0
 28 80  1  0  0  0  0
 29 31  2  0  0  0  0
 29 78  1  0  0  0  0
 30 81  1  0  0  0  0
 31 82  1  0  0  0  0
 32 63  2  0  0  0  0
 33 64  1  0  0  0  0
 33 67  1  0  0  0  0
 34 68  1  0  0  0  0
 34 73  2  0  0  0  0
 35 49  1  0  0  0  0
 35 70  1  0  0  0  0
 35 74  2  0  0  0  0
 36 60  1  0  0  0  0
 36 65  1  0  0  0  0
 36 75  2  0  0  0  0
 37 61  1  0  0  0  0
 37 71  1  0  0  0  0
 37 76  2  0  0  0  0
 38 66  1  0  0  0  0
 38 69  1  0  0  0  0
 38 77  2  0  0  0  0
 39 42  1  0  0  0  0
 40 49  1  0  0  0  0
 41 65  1  0  0  0  0
 42 44  1  0  0  0  0
 43 45  1  0  0  0  0
 43 46  1  0  0  0  0
 44 48  1  0  0  0  0
 45 50  1  0  0  0  0
 46 66  1  0  0  0  0
 47 50  1  0  0  0  0
 47 66  1  0  0  0  0
 48 70  1  0  0  0  0
 49 65  1  0  0  0  0
 50 64  1  0  0  0  0
 51 61  1  0  0  0  0
 52 62  1  0  0  0  0
 53 62  1  0  0  0  0
 54 62  1  0  0  0  0
 55 72  1  0  0  0  0
 56 57  1  0  0  0  0
 56 58  1  0  0  0  0
 57 59  1  0  0  0  0
 58 79  1  0  0  0  0
 59 80  1  0  0  0  0
 60 62  1  0  0  0  0
 60 71  1  0  0  0  0
 61 72  1  0  0  0  0
 63 64  1  0  0  0  0
M  CHG  1  72   1
M  ISO  4  38 100  59 101  69 100  80 101
M  END
> <Batch ID>
0005

> <Smiles>
CNC(C)C(=O)NC(C(=O)N1Cc2cc([101O:1][101CH2:1]CCCOc3ccc([100NH:0][100C:0](=O)N4CCCC(n5nc(-c6ccc(Oc7ccc(F)cc7F)cc6)c(C(N)=O)c5N)C4)cc3)ccc2CC1C(=O)NC1CCCc2ccccc21)C(C)(C)C

> <Shape>
0.243

> <Color>
0.082

> <Negative vol penalty>
0.000

$$$$

  -OEChem-04052315263D

 82 90  0     1  0  0  0  0  0999 V2000
  -29.4672  -33.9674   26.0575 C   0  0  0  0  0  0  0  0  0  0  0  0
  -29.6188  -32.8719   25.2135 C   0  0  0  0  0  0  0  0  0  0  0  0
  -24.6252   -9.0147   21.3673 C   0  0  0  0  0  0  0  0  0  0  0  0
  -23.3766  -10.8879   22.2444 C   0  0  0  0  0  0  0  0  0  0  0  0
  -28.2412  -34.2032   26.6783 C   0  0  0  0  0  0  0  0  0  0  0  0
  -28.5449  -32.0108   24.9908 C   0  0  0  0  0  0  0  0  0  0  0  0
  -27.2104  -29.0574   19.7944 C   0  0  0  0  0  0  0  0  0  0  0  0
  -27.8372  -20.4031   20.0854 C   0  0  0  0  0  0  0  0  0  0  0  0
  -28.2619  -19.0861   20.2607 C   0  0  0  0  0  0  0  0  0  0  0  0
  -24.0847   -8.1918   22.3553 C   0  0  0  0  0  0  0  0  0  0  0  0
  -22.8361  -10.0649   23.2324 C   0  0  0  0  0  0  0  0  0  0  0  0
  -27.4532  -27.7523   19.3684 C   0  0  0  0  0  0  0  0  0  0  0  0
  -21.1762   -6.5642   22.9251 C   0  0  0  0  0  0  0  0  0  0  0  0
  -20.7078   -5.3086   22.5382 C   0  0  0  0  0  0  0  0  0  0  0  0
  -25.2408  -27.1127   20.0866 C   0  0  0  0  0  0  0  0  0  0  0  0
  -25.8207  -19.9178   21.3245 C   0  0  0  0  0  0  0  0  0  0  0  0
  -22.2843   -4.2583   24.0377 C   0  0  0  0  0  0  0  0  0  0  0  0
  -24.2712  -10.3628   21.3118 C   0  0  0  0  0  0  0  0  0  0  0  0
  -24.3028  -11.4627   19.0103 C   0  0  0  0  0  0  0  0  0  0  0  0
  -27.1489  -33.3500   26.4555 C   0  0  0  0  0  0  0  0  0  0  0  0
  -25.9829  -29.3980   20.3807 C   0  0  0  0  0  0  0  0  0  0  0  0
  -27.3036  -32.2346   25.6103 C   0  0  0  0  0  0  0  0  0  0  0  0
  -24.9840  -28.4234   20.5169 C   0  0  0  0  0  0  0  0  0  0  0  0
  -26.6166  -20.8190   20.6174 C   0  0  0  0  0  0  0  0  0  0  0  0
  -27.4660  -18.1849   20.9679 C   0  0  0  0  0  0  0  0  0  0  0  0
  -23.1901   -8.7168   23.2878 C   0  0  0  0  0  0  0  0  0  0  0  0
  -26.4694  -26.7790   19.5171 C   0  0  0  0  0  0  0  0  0  0  0  0
  -22.1988   -6.6668   23.8683 C   0  0  0  0  0  0  0  0  0  0  0  0
  -21.2617   -4.1557   23.0945 C   0  0  0  0  0  0  0  0  0  0  0  0
  -26.2454  -18.6007   21.4998 C   0  0  0  0  0  0  0  0  0  0  0  0
  -22.7528   -5.5139   24.4246 C   0  0  0  0  0  0  0  0  0  0  0  0
  -24.8296  -11.2135   20.2918 C   0  0  0  0  0  0  0  0  0  0  0  0
  -25.1979  -12.3304   18.4338 C   0  0  0  0  0  0  0  0  0  0  0  0
  -23.1108  -10.9552   18.3960 C   0  0  0  0  0  0  0  0  0  0  0  0
  -25.0829  -30.4916   23.2264 C   0  0  0  0  0  0  0  0  0  0  0  0
  -22.1752  -30.6797   21.8008 C   0  0  0  0  0  0  0  0  0  0  0  0
  -26.8471  -23.1760   19.7659 C   0  0  0  0  0  0  0  0  0  0  0  0
  -20.0783  -29.5848   19.3409 C   0  0  0  0  0  0  0  0  0  0  0  0
  -29.0837  -16.2754   20.6792 C   0  0  0  0  0  0  0  0  0  0  0  0
  -25.8571  -33.6187   27.1860 C   0  0  0  0  0  0  0  0  0  0  0  0
  -25.7269  -30.8165   20.8106 C   0  0  0  0  0  0  0  0  0  0  0  0
  -23.6420  -28.7425   21.1214 C   0  0  0  0  0  0  0  0  0  0  0  0
  -24.6608  -32.8708   26.6031 C   0  0  0  0  0  0  0  0  0  0  0  0
  -29.8307  -13.5400   18.5259 C   0  0  0  0  0  0  0  0  0  0  0  0
  -25.0179  -31.4102   26.3463 C   0  0  0  0  0  0  0  0  0  0  0  0
  -28.5825  -12.6587   18.6130 C   0  0  0  0  0  0  0  0  0  0  0  0
  -30.1620  -14.1884   19.8688 C   0  0  0  0  0  0  0  0  0  0  0  0
  -27.8074  -14.0446   20.5791 C   0  0  0  0  0  0  0  0  0  0  0  0
  -26.1549  -31.2918   25.3243 C   0  0  1  0  0  0  0  0  0  0  0  0
  -24.6291  -30.9327   21.8636 C   0  0  1  0  0  0  0  0  0  0  0  0
  -27.3964  -13.4214   19.2351 C   0  0  2  0  0  0  0  0  0  0  0  0
  -17.7523  -29.8963   18.4521 C   0  0  0  0  0  0  0  0  0  0  0  0
  -21.0714  -29.0300   24.1181 C   0  0  0  0  0  0  0  0  0  0  0  0
  -19.0360  -28.5747   22.7331 C   0  0  0  0  0  0  0  0  0  0  0  0
  -19.6003  -30.9152   23.3859 C   0  0  0  0  0  0  0  0  0  0  0  0
  -21.0811  -30.5085   16.7141 C   0  0  0  0  0  0  0  0  0  0  0  0
  -26.0374  -24.4587   19.8089 C   0  0  0  0  0  0  0  0  0  1  0  0
  -21.0019  -29.7439   21.6379 C   0  0  1  0  0  0  0  0  0  0  0  0
  -19.2045  -30.3371   18.3535 C   0  0  2  0  0  0  0  0  0  0  0  0
  -20.2033  -29.5592   22.9591 C   0  0  0  0  0  0  0  0  0  0  0  0
  -25.9711  -11.8698   20.5165 N   0  0  0  0  0  0  0  0  0  0  0  0
  -26.1688  -12.5398   19.3684 N   0  0  0  0  0  0  0  0  0  0  0  0
  -23.4420  -30.1421   21.5322 N   0  0  0  0  0  0  0  0  0  0  0  0
  -28.9930  -14.8963   20.3953 N   0  0  0  0  0  0  0  0  0  0  0  0
  -25.2413  -12.9269   17.2236 N   0  0  0  0  0  0  0  0  0  0  0  0
  -22.3047  -10.0736   19.1291 N   0  0  0  0  0  0  0  0  0  0  0  0
  -26.1853  -22.1549   20.4391 N   0  0  0  0  0  0  0  0  0  0  0  0
  -27.8999  -16.8475   21.1438 N   0  0  0  0  0  0  0  0  0  0  0  0
  -25.6524  -31.4980   23.9829 N   0  0  0  0  0  0  0  0  0  0  0  0
  -20.2112  -30.2696   20.5303 N   0  0  0  0  0  0  0  0  0  0  0  0
  -19.6744  -30.0985   16.9595 N   0  3  0  0  0  0  0  0  0  0  0  0
  -22.7792  -11.2612   17.2256 O   0  0  0  0  0  0  0  0  0  0  0  0
  -24.9266  -29.3248   23.5669 O   0  0  0  0  0  0  0  0  0  0  0  0
  -21.9746  -31.8467   22.1465 O   0  0  0  0  0  0  0  0  0  0  0  0
  -27.9319  -23.1198   19.1960 O   0  0  0  0  0  0  0  0  0  0  0  0
  -20.5887  -28.4966   19.0842 O   0  0  0  0  0  0  0  0  0  0  0  0
  -30.1266  -16.9085   20.4960 O   0  0  0  0  0  0  0  0  0  0  0  0
  -22.6623   -7.9141   24.2519 O   0  0  0  0  0  0  0  0  0  0  0  0
  -26.7040  -25.5042   19.1027 O   0  0  0  0  0  0  0  0  0  1  0  0
  -20.8107   -2.9501   22.7240 F   0  0  0  0  0  0  0  0  0  0  0  0
  -25.4715  -17.7428   22.1800 F   0  0  0  0  0  0  0  0  0  0  0  0
  -23.7346   -5.6062   25.3320 F   0  0  0  0  0  0  0  0  0  0  0  0
  1  2  1  0  0  0  0
  1  5  2  0  0  0  0
  2  6  2  0  0  0  0
  3 10  2  0  0  0  0
  3 18  1  0  0  0  0
  4 11  1  0  0  0  0
  4 18  2  0  0  0  0
  5 20  1  0  0  0  0
  6 22  1  0  0  0  0
  7 12  2  0  0  0  0
  7 21  1  0  0  0  0
  8  9  2  0  0  0  0
  8 24  1  0  0  0  0
  9 25  1  0  0  0  0
 10 26  1  0  0  0  0
 11 26  2  0  0  0  0
 12 27  1  0  0  0  0
 13 14  2  0  0  0  0
 13 28  1  0  0  0  0
 14 29  1  0  0  0  0
 15 23  1  0  0  0  0
 15 27  2  0  0  0  0
 16 24  2  0  0  0  0
 16 30  1  0  0  0  0
 17 29  2  0  0  0  0
 17 31  1  0  0  0  0
 18 32  1  0  0  0  0
 19 32  1  0  0  0  0
 19 33  2  0  0  0  0
 19 34  1  0  0  0  0
 20 22  2  0  0  0  0
 20 40  1  0  0  0  0
 21 23  2  0  0  0  0
 21 41  1  0  0  0  0
 22 49  1  0  0  0  0
 23 42  1  0  0  0  0
 24 67  1  0  0  0  0
 25 30  2  0  0  0  0
 25 68  1  0  0  0  0
 26 78  1  0  0  0  0
 27 79  1  0  0  0  0
 28 31  2  0  0  0  0
 28 78  1  0  0  0  0
 29 80  1  0  0  0  0
 30 81  1  0  0  0  0
 31 82  1  0  0  0  0
 32 61  2  0  0  0  0
 33 62  1  0  0  0  0
 33 65  1  0  0  0  0
 34 66  1  0  0  0  0
 34 72  2  0  0  0  0
 35 50  1  0  0  0  0
 35 69  1  0  0  0  0
 35 73  2  0  0  0  0
 36 58  1  0  0  0  0
 36 63  1  0  0  0  0
 36 74  2  0  0  0  0
 37 57  1  0  0  0  0
 37 67  1  0  0  0  0
 37 75  2  0  0  0  0
 38 59  1  0  0  0  0
 38 70  1  0  0  0  0
 38 76  2  0  0  0  0
 39 64  1  0  0  0  0
 39 68  1  0  0  0  0
 39 77  2  0  0  0  0
 40 43  1  0  0  0  0
 41 50  1  0  0  0  0
 42 63  1  0  0  0  0
 43 45  1  0  0  0  0
 44 46  1  0  0  0  0
 44 47  1  0  0  0  0
 45 49  1  0  0  0  0
 46 51  1  0  0  0  0
 47 64  1  0  0  0  0
 48 51  1  0  0  0  0
 48 64  1  0  0  0  0
 49 69  1  0  0  0  0
 50 63  1  0  0  0  0
 51 62  1  0  0  0  0
 52 59  1  0  0  0  0
 53 60  1  0  0  0  0
 54 60  1  0  0  0  0
 55 60  1  0  0  0  0
 56 71  1  0  0  0  0
 57 79  1  0  0  0  0
 58 60  1  0  0  0  0
 58 70  1  0  0  0  0
 59 71  1  0  0  0  0
 61 62  1  0  0  0  0
M  CHG  1  71   1
M  ISO  4  39 100  57 101  68 100  79 101
M  END
> <Batch ID>
0005

> <Smiles>
CNC(C)C(=O)NC(C(=O)N1Cc2cc([101O:1][101CH2:1]C(=O)Nc3ccc([100NH:0][100C:0](=O)N4CCCC(n5nc(-c6ccc(Oc7ccc(F)cc7F)cc6)c(C(N)=O)c5N)C4)c(F)c3)ccc2CC1C(=O)NC1CCCc2ccccc21)C(C)(C)C

> <Shape>
0.309

> <Color>
0.101

> <Negative vol penalty>
0.000

$$$$

  -OEChem-04052315263D

 95103  0     1  0  0  0  0  0999 V2000
  -21.5960  -38.4369   20.2243 C   0  0  0  0  0  0  0  0  0  0  0  0
  -22.7795  -38.0264   19.6193 C   0  0  0  0  0  0  0  0  0  0  0  0
  -22.5866   -7.4776   19.1578 C   0  0  0  0  0  0  0  0  0  0  0  0
  -23.5559   -9.5147   20.0226 C   0  0  0  0  0  0  0  0  0  0  0  0
  -30.4021  -13.3255   21.4418 C   0  0  0  0  0  0  0  0  0  0  0  0
  -31.6616  -14.3505   19.6529 C   0  0  0  0  0  0  0  0  0  0  0  0
  -21.3495  -38.1179   21.5590 C   0  0  0  0  0  0  0  0  0  0  0  0
  -23.7179  -37.2975   20.3491 C   0  0  0  0  0  0  0  0  0  0  0  0
  -26.8841  -30.3132   18.8585 C   0  0  0  0  0  0  0  0  0  0  0  0
  -30.6222  -12.0692   20.8770 C   0  0  0  0  0  0  0  0  0  0  0  0
  -31.8817  -13.0942   19.0881 C   0  0  0  0  0  0  0  0  0  0  0  0
  -21.9821   -7.2411   20.3923 C   0  0  0  0  0  0  0  0  0  0  0  0
  -22.9512   -9.2782   21.2572 C   0  0  0  0  0  0  0  0  0  0  0  0
  -27.3947  -29.0171   18.7840 C   0  0  0  0  0  0  0  0  0  0  0  0
  -20.4764   -5.9163   23.4258 C   0  0  0  0  0  0  0  0  0  0  0  0
  -20.5478   -4.6248   23.9478 C   0  0  0  0  0  0  0  0  0  0  0  0
  -27.6323  -28.9608   21.1899 C   0  0  0  0  0  0  0  0  0  0  0  0
  -22.9602   -4.7580   23.9470 C   0  0  0  0  0  0  0  0  0  0  0  0
  -23.3736   -8.6144   18.9729 C   0  0  0  0  0  0  0  0  0  0  0  0
  -30.9217  -14.4661   20.8297 C   0  0  0  0  0  0  0  0  0  0  0  0
  -23.4624   -9.5756   16.6116 C   0  0  0  0  0  0  0  0  0  0  0  0
  -22.2810  -37.3764   22.3027 C   0  0  0  0  0  0  0  0  0  0  0  0
  -26.7311  -30.9330   20.1018 C   0  0  0  0  0  0  0  0  0  0  0  0
  -23.4843  -36.9694   21.6954 C   0  0  0  0  0  0  0  0  0  0  0  0
  -27.1097  -30.2543   21.2718 C   0  0  0  0  0  0  0  0  0  0  0  0
  -31.3620  -11.9536   19.7002 C   0  0  0  0  0  0  0  0  0  0  0  0
  -22.1643   -8.1414   21.4420 C   0  0  0  0  0  0  0  0  0  0  0  0
  -27.7681  -28.3427   19.9468 C   0  0  0  0  0  0  0  0  0  0  0  0
  -21.6469   -6.6286   23.1643 C   0  0  0  0  0  0  0  0  0  0  0  0
  -21.7897   -4.0456   24.2084 C   0  0  0  0  0  0  0  0  0  0  0  0
  -22.8887   -6.0495   23.4250 C   0  0  0  0  0  0  0  0  0  0  0  0
  -23.9989   -8.8589   17.6981 C   0  0  0  0  0  0  0  0  0  0  0  0
  -24.4396   -9.5208   15.6480 C   0  0  0  0  0  0  0  0  0  0  0  0
  -30.6888  -15.7969   21.4278 C   0  0  0  0  0  0  0  0  0  0  0  0
  -22.1942  -10.2323   16.4849 C   0  0  0  0  0  0  0  0  0  0  0  0
  -25.6302  -33.9767   21.9991 C   0  0  0  0  0  0  0  0  0  0  0  0
  -24.7049  -31.5377   23.6132 C   0  0  0  0  0  0  0  0  0  0  0  0
  -28.9945  -17.4732   22.1319 C   0  0  0  0  0  0  0  0  0  0  0  0
  -23.4971  -28.6050   24.8694 C   0  0  0  0  0  0  0  0  0  0  0  0
  -30.3764   -8.7841   15.8986 C   0  0  0  0  0  0  0  0  0  0  0  0
  -21.9916  -37.0962   23.7561 C   0  0  0  0  0  0  0  0  0  0  0  0
  -26.2429  -32.3509   20.2249 C   0  0  0  0  0  0  0  0  0  0  0  0
  -26.9597  -30.9734   22.5846 C   0  0  0  0  0  0  0  0  0  0  0  0
  -22.8698  -35.9987   24.3515 C   0  0  0  0  0  0  0  0  0  0  0  0
  -28.0421   -6.7675   14.1208 C   0  0  0  0  0  0  0  0  0  0  0  0
  -24.3300  -36.2164   23.9677 C   0  0  0  0  0  0  0  0  0  0  0  0
  -26.6928   -7.1395   14.7379 C   0  0  0  0  0  0  0  0  0  0  0  0
  -29.1565   -6.7569   15.1648 C   0  0  0  0  0  0  0  0  0  0  0  0
  -27.9314   -8.3708   16.5678 C   0  0  0  0  0  0  0  0  0  0  0  0
  -24.5156  -36.1558   22.4468 C   0  0  1  0  0  0  0  0  0  0  0  0
  -25.3897  -32.5882   21.4838 C   0  0  1  0  0  0  0  0  0  0  0  0
  -26.7866   -8.4494   15.5434 C   0  0  2  0  0  0  0  0  0  0  0  0
  -22.1388  -27.6869   26.7692 C   0  0  0  0  0  0  0  0  0  0  0  0
  -25.5499  -18.9258   23.1211 C   0  0  0  0  0  0  0  0  0  0  0  0
  -27.0854  -31.9006   25.4855 C   0  0  0  0  0  0  0  0  0  0  0  0
  -26.0713  -30.1784   26.9935 C   0  0  0  0  0  0  0  0  0  0  0  0
  -24.8554  -32.3091   26.5414 C   0  0  0  0  0  0  0  0  0  0  0  0
  -31.0482   -9.4922   19.7571 C   0  0  0  0  0  0  0  0  0  0  0  0
  -21.4464  -27.5203   23.0317 C   0  0  0  0  0  0  0  0  0  0  0  0
  -27.4894  -17.6203   22.1647 C   0  0  0  0  0  0  0  0  0  0  0  0
  -27.6825  -23.7978   21.6211 C   0  0  0  0  0  0  0  0  0  0  0  0
  -27.5793  -22.3608   21.1083 C   0  0  0  0  0  0  0  0  0  0  0  0
  -27.9569  -24.7766   20.4816 C   0  0  0  0  0  0  0  0  0  0  0  0
  -31.4590  -10.8687   16.6998 C   0  0  0  0  0  0  0  0  0  0  0  0
  -32.3399  -10.5538   17.8989 C   0  0  0  0  0  0  0  0  0  0  0  0
  -27.3415  -21.3880   22.2537 C   0  0  0  0  0  0  0  0  0  0  0  0
  -28.0185  -26.2141   20.9783 C   0  0  0  0  0  0  0  0  0  1  0  0
  -25.0142  -30.5623   24.7206 C   0  0  1  0  0  0  0  0  0  0  0  0
  -22.1102  -28.2059   25.3400 C   0  0  2  0  0  0  0  0  0  0  0  0
  -27.0224  -18.9582   22.7366 C   0  0  1  0  0  0  0  0  0  0  0  0
  -25.7622  -31.2315   25.9080 C   0  0  0  0  0  0  0  0  0  0  0  0
  -25.2219   -8.3835   17.4486 N   0  0  0  0  0  0  0  0  0  0  0  0
  -25.4620   -8.8023   16.1944 N   0  0  0  0  0  0  0  0  0  0  0  0
  -25.6779  -31.6948   22.6186 N   0  0  0  0  0  0  0  0  0  0  0  0
  -29.1927   -8.0280   15.8921 N   0  0  0  0  0  0  0  0  0  0  0  0
  -24.5154  -10.0176   14.3951 N   0  0  0  0  0  0  0  0  0  0  0  0
  -21.3091  -10.1915   17.5709 N   0  0  0  0  0  0  0  0  0  0  0  0
  -29.4226  -16.2117   21.5722 N   0  0  0  0  0  0  0  0  0  0  0  0
  -24.5074  -34.7822   21.9910 N   0  0  0  0  0  0  0  0  0  0  0  0
  -23.7444  -29.9440   25.0864 N   0  0  0  0  0  0  0  0  0  0  0  0
  -30.3232   -9.9787   16.6063 N   0  0  0  0  0  0  0  0  0  0  0  0
  -31.5843  -10.6832   19.1290 N   0  0  3  0  0  0  0  0  0  0  0  0
  -31.7551  -16.5104   21.7882 N   0  3  0  0  0  0  0  0  0  0  0  0
  -21.5532  -27.1373   24.4631 N   0  3  0  0  0  0  0  0  0  0  0  0
  -27.2034  -20.0171   21.7059 N   0  3  0  0  0  0  0  0  0  0  0  0
  -21.8492  -10.8234   15.4336 O   0  0  0  0  0  0  0  0  0  0  0  0
  -26.7513  -34.2948   22.3780 O   0  0  0  0  0  0  0  0  0  0  0  0
  -23.6331  -32.1493   23.6301 O   0  0  0  0  0  0  0  0  0  0  0  0
  -29.7990  -18.2996   22.5368 O   0  0  0  0  0  0  0  0  0  0  0  0
  -24.2839  -27.8079   24.3634 O   0  0  0  0  0  0  0  0  0  0  0  0
  -31.4029   -8.4241   15.3125 O   0  0  0  0  0  0  0  0  0  0  0  0
  -21.5743   -7.9110   22.6468 O   0  0  0  0  0  0  0  0  0  0  0  0
  -28.2617  -27.0759   19.8672 O   0  0  0  0  0  0  0  0  0  1  0  0
  -21.8581   -2.8060   24.7112 F   0  0  0  0  0  0  0  0  0  0  0  0
  -24.0166   -6.7293   23.1770 F   0  0  0  0  0  0  0  0  0  0  0  0
  1  2  1  0  0  0  0
  1  7  2  0  0  0  0
  2  8  2  0  0  0  0
  3 12  2  0  0  0  0
  3 19  1  0  0  0  0
  4 13  1  0  0  0  0
  4 19  2  0  0  0  0
  5 10  2  0  0  0  0
  5 20  1  0  0  0  0
  6 11  1  0  0  0  0
  6 20  2  0  0  0  0
  7 22  1  0  0  0  0
  8 24  1  0  0  0  0
  9 14  2  0  0  0  0
  9 23  1  0  0  0  0
 10 26  1  0  0  0  0
 11 26  2  0  0  0  0
 12 27  1  0  0  0  0
 13 27  2  0  0  0  0
 14 28  1  0  0  0  0
 15 16  2  0  0  0  0
 15 29  1  0  0  0  0
 16 30  1  0  0  0  0
 17 25  1  0  0  0  0
 17 28  2  0  0  0  0
 18 30  2  0  0  0  0
 18 31  1  0  0  0  0
 19 32  1  0  0  0  0
 20 34  1  0  0  0  0
 21 32  1  0  0  0  0
 21 33  2  0  0  0  0
 21 35  1  0  0  0  0
 22 24  2  0  0  0  0
 22 41  1  0  0  0  0
 23 25  2  0  0  0  0
 23 42  1  0  0  0  0
 24 50  1  0  0  0  0
 25 43  1  0  0  0  0
 26 82  1  0  0  0  0
 27 92  1  0  0  0  0
 28 93  1  0  0  0  0
 29 31  2  0  0  0  0
 29 92  1  0  0  0  0
 30 94  1  0  0  0  0
 31 95  1  0  0  0  0
 32 72  2  0  0  0  0
 33 73  1  0  0  0  0
 33 76  1  0  0  0  0
 34 78  1  0  0  0  0
 34 83  2  0  0  0  0
 35 77  1  0  0  0  0
 35 86  2  0  0  0  0
 36 51  1  0  0  0  0
 36 79  1  0  0  0  0
 36 87  2  0  0  0  0
 37 68  1  0  0  0  0
 37 74  1  0  0  0  0
 37 88  2  0  0  0  0
 38 60  1  0  0  0  0
 38 78  1  0  0  0  0
 38 89  2  0  0  0  0
 39 69  1  0  0  0  0
 39 80  1  0  0  0  0
 39 90  2  0  0  0  0
 40 75  1  0  0  0  0
 40 81  1  0  0  0  0
 40 91  2  0  0  0  0
 41 44  1  0  0  0  0
 42 51  1  0  0  0  0
 43 74  1  0  0  0  0
 44 46  1  0  0  0  0
 45 47  1  0  0  0  0
 45 48  1  0  0  0  0
 46 50  1  0  0  0  0
 47 52  1  0  0  0  0
 48 75  1  0  0  0  0
 49 52  1  0  0  0  0
 49 75  1  0  0  0  0
 50 79  1  0  0  0  0
 51 74  1  0  0  0  0
 52 73  1  0  0  0  0
 53 69  1  0  0  0  0
 54 70  1  0  0  0  0
 55 71  1  0  0  0  0
 56 71  1  0  0  0  0
 57 71  1  0  0  0  0
 58 82  1  0  0  0  0
 59 84  1  0  0  0  0
 60 70  1  0  0  0  0
 61 62  1  0  0  0  0
 61 63  1  0  0  0  0
 62 66  1  0  0  0  0
 63 67  1  0  0  0  0
 64 65  1  0  0  0  0
 64 81  1  0  0  0  0
 65 82  1  0  0  0  0
 66 85  1  0  0  0  0
 67 93  1  0  0  0  0
 68 71  1  0  0  0  0
 68 80  1  0  0  0  0
 69 84  1  0  0  0  0
 70 85  1  0  0  0  0
 72 73  1  0  0  0  0
M  CHG  3  83   1  84   1  85   1
M  ISO  4  40 100  67 101  81 100  93 101
M  END
> <Batch ID>
0005

> <Smiles>
CNC(C)C(=O)NC(C(=O)N1Cc2cc([101O:1][101CH2:1]CCCCNC(C)CC(=O)NC(=N)c3ccc(N(C)CC[100NH:0][100C:0](=O)N4CCCC(n5nc(-c6ccc(Oc7ccc(F)cc7F)cc6)c(C(N)=O)c5N)C4)cc3)ccc2CC1C(=O)NC1CCCc2ccccc21)C(C)(C)C

> <Shape>
0.237

> <Color>
0.075

> <Negative vol penalty>
0.000

$$$$

  -OEChem-04052315263D

 95104  0     1  0  0  0  0  0999 V2000
  -17.1486  -27.5030   26.8017 C   0  0  0  0  0  0  0  0  0  0  0  0
  -18.5045  -27.3870   27.0908 C   0  0  0  0  0  0  0  0  0  0  0  0
  -22.7277  -10.1062   20.2388 C   0  0  0  0  0  0  0  0  0  0  0  0
  -23.3130  -10.3179   22.5733 C   0  0  0  0  0  0  0  0  0  0  0  0
  -16.7404  -28.0588   25.5900 C   0  0  0  0  0  0  0  0  0  0  0  0
  -19.4530  -27.8259   26.1677 C   0  0  0  0  0  0  0  0  0  0  0  0
  -24.8805  -30.3817   27.3986 C   0  0  0  0  0  0  0  0  0  0  0  0
  -31.2302  -14.1118   24.5526 C   0  0  0  0  0  0  0  0  0  0  0  0
  -31.5266  -15.4517   24.8026 C   0  0  0  0  0  0  0  0  0  0  0  0
  -33.2177  -21.8810   25.8494 C   0  0  0  0  0  0  0  0  0  0  0  0
  -21.7884   -9.1274   20.5631 C   0  0  0  0  0  0  0  0  0  0  0  0
  -22.3736   -9.3391   22.8976 C   0  0  0  0  0  0  0  0  0  0  0  0
  -26.1736  -29.8623   27.4425 C   0  0  0  0  0  0  0  0  0  0  0  0
  -32.7947  -23.0611   26.4608 C   0  0  0  0  0  0  0  0  0  0  0  0
  -19.0235   -9.1385   23.2943 C   0  0  0  0  0  0  0  0  0  0  0  0
  -18.1888   -9.3797   24.3855 C   0  0  0  0  0  0  0  0  0  0  0  0
  -26.5423  -30.6044   25.1770 C   0  0  0  0  0  0  0  0  0  0  0  0
  -33.2887  -13.8887   23.3075 C   0  0  0  0  0  0  0  0  0  0  0  0
  -31.2277  -20.7598   26.6368 C   0  0  0  0  0  0  0  0  0  0  0  0
  -19.0388   -7.3973   25.4739 C   0  0  0  0  0  0  0  0  0  0  0  0
  -23.4901  -10.7014   21.2440 C   0  0  0  0  0  0  0  0  0  0  0  0
  -24.2505  -13.1021   20.8365 C   0  0  0  0  0  0  0  0  0  0  0  0
  -17.6842  -28.5135   24.6557 C   0  0  0  0  0  0  0  0  0  0  0  0
  -24.4041  -31.0079   26.2378 C   0  0  0  0  0  0  0  0  0  0  0  0
  -19.0570  -28.3871   24.9417 C   0  0  0  0  0  0  0  0  0  0  0  0
  -25.2437  -31.1333   25.1218 C   0  0  0  0  0  0  0  0  0  0  0  0
  -32.1112  -13.3303   23.8051 C   0  0  0  0  0  0  0  0  0  0  0  0
  -33.5851  -15.2286   23.5575 C   0  0  0  0  0  0  0  0  0  0  0  0
  -32.4341  -20.7303   25.9373 C   0  0  0  0  0  0  0  0  0  0  0  0
  -32.7040  -16.0101   24.3051 C   0  0  0  0  0  0  0  0  0  0  0  0
  -21.6113   -8.7439   21.8924 C   0  0  0  0  0  0  0  0  0  0  0  0
  -27.0037  -29.9710   26.3306 C   0  0  0  0  0  0  0  0  0  0  0  0
  -19.8658   -8.0267   23.2929 C   0  0  0  0  0  0  0  0  0  0  0  0
  -31.5883  -23.0907   27.1603 C   0  0  0  0  0  0  0  0  0  0  0  0
  -18.1964   -8.5092   25.4753 C   0  0  0  0  0  0  0  0  0  0  0  0
  -30.8047  -21.9400   27.2483 C   0  0  0  0  0  0  0  0  0  0  0  0
  -19.8735   -7.1561   24.3827 C   0  0  0  0  0  0  0  0  0  0  0  0
  -24.4611  -11.7121   20.9096 C   0  0  0  0  0  0  0  0  0  0  0  0
  -25.4741  -13.6167   20.4840 C   0  0  0  0  0  0  0  0  0  0  0  0
  -23.0556  -13.8604   21.0669 C   0  0  0  0  0  0  0  0  0  0  0  0
  -22.0358  -30.4418   24.1947 C   0  0  0  0  0  0  0  0  0  0  0  0
  -22.9562  -33.2893   22.9429 C   0  0  0  0  0  0  0  0  0  0  0  0
  -25.4243  -35.6094   22.5276 C   0  0  0  0  0  0  0  0  0  0  0  0
  -31.0823  -11.6355   21.1725 C   0  0  0  0  0  0  0  0  0  0  0  0
  -32.2135  -18.2884   25.2990 C   0  0  0  0  0  0  0  0  0  0  0  0
  -17.1956  -29.0639   23.3392 C   0  0  0  0  0  0  0  0  0  0  0  0
  -23.0160  -31.5867   26.2156 C   0  0  0  0  0  0  0  0  0  0  0  0
  -24.7870  -31.8144   23.8584 C   0  0  0  0  0  0  0  0  0  0  0  0
  -18.2589  -29.8481   22.5746 C   0  0  0  0  0  0  0  0  0  0  0  0
  -29.4712  -12.4813   18.1122 C   0  0  0  0  0  0  0  0  0  0  0  0
  -19.5773  -29.0811   22.5556 C   0  0  0  0  0  0  0  0  0  0  0  0
  -27.9854  -12.5055   18.4755 C   0  0  0  0  0  0  0  0  0  0  0  0
  -30.2183  -11.3825   18.8647 C   0  0  0  0  0  0  0  0  0  0  0  0
  -28.5669  -11.4367   20.6932 C   0  0  0  0  0  0  0  0  0  0  0  0
  -20.1158  -28.8744   23.9765 C   0  0  1  0  0  0  0  0  0  0  0  0
  -22.4584  -31.7483   24.8048 C   0  0  1  0  0  0  0  0  0  0  0  0
  -27.7822  -12.5646   20.0014 C   0  0  2  0  0  0  0  0  0  0  0  0
  -34.8521  -15.8012   23.0097 C   0  0  0  0  0  0  0  0  0  0  0  0
  -25.8894  -37.8146   21.4240 C   0  0  0  0  0  0  0  0  0  0  0  0
  -23.1792  -31.8878   20.2418 C   0  0  0  0  0  0  0  0  0  0  0  0
  -24.5229  -33.8344   19.4211 C   0  0  0  0  0  0  0  0  0  0  0  0
  -22.1615  -34.1704   20.1517 C   0  0  0  0  0  0  0  0  0  0  0  0
  -25.9844  -36.9207   25.1210 C   0  0  0  0  0  0  0  0  0  0  0  0
  -31.7930  -11.8983   23.5358 C   0  0  0  0  0  0  0  0  0  0  0  0
  -29.6176  -27.4821   26.6448 C   0  0  0  0  0  0  0  0  0  0  0  0
  -29.8723  -26.2448   27.4986 C   0  0  0  0  0  0  0  0  0  0  0  0
  -28.4840  -28.3293   27.2077 C   0  0  0  0  0  0  0  0  0  1  0  0
  -30.9761  -25.3754   26.9132 C   0  0  0  0  0  0  0  0  0  0  0  0
  -23.9445  -33.7239   21.8877 C   0  0  1  0  0  0  0  0  0  0  0  0
  -25.4268  -37.1183   22.6943 C   0  0  2  0  0  0  0  0  0  0  0  0
  -23.4603  -33.3895   20.4486 C   0  0  0  0  0  0  0  0  0  0  0  0
  -25.7195  -11.3657   20.6261 N   0  0  0  0  0  0  0  0  0  0  0  0
  -26.3106  -12.5454   20.3713 N   0  0  0  0  0  0  0  0  0  0  0  0
  -23.4193  -32.3587   23.8838 N   0  0  0  0  0  0  0  0  0  0  0  0
  -29.9853  -11.4959   20.3065 N   0  0  0  0  0  0  0  0  0  0  0  0
  -25.9054  -14.8766   20.2624 N   0  0  0  0  0  0  0  0  0  0  0  0
  -21.8864  -13.1736   21.4215 N   0  0  0  0  0  0  0  0  0  0  0  0
  -32.8571  -19.5497   25.3257 N   0  0  0  0  0  0  0  0  0  0  0  0
  -32.9867  -17.3710   24.5695 N   0  0  0  0  0  0  0  0  0  0  0  0
  -20.7273  -30.0908   24.4671 N   0  0  0  0  0  0  0  0  0  0  0  0
  -24.1924  -35.1426   22.1202 N   0  0  0  0  0  0  0  0  0  0  0  0
  -30.7729  -11.7430   22.5228 N   0  0  0  0  0  0  0  0  0  0  0  0
  -26.3367  -37.5151   23.8058 N   0  3  0  0  0  0  0  0  0  0  0  0
  -23.0216  -15.1084   20.9453 O   0  0  0  0  0  0  0  0  0  0  0  0
  -22.8370  -29.8005   23.5250 O   0  0  0  0  0  0  0  0  0  0  0  0
  -21.8175  -33.7637   22.9369 O   0  0  0  0  0  0  0  0  0  0  0  0
  -26.4169  -34.9148   22.7342 O   0  0  0  0  0  0  0  0  0  0  0  0
  -32.2507  -11.6677   20.7715 O   0  0  0  0  0  0  0  0  0  0  0  0
  -31.1387  -18.0412   25.8364 O   0  0  0  0  0  0  0  0  0  0  0  0
  -20.6945   -7.7890   22.2092 O   0  0  0  0  0  0  0  0  0  0  0  0
  -28.2660  -29.4642   26.3706 O   0  0  0  0  0  0  0  0  0  1  0  0
  -31.1739  -24.2516   27.7599 O   0  0  0  0  0  0  0  0  0  0  0  0
  -17.3959   -8.7418   26.5238 F   0  0  0  0  0  0  0  0  0  0  0  0
  -29.6442  -21.9626   27.9178 F   0  0  0  0  0  0  0  0  0  0  0  0
  -20.6814   -6.0870   24.3876 F   0  0  0  0  0  0  0  0  0  0  0  0
  1  2  1  0  0  0  0
  1  5  2  0  0  0  0
  2  6  2  0  0  0  0
  3 11  2  0  0  0  0
  3 21  1  0  0  0  0
  4 12  1  0  0  0  0
  4 21  2  0  0  0  0
  5 23  1  0  0  0  0
  6 25  1  0  0  0  0
  7 13  2  0  0  0  0
  7 24  1  0  0  0  0
  8  9  2  0  0  0  0
  8 27  1  0  0  0  0
  9 30  1  0  0  0  0
 10 14  2  0  0  0  0
 10 29  1  0  0  0  0
 11 31  1  0  0  0  0
 12 31  2  0  0  0  0
 13 32  1  0  0  0  0
 14 34  1  0  0  0  0
 15 16  2  0  0  0  0
 15 33  1  0  0  0  0
 16 35  1  0  0  0  0
 17 26  1  0  0  0  0
 17 32  2  0  0  0  0
 18 27  2  0  0  0  0
 18 28  1  0  0  0  0
 19 29  2  0  0  0  0
 19 36  1  0  0  0  0
 20 35  2  0  0  0  0
 20 37  1  0  0  0  0
 21 38  1  0  0  0  0
 22 38  1  0  0  0  0
 22 39  2  0  0  0  0
 22 40  1  0  0  0  0
 23 25  2  0  0  0  0
 23 46  1  0  0  0  0
 24 26  2  0  0  0  0
 24 47  1  0  0  0  0
 25 55  1  0  0  0  0
 26 48  1  0  0  0  0
 27 64  1  0  0  0  0
 28 30  2  0  0  0  0
 28 58  1  0  0  0  0
 29 78  1  0  0  0  0
 30 79  1  0  0  0  0
 31 90  1  0  0  0  0
 32 91  1  0  0  0  0
 33 37  2  0  0  0  0
 33 90  1  0  0  0  0
 34 36  2  0  0  0  0
 34 92  1  0  0  0  0
 35 93  1  0  0  0  0
 36 94  1  0  0  0  0
 37 95  1  0  0  0  0
 38 72  2  0  0  0  0
 39 73  1  0  0  0  0
 39 76  1  0  0  0  0
 40 77  1  0  0  0  0
 40 84  2  0  0  0  0
 41 56  1  0  0  0  0
 41 80  1  0  0  0  0
 41 85  2  0  0  0  0
 42 69  1  0  0  0  0
 42 74  1  0  0  0  0
 42 86  2  0  0  0  0
 43 70  1  0  0  0  0
 43 81  1  0  0  0  0
 43 87  2  0  0  0  0
 44 75  1  0  0  0  0
 44 82  1  0  0  0  0
 44 88  2  0  0  0  0
 45 78  1  0  0  0  0
 45 79  1  0  0  0  0
 45 89  2  0  0  0  0
 46 49  1  0  0  0  0
 47 56  1  0  0  0  0
 48 74  1  0  0  0  0
 49 51  1  0  0  0  0
 50 52  1  0  0  0  0
 50 53  1  0  0  0  0
 51 55  1  0  0  0  0
 52 57  1  0  0  0  0
 53 75  1  0  0  0  0
 54 57  1  0  0  0  0
 54 75  1  0  0  0  0
 55 80  1  0  0  0  0
 56 74  1  0  0  0  0
 57 73  1  0  0  0  0
 59 70  1  0  0  0  0
 60 71  1  0  0  0  0
 61 71  1  0  0  0  0
 62 71  1  0  0  0  0
 63 83  1  0  0  0  0
 64 82  1  0  0  0  0
 65 66  1  0  0  0  0
 65 67  1  0  0  0  0
 66 68  1  0  0  0  0
 67 91  1  0  0  0  0
 68 92  1  0  0  0  0
 69 71  1  0  0  0  0
 69 81  1  0  0  0  0
 70 83  1  0  0  0  0
 72 73  1  0  0  0  0
M  CHG  1  83   1
M  ISO  4  44 100  67 101  82 100  91 101
M  END
> <Batch ID>
0005

> <Smiles>
CNC(C)C(=O)NC(C(=O)N1Cc2cc([101O:1][101CH2:1]CCCOc3ccc(NC(=O)Nc4ccc(C[100NH:0][100C:0](=O)N5CCCC(n6nc(-c7ccc(Oc8ccc(F)cc8F)cc7)c(C(N)=O)c6N)C5)cc4C)cc3F)ccc2CC1C(=O)NC1CCCc2ccccc21)C(C)(C)C

> <Shape>
0.221

> <Color>
0.177

> <Negative vol penalty>
0.000

$$$$

  -OEChem-04052315263D

 85 93  0     1  0  0  0  0  0999 V2000
  -26.1329  -31.5879   15.6427 C   0  0  0  0  0  0  0  0  0  0  0  0
  -26.2649  -31.6639   17.0255 C   0  0  0  0  0  0  0  0  0  0  0  0
  -23.0591   -9.8760   19.9530 C   0  0  0  0  0  0  0  0  0  0  0  0
  -23.8132   -9.8914   22.2483 C   0  0  0  0  0  0  0  0  0  0  0  0
  -25.8219  -30.3702   15.0391 C   0  0  0  0  0  0  0  0  0  0  0  0
  -26.0851  -30.5223   17.8057 C   0  0  0  0  0  0  0  0  0  0  0  0
  -31.3361  -28.1017   22.1020 C   0  0  0  0  0  0  0  0  0  0  0  0
  -29.9447  -17.4079   23.1108 C   0  0  0  0  0  0  0  0  0  0  0  0
  -32.1200  -16.5290   22.5341 C   0  0  0  0  0  0  0  0  0  0  0  0
  -22.3008   -8.7339   20.2098 C   0  0  0  0  0  0  0  0  0  0  0  0
  -23.0548   -8.7493   22.5051 C   0  0  0  0  0  0  0  0  0  0  0  0
  -32.2156  -27.6965   23.1063 C   0  0  0  0  0  0  0  0  0  0  0  0
  -30.5404  -18.2919   24.0105 C   0  0  0  0  0  0  0  0  0  0  0  0
  -32.7157  -17.4130   23.4337 C   0  0  0  0  0  0  0  0  0  0  0  0
  -21.0336   -6.0465   23.8572 C   0  0  0  0  0  0  0  0  0  0  0  0
  -20.2739   -6.0210   25.0267 C   0  0  0  0  0  0  0  0  0  0  0  0
  -30.7576  -25.8457   23.6512 C   0  0  0  0  0  0  0  0  0  0  0  0
  -19.0546   -7.9674   24.2771 C   0  0  0  0  0  0  0  0  0  0  0  0
  -23.8154  -10.4548   20.9723 C   0  0  0  0  0  0  0  0  0  0  0  0
  -24.1879  -12.9747   20.8339 C   0  0  0  0  0  0  0  0  0  0  0  0
  -25.6477  -29.2110   15.8115 C   0  0  0  0  0  0  0  0  0  0  0  0
  -30.1702  -27.3705   21.8580 C   0  0  0  0  0  0  0  0  0  0  0  0
  -25.7702  -29.2881   17.2120 C   0  0  0  0  0  0  0  0  0  0  0  0
  -29.8791  -26.2395   22.6383 C   0  0  0  0  0  0  0  0  0  0  0  0
  -30.7345  -16.5264   22.3726 C   0  0  0  0  0  0  0  0  0  0  0  0
  -22.2986   -8.1705   21.4858 C   0  0  0  0  0  0  0  0  0  0  0  0
  -31.9258  -18.2944   24.1719 C   0  0  0  0  0  0  0  0  0  0  0  0
  -31.9268  -26.5715   23.8791 C   0  0  0  0  0  0  0  0  0  0  0  0
  -20.8039   -7.0326   22.8977 C   0  0  0  0  0  0  0  0  0  0  0  0
  -19.2844   -6.9814   25.2367 C   0  0  0  0  0  0  0  0  0  0  0  0
  -19.8144   -7.9930   23.1076 C   0  0  0  0  0  0  0  0  0  0  0  0
  -24.5994  -11.6344   20.7075 C   0  0  0  0  0  0  0  0  0  0  0  0
  -25.2899  -13.7082   20.4679 C   0  0  0  0  0  0  0  0  0  0  0  0
  -22.9226  -13.5089   21.2455 C   0  0  0  0  0  0  0  0  0  0  0  0
  -27.0508  -26.9918   19.8081 C   0  0  0  0  0  0  0  0  0  0  0  0
  -28.1826  -24.1731   20.2375 C   0  0  0  0  0  0  0  0  0  0  0  0
  -30.1373  -21.7079   20.1689 C   0  0  0  0  0  0  0  0  0  0  0  0
  -30.7678  -14.6894   20.6491 C   0  0  0  0  0  0  0  0  0  0  0  0
  -25.2659  -27.9272   15.1181 C   0  0  0  0  0  0  0  0  0  0  0  0
  -29.1639  -27.8057   20.8276 C   0  0  0  0  0  0  0  0  0  0  0  0
  -28.5961  -25.5038   22.3632 C   0  0  0  0  0  0  0  0  0  0  0  0
  -25.4603  -26.6857   15.9848 C   0  0  0  0  0  0  0  0  0  0  0  0
  -29.6305  -12.2711   18.2964 C   0  0  0  0  0  0  0  0  0  0  0  0
  -24.8875  -26.9136   17.3800 C   0  0  0  0  0  0  0  0  0  0  0  0
  -28.1863  -12.0001   18.7243 C   0  0  0  0  0  0  0  0  0  0  0  0
  -30.5452  -12.4981   19.4987 C   0  0  0  0  0  0  0  0  0  0  0  0
  -28.6436  -13.2559   20.8693 C   0  0  0  0  0  0  0  0  0  0  0  0
  -25.6070  -28.0666   18.0902 C   0  0  1  0  0  0  0  0  0  0  0  0
  -28.4709  -26.6248   20.1244 C   0  0  1  0  0  0  0  0  0  0  0  0
  -27.6718  -13.0853   19.6902 C   0  0  2  0  0  0  0  0  0  0  0  0
  -30.6757  -19.2602   20.0411 C   0  0  0  0  0  0  0  0  0  0  0  0
  -26.1330  -23.7102   22.4485 C   0  0  0  0  0  0  0  0  0  0  0  0
  -26.8125  -21.3007   22.4765 C   0  0  0  0  0  0  0  0  0  0  0  0
  -25.8138  -22.2892   20.4155 C   0  0  0  0  0  0  0  0  0  0  0  0
  -31.7562  -22.0734   17.7185 C   0  0  0  0  0  0  0  0  0  0  0  0
  -35.6480  -22.9694   25.5050 C   0  0  0  0  0  0  0  0  0  0  0  0
  -35.4214  -21.5388   25.0081 C   0  0  0  0  0  0  0  0  0  0  0  0
  -34.7494  -24.0015   24.8193 C   0  0  0  0  0  0  0  0  0  0  0  0
  -34.0164  -21.0113   25.2940 C   0  0  0  0  0  0  0  0  0  0  0  0
  -35.0330  -25.4142   25.3407 C   0  0  0  0  0  0  0  0  0  0  0  0
  -33.8267  -19.6027   24.7470 C   0  0  0  0  0  0  0  0  0  0  0  0
  -34.1745  -26.4668   24.6501 C   0  0  0  0  0  0  0  0  0  1  0  0
  -28.1715  -22.9197   21.0754 C   0  0  1  0  0  0  0  0  0  0  0  0
  -30.5078  -20.5523   19.2568 C   0  0  2  0  0  0  0  0  0  0  0  0
  -26.7520  -22.5755   21.6082 C   0  0  0  0  0  0  0  0  0  0  0  0
  -25.8641  -11.5202   20.2933 N   0  0  0  0  0  0  0  0  0  0  0  0
  -26.2567  -12.7981   20.1562 N   0  0  0  0  0  0  0  0  0  0  0  0
  -28.3876  -25.3829   20.9118 N   0  0  0  0  0  0  0  0  0  0  0  0
  -29.9964  -13.5422   20.3667 N   0  0  0  0  0  0  0  0  0  0  0  0
  -25.5165  -15.0364   20.3852 N   0  0  0  0  0  0  0  0  0  0  0  0
  -21.8989  -12.6146   21.5870 N   0  0  0  0  0  0  0  0  0  0  0  0
  -30.1295  -15.6284   21.4587 N   0  0  0  0  0  0  0  0  0  0  0  0
  -26.8918  -27.6280   18.5918 N   0  0  0  0  0  0  0  0  0  0  0  0
  -28.7711  -21.8740   20.2536 N   0  0  0  0  0  0  0  0  0  0  0  0
  -31.7864  -20.8413   18.5479 N   0  3  0  0  0  0  0  0  0  0  0  0
  -22.7010  -14.7427   21.2928 O   0  0  0  0  0  0  0  0  0  0  0  0
  -26.1634  -26.7172   20.6074 O   0  0  0  0  0  0  0  0  0  0  0  0
  -28.0088  -24.0854   19.0187 O   0  0  0  0  0  0  0  0  0  0  0  0
  -30.9759  -22.3923   20.7511 O   0  0  0  0  0  0  0  0  0  0  0  0
  -31.9000  -14.8409   20.1832 O   0  0  0  0  0  0  0  0  0  0  0  0
  -21.5585   -7.0561   21.7368 O   0  0  0  0  0  0  0  0  0  0  0  0
  -32.5113  -19.1631   25.0560 O   0  0  0  0  0  0  0  0  0  0  0  0
  -32.7920  -26.1789   24.8549 O   0  0  0  0  0  0  0  0  0  1  0  0
  -18.5538   -6.9558   26.3591 F   0  0  0  0  0  0  0  0  0  0  0  0
  -19.5883   -8.9420   22.1889 F   0  0  0  0  0  0  0  0  0  0  0  0
  1  2  1  0  0  0  0
  1  5  2  0  0  0  0
  2  6  2  0  0  0  0
  3 10  2  0  0  0  0
  3 19  1  0  0  0  0
  4 11  1  0  0  0  0
  4 19  2  0  0  0  0
  5 21  1  0  0  0  0
  6 23  1  0  0  0  0
  7 12  2  0  0  0  0
  7 22  1  0  0  0  0
  8 13  2  0  0  0  0
  8 25  1  0  0  0  0
  9 14  1  0  0  0  0
  9 25  2  0  0  0  0
 10 26  1  0  0  0  0
 11 26  2  0  0  0  0
 12 28  1  0  0  0  0
 13 27  1  0  0  0  0
 14 27  2  0  0  0  0
 15 16  2  0  0  0  0
 15 29  1  0  0  0  0
 16 30  1  0  0  0  0
 17 24  1  0  0  0  0
 17 28  2  0  0  0  0
 18 30  2  0  0  0  0
 18 31  1  0  0  0  0
 19 32  1  0  0  0  0
 20 32  1  0  0  0  0
 20 33  2  0  0  0  0
 20 34  1  0  0  0  0
 21 23  2  0  0  0  0
 21 39  1  0  0  0  0
 22 24  2  0  0  0  0
 22 40  1  0  0  0  0
 23 48  1  0  0  0  0
 24 41  1  0  0  0  0
 25 72  1  0  0  0  0
 26 81  1  0  0  0  0
 27 82  1  0  0  0  0
 28 83  1  0  0  0  0
 29 31  2  0  0  0  0
 29 81  1  0  0  0  0
 30 84  1  0  0  0  0
 31 85  1  0  0  0  0
 32 66  2  0  0  0  0
 33 67  1  0  0  0  0
 33 70  1  0  0  0  0
 34 71  1  0  0  0  0
 34 76  2  0  0  0  0
 35 49  1  0  0  0  0
 35 73  1  0  0  0  0
 35 77  2  0  0  0  0
 36 63  1  0  0  0  0
 36 68  1  0  0  0  0
 36 78  2  0  0  0  0
 37 64  1  0  0  0  0
 37 74  1  0  0  0  0
 37 79  2  0  0  0  0
 38 69  1  0  0  0  0
 38 72  1  0  0  0  0
 38 80  2  0  0  0  0
 39 42  1  0  0  0  0
 40 49  1  0  0  0  0
 41 68  1  0  0  0  0
 42 44  1  0  0  0  0
 43 45  1  0  0  0  0
 43 46  1  0  0  0  0
 44 48  1  0  0  0  0
 45 50  1  0  0  0  0
 46 69  1  0  0  0  0
 47 50  1  0  0  0  0
 47 69  1  0  0  0  0
 48 73  1  0  0  0  0
 49 68  1  0  0  0  0
 50 67  1  0  0  0  0
 51 64  1  0  0  0  0
 52 65  1  0  0  0  0
 53 65  1  0  0  0  0
 54 65  1  0  0  0  0
 55 75  1  0  0  0  0
 56 57  1  0  0  0  0
 56 58  1  0  0  0  0
 57 59  1  0  0  0  0
 58 60  1  0  0  0  0
 59 61  1  0  0  0  0
 60 62  1  0  0  0  0
 61 82  1  0  0  0  0
 62 83  1  0  0  0  0
 63 65  1  0  0  0  0
 63 74  1  0  0  0  0
 64 75  1  0  0  0  0
 66 67  1  0  0  0  0
M  CHG  1  75   1
M  ISO  4  38 100  62 101  72 100  83 101
M  END
> <Batch ID>
0005

> <Smiles>
CNC(C)C(=O)NC(C(=O)N1Cc2cc([101O:1][101CH2:1]CCCCCCOc3ccc([100NH:0][100C:0](=O)N4CCCC(n5nc(-c6ccc(Oc7ccc(F)cc7F)cc6)c(C(N)=O)c5N)C4)cc3)ccc2CC1C(=O)NC1CCCc2ccccc21)C(C)(C)C

> <Shape>
0.240

> <Color>
0.194

> <Negative vol penalty>
0.000

$$$$

  -OEChem-04052315263D

 96104  0     1  0  0  0  0  0999 V2000
  -19.1882  -22.8557   15.2190 C   0  0  0  0  0  0  0  0  0  0  0  0
  -19.9354  -24.0095   15.0049 C   0  0  0  0  0  0  0  0  0  0  0  0
  -22.9982   -9.9018   19.9778 C   0  0  0  0  0  0  0  0  0  0  0  0
  -23.7293   -9.9407   22.2802 C   0  0  0  0  0  0  0  0  0  0  0  0
  -18.9442  -22.4159   16.5194 C   0  0  0  0  0  0  0  0  0  0  0  0
  -20.4382  -24.7248   16.0913 C   0  0  0  0  0  0  0  0  0  0  0  0
  -27.5123  -25.8701   16.8233 C   0  0  0  0  0  0  0  0  0  0  0  0
  -32.6807  -17.4037   23.4477 C   0  0  0  0  0  0  0  0  0  0  0  0
  -32.0707  -16.5211   22.5564 C   0  0  0  0  0  0  0  0  0  0  0  0
  -22.2310   -8.7668   20.2405 C   0  0  0  0  0  0  0  0  0  0  0  0
  -22.9621   -8.8057   22.5430 C   0  0  0  0  0  0  0  0  0  0  0  0
  -28.8318  -26.3118   16.9233 C   0  0  0  0  0  0  0  0  0  0  0  0
  -23.2015   -5.4689   22.0541 C   0  0  0  0  0  0  0  0  0  0  0  0
  -23.7898   -4.4474   22.7997 C   0  0  0  0  0  0  0  0  0  0  0  0
  -28.3209  -27.3965   19.0233 C   0  0  0  0  0  0  0  0  0  0  0  0
  -30.5199  -18.3229   24.0162 C   0  0  0  0  0  0  0  0  0  0  0  0
  -22.0705   -4.6840   24.4805 C   0  0  0  0  0  0  0  0  0  0  0  0
  -23.7473  -10.4887   20.9976 C   0  0  0  0  0  0  0  0  0  0  0  0
  -24.1350  -13.0047   20.8329 C   0  0  0  0  0  0  0  0  0  0  0  0
  -19.4524  -23.1207   17.6219 C   0  0  0  0  0  0  0  0  0  0  0  0
  -26.5948  -26.1774   17.8318 C   0  0  0  0  0  0  0  0  0  0  0  0
  -20.1996  -24.2947   17.4076 C   0  0  0  0  0  0  0  0  0  0  0  0
  -27.0009  -26.9464   18.9348 C   0  0  0  0  0  0  0  0  0  0  0  0
  -29.9099  -17.4403   23.1248 C   0  0  0  0  0  0  0  0  0  0  0  0
  -31.9052  -18.3046   24.1777 C   0  0  0  0  0  0  0  0  0  0  0  0
  -30.6854  -16.5394   22.3949 C   0  0  0  0  0  0  0  0  0  0  0  0
  -22.2130   -8.2188   21.5231 C   0  0  0  0  0  0  0  0  0  0  0  0
  -29.2350  -27.0733   18.0205 C   0  0  0  0  0  0  0  0  0  0  0  0
  -22.0477   -6.0980   22.5217 C   0  0  0  0  0  0  0  0  0  0  0  0
  -23.2243   -4.0549   24.0129 C   0  0  0  0  0  0  0  0  0  0  0  0
  -21.4822   -5.7056   23.7349 C   0  0  0  0  0  0  0  0  0  0  0  0
  -24.5404  -11.6607   20.7267 C   0  0  0  0  0  0  0  0  0  0  0  0
  -25.2447  -13.7278   20.4692 C   0  0  0  0  0  0  0  0  0  0  0  0
  -22.8687  -13.5506   21.2253 C   0  0  0  0  0  0  0  0  0  0  0  0
  -23.0842  -25.8500   19.1143 C   0  0  0  0  0  0  0  0  0  0  0  0
  -24.9478  -25.5502   21.5324 C   0  0  0  0  0  0  0  0  0  0  0  0
  -33.8788  -19.3122   25.3673 C   0  0  0  0  0  0  0  0  0  0  0  0
  -32.5684  -27.4454   19.4088 C   0  0  0  0  0  0  0  0  0  0  0  0
  -27.3466  -24.8552   23.8562 C   0  0  0  0  0  0  0  0  0  0  0  0
  -30.7258  -14.6816   20.6938 C   0  0  0  0  0  0  0  0  0  0  0  0
  -19.1224  -22.6327   19.0103 C   0  0  0  0  0  0  0  0  0  0  0  0
  -25.1482  -25.7748   17.7356 C   0  0  0  0  0  0  0  0  0  0  0  0
  -25.9709  -27.2820   19.9785 C   0  0  0  0  0  0  0  0  0  0  0  0
  -20.0072  -23.2403   20.0957 C   0  0  0  0  0  0  0  0  0  0  0  0
  -29.5988  -12.2414   18.3588 C   0  0  0  0  0  0  0  0  0  0  0  0
  -20.1270  -24.7489   19.9044 C   0  0  0  0  0  0  0  0  0  0  0  0
  -28.1490  -11.9833   18.7754 C   0  0  0  0  0  0  0  0  0  0  0  0
  -30.5027  -12.4779   19.5674 C   0  0  0  0  0  0  0  0  0  0  0  0
  -28.5917  -13.2623   20.9097 C   0  0  0  0  0  0  0  0  0  0  0  0
  -20.7828  -25.0841   18.5595 C   0  0  1  0  0  0  0  0  0  0  0  0
  -24.5252  -25.4318   19.1006 C   0  0  1  0  0  0  0  0  0  0  0  0
  -27.6307  -13.0829   19.7231 C   0  0  2  0  0  0  0  0  0  0  0  0
  -27.6299  -24.2635   26.2784 C   0  0  0  0  0  0  0  0  0  0  0  0
  -24.3791  -28.4463   22.3027 C   0  0  0  0  0  0  0  0  0  0  0  0
  -25.5685  -28.0301   24.4661 C   0  0  0  0  0  0  0  0  0  0  0  0
  -23.5021  -26.7465   23.9138 C   0  0  0  0  0  0  0  0  0  0  0  0
  -28.6361  -22.2748   23.1948 C   0  0  0  0  0  0  0  0  0  0  0  0
  -34.1526  -20.3922   26.4004 C   0  0  0  0  0  0  0  0  0  0  0  0
  -31.0710  -27.6674   19.4123 C   0  0  0  0  0  0  0  0  0  1  0  0
  -33.6856  -21.7739   25.9446 C   0  0  0  0  0  0  0  0  0  0  0  0
  -34.3642  -22.2221   24.6471 C   0  0  0  0  0  0  0  0  0  0  0  0
  -33.8986  -23.6191   24.2315 C   0  0  0  0  0  0  0  0  0  0  0  0
  -34.6002  -24.0816   22.9523 C   0  0  0  0  0  0  0  0  0  0  0  0
  -34.1606  -25.4936   22.5593 C   0  0  0  0  0  0  0  0  0  0  0  0
  -34.8954  -26.0417   21.3304 C   0  0  0  0  0  0  0  0  0  0  0  0
  -34.5260  -27.4701   20.9426 C   0  0  0  0  0  0  0  0  0  0  0  0
  -25.6484  -26.2302   22.6815 C   0  0  1  0  0  0  0  0  0  0  0  0
  -27.4766  -23.7271   24.8636 C   0  0  2  0  0  0  0  0  0  0  0  0
  -28.4239  -17.4803   22.9732 C   0  0  0  0  0  0  0  0  0  0  0  0
  -24.7876  -27.3587   23.3162 C   0  0  0  0  0  0  0  0  0  0  0  0
  -25.8085  -11.5347   20.3266 N   0  0  0  0  0  0  0  0  0  0  0  0
  -26.2096  -12.8088   20.1782 N   0  0  0  0  0  0  0  0  0  0  0  0
  -25.1379  -26.1024   20.2599 N   0  0  0  0  0  0  0  0  0  0  0  0
  -29.9510  -13.5353   20.4174 N   0  0  0  0  0  0  0  0  0  0  0  0
  -25.4794  -15.0537   20.3730 N   0  0  0  0  0  0  0  0  0  0  0  0
  -21.8368  -12.6659   21.5672 N   0  0  0  0  0  0  0  0  0  0  0  0
  -32.5239  -19.1980   25.0839 N   0  0  0  0  0  0  0  0  0  0  0  0
  -30.0846  -15.6337   21.4857 N   0  0  0  0  0  0  0  0  0  0  0  0
  -22.2150  -24.8896   18.6331 N   0  0  0  0  0  0  0  0  0  0  0  0
  -33.1235  -27.6205   20.6717 N   0  0  0  0  0  0  0  0  0  0  0  0
  -26.0271  -25.1724   23.6121 N   0  0  0  0  0  0  0  0  0  0  0  0
  -28.6657  -22.8858   24.5486 N   0  3  0  0  0  0  0  0  0  0  0  0
  -22.6534  -14.7860   21.2557 O   0  0  0  0  0  0  0  0  0  0  0  0
  -22.7817  -26.9617   19.5320 O   0  0  0  0  0  0  0  0  0  0  0  0
  -24.2460  -24.5597   21.7551 O   0  0  0  0  0  0  0  0  0  0  0  0
  -34.8043  -18.6646   24.8861 O   0  0  0  0  0  0  0  0  0  0  0  0
  -33.1936  -27.1478   18.3946 O   0  0  0  0  0  0  0  0  0  0  0  0
  -28.3185  -25.4030   23.3405 O   0  0  0  0  0  0  0  0  0  0  0  0
  -31.8635  -14.8215   20.2376 O   0  0  0  0  0  0  0  0  0  0  0  0
  -21.4644   -7.1115   21.7799 O   0  0  0  0  0  0  0  0  0  0  0  0
  -30.5392  -27.5018   18.1150 O   0  0  0  0  0  0  0  0  0  1  0  0
  -23.7885   -3.0729   24.7281 F   0  0  0  0  0  0  0  0  0  0  0  0
  -20.3731   -6.3055   24.1887 F   0  0  0  0  0  0  0  0  0  0  0  0
  -27.8211  -18.4175   23.7612 F   0  0  0  0  0  0  0  0  0  0  0  0
  -28.0142  -17.7631   21.7024 F   0  0  0  0  0  0  0  0  0  0  0  0
  -27.8340  -16.2935   23.2951 F   0  0  0  0  0  0  0  0  0  0  0  0
  1  2  1  0  0  0  0
  1  5  2  0  0  0  0
  2  6  2  0  0  0  0
  3 10  2  0  0  0  0
  3 18  1  0  0  0  0
  4 11  1  0  0  0  0
  4 18  2  0  0  0  0
  5 20  1  0  0  0  0
  6 22  1  0  0  0  0
  7 12  2  0  0  0  0
  7 21  1  0  0  0  0
  8  9  2  0  0  0  0
  8 25  1  0  0  0  0
  9 26  1  0  0  0  0
 10 27  1  0  0  0  0
 11 27  2  0  0  0  0
 12 28  1  0  0  0  0
 13 14  2  0  0  0  0
 13 29  1  0  0  0  0
 14 30  1  0  0  0  0
 15 23  1  0  0  0  0
 15 28  2  0  0  0  0
 16 24  1  0  0  0  0
 16 25  2  0  0  0  0
 17 30  2  0  0  0  0
 17 31  1  0  0  0  0
 18 32  1  0  0  0  0
 19 32  1  0  0  0  0
 19 33  2  0  0  0  0
 19 34  1  0  0  0  0
 20 22  2  0  0  0  0
 20 41  1  0  0  0  0
 21 23  2  0  0  0  0
 21 42  1  0  0  0  0
 22 50  1  0  0  0  0
 23 43  1  0  0  0  0
 24 26  2  0  0  0  0
 24 69  1  0  0  0  0
 25 77  1  0  0  0  0
 26 78  1  0  0  0  0
 27 90  1  0  0  0  0
 28 91  1  0  0  0  0
 29 31  2  0  0  0  0
 29 90  1  0  0  0  0
 30 92  1  0  0  0  0
 31 93  1  0  0  0  0
 32 71  2  0  0  0  0
 33 72  1  0  0  0  0
 33 75  1  0  0  0  0
 34 76  1  0  0  0  0
 34 83  2  0  0  0  0
 35 51  1  0  0  0  0
 35 79  1  0  0  0  0
 35 84  2  0  0  0  0
 36 67  1  0  0  0  0
 36 73  1  0  0  0  0
 36 85  2  0  0  0  0
 37 58  1  0  0  0  0
 37 77  1  0  0  0  0
 37 86  2  0  0  0  0
 38 59  1  0  0  0  0
 38 80  1  0  0  0  0
 38 87  2  0  0  0  0
 39 68  1  0  0  0  0
 39 81  1  0  0  0  0
 39 88  2  0  0  0  0
 40 74  1  0  0  0  0
 40 78  1  0  0  0  0
 40 89  2  0  0  0  0
 41 44  1  0  0  0  0
 42 51  1  0  0  0  0
 43 73  1  0  0  0  0
 44 46  1  0  0  0  0
 45 47  1  0  0  0  0
 45 48  1  0  0  0  0
 46 50  1  0  0  0  0
 47 52  1  0  0  0  0
 48 74  1  0  0  0  0
 49 52  1  0  0  0  0
 49 74  1  0  0  0  0
 50 79  1  0  0  0  0
 51 73  1  0  0  0  0
 52 72  1  0  0  0  0
 53 68  1  0  0  0  0
 54 70  1  0  0  0  0
 55 70  1  0  0  0  0
 56 70  1  0  0  0  0
 57 82  1  0  0  0  0
 58 60  1  0  0  0  0
 59 91  1  0  0  0  0
 60 61  1  0  0  0  0
 61 62  1  0  0  0  0
 62 63  1  0  0  0  0
 63 64  1  0  0  0  0
 64 65  1  0  0  0  0
 65 66  1  0  0  0  0
 66 80  1  0  0  0  0
 67 70  1  0  0  0  0
 67 81  1  0  0  0  0
 68 82  1  0  0  0  0
 69 94  1  0  0  0  0
 69 95  1  0  0  0  0
 69 96  1  0  0  0  0
 71 72  1  0  0  0  0
M  CHG  1  82   1
M  ISO  4  40 100  59 101  78 100  91 101
M  END
> <Batch ID>
0005

> <Smiles>
CNC(C)C(=O)NC(C(=O)N1Cc2cc([101O:1][101CH2:1]C(=O)NCCCCCCCCC(=O)Nc3ccc([100NH:0][100C:0](=O)N4CCCC(n5nc(-c6ccc(Oc7ccc(F)cc7F)cc6)c(C(N)=O)c5N)C4)c(C(F)(F)F)c3)ccc2CC1C(=O)NC1CCCc2ccccc21)C(C)(C)C

> <Shape>
0.219

> <Color>
0.190

> <Negative vol penalty>
0.000

$$$$

  -OEChem-04052315263D

 88 96  0     1  0  0  0  0  0999 V2000
  -19.2415  -24.7554   20.0890 C   0  0  0  0  0  0  0  0  0  0  0  0
  -20.0902  -25.6931   19.5094 C   0  0  0  0  0  0  0  0  0  0  0  0
  -29.9821  -22.7819   22.4576 C   0  0  0  0  0  0  0  0  0  0  0  0
  -23.3655  -14.4183   20.9043 C   0  0  0  0  0  0  0  0  0  0  0  0
  -25.3557  -14.8874   22.1912 C   0  0  0  0  0  0  0  0  0  0  0  0
  -19.0988  -24.7090   21.4752 C   0  0  0  0  0  0  0  0  0  0  0  0
  -20.7958  -26.5856   20.3155 C   0  0  0  0  0  0  0  0  0  0  0  0
  -25.6420  -27.0491   18.9212 C   0  0  0  0  0  0  0  0  0  0  0  0
  -28.6725  -22.3122   22.3585 C   0  0  0  0  0  0  0  0  0  0  0  0
  -30.4590  -23.7174   21.5394 C   0  0  0  0  0  0  0  0  0  0  0  0
  -23.8719  -13.1599   20.5797 C   0  0  0  0  0  0  0  0  0  0  0  0
  -25.8621  -13.6289   21.8667 C   0  0  0  0  0  0  0  0  0  0  0  0
  -25.9116  -27.8493   17.8118 C   0  0  0  0  0  0  0  0  0  0  0  0
  -24.4819   -9.6835   19.7091 C   0  0  0  0  0  0  0  0  0  0  0  0
  -23.6174   -8.5929   19.8021 C   0  0  0  0  0  0  0  0  0  0  0  0
  -26.5454  -29.6574   19.2775 C   0  0  0  0  0  0  0  0  0  0  0  0
  -28.3165  -23.7133   20.4227 C   0  0  0  0  0  0  0  0  0  0  0  0
  -23.3023   -9.0434   22.1548 C   0  0  0  0  0  0  0  0  0  0  0  0
  -24.1074  -15.2822   21.7099 C   0  0  0  0  0  0  0  0  0  0  0  0
  -22.7879  -16.9180   23.1558 C   0  0  0  0  0  0  0  0  0  0  0  0
  -19.8103  -25.5950   22.2993 C   0  0  0  0  0  0  0  0  0  0  0  0
  -25.8119  -27.5515   20.2193 C   0  0  0  0  0  0  0  0  0  0  0  0
  -20.6614  -26.5519   21.7139 C   0  0  0  0  0  0  0  0  0  0  0  0
  -26.2797  -28.8608   20.4017 C   0  0  0  0  0  0  0  0  0  0  0  0
  -27.8397  -22.7778   21.3410 C   0  0  0  0  0  0  0  0  0  0  0  0
  -25.1202  -12.7651   21.0609 C   0  0  0  0  0  0  0  0  0  0  0  0
  -26.3606  -29.1546   17.9898 C   0  0  0  0  0  0  0  0  0  0  0  0
  -29.6262  -24.1830   20.5219 C   0  0  0  0  0  0  0  0  0  0  0  0
  -24.7567  -10.4541   20.8389 C   0  0  0  0  0  0  0  0  0  0  0  0
  -23.0276   -8.2728   21.0250 C   0  0  0  0  0  0  0  0  0  0  0  0
  -24.1669  -10.1340   22.0617 C   0  0  0  0  0  0  0  0  0  0  0  0
  -23.5850  -16.5825   22.0450 C   0  0  0  0  0  0  0  0  0  0  0  0
  -22.5592  -18.2655   23.0199 C   0  0  0  0  0  0  0  0  0  0  0  0
  -22.2981  -16.0860   24.2158 C   0  0  0  0  0  0  0  0  0  0  0  0
  -23.8869  -28.0629   22.6965 C   0  0  0  0  0  0  0  0  0  0  0  0
  -26.6642  -28.7905   24.2063 C   0  0  0  0  0  0  0  0  0  0  0  0
  -30.0654  -29.4921   16.1228 C   0  0  0  0  0  0  0  0  0  0  0  0
  -29.9078  -29.8241   23.9663 C   0  0  0  0  0  0  0  0  0  0  0  0
  -25.5524  -22.6593   20.2920 C   0  0  0  0  0  0  0  0  0  0  0  0
  -19.5873  -25.5379   23.7898 C   0  0  0  0  0  0  0  0  0  0  0  0
  -25.5423  -26.6669   21.4055 C   0  0  0  0  0  0  0  0  0  0  0  0
  -26.4979  -29.4409   21.7743 C   0  0  0  0  0  0  0  0  0  0  0  0
  -20.6569  -26.2721   24.5943 C   0  0  0  0  0  0  0  0  0  0  0  0
  -22.1827  -21.6823   19.6855 C   0  0  0  0  0  0  0  0  0  0  0  0
  -20.9312  -27.6453   23.9893 C   0  0  0  0  0  0  0  0  0  0  0  0
  -22.0856  -20.2967   20.3282 C   0  0  0  0  0  0  0  0  0  0  0  0
  -23.5450  -21.9107   19.0331 C   0  0  0  0  0  0  0  0  0  0  0  0
  -24.6032  -20.2826   20.5492 C   0  0  0  0  0  0  0  0  0  0  0  0
  -21.4626  -27.5206   22.5563 C   0  0  1  0  0  0  0  0  0  0  0  0
  -25.2590  -27.4506   22.6833 C   0  0  1  0  0  0  0  0  0  0  0  0
  -23.2718  -20.0307   21.2757 C   0  0  2  0  0  0  0  0  0  0  0  0
  -31.9135  -30.3615   25.3755 C   0  0  0  0  0  0  0  0  0  0  0  0
  -25.3900  -31.4461   25.0028 C   0  0  0  0  0  0  0  0  0  0  0  0
  -27.6786  -32.2996   25.5525 C   0  0  0  0  0  0  0  0  0  0  0  0
  -26.7407  -30.3556   26.8031 C   0  0  0  0  0  0  0  0  0  0  0  0
  -31.5219  -27.6999   22.6850 C   0  0  0  0  0  0  0  0  0  0  0  0
  -29.1722  -30.6609   15.7466 C   0  0  0  0  0  0  0  0  0  0  0  0
  -27.9567  -30.2281   14.9347 C   0  0  0  0  0  0  0  0  0  0  0  0
  -30.9283  -27.7681   18.8280 C   0  0  0  0  0  0  0  0  0  0  0  0
  -29.8566  -26.9468   18.1105 C   0  0  0  0  0  0  0  0  0  0  0  0
  -31.6306  -28.7522   17.8978 C   0  0  0  0  0  0  0  0  0  0  0  0
  -27.0634  -29.2798   15.7212 C   0  0  0  0  0  0  0  0  0  1  0  0
  -29.1429  -26.0006   19.0663 C   0  0  0  0  0  0  0  0  0  0  0  0
  -27.4762  -30.0478   24.4038 C   0  0  1  0  0  0  0  0  0  0  0  0
  -31.1850  -29.2855   24.5853 C   0  0  2  0  0  0  0  0  0  0  0  0
  -26.8155  -31.0272   25.4145 C   0  0  0  0  0  0  0  0  0  0  0  0
  -23.8451  -17.6322   21.2612 N   0  0  0  0  0  0  0  0  0  0  0  0
  -23.2077  -18.6405   21.8802 N   0  0  0  0  0  0  0  0  0  0  0  0
  -26.2142  -28.5386   22.9025 N   0  0  0  0  0  0  0  0  0  0  0  0
  -24.6201  -21.6438   19.9910 N   0  0  0  0  0  0  0  0  0  0  0  0
  -21.8687  -19.1543   23.7653 N   0  0  0  0  0  0  0  0  0  0  0  0
  -22.6270  -14.7237   24.2023 N   0  0  0  0  0  0  0  0  0  0  0  0
  -26.5093  -22.3006   21.2408 N   0  0  0  0  0  0  0  0  0  0  0  0
  -22.8607  -27.1467   22.5665 N   0  0  0  0  0  0  0  0  0  0  0  0
  -30.7228  -29.7167   17.3235 N   0  0  0  0  0  0  0  0  0  0  0  0
  -28.8164  -29.6129   24.7821 N   0  0  0  0  0  0  0  0  0  0  0  0
  -32.1016  -28.7799   23.5245 N   0  3  0  0  0  0  0  0  0  0  0  0
  -21.5760  -16.5341   25.1385 O   0  0  0  0  0  0  0  0  0  0  0  0
  -23.7680  -29.2766   22.8173 O   0  0  0  0  0  0  0  0  0  0  0  0
  -26.4436  -28.0552   25.1719 O   0  0  0  0  0  0  0  0  0  0  0  0
  -30.1780  -28.4806   15.4356 O   0  0  0  0  0  0  0  0  0  0  0  0
  -29.8816  -30.3800   22.8705 O   0  0  0  0  0  0  0  0  0  0  0  0
  -25.4889  -23.7745   19.7684 O   0  0  0  0  0  0  0  0  0  0  0  0
  -25.6146  -11.5371   20.7447 O   0  0  0  0  0  0  0  0  0  0  0  0
  -26.6239  -29.9380   16.9086 O   0  0  0  0  0  0  0  0  0  1  0  0
  -30.0947  -25.1022   19.6193 O   0  0  0  0  0  0  0  0  0  0  0  0
  -22.1962   -7.2263   21.1138 F   0  0  0  0  0  0  0  0  0  0  0  0
  -24.4261  -10.8713   23.1503 F   0  0  0  0  0  0  0  0  0  0  0  0
  1  2  1  0  0  0  0
  1  6  2  0  0  0  0
  2  7  2  0  0  0  0
  3  9  1  0  0  0  0
  3 10  2  0  0  0  0
  4 11  2  0  0  0  0
  4 19  1  0  0  0  0
  5 12  1  0  0  0  0
  5 19  2  0  0  0  0
  6 21  1  0  0  0  0
  7 23  1  0  0  0  0
  8 13  2  0  0  0  0
  8 22  1  0  0  0  0
  9 25  2  0  0  0  0
 10 28  1  0  0  0  0
 11 26  1  0  0  0  0
 12 26  2  0  0  0  0
 13 27  1  0  0  0  0
 14 15  2  0  0  0  0
 14 29  1  0  0  0  0
 15 30  1  0  0  0  0
 16 24  1  0  0  0  0
 16 27  2  0  0  0  0
 17 25  1  0  0  0  0
 17 28  2  0  0  0  0
 18 30  2  0  0  0  0
 18 31  1  0  0  0  0
 19 32  1  0  0  0  0
 20 32  1  0  0  0  0
 20 33  2  0  0  0  0
 20 34  1  0  0  0  0
 21 23  2  0  0  0  0
 21 40  1  0  0  0  0
 22 24  2  0  0  0  0
 22 41  1  0  0  0  0
 23 49  1  0  0  0  0
 24 42  1  0  0  0  0
 25 73  1  0  0  0  0
 26 84  1  0  0  0  0
 27 85  1  0  0  0  0
 28 86  1  0  0  0  0
 29 31  2  0  0  0  0
 29 84  1  0  0  0  0
 30 87  1  0  0  0  0
 31 88  1  0  0  0  0
 32 67  2  0  0  0  0
 33 68  1  0  0  0  0
 33 71  1  0  0  0  0
 34 72  1  0  0  0  0
 34 78  2  0  0  0  0
 35 50  1  0  0  0  0
 35 74  1  0  0  0  0
 35 79  2  0  0  0  0
 36 64  1  0  0  0  0
 36 69  1  0  0  0  0
 36 80  2  0  0  0  0
 37 57  1  0  0  0  0
 37 75  1  0  0  0  0
 37 81  2  0  0  0  0
 38 65  1  0  0  0  0
 38 76  1  0  0  0  0
 38 82  2  0  0  0  0
 39 70  1  0  0  0  0
 39 73  1  0  0  0  0
 39 83  2  0  0  0  0
 40 43  1  0  0  0  0
 41 50  1  0  0  0  0
 42 69  1  0  0  0  0
 43 45  1  0  0  0  0
 44 46  1  0  0  0  0
 44 47  1  0  0  0  0
 45 49  1  0  0  0  0
 46 51  1  0  0  0  0
 47 70  1  0  0  0  0
 48 51  1  0  0  0  0
 48 70  1  0  0  0  0
 49 74  1  0  0  0  0
 50 69  1  0  0  0  0
 51 68  1  0  0  0  0
 52 65  1  0  0  0  0
 53 66  1  0  0  0  0
 54 66  1  0  0  0  0
 55 66  1  0  0  0  0
 56 77  1  0  0  0  0
 57 58  1  0  0  0  0
 58 62  1  0  0  0  0
 59 60  1  0  0  0  0
 59 61  1  0  0  0  0
 60 63  1  0  0  0  0
 61 75  1  0  0  0  0
 62 85  1  0  0  0  0
 63 86  1  0  0  0  0
 64 66  1  0  0  0  0
 64 76  1  0  0  0  0
 65 77  1  0  0  0  0
 67 68  1  0  0  0  0
M  CHG  1  77   1
M  ISO  4  39 100  62 101  73 100  85 101
M  END
> <Batch ID>
0005

> <Smiles>
CNC(C)C(=O)NC(C(=O)N1Cc2cc([101O:1][101CH2:1]CCC(=O)NCCCCOc3cccc([100NH:0][100C:0](=O)N4CCCC(n5nc(-c6ccc(Oc7ccc(F)cc7F)cc6)c(C(N)=O)c5N)C4)c3)ccc2CC1C(=O)NC1CCCc2ccccc21)C(C)(C)C

> <Shape>
0.199

> <Color>
0.077

> <Negative vol penalty>
0.000

$$$$

  -OEChem-04052315263D

 98106  0     1  0  0  0  0  0999 V2000
  -16.8529  -30.8581   20.2393 C   0  0  0  0  0  0  0  0  0  0  0  0
  -18.0668  -31.5322   20.3251 C   0  0  0  0  0  0  0  0  0  0  0  0
  -21.9898  -10.8605   21.0910 C   0  0  0  0  0  0  0  0  0  0  0  0
  -23.7942  -10.1171   22.5152 C   0  0  0  0  0  0  0  0  0  0  0  0
  -16.5444  -29.8600   21.1627 C   0  0  0  0  0  0  0  0  0  0  0  0
  -18.9725  -31.2094   21.3350 C   0  0  0  0  0  0  0  0  0  0  0  0
  -24.1760  -25.1207   22.4177 C   0  0  0  0  0  0  0  0  0  0  0  0
  -29.4717  -13.3402   21.6962 C   0  0  0  0  0  0  0  0  0  0  0  0
  -28.2938  -13.0445   19.6076 C   0  0  0  0  0  0  0  0  0  0  0  0
  -29.1689  -14.7016   21.6743 C   0  0  0  0  0  0  0  0  0  0  0  0
  -27.9910  -14.4059   19.5857 C   0  0  0  0  0  0  0  0  0  0  0  0
  -21.1211   -9.9755   21.7295 C   0  0  0  0  0  0  0  0  0  0  0  0
  -22.9255   -9.2322   23.1539 C   0  0  0  0  0  0  0  0  0  0  0  0
  -24.3437  -24.0209   21.5760 C   0  0  0  0  0  0  0  0  0  0  0  0
  -21.5625   -6.1997   22.5393 C   0  0  0  0  0  0  0  0  0  0  0  0
  -22.0142   -4.9001   22.7682 C   0  0  0  0  0  0  0  0  0  0  0  0
  -22.9940  -25.0973   19.8827 C   0  0  0  0  0  0  0  0  0  0  0  0
  -21.7214   -5.2169   25.1454 C   0  0  0  0  0  0  0  0  0  0  0  0
  -23.3264  -10.9312   21.4838 C   0  0  0  0  0  0  0  0  0  0  0  0
  -24.4927  -13.1798   21.1813 C   0  0  0  0  0  0  0  0  0  0  0  0
  -17.4508  -29.5181   22.1786 C   0  0  0  0  0  0  0  0  0  0  0  0
  -23.4285  -26.2209   21.9885 C   0  0  0  0  0  0  0  0  0  0  0  0
  -18.6752  -30.2067   22.2736 C   0  0  0  0  0  0  0  0  0  0  0  0
  -22.8329  -26.2071   20.7165 C   0  0  0  0  0  0  0  0  0  0  0  0
  -29.0342  -12.5116   20.6628 C   0  0  0  0  0  0  0  0  0  0  0  0
  -28.4285  -15.2344   20.6191 C   0  0  0  0  0  0  0  0  0  0  0  0
  -21.5889   -9.1614   22.7610 C   0  0  0  0  0  0  0  0  0  0  0  0
  -23.7540  -24.0092   20.3118 C   0  0  0  0  0  0  0  0  0  0  0  0
  -21.1904   -7.0081   23.6135 C   0  0  0  0  0  0  0  0  0  0  0  0
  -22.0936   -4.4086   24.0712 C   0  0  0  0  0  0  0  0  0  0  0  0
  -21.2698   -6.5167   24.9165 C   0  0  0  0  0  0  0  0  0  0  0  0
  -24.2244  -11.8448   20.8241 C   0  0  0  0  0  0  0  0  0  0  0  0
  -25.4060  -13.6077   20.2490 C   0  0  0  0  0  0  0  0  0  0  0  0
  -27.0774  -17.9029   23.6313 C   0  0  0  0  0  0  0  0  0  0  0  0
  -27.3893  -18.0826   22.3429 C   0  0  0  0  0  0  0  0  0  0  0  0
  -23.9637  -13.9630   22.2594 C   0  0  0  0  0  0  0  0  0  0  0  0
  -22.1073  -29.6428   22.7767 C   0  0  0  0  0  0  0  0  0  0  0  0
  -23.0070  -29.6886   19.8443 C   0  0  0  0  0  0  0  0  0  0  0  0
  -28.1183  -20.6164   19.7164 C   0  0  0  0  0  0  0  0  0  0  0  0
  -26.1875  -30.8231   20.3285 C   0  0  0  0  0  0  0  0  0  0  0  0
  -28.9859  -10.1693   19.7384 C   0  0  0  0  0  0  0  0  0  0  0  0
  -17.0530  -28.4649   23.1822 C   0  0  0  0  0  0  0  0  0  0  0  0
  -23.1703  -27.4011   22.8853 C   0  0  0  0  0  0  0  0  0  0  0  0
  -22.0086  -27.3981   20.3104 C   0  0  0  0  0  0  0  0  0  0  0  0
  -18.2263  -27.9246   23.9956 C   0  0  0  0  0  0  0  0  0  0  0  0
  -26.2743  -10.1249   17.2603 C   0  0  0  0  0  0  0  0  0  0  0  0
  -19.0955  -29.0701   24.5046 C   0  0  0  0  0  0  0  0  0  0  0  0
  -25.9732  -11.6128   17.0884 C   0  0  0  0  0  0  0  0  0  0  0  0
  -27.7596   -9.8909   17.5024 C   0  0  0  0  0  0  0  0  0  0  0  0
  -28.0097  -12.1174   18.5491 C   0  0  0  0  0  0  0  0  0  0  0  0
  -19.6942  -29.8679   23.3399 C   0  0  1  0  0  0  0  0  0  0  0  0
  -23.1084  -28.7366   22.1224 C   0  0  1  0  0  0  0  0  0  0  0  0
  -26.5497  -12.4877   18.2167 C   0  0  2  0  0  0  0  0  0  0  0  0
  -27.3169  -28.6653   20.9332 C   0  0  0  0  0  0  0  0  0  0  0  0
  -22.4956  -33.0323   21.1920 C   0  0  0  0  0  0  0  0  0  0  0  0
  -23.6351  -31.5769   22.8807 C   0  0  0  0  0  0  0  0  0  0  0  0
  -21.5525  -30.7863   21.7581 C   0  0  0  0  0  0  0  0  0  0  0  0
  -28.7309  -31.3388   22.7539 C   0  0  0  0  0  0  0  0  0  0  0  0
  -36.2069  -19.9254   15.1061 C   0  0  0  0  0  0  0  0  0  0  0  0
  -34.4394  -21.6769   15.1993 C   0  0  0  0  0  0  0  0  0  0  0  0
  -28.5813  -17.4723   21.6814 C   0  0  0  0  0  0  0  0  0  0  0  0
  -27.2293  -21.8456   19.7774 C   0  0  0  0  0  0  0  0  0  0  0  0
  -25.9008  -21.6406   19.0584 C   0  0  0  0  0  0  0  0  0  0  0  0
  -30.2998  -18.9270   15.8859 C   0  0  0  0  0  0  0  0  0  0  0  0
  -31.4527  -19.8639   16.2637 C   0  0  0  0  0  0  0  0  0  0  0  0
  -29.8690  -17.9241   16.9613 C   0  0  0  0  0  0  0  0  0  0  0  0
  -32.6388  -19.7907   15.2972 C   0  0  0  0  0  0  0  0  0  0  0  0
  -28.3816  -18.0201   17.3225 C   0  0  0  0  0  0  0  0  0  0  0  0
  -27.3706  -17.1884   19.5130 C   0  0  0  0  0  0  0  0  0  0  0  0
  -33.9393  -19.3615   15.9672 C   0  0  0  0  0  0  0  0  0  0  0  0
  -24.7174  -21.8580   19.9902 C   0  0  0  0  0  0  0  0  0  1  0  0
  -23.7100  -30.8803   20.4435 C   0  0  1  0  0  0  0  0  0  0  0  0
  -27.3962  -30.1830   20.9872 C   0  0  2  0  0  0  0  0  0  0  0  0
  -28.1579  -18.3057   18.8177 C   0  0  2  0  0  0  0  0  0  0  0  0
  -22.8618  -31.5768   21.5448 C   0  0  0  0  0  0  0  0  0  0  0  0
  -24.9116  -11.4506   19.7487 N   0  0  0  0  0  0  0  0  0  0  0  0
  -25.6206  -12.5445   19.4221 N   0  0  0  0  0  0  0  0  0  0  0  0
  -22.6866  -28.6397   20.7147 N   0  0  0  0  0  0  0  0  0  0  0  0
  -28.2323  -10.6721   18.6532 N   0  0  0  0  0  0  0  0  0  0  0  0
  -26.0384  -14.7860   20.0640 N   0  0  0  0  0  0  0  0  0  0  0  0
  -23.0350  -13.3682   23.1243 N   0  0  0  0  0  0  0  0  0  0  0  0
  -29.3434  -11.1291   20.6846 N   0  0  0  0  0  0  0  0  0  0  0  0
  -20.8141  -29.1560   22.7625 N   0  0  0  0  0  0  0  0  0  0  0  0
  -25.0082  -30.3995   20.9038 N   0  0  0  0  0  0  0  0  0  0  0  0
  -27.5131  -19.5842   19.0164 N   0  0  0  0  0  0  0  0  0  0  0  0
  -28.1239  -16.6019   20.5979 N   0  0  3  0  0  0  0  0  0  0  0  0
  -27.4883  -30.5983   22.4155 N   0  3  0  0  0  0  0  0  0  0  0  0
  -34.9741  -20.4129   15.8286 N   0  3  0  0  0  0  0  0  0  0  0  0
  -24.2921  -15.1600   22.4405 O   0  0  0  0  0  0  0  0  0  0  0  0
  -22.4798  -30.7052   23.2607 O   0  0  0  0  0  0  0  0  0  0  0  0
  -22.7526  -29.6828   18.6366 O   0  0  0  0  0  0  0  0  0  0  0  0
  -29.2328  -20.5636   20.2295 O   0  0  0  0  0  0  0  0  0  0  0  0
  -26.2804  -31.6221   19.3993 O   0  0  0  0  0  0  0  0  0  0  0  0
  -29.3184   -8.9831   19.8039 O   0  0  0  0  0  0  0  0  0  0  0  0
  -20.7415   -8.2979   23.3846 O   0  0  0  0  0  0  0  0  0  0  0  0
  -23.9268  -22.9262   19.4874 O   0  0  0  0  0  0  0  0  0  1  0  0
  -22.5259   -3.1600   24.2907 F   0  0  0  0  0  0  0  0  0  0  0  0
  -20.9125   -7.2881   25.9524 F   0  0  0  0  0  0  0  0  0  0  0  0
  1  2  1  0  0  0  0
  1  5  2  0  0  0  0
  2  6  2  0  0  0  0
  3 12  2  0  0  0  0
  3 19  1  0  0  0  0
  4 13  1  0  0  0  0
  4 19  2  0  0  0  0
  5 21  1  0  0  0  0
  6 23  1  0  0  0  0
  7 14  2  0  0  0  0
  7 22  1  0  0  0  0
  8 10  2  0  0  0  0
  8 25  1  0  0  0  0
  9 11  1  0  0  0  0
  9 25  2  0  0  0  0
 10 26  1  0  0  0  0
 11 26  2  0  0  0  0
 12 27  1  0  0  0  0
 13 27  2  0  0  0  0
 14 28  1  0  0  0  0
 15 16  2  0  0  0  0
 15 29  1  0  0  0  0
 16 30  1  0  0  0  0
 17 24  1  0  0  0  0
 17 28  2  0  0  0  0
 18 30  2  0  0  0  0
 18 31  1  0  0  0  0
 19 32  1  0  0  0  0
 20 32  1  0  0  0  0
 20 33  2  0  0  0  0
 20 36  1  0  0  0  0
 21 23  2  0  0  0  0
 21 42  1  0  0  0  0
 22 24  2  0  0  0  0
 22 43  1  0  0  0  0
 23 51  1  0  0  0  0
 24 44  1  0  0  0  0
 25 82  1  0  0  0  0
 26 86  1  0  0  0  0
 27 95  1  0  0  0  0
 28 96  1  0  0  0  0
 29 31  2  0  0  0  0
 29 95  1  0  0  0  0
 30 97  1  0  0  0  0
 31 98  1  0  0  0  0
 32 76  2  0  0  0  0
 33 77  1  0  0  0  0
 33 80  1  0  0  0  0
 34 35  2  0  0  0  0
 35 61  1  0  0  0  0
 36 81  1  0  0  0  0
 36 89  2  0  0  0  0
 37 52  1  0  0  0  0
 37 83  1  0  0  0  0
 37 90  2  0  0  0  0
 38 72  1  0  0  0  0
 38 78  1  0  0  0  0
 38 91  2  0  0  0  0
 39 62  1  0  0  0  0
 39 85  1  0  0  0  0
 39 92  2  0  0  0  0
 40 73  1  0  0  0  0
 40 84  1  0  0  0  0
 40 93  2  0  0  0  0
 41 79  1  0  0  0  0
 41 82  1  0  0  0  0
 41 94  2  0  0  0  0
 42 45  1  0  0  0  0
 43 52  1  0  0  0  0
 44 78  1  0  0  0  0
 45 47  1  0  0  0  0
 46 48  1  0  0  0  0
 46 49  1  0  0  0  0
 47 51  1  0  0  0  0
 48 53  1  0  0  0  0
 49 79  1  0  0  0  0
 50 53  1  0  0  0  0
 50 79  1  0  0  0  0
 51 83  1  0  0  0  0
 52 78  1  0  0  0  0
 53 77  1  0  0  0  0
 54 73  1  0  0  0  0
 55 75  1  0  0  0  0
 56 75  1  0  0  0  0
 57 75  1  0  0  0  0
 58 87  1  0  0  0  0
 59 88  1  0  0  0  0
 60 88  1  0  0  0  0
 61 86  1  0  0  0  0
 62 63  1  0  0  0  0
 63 71  1  0  0  0  0
 64 65  1  0  0  0  0
 64 66  1  0  0  0  0
 65 67  1  0  0  0  0
 66 68  1  0  0  0  0
 67 70  1  0  0  0  0
 68 74  1  0  0  0  0
 69 74  1  0  0  0  0
 69 86  1  0  0  0  0
 70 88  1  0  0  0  0
 71 96  1  0  0  0  0
 72 75  1  0  0  0  0
 72 84  1  0  0  0  0
 73 87  1  0  0  0  0
 74 85  1  0  0  0  0
 76 77  1  0  0  0  0
M  CHG  2  87   1  88   1
M  ISO  4  41 100  71 101  82 100  96 101
M  END
> <Batch ID>
0005

> <Smiles>
C=CCN(CC(CCCCCCN(C)C)NC(=O)CC[101CH2:1][101O:1]c1ccc2c(c1)CN(C(=O)C(NC(=O)C(C)NC)C(C)(C)C)C(C(=O)NC1CCCc3ccccc31)C2)c1ccc([100NH:0][100C:0](=O)N2CCCC(n3nc(-c4ccc(Oc5ccc(F)cc5F)cc4)c(C(N)=O)c3N)C2)cc1

> <Shape>
0.296

> <Color>
0.095

> <Negative vol penalty>
0.000

$$$$

  -OEChem-04052315263D

100109  0     1  0  0  0  0  0999 V2000
  -27.9666   -9.2344   21.9838 C   0  0  0  0  0  0  0  0  0  0  0  0
  -28.5989  -10.4255   21.6419 C   0  0  0  0  0  0  0  0  0  0  0  0
  -26.6252  -24.8388   24.0629 C   0  0  0  0  0  0  0  0  0  0  0  0
  -18.3068  -23.6977   17.4183 C   0  0  0  0  0  0  0  0  0  0  0  0
  -20.0785  -22.4182   18.4484 C   0  0  0  0  0  0  0  0  0  0  0  0
  -26.5798   -9.1295   21.8856 C   0  0  0  0  0  0  0  0  0  0  0  0
  -27.8447  -11.5122   21.2004 C   0  0  0  0  0  0  0  0  0  0  0  0
  -28.9713  -17.4412   22.2412 C   0  0  0  0  0  0  0  0  0  0  0  0
  -25.3896  -25.1203   24.6457 C   0  0  0  0  0  0  0  0  0  0  0  0
  -27.3157  -25.8370   23.3755 C   0  0  0  0  0  0  0  0  0  0  0  0
  -25.8759  -30.6371   21.5387 C   0  0  0  0  0  0  0  0  0  0  0  0
  -18.6826  -23.2104   16.1666 C   0  0  0  0  0  0  0  0  0  0  0  0
  -20.4543  -21.9308   17.1966 C   0  0  0  0  0  0  0  0  0  0  0  0
  -29.5784  -18.4303   21.4687 C   0  0  0  0  0  0  0  0  0  0  0  0
  -22.1968  -23.0296   14.5158 C   0  0  0  0  0  0  0  0  0  0  0  0
  -24.7672  -31.4778   21.4412 C   0  0  0  0  0  0  0  0  0  0  0  0
  -23.5569  -23.0173   14.2068 C   0  0  0  0  0  0  0  0  0  0  0  0
  -27.4082  -19.1627   20.7117 C   0  0  0  0  0  0  0  0  0  0  0  0
  -25.5350  -27.3982   23.8536 C   0  0  0  0  0  0  0  0  0  0  0  0
  -23.4706  -20.6196   13.9224 C   0  0  0  0  0  0  0  0  0  0  0  0
  -19.0048  -23.3016   18.5593 C   0  0  0  0  0  0  0  0  0  0  0  0
  -17.6882  -23.2352   20.7432 C   0  0  0  0  0  0  0  0  0  0  0  0
  -25.8074  -10.2185   21.4519 C   0  0  0  0  0  0  0  0  0  0  0  0
  -27.5763  -17.2981   22.2463 C   0  0  0  0  0  0  0  0  0  0  0  0
  -26.4464  -11.4213   21.0950 C   0  0  0  0  0  0  0  0  0  0  0  0
  -26.7857  -18.1726   21.4871 C   0  0  0  0  0  0  0  0  0  0  0  0
  -24.8445  -26.4000   24.5411 C   0  0  0  0  0  0  0  0  0  0  0  0
  -26.7706  -27.1167   23.2708 C   0  0  0  0  0  0  0  0  0  0  0  0
  -25.7882  -29.3141   21.1053 C   0  0  0  0  0  0  0  0  0  0  0  0
  -19.7563  -22.3269   16.0557 C   0  0  0  0  0  0  0  0  0  0  0  0
  -28.7970  -19.2894   20.7015 C   0  0  0  0  0  0  0  0  0  0  0  0
  -21.4736  -21.8369   14.5282 C   0  0  0  0  0  0  0  0  0  0  0  0
  -24.1938  -21.8123   13.9100 C   0  0  0  0  0  0  0  0  0  0  0  0
  -23.5708  -30.9956   20.9104 C   0  0  0  0  0  0  0  0  0  0  0  0
  -22.1104  -20.6320   14.2315 C   0  0  0  0  0  0  0  0  0  0  0  0
  -24.5918  -28.8319   20.5746 C   0  0  0  0  0  0  0  0  0  0  0  0
  -23.4831  -29.6726   20.4771 C   0  0  0  0  0  0  0  0  0  0  0  0
  -18.6175  -23.8052   19.8525 C   0  0  0  0  0  0  0  0  0  0  0  0
  -17.6782  -24.0870   21.8206 C   0  0  0  0  0  0  0  0  0  0  0  0
  -16.9042  -22.0423   20.6088 C   0  0  0  0  0  0  0  0  0  0  0  0
  -25.5547  -14.9935   21.4064 C   0  0  0  0  0  0  0  0  0  0  0  0
  -23.3484  -16.9985   22.6849 C   0  0  0  0  0  0  0  0  0  0  0  0
  -27.4648  -27.8757   20.0339 C   0  0  0  0  0  0  0  0  0  0  0  0
  -22.4805  -20.1869   23.5380 C   0  0  0  0  0  0  0  0  0  0  0  0
  -21.7068  -27.9363   24.0126 C   0  0  0  0  0  0  0  0  0  0  0  0
  -24.3156  -10.0423   21.3168 C   0  0  0  0  0  0  0  0  0  0  0  0
  -26.9352  -16.2433   23.1058 C   0  0  0  0  0  0  0  0  0  0  0  0
  -25.2828  -18.0738   21.4738 C   0  0  0  0  0  0  0  0  0  0  0  0
  -23.5549  -11.3605   21.1977 C   0  0  0  0  0  0  0  0  0  0  0  0
  -18.3836  -28.6771   22.9714 C   0  0  0  0  0  0  0  0  0  0  0  0
  -24.2357  -12.2805   20.1892 C   0  0  0  0  0  0  0  0  0  0  0  0
  -17.9829  -27.4611   22.1344 C   0  0  0  0  0  0  0  0  0  0  0  0
  -19.8568  -29.0318   22.7822 C   0  0  0  0  0  0  0  0  0  0  0  0
  -20.3959  -26.7036   22.1799 C   0  0  0  0  0  0  0  0  0  0  0  0
  -25.6604  -12.6302   20.6356 C   0  0  1  0  0  0  0  0  0  0  0  0
  -25.5362  -15.8581   22.6352 C   0  0  1  0  0  0  0  0  0  0  0  0
  -18.9327  -26.2734   22.3803 C   0  0  2  0  0  0  0  0  0  0  0  0
  -30.6728  -27.8719   15.8076 C   0  0  0  0  0  0  0  0  0  0  0  0
  -20.5984  -21.5177   24.5299 C   0  0  0  0  0  0  0  0  0  0  0  0
  -21.8178  -16.7905   20.0536 C   0  0  0  0  0  0  0  0  0  0  0  0
  -20.5146  -18.8178   20.7318 C   0  0  0  0  0  0  0  0  0  0  0  0
  -20.3836  -16.7371   22.1017 C   0  0  0  0  0  0  0  0  0  0  0  0
  -24.1572  -21.0868   25.8046 C   0  0  0  0  0  0  0  0  0  0  0  0
  -23.5240  -26.7005   25.1658 C   0  0  0  0  0  0  0  0  0  0  0  0
  -27.5136  -28.1908   22.5303 C   0  0  0  0  0  0  0  0  0  0  0  0
  -28.6427  -26.9442   20.2525 C   0  0  0  0  0  0  0  0  0  0  0  0
  -29.8761  -26.9103   16.6744 C   0  0  0  0  0  0  0  0  0  0  0  0
  -28.8846  -23.9334   19.3323 C   0  0  0  0  0  0  0  0  0  0  0  0
  -29.6148  -22.6166   19.5855 C   0  0  0  0  0  0  0  0  0  0  0  0
  -29.8798  -27.3497   18.1299 C   0  0  0  0  0  0  0  0  0  0  0  0
  -29.8698  -25.0784   19.1504 C   0  0  0  0  0  0  0  0  0  0  0  0
  -28.6434  -21.4533   19.7270 C   0  0  0  0  0  0  0  0  0  1  0  0
  -22.4953  -18.1263   22.1566 C   0  0  1  0  0  0  0  0  0  0  0  0
  -21.8884  -20.7632   24.8114 C   0  0  2  0  0  0  0  0  0  0  0  0
  -21.3312  -17.6188   21.2594 C   0  0  0  0  0  0  0  0  0  0  0  0
  -19.1584  -24.9321   20.3231 N   0  0  0  0  0  0  0  0  0  0  0  0
  -18.5672  -25.0771   21.5212 N   0  0  0  0  0  0  0  0  0  0  0  0
  -24.7034  -17.0221   22.3257 N   0  0  0  0  0  0  0  0  0  0  0  0
  -20.7039  -27.8630   23.0318 N   0  0  0  0  0  0  0  0  0  0  0  0
  -16.9957  -24.0784   22.9853 N   0  0  0  0  0  0  0  0  0  0  0  0
  -17.0367  -21.2842   19.4375 N   0  0  0  0  0  0  0  0  0  0  0  0
  -25.6319  -13.6397   21.6722 N   0  0  0  0  0  0  0  0  0  0  0  0
  -22.0624  -18.8909   23.3212 N   0  0  0  0  0  0  0  0  0  0  0  0
  -22.4601  -26.7822   24.1900 N   0  0  0  0  0  0  0  0  0  0  0  0
  -26.9250  -28.4558   21.2072 N   0  0  0  0  0  0  0  0  0  0  0  0
  -22.8520  -21.7024   25.4519 N   0  3  0  0  0  0  0  0  0  0  0  0
  -29.1168  -26.3404   18.9530 N   0  3  1  0  0  0  0  0  0  0  0  0
  -16.0976  -21.6688   21.4939 O   0  0  0  0  0  0  0  0  0  0  0  0
  -25.5013  -15.5160   20.2992 O   0  0  0  0  0  0  0  0  0  0  0  0
  -22.8329  -16.1324   23.3962 O   0  0  0  0  0  0  0  0  0  0  0  0
  -27.0363  -28.0430   18.8893 O   0  0  0  0  0  0  0  0  0  0  0  0
  -23.2352  -20.8240   22.8065 O   0  0  0  0  0  0  0  0  0  0  0  0
  -21.9120  -28.9530   24.6842 O   0  0  0  0  0  0  0  0  0  0  0  0
  -20.1231  -21.8509   14.8345 O   0  0  0  0  0  0  0  0  0  0  0  0
  -29.3871  -20.2553   19.9460 O   0  0  0  0  0  0  0  0  0  1  0  0
  -25.4996  -21.8008   13.6118 F   0  0  0  0  0  0  0  0  0  0  0  0
  -22.5054  -31.8023   20.8186 F   0  0  0  0  0  0  0  0  0  0  0  0
  -21.4206  -19.4831   14.2407 F   0  0  0  0  0  0  0  0  0  0  0  0
  -24.4960  -27.5620   20.1556 F   0  0  0  0  0  0  0  0  0  0  0  0
  -22.3341  -29.2091   19.9683 F   0  0  0  0  0  0  0  0  0  0  0  0
  1  2  1  0  0  0  0
  1  6  2  0  0  0  0
  2  7  2  0  0  0  0
  3  9  1  0  0  0  0
  3 10  2  0  0  0  0
  4 12  2  0  0  0  0
  4 21  1  0  0  0  0
  5 13  1  0  0  0  0
  5 21  2  0  0  0  0
  6 23  1  0  0  0  0
  7 25  1  0  0  0  0
  8 14  2  0  0  0  0
  8 24  1  0  0  0  0
  9 27  2  0  0  0  0
 10 28  1  0  0  0  0
 11 16  2  0  0  0  0
 11 29  1  0  0  0  0
 12 30  1  0  0  0  0
 13 30  2  0  0  0  0
 14 31  1  0  0  0  0
 15 17  2  0  0  0  0
 15 32  1  0  0  0  0
 16 34  1  0  0  0  0
 17 33  1  0  0  0  0
 18 26  1  0  0  0  0
 18 31  2  0  0  0  0
 19 27  1  0  0  0  0
 19 28  2  0  0  0  0
 20 33  2  0  0  0  0
 20 35  1  0  0  0  0
 21 38  1  0  0  0  0
 22 38  1  0  0  0  0
 22 39  2  0  0  0  0
 22 40  1  0  0  0  0
 23 25  2  0  0  0  0
 23 46  1  0  0  0  0
 24 26  2  0  0  0  0
 24 47  1  0  0  0  0
 25 55  1  0  0  0  0
 26 48  1  0  0  0  0
 27 64  1  0  0  0  0
 28 65  1  0  0  0  0
 29 36  2  0  0  0  0
 29 85  1  0  0  0  0
 30 94  1  0  0  0  0
 31 95  1  0  0  0  0
 32 35  2  0  0  0  0
 32 94  1  0  0  0  0
 33 96  1  0  0  0  0
 34 37  2  0  0  0  0
 34 97  1  0  0  0  0
 35 98  1  0  0  0  0
 36 37  1  0  0  0  0
 36 99  1  0  0  0  0
 37100  1  0  0  0  0
 38 76  2  0  0  0  0
 39 77  1  0  0  0  0
 39 80  1  0  0  0  0
 40 81  1  0  0  0  0
 40 88  2  0  0  0  0
 41 56  1  0  0  0  0
 41 82  1  0  0  0  0
 41 89  2  0  0  0  0
 42 73  1  0  0  0  0
 42 78  1  0  0  0  0
 42 90  2  0  0  0  0
 43 66  1  0  0  0  0
 43 85  1  0  0  0  0
 43 91  2  0  0  0  0
 44 74  1  0  0  0  0
 44 83  1  0  0  0  0
 44 92  2  0  0  0  0
 45 79  1  0  0  0  0
 45 84  1  0  0  0  0
 45 93  2  0  0  0  0
 46 49  1  0  0  0  0
 47 56  1  0  0  0  0
 48 78  1  0  0  0  0
 49 51  1  0  0  0  0
 50 52  1  0  0  0  0
 50 53  1  0  0  0  0
 51 55  1  0  0  0  0
 52 57  1  0  0  0  0
 53 79  1  0  0  0  0
 54 57  1  0  0  0  0
 54 79  1  0  0  0  0
 55 82  1  0  0  0  0
 56 78  1  0  0  0  0
 57 77  1  0  0  0  0
 58 67  1  0  0  0  0
 59 74  1  0  0  0  0
 60 75  1  0  0  0  0
 61 75  1  0  0  0  0
 62 75  1  0  0  0  0
 63 86  1  0  0  0  0
 64 84  1  0  0  0  0
 65 85  1  0  0  0  0
 66 87  1  0  0  0  0
 67 70  1  0  0  0  0
 68 69  1  0  0  0  0
 68 71  1  0  0  0  0
 69 72  1  0  0  0  0
 70 87  1  0  0  0  0
 71 87  1  0  0  0  0
 72 95  1  0  0  0  0
 73 75  1  0  0  0  0
 73 83  1  0  0  0  0
 74 86  1  0  0  0  0
 76 77  1  0  0  0  0
M  CHG  2  86   1  87   1
M  ISO  4  45 100  72 101  84 100  95 101
M  END
> <Batch ID>
0005

> <Smiles>
CCCN(CCC[101CH2:1][101O:1]c1ccc2c(c1)CN(C(=O)C(NC(=O)C(C)NC)C(C)(C)C)C(C(=O)NC1CCCc3ccccc31)C2)CC(=O)N(Cc1cccc(C[100NH:0][100C:0](=O)N2CCCC(n3nc(-c4ccc(Oc5ccc(F)cc5F)cc4)c(C(N)=O)c3N)C2)c1)c1ccc(F)c(F)c1F

> <Shape>
0.215

> <Color>
0.073

> <Negative vol penalty>
0.000

$$$$

  -OEChem-04052315263D

 99107  0     1  0  0  0  0  0999 V2000
  -27.9886  -37.2253   21.2534 C   0  0  0  0  0  0  0  0  0  0  0  0
  -27.9986  -35.8509   21.0386 C   0  0  0  0  0  0  0  0  0  0  0  0
  -22.8885   -3.5123   19.8677 C   0  0  0  0  0  0  0  0  0  0  0  0
  -22.6340   -5.5754   21.0989 C   0  0  0  0  0  0  0  0  0  0  0  0
  -27.6006  -37.7333   22.4925 C   0  0  0  0  0  0  0  0  0  0  0  0
  -27.6216  -34.9834   22.0632 C   0  0  0  0  0  0  0  0  0  0  0  0
  -24.5203  -31.3150   20.4602 C   0  0  0  0  0  0  0  0  0  0  0  0
  -22.4236   -2.7965   20.9709 C   0  0  0  0  0  0  0  0  0  0  0  0
  -22.1690   -4.8596   22.2022 C   0  0  0  0  0  0  0  0  0  0  0  0
  -25.0983  -30.2457   19.7774 C   0  0  0  0  0  0  0  0  0  0  0  0
  -23.4856   -3.0053   24.7040 C   0  0  0  0  0  0  0  0  0  0  0  0
  -23.9971   -3.3418   25.9572 C   0  0  0  0  0  0  0  0  0  0  0  0
  -25.0189  -28.9233   21.7934 C   0  0  0  0  0  0  0  0  0  0  0  0
  -27.8131  -11.9636   19.9127 C   0  0  0  0  0  0  0  0  0  0  0  0
  -29.8891  -11.7934   18.6888 C   0  0  0  0  0  0  0  0  0  0  0  0
  -21.7696   -3.8819   26.7213 C   0  0  0  0  0  0  0  0  0  0  0  0
  -22.9938   -4.9017   19.9317 C   0  0  0  0  0  0  0  0  0  0  0  0
  -22.7071   -6.1753   17.7401 C   0  0  0  0  0  0  0  0  0  0  0  0
  -27.2094  -36.8720   23.5298 C   0  0  0  0  0  0  0  0  0  0  0  0
  -24.1967  -31.1999   21.8198 C   0  0  0  0  0  0  0  0  0  0  0  0
  -27.2293  -35.4802   23.3178 C   0  0  0  0  0  0  0  0  0  0  0  0
  -24.4345  -29.9918   22.4905 C   0  0  0  0  0  0  0  0  0  0  0  0
  -28.1627  -13.2487   20.3271 C   0  0  0  0  0  0  0  0  0  0  0  0
  -30.2388  -13.0786   19.1032 C   0  0  0  0  0  0  0  0  0  0  0  0
  -28.6763  -11.2359   19.0936 C   0  0  0  0  0  0  0  0  0  0  0  0
  -22.0638   -3.4701   22.1381 C   0  0  0  0  0  0  0  0  0  0  0  0
  -25.3504  -29.0506   20.4447 C   0  0  0  0  0  0  0  0  0  0  0  0
  -22.1161   -3.1072   24.4593 C   0  0  0  0  0  0  0  0  0  0  0  0
  -29.3755  -13.8063   19.9223 C   0  0  0  0  0  0  0  0  0  0  0  0
  -23.1391   -3.7801   26.9659 C   0  0  0  0  0  0  0  0  0  0  0  0
  -21.2582   -3.5455   25.4680 C   0  0  0  0  0  0  0  0  0  0  0  0
  -23.4746   -5.6416   18.7927 C   0  0  0  0  0  0  0  0  0  0  0  0
  -23.6259   -6.7804   16.9178 C   0  0  0  0  0  0  0  0  0  0  0  0
  -21.2903   -6.1284   17.5249 C   0  0  0  0  0  0  0  0  0  0  0  0
  -25.1225  -32.6755   24.4786 C   0  0  0  0  0  0  0  0  0  0  0  0
  -22.7872  -30.8732   25.8279 C   0  0  0  0  0  0  0  0  0  0  0  0
  -30.9581  -25.5831   19.2535 C   0  0  0  0  0  0  0  0  0  0  0  0
  -20.8427  -28.0722   25.6862 C   0  0  0  0  0  0  0  0  0  0  0  0
  -29.0627   -9.0731   17.8610 C   0  0  0  0  0  0  0  0  0  0  0  0
  -26.8433  -37.4656   24.8670 C   0  0  0  0  0  0  0  0  0  0  0  0
  -23.5491  -32.3537   22.5353 C   0  0  0  0  0  0  0  0  0  0  0  0
  -24.0870  -29.8103   23.9448 C   0  0  0  0  0  0  0  0  0  0  0  0
  -26.0993  -36.4954   25.7810 C   0  0  0  0  0  0  0  0  0  0  0  0
  -28.2115   -6.4848   15.5690 C   0  0  0  0  0  0  0  0  0  0  0  0
  -26.7930  -35.1369   25.7951 C   0  0  0  0  0  0  0  0  0  0  0  0
  -26.8277   -6.0276   16.0360 C   0  0  0  0  0  0  0  0  0  0  0  0
  -29.1139   -6.8533   16.7452 C   0  0  0  0  0  0  0  0  0  0  0  0
  -27.1586   -7.3686   18.1524 C   0  0  0  0  0  0  0  0  0  0  0  0
  -26.8034  -34.5082   24.3965 C   0  0  1  0  0  0  0  0  0  0  0  0
  -23.7333  -32.2976   24.0487 C   0  0  1  0  0  0  0  0  0  0  0  0
  -26.1924   -7.0487   17.0001 C   0  0  2  0  0  0  0  0  0  0  0  0
  -27.2262  -14.0122   21.2045 C   0  0  0  0  0  0  0  0  0  0  0  0
  -31.5403  -13.6595   18.6580 C   0  0  0  0  0  0  0  0  0  0  0  0
  -19.0527  -26.8507   26.9515 C   0  0  0  0  0  0  0  0  0  0  0  0
  -24.8741  -29.8874   27.8236 C   0  0  0  0  0  0  0  0  0  0  0  0
  -23.3183  -28.0192   28.4215 C   0  0  0  0  0  0  0  0  0  0  0  0
  -22.6337  -30.3851   28.8172 C   0  0  0  0  0  0  0  0  0  0  0  0
  -18.9263  -28.3208   23.4446 C   0  0  0  0  0  0  0  0  0  0  0  0
  -35.4076  -22.8645   16.5559 C   0  0  0  0  0  0  0  0  0  0  0  0
  -35.0454  -23.4872   18.9395 C   0  0  0  0  0  0  0  0  0  0  0  0
  -31.9089  -24.8665   18.3021 C   0  0  0  0  0  0  0  0  0  0  0  0
  -33.2382  -25.6077   18.1322 C   0  0  0  0  0  0  0  0  0  0  0  0
  -29.7674  -19.9812   19.8627 C   0  0  0  0  0  0  0  0  0  0  0  0
  -29.3399  -21.1698   18.9990 C   0  0  0  0  0  0  0  0  0  0  0  0
  -29.3586  -18.6530   19.2235 C   0  0  0  0  0  0  0  0  0  0  0  0
  -29.7134  -22.4993   19.6616 C   0  0  0  0  0  0  0  0  0  0  0  0
  -29.7557  -17.4684   20.1015 C   0  0  0  0  0  0  0  0  0  0  0  0
  -27.7887  -26.5139   19.6285 C   0  0  0  0  0  0  0  0  0  0  0  0
  -29.3184  -23.7184   18.8263 C   0  0  0  0  0  0  0  0  0  0  0  0
  -28.7248  -25.5574   20.3548 C   0  0  0  0  0  0  0  0  0  0  0  0
  -34.1733  -24.9515   17.1241 C   0  0  0  0  0  0  0  0  0  0  0  0
  -29.3148  -16.1443   19.4915 C   0  0  0  0  0  0  0  0  0  0  0  0
  -26.7285  -27.1149   20.5434 C   0  0  0  0  0  0  0  0  0  1  0  0
  -22.7221  -29.4996   26.4508 C   0  0  1  0  0  0  0  0  0  0  0  0
  -19.3484  -27.8732   25.8653 C   0  0  2  0  0  0  0  0  0  0  0  0
  -23.3955  -29.4516   27.8514 C   0  0  0  0  0  0  0  0  0  0  0  0
  -24.7804   -5.8860   18.6541 N   0  0  0  0  0  0  0  0  0  0  0  0
  -24.8405   -6.5799   17.5047 N   0  0  0  0  0  0  0  0  0  0  0  0
  -23.4614  -30.9695   24.6023 N   0  0  0  0  0  0  0  0  0  0  0  0
  -28.4482   -7.8274   17.6128 N   0  0  0  0  0  0  0  0  0  0  0  0
  -23.5052   -7.4591   15.7570 N   0  0  0  0  0  0  0  0  0  0  0  0
  -20.4929   -5.4662   18.4682 N   0  0  0  0  0  0  0  0  0  0  0  0
  -28.3213   -9.9299   18.6738 N   0  0  0  0  0  0  0  0  0  0  0  0
  -25.5075  -33.9434   24.0866 N   0  0  0  0  0  0  0  0  0  0  0  0
  -21.3140  -29.1180   26.4513 N   0  0  0  0  0  0  0  0  0  0  0  0
  -29.7042  -24.9790   19.4771 N   0  0  0  0  0  0  0  0  0  0  0  0
  -18.7328  -27.3993   24.5936 N   0  3  0  0  0  0  0  0  0  0  0  0
  -34.4966  -23.5651   17.5351 N   0  3  0  0  0  0  0  0  0  0  0  0
  -20.7494   -6.6439   16.5174 O   0  0  0  0  0  0  0  0  0  0  0  0
  -25.7948  -31.8765   25.1199 O   0  0  0  0  0  0  0  0  0  0  0  0
  -22.2531  -31.8244   26.4039 O   0  0  0  0  0  0  0  0  0  0  0  0
  -31.2926  -26.6406   19.7940 O   0  0  0  0  0  0  0  0  0  0  0  0
  -21.5243  -27.3679   24.9446 O   0  0  0  0  0  0  0  0  0  0  0  0
  -30.1530   -9.3691   17.3653 O   0  0  0  0  0  0  0  0  0  0  0  0
  -21.6098   -2.7720   23.2147 O   0  0  0  0  0  0  0  0  0  0  0  0
  -25.9152  -28.0055   19.7808 O   0  0  0  0  0  0  0  0  0  1  0  0
  -29.7194  -15.0692   20.3286 O   0  0  0  0  0  0  0  0  0  0  0  0
  -23.6303   -4.1017   28.1699 F   0  0  0  0  0  0  0  0  0  0  0  0
  -19.9414   -3.6443   25.2392 F   0  0  0  0  0  0  0  0  0  0  0  0
  1  2  1  0  0  0  0
  1  5  2  0  0  0  0
  2  6  2  0  0  0  0
  3  8  2  0  0  0  0
  3 17  1  0  0  0  0
  4  9  1  0  0  0  0
  4 17  2  0  0  0  0
  5 19  1  0  0  0  0
  6 21  1  0  0  0  0
  7 10  2  0  0  0  0
  7 20  1  0  0  0  0
  8 26  1  0  0  0  0
  9 26  2  0  0  0  0
 10 27  1  0  0  0  0
 11 12  2  0  0  0  0
 11 28  1  0  0  0  0
 12 30  1  0  0  0  0
 13 22  1  0  0  0  0
 13 27  2  0  0  0  0
 14 23  2  0  0  0  0
 14 25  1  0  0  0  0
 15 24  1  0  0  0  0
 15 25  2  0  0  0  0
 16 30  2  0  0  0  0
 16 31  1  0  0  0  0
 17 32  1  0  0  0  0
 18 32  1  0  0  0  0
 18 33  2  0  0  0  0
 18 34  1  0  0  0  0
 19 21  2  0  0  0  0
 19 40  1  0  0  0  0
 20 22  2  0  0  0  0
 20 41  1  0  0  0  0
 21 49  1  0  0  0  0
 22 42  1  0  0  0  0
 23 29  1  0  0  0  0
 23 52  1  0  0  0  0
 24 29  2  0  0  0  0
 24 53  1  0  0  0  0
 25 83  1  0  0  0  0
 26 95  1  0  0  0  0
 27 96  1  0  0  0  0
 28 31  2  0  0  0  0
 28 95  1  0  0  0  0
 29 97  1  0  0  0  0
 30 98  1  0  0  0  0
 31 99  1  0  0  0  0
 32 77  2  0  0  0  0
 33 78  1  0  0  0  0
 33 81  1  0  0  0  0
 34 82  1  0  0  0  0
 34 89  2  0  0  0  0
 35 50  1  0  0  0  0
 35 84  1  0  0  0  0
 35 90  2  0  0  0  0
 36 74  1  0  0  0  0
 36 79  1  0  0  0  0
 36 91  2  0  0  0  0
 37 61  1  0  0  0  0
 37 86  1  0  0  0  0
 37 92  2  0  0  0  0
 38 75  1  0  0  0  0
 38 85  1  0  0  0  0
 38 93  2  0  0  0  0
 39 80  1  0  0  0  0
 39 83  1  0  0  0  0
 39 94  2  0  0  0  0
 40 43  1  0  0  0  0
 41 50  1  0  0  0  0
 42 79  1  0  0  0  0
 43 45  1  0  0  0  0
 44 46  1  0  0  0  0
 44 47  1  0  0  0  0
 45 49  1  0  0  0  0
 46 51  1  0  0  0  0
 47 80  1  0  0  0  0
 48 51  1  0  0  0  0
 48 80  1  0  0  0  0
 49 84  1  0  0  0  0
 50 79  1  0  0  0  0
 51 78  1  0  0  0  0
 54 75  1  0  0  0  0
 55 76  1  0  0  0  0
 56 76  1  0  0  0  0
 57 76  1  0  0  0  0
 58 87  1  0  0  0  0
 59 88  1  0  0  0  0
 60 88  1  0  0  0  0
 61 62  1  0  0  0  0
 62 71  1  0  0  0  0
 63 64  1  0  0  0  0
 63 65  1  0  0  0  0
 64 66  1  0  0  0  0
 65 67  1  0  0  0  0
 66 69  1  0  0  0  0
 67 72  1  0  0  0  0
 68 70  1  0  0  0  0
 68 73  1  0  0  0  0
 69 86  1  0  0  0  0
 70 86  1  0  0  0  0
 71 88  1  0  0  0  0
 72 97  1  0  0  0  0
 73 96  1  0  0  0  0
 74 76  1  0  0  0  0
 74 85  1  0  0  0  0
 75 87  1  0  0  0  0
 77 78  1  0  0  0  0
M  CHG  2  87   1  88   1
M  ISO  4  39 100  73 101  83 100  96 101
M  END
> <Batch ID>
0005

> <Smiles>
CNC(C)C(=O)NC(C(=O)N1Cc2cc([101O:1][101CH2:1]CCN(CCCCCCCOc3c(C)cc([100NH:0][100C:0](=O)N4CCCC(n5nc(-c6ccc(Oc7ccc(F)cc7F)cc6)c(C(N)=O)c5N)C4)cc3C)C(=O)CCCN(C)C)ccc2CC1C(=O)NC1CCCc2ccccc21)C(C)(C)C

> <Shape>
0.257

> <Color>
0.054

> <Negative vol penalty>
0.000

$$$$

  -OEChem-04052315263D

 91 99  0     1  0  0  0  0  0999 V2000
  -28.9659  -36.1275   20.3048 C   0  0  0  0  0  0  0  0  0  0  0  0
  -29.1172  -34.7503   20.4304 C   0  0  0  0  0  0  0  0  0  0  0  0
  -24.5227  -18.2240   22.9093 C   0  0  0  0  0  0  0  0  0  0  0  0
  -23.2355  -18.5891   20.8975 C   0  0  0  0  0  0  0  0  0  0  0  0
  -27.9473  -36.7816   20.9965 C   0  0  0  0  0  0  0  0  0  0  0  0
  -28.2507  -34.0265   21.2487 C   0  0  0  0  0  0  0  0  0  0  0  0
  -26.6226  -29.7594   19.0608 C   0  0  0  0  0  0  0  0  0  0  0  0
  -24.7152  -19.5996   23.0358 C   0  0  0  0  0  0  0  0  0  0  0  0
  -23.4280  -19.9648   21.0240 C   0  0  0  0  0  0  0  0  0  0  0  0
  -27.5008  -28.6766   19.0454 C   0  0  0  0  0  0  0  0  0  0  0  0
  -25.8484  -22.9926   23.6892 C   0  0  0  0  0  0  0  0  0  0  0  0
  -27.1314  -23.4437   23.9992 C   0  0  0  0  0  0  0  0  0  0  0  0
  -26.3402  -27.7162   20.9295 C   0  0  0  0  0  0  0  0  0  0  0  0
  -29.4757  -14.1969   22.2086 C   0  0  0  0  0  0  0  0  0  0  0  0
  -30.2937  -14.7644   19.6025 C   0  0  0  0  0  0  0  0  0  0  0  0
  -27.9771  -22.4276   21.9770 C   0  0  0  0  0  0  0  0  0  0  0  0
  -23.7829  -17.7186   21.8401 C   0  0  0  0  0  0  0  0  0  0  0  0
  -22.5300  -15.5335   22.2440 C   0  0  0  0  0  0  0  0  0  0  0  0
  -27.0618  -36.0641   21.8161 C   0  0  0  0  0  0  0  0  0  0  0  0
  -25.6017  -29.8342   20.0192 C   0  0  0  0  0  0  0  0  0  0  0  0
  -27.2201  -34.6718   21.9530 C   0  0  0  0  0  0  0  0  0  0  0  0
  -25.4488  -28.7997   20.9533 C   0  0  0  0  0  0  0  0  0  0  0  0
  -29.2179  -13.2873   21.1830 C   0  0  0  0  0  0  0  0  0  0  0  0
  -24.1678  -20.4701   22.0932 C   0  0  0  0  0  0  0  0  0  0  0  0
  -27.3615  -27.6562   19.9816 C   0  0  0  0  0  0  0  0  0  0  0  0
  -25.6298  -22.2590   22.5232 C   0  0  0  0  0  0  0  0  0  0  0  0
  -30.5515  -15.6740   20.6281 C   0  0  0  0  0  0  0  0  0  0  0  0
  -28.1957  -23.1612   23.1431 C   0  0  0  0  0  0  0  0  0  0  0  0
  -30.1425  -15.3903   21.9311 C   0  0  0  0  0  0  0  0  0  0  0  0
  -29.6269  -13.5710   19.8800 C   0  0  0  0  0  0  0  0  0  0  0  0
  -26.6941  -21.9765   21.6671 C   0  0  0  0  0  0  0  0  0  0  0  0
  -23.5842  -16.2976   21.7085 C   0  0  0  0  0  0  0  0  0  0  0  0
  -22.7972  -14.2486   21.8389 C   0  0  0  0  0  0  0  0  0  0  0  0
  -21.4096  -15.9481   23.0367 C   0  0  0  0  0  0  0  0  0  0  0  0
  -24.8724  -31.8488   22.3673 C   0  0  0  0  0  0  0  0  0  0  0  0
  -22.2126  -30.0061   22.5965 C   0  0  0  0  0  0  0  0  0  0  0  0
  -20.7220  -26.9877   22.0359 C   0  0  0  0  0  0  0  0  0  0  0  0
  -27.7133  -11.4243   20.5075 C   0  0  0  0  0  0  0  0  0  0  0  0
  -26.0054  -36.8215   22.5812 C   0  0  0  0  0  0  0  0  0  0  0  0
  -24.6461  -30.9957   20.0057 C   0  0  0  0  0  0  0  0  0  0  0  0
  -24.3566  -28.8225   21.9902 C   0  0  0  0  0  0  0  0  0  0  0  0
  -24.8966  -35.9296   23.1337 C   0  0  0  0  0  0  0  0  0  0  0  0
  -24.9166  -11.7810   18.3408 C   0  0  0  0  0  0  0  0  0  0  0  0
  -25.4896  -34.6980   23.8106 C   0  0  0  0  0  0  0  0  0  0  0  0
  -24.1556  -12.9231   19.0131 C   0  0  0  0  0  0  0  0  0  0  0  0
  -26.4295  -11.9977   18.3838 C   0  0  0  0  0  0  0  0  0  0  0  0
  -26.2011  -13.3921   20.4156 C   0  0  0  0  0  0  0  0  0  0  0  0
  -26.2846  -33.8485   22.8116 C   0  0  1  0  0  0  0  0  0  0  0  0
  -23.9614  -31.2217   21.3501 C   0  0  1  0  0  0  0  0  0  0  0  0
  -24.6804  -13.1729   20.4381 C   0  0  1  0  0  0  0  0  0  0  0  0
  -18.5523  -25.7707   22.3656 C   0  0  0  0  0  0  0  0  0  0  0  0
  -30.5531  -25.9880   21.6512 C   0  0  0  0  0  0  0  0  0  0  0  0
  -22.8599  -29.6596   25.5581 C   0  0  0  0  0  0  0  0  0  0  0  0
  -21.2665  -27.7292   25.6090 C   0  0  0  0  0  0  0  0  0  0  0  0
  -20.4362  -30.0152   25.0547 C   0  0  0  0  0  0  0  0  0  0  0  0
  -28.8747  -11.3297   22.7023 C   0  0  0  0  0  0  0  0  0  0  0  0
  -20.3658  -26.5954   19.1241 C   0  0  0  0  0  0  0  0  0  0  0  0
  -30.7340  -21.5912   19.1475 C   0  0  0  0  0  0  0  0  0  0  0  0
  -30.3339  -20.1546   18.8032 C   0  0  0  0  0  0  0  0  0  0  0  0
  -30.0867  -22.5922   18.1861 C   0  0  0  0  0  0  0  0  0  0  0  0
  -30.9515  -19.1564   19.7803 C   0  0  0  0  0  0  0  0  0  0  0  0
  -30.5115  -24.0340   18.4359 C   0  0  0  0  0  0  0  0  0  0  0  0
  -30.5930  -17.7218   19.4195 C   0  0  0  0  0  0  0  0  0  0  0  0
  -29.5426  -26.8410   19.4979 C   0  0  0  0  0  0  0  0  0  1  0  0
  -21.8371  -28.7616   23.3641 C   0  0  1  0  0  0  0  0  0  0  0  0
  -19.3828  -26.6245   21.4201 C   0  0  2  0  0  0  0  0  0  0  0  0
  -30.5228  -25.8634   20.1365 C   0  0  2  0  0  0  0  0  0  0  0  0
  -21.6218  -29.0416   24.8783 C   0  0  0  0  0  0  0  0  0  0  0  0
  -24.4560  -15.5597   21.0162 N   0  0  0  0  0  0  0  0  0  0  0  0
  -23.9503  -14.3184   21.1139 N   0  0  0  0  0  0  0  0  0  0  0  0
  -23.4513  -29.9824   21.9401 N   0  0  0  0  0  0  0  0  0  0  0  0
  -26.8777  -12.2724   19.7563 N   0  0  0  0  0  0  0  0  0  0  0  0
  -22.1558  -13.0771   22.0358 N   0  0  0  0  0  0  0  0  0  0  0  0
  -21.2873  -17.3058   23.3622 N   0  0  0  0  0  0  0  0  0  0  0  0
  -25.3879  -33.0718   21.9827 N   0  0  0  0  0  0  0  0  0  0  0  0
  -20.6718  -28.2013   22.6885 N   0  0  0  0  0  0  0  0  0  0  0  0
  -28.5279  -12.0526   21.4739 N   0  0  0  0  0  0  0  0  0  0  0  0
  -19.5838  -25.8643   20.1542 N   0  3  0  0  0  0  0  0  0  0  0  0
  -30.0987  -24.4753   19.7925 N   0  3  0  0  0  0  0  0  0  0  0  0
  -20.5513  -15.1361   23.4580 O   0  0  0  0  0  0  0  0  0  0  0  0
  -25.0902  -31.2668   23.4234 O   0  0  0  0  0  0  0  0  0  0  0  0
  -21.4323  -30.9612   22.5740 O   0  0  0  0  0  0  0  0  0  0  0  0
  -21.7125  -26.2652   21.9499 O   0  0  0  0  0  0  0  0  0  0  0  0
  -27.7126  -10.1980   20.3458 O   0  0  0  0  0  0  0  0  0  0  0  0
  -24.3553  -21.8125   22.2165 O   0  0  0  0  0  0  0  0  0  0  0  0
  -28.2177  -26.5986   19.9691 O   0  0  0  0  0  0  0  0  0  1  0  0
  -31.2079  -16.8458   20.3541 O   0  0  0  0  0  0  0  0  0  0  0  0
  -29.4275  -23.5957   23.4400 F   0  0  0  0  0  0  0  0  0  0  0  0
  -30.3877  -16.2604   22.9202 F   0  0  0  0  0  0  0  0  0  0  0  0
  -29.3837  -12.7041   18.8865 F   0  0  0  0  0  0  0  0  0  0  0  0
  -26.4900  -21.2731   20.5448 F   0  0  0  0  0  0  0  0  0  0  0  0
  1  2  1  0  0  0  0
  1  5  2  0  0  0  0
  2  6  2  0  0  0  0
  3  8  2  0  0  0  0
  3 17  1  0  0  0  0
  4  9  1  0  0  0  0
  4 17  2  0  0  0  0
  5 19  1  0  0  0  0
  6 21  1  0  0  0  0
  7 10  2  0  0  0  0
  7 20  1  0  0  0  0
  8 24  1  0  0  0  0
  9 24  2  0  0  0  0
 10 25  1  0  0  0  0
 11 12  2  0  0  0  0
 11 26  1  0  0  0  0
 12 28  1  0  0  0  0
 13 22  1  0  0  0  0
 13 25  2  0  0  0  0
 14 23  2  0  0  0  0
 14 29  1  0  0  0  0
 15 27  1  0  0  0  0
 15 30  2  0  0  0  0
 16 28  2  0  0  0  0
 16 31  1  0  0  0  0
 17 32  1  0  0  0  0
 18 32  1  0  0  0  0
 18 33  2  0  0  0  0
 18 34  1  0  0  0  0
 19 21  2  0  0  0  0
 19 39  1  0  0  0  0
 20 22  2  0  0  0  0
 20 40  1  0  0  0  0
 21 48  1  0  0  0  0
 22 41  1  0  0  0  0
 23 30  1  0  0  0  0
 23 77  1  0  0  0  0
 24 85  1  0  0  0  0
 25 86  1  0  0  0  0
 26 31  2  0  0  0  0
 26 85  1  0  0  0  0
 27 29  2  0  0  0  0
 27 87  1  0  0  0  0
 28 88  1  0  0  0  0
 29 89  1  0  0  0  0
 30 90  1  0  0  0  0
 31 91  1  0  0  0  0
 32 69  2  0  0  0  0
 33 70  1  0  0  0  0
 33 73  1  0  0  0  0
 34 74  1  0  0  0  0
 34 80  2  0  0  0  0
 35 49  1  0  0  0  0
 35 75  1  0  0  0  0
 35 81  2  0  0  0  0
 36 65  1  0  0  0  0
 36 71  1  0  0  0  0
 36 82  2  0  0  0  0
 37 66  1  0  0  0  0
 37 76  1  0  0  0  0
 37 83  2  0  0  0  0
 38 72  1  0  0  0  0
 38 77  1  0  0  0  0
 38 84  2  0  0  0  0
 39 42  1  0  0  0  0
 40 49  1  0  0  0  0
 41 71  1  0  0  0  0
 42 44  1  0  0  0  0
 43 45  1  0  0  0  0
 43 46  1  0  0  0  0
 44 48  1  0  0  0  0
 45 50  1  0  0  0  0
 46 72  1  0  0  0  0
 47 50  1  0  0  0  0
 47 72  1  0  0  0  0
 48 75  1  0  0  0  0
 49 71  1  0  0  0  0
 50 70  1  0  0  0  0
 51 66  1  0  0  0  0
 52 67  1  0  0  0  0
 53 68  1  0  0  0  0
 54 68  1  0  0  0  0
 55 68  1  0  0  0  0
 56 77  1  0  0  0  0
 57 78  1  0  0  0  0
 58 59  1  0  0  0  0
 58 60  1  0  0  0  0
 59 61  1  0  0  0  0
 60 62  1  0  0  0  0
 61 63  1  0  0  0  0
 62 79  1  0  0  0  0
 63 87  1  0  0  0  0
 64 67  1  0  0  0  0
 64 86  1  0  0  0  0
 65 68  1  0  0  0  0
 65 76  1  0  0  0  0
 66 78  1  0  0  0  0
 67 79  1  0  0  0  0
 69 70  1  0  0  0  0
M  CHG  2  78   1  79   1
M  ISO  4  38 100  64 101  77 100  86 101
M  END
> <Batch ID>
0005

> <Smiles>
CNC(C)C(=O)NC(C(=O)N1Cc2cc([101O:1][101CH2:1]C(C)NCCCCCCOc3cc(F)c([100N:0](C)[100C:0](=O)N4CCCC(n5nc(-c6ccc(Oc7ccc(F)cc7F)cc6)c(C(N)=O)c5N)C4)cc3F)ccc2CC1C(=O)NC1CCCc2ccccc21)C(C)(C)C

> <Shape>
0.303

> <Color>
0.081

> <Negative vol penalty>
0.000

$$$$

  -OEChem-04052315263D

 92100  0     1  0  0  0  0  0999 V2000
  -16.6758  -29.0944   24.1619 C   0  0  0  0  0  0  0  0  0  0  0  0
  -17.0351  -28.4881   22.9625 C   0  0  0  0  0  0  0  0  0  0  0  0
  -28.1123  -14.5263   21.3491 C   0  0  0  0  0  0  0  0  0  0  0  0
  -26.1201  -15.4224   20.3170 C   0  0  0  0  0  0  0  0  0  0  0  0
  -17.5021  -30.0657   24.7256 C   0  0  0  0  0  0  0  0  0  0  0  0
  -18.2204  -28.8535   22.3254 C   0  0  0  0  0  0  0  0  0  0  0  0
  -21.9367  -25.2133   19.0938 C   0  0  0  0  0  0  0  0  0  0  0  0
  -21.5545  -22.9800   22.8452 C   0  0  0  0  0  0  0  0  0  0  0  0
  -27.5954  -13.2366   21.2271 C   0  0  0  0  0  0  0  0  0  0  0  0
  -25.6032  -14.1326   20.1950 C   0  0  0  0  0  0  0  0  0  0  0  0
  -22.0764  -24.9938   17.7241 C   0  0  0  0  0  0  0  0  0  0  0  0
  -26.0065  -11.4725   18.1501 C   0  0  0  0  0  0  0  0  0  0  0  0
  -25.4207  -11.1232   16.9334 C   0  0  0  0  0  0  0  0  0  0  0  0
  -21.1134  -23.5432   24.0426 C   0  0  0  0  0  0  0  0  0  0  0  0
  -23.8827  -26.5914   17.6584 C   0  0  0  0  0  0  0  0  0  0  0  0
  -23.2759  -23.1256   25.0357 C   0  0  0  0  0  0  0  0  0  0  0  0
  -23.3285  -10.6958   18.0635 C   0  0  0  0  0  0  0  0  0  0  0  0
  -27.3746  -15.6193   20.8941 C   0  0  0  0  0  0  0  0  0  0  0  0
  -28.7024  -17.6417   20.0852 C   0  0  0  0  0  0  0  0  0  0  0  0
  -18.7029  -30.4363   24.1001 C   0  0  0  0  0  0  0  0  0  0  0  0
  -22.7631  -26.1331   19.7552 C   0  0  0  0  0  0  0  0  0  0  0  0
  -19.0629  -29.8317   22.8806 C   0  0  0  0  0  0  0  0  0  0  0  0
  -23.7532  -26.8188   19.0371 C   0  0  0  0  0  0  0  0  0  0  0  0
  -22.8563  -22.4894   22.7431 C   0  0  0  0  0  0  0  0  0  0  0  0
  -23.7170  -22.5623   23.8383 C   0  0  0  0  0  0  0  0  0  0  0  0
  -26.3408  -13.0397   20.6500 C   0  0  0  0  0  0  0  0  0  0  0  0
  -23.0475  -25.6850   17.0056 C   0  0  0  0  0  0  0  0  0  0  0  0
  -25.2534  -11.4334   19.3236 C   0  0  0  0  0  0  0  0  0  0  0  0
  -24.0817  -10.7349   16.8901 C   0  0  0  0  0  0  0  0  0  0  0  0
  -23.9143  -11.0451   19.2803 C   0  0  0  0  0  0  0  0  0  0  0  0
  -21.9741  -23.6160   25.1379 C   0  0  0  0  0  0  0  0  0  0  0  0
  -27.9078  -16.9519   21.0204 C   0  0  0  0  0  0  0  0  0  0  0  0
  -28.9448  -18.8594   20.6725 C   0  0  0  0  0  0  0  0  0  0  0  0
  -29.1787  -17.2196   18.8004 C   0  0  0  0  0  0  0  0  0  0  0  0
  -22.2792  -28.8340   21.3597 C   0  0  0  0  0  0  0  0  0  0  0  0
  -25.4539  -28.5802   21.9753 C   0  0  0  0  0  0  0  0  0  0  0  0
  -28.4949  -27.3401   21.0474 C   0  0  0  0  0  0  0  0  0  0  0  0
  -26.1921  -23.3431   16.4112 C   0  0  0  0  0  0  0  0  0  0  0  0
  -26.0085  -22.0748   24.7645 C   0  0  0  0  0  0  0  0  0  0  0  0
  -19.5402  -31.5251   24.7233 C   0  0  0  0  0  0  0  0  0  0  0  0
  -22.6175  -26.3387   21.2381 C   0  0  0  0  0  0  0  0  0  0  0  0
  -24.6791  -27.8019   19.7039 C   0  0  0  0  0  0  0  0  0  0  0  0
  -20.9642  -31.5866   24.1767 C   0  0  0  0  0  0  0  0  0  0  0  0
  -29.3716  -20.9244   24.9722 C   0  0  0  0  0  0  0  0  0  0  0  0
  -20.9552  -31.5090   22.6534 C   0  0  0  0  0  0  0  0  0  0  0  0
  -29.4519  -19.8422   23.8932 C   0  0  0  0  0  0  0  0  0  0  0  0
  -28.0150  -20.9255   25.6746 C   0  0  0  0  0  0  0  0  0  0  0  0
  -26.9333  -19.9231   23.7012 C   0  0  0  0  0  0  0  0  0  0  0  0
  -20.3530  -30.1834   22.1720 C   0  0  1  0  0  0  0  0  0  0  0  0
  -23.1720  -27.6782   21.7128 C   0  0  1  0  0  0  0  0  0  0  0  0
  -28.2583  -19.9255   22.9216 C   0  0  2  0  0  0  0  0  0  0  0  0
  -30.9105  -27.3338   21.7275 C   0  0  0  0  0  0  0  0  0  0  0  0
  -25.7625  -31.4177   20.8966 C   0  0  0  0  0  0  0  0  0  0  0  0
  -28.2247  -31.0044   20.7101 C   0  0  0  0  0  0  0  0  0  0  0  0
  -27.1143  -30.9266   22.9425 C   0  0  0  0  0  0  0  0  0  0  0  0
  -28.5067  -24.4022   21.4048 C   0  0  0  0  0  0  0  0  0  0  0  0
  -24.4565  -22.0440   18.8416 C   0  0  0  0  0  0  0  0  0  0  0  0
  -23.2107  -21.2289   19.2044 C   0  0  0  0  0  0  0  0  0  0  0  0
  -25.2426  -21.3771   17.7093 C   0  0  0  0  0  0  0  0  0  0  0  0
  -23.6841  -23.8865   13.9386 C   0  0  0  0  0  0  0  0  0  0  0  0
  -22.4352  -21.8289   20.3741 C   0  0  0  0  0  0  0  0  0  0  0  0
  -25.1814  -23.9281   14.2128 C   0  0  0  0  0  0  0  0  0  0  0  0
  -22.8461  -24.1769   15.1778 C   0  0  0  0  0  0  0  0  0  1  0  0
  -26.7160  -29.0515   21.2941 C   0  0  1  0  0  0  0  0  0  0  0  0
  -29.5725  -26.6194   21.8374 C   0  0  2  0  0  0  0  0  0  0  0  0
  -26.4910  -22.1590   17.3076 C   0  0  0  0  0  0  0  0  0  0  0  0
  -26.9358  -30.5830   21.4476 C   0  0  0  0  0  0  0  0  0  0  0  0
  -27.6620  -17.6715   22.1184 N   0  0  0  0  0  0  0  0  0  0  0  0
  -28.3059  -18.8261   21.8770 N   0  0  0  0  0  0  0  0  0  0  0  0
  -24.4931  -27.9730   21.1543 N   0  0  0  0  0  0  0  0  0  0  0  0
  -26.9324  -21.0109   24.6919 N   0  0  0  0  0  0  0  0  0  0  0  0
  -29.6401  -19.9447   20.2710 N   0  0  0  0  0  0  0  0  0  0  0  0
  -28.8366  -15.9375   18.3492 N   0  0  0  0  0  0  0  0  0  0  0  0
  -25.0432  -22.0698   23.7581 N   0  0  0  0  0  0  0  0  0  0  0  0
  -23.2740  -21.9342   21.5438 N   0  0  0  0  0  0  0  0  0  0  0  0
  -21.3154  -29.1114   22.3103 N   0  0  0  0  0  0  0  0  0  0  0  0
  -25.5795  -22.9824   15.2186 N   0  0  0  0  0  0  0  0  0  0  0  0
  -27.7992  -28.2355   21.8319 N   0  0  0  0  0  0  0  0  0  0  0  0
  -29.7403  -25.2270   21.3334 N   0  3  0  0  0  0  0  0  0  0  0  0
  -29.9002  -17.9513   18.0811 O   0  0  0  0  0  0  0  0  0  0  0  0
  -22.4528  -29.4309   20.3036 O   0  0  0  0  0  0  0  0  0  0  0  0
  -25.3283  -28.7384   23.1922 O   0  0  0  0  0  0  0  0  0  0  0  0
  -28.2933  -27.1324   19.8530 O   0  0  0  0  0  0  0  0  0  0  0  0
  -26.4657  -24.4920   16.7506 O   0  0  0  0  0  0  0  0  0  0  0  0
  -26.0855  -22.9426   25.6379 O   0  0  0  0  0  0  0  0  0  0  0  0
  -25.8362  -11.7813   20.5306 O   0  0  0  0  0  0  0  0  0  0  0  0
  -23.1856  -25.4732   15.6685 O   0  0  0  0  0  0  0  0  0  1  0  0
  -23.5188  -10.4009   15.7214 F   0  0  0  0  0  0  0  0  0  0  0  0
  -23.1854  -11.0068   20.4041 F   0  0  0  0  0  0  0  0  0  0  0  0
  -27.1381  -22.5600   18.4372 F   0  0  0  0  0  0  0  0  0  0  0  0
  -27.3434  -21.2965   16.6832 F   0  0  0  0  0  0  0  0  0  0  0  0
  -21.4286  -24.3116   26.6144 Cl  0  0  0  0  0  0  0  0  0  0  0  0
  1  2  1  0  0  0  0
  1  5  2  0  0  0  0
  2  6  2  0  0  0  0
  3  9  2  0  0  0  0
  3 18  1  0  0  0  0
  4 10  1  0  0  0  0
  4 18  2  0  0  0  0
  5 20  1  0  0  0  0
  6 22  1  0  0  0  0
  7 11  2  0  0  0  0
  7 21  1  0  0  0  0
  8 14  2  0  0  0  0
  8 24  1  0  0  0  0
  9 26  1  0  0  0  0
 10 26  2  0  0  0  0
 11 27  1  0  0  0  0
 12 13  2  0  0  0  0
 12 28  1  0  0  0  0
 13 29  1  0  0  0  0
 14 31  1  0  0  0  0
 15 23  1  0  0  0  0
 15 27  2  0  0  0  0
 16 25  1  0  0  0  0
 16 31  2  0  0  0  0
 17 29  2  0  0  0  0
 17 30  1  0  0  0  0
 18 32  1  0  0  0  0
 19 32  1  0  0  0  0
 19 33  2  0  0  0  0
 19 34  1  0  0  0  0
 20 22  2  0  0  0  0
 20 40  1  0  0  0  0
 21 23  2  0  0  0  0
 21 41  1  0  0  0  0
 22 49  1  0  0  0  0
 23 42  1  0  0  0  0
 24 25  2  0  0  0  0
 24 75  1  0  0  0  0
 25 74  1  0  0  0  0
 26 86  1  0  0  0  0
 27 87  1  0  0  0  0
 28 30  2  0  0  0  0
 28 86  1  0  0  0  0
 29 88  1  0  0  0  0
 30 89  1  0  0  0  0
 31 92  1  0  0  0  0
 32 68  2  0  0  0  0
 33 69  1  0  0  0  0
 33 72  1  0  0  0  0
 34 73  1  0  0  0  0
 34 80  2  0  0  0  0
 35 50  1  0  0  0  0
 35 76  1  0  0  0  0
 35 81  2  0  0  0  0
 36 64  1  0  0  0  0
 36 70  1  0  0  0  0
 36 82  2  0  0  0  0
 37 65  1  0  0  0  0
 37 78  1  0  0  0  0
 37 83  2  0  0  0  0
 38 66  1  0  0  0  0
 38 77  1  0  0  0  0
 38 84  2  0  0  0  0
 39 71  1  0  0  0  0
 39 74  1  0  0  0  0
 39 85  2  0  0  0  0
 40 43  1  0  0  0  0
 41 50  1  0  0  0  0
 42 70  1  0  0  0  0
 43 45  1  0  0  0  0
 44 46  1  0  0  0  0
 44 47  1  0  0  0  0
 45 49  1  0  0  0  0
 46 51  1  0  0  0  0
 47 71  1  0  0  0  0
 48 51  1  0  0  0  0
 48 71  1  0  0  0  0
 49 76  1  0  0  0  0
 50 70  1  0  0  0  0
 51 69  1  0  0  0  0
 52 65  1  0  0  0  0
 53 67  1  0  0  0  0
 54 67  1  0  0  0  0
 55 67  1  0  0  0  0
 56 79  1  0  0  0  0
 57 58  1  0  0  0  0
 57 59  1  0  0  0  0
 58 61  1  0  0  0  0
 59 66  1  0  0  0  0
 60 62  1  0  0  0  0
 60 63  1  0  0  0  0
 61 75  1  0  0  0  0
 62 77  1  0  0  0  0
 63 87  1  0  0  0  0
 64 67  1  0  0  0  0
 64 78  1  0  0  0  0
 65 79  1  0  0  0  0
 66 90  1  0  0  0  0
 66 91  1  0  0  0  0
 68 69  1  0  0  0  0
M  CHG  1  79   1
M  ISO  4  39 100  63 101  74 100  87 101
M  END
> <Batch ID>
0005

> <Smiles>
CNC(C)C(=O)NC(C(=O)N1Cc2cc([101O:1][101CH2:1]CCNC(=O)C(F)(F)CCCCNc3ccc(Cl)cc3[100NH:0][100C:0](=O)N3CCCC(n4nc(-c5ccc(Oc6ccc(F)cc6F)cc5)c(C(N)=O)c4N)C3)ccc2CC1C(=O)NC1CCCc2ccccc21)C(C)(C)C

> <Shape>
0.197

> <Color>
0.085

> <Negative vol penalty>
0.000

$$$$
