
  -OEChem-04052315303D

 83 91  0     1  0  0  0  0  0999 V2000
  -33.9420  -35.0786   22.0619 C   0  0  0  0  0  0  0  0  0  0  0  0
  -33.9387  -33.6889   22.1252 C   0  0  0  0  0  0  0  0  0  0  0  0
  -23.0672   -9.8852   19.9335 C   0  0  0  0  0  0  0  0  0  0  0  0
  -23.8422   -9.8644   22.2218 C   0  0  0  0  0  0  0  0  0  0  0  0
  -32.8716  -35.8018   22.5865 C   0  0  0  0  0  0  0  0  0  0  0  0
  -32.8654  -33.0215   22.7142 C   0  0  0  0  0  0  0  0  0  0  0  0
  -30.5285  -27.6129   21.0432 C   0  0  0  0  0  0  0  0  0  0  0  0
  -22.3242   -8.7296   20.1746 C   0  0  0  0  0  0  0  0  0  0  0  0
  -23.0992   -8.7088   22.4629 C   0  0  0  0  0  0  0  0  0  0  0  0
  -30.7093  -26.3208   21.5348 C   0  0  0  0  0  0  0  0  0  0  0  0
  -19.3850   -7.9177   21.6358 C   0  0  0  0  0  0  0  0  0  0  0  0
  -18.0749   -7.8781   21.1587 C   0  0  0  0  0  0  0  0  0  0  0  0
  -28.7199  -26.5602   22.8781 C   0  0  0  0  0  0  0  0  0  0  0  0
  -29.7211  -19.2694   22.4141 C   0  0  0  0  0  0  0  0  0  0  0  0
  -31.1563  -17.6841   20.6226 C   0  0  0  0  0  0  0  0  0  0  0  0
  -18.6245   -5.9505   19.8097 C   0  0  0  0  0  0  0  0  0  0  0  0
  -23.8263  -10.4526   20.9571 C   0  0  0  0  0  0  0  0  0  0  0  0
  -24.1691  -12.9787   20.8649 C   0  0  0  0  0  0  0  0  0  0  0  0
  -31.7802  -35.1425   23.1737 C   0  0  0  0  0  0  0  0  0  0  0  0
  -29.4464  -28.3936   21.4743 C   0  0  0  0  0  0  0  0  0  0  0  0
  -31.7800  -33.7365   23.2485 C   0  0  0  0  0  0  0  0  0  0  0  0
  -28.5263  -27.8609   22.3885 C   0  0  0  0  0  0  0  0  0  0  0  0
  -29.5401  -17.8864   22.4070 C   0  0  0  0  0  0  0  0  0  0  0  0
  -31.3372  -19.0672   20.6297 C   0  0  0  0  0  0  0  0  0  0  0  0
  -30.6196  -19.8598   21.5254 C   0  0  0  0  0  0  0  0  0  0  0  0
  -30.2577  -17.0937   21.5113 C   0  0  0  0  0  0  0  0  0  0  0  0
  -22.3401   -8.1414   21.4393 C   0  0  0  0  0  0  0  0  0  0  0  0
  -29.8065  -25.7953   22.4546 C   0  0  0  0  0  0  0  0  0  0  0  0
  -20.3149   -6.9738   21.1998 C   0  0  0  0  0  0  0  0  0  0  0  0
  -17.6946   -6.8945   20.2456 C   0  0  0  0  0  0  0  0  0  0  0  0
  -19.9346   -5.9902   20.2868 C   0  0  0  0  0  0  0  0  0  0  0  0
  -24.5945  -11.6459   20.7085 C   0  0  0  0  0  0  0  0  0  0  0  0
  -25.2594  -13.7318   20.5034 C   0  0  0  0  0  0  0  0  0  0  0  0
  -22.9018  -13.4903   21.2984 C   0  0  0  0  0  0  0  0  0  0  0  0
  -29.1478  -31.1532   23.0233 C   0  0  0  0  0  0  0  0  0  0  0  0
  -25.9983  -30.7310   22.3714 C   0  0  0  0  0  0  0  0  0  0  0  0
  -30.1506  -22.1812   22.3769 C   0  0  0  0  0  0  0  0  0  0  0  0
  -23.4533  -28.5761   21.6461 C   0  0  0  0  0  0  0  0  0  0  0  0
  -30.7274  -14.7718   20.6544 C   0  0  0  0  0  0  0  0  0  0  0  0
  -30.6680  -35.9687   23.7696 C   0  0  0  0  0  0  0  0  0  0  0  0
  -29.2506  -29.7758   20.9142 C   0  0  0  0  0  0  0  0  0  0  0  0
  -27.3367  -28.6507   22.8678 C   0  0  0  0  0  0  0  0  0  0  0  0
  -29.3951  -35.1712   24.0412 C   0  0  0  0  0  0  0  0  0  0  0  0
  -29.5956  -12.3871   18.2650 C   0  0  0  0  0  0  0  0  0  0  0  0
  -29.7277  -33.8559   24.7383 C   0  0  0  0  0  0  0  0  0  0  0  0
  -28.1586  -12.0913   18.7005 C   0  0  0  0  0  0  0  0  0  0  0  0
  -30.5188  -12.6009   19.4632 C   0  0  0  0  0  0  0  0  0  0  0  0
  -28.6216  -13.3101   20.8655 C   0  0  0  0  0  0  0  0  0  0  0  0
  -30.6224  -32.9755   23.8574 C   0  0  1  0  0  0  0  0  0  0  0  0
  -28.4010  -30.6696   21.8124 C   0  0  1  0  0  0  0  0  0  0  0  0
  -27.6408  -13.1515   19.6922 C   0  0  2  0  0  0  0  0  0  0  0  0
  -28.5698  -17.2815   23.3689 C   0  0  0  0  0  0  0  0  0  0  0  0
  -32.3060  -19.6731   19.6669 C   0  0  0  0  0  0  0  0  0  0  0  0
  -20.9834  -28.5216   21.2055 C   0  0  0  0  0  0  0  0  0  0  0  0
  -25.4608  -31.0953   25.3527 C   0  0  0  0  0  0  0  0  0  0  0  0
  -23.1890  -30.1066   24.9929 C   0  0  0  0  0  0  0  0  0  0  0  0
  -23.8172  -32.2329   23.8497 C   0  0  0  0  0  0  0  0  0  0  0  0
  -23.8452  -27.4748   18.9272 C   0  0  0  0  0  0  0  0  0  0  0  0
  -30.6191  -23.5927   22.0754 C   0  0  0  0  0  0  0  0  0  1  0  0
  -24.8427  -30.0571   23.0710 C   0  0  1  0  0  0  0  0  0  0  0  0
  -22.3685  -28.6191   20.5851 C   0  0  2  0  0  0  0  0  0  0  0  0
  -24.3508  -30.8586   24.3093 C   0  0  0  0  0  0  0  0  0  0  0  0
  -25.8565  -11.5543   20.2807 N   0  0  0  0  0  0  0  0  0  0  0  0
  -26.2335  -12.8391   20.1652 N   0  0  0  0  0  0  0  0  0  0  0  0
  -27.1920  -29.9996   22.2957 N   0  0  0  0  0  0  0  0  0  0  0  0
  -29.9664  -13.6216   20.3565 N   0  0  0  0  0  0  0  0  0  0  0  0
  -25.4703  -15.0639   20.4449 N   0  0  0  0  0  0  0  0  0  0  0  0
  -21.8915  -12.5779   21.6315 N   0  0  0  0  0  0  0  0  0  0  0  0
  -30.7887  -21.2646   21.5483 N   0  0  0  0  0  0  0  0  0  0  0  0
  -30.0861  -15.6874   21.4881 N   0  0  0  0  0  0  0  0  0  0  0  0
  -29.8389  -32.3331   22.8240 N   0  0  0  0  0  0  0  0  0  0  0  0
  -23.8194  -29.8414   22.0538 N   0  0  0  0  0  0  0  0  0  0  0  0
  -22.5352  -27.4893   19.6277 N   0  3  0  0  0  0  0  0  0  0  0  0
  -22.6668  -14.7203   21.3719 O   0  0  0  0  0  0  0  0  0  0  0  0
  -29.0992  -30.5047   24.0619 O   0  0  0  0  0  0  0  0  0  0  0  0
  -25.8452  -31.8618   21.9029 O   0  0  0  0  0  0  0  0  0  0  0  0
  -29.3178  -21.9531   23.2481 O   0  0  0  0  0  0  0  0  0  0  0  0
  -23.9258  -27.5250   22.0734 O   0  0  0  0  0  0  0  0  0  0  0  0
  -31.8535  -14.9453   20.1814 O   0  0  0  0  0  0  0  0  0  0  0  0
  -21.6150   -7.0140   21.6750 O   0  0  0  0  0  0  0  0  0  0  0  0
  -29.9809  -24.5347   22.9365 O   0  0  0  0  0  0  0  0  0  1  0  0
  -16.4361   -6.8556   19.7887 F   0  0  0  0  0  0  0  0  0  0  0  0
  -20.8232   -5.0800   19.8652 F   0  0  0  0  0  0  0  0  0  0  0  0
  1  2  1  0  0  0  0
  1  5  2  0  0  0  0
  2  6  2  0  0  0  0
  3  8  2  0  0  0  0
  3 17  1  0  0  0  0
  4  9  1  0  0  0  0
  4 17  2  0  0  0  0
  5 19  1  0  0  0  0
  6 21  1  0  0  0  0
  7 10  2  0  0  0  0
  7 20  1  0  0  0  0
  8 27  1  0  0  0  0
  9 27  2  0  0  0  0
 10 28  1  0  0  0  0
 11 12  2  0  0  0  0
 11 29  1  0  0  0  0
 12 30  1  0  0  0  0
 13 22  1  0  0  0  0
 13 28  2  0  0  0  0
 14 23  2  0  0  0  0
 14 25  1  0  0  0  0
 15 24  1  0  0  0  0
 15 26  2  0  0  0  0
 16 30  2  0  0  0  0
 16 31  1  0  0  0  0
 17 32  1  0  0  0  0
 18 32  1  0  0  0  0
 18 33  2  0  0  0  0
 18 34  1  0  0  0  0
 19 21  2  0  0  0  0
 19 40  1  0  0  0  0
 20 22  2  0  0  0  0
 20 41  1  0  0  0  0
 21 49  1  0  0  0  0
 22 42  1  0  0  0  0
 23 26  1  0  0  0  0
 23 52  1  0  0  0  0
 24 25  2  0  0  0  0
 24 53  1  0  0  0  0
 25 69  1  0  0  0  0
 26 70  1  0  0  0  0
 27 80  1  0  0  0  0
 28 81  1  0  0  0  0
 29 31  2  0  0  0  0
 29 80  1  0  0  0  0
 30 82  1  0  0  0  0
 31 83  1  0  0  0  0
 32 63  2  0  0  0  0
 33 64  1  0  0  0  0
 33 67  1  0  0  0  0
 34 68  1  0  0  0  0
 34 74  2  0  0  0  0
 35 50  1  0  0  0  0
 35 71  1  0  0  0  0
 35 75  2  0  0  0  0
 36 60  1  0  0  0  0
 36 65  1  0  0  0  0
 36 76  2  0  0  0  0
 37 59  1  0  0  0  0
 37 69  1  0  0  0  0
 37 77  2  0  0  0  0
 38 61  1  0  0  0  0
 38 72  1  0  0  0  0
 38 78  2  0  0  0  0
 39 66  1  0  0  0  0
 39 70  1  0  0  0  0
 39 79  2  0  0  0  0
 40 43  1  0  0  0  0
 41 50  1  0  0  0  0
 42 65  1  0  0  0  0
 43 45  1  0  0  0  0
 44 46  1  0  0  0  0
 44 47  1  0  0  0  0
 45 49  1  0  0  0  0
 46 51  1  0  0  0  0
 47 66  1  0  0  0  0
 48 51  1  0  0  0  0
 48 66  1  0  0  0  0
 49 71  1  0  0  0  0
 50 65  1  0  0  0  0
 51 64  1  0  0  0  0
 54 61  1  0  0  0  0
 55 62  1  0  0  0  0
 56 62  1  0  0  0  0
 57 62  1  0  0  0  0
 58 73  1  0  0  0  0
 59 81  1  0  0  0  0
 60 62  1  0  0  0  0
 60 72  1  0  0  0  0
 61 73  1  0  0  0  0
 63 64  1  0  0  0  0
M  CHG  1  73   1
M  ISO  4  39 100  59 101  70 100  81 101
M  END
> <Batch ID>
0006

> <Smiles>
CNC(C)C(=O)NC(C(=O)N1Cc2cc([101O:1][101CH2:1]C(=O)Nc3cc(C)c([100NH:0][100C:0](=O)N4CCCC(n5nc(-c6ccc(Oc7ccc(F)cc7F)cc6)c(C(N)=O)c5N)C4)cc3C)ccc2CC1C(=O)NC1CCCc2ccccc21)C(C)(C)C

> <Shape>
0.269

> <Color>
0.192

> <Negative vol penalty>
0.000

$$$$

  -OEChem-04052315303D

 85 93  0     1  0  0  0  0  0999 V2000
  -30.7920  -26.4512   12.9903 C   0  0  0  0  0  0  0  0  0  0  0  0
  -30.3696  -25.4958   13.9091 C   0  0  0  0  0  0  0  0  0  0  0  0
  -23.5396   -9.7351   21.5295 C   0  0  0  0  0  0  0  0  0  0  0  0
  -22.9276  -11.9768   22.1909 C   0  0  0  0  0  0  0  0  0  0  0  0
  -30.9971  -27.7680   13.4000 C   0  0  0  0  0  0  0  0  0  0  0  0
  -30.1530  -25.8565   15.2385 C   0  0  0  0  0  0  0  0  0  0  0  0
  -25.8872  -23.6093   19.0146 C   0  0  0  0  0  0  0  0  0  0  0  0
  -30.8289  -18.6130   23.1826 C   0  0  0  0  0  0  0  0  0  0  0  0
  -30.6393  -17.4778   22.3946 C   0  0  0  0  0  0  0  0  0  0  0  0
  -22.7124   -9.2155   22.5252 C   0  0  0  0  0  0  0  0  0  0  0  0
  -22.1003  -11.4572   23.1865 C   0  0  0  0  0  0  0  0  0  0  0  0
  -25.9346  -22.6322   20.0080 C   0  0  0  0  0  0  0  0  0  0  0  0
  -19.4079   -8.6619   22.9805 C   0  0  0  0  0  0  0  0  0  0  0  0
  -18.5757   -7.5954   22.6406 C   0  0  0  0  0  0  0  0  0  0  0  0
  -26.2444  -24.3495   21.6737 C   0  0  0  0  0  0  0  0  0  0  0  0
  -19.6480   -6.2247   24.3164 C   0  0  0  0  0  0  0  0  0  0  0  0
  -23.6473  -11.1157   21.3624 C   0  0  0  0  0  0  0  0  0  0  0  0
  -28.5064  -19.2080   22.8843 C   0  0  0  0  0  0  0  0  0  0  0  0
  -24.1491  -11.9494   19.0042 C   0  0  0  0  0  0  0  0  0  0  0  0
  -30.7735  -28.1472   14.7330 C   0  0  0  0  0  0  0  0  0  0  0  0
  -26.0291  -24.9653   19.3425 C   0  0  0  0  0  0  0  0  0  0  0  0
  -30.3565  -27.1794   15.6667 C   0  0  0  0  0  0  0  0  0  0  0  0
  -26.1958  -25.3419   20.6828 C   0  0  0  0  0  0  0  0  0  0  0  0
  -29.7624  -19.4781   23.4275 C   0  0  0  0  0  0  0  0  0  0  0  0
  -29.3832  -17.2076   21.8515 C   0  0  0  0  0  0  0  0  0  0  0  0
  -21.9927  -10.0765   23.3536 C   0  0  0  0  0  0  0  0  0  0  0  0
  -26.1162  -23.0020   21.3374 C   0  0  0  0  0  0  0  0  0  0  0  0
  -20.3603   -8.5098   23.9883 C   0  0  0  0  0  0  0  0  0  0  0  0
  -18.6957   -6.3768   23.3086 C   0  0  0  0  0  0  0  0  0  0  0  0
  -20.4802   -7.2912   24.6563 C   0  0  0  0  0  0  0  0  0  0  0  0
  -28.3167  -18.0728   22.0963 C   0  0  0  0  0  0  0  0  0  0  0  0
  -24.5021  -11.6531   20.3344 C   0  0  0  0  0  0  0  0  0  0  0  0
  -25.3054  -12.4319   18.4416 C   0  0  0  0  0  0  0  0  0  0  0  0
  -29.7691  -21.9345   23.7441 C   0  0  0  0  0  0  0  0  0  0  0  0
  -27.3488  -20.1160   23.1280 C   0  0  0  0  0  0  0  0  0  0  0  0
  -22.8888  -11.8017   18.3369 C   0  0  0  0  0  0  0  0  0  0  0  0
  -28.1195  -27.2441   18.6069 C   0  0  0  0  0  0  0  0  0  0  0  0
  -26.0352  -29.1351   20.2200 C   0  0  0  0  0  0  0  0  0  0  0  0
  -23.5687  -29.3858   22.5653 C   0  0  0  0  0  0  0  0  0  0  0  0
  -30.1485  -15.0947   20.7130 C   0  0  0  0  0  0  0  0  0  0  0  0
  -31.0541  -29.5723   15.1392 C   0  0  0  0  0  0  0  0  0  0  0  0
  -25.9488  -26.0089   18.2623 C   0  0  0  0  0  0  0  0  0  0  0  0
  -26.3329  -26.7856   21.0897 C   0  0  0  0  0  0  0  0  0  0  0  0
  -30.4414  -29.9541   16.4842 C   0  0  0  0  0  0  0  0  0  0  0  0
  -30.0690  -12.0933   18.7992 C   0  0  0  0  0  0  0  0  0  0  0  0
  -30.7188  -28.8726   17.5235 C   0  0  0  0  0  0  0  0  0  0  0  0
  -28.5992  -11.6700   18.8496 C   0  0  0  0  0  0  0  0  0  0  0  0
  -30.5267  -12.7116   20.1191 C   0  0  0  0  0  0  0  0  0  0  0  0
  -28.2217  -13.3917   20.6608 C   0  0  0  0  0  0  0  0  0  0  0  0
  -30.0869  -27.5373   17.1122 C   0  0  1  0  0  0  0  0  0  0  0  0
  -26.6196  -27.3231   18.6502 C   0  0  1  0  0  0  0  0  0  0  0  0
  -27.6970  -12.8227   19.3324 C   0  0  2  0  0  0  0  0  0  0  0  0
  -22.0868  -31.0675   23.6936 C   0  0  0  0  0  0  0  0  0  0  0  0
  -28.3900  -30.0632   21.9240 C   0  0  0  0  0  0  0  0  0  0  0  0
  -26.7450  -30.9635   23.5827 C   0  0  0  0  0  0  0  0  0  0  0  0
  -26.8016  -31.8781   21.2626 C   0  0  0  0  0  0  0  0  0  0  0  0
  -30.4396  -20.5320   25.6287 C   0  0  0  0  0  0  0  0  0  0  0  0
  -21.1154  -28.0762   21.5525 C   0  0  0  0  0  0  0  0  0  0  0  0
  -26.6720  -20.7693   21.9391 C   0  0  0  0  0  0  0  0  0  1  0  0
  -25.8714  -29.5609   21.6591 C   0  0  1  0  0  0  0  0  0  0  0  0
  -22.2220  -30.0860   22.5399 C   0  0  2  0  0  0  0  0  0  0  0  0
  -26.9514  -30.5890   22.0996 C   0  0  0  0  0  0  0  0  0  0  0  0
  -25.7825  -11.9245   20.6009 N   0  0  0  0  0  0  0  0  0  0  0  0
  -26.2442  -12.3964   19.4303 N   0  0  0  0  0  0  0  0  0  0  0  0
  -26.2542  -27.7684   19.9964 N   0  0  0  0  0  0  0  0  0  0  0  0
  -29.6276  -13.7990   20.5114 N   0  0  0  0  0  0  0  0  0  0  0  0
  -25.6006  -12.8788   17.2024 N   0  0  0  0  0  0  0  0  0  0  0  0
  -21.8042  -11.2906   19.0629 N   0  0  0  0  0  0  0  0  0  0  0  0
  -29.1942  -16.0536   21.0514 N   0  0  0  0  0  0  0  0  0  0  0  0
  -28.6636  -27.5497   17.3740 N   0  0  0  0  0  0  0  0  0  0  0  0
  -24.5002  -30.0420   21.7889 N   0  0  0  0  0  0  0  0  0  0  0  0
  -29.9763  -20.6099   24.2191 N   0  0  0  0  0  0  0  0  0  0  0  0
  -21.1182  -29.0896   22.6387 N   0  3  0  0  0  0  0  0  0  0  0  0
  -29.9220  -22.9980   24.3409 O   0  0  0  0  0  0  0  0  0  0  0  0
  -26.9665  -20.3162   24.2787 O   0  0  0  0  0  0  0  0  0  0  0  0
  -22.7332  -12.0982   17.1281 O   0  0  0  0  0  0  0  0  0  0  0  0
  -28.7374  -26.9306   19.6176 O   0  0  0  0  0  0  0  0  0  0  0  0
  -25.9642  -29.9829   19.3267 O   0  0  0  0  0  0  0  0  0  0  0  0
  -23.7747  -28.3613   23.2123 O   0  0  0  0  0  0  0  0  0  0  0  0
  -31.3485  -15.3416   20.5676 O   0  0  0  0  0  0  0  0  0  0  0  0
  -21.1852   -9.5699   24.3251 O   0  0  0  0  0  0  0  0  0  0  0  0
  -26.1635  -22.0503   22.3090 O   0  0  0  0  0  0  0  0  0  1  0  0
  -17.8954   -5.3532   22.9831 F   0  0  0  0  0  0  0  0  0  0  0  0
  -21.3924   -7.1394   25.6262 F   0  0  0  0  0  0  0  0  0  0  0  0
  -27.1090  -17.8116   21.5726 F   0  0  0  0  0  0  0  0  0  0  0  0
  1  2  1  0  0  0  0
  1  5  2  0  0  0  0
  2  6  2  0  0  0  0
  3 10  2  0  0  0  0
  3 17  1  0  0  0  0
  4 11  1  0  0  0  0
  4 17  2  0  0  0  0
  5 20  1  0  0  0  0
  6 22  1  0  0  0  0
  7 12  2  0  0  0  0
  7 21  1  0  0  0  0
  8  9  1  0  0  0  0
  8 24  2  0  0  0  0
  9 25  2  0  0  0  0
 10 26  1  0  0  0  0
 11 26  2  0  0  0  0
 12 27  1  0  0  0  0
 13 14  2  0  0  0  0
 13 28  1  0  0  0  0
 14 29  1  0  0  0  0
 15 23  1  0  0  0  0
 15 27  2  0  0  0  0
 16 29  2  0  0  0  0
 16 30  1  0  0  0  0
 17 32  1  0  0  0  0
 18 24  1  0  0  0  0
 18 31  2  0  0  0  0
 18 35  1  0  0  0  0
 19 32  1  0  0  0  0
 19 33  2  0  0  0  0
 19 36  1  0  0  0  0
 20 22  2  0  0  0  0
 20 41  1  0  0  0  0
 21 23  2  0  0  0  0
 21 42  1  0  0  0  0
 22 50  1  0  0  0  0
 23 43  1  0  0  0  0
 24 72  1  0  0  0  0
 25 31  1  0  0  0  0
 25 69  1  0  0  0  0
 26 81  1  0  0  0  0
 27 82  1  0  0  0  0
 28 30  2  0  0  0  0
 28 81  1  0  0  0  0
 29 83  1  0  0  0  0
 30 84  1  0  0  0  0
 31 85  1  0  0  0  0
 32 63  2  0  0  0  0
 33 64  1  0  0  0  0
 33 67  1  0  0  0  0
 34 72  1  0  0  0  0
 34 74  2  0  0  0  0
 35 59  1  0  0  0  0
 35 75  2  0  0  0  0
 36 68  1  0  0  0  0
 36 76  2  0  0  0  0
 37 51  1  0  0  0  0
 37 70  1  0  0  0  0
 37 77  2  0  0  0  0
 38 60  1  0  0  0  0
 38 65  1  0  0  0  0
 38 78  2  0  0  0  0
 39 61  1  0  0  0  0
 39 71  1  0  0  0  0
 39 79  2  0  0  0  0
 40 66  1  0  0  0  0
 40 69  1  0  0  0  0
 40 80  2  0  0  0  0
 41 44  1  0  0  0  0
 42 51  1  0  0  0  0
 43 65  1  0  0  0  0
 44 46  1  0  0  0  0
 45 47  1  0  0  0  0
 45 48  1  0  0  0  0
 46 50  1  0  0  0  0
 47 52  1  0  0  0  0
 48 66  1  0  0  0  0
 49 52  1  0  0  0  0
 49 66  1  0  0  0  0
 50 70  1  0  0  0  0
 51 65  1  0  0  0  0
 52 64  1  0  0  0  0
 53 61  1  0  0  0  0
 54 62  1  0  0  0  0
 55 62  1  0  0  0  0
 56 62  1  0  0  0  0
 57 72  1  0  0  0  0
 58 73  1  0  0  0  0
 59 82  1  0  0  0  0
 60 62  1  0  0  0  0
 60 71  1  0  0  0  0
 61 73  1  0  0  0  0
 63 64  1  0  0  0  0
M  CHG  1  73   1
M  ISO  4  40 100  59 101  69 100  82 101
M  END
> <Batch ID>
0006

> <Smiles>
CNC(C)C(=O)NC(C(=O)N1Cc2cc([101O:1][101CH2:1]C(=O)c3c(N(C)C=O)ccc([100NH:0][100C:0](=O)N4CCCC(n5nc(-c6ccc(Oc7ccc(F)cc7F)cc6)c(C(N)=O)c5N)C4)c3F)ccc2CC1C(=O)NC1CCCc2ccccc21)C(C)(C)C

> <Shape>
0.217

> <Color>
0.094

> <Negative vol penalty>
0.000

$$$$

  -OEChem-04052315303D

 89 97  0     1  0  0  0  0  0999 V2000
  -22.7120  -37.2496   17.1000 C   0  0  0  0  0  0  0  0  0  0  0  0
  -23.2578  -36.0252   16.7279 C   0  0  0  0  0  0  0  0  0  0  0  0
  -23.7572  -12.9765   19.5046 C   0  0  0  0  0  0  0  0  0  0  0  0
  -24.8963  -13.7254   21.4993 C   0  0  0  0  0  0  0  0  0  0  0  0
  -22.9559  -37.7621   18.3735 C   0  0  0  0  0  0  0  0  0  0  0  0
  -24.0487  -35.3131   17.6289 C   0  0  0  0  0  0  0  0  0  0  0  0
  -24.3885  -29.2267   18.2176 C   0  0  0  0  0  0  0  0  0  0  0  0
  -25.4495  -24.0056   22.6920 C   0  0  0  0  0  0  0  0  0  0  0  0
  -24.5302  -23.1780   22.0474 C   0  0  0  0  0  0  0  0  0  0  0  0
  -24.7916  -12.0755   19.2521 C   0  0  0  0  0  0  0  0  0  0  0  0
  -25.9307  -12.8244   21.2468 C   0  0  0  0  0  0  0  0  0  0  0  0
  -25.3003  -28.2874   17.7380 C   0  0  0  0  0  0  0  0  0  0  0  0
  -28.6371  -12.6403   19.2288 C   0  0  0  0  0  0  0  0  0  0  0  0
  -29.9463  -13.1022   19.3641 C   0  0  0  0  0  0  0  0  0  0  0  0
  -26.4851  -28.3744   19.8376 C   0  0  0  0  0  0  0  0  0  0  0  0
  -24.7924  -21.5276   23.7923 C   0  0  0  0  0  0  0  0  0  0  0  0
  -30.3566  -11.4397   21.0685 C   0  0  0  0  0  0  0  0  0  0  0  0
  -23.8095  -13.8015   20.6282 C   0  0  0  0  0  0  0  0  0  0  0  0
  -21.5755  -14.4997   21.6428 C   0  0  0  0  0  0  0  0  0  0  0  0
  -23.7422  -37.0513   19.2939 C   0  0  0  0  0  0  0  0  0  0  0  0
  -24.5246  -29.7559   19.5091 C   0  0  0  0  0  0  0  0  0  0  0  0
  -24.3044  -35.8172   18.9155 C   0  0  0  0  0  0  0  0  0  0  0  0
  -25.5721  -29.3184   20.3321 C   0  0  0  0  0  0  0  0  0  0  0  0
  -26.0403  -23.5942   23.8868 C   0  0  0  0  0  0  0  0  0  0  0  0
  -24.2016  -21.9390   22.5976 C   0  0  0  0  0  0  0  0  0  0  0  0
  -25.8784  -11.9994   20.1232 C   0  0  0  0  0  0  0  0  0  0  0  0
  -26.3505  -27.8633   18.5469 C   0  0  0  0  0  0  0  0  0  0  0  0
  -28.1876  -11.5781   20.0134 C   0  0  0  0  0  0  0  0  0  0  0  0
  -30.8060  -12.5019   20.2839 C   0  0  0  0  0  0  0  0  0  0  0  0
  -25.7117  -22.3553   24.4369 C   0  0  0  0  0  0  0  0  0  0  0  0
  -29.0474  -10.9778   20.9332 C   0  0  0  0  0  0  0  0  0  0  0  0
  -22.7415  -14.7328   20.8892 C   0  0  0  0  0  0  0  0  0  0  0  0
  -20.8890  -15.6881   21.5897 C   0  0  0  0  0  0  0  0  0  0  0  0
  -29.3065  -22.7446   22.3469 C   0  0  0  0  0  0  0  0  0  0  0  0
  -21.1510  -13.3148   22.3296 C   0  0  0  0  0  0  0  0  0  0  0  0
  -29.1664  -22.3498   21.0679 C   0  0  0  0  0  0  0  0  0  0  0  0
  -28.8814  -24.0553   22.9260 C   0  0  0  0  0  0  0  0  0  0  0  0
  -25.0112  -32.6614   20.7028 C   0  0  0  0  0  0  0  0  0  0  0  0
  -24.5645  -31.1472   23.5366 C   0  0  0  0  0  0  0  0  0  0  0  0
  -24.6524  -28.2324   25.3093 C   0  0  0  0  0  0  0  0  0  0  0  0
  -22.5936  -21.3531   20.7489 C   0  0  0  0  0  0  0  0  0  0  0  0
  -24.0169  -37.6680   20.6426 C   0  0  0  0  0  0  0  0  0  0  0  0
  -23.5172  -30.7485   20.0212 C   0  0  0  0  0  0  0  0  0  0  0  0
  -25.7507  -29.8406   21.7335 C   0  0  0  0  0  0  0  0  0  0  0  0
  -24.5571  -36.6744   21.6679 C   0  0  0  0  0  0  0  0  0  0  0  0
  -20.2500  -19.5218   18.7917 C   0  0  0  0  0  0  0  0  0  0  0  0
  -25.6688  -35.8276   21.0565 C   0  0  0  0  0  0  0  0  0  0  0  0
  -20.5127  -18.0651   19.1806 C   0  0  0  0  0  0  0  0  0  0  0  0
  -21.5411  -20.3367   18.7404 C   0  0  0  0  0  0  0  0  0  0  0  0
  -22.6286  -18.8136   20.3424 C   0  0  0  0  0  0  0  0  0  0  0  0
  -25.1471  -35.0033   19.8733 C   0  0  1  0  0  0  0  0  0  0  0  0
  -24.0500  -31.6037   21.1667 C   0  0  1  0  0  0  0  0  0  0  0  0
  -21.3507  -17.9685   20.4706 C   0  0  2  0  0  0  0  0  0  0  0  0
  -29.6013  -21.0252   20.5048 C   0  0  0  0  0  0  0  0  0  0  0  0
  -24.2714  -27.3164   27.6144 C   0  0  0  0  0  0  0  0  0  0  0  0
  -27.2324  -32.3196   24.4408 C   0  0  0  0  0  0  0  0  0  0  0  0
  -27.2531  -30.6517   26.3079 C   0  0  0  0  0  0  0  0  0  0  0  0
  -25.4348  -32.3545   26.1792 C   0  0  0  0  0  0  0  0  0  0  0  0
  -22.4890  -26.4459   24.3676 C   0  0  0  0  0  0  0  0  0  0  0  0
  -27.0331  -24.4937   24.5821 C   0  0  0  0  0  0  0  0  0  0  0  0
  -28.5013  -23.2833   20.0723 C   0  0  0  0  0  0  0  0  0  0  0  0
  -28.4818  -24.0451   24.3913 C   0  0  0  0  0  0  0  0  0  0  0  0
  -29.4833  -24.1773   19.3039 C   0  0  0  0  0  0  0  0  0  0  0  0
  -28.7896  -25.1240   18.3232 C   0  0  0  0  0  0  0  0  0  0  0  0
  -27.8469  -26.0815   19.0387 C   0  0  0  0  0  0  0  0  0  1  0  0
  -25.4617  -30.4425   24.5252 C   0  0  1  0  0  0  0  0  0  0  0  0
  -23.6490  -27.5983   26.2557 C   0  0  2  0  0  0  0  0  0  0  0  0
  -26.3436  -31.4335   25.3362 C   0  0  0  0  0  0  0  0  0  0  0  0
  -22.7959  -15.9719   20.3935 N   0  0  0  0  0  0  0  0  0  0  0  0
  -21.6555  -16.5280   20.8365 N   0  0  0  0  0  0  0  0  0  0  0  0
  -24.7435  -30.8142   22.1864 N   0  0  0  0  0  0  0  0  0  0  0  0
  -22.2800  -20.2008   19.9975 N   0  0  0  0  0  0  0  0  0  0  0  0
  -19.7105  -16.0861   22.1142 N   0  0  0  0  0  0  0  0  0  0  0  0
  -21.9765  -12.1831   22.2822 N   0  0  0  0  0  0  0  0  0  0  0  0
  -23.2692  -21.0974   21.9417 N   0  0  0  0  0  0  0  0  0  0  0  0
  -24.4080  -33.8524   20.3460 N   0  0  0  0  0  0  0  0  0  0  0  0
  -24.5896  -29.6093   25.3460 N   0  0  0  0  0  0  0  0  0  0  0  0
  -23.1468  -26.3130   25.6930 N   0  3  0  0  0  0  0  0  0  0  0  0
  -20.0639  -13.2561   22.9527 O   0  0  0  0  0  0  0  0  0  0  0  0
  -28.8091  -25.0850   22.2614 O   0  0  0  0  0  0  0  0  0  0  0  0
  -26.2113  -32.4158   20.6724 O   0  0  0  0  0  0  0  0  0  0  0  0
  -23.7306  -31.9579   23.9477 O   0  0  0  0  0  0  0  0  0  0  0  0
  -25.4181  -27.5722   24.6104 O   0  0  0  0  0  0  0  0  0  0  0  0
  -22.2617  -22.4812   20.3760 O   0  0  0  0  0  0  0  0  0  0  0  0
  -26.8878  -11.1202   19.8773 O   0  0  0  0  0  0  0  0  0  0  0  0
  -27.2488  -26.9403   18.0776 O   0  0  0  0  0  0  0  0  0  1  0  0
  -32.0637  -12.9445   20.4126 F   0  0  0  0  0  0  0  0  0  0  0  0
  -26.2741  -21.9514   25.5846 F   0  0  0  0  0  0  0  0  0  0  0  0
  -28.6217   -9.9563   21.6889 F   0  0  0  0  0  0  0  0  0  0  0  0
  1  2  1  0  0  0  0
  1  5  2  0  0  0  0
  2  6  2  0  0  0  0
  3 10  2  0  0  0  0
  3 18  1  0  0  0  0
  4 11  1  0  0  0  0
  4 18  2  0  0  0  0
  5 20  1  0  0  0  0
  6 22  1  0  0  0  0
  7 12  2  0  0  0  0
  7 21  1  0  0  0  0
  8  9  2  0  0  0  0
  8 24  1  0  0  0  0
  9 25  1  0  0  0  0
 10 26  1  0  0  0  0
 11 26  2  0  0  0  0
 12 27  1  0  0  0  0
 13 14  2  0  0  0  0
 13 28  1  0  0  0  0
 14 29  1  0  0  0  0
 15 23  1  0  0  0  0
 15 27  2  0  0  0  0
 16 25  2  0  0  0  0
 16 30  1  0  0  0  0
 17 29  2  0  0  0  0
 17 31  1  0  0  0  0
 18 32  1  0  0  0  0
 19 32  1  0  0  0  0
 19 33  2  0  0  0  0
 19 35  1  0  0  0  0
 20 22  2  0  0  0  0
 20 42  1  0  0  0  0
 21 23  2  0  0  0  0
 21 43  1  0  0  0  0
 22 51  1  0  0  0  0
 23 44  1  0  0  0  0
 24 30  2  0  0  0  0
 24 60  1  0  0  0  0
 25 75  1  0  0  0  0
 26 85  1  0  0  0  0
 27 86  1  0  0  0  0
 28 31  2  0  0  0  0
 28 85  1  0  0  0  0
 29 87  1  0  0  0  0
 30 88  1  0  0  0  0
 31 89  1  0  0  0  0
 32 69  2  0  0  0  0
 33 70  1  0  0  0  0
 33 73  1  0  0  0  0
 34 36  2  0  0  0  0
 34 37  1  0  0  0  0
 35 74  1  0  0  0  0
 35 79  2  0  0  0  0
 36 54  1  0  0  0  0
 36 61  1  0  0  0  0
 37 62  1  0  0  0  0
 37 80  2  0  0  0  0
 38 52  1  0  0  0  0
 38 76  1  0  0  0  0
 38 81  2  0  0  0  0
 39 66  1  0  0  0  0
 39 71  1  0  0  0  0
 39 82  2  0  0  0  0
 40 67  1  0  0  0  0
 40 77  1  0  0  0  0
 40 83  2  0  0  0  0
 41 72  1  0  0  0  0
 41 75  1  0  0  0  0
 41 84  2  0  0  0  0
 42 45  1  0  0  0  0
 43 52  1  0  0  0  0
 44 71  1  0  0  0  0
 45 47  1  0  0  0  0
 46 48  1  0  0  0  0
 46 49  1  0  0  0  0
 47 51  1  0  0  0  0
 48 53  1  0  0  0  0
 49 72  1  0  0  0  0
 50 53  1  0  0  0  0
 50 72  1  0  0  0  0
 51 76  1  0  0  0  0
 52 71  1  0  0  0  0
 53 70  1  0  0  0  0
 55 67  1  0  0  0  0
 56 68  1  0  0  0  0
 57 68  1  0  0  0  0
 58 68  1  0  0  0  0
 59 78  1  0  0  0  0
 60 62  1  0  0  0  0
 61 63  1  0  0  0  0
 63 64  1  0  0  0  0
 64 65  1  0  0  0  0
 65 86  1  0  0  0  0
 66 68  1  0  0  0  0
 66 77  1  0  0  0  0
 67 78  1  0  0  0  0
 69 70  1  0  0  0  0
M  CHG  1  78   1
M  ISO  4  41 100  65 101  75 100  86 101
M  END
> <Batch ID>
0006

> <Smiles>
CNC(C)C(=O)NC(C(=O)N1Cc2cc([101O:1][101CH2:1]CCCC(C)=CC(=O)CCc3ccc([100NH:0][100C:0](=O)N4CCCC(n5nc(-c6ccc(Oc7ccc(F)cc7F)cc6)c(C(N)=O)c5N)C4)cc3F)ccc2CC1C(=O)NC1CCCc2ccccc21)C(C)(C)C

> <Shape>
0.206

> <Color>
0.094

> <Negative vol penalty>
0.000

$$$$

  -OEChem-04052315303D

 83 91  0     1  0  0  0  0  0999 V2000
  -22.5828   -7.4371   24.6427 C   0  0  0  0  0  0  0  0  0  0  0  0
  -23.6889   -8.2307   24.9292 C   0  0  0  0  0  0  0  0  0  0  0  0
  -22.7519  -29.5828   21.2487 C   0  0  0  0  0  0  0  0  0  0  0  0
  -24.0443  -28.9638   23.1938 C   0  0  0  0  0  0  0  0  0  0  0  0
  -29.9622  -22.0116   23.8628 C   0  0  0  0  0  0  0  0  0  0  0  0
  -22.0182   -7.4642   23.3682 C   0  0  0  0  0  0  0  0  0  0  0  0
  -24.2318   -9.0511   23.9410 C   0  0  0  0  0  0  0  0  0  0  0  0
  -26.7801  -14.5647   24.7234 C   0  0  0  0  0  0  0  0  0  0  0  0
  -29.5238  -22.9580   22.9367 C   0  0  0  0  0  0  0  0  0  0  0  0
  -21.6437  -29.8221   22.0612 C   0  0  0  0  0  0  0  0  0  0  0  0
  -22.9361  -29.2031   24.0063 C   0  0  0  0  0  0  0  0  0  0  0  0
  -28.1075  -14.9784   24.8266 C   0  0  0  0  0  0  0  0  0  0  0  0
  -19.2598  -28.0030   23.6208 C   0  0  0  0  0  0  0  0  0  0  0  0
  -18.0273  -27.5059   23.1973 C   0  0  0  0  0  0  0  0  0  0  0  0
  -28.1191  -15.5082   22.4732 C   0  0  0  0  0  0  0  0  0  0  0  0
  -29.1465  -21.2019   21.3208 C   0  0  0  0  0  0  0  0  0  0  0  0
  -17.1352  -29.7509   23.1589 C   0  0  0  0  0  0  0  0  0  0  0  0
  -23.9522  -29.1536   21.8150 C   0  0  0  0  0  0  0  0  0  0  0  0
  -29.9929  -20.6603   23.5179 C   0  0  0  0  0  0  0  0  0  0  0  0
  -26.0955  -29.8268   20.6063 C   0  0  0  0  0  0  0  0  0  0  0  0
  -22.5485   -8.2926   22.3666 C   0  0  0  0  0  0  0  0  0  0  0  0
  -26.1145  -14.6095   23.4900 C   0  0  0  0  0  0  0  0  0  0  0  0
  -23.6745   -9.0883   22.6515 C   0  0  0  0  0  0  0  0  0  0  0  0
  -26.7825  -15.0969   22.3576 C   0  0  0  0  0  0  0  0  0  0  0  0
  -29.1159  -22.5532   21.6657 C   0  0  0  0  0  0  0  0  0  0  0  0
  -21.7358  -29.6323   23.4400 C   0  0  0  0  0  0  0  0  0  0  0  0
  -28.7781  -15.4475   23.7009 C   0  0  0  0  0  0  0  0  0  0  0  0
  -19.4301  -29.3740   23.8134 C   0  0  0  0  0  0  0  0  0  0  0  0
  -16.9650  -28.3799   22.9663 C   0  0  0  0  0  0  0  0  0  0  0  0
  -29.5850  -20.2555   22.2469 C   0  0  0  0  0  0  0  0  0  0  0  0
  -18.3678  -30.2479   23.5825 C   0  0  0  0  0  0  0  0  0  0  0  0
  -25.0972  -28.9057   20.9761 C   0  0  0  0  0  0  0  0  0  0  0  0
  -26.9504  -29.1052   19.8096 C   0  0  0  0  0  0  0  0  0  0  0  0
  -30.4633  -19.6562   24.5067 C   0  0  0  0  0  0  0  0  0  0  0  0
  -26.2373  -31.2110   20.9520 C   0  0  0  0  0  0  0  0  0  0  0  0
  -24.7844  -12.4455   21.5790 C   0  0  0  0  0  0  0  0  0  0  0  0
  -23.8379  -15.0654   19.9169 C   0  0  0  0  0  0  0  0  0  0  0  0
  -24.3567  -18.3573   18.5342 C   0  0  0  0  0  0  0  0  0  0  0  0
  -28.2317  -23.2817   19.4221 C   0  0  0  0  0  0  0  0  0  0  0  0
  -21.9330   -8.2526   20.9903 C   0  0  0  0  0  0  0  0  0  0  0  0
  -24.6744  -14.1847   23.4008 C   0  0  0  0  0  0  0  0  0  0  0  0
  -26.1065  -15.1841   21.0144 C   0  0  0  0  0  0  0  0  0  0  0  0
  -22.3383   -9.4301   20.1074 C   0  0  0  0  0  0  0  0  0  0  0  0
  -27.0201  -25.3739   16.8084 C   0  0  0  0  0  0  0  0  0  0  0  0
  -23.8441   -9.6613   20.1840 C   0  0  0  0  0  0  0  0  0  0  0  0
  -26.4859  -26.6035   17.5464 C   0  0  0  0  0  0  0  0  0  0  0  0
  -26.7600  -24.0866   17.5887 C   0  0  0  0  0  0  0  0  0  0  0  0
  -26.6995  -25.3264   19.7168 C   0  0  0  0  0  0  0  0  0  0  0  0
  -24.2768  -10.0100   21.6132 C   0  0  1  0  0  0  0  0  0  0  0  0
  -24.2540  -13.7904   21.9883 C   0  0  1  0  0  0  0  0  0  0  0  0
  -26.9957  -26.6539   19.0001 C   0  0  2  0  0  0  0  0  0  0  0  0
  -22.7976  -19.8570   17.2623 C   0  0  0  0  0  0  0  0  0  0  0  0
  -25.1012  -13.7992   17.4449 C   0  0  0  0  0  0  0  0  0  0  0  0
  -25.0086  -16.0413   16.3347 C   0  0  0  0  0  0  0  0  0  0  0  0
  -22.8986  -14.9113   17.0373 C   0  0  0  0  0  0  0  0  0  0  0  0
  -24.7566  -20.5844   20.4419 C   0  0  0  0  0  0  0  0  0  0  0  0
  -31.5573  -17.4502   24.8106 C   0  0  0  0  0  0  0  0  0  0  0  0
  -30.4921  -16.3952   25.0500 C   0  0  0  0  0  0  0  0  0  1  0  0
  -24.4252  -15.8915   18.7981 C   0  0  1  0  0  0  0  0  0  0  0  0
  -23.4070  -19.5385   18.6188 C   0  0  2  0  0  0  0  0  0  0  0  0
  -24.3720  -15.1575   17.4285 C   0  0  0  0  0  0  0  0  0  0  0  0
  -25.2980  -27.6916   20.4569 N   0  0  0  0  0  0  0  0  0  0  0  0
  -26.4323  -27.8448   19.7526 N   0  0  0  0  0  0  0  0  0  0  0  0
  -24.6999  -14.7511   20.9770 N   0  0  0  0  0  0  0  0  0  0  0  0
  -27.2737  -24.2062   18.9550 N   0  0  0  0  0  0  0  0  0  0  0  0
  -28.0873  -29.4321   19.1591 N   0  0  0  0  0  0  0  0  0  0  0  0
  -25.2693  -31.7954   21.7802 N   0  0  0  0  0  0  0  0  0  0  0  0
  -28.6706  -23.5147   20.7250 N   0  0  0  0  0  0  0  0  0  0  0  0
  -31.0717  -18.5224   23.9830 N   0  0  0  0  0  0  0  0  0  0  0  0
  -23.9593  -11.3893   21.9151 N   0  0  0  0  0  0  0  0  0  0  0  0
  -23.7196  -17.1682   18.8196 N   0  0  0  0  0  0  0  0  0  0  0  0
  -24.1276  -20.7486   19.1061 N   0  3  0  0  0  0  0  0  0  0  0  0
  -30.2787  -19.8607   25.7036 O   0  0  0  0  0  0  0  0  0  0  0  0
  -27.1852  -31.9132   20.5254 O   0  0  0  0  0  0  0  0  0  0  0  0
  -25.8618  -12.3717   20.9997 O   0  0  0  0  0  0  0  0  0  0  0  0
  -22.6559  -14.7181   19.8559 O   0  0  0  0  0  0  0  0  0  0  0  0
  -25.5441  -18.4770   18.2404 O   0  0  0  0  0  0  0  0  0  0  0  0
  -28.6534  -22.3678   18.7086 O   0  0  0  0  0  0  0  0  0  0  0  0
  -20.6546  -29.8659   24.2331 O   0  0  0  0  0  0  0  0  0  0  0  0
  -30.0740  -15.8513   23.7987 O   0  0  0  0  0  0  0  0  0  1  0  0
  -15.7819  -27.9026   22.5582 F   0  0  0  0  0  0  0  0  0  0  0  0
  -29.6106  -18.9595   21.9043 F   0  0  0  0  0  0  0  0  0  0  0  0
  -18.5256  -31.5661   23.7647 F   0  0  0  0  0  0  0  0  0  0  0  0
  1  2  1  0  0  0  0
  1  6  2  0  0  0  0
  2  7  2  0  0  0  0
  3 10  2  0  0  0  0
  3 18  1  0  0  0  0
  4 11  1  0  0  0  0
  4 18  2  0  0  0  0
  5  9  2  0  0  0  0
  5 19  1  0  0  0  0
  6 21  1  0  0  0  0
  7 23  1  0  0  0  0
  8 12  2  0  0  0  0
  8 22  1  0  0  0  0
  9 25  1  0  0  0  0
 10 26  1  0  0  0  0
 11 26  2  0  0  0  0
 12 27  1  0  0  0  0
 13 14  2  0  0  0  0
 13 28  1  0  0  0  0
 14 29  1  0  0  0  0
 15 24  1  0  0  0  0
 15 27  2  0  0  0  0
 16 25  2  0  0  0  0
 16 30  1  0  0  0  0
 17 29  2  0  0  0  0
 17 31  1  0  0  0  0
 18 32  1  0  0  0  0
 19 30  2  0  0  0  0
 19 34  1  0  0  0  0
 20 32  1  0  0  0  0
 20 33  2  0  0  0  0
 20 35  1  0  0  0  0
 21 23  2  0  0  0  0
 21 40  1  0  0  0  0
 22 24  2  0  0  0  0
 22 41  1  0  0  0  0
 23 49  1  0  0  0  0
 24 42  1  0  0  0  0
 25 68  1  0  0  0  0
 26 79  1  0  0  0  0
 27 80  1  0  0  0  0
 28 31  2  0  0  0  0
 28 79  1  0  0  0  0
 29 81  1  0  0  0  0
 30 82  1  0  0  0  0
 31 83  1  0  0  0  0
 32 62  2  0  0  0  0
 33 63  1  0  0  0  0
 33 66  1  0  0  0  0
 34 69  1  0  0  0  0
 34 73  2  0  0  0  0
 35 67  1  0  0  0  0
 35 74  2  0  0  0  0
 36 50  1  0  0  0  0
 36 70  1  0  0  0  0
 36 75  2  0  0  0  0
 37 59  1  0  0  0  0
 37 64  1  0  0  0  0
 37 76  2  0  0  0  0
 38 60  1  0  0  0  0
 38 71  1  0  0  0  0
 38 77  2  0  0  0  0
 39 65  1  0  0  0  0
 39 68  1  0  0  0  0
 39 78  2  0  0  0  0
 40 43  1  0  0  0  0
 41 50  1  0  0  0  0
 42 64  1  0  0  0  0
 43 45  1  0  0  0  0
 44 46  1  0  0  0  0
 44 47  1  0  0  0  0
 45 49  1  0  0  0  0
 46 51  1  0  0  0  0
 47 65  1  0  0  0  0
 48 51  1  0  0  0  0
 48 65  1  0  0  0  0
 49 70  1  0  0  0  0
 50 64  1  0  0  0  0
 51 63  1  0  0  0  0
 52 60  1  0  0  0  0
 53 61  1  0  0  0  0
 54 61  1  0  0  0  0
 55 61  1  0  0  0  0
 56 72  1  0  0  0  0
 57 58  1  0  0  0  0
 57 69  1  0  0  0  0
 58 80  1  0  0  0  0
 59 61  1  0  0  0  0
 59 71  1  0  0  0  0
 60 72  1  0  0  0  0
 62 63  1  0  0  0  0
M  CHG  1  72   1
M  ISO  4  39 100  58 101  68 100  80 101
M  END
> <Batch ID>
0006

> <Smiles>
CNC(C)C(=O)NC(C(=O)N1Cc2cc([101O:1][101CH2:1]CNC(=O)c3ccc([100NH:0][100C:0](=O)N4CCCC(n5nc(-c6ccc(Oc7ccc(F)cc7F)cc6)c(C(N)=O)c5N)C4)cc3F)ccc2CC1C(=O)NC1CCCc2ccccc21)C(C)(C)C

> <Shape>
0.234

> <Color>
0.078

> <Negative vol penalty>
0.000

$$$$

  -OEChem-04052315303D

 89 97  0     1  0  0  0  0  0999 V2000
  -24.9177  -11.1407   20.0387 C   0  0  0  0  0  0  0  0  0  0  0  0
  -23.9199  -12.1076   20.1073 C   0  0  0  0  0  0  0  0  0  0  0  0
  -20.6221  -30.5555   26.6271 C   0  0  0  0  0  0  0  0  0  0  0  0
  -31.4446  -26.6867   19.6033 C   0  0  0  0  0  0  0  0  0  0  0  0
  -31.0079  -28.7710   20.7443 C   0  0  0  0  0  0  0  0  0  0  0  0
  -20.3516  -29.2279   26.9585 C   0  0  0  0  0  0  0  0  0  0  0  0
  -26.2044  -11.4354   20.4874 C   0  0  0  0  0  0  0  0  0  0  0  0
  -24.2080  -13.3697   20.6256 C   0  0  0  0  0  0  0  0  0  0  0  0
  -22.3990  -20.2601   19.8736 C   0  0  0  0  0  0  0  0  0  0  0  0
  -32.6453  -27.2042   19.1174 C   0  0  0  0  0  0  0  0  0  0  0  0
  -32.2086  -29.2886   20.2584 C   0  0  0  0  0  0  0  0  0  0  0  0
  -21.9704  -21.3499   20.6302 C   0  0  0  0  0  0  0  0  0  0  0  0
  -33.6421  -29.2834   16.6461 C   0  0  0  0  0  0  0  0  0  0  0  0
  -33.9411  -29.0709   15.3004 C   0  0  0  0  0  0  0  0  0  0  0  0
  -21.4268  -30.8496   25.5263 C   0  0  0  0  0  0  0  0  0  0  0  0
  -21.6906  -28.4883   25.0884 C   0  0  0  0  0  0  0  0  0  0  0  0
  -24.2485  -21.7716   21.3022 C   0  0  0  0  0  0  0  0  0  0  0  0
  -35.9513  -27.8897   15.9336 C   0  0  0  0  0  0  0  0  0  0  0  0
  -30.6259  -27.4701   20.4167 C   0  0  0  0  0  0  0  0  0  0  0  0
  -20.8859  -28.1943   26.1892 C   0  0  0  0  0  0  0  0  0  0  0  0
  -29.1867  -26.2355   22.1232 C   0  0  0  0  0  0  0  0  0  0  0  0
  -26.5109  -12.7047   21.0026 C   0  0  0  0  0  0  0  0  0  0  0  0
  -23.7565  -19.9107   19.8343 C   0  0  0  0  0  0  0  0  0  0  0  0
  -25.4997  -13.6812   21.0829 C   0  0  0  0  0  0  0  0  0  0  0  0
  -24.6921  -20.6785   20.5423 C   0  0  0  0  0  0  0  0  0  0  0  0
  -33.0273  -28.5051   19.4450 C   0  0  0  0  0  0  0  0  0  0  0  0
  -22.8948  -22.1041   21.3469 C   0  0  0  0  0  0  0  0  0  0  0  0
  -34.4977  -28.7992   17.6356 C   0  0  0  0  0  0  0  0  0  0  0  0
  -35.0957  -28.3740   14.9441 C   0  0  0  0  0  0  0  0  0  0  0  0
  -35.6523  -28.1023   17.2794 C   0  0  0  0  0  0  0  0  0  0  0  0
  -21.9610  -29.8159   24.7570 C   0  0  0  0  0  0  0  0  0  0  0  0
  -29.3852  -26.9363   20.9185 C   0  0  0  0  0  0  0  0  0  0  0  0
  -27.8436  -25.9481   22.1359 C   0  0  0  0  0  0  0  0  0  0  0  0
  -20.5992  -26.7890   26.5407 C   0  0  0  0  0  0  0  0  0  0  0  0
  -30.1318  -25.8765   23.1398 C   0  0  0  0  0  0  0  0  0  0  0  0
  -25.4406  -17.3550   20.6921 C   0  0  0  0  0  0  0  0  0  0  0  0
  -27.8770  -18.9721   19.2880 C   0  0  0  0  0  0  0  0  0  0  0  0
  -29.1794  -21.9704   18.3079 C   0  0  0  0  0  0  0  0  0  0  0  0
  -23.0990  -28.5187   19.5414 C   0  0  0  0  0  0  0  0  0  0  0  0
  -27.9044  -12.9614   21.5192 C   0  0  0  0  0  0  0  0  0  0  0  0
  -24.2060  -18.7484   18.9920 C   0  0  0  0  0  0  0  0  0  0  0  0
  -26.1633  -20.3572   20.5170 C   0  0  0  0  0  0  0  0  0  0  0  0
  -28.2207  -14.4429   21.7081 C   0  0  0  0  0  0  0  0  0  0  0  0
  -24.1597  -25.1379   19.1926 C   0  0  0  0  0  0  0  0  0  0  0  0
  -27.0759  -15.1452   22.4312 C   0  0  0  0  0  0  0  0  0  0  0  0
  -25.6013  -25.1522   19.7041 C   0  0  0  0  0  0  0  0  0  0  0  0
  -23.8160  -26.4200   18.4377 C   0  0  0  0  0  0  0  0  0  0  0  0
  -25.5221  -27.6805   19.6925 C   0  0  0  0  0  0  0  0  0  0  0  0
  -25.7794  -15.0697   21.6159 C   0  0  1  0  0  0  0  0  0  0  0  0
  -25.5472  -18.1723   19.4358 C   0  0  1  0  0  0  0  0  0  0  0  0
  -25.8982  -26.4320   20.5086 C   0  0  2  0  0  0  0  0  0  0  0  0
  -31.2047  -22.9776   17.2211 C   0  0  0  0  0  0  0  0  0  0  0  0
  -29.4443  -18.6122   21.8810 C   0  0  0  0  0  0  0  0  0  0  0  0
  -31.0107  -20.4028   21.1011 C   0  0  0  0  0  0  0  0  0  0  0  0
  -30.7876  -18.2883   19.7966 C   0  0  0  0  0  0  0  0  0  0  0  0
  -27.5819  -23.0463   16.0607 C   0  0  0  0  0  0  0  0  0  0  0  0
  -19.7093  -23.8505   24.5569 C   0  0  0  0  0  0  0  0  0  0  0  0
  -21.1000  -23.9091   23.9255 C   0  0  0  0  0  0  0  0  0  0  0  0
  -22.5302  -30.6316   20.7124 C   0  0  0  0  0  0  0  0  0  0  0  0
  -19.6371  -24.6161   25.8704 C   0  0  0  0  0  0  0  0  0  0  0  0
  -21.1627  -23.1039   22.6337 C   0  0  0  0  0  0  0  0  0  1  0  0
  -21.8319  -30.3107   22.0198 C   0  0  0  0  0  0  0  0  0  0  0  0
  -28.9044  -19.9746   19.7554 C   0  0  1  0  0  0  0  0  0  0  0  0
  -29.8088  -22.4161   17.0003 C   0  0  2  0  0  0  0  0  0  0  0  0
  -30.0089  -19.3246   20.6358 C   0  0  0  0  0  0  0  0  0  0  0  0
  -28.2585  -27.0849   20.2167 N   0  0  0  0  0  0  0  0  0  0  0  0
  -27.3391  -26.4734   20.9828 N   0  0  0  0  0  0  0  0  0  0  0  0
  -26.5527  -19.2075   19.6839 N   0  0  0  0  0  0  0  0  0  0  0  0
  -24.1194  -27.5964   19.2562 N   0  0  0  0  0  0  0  0  0  0  0  0
  -27.0569  -25.2997   23.0208 N   0  0  0  0  0  0  0  0  0  0  0  0
  -20.9757  -26.3528   27.7428 N   0  0  0  0  0  0  0  0  0  0  0  0
  -31.4717  -26.2502   22.9685 N   0  0  0  0  0  0  0  0  0  0  0  0
  -25.8055  -16.0315   20.5348 N   0  0  0  0  0  0  0  0  0  0  0  0
  -29.4077  -20.6332   18.5549 N   0  0  0  0  0  0  0  0  0  0  0  0
  -23.4700  -29.6018   20.3288 N   0  0  0  0  0  0  0  0  0  0  0  0
  -19.9780  -26.0198   25.6372 N   0  3  0  0  0  0  0  0  0  0  0  0
  -28.9746  -23.4702   16.3567 N   0  3  0  0  0  0  0  0  0  0  0  0
  -29.8010  -25.2288   24.1619 O   0  0  0  0  0  0  0  0  0  0  0  0
  -25.0573  -17.8861   21.7277 O   0  0  0  0  0  0  0  0  0  0  0  0
  -28.2351  -18.0193   18.5911 O   0  0  0  0  0  0  0  0  0  0  0  0
  -28.5514  -22.7332   19.0389 O   0  0  0  0  0  0  0  0  0  0  0  0
  -21.9418  -28.3838   19.1295 O   0  0  0  0  0  0  0  0  0  0  0  0
  -23.5590  -31.4983   23.5950 O   0  0  0  0  0  0  0  0  0  0  0  0
  -23.8318  -29.0419   23.1080 O   0  0  0  0  0  0  0  0  0  0  0  0
  -34.1990  -29.0104   18.9712 O   0  0  0  0  0  0  0  0  0  0  0  0
  -22.4791  -23.1679   22.0867 O   0  0  0  0  0  0  0  0  0  1  0  0
  -35.3819  -28.1686   13.6518 F   0  0  0  0  0  0  0  0  0  0  0  0
  -36.4775  -27.6337   18.2255 F   0  0  0  0  0  0  0  0  0  0  0  0
  -22.9700  -30.1841   23.3807 S   0  0  0  0  0  0  0  0  0  0  0  0
  1  2  1  0  0  0  0
  1  7  2  0  0  0  0
  2  8  2  0  0  0  0
  3  6  2  0  0  0  0
  3 15  1  0  0  0  0
  4 10  2  0  0  0  0
  4 19  1  0  0  0  0
  5 11  1  0  0  0  0
  5 19  2  0  0  0  0
  6 20  1  0  0  0  0
  7 22  1  0  0  0  0
  8 24  1  0  0  0  0
  9 12  2  0  0  0  0
  9 23  1  0  0  0  0
 10 26  1  0  0  0  0
 11 26  2  0  0  0  0
 12 27  1  0  0  0  0
 13 14  2  0  0  0  0
 13 28  1  0  0  0  0
 14 29  1  0  0  0  0
 15 31  2  0  0  0  0
 16 20  2  0  0  0  0
 16 31  1  0  0  0  0
 17 25  1  0  0  0  0
 17 27  2  0  0  0  0
 18 29  2  0  0  0  0
 18 30  1  0  0  0  0
 19 32  1  0  0  0  0
 20 34  1  0  0  0  0
 21 32  1  0  0  0  0
 21 33  2  0  0  0  0
 21 35  1  0  0  0  0
 22 24  2  0  0  0  0
 22 40  1  0  0  0  0
 23 25  2  0  0  0  0
 23 41  1  0  0  0  0
 24 49  1  0  0  0  0
 25 42  1  0  0  0  0
 26 85  1  0  0  0  0
 27 86  1  0  0  0  0
 28 30  2  0  0  0  0
 28 85  1  0  0  0  0
 29 87  1  0  0  0  0
 30 88  1  0  0  0  0
 31 89  1  0  0  0  0
 32 66  2  0  0  0  0
 33 67  1  0  0  0  0
 33 70  1  0  0  0  0
 34 71  1  0  0  0  0
 34 76  2  0  0  0  0
 35 72  1  0  0  0  0
 35 78  2  0  0  0  0
 36 50  1  0  0  0  0
 36 73  1  0  0  0  0
 36 79  2  0  0  0  0
 37 63  1  0  0  0  0
 37 68  1  0  0  0  0
 37 80  2  0  0  0  0
 38 64  1  0  0  0  0
 38 74  1  0  0  0  0
 38 81  2  0  0  0  0
 39 69  1  0  0  0  0
 39 75  1  0  0  0  0
 39 82  2  0  0  0  0
 40 43  1  0  0  0  0
 41 50  1  0  0  0  0
 42 68  1  0  0  0  0
 43 45  1  0  0  0  0
 44 46  1  0  0  0  0
 44 47  1  0  0  0  0
 45 49  1  0  0  0  0
 46 51  1  0  0  0  0
 47 69  1  0  0  0  0
 48 51  1  0  0  0  0
 48 69  1  0  0  0  0
 49 73  1  0  0  0  0
 50 68  1  0  0  0  0
 51 67  1  0  0  0  0
 52 64  1  0  0  0  0
 53 65  1  0  0  0  0
 54 65  1  0  0  0  0
 55 65  1  0  0  0  0
 56 77  1  0  0  0  0
 57 58  1  0  0  0  0
 57 60  1  0  0  0  0
 58 61  1  0  0  0  0
 59 62  1  0  0  0  0
 59 75  1  0  0  0  0
 60 76  1  0  0  0  0
 61 86  1  0  0  0  0
 62 89  1  0  0  0  0
 63 65  1  0  0  0  0
 63 74  1  0  0  0  0
 64 77  1  0  0  0  0
 66 67  1  0  0  0  0
 83 89  2  0  0  0  0
 84 89  2  0  0  0  0
M  CHG  2  76   1  77   1
M  ISO  4  39 100  61 101  75 100  86 101
M  END
> <Batch ID>
0006

> <Smiles>
CNC(C)C(=O)NC(C(=O)N1Cc2cc([101O:1][101CH2:1]CCCNC(=N)c3cccc(S(=O)(=O)CC[100NH:0][100C:0](=O)N4CCCC(n5nc(-c6ccc(Oc7ccc(F)cc7F)cc6)c(C(N)=O)c5N)C4)c3)ccc2CC1C(=O)NC1CCCc2ccccc21)C(C)(C)C

> <Shape>
0.186

> <Color>
0.080

> <Negative vol penalty>
0.000

$$$$

  -OEChem-04052315303D

 93101  0     1  0  0  0  0  0999 V2000
  -24.8686  -22.4088   18.4301 C   0  0  0  0  0  0  0  0  0  0  0  0
  -24.9897  -21.0567   18.7347 C   0  0  0  0  0  0  0  0  0  0  0  0
  -25.8650  -29.1616   22.0934 C   0  0  0  0  0  0  0  0  0  0  0  0
  -25.9653  -29.3906   19.6904 C   0  0  0  0  0  0  0  0  0  0  0  0
  -24.4664  -23.3106   19.4144 C   0  0  0  0  0  0  0  0  0  0  0  0
  -24.7096  -20.6059   20.0241 C   0  0  0  0  0  0  0  0  0  0  0  0
  -21.8942  -16.3966   20.0418 C   0  0  0  0  0  0  0  0  0  0  0  0
  -29.4708  -19.0671   23.9733 C   0  0  0  0  0  0  0  0  0  0  0  0
  -24.6708  -29.8820   22.1123 C   0  0  0  0  0  0  0  0  0  0  0  0
  -24.7710  -30.1109   19.7092 C   0  0  0  0  0  0  0  0  0  0  0  0
  -22.5453  -15.1940   19.7705 C   0  0  0  0  0  0  0  0  0  0  0  0
  -21.4020  -29.3026   21.4703 C   0  0  0  0  0  0  0  0  0  0  0  0
  -28.4935  -20.0382   24.1910 C   0  0  0  0  0  0  0  0  0  0  0  0
  -20.3603  -28.8102   22.2564 C   0  0  0  0  0  0  0  0  0  0  0  0
  -22.6218  -14.7095   22.1324 C   0  0  0  0  0  0  0  0  0  0  0  0
  -29.7622  -19.8672   21.7124 C   0  0  0  0  0  0  0  0  0  0  0  0
  -20.3636  -30.8558   23.5420 C   0  0  0  0  0  0  0  0  0  0  0  0
  -26.5124  -28.9160   20.8825 C   0  0  0  0  0  0  0  0  0  0  0  0
  -28.9515  -28.5078   21.5082 C   0  0  0  0  0  0  0  0  0  0  0  0
  -24.1720  -22.8691   20.7141 C   0  0  0  0  0  0  0  0  0  0  0  0
  -21.6113  -16.7704   21.3634 C   0  0  0  0  0  0  0  0  0  0  0  0
  -24.3044  -21.5028   21.0271 C   0  0  0  0  0  0  0  0  0  0  0  0
  -21.9648  -15.9161   22.4177 C   0  0  0  0  0  0  0  0  0  0  0  0
  -30.1052  -18.9816   22.7340 C   0  0  0  0  0  0  0  0  0  0  0  0
  -28.7849  -20.8383   21.9300 C   0  0  0  0  0  0  0  0  0  0  0  0
  -24.1237  -30.3566   20.9202 C   0  0  0  0  0  0  0  0  0  0  0  0
  -22.9117  -14.3515   20.8160 C   0  0  0  0  0  0  0  0  0  0  0  0
  -21.9245  -30.5716   21.7200 C   0  0  0  0  0  0  0  0  0  0  0  0
  -19.8410  -29.5868   23.2922 C   0  0  0  0  0  0  0  0  0  0  0  0
  -28.1505  -20.9238   23.1694 C   0  0  0  0  0  0  0  0  0  0  0  0
  -21.4053  -31.3482   22.7558 C   0  0  0  0  0  0  0  0  0  0  0  0
  -27.7464  -28.1724   20.8625 C   0  0  0  0  0  0  0  0  0  0  0  0
  -29.8118  -27.4885   21.1805 C   0  0  0  0  0  0  0  0  0  0  0  0
  -29.2652  -29.6394   22.3308 C   0  0  0  0  0  0  0  0  0  0  0  0
  -22.4675  -19.1863   23.2434 C   0  0  0  0  0  0  0  0  0  0  0  0
  -20.3224  -17.8520   25.2784 C   0  0  0  0  0  0  0  0  0  0  0  0
  -31.2935  -17.4579   21.2037 C   0  0  0  0  0  0  0  0  0  0  0  0
  -25.4980  -12.1219   19.5875 C   0  0  0  0  0  0  0  0  0  0  0  0
  -18.6183  -15.0683   26.2751 C   0  0  0  0  0  0  0  0  0  0  0  0
  -28.9726  -21.7864   19.6036 C   0  0  0  0  0  0  0  0  0  0  0  0
  -23.7865  -23.8882   21.7570 C   0  0  0  0  0  0  0  0  0  0  0  0
  -20.8846  -18.0584   21.6377 C   0  0  0  0  0  0  0  0  0  0  0  0
  -21.6657  -16.2618   23.8528 C   0  0  0  0  0  0  0  0  0  0  0  0
  -23.1470  -23.2754   23.0003 C   0  0  0  0  0  0  0  0  0  0  0  0
  -30.6800  -24.2852   17.7280 C   0  0  0  0  0  0  0  0  0  0  0  0
  -23.9529  -22.0709   23.4765 C   0  0  0  0  0  0  0  0  0  0  0  0
  -30.2359  -25.5958   18.3816 C   0  0  0  0  0  0  0  0  0  0  0  0
  -29.5483  -23.2598   17.6872 C   0  0  0  0  0  0  0  0  0  0  0  0
  -28.4588  -24.3064   19.6332 C   0  0  0  0  0  0  0  0  0  0  0  0
  -23.9857  -20.9717   22.4078 C   0  0  1  0  0  0  0  0  0  0  0  0
  -21.1059  -18.5795   23.0543 C   0  0  1  0  0  0  0  0  0  0  0  0
  -29.5834  -25.3475   19.7557 C   0  0  2  0  0  0  0  0  0  0  0  0
  -16.9626  -13.6869   27.5589 C   0  0  0  0  0  0  0  0  0  0  0  0
  -22.5282  -17.8239   27.3864 C   0  0  0  0  0  0  0  0  0  0  0  0
  -21.1489  -16.2053   28.7076 C   0  0  0  0  0  0  0  0  0  0  0  0
  -20.2761  -18.4953   28.2419 C   0  0  0  0  0  0  0  0  0  0  0  0
  -31.9370  -17.5181   23.6447 C   0  0  0  0  0  0  0  0  0  0  0  0
  -16.4696  -15.6106   24.3135 C   0  0  0  0  0  0  0  0  0  0  0  0
  -32.3526  -16.3684   21.0523 C   0  0  0  0  0  0  0  0  0  0  0  0
  -24.3738  -13.1186   19.4025 C   0  0  0  0  0  0  0  0  0  1  0  0
  -32.0291  -15.3820   19.9277 C   0  0  0  0  0  0  0  0  0  0  0  0
  -30.7147  -14.6450   20.1947 C   0  0  0  0  0  0  0  0  0  0  0  0
  -30.3749  -13.6871   19.0507 C   0  0  0  0  0  0  0  0  0  0  0  0
  -29.0723  -12.9112   19.2701 C   0  0  0  0  0  0  0  0  0  0  0  0
  -28.7514  -11.9293   18.1383 C   0  0  0  0  0  0  0  0  0  0  0  0
  -27.4499  -11.1685   18.3763 C   0  0  0  0  0  0  0  0  0  0  0  0
  -20.3870  -16.8055   26.3645 C   0  0  1  0  0  0  0  0  0  0  0  0
  -17.1504  -14.8452   26.5915 C   0  0  2  0  0  0  0  0  0  0  0  0
  -21.0925  -17.3266   27.6483 C   0  0  0  0  0  0  0  0  0  0  0  0
  -27.8298  -27.0295   20.1763 N   0  0  0  0  0  0  0  0  0  0  0  0
  -29.0976  -26.6379   20.3889 N   0  0  0  0  0  0  0  0  0  0  0  0
  -20.9591  -17.5350   24.0701 N   0  0  0  0  0  0  0  0  0  0  0  0
  -28.9813  -23.0730   19.0246 N   0  0  0  0  0  0  0  0  0  0  0  0
  -31.1020  -27.2459   21.4950 N   0  0  0  0  0  0  0  0  0  0  0  0
  -29.7722  -30.7924   21.7159 N   0  0  0  0  0  0  0  0  0  0  0  0
  -28.4384  -21.7370   20.8908 N   0  0  0  0  0  0  0  0  0  0  0  0
  -22.7355  -20.2427   22.3940 N   0  0  0  0  0  0  0  0  0  0  0  0
  -26.3115  -12.0408   18.4628 N   0  0  0  0  0  0  0  0  0  0  0  0
  -19.0164  -16.3533   26.5776 N   0  0  0  0  0  0  0  0  0  0  0  0
  -31.1206  -17.9725   22.5080 N   0  0  0  0  0  0  0  0  0  0  0  0
  -16.3918  -14.5441   25.3447 N   0  3  0  0  0  0  0  0  0  0  0  0
  -29.1163  -29.6228   23.5762 O   0  0  0  0  0  0  0  0  0  0  0  0
  -23.2186  -18.7307   24.0978 O   0  0  0  0  0  0  0  0  0  0  0  0
  -19.7228  -18.9087   25.4916 O   0  0  0  0  0  0  0  0  0  0  0  0
  -30.6381  -17.8026   20.2172 O   0  0  0  0  0  0  0  0  0  0  0  0
  -25.6484  -11.4741   20.6199 O   0  0  0  0  0  0  0  0  0  0  0  0
  -19.3405  -14.1893   25.8100 O   0  0  0  0  0  0  0  0  0  0  0  0
  -29.4319  -20.8057   19.0127 O   0  0  0  0  0  0  0  0  0  0  0  0
  -22.9582  -31.0593   20.9381 O   0  0  0  0  0  0  0  0  0  0  0  0
  -23.5545  -13.1652   20.5513 O   0  0  0  0  0  0  0  0  0  1  0  0
  -18.8397  -29.1145   24.0461 F   0  0  0  0  0  0  0  0  0  0  0  0
  -27.2096  -21.8527   23.3901 F   0  0  0  0  0  0  0  0  0  0  0  0
  -21.9024  -32.5685   22.9998 F   0  0  0  0  0  0  0  0  0  0  0  0
  1  2  1  0  0  0  0
  1  5  2  0  0  0  0
  2  6  2  0  0  0  0
  3  9  2  0  0  0  0
  3 18  1  0  0  0  0
  4 10  1  0  0  0  0
  4 18  2  0  0  0  0
  5 20  1  0  0  0  0
  6 22  1  0  0  0  0
  7 11  2  0  0  0  0
  7 21  1  0  0  0  0
  8 13  2  0  0  0  0
  8 24  1  0  0  0  0
  9 26  1  0  0  0  0
 10 26  2  0  0  0  0
 11 27  1  0  0  0  0
 12 14  2  0  0  0  0
 12 28  1  0  0  0  0
 13 30  1  0  0  0  0
 14 29  1  0  0  0  0
 15 23  1  0  0  0  0
 15 27  2  0  0  0  0
 16 24  2  0  0  0  0
 16 25  1  0  0  0  0
 17 29  2  0  0  0  0
 17 31  1  0  0  0  0
 18 32  1  0  0  0  0
 19 32  1  0  0  0  0
 19 33  2  0  0  0  0
 19 34  1  0  0  0  0
 20 22  2  0  0  0  0
 20 41  1  0  0  0  0
 21 23  2  0  0  0  0
 21 42  1  0  0  0  0
 22 50  1  0  0  0  0
 23 43  1  0  0  0  0
 24 80  1  0  0  0  0
 25 30  2  0  0  0  0
 25 76  1  0  0  0  0
 26 89  1  0  0  0  0
 27 90  1  0  0  0  0
 28 31  2  0  0  0  0
 28 89  1  0  0  0  0
 29 91  1  0  0  0  0
 30 92  1  0  0  0  0
 31 93  1  0  0  0  0
 32 70  2  0  0  0  0
 33 71  1  0  0  0  0
 33 74  1  0  0  0  0
 34 75  1  0  0  0  0
 34 82  2  0  0  0  0
 35 51  1  0  0  0  0
 35 77  1  0  0  0  0
 35 83  2  0  0  0  0
 36 67  1  0  0  0  0
 36 72  1  0  0  0  0
 36 84  2  0  0  0  0
 37 59  1  0  0  0  0
 37 80  1  0  0  0  0
 37 85  2  0  0  0  0
 38 60  1  0  0  0  0
 38 78  1  0  0  0  0
 38 86  2  0  0  0  0
 39 68  1  0  0  0  0
 39 79  1  0  0  0  0
 39 87  2  0  0  0  0
 40 73  1  0  0  0  0
 40 76  1  0  0  0  0
 40 88  2  0  0  0  0
 41 44  1  0  0  0  0
 42 51  1  0  0  0  0
 43 72  1  0  0  0  0
 44 46  1  0  0  0  0
 45 47  1  0  0  0  0
 45 48  1  0  0  0  0
 46 50  1  0  0  0  0
 47 52  1  0  0  0  0
 48 73  1  0  0  0  0
 49 52  1  0  0  0  0
 49 73  1  0  0  0  0
 50 77  1  0  0  0  0
 51 72  1  0  0  0  0
 52 71  1  0  0  0  0
 53 68  1  0  0  0  0
 54 69  1  0  0  0  0
 55 69  1  0  0  0  0
 56 69  1  0  0  0  0
 57 80  1  0  0  0  0
 58 81  1  0  0  0  0
 59 61  1  0  0  0  0
 60 90  1  0  0  0  0
 61 62  1  0  0  0  0
 62 63  1  0  0  0  0
 63 64  1  0  0  0  0
 64 65  1  0  0  0  0
 65 66  1  0  0  0  0
 66 78  1  0  0  0  0
 67 69  1  0  0  0  0
 67 79  1  0  0  0  0
 68 81  1  0  0  0  0
 70 71  1  0  0  0  0
M  CHG  1  81   1
M  ISO  4  40 100  60 101  76 100  90 101
M  END
> <Batch ID>
0006

> <Smiles>
CNC(C)C(=O)NC(C(=O)N1Cc2cc([101O:1][101CH2:1]C(=O)NCCCCCCCC(=O)N(C)c3ccc(F)c([100NH:0][100C:0](=O)N4CCCC(n5nc(-c6ccc(Oc7ccc(F)cc7F)cc6)c(C(N)=O)c5N)C4)c3)ccc2CC1C(=O)NC1CCCc2ccccc21)C(C)(C)C

> <Shape>
0.231

> <Color>
0.061

> <Negative vol penalty>
0.000

$$$$

  -OEChem-04052315303D

 81 89  0     1  0  0  0  0  0999 V2000
  -23.7253  -32.8604   26.6544 C   0  0  0  0  0  0  0  0  0  0  0  0
  -24.9923  -32.3975   26.3141 C   0  0  0  0  0  0  0  0  0  0  0  0
  -24.0880   -9.7022   21.7048 C   0  0  0  0  0  0  0  0  0  0  0  0
  -24.6737  -10.9768   23.6718 C   0  0  0  0  0  0  0  0  0  0  0  0
  -22.5938  -32.1568   26.2438 C   0  0  0  0  0  0  0  0  0  0  0  0
  -25.1286  -31.2301   25.5638 C   0  0  0  0  0  0  0  0  0  0  0  0
  -29.3475  -28.2407   20.6059 C   0  0  0  0  0  0  0  0  0  0  0  0
  -30.7247  -18.9946   20.2176 C   0  0  0  0  0  0  0  0  0  0  0  0
  -23.6732   -8.6443   22.5137 C   0  0  0  0  0  0  0  0  0  0  0  0
  -24.2589   -9.9189   24.4808 C   0  0  0  0  0  0  0  0  0  0  0  0
  -30.0657  -27.0699   20.3668 C   0  0  0  0  0  0  0  0  0  0  0  0
  -31.0251  -20.3134   20.5581 C   0  0  0  0  0  0  0  0  0  0  0  0
  -20.9706   -7.8495   24.3837 C   0  0  0  0  0  0  0  0  0  0  0  0
  -19.7586   -7.2328   24.0734 C   0  0  0  0  0  0  0  0  0  0  0  0
  -28.0380  -25.9804   19.6453 C   0  0  0  0  0  0  0  0  0  0  0  0
  -28.6723  -20.7709   20.8617 C   0  0  0  0  0  0  0  0  0  0  0  0
  -20.9082   -5.1309   23.7608 C   0  0  0  0  0  0  0  0  0  0  0  0
  -24.5883  -10.8684   22.2838 C   0  0  0  0  0  0  0  0  0  0  0  0
  -24.2344  -13.0359   20.9858 C   0  0  0  0  0  0  0  0  0  0  0  0
  -22.7160  -30.9855   25.4799 C   0  0  0  0  0  0  0  0  0  0  0  0
  -27.9649  -28.2869   20.3764 C   0  0  0  0  0  0  0  0  0  0  0  0
  -23.9977  -30.5095   25.1437 C   0  0  0  0  0  0  0  0  0  0  0  0
  -27.3049  -27.1538   19.8799 C   0  0  0  0  0  0  0  0  0  0  0  0
  -29.3981  -18.5639   20.1991 C   0  0  0  0  0  0  0  0  0  0  0  0
  -23.7586   -8.7526   23.9017 C   0  0  0  0  0  0  0  0  0  0  0  0
  -29.4105  -25.9387   19.8892 C   0  0  0  0  0  0  0  0  0  0  0  0
  -29.9989  -21.2016   20.8802 C   0  0  0  0  0  0  0  0  0  0  0  0
  -22.1514   -7.1070   24.3824 C   0  0  0  0  0  0  0  0  0  0  0  0
  -19.7274   -5.8735   23.7620 C   0  0  0  0  0  0  0  0  0  0  0  0
  -22.1202   -5.7477   24.0710 C   0  0  0  0  0  0  0  0  0  0  0  0
  -28.3719  -19.4521   20.5212 C   0  0  0  0  0  0  0  0  0  0  0  0
  -25.0174  -11.9614   21.4487 C   0  0  0  0  0  0  0  0  0  0  0  0
  -25.1008  -13.7946   20.2373 C   0  0  0  0  0  0  0  0  0  0  0  0
  -22.8480  -13.3225   21.2123 C   0  0  0  0  0  0  0  0  0  0  0  0
  -25.4050  -28.7866   22.1934 C   0  0  0  0  0  0  0  0  0  0  0  0
  -23.8515  -28.7088   19.3469 C   0  0  0  0  0  0  0  0  0  0  0  0
  -23.8067  -27.6640   16.0983 C   0  0  0  0  0  0  0  0  0  0  0  0
  -30.0521  -16.2331   19.5019 C   0  0  0  0  0  0  0  0  0  0  0  0
  -21.4654  -30.2333   25.0992 C   0  0  0  0  0  0  0  0  0  0  0  0
  -27.2091  -29.5655   20.6140 C   0  0  0  0  0  0  0  0  0  0  0  0
  -25.8254  -27.1577   19.5980 C   0  0  0  0  0  0  0  0  0  0  0  0
  -21.6847  -29.2095   23.9883 C   0  0  0  0  0  0  0  0  0  0  0  0
  -29.7878  -12.7971   18.6069 C   0  0  0  0  0  0  0  0  0  0  0  0
  -22.9326  -28.3779   24.2675 C   0  0  0  0  0  0  0  0  0  0  0  0
  -28.4588  -12.3617   19.2283 C   0  0  0  0  0  0  0  0  0  0  0  0
  -30.5295  -13.7944   19.4951 C   0  0  0  0  0  0  0  0  0  0  0  0
  -28.4156  -14.5317   20.5230 C   0  0  0  0  0  0  0  0  0  0  0  0
  -24.1858  -29.2606   24.3099 C   0  0  1  0  0  0  0  0  0  0  0  0
  -25.7156  -29.3449   20.8334 C   0  0  1  0  0  0  0  0  0  0  0  0
  -27.6018  -13.5767   19.6345 C   0  0  2  0  0  0  0  0  0  0  0  0
  -22.3870  -27.7216   14.0299 C   0  0  0  0  0  0  0  0  0  0  0  0
  -22.0255  -26.5773   20.5438 C   0  0  0  0  0  0  0  0  0  0  0  0
  -21.2843  -26.0075   18.2212 C   0  0  0  0  0  0  0  0  0  0  0  0
  -20.8553  -28.2859   19.1418 C   0  0  0  0  0  0  0  0  0  0  0  0
  -25.8850  -29.1166   14.5720 C   0  0  0  0  0  0  0  0  0  0  0  0
  -31.2583  -24.5578   20.4677 C   0  0  0  0  0  0  0  0  0  1  0  0
  -31.4571  -23.0622   20.6206 C   0  0  0  0  0  0  0  0  0  0  0  0
  -23.2127  -27.6294   18.5067 C   0  0  1  0  0  0  0  0  0  0  0  0
  -23.5032  -28.4020   14.8069 C   0  0  2  0  0  0  0  0  0  0  0  0
  -21.8720  -27.1240   19.1104 C   0  0  0  0  0  0  0  0  0  0  0  0
  -26.2837  -12.0279   21.0292 N   0  0  0  0  0  0  0  0  0  0  0  0
  -26.3031  -13.1532   20.2948 N   0  0  0  0  0  0  0  0  0  0  0  0
  -25.1293  -28.4298   19.8521 N   0  0  0  0  0  0  0  0  0  0  0  0
  -29.6572  -14.9204   19.8359 N   0  0  0  0  0  0  0  0  0  0  0  0
  -24.9438  -14.9410   19.5420 N   0  0  0  0  0  0  0  0  0  0  0  0
  -22.1039  -12.4387   22.0057 N   0  0  0  0  0  0  0  0  0  0  0  0
  -29.1274  -17.2185   19.8461 N   0  0  0  0  0  0  0  0  0  0  0  0
  -24.6066  -29.6055   22.9688 N   0  0  0  0  0  0  0  0  0  0  0  0
  -23.0927  -28.1777   17.1601 N   0  0  0  0  0  0  0  0  0  0  0  0
  -24.7155  -28.4519   13.9416 N   0  3  0  0  0  0  0  0  0  0  0  0
  -22.2817  -14.3238   20.7121 O   0  0  0  0  0  0  0  0  0  0  0  0
  -25.8552  -27.6931   22.5148 O   0  0  0  0  0  0  0  0  0  0  0  0
  -23.2422  -29.7635   19.5416 O   0  0  0  0  0  0  0  0  0  0  0  0
  -24.5954  -26.7233   16.1583 O   0  0  0  0  0  0  0  0  0  0  0  0
  -31.1189  -16.4633   18.9267 O   0  0  0  0  0  0  0  0  0  0  0  0
  -23.3538   -7.7206   24.6914 O   0  0  0  0  0  0  0  0  0  0  0  0
  -30.1091  -24.7944   19.6555 O   0  0  0  0  0  0  0  0  0  1  0  0
  -30.2944  -22.4972   21.2139 O   0  0  0  0  0  0  0  0  0  0  0  0
  -18.5632   -5.2810   23.4656 F   0  0  0  0  0  0  0  0  0  0  0  0
  -23.2512   -5.0289   24.0693 F   0  0  0  0  0  0  0  0  0  0  0  0
  -26.7159  -18.9599   20.5123 Cl  0  0  0  0  0  0  0  0  0  0  0  0
  1  2  1  0  0  0  0
  1  5  2  0  0  0  0
  2  6  2  0  0  0  0
  3  9  2  0  0  0  0
  3 18  1  0  0  0  0
  4 10  1  0  0  0  0
  4 18  2  0  0  0  0
  5 20  1  0  0  0  0
  6 22  1  0  0  0  0
  7 11  2  0  0  0  0
  7 21  1  0  0  0  0
  8 12  2  0  0  0  0
  8 24  1  0  0  0  0
  9 25  1  0  0  0  0
 10 25  2  0  0  0  0
 11 26  1  0  0  0  0
 12 27  1  0  0  0  0
 13 14  2  0  0  0  0
 13 28  1  0  0  0  0
 14 29  1  0  0  0  0
 15 23  1  0  0  0  0
 15 26  2  0  0  0  0
 16 27  2  0  0  0  0
 16 31  1  0  0  0  0
 17 29  2  0  0  0  0
 17 30  1  0  0  0  0
 18 32  1  0  0  0  0
 19 32  1  0  0  0  0
 19 33  2  0  0  0  0
 19 34  1  0  0  0  0
 20 22  2  0  0  0  0
 20 39  1  0  0  0  0
 21 23  2  0  0  0  0
 21 40  1  0  0  0  0
 22 48  1  0  0  0  0
 23 41  1  0  0  0  0
 24 31  2  0  0  0  0
 24 67  1  0  0  0  0
 25 76  1  0  0  0  0
 26 77  1  0  0  0  0
 27 78  1  0  0  0  0
 28 30  2  0  0  0  0
 28 76  1  0  0  0  0
 29 79  1  0  0  0  0
 30 80  1  0  0  0  0
 31 81  1  0  0  0  0
 32 61  2  0  0  0  0
 33 62  1  0  0  0  0
 33 65  1  0  0  0  0
 34 66  1  0  0  0  0
 34 71  2  0  0  0  0
 35 49  1  0  0  0  0
 35 68  1  0  0  0  0
 35 72  2  0  0  0  0
 36 58  1  0  0  0  0
 36 63  1  0  0  0  0
 36 73  2  0  0  0  0
 37 59  1  0  0  0  0
 37 69  1  0  0  0  0
 37 74  2  0  0  0  0
 38 64  1  0  0  0  0
 38 67  1  0  0  0  0
 38 75  2  0  0  0  0
 39 42  1  0  0  0  0
 40 49  1  0  0  0  0
 41 63  1  0  0  0  0
 42 44  1  0  0  0  0
 43 45  1  0  0  0  0
 43 46  1  0  0  0  0
 44 48  1  0  0  0  0
 45 50  1  0  0  0  0
 46 64  1  0  0  0  0
 47 50  1  0  0  0  0
 47 64  1  0  0  0  0
 48 68  1  0  0  0  0
 49 63  1  0  0  0  0
 50 62  1  0  0  0  0
 51 59  1  0  0  0  0
 52 60  1  0  0  0  0
 53 60  1  0  0  0  0
 54 60  1  0  0  0  0
 55 70  1  0  0  0  0
 56 57  1  0  0  0  0
 56 77  1  0  0  0  0
 57 78  1  0  0  0  0
 58 60  1  0  0  0  0
 58 69  1  0  0  0  0
 59 70  1  0  0  0  0
 61 62  1  0  0  0  0
M  CHG  1  70   1
M  ISO  4  38 100  56 101  67 100  77 101
M  END
> <Batch ID>
0006

> <Smiles>
CNC(C)C(=O)NC(C(=O)N1Cc2cc([101O:1][101CH2:1]COc3ccc([100NH:0][100C:0](=O)N4CCCC(n5nc(-c6ccc(Oc7ccc(F)cc7F)cc6)c(C(N)=O)c5N)C4)c(Cl)c3)ccc2CC1C(=O)NC1CCCc2ccccc21)C(C)(C)C

> <Shape>
0.295

> <Color>
0.121

> <Negative vol penalty>
0.000

$$$$

  -OEChem-04052315303D

 96104  0     1  0  0  0  0  0999 V2000
  -19.6162  -26.6628   21.6578 C   0  0  0  0  0  0  0  0  0  0  0  0
  -24.5055  -21.0715   15.4847 C   0  0  0  0  0  0  0  0  0  0  0  0
  -24.0429  -22.2257   16.1087 C   0  0  0  0  0  0  0  0  0  0  0  0
  -27.6317  -12.1032   21.2877 C   0  0  0  0  0  0  0  0  0  0  0  0
  -25.4813  -13.1707   21.0169 C   0  0  0  0  0  0  0  0  0  0  0  0
  -25.5968  -20.3839   16.0138 C   0  0  0  0  0  0  0  0  0  0  0  0
  -24.6709  -22.6924   17.2629 C   0  0  0  0  0  0  0  0  0  0  0  0
  -25.4519  -28.5353   18.9232 C   0  0  0  0  0  0  0  0  0  0  0  0
  -26.9972  -10.9245   21.6797 C   0  0  0  0  0  0  0  0  0  0  0  0
  -24.8468  -11.9920   21.4088 C   0  0  0  0  0  0  0  0  0  0  0  0
  -24.7514  -29.3630   19.7996 C   0  0  0  0  0  0  0  0  0  0  0  0
  -22.6497   -9.1544   21.9908 C   0  0  0  0  0  0  0  0  0  0  0  0
  -21.5510   -8.7292   21.2441 C   0  0  0  0  0  0  0  0  0  0  0  0
  -21.1331  -28.1475   22.8549 C   0  0  0  0  0  0  0  0  0  0  0  0
  -26.3348  -28.8454   21.5443 C   0  0  0  0  0  0  0  0  0  0  0  0
  -22.6100  -25.9663   23.7733 C   0  0  0  0  0  0  0  0  0  0  0  0
  -22.9435   -8.5897   19.2747 C   0  0  0  0  0  0  0  0  0  0  0  0
  -20.7599  -26.8521   22.4968 C   0  0  0  0  0  0  0  0  0  0  0  0
  -26.8737  -13.2264   20.9564 C   0  0  0  0  0  0  0  0  0  0  0  0
  -27.8823  -14.8255   19.2437 C   0  0  0  0  0  0  0  0  0  0  0  0
  -26.2446  -20.8478   17.1697 C   0  0  0  0  0  0  0  0  0  0  0  0
  -26.5947  -27.8467   19.3546 C   0  0  0  0  0  0  0  0  0  0  0  0
  -25.7712  -22.0096   17.8088 C   0  0  0  0  0  0  0  0  0  0  0  0
  -27.0494  -28.0116   20.6708 C   0  0  0  0  0  0  0  0  0  0  0  0
  -22.2448  -28.3523   23.6722 C   0  0  0  0  0  0  0  0  0  0  0  0
  -25.6048  -10.8689   21.7402 C   0  0  0  0  0  0  0  0  0  0  0  0
  -25.1912  -29.5159   21.1112 C   0  0  0  0  0  0  0  0  0  0  0  0
  -23.8953   -9.2973   21.3795 C   0  0  0  0  0  0  0  0  0  0  0  0
  -21.4984  -25.7615   22.9560 C   0  0  0  0  0  0  0  0  0  0  0  0
  -21.6979   -8.4468   19.8860 C   0  0  0  0  0  0  0  0  0  0  0  0
  -22.9832  -27.2617   24.1314 C   0  0  0  0  0  0  0  0  0  0  0  0
  -24.0422   -9.0149   20.0214 C   0  0  0  0  0  0  0  0  0  0  0  0
  -27.5286  -14.4445   20.5519 C   0  0  0  0  0  0  0  0  0  0  0  0
  -28.4736  -16.0562   19.3926 C   0  0  0  0  0  0  0  0  0  0  0  0
  -27.6933  -14.1293   18.0047 C   0  0  0  0  0  0  0  0  0  0  0  0
  -27.3980  -24.7835   19.6287 C   0  0  0  0  0  0  0  0  0  0  0  0
  -30.3001  -26.0156   20.3917 C   0  0  0  0  0  0  0  0  0  0  0  0
  -23.2815  -29.9307   25.2987 C   0  0  0  0  0  0  0  0  0  0  0  0
  -23.0846  -20.2603   23.6944 C   0  0  0  0  0  0  0  0  0  0  0  0
  -32.1038  -28.6554   21.5855 C   0  0  0  0  0  0  0  0  0  0  0  0
  -27.9939  -20.3335   23.5550 C   0  0  0  0  0  0  0  0  0  0  0  0
  -27.3908  -20.0445   17.7314 C   0  0  0  0  0  0  0  0  0  0  0  0
  -27.3544  -26.9786   18.3894 C   0  0  0  0  0  0  0  0  0  0  0  0
  -28.2823  -27.3104   21.1775 C   0  0  0  0  0  0  0  0  0  0  0  0
  -28.2344  -20.8134   18.7450 C   0  0  0  0  0  0  0  0  0  0  0  0
  -30.9665  -18.6564   22.5414 C   0  0  0  0  0  0  0  0  0  0  0  0
  -27.3387  -21.5332   19.7483 C   0  0  0  0  0  0  0  0  0  0  0  0
  -30.4544  -17.4212   21.7985 C   0  0  0  0  0  0  0  0  0  0  0  0
  -30.0783  -19.0069   23.7331 C   0  0  0  0  0  0  0  0  0  0  0  0
  -28.1345  -17.9261   22.6713 C   0  0  0  0  0  0  0  0  0  0  0  0
  -26.4414  -22.5611   19.0485 C   0  0  1  0  0  0  0  0  0  0  0  0
  -28.2108  -25.9228   19.0818 C   0  0  1  0  0  0  0  0  0  0  0  0
  -28.9661  -17.5665   21.4282 C   0  0  2  0  0  0  0  0  0  0  0  0
  -24.3539  -30.9959   25.2939 C   0  0  0  0  0  0  0  0  0  0  0  0
  -34.4527  -29.3511   22.1295 C   0  0  0  0  0  0  0  0  0  0  0  0
  -30.2078  -24.3307   22.9338 C   0  0  0  0  0  0  0  0  0  0  0  0
  -32.0532  -25.7484   23.8572 C   0  0  0  0  0  0  0  0  0  0  0  0
  -32.4367  -24.3888   21.8012 C   0  0  0  0  0  0  0  0  0  0  0  0
  -32.0287  -30.8648   19.6178 C   0  0  0  0  0  0  0  0  0  0  0  0
  -24.1735  -20.2983   24.7525 C   0  0  0  0  0  0  0  0  0  0  0  0
  -25.0796  -21.5219   24.6122 C   0  0  0  0  0  0  0  0  0  0  0  0
  -21.5461  -22.3443   21.6109 C   0  0  0  0  0  0  0  0  0  0  0  0
  -25.8408  -21.5392   23.2912 C   0  0  0  0  0  0  0  0  0  0  0  0
  -21.1503  -21.5837   22.8696 C   0  0  0  0  0  0  0  0  0  0  0  0
  -22.4227  -30.7587   23.0813 C   0  0  0  0  0  0  0  0  0  0  0  0
  -22.1282  -23.7204   21.9106 C   0  0  0  0  0  0  0  0  0  0  0  0
  -23.1035  -30.4526   21.7592 C   0  0  0  0  0  0  0  0  0  1  0  0
  -30.9752  -26.4478   21.6709 C   0  0  1  0  0  0  0  0  0  0  0  0
  -33.3617  -29.3311   21.0703 C   0  0  2  0  0  0  0  0  0  0  0  0
  -31.3939  -25.2408   22.5571 C   0  0  0  0  0  0  0  0  0  0  0  0
  -18.6886  -26.5093   20.9774 N   0  0  0  0  0  0  0  0  0  0  0  0
  -27.8670  -15.3590   21.4647 N   0  0  0  0  0  0  0  0  0  0  0  0
  -28.4397  -16.3269   20.7289 N   0  0  0  0  0  0  0  0  0  0  0  0
  -28.9871  -26.4676   20.1975 N   0  0  0  0  0  0  0  0  0  0  0  0
  -28.6802  -19.1319   23.3140 N   0  0  0  0  0  0  0  0  0  0  0  0
  -29.0141  -16.9225   18.5095 N   0  0  0  0  0  0  0  0  0  0  0  0
  -27.0682  -12.8751   18.0317 N   0  0  0  0  0  0  0  0  0  0  0  0
  -27.1944  -23.7548   18.7287 N   0  0  0  0  0  0  0  0  0  0  0  0
  -22.2596  -21.3784   23.7605 N   0  0  0  0  0  0  0  0  0  0  0  0
  -32.0826  -27.3118   21.2763 N   0  0  0  0  0  0  0  0  0  0  0  0
  -26.6746  -20.3703   23.1204 N   0  0  0  0  0  0  0  0  0  0  0  0
  -22.6342  -29.7128   24.0466 N   0  0  0  0  0  0  0  0  0  0  0  0
  -33.0683  -30.7367   20.6712 N   0  3  0  0  0  0  0  0  0  0  0  0
  -28.0824  -14.5978   16.9081 O   0  0  0  0  0  0  0  0  0  0  0  0
  -26.9873  -24.8332   20.7822 O   0  0  0  0  0  0  0  0  0  0  0  0
  -30.9175  -25.3092   19.5908 O   0  0  0  0  0  0  0  0  0  0  0  0
  -23.0791  -29.3211   26.3519 O   0  0  0  0  0  0  0  0  0  0  0  0
  -22.9617  -19.3436   22.8866 O   0  0  0  0  0  0  0  0  0  0  0  0
  -31.2294  -29.2583   22.2039 O   0  0  0  0  0  0  0  0  0  0  0  0
  -28.5196  -21.3037   24.1112 O   0  0  0  0  0  0  0  0  0  0  0  0
  -24.9853   -9.7188   22.1224 O   0  0  0  0  0  0  0  0  0  0  0  0
  -24.5090  -30.3228   21.9688 O   0  0  0  0  0  0  0  0  0  1  0  0
  -21.1567  -24.4846   22.6210 O   0  0  0  0  0  0  0  0  0  0  0  0
  -20.6430   -8.0370   19.1694 F   0  0  0  0  0  0  0  0  0  0  0  0
  -24.0532  -27.4469   24.9179 F   0  0  0  0  0  0  0  0  0  0  0  0
  -25.2366   -9.1492   19.4289 F   0  0  0  0  0  0  0  0  0  0  0  0
  1 18  1  0  0  0  0
  1 71  3  0  0  0  0
  2  3  1  0  0  0  0
  2  6  2  0  0  0  0
  3  7  2  0  0  0  0
  4  9  2  0  0  0  0
  4 19  1  0  0  0  0
  5 10  1  0  0  0  0
  5 19  2  0  0  0  0
  6 21  1  0  0  0  0
  7 23  1  0  0  0  0
  8 11  2  0  0  0  0
  8 22  1  0  0  0  0
  9 26  1  0  0  0  0
 10 26  2  0  0  0  0
 11 27  1  0  0  0  0
 12 13  2  0  0  0  0
 12 28  1  0  0  0  0
 13 30  1  0  0  0  0
 14 18  2  0  0  0  0
 14 25  1  0  0  0  0
 15 24  1  0  0  0  0
 15 27  2  0  0  0  0
 16 29  2  0  0  0  0
 16 31  1  0  0  0  0
 17 30  2  0  0  0  0
 17 32  1  0  0  0  0
 18 29  1  0  0  0  0
 19 33  1  0  0  0  0
 20 33  1  0  0  0  0
 20 34  2  0  0  0  0
 20 35  1  0  0  0  0
 21 23  2  0  0  0  0
 21 42  1  0  0  0  0
 22 24  2  0  0  0  0
 22 43  1  0  0  0  0
 23 51  1  0  0  0  0
 24 44  1  0  0  0  0
 25 31  2  0  0  0  0
 25 82  1  0  0  0  0
 26 91  1  0  0  0  0
 27 92  1  0  0  0  0
 28 32  2  0  0  0  0
 28 91  1  0  0  0  0
 29 93  1  0  0  0  0
 30 94  1  0  0  0  0
 31 95  1  0  0  0  0
 32 96  1  0  0  0  0
 33 72  2  0  0  0  0
 34 73  1  0  0  0  0
 34 76  1  0  0  0  0
 35 77  1  0  0  0  0
 35 84  2  0  0  0  0
 36 52  1  0  0  0  0
 36 78  1  0  0  0  0
 36 85  2  0  0  0  0
 37 68  1  0  0  0  0
 37 74  1  0  0  0  0
 37 86  2  0  0  0  0
 38 54  1  0  0  0  0
 38 82  1  0  0  0  0
 38 87  2  0  0  0  0
 39 60  1  0  0  0  0
 39 79  1  0  0  0  0
 39 88  2  0  0  0  0
 40 69  1  0  0  0  0
 40 80  1  0  0  0  0
 40 89  2  0  0  0  0
 41 75  1  0  0  0  0
 41 81  1  0  0  0  0
 41 90  2  0  0  0  0
 42 45  1  0  0  0  0
 43 52  1  0  0  0  0
 44 74  1  0  0  0  0
 45 47  1  0  0  0  0
 46 48  1  0  0  0  0
 46 49  1  0  0  0  0
 47 51  1  0  0  0  0
 48 53  1  0  0  0  0
 49 75  1  0  0  0  0
 50 53  1  0  0  0  0
 50 75  1  0  0  0  0
 51 78  1  0  0  0  0
 52 74  1  0  0  0  0
 53 73  1  0  0  0  0
 55 69  1  0  0  0  0
 56 70  1  0  0  0  0
 57 70  1  0  0  0  0
 58 70  1  0  0  0  0
 59 83  1  0  0  0  0
 60 61  1  0  0  0  0
 61 63  1  0  0  0  0
 62 64  1  0  0  0  0
 62 66  1  0  0  0  0
 63 81  1  0  0  0  0
 64 79  1  0  0  0  0
 65 67  1  0  0  0  0
 65 82  1  0  0  0  0
 66 93  1  0  0  0  0
 67 92  1  0  0  0  0
 68 70  1  0  0  0  0
 68 80  1  0  0  0  0
 69 83  1  0  0  0  0
 72 73  1  0  0  0  0
M  CHG  1  83   1
M  ISO  4  41 100  67 101  81 100  92 101
M  END
> <Batch ID>
0006

> <Smiles>
CNC(C)C(=O)NC(C(=O)N1Cc2cc([101O:1][101CH2:1]CN(C(C)=O)c3cc(C#N)c(OCCCNC(=O)CCC[100NH:0][100C:0](=O)N4CCCC(n5nc(-c6ccc(Oc7ccc(F)cc7F)cc6)c(C(N)=O)c5N)C4)cc3F)ccc2CC1C(=O)NC1CCCc2ccccc21)C(C)(C)C

> <Shape>
0.231

> <Color>
0.045

> <Negative vol penalty>
0.000

$$$$

  -OEChem-04052315303D

 84 92  0     1  0  0  0  0  0999 V2000
  -28.9525  -32.0248   26.4992 C   0  0  0  0  0  0  0  0  0  0  0  0
  -28.9046  -30.9657   25.5984 C   0  0  0  0  0  0  0  0  0  0  0  0
  -24.1218  -11.5536   23.8916 C   0  0  0  0  0  0  0  0  0  0  0  0
  -23.5906  -13.9068   23.7598 C   0  0  0  0  0  0  0  0  0  0  0  0
  -27.7750  -32.5083   27.0681 C   0  0  0  0  0  0  0  0  0  0  0  0
  -27.6792  -30.3888   25.2667 C   0  0  0  0  0  0  0  0  0  0  0  0
  -27.1931  -29.5869   20.2902 C   0  0  0  0  0  0  0  0  0  0  0  0
  -30.9333  -18.6553   20.1099 C   0  0  0  0  0  0  0  0  0  0  0  0
  -23.5615  -11.4986   25.1677 C   0  0  0  0  0  0  0  0  0  0  0  0
  -23.0302  -13.8518   25.0360 C   0  0  0  0  0  0  0  0  0  0  0  0
  -27.8507  -28.4794   19.7565 C   0  0  0  0  0  0  0  0  0  0  0  0
  -31.2497  -19.9944   20.3385 C   0  0  0  0  0  0  0  0  0  0  0  0
  -20.4690  -11.3365   26.5255 C   0  0  0  0  0  0  0  0  0  0  0  0
  -19.6226  -10.2667   26.8162 C   0  0  0  0  0  0  0  0  0  0  0  0
  -25.7790  -27.2440   19.7831 C   0  0  0  0  0  0  0  0  0  0  0  0
  -28.5813  -19.2072   20.1322 C   0  0  0  0  0  0  0  0  0  0  0  0
  -21.0972   -9.5861   28.6049 C   0  0  0  0  0  0  0  0  0  0  0  0
  -24.1365  -12.7578   23.1876 C   0  0  0  0  0  0  0  0  0  0  0  0
  -24.0601  -12.5989   20.6427 C   0  0  0  0  0  0  0  0  0  0  0  0
  -26.5336  -31.9434   26.7358 C   0  0  0  0  0  0  0  0  0  0  0  0
  -25.8234  -29.5275   20.5850 C   0  0  0  0  0  0  0  0  0  0  0  0
  -26.4841  -30.8644   25.8327 C   0  0  0  0  0  0  0  0  0  0  0  0
  -25.1058  -28.3529   20.3181 C   0  0  0  0  0  0  0  0  0  0  0  0
  -29.5990  -18.2617   20.0067 C   0  0  0  0  0  0  0  0  0  0  0  0
  -23.0156  -12.6476   25.7399 C   0  0  0  0  0  0  0  0  0  0  0  0
  -27.1443  -27.3068   19.5056 C   0  0  0  0  0  0  0  0  0  0  0  0
  -30.2319  -20.9399   20.4639 C   0  0  0  0  0  0  0  0  0  0  0  0
  -21.6296  -11.5311   27.2744 C   0  0  0  0  0  0  0  0  0  0  0  0
  -28.8977  -20.5464   20.3608 C   0  0  0  0  0  0  0  0  0  0  0  0
  -19.9366   -9.3915   27.8559 C   0  0  0  0  0  0  0  0  0  0  0  0
  -21.9437  -10.6559   28.3141 C   0  0  0  0  0  0  0  0  0  0  0  0
  -24.7157  -12.8154   21.8696 C   0  0  0  0  0  0  0  0  0  0  0  0
  -25.0400  -12.7679   19.6953 C   0  0  0  0  0  0  0  0  0  0  0  0
  -22.6880  -12.2742   20.3827 C   0  0  0  0  0  0  0  0  0  0  0  0
  -24.0848  -29.8003   23.2320 C   0  0  0  0  0  0  0  0  0  0  0  0
  -21.6015  -29.6391   21.1512 C   0  0  0  0  0  0  0  0  0  0  0  0
  -20.4350  -28.6379   18.1043 C   0  0  0  0  0  0  0  0  0  0  0  0
  -30.1667  -15.8368   19.6273 C   0  0  0  0  0  0  0  0  0  0  0  0
  -25.2924  -32.4691   27.4125 C   0  0  0  0  0  0  0  0  0  0  0  0
  -25.1231  -30.7396   21.1354 C   0  0  0  0  0  0  0  0  0  0  0  0
  -23.6298  -28.2444   20.5978 C   0  0  0  0  0  0  0  0  0  0  0  0
  -23.9976  -32.0478   26.7223 C   0  0  0  0  0  0  0  0  0  0  0  0
  -29.7705  -12.3405   19.0830 C   0  0  0  0  0  0  0  0  0  0  0  0
  -24.0273  -30.5583   26.3949 C   0  0  0  0  0  0  0  0  0  0  0  0
  -28.3672  -12.0470   19.6186 C   0  0  0  0  0  0  0  0  0  0  0  0
  -30.4909  -13.3913   19.9260 C   0  0  0  0  0  0  0  0  0  0  0  0
  -28.3440  -14.3476   20.6644 C   0  0  0  0  0  0  0  0  0  0  0  0
  -25.1716  -30.2285   25.4288 C   0  0  1  0  0  0  0  0  0  0  0  0
  -23.8341  -30.3995   21.8771 C   0  0  1  0  0  0  0  0  0  0  0  0
  -27.5545  -13.3426   19.8098 C   0  0  2  0  0  0  0  0  0  0  0  0
  -18.3531  -28.6118   16.7035 C   0  0  0  0  0  0  0  0  0  0  0  0
  -20.4940  -27.3549   22.8441 C   0  0  0  0  0  0  0  0  0  0  0  0
  -18.9904  -26.7601   20.9328 C   0  0  0  0  0  0  0  0  0  0  0  0
  -18.7765  -28.9852   22.0399 C   0  0  0  0  0  0  0  0  0  0  0  0
  -21.7014  -30.2695   15.9846 C   0  0  0  0  0  0  0  0  0  0  0  0
  -27.3817  -21.6884   21.7937 C   0  0  0  0  0  0  0  0  0  0  0  0
  -29.5321  -24.5895   19.3050 C   0  0  0  0  0  0  0  0  0  0  0  0
  -30.9973  -24.3732   19.6674 C   0  0  0  0  0  0  0  0  0  0  0  0
  -29.1646  -26.0675   19.3099 C   0  0  0  0  0  0  0  0  0  1  0  0
  -31.3547  -22.8941   19.7047 C   0  0  0  0  0  0  0  0  0  0  0  0
  -20.7733  -28.5243   20.5593 C   0  0  1  0  0  0  0  0  0  0  0  0
  -19.6279  -29.3672   17.0454 C   0  0  2  0  0  0  0  0  0  0  0  0
  -19.7867  -27.9072   21.5905 C   0  0  0  0  0  0  0  0  0  0  0  0
  -26.0119  -13.1000   21.7184 N   0  0  0  0  0  0  0  0  0  0  0  0
  -26.1787  -13.0635   20.3854 N   0  0  0  0  0  0  0  0  0  0  0  0
  -22.9913  -29.4545   21.1416 N   0  0  0  0  0  0  0  0  0  0  0  0
  -29.6632  -14.5919   20.0605 N   0  0  0  0  0  0  0  0  0  0  0  0
  -25.0302  -12.6909   18.3475 N   0  0  0  0  0  0  0  0  0  0  0  0
  -21.8159  -12.1375   21.4714 N   0  0  0  0  0  0  0  0  0  0  0  0
  -29.2779  -16.9012   19.7752 N   0  0  0  0  0  0  0  0  0  0  0  0
  -24.8184  -30.6097   24.0781 N   0  0  0  0  0  0  0  0  0  0  0  0
  -20.1289  -29.0796   19.3741 N   0  0  0  0  0  0  0  0  0  0  0  0
  -20.4301  -29.5236   15.7992 N   0  3  0  0  0  0  0  0  0  0  0  0
  -22.2520  -12.0939   19.2205 O   0  0  0  0  0  0  0  0  0  0  0  0
  -23.6439  -28.6866   23.4911 O   0  0  0  0  0  0  0  0  0  0  0  0
  -21.0365  -30.6401   21.5989 O   0  0  0  0  0  0  0  0  0  0  0  0
  -21.2524  -27.7612   17.8324 O   0  0  0  0  0  0  0  0  0  0  0  0
  -31.2924  -15.9456   19.1345 O   0  0  0  0  0  0  0  0  0  0  0  0
  -22.4685  -12.5942   26.9851 O   0  0  0  0  0  0  0  0  0  0  0  0
  -27.8948  -21.4602   20.4827 O   0  0  0  0  0  0  0  0  0  0  0  0
  -27.7838  -26.2241   18.9853 O   0  0  0  0  0  0  0  0  0  1  0  0
  -30.5556  -22.2527   20.6892 O   0  0  0  0  0  0  0  0  0  0  0  0
  -19.1229   -8.3650   28.1359 F   0  0  0  0  0  0  0  0  0  0  0  0
  -23.0566  -10.8384   29.0379 F   0  0  0  0  0  0  0  0  0  0  0  0
  1  2  1  0  0  0  0
  1  5  2  0  0  0  0
  2  6  2  0  0  0  0
  3  9  2  0  0  0  0
  3 18  1  0  0  0  0
  4 10  1  0  0  0  0
  4 18  2  0  0  0  0
  5 20  1  0  0  0  0
  6 22  1  0  0  0  0
  7 11  2  0  0  0  0
  7 21  1  0  0  0  0
  8 12  2  0  0  0  0
  8 24  1  0  0  0  0
  9 25  1  0  0  0  0
 10 25  2  0  0  0  0
 11 26  1  0  0  0  0
 12 27  1  0  0  0  0
 13 14  2  0  0  0  0
 13 28  1  0  0  0  0
 14 30  1  0  0  0  0
 15 23  1  0  0  0  0
 15 26  2  0  0  0  0
 16 24  2  0  0  0  0
 16 29  1  0  0  0  0
 17 30  2  0  0  0  0
 17 31  1  0  0  0  0
 18 32  1  0  0  0  0
 19 32  1  0  0  0  0
 19 33  2  0  0  0  0
 19 34  1  0  0  0  0
 20 22  2  0  0  0  0
 20 39  1  0  0  0  0
 21 23  2  0  0  0  0
 21 40  1  0  0  0  0
 22 48  1  0  0  0  0
 23 41  1  0  0  0  0
 24 70  1  0  0  0  0
 25 79  1  0  0  0  0
 26 81  1  0  0  0  0
 27 29  2  0  0  0  0
 27 82  1  0  0  0  0
 28 31  2  0  0  0  0
 28 79  1  0  0  0  0
 29 80  1  0  0  0  0
 30 83  1  0  0  0  0
 31 84  1  0  0  0  0
 32 64  2  0  0  0  0
 33 65  1  0  0  0  0
 33 68  1  0  0  0  0
 34 69  1  0  0  0  0
 34 74  2  0  0  0  0
 35 49  1  0  0  0  0
 35 71  1  0  0  0  0
 35 75  2  0  0  0  0
 36 61  1  0  0  0  0
 36 66  1  0  0  0  0
 36 76  2  0  0  0  0
 37 62  1  0  0  0  0
 37 72  1  0  0  0  0
 37 77  2  0  0  0  0
 38 67  1  0  0  0  0
 38 70  1  0  0  0  0
 38 78  2  0  0  0  0
 39 42  1  0  0  0  0
 40 49  1  0  0  0  0
 41 66  1  0  0  0  0
 42 44  1  0  0  0  0
 43 45  1  0  0  0  0
 43 46  1  0  0  0  0
 44 48  1  0  0  0  0
 45 50  1  0  0  0  0
 46 67  1  0  0  0  0
 47 50  1  0  0  0  0
 47 67  1  0  0  0  0
 48 71  1  0  0  0  0
 49 66  1  0  0  0  0
 50 65  1  0  0  0  0
 51 62  1  0  0  0  0
 52 63  1  0  0  0  0
 53 63  1  0  0  0  0
 54 63  1  0  0  0  0
 55 73  1  0  0  0  0
 56 80  1  0  0  0  0
 57 58  1  0  0  0  0
 57 59  1  0  0  0  0
 58 60  1  0  0  0  0
 59 81  1  0  0  0  0
 60 82  1  0  0  0  0
 61 63  1  0  0  0  0
 61 72  1  0  0  0  0
 62 73  1  0  0  0  0
 64 65  1  0  0  0  0
M  CHG  1  73   1
M  ISO  4  38 100  59 101  70 100  81 101
M  END
> <Batch ID>
0006

> <Smiles>
CNC(C)C(=O)NC(C(=O)N1Cc2cc([101O:1][101CH2:1]CCCOc3ccc([100NH:0][100C:0](=O)N4CCCC(n5nc(-c6ccc(Oc7ccc(F)cc7F)cc6)c(C(N)=O)c5N)C4)cc3OC)ccc2CC1C(=O)NC1CCCc2ccccc21)C(C)(C)C

> <Shape>
0.297

> <Color>
0.091

> <Negative vol penalty>
0.000

$$$$

  -OEChem-04052315303D

 89 97  0     1  0  0  0  0  0999 V2000
  -31.6665  -24.1905   16.5177 C   0  0  0  0  0  0  0  0  0  0  0  0
  -30.3026  -24.4366   16.3969 C   0  0  0  0  0  0  0  0  0  0  0  0
  -17.2024  -22.2022   15.8387 C   0  0  0  0  0  0  0  0  0  0  0  0
  -26.8673  -15.3602   21.7173 C   0  0  0  0  0  0  0  0  0  0  0  0
  -26.3378  -15.3519   19.3601 C   0  0  0  0  0  0  0  0  0  0  0  0
  -18.3333  -21.7862   15.1362 C   0  0  0  0  0  0  0  0  0  0  0  0
  -32.2639  -24.1857   17.7774 C   0  0  0  0  0  0  0  0  0  0  0  0
  -29.5351  -24.6769   17.5360 C   0  0  0  0  0  0  0  0  0  0  0  0
  -24.7344  -28.4496   18.0121 C   0  0  0  0  0  0  0  0  0  0  0  0
  -17.3180  -23.1704   16.8363 C   0  0  0  0  0  0  0  0  0  0  0  0
  -26.3948  -14.0526   21.8281 C   0  0  0  0  0  0  0  0  0  0  0  0
  -25.8652  -14.0442   19.4709 C   0  0  0  0  0  0  0  0  0  0  0  0
  -23.3587  -28.2266   17.9732 C   0  0  0  0  0  0  0  0  0  0  0  0
  -24.1871  -10.8312   19.2057 C   0  0  0  0  0  0  0  0  0  0  0  0
  -22.9780  -10.5237   18.5819 C   0  0  0  0  0  0  0  0  0  0  0  0
  -19.6955  -23.3063   16.4288 C   0  0  0  0  0  0  0  0  0  0  0  0
  -23.3086  -28.1527   20.3838 C   0  0  0  0  0  0  0  0  0  0  0  0
  -21.8577  -12.1813   19.9363 C   0  0  0  0  0  0  0  0  0  0  0  0
  -26.8388  -16.0099   20.4833 C   0  0  0  0  0  0  0  0  0  0  0  0
  -19.5799  -22.3382   15.4313 C   0  0  0  0  0  0  0  0  0  0  0  0
  -28.6407  -17.7680   20.0714 C   0  0  0  0  0  0  0  0  0  0  0  0
  -31.5052  -24.4356   18.9317 C   0  0  0  0  0  0  0  0  0  0  0  0
  -25.4105  -28.5151   19.2389 C   0  0  0  0  0  0  0  0  0  0  0  0
  -30.1227  -24.6741   18.8125 C   0  0  0  0  0  0  0  0  0  0  0  0
  -24.6925  -28.3792   20.4356 C   0  0  0  0  0  0  0  0  0  0  0  0
  -18.5646  -23.7224   17.1313 C   0  0  0  0  0  0  0  0  0  0  0  0
  -25.8938  -13.3945   20.7049 C   0  0  0  0  0  0  0  0  0  0  0  0
  -22.6461  -28.0753   19.1590 C   0  0  0  0  0  0  0  0  0  0  0  0
  -24.2315  -11.8137   20.1948 C   0  0  0  0  0  0  0  0  0  0  0  0
  -21.8133  -11.1988   18.9472 C   0  0  0  0  0  0  0  0  0  0  0  0
  -23.0668  -12.4888   20.5601 C   0  0  0  0  0  0  0  0  0  0  0  0
  -27.3262  -17.3610   20.3683 C   0  0  0  0  0  0  0  0  0  0  0  0
  -28.5850  -19.1404   20.0782 C   0  0  0  0  0  0  0  0  0  0  0  0
  -20.7581  -21.9035   14.6981 C   0  0  0  0  0  0  0  0  0  0  0  0
  -29.8078  -16.9764   19.8125 C   0  0  0  0  0  0  0  0  0  0  0  0
  -27.7228  -26.8260   20.6188 C   0  0  0  0  0  0  0  0  0  0  0  0
  -27.5332  -29.1442   22.8798 C   0  0  0  0  0  0  0  0  0  0  0  0
  -19.8378  -25.3562   18.5643 C   0  0  0  0  0  0  0  0  0  0  0  0
  -25.6673  -31.5655   24.3973 C   0  0  0  0  0  0  0  0  0  0  0  0
  -25.0292  -23.4762   18.6390 C   0  0  0  0  0  0  0  0  0  0  0  0
  -32.1864  -24.3732   20.2758 C   0  0  0  0  0  0  0  0  0  0  0  0
  -26.8903  -28.7829   19.2646 C   0  0  0  0  0  0  0  0  0  0  0  0
  -25.3680  -28.4614   21.7793 C   0  0  0  0  0  0  0  0  0  0  0  0
  -31.3728  -25.0075   21.4010 C   0  0  0  0  0  0  0  0  0  0  0  0
  -25.5179  -22.4933   22.0260 C   0  0  0  0  0  0  0  0  0  0  0  0
  -29.9221  -24.5402   21.3398 C   0  0  0  0  0  0  0  0  0  0  0  0
  -26.1562  -21.1074   21.9162 C   0  0  0  0  0  0  0  0  0  0  0  0
  -24.4763  -22.7230   20.9332 C   0  0  0  0  0  0  0  0  0  0  0  0
  -25.5974  -21.1061   19.4491 C   0  0  0  0  0  0  0  0  0  0  0  0
  -29.2612  -24.9636   20.0225 C   0  0  1  0  0  0  0  0  0  0  0  0
  -27.5593  -28.3182   20.5546 C   0  0  1  0  0  0  0  0  0  0  0  0
  -26.6947  -20.8490   20.4961 C   0  0  2  0  0  0  0  0  0  0  0  0
  -25.7702  -33.2671   26.2389 C   0  0  0  0  0  0  0  0  0  0  0  0
  -27.1816  -26.9263   24.9455 C   0  0  0  0  0  0  0  0  0  0  0  0
  -26.3543  -28.6542   26.5574 C   0  0  0  0  0  0  0  0  0  0  0  0
  -28.6798  -28.7948   25.6657 C   0  0  0  0  0  0  0  0  0  0  0  0
  -25.2436  -33.8049   22.5093 C   0  0  0  0  0  0  0  0  0  0  0  0
  -19.5176  -26.3426   19.6816 C   0  0  0  0  0  0  0  0  0  0  0  0
  -24.2701  -22.6267   14.7664 C   0  0  0  0  0  0  0  0  0  0  0  0
  -24.4324  -24.0069   15.4147 C   0  0  0  0  0  0  0  0  0  0  0  0
  -23.0366  -22.5443   13.8717 C   0  0  0  0  0  0  0  0  0  0  0  0
  -25.6593  -24.0880   16.3178 C   0  0  0  0  0  0  0  0  0  0  0  0
  -20.7420  -27.0898   20.1882 C   0  0  0  0  0  0  0  0  0  1  0  0
  -26.7344  -29.3401   24.1458 C   0  0  1  0  0  0  0  0  0  0  0  0
  -25.9858  -33.0057   24.7563 C   0  0  2  0  0  0  0  0  0  0  0  0
  -27.2248  -28.4253   25.3034 C   0  0  0  0  0  0  0  0  0  0  0  0
  -26.4961  -18.3913   20.5507 N   0  0  0  0  0  0  0  0  0  0  0  0
  -27.2910  -19.4594   20.3679 N   0  0  0  0  0  0  0  0  0  0  0  0
  -26.8173  -28.7184   21.7519 N   0  0  0  0  0  0  0  0  0  0  0  0
  -25.0510  -22.4626   19.6112 N   0  0  0  0  0  0  0  0  0  0  0  0
  -29.5171  -20.0932   19.8647 N   0  0  0  0  0  0  0  0  0  0  0  0
  -29.6888  -15.5803   19.8449 N   0  0  0  0  0  0  0  0  0  0  0  0
  -18.6816  -24.7048   18.1432 N   0  0  0  0  0  0  0  0  0  0  0  0
  -21.8114  -22.8187   14.5875 N   0  0  0  0  0  0  0  0  0  0  0  0
  -28.9017  -26.3648   20.0649 N   0  0  0  0  0  0  0  0  0  0  0  0
  -26.7900  -30.7665   24.4469 N   0  0  0  0  0  0  0  0  0  0  0  0
  -25.6004  -23.1485   17.4154 N   0  0  0  0  0  0  0  0  0  0  0  0
  -25.1159  -33.9367   23.9835 N   0  3  0  0  0  0  0  0  0  0  0  0
  -20.7991  -20.7723   14.1822 O   0  0  0  0  0  0  0  0  0  0  0  0
  -30.9267  -17.4919   19.5760 O   0  0  0  0  0  0  0  0  0  0  0  0
  -26.8449  -26.1436   21.1341 O   0  0  0  0  0  0  0  0  0  0  0  0
  -28.7462  -29.3679   22.8894 O   0  0  0  0  0  0  0  0  0  0  0  0
  -20.9770  -25.2009   18.1372 O   0  0  0  0  0  0  0  0  0  0  0  0
  -24.5351  -31.1864   24.1059 O   0  0  0  0  0  0  0  0  0  0  0  0
  -24.5419  -24.5924   18.8478 O   0  0  0  0  0  0  0  0  0  0  0  0
  -25.4328  -12.1184   20.8126 O   0  0  0  0  0  0  0  0  0  0  0  0
  -21.3034  -27.8569   19.1239 O   0  0  0  0  0  0  0  0  0  1  0  0
  -20.6525  -10.9045   18.3470 F   0  0  0  0  0  0  0  0  0  0  0  0
  -23.1035  -13.4345   21.5088 F   0  0  0  0  0  0  0  0  0  0  0  0
  1  2  1  0  0  0  0
  1  7  2  0  0  0  0
  2  8  2  0  0  0  0
  3  6  1  0  0  0  0
  3 10  2  0  0  0  0
  4 11  2  0  0  0  0
  4 19  1  0  0  0  0
  5 12  1  0  0  0  0
  5 19  2  0  0  0  0
  6 20  2  0  0  0  0
  7 22  1  0  0  0  0
  8 24  1  0  0  0  0
  9 13  2  0  0  0  0
  9 23  1  0  0  0  0
 10 26  1  0  0  0  0
 11 27  1  0  0  0  0
 12 27  2  0  0  0  0
 13 28  1  0  0  0  0
 14 15  2  0  0  0  0
 14 29  1  0  0  0  0
 15 30  1  0  0  0  0
 16 20  1  0  0  0  0
 16 26  2  0  0  0  0
 17 25  1  0  0  0  0
 17 28  2  0  0  0  0
 18 30  2  0  0  0  0
 18 31  1  0  0  0  0
 19 32  1  0  0  0  0
 20 34  1  0  0  0  0
 21 32  1  0  0  0  0
 21 33  2  0  0  0  0
 21 35  1  0  0  0  0
 22 24  2  0  0  0  0
 22 41  1  0  0  0  0
 23 25  2  0  0  0  0
 23 42  1  0  0  0  0
 24 50  1  0  0  0  0
 25 43  1  0  0  0  0
 26 73  1  0  0  0  0
 27 86  1  0  0  0  0
 28 87  1  0  0  0  0
 29 31  2  0  0  0  0
 29 86  1  0  0  0  0
 30 88  1  0  0  0  0
 31 89  1  0  0  0  0
 32 67  2  0  0  0  0
 33 68  1  0  0  0  0
 33 71  1  0  0  0  0
 34 74  1  0  0  0  0
 34 79  2  0  0  0  0
 35 72  1  0  0  0  0
 35 80  2  0  0  0  0
 36 51  1  0  0  0  0
 36 75  1  0  0  0  0
 36 81  2  0  0  0  0
 37 64  1  0  0  0  0
 37 69  1  0  0  0  0
 37 82  2  0  0  0  0
 38 58  1  0  0  0  0
 38 73  1  0  0  0  0
 38 83  2  0  0  0  0
 39 65  1  0  0  0  0
 39 76  1  0  0  0  0
 39 84  2  0  0  0  0
 40 70  1  0  0  0  0
 40 77  1  0  0  0  0
 40 85  2  0  0  0  0
 41 44  1  0  0  0  0
 42 51  1  0  0  0  0
 43 69  1  0  0  0  0
 44 46  1  0  0  0  0
 45 47  1  0  0  0  0
 45 48  1  0  0  0  0
 46 50  1  0  0  0  0
 47 52  1  0  0  0  0
 48 70  1  0  0  0  0
 49 52  1  0  0  0  0
 49 70  1  0  0  0  0
 50 75  1  0  0  0  0
 51 69  1  0  0  0  0
 52 68  1  0  0  0  0
 53 65  1  0  0  0  0
 54 66  1  0  0  0  0
 55 66  1  0  0  0  0
 56 66  1  0  0  0  0
 57 78  1  0  0  0  0
 58 63  1  0  0  0  0
 59 60  1  0  0  0  0
 59 61  1  0  0  0  0
 60 62  1  0  0  0  0
 61 74  1  0  0  0  0
 62 77  1  0  0  0  0
 63 87  1  0  0  0  0
 64 66  1  0  0  0  0
 64 76  1  0  0  0  0
 65 78  1  0  0  0  0
 67 68  1  0  0  0  0
M  CHG  1  78   1
M  ISO  4  40 100  63 101  77 100  87 101
M  END
> <Batch ID>
0006

> <Smiles>
CNC(C)C(=O)NC(C(=O)N1Cc2cc([101O:1][101CH2:1]CC(=O)Nc3cccc(C(=O)NCCCC[100NH:0][100C:0](=O)N4CCCC(n5nc(-c6ccc(Oc7ccc(F)cc7F)cc6)c(C(N)=O)c5N)C4)c3)ccc2CC1C(=O)NC1CCCc2ccccc21)C(C)(C)C

> <Shape>
0.221

> <Color>
0.070

> <Negative vol penalty>
0.000

$$$$

  -OEChem-04052315303D

 95102  0     1  0  0  0  0  0999 V2000
  -19.0801  -24.4131   20.2132 C   0  0  0  0  0  0  0  0  0  0  0  0
  -20.0760  -25.2123   19.6609 C   0  0  0  0  0  0  0  0  0  0  0  0
  -23.3840  -16.3925   22.3823 C   0  0  0  0  0  0  0  0  0  0  0  0
  -22.5032  -16.0916   20.1528 C   0  0  0  0  0  0  0  0  0  0  0  0
  -18.7250  -24.5695   21.5523 C   0  0  0  0  0  0  0  0  0  0  0  0
  -20.7167  -26.1691   20.4473 C   0  0  0  0  0  0  0  0  0  0  0  0
  -25.7397  -26.1662   19.8036 C   0  0  0  0  0  0  0  0  0  0  0  0
  -22.4646  -17.4170   22.6073 C   0  0  0  0  0  0  0  0  0  0  0  0
  -21.5837  -17.1161   20.3778 C   0  0  0  0  0  0  0  0  0  0  0  0
  -26.2351  -26.7868   18.6577 C   0  0  0  0  0  0  0  0  0  0  0  0
  -22.1344  -20.6856   21.8127 C   0  0  0  0  0  0  0  0  0  0  0  0
  -22.6010  -21.8531   22.4167 C   0  0  0  0  0  0  0  0  0  0  0  0
  -26.7744  -28.7452   19.9588 C   0  0  0  0  0  0  0  0  0  0  0  0
  -21.0565  -21.5244   24.2453 C   0  0  0  0  0  0  0  0  0  0  0  0
  -23.4033  -15.7298   21.1550 C   0  0  0  0  0  0  0  0  0  0  0  0
  -24.1760  -13.2987   21.1769 C   0  0  0  0  0  0  0  0  0  0  0  0
  -19.3683  -25.5222   22.3581 C   0  0  0  0  0  0  0  0  0  0  0  0
  -25.7479  -26.8357   21.0357 C   0  0  0  0  0  0  0  0  0  0  0  0
  -20.3689  -26.3393   21.7982 C   0  0  0  0  0  0  0  0  0  0  0  0
  -26.2809  -28.1300   21.1193 C   0  0  0  0  0  0  0  0  0  0  0  0
  -21.5645  -17.7788   21.6051 C   0  0  0  0  0  0  0  0  0  0  0  0
  -26.7499  -28.0776   18.7345 C   0  0  0  0  0  0  0  0  0  0  0  0
  -21.1287  -19.9376   22.4249 C   0  0  0  0  0  0  0  0  0  0  0  0
  -22.0621  -22.2725   23.6330 C   0  0  0  0  0  0  0  0  0  0  0  0
  -20.5898  -20.3569   23.6412 C   0  0  0  0  0  0  0  0  0  0  0  0
  -24.3532  -14.6718   20.9218 C   0  0  0  0  0  0  0  0  0  0  0  0
  -25.3595  -12.7213   20.7863 C   0  0  0  0  0  0  0  0  0  0  0  0
  -23.0429  -12.6070   21.7184 C   0  0  0  0  0  0  0  0  0  0  0  0
  -23.5131  -27.7944   23.0827 C   0  0  0  0  0  0  0  0  0  0  0  0
  -31.3207  -16.0246   22.2397 C   0  0  0  0  0  0  0  0  0  0  0  0
  -26.0756  -28.5734   24.9127 C   0  0  0  0  0  0  0  0  0  0  0  0
  -31.2701  -26.8949   16.6647 C   0  0  0  0  0  0  0  0  0  0  0  0
  -29.3872  -29.3838   25.0661 C   0  0  0  0  0  0  0  0  0  0  0  0
  -30.9080  -14.7648   20.3539 C   0  0  0  0  0  0  0  0  0  0  0  0
  -18.9174  -25.6871   23.7878 C   0  0  0  0  0  0  0  0  0  0  0  0
  -25.2343  -26.1424   22.2677 C   0  0  0  0  0  0  0  0  0  0  0  0
  -26.3312  -28.8842   22.4220 C   0  0  0  0  0  0  0  0  0  0  0  0
  -19.9049  -26.4673   24.6518 C   0  0  0  0  0  0  0  0  0  0  0  0
  -29.0010  -13.3140   17.7368 C   0  0  0  0  0  0  0  0  0  0  0  0
  -20.3719  -27.7248   23.9256 C   0  0  0  0  0  0  0  0  0  0  0  0
  -27.5702  -13.3755   18.2764 C   0  0  0  0  0  0  0  0  0  0  0  0
  -29.8029  -14.5519   18.1307 C   0  0  0  0  0  0  0  0  0  0  0  0
  -28.3857  -14.8974   20.1282 C   0  0  0  0  0  0  0  0  0  0  0  0
  -21.1041  -27.3714   22.6255 C   0  0  1  0  0  0  0  0  0  0  0  0
  -24.8205  -27.1120   23.3704 C   0  0  1  0  0  0  0  0  0  0  0  0
  -27.5553  -13.6468   19.7932 C   0  0  1  0  0  0  0  0  0  0  0  0
  -31.0959  -16.2613   23.7138 C   0  0  0  0  0  0  0  0  0  0  0  0
  -30.5346  -26.3959   20.9940 C   0  0  0  0  0  0  0  0  0  0  0  0
  -31.6108  -29.9063   26.1053 C   0  0  0  0  0  0  0  0  0  0  0  0
  -31.8232  -28.6542   19.4640 C   0  0  0  0  0  0  0  0  0  0  0  0
  -31.0951  -29.8373   16.0717 C   0  0  0  0  0  0  0  0  0  0  0  0
  -24.9011  -31.3802   25.1415 C   0  0  0  0  0  0  0  0  0  0  0  0
  -27.1377  -32.1757   25.9371 C   0  0  0  0  0  0  0  0  0  0  0  0
  -25.8751  -30.4808   27.2621 C   0  0  0  0  0  0  0  0  0  0  0  0
  -30.1416  -26.5238   25.1689 C   0  0  0  0  0  0  0  0  0  0  0  0
  -32.1966  -17.0145   21.5082 C   0  0  0  0  0  0  0  0  0  0  0  0
  -31.9264  -25.7377   17.4095 C   0  0  0  0  0  0  0  0  0  0  0  0
  -30.6271  -26.4380   19.4740 C   0  0  0  0  0  0  0  0  0  0  0  0
  -32.5725  -24.6937   16.4946 C   0  0  0  0  0  0  0  0  0  0  0  0
  -33.1880  -23.4889   17.2175 C   0  0  0  0  0  0  0  0  0  0  0  0
  -32.1640  -22.6428   17.9778 C   0  0  0  0  0  0  0  0  0  0  0  0
  -32.8322  -21.4462   18.6611 C   0  0  0  0  0  0  0  0  0  0  0  0
  -31.8020  -20.5772   19.3880 C   0  0  0  0  0  0  0  0  0  0  0  0
  -28.9065  -28.6066   15.8925 C   0  0  0  0  0  0  0  0  0  0  0  0
  -27.7972  -27.8462   16.6119 C   0  0  0  0  0  0  0  0  0  1  0  0
  -32.4252  -19.3775   20.0878 C   0  0  0  0  0  0  0  0  0  0  0  0
  -26.9415  -29.7995   25.0733 C   0  0  1  0  0  0  0  0  0  0  0  0
  -30.5106  -28.8683   25.9474 C   0  0  2  0  0  0  0  0  0  0  0  0
  -30.6341  -27.8688   18.9207 C   0  0  2  0  0  0  0  0  0  0  0  0
  -30.0436  -29.0310   16.8281 C   0  0  1  0  0  0  0  0  0  0  0  0
  -26.2113  -30.9459   25.8284 C   0  0  0  0  0  0  0  0  0  0  0  0
  -25.5547  -14.9500   20.4090 N   0  0  0  0  0  0  0  0  0  0  0  0
  -30.7360  -14.9974   21.6999 N   0  0  0  0  0  0  0  0  0  0  0  0
  -26.1432  -13.7439   20.3388 N   0  0  0  0  0  0  0  0  0  0  0  0
  -25.8113  -28.1660   23.5974 N   0  0  0  0  0  0  0  0  0  0  0  0
  -29.7388  -14.7641   19.5760 N   0  0  0  0  0  0  0  0  0  0  0  0
  -25.7957  -11.4438   20.7856 N   0  0  0  0  0  0  0  0  0  0  0  0
  -21.9086  -13.3529   22.0667 N   0  0  0  0  0  0  0  0  0  0  0  0
  -22.4518  -26.9266   22.9093 N   0  0  0  0  0  0  0  0  0  0  0  0
  -28.1715  -29.3493   25.7158 N   0  0  0  0  0  0  0  0  0  0  0  0
  -30.6659  -27.8746   17.4603 N   0  0  0  0  0  0  0  0  0  0  0  0
  -31.1076  -27.6365   25.3582 N   0  3  0  0  0  0  0  0  0  0  0  0
  -23.0425  -11.3664   21.9037 O   0  0  0  0  0  0  0  0  0  0  0  0
  -23.4700  -29.0176   23.0240 O   0  0  0  0  0  0  0  0  0  0  0  0
  -25.6553  -27.9940   25.9174 O   0  0  0  0  0  0  0  0  0  0  0  0
  -31.2768  -26.9335   15.4318 O   0  0  0  0  0  0  0  0  0  0  0  0
  -29.5704  -29.7810   23.9175 O   0  0  0  0  0  0  0  0  0  0  0  0
  -32.0253  -14.5898   19.8658 O   0  0  0  0  0  0  0  0  0  0  0  0
  -30.7115  -19.0809   22.0391 O   0  0  0  0  0  0  0  0  0  0  0  0
  -30.3346  -17.8218   19.8840 O   0  0  0  0  0  0  0  0  0  0  0  0
  -20.6670  -18.7783   21.8243 O   0  0  0  0  0  0  0  0  0  0  0  0
  -27.2370  -28.6902   17.6095 O   0  0  0  0  0  0  0  0  0  1  0  0
  -22.5115  -23.3928   24.2137 F   0  0  0  0  0  0  0  0  0  0  0  0
  -19.6243  -19.6418   24.2347 F   0  0  0  0  0  0  0  0  0  0  0  0
  -31.2344  -18.3556   20.8930 S   0  0  0  0  0  0  0  0  0  0  0  0
  1  2  1  0  0  0  0
  1  5  2  0  0  0  0
  2  6  2  0  0  0  0
  3  8  2  0  0  0  0
  3 15  1  0  0  0  0
  4  9  1  0  0  0  0
  4 15  2  0  0  0  0
  5 17  1  0  0  0  0
  6 19  1  0  0  0  0
  7 10  2  0  0  0  0
  7 18  1  0  0  0  0
  8 21  1  0  0  0  0
  9 21  2  0  0  0  0
 10 22  1  0  0  0  0
 11 12  2  0  0  0  0
 11 23  1  0  0  0  0
 12 24  1  0  0  0  0
 13 20  1  0  0  0  0
 13 22  2  0  0  0  0
 14 24  2  0  0  0  0
 14 25  1  0  0  0  0
 15 26  1  0  0  0  0
 16 26  1  0  0  0  0
 16 27  2  0  0  0  0
 16 28  1  0  0  0  0
 17 19  2  0  0  0  0
 17 35  1  0  0  0  0
 18 20  2  0  0  0  0
 18 36  1  0  0  0  0
 19 44  1  0  0  0  0
 20 37  1  0  0  0  0
 21 91  1  0  0  0  0
 22 92  1  0  0  0  0
 23 25  2  0  0  0  0
 23 91  1  0  0  0  0
 24 93  1  0  0  0  0
 25 94  1  0  0  0  0
 26 72  2  0  0  0  0
 27 74  1  0  0  0  0
 27 77  1  0  0  0  0
 28 78  1  0  0  0  0
 28 83  2  0  0  0  0
 29 45  1  0  0  0  0
 29 79  1  0  0  0  0
 29 84  2  0  0  0  0
 30 47  1  0  0  0  0
 30 56  1  0  0  0  0
 30 73  2  0  0  0  0
 31 67  1  0  0  0  0
 31 75  1  0  0  0  0
 31 85  2  0  0  0  0
 32 57  1  0  0  0  0
 32 81  1  0  0  0  0
 32 86  2  0  0  0  0
 33 68  1  0  0  0  0
 33 80  1  0  0  0  0
 33 87  2  0  0  0  0
 34 73  1  0  0  0  0
 34 76  1  0  0  0  0
 34 88  2  0  0  0  0
 35 38  1  0  0  0  0
 36 45  1  0  0  0  0
 37 75  1  0  0  0  0
 38 40  1  0  0  0  0
 39 41  1  0  0  0  0
 39 42  1  0  0  0  0
 40 44  1  0  0  0  0
 41 46  1  0  0  0  0
 42 76  1  0  0  0  0
 43 46  1  0  0  0  0
 43 76  1  0  0  0  0
 44 79  1  0  0  0  0
 45 75  1  0  0  0  0
 46 74  1  0  0  0  0
 48 58  1  0  0  0  0
 49 68  1  0  0  0  0
 50 69  1  0  0  0  0
 51 70  1  0  0  0  0
 52 71  1  0  0  0  0
 53 71  1  0  0  0  0
 54 71  1  0  0  0  0
 55 82  1  0  0  0  0
 56 95  1  0  0  0  0
 57 59  1  0  0  0  0
 58 69  1  0  0  0  0
 59 60  1  0  0  0  0
 60 61  1  0  0  0  0
 61 62  1  0  0  0  0
 62 63  1  0  0  0  0
 63 66  1  0  0  0  0
 64 65  1  0  0  0  0
 64 70  1  0  0  0  0
 65 92  1  0  0  0  0
 66 95  1  0  0  0  0
 67 71  1  0  0  0  0
 67 80  1  0  0  0  0
 68 82  1  0  0  0  0
 69 81  1  0  0  0  0
 70 81  1  0  0  0  0
 72 74  1  0  0  0  0
 89 95  2  0  0  0  0
 90 95  2  0  0  0  0
M  CHG  1  82   1
M  ISO  4  34 100  65 101  73 100  92 101
M  END
> <Batch ID>
0006

> <Smiles>
CCC(C)N(C(=O)CCCCCCCS(=O)(=O)CC(C)=[100N:0][100C:0](=O)N1CCCC(n2nc(-c3ccc(Oc4ccc(F)cc4F)cc3)c(C(N)=O)c2N)C1)C(C)C[101CH2:1][101O:1]c1ccc2c(c1)CN(C(=O)C(NC(=O)C(C)NC)C(C)(C)C)C(C(=O)NC1CCCc3ccccc31)C2

> <Shape>
0.238

> <Color>
0.126

> <Negative vol penalty>
0.000

$$$$

  -OEChem-04052315303D

 82 90  0     1  0  0  0  0  0999 V2000
  -24.1687  -28.9867   23.1664 C   0  0  0  0  0  0  0  0  0  0  0  0
  -24.0120  -27.6115   23.0260 C   0  0  0  0  0  0  0  0  0  0  0  0
  -19.5197  -22.5116   22.1083 C   0  0  0  0  0  0  0  0  0  0  0  0
  -21.3229  -22.3008   23.7025 C   0  0  0  0  0  0  0  0  0  0  0  0
  -24.9374  -29.6972   22.2454 C   0  0  0  0  0  0  0  0  0  0  0  0
  -24.6232  -26.9461   21.9639 C   0  0  0  0  0  0  0  0  0  0  0  0
  -26.9492  -21.2811   22.0179 C   0  0  0  0  0  0  0  0  0  0  0  0
  -19.1404  -23.7179   22.6968 C   0  0  0  0  0  0  0  0  0  0  0  0
  -20.9435  -23.5072   24.2910 C   0  0  0  0  0  0  0  0  0  0  0  0
  -26.4414  -20.0545   21.5922 C   0  0  0  0  0  0  0  0  0  0  0  0
  -17.9185  -27.0330   23.5528 C   0  0  0  0  0  0  0  0  0  0  0  0
  -17.6194  -28.1012   22.7073 C   0  0  0  0  0  0  0  0  0  0  0  0
  -27.5962  -20.3128   19.4901 C   0  0  0  0  0  0  0  0  0  0  0  0
  -23.7105  -12.1415   20.8184 C   0  0  0  0  0  0  0  0  0  0  0  0
  -26.2042  -13.0666   19.9769 C   0  0  0  0  0  0  0  0  0  0  0  0
  -19.8577  -28.0116   21.8022 C   0  0  0  0  0  0  0  0  0  0  0  0
  -20.6110  -21.8030   22.6112 C   0  0  0  0  0  0  0  0  0  0  0  0
  -21.9159  -20.3755   20.9478 C   0  0  0  0  0  0  0  0  0  0  0  0
  -25.5663  -29.0387   21.1770 C   0  0  0  0  0  0  0  0  0  0  0  0
  -27.7770  -22.0391   21.1774 C   0  0  0  0  0  0  0  0  0  0  0  0
  -25.4000  -27.6487   21.0270 C   0  0  0  0  0  0  0  0  0  0  0  0
  -28.1154  -21.5475   19.9085 C   0  0  0  0  0  0  0  0  0  0  0  0
  -24.4755  -11.3793   19.9355 C   0  0  0  0  0  0  0  0  0  0  0  0
  -25.7224  -11.8419   19.5148 C   0  0  0  0  0  0  0  0  0  0  0  0
  -24.1923  -13.3663   21.2804 C   0  0  0  0  0  0  0  0  0  0  0  0
  -19.8522  -24.2158   23.7882 C   0  0  0  0  0  0  0  0  0  0  0  0
  -26.7625  -19.5715   20.3270 C   0  0  0  0  0  0  0  0  0  0  0  0
  -19.1873  -26.4540   23.5231 C   0  0  0  0  0  0  0  0  0  0  0  0
  -25.4391  -13.8288   20.8597 C   0  0  0  0  0  0  0  0  0  0  0  0
  -18.5890  -28.5905   21.8320 C   0  0  0  0  0  0  0  0  0  0  0  0
  -20.1568  -26.9433   22.6478 C   0  0  0  0  0  0  0  0  0  0  0  0
  -21.0030  -20.5565   22.0040 C   0  0  0  0  0  0  0  0  0  0  0  0
  -21.9393  -19.0175   20.7431 C   0  0  0  0  0  0  0  0  0  0  0  0
  -22.6750  -21.3478   20.2170 C   0  0  0  0  0  0  0  0  0  0  0  0
  -27.5825  -24.9149   19.8372 C   0  0  0  0  0  0  0  0  0  0  0  0
  -30.6211  -24.2591   18.9100 C   0  0  0  0  0  0  0  0  0  0  0  0
  -32.9982  -21.9075   18.2274 C   0  0  0  0  0  0  0  0  0  0  0  0
  -22.1451  -13.8022   22.6824 C   0  0  0  0  0  0  0  0  0  0  0  0
  -26.3485  -29.8563   20.1798 C   0  0  0  0  0  0  0  0  0  0  0  0
  -28.3384  -23.3478   21.6618 C   0  0  0  0  0  0  0  0  0  0  0  0
  -29.0164  -22.3133   18.9757 C   0  0  0  0  0  0  0  0  0  0  0  0
  -27.2703  -29.0199   19.2960 C   0  0  0  0  0  0  0  0  0  0  0  0
  -18.9463  -15.3608   22.5576 C   0  0  0  0  0  0  0  0  0  0  0  0
  -26.5313  -27.7984   18.7590 C   0  0  0  0  0  0  0  0  0  0  0  0
  -19.2713  -16.8366   22.3156 C   0  0  0  0  0  0  0  0  0  0  0  0
  -19.9689  -14.6987   23.4794 C   0  0  0  0  0  0  0  0  0  0  0  0
  -21.6945  -16.3305   22.8246 C   0  0  0  0  0  0  0  0  0  0  0  0
  -26.0675  -26.8875   19.9022 C   0  0  1  0  0  0  0  0  0  0  0  0
  -28.7556  -24.2762   20.5254 C   0  0  1  0  0  0  0  0  0  0  0  0
  -20.7286  -17.0237   21.8499 C   0  0  2  0  0  0  0  0  0  0  0  0
  -23.9387  -10.0722   19.4522 C   0  0  0  0  0  0  0  0  0  0  0  0
  -26.5595  -11.0442   18.5695 C   0  0  0  0  0  0  0  0  0  0  0  0
  -35.3744  -21.6750   17.4547 C   0  0  0  0  0  0  0  0  0  0  0  0
  -29.7500  -24.8797   16.0524 C   0  0  0  0  0  0  0  0  0  0  0  0
  -31.8266  -23.7374   15.2454 C   0  0  0  0  0  0  0  0  0  0  0  0
  -32.0009  -25.7746   16.6745 C   0  0  0  0  0  0  0  0  0  0  0  0
  -33.8072  -20.5719   20.7416 C   0  0  0  0  0  0  0  0  0  0  0  0
  -26.0150  -17.3905   20.9105 C   0  0  0  0  0  0  0  0  0  1  0  0
  -26.2061  -16.0116   20.3092 C   0  0  0  0  0  0  0  0  0  0  0  0
  -31.2530  -23.5934   17.7115 C   0  0  1  0  0  0  0  0  0  0  0  0
  -34.4494  -21.7881   18.6566 C   0  0  2  0  0  0  0  0  0  0  0  0
  -31.1891  -24.4825   16.4375 C   0  0  0  0  0  0  0  0  0  0  0  0
  -20.4839  -19.4056   22.4398 N   0  0  0  0  0  0  0  0  0  0  0  0
  -21.0725  -18.4884   21.6534 N   0  0  0  0  0  0  0  0  0  0  0  0
  -29.5351  -23.5905   19.4926 N   0  0  0  0  0  0  0  0  0  0  0  0
  -21.3261  -14.9137   22.9730 N   0  0  0  0  0  0  0  0  0  0  0  0
  -22.6165  -18.2364   19.8749 N   0  0  0  0  0  0  0  0  0  0  0  0
  -22.5318  -22.7001   20.5567 N   0  0  0  0  0  0  0  0  0  0  0  0
  -23.4026  -14.1292   22.1761 N   0  0  0  0  0  0  0  0  0  0  0  0
  -27.1761  -26.1062   20.4073 N   0  0  0  0  0  0  0  0  0  0  0  0
  -32.6055  -23.2245   18.1153 N   0  0  0  0  0  0  0  0  0  0  0  0
  -34.6394  -20.5819   19.5110 N   0  3  0  0  0  0  0  0  0  0  0  0
  -23.4448  -21.0286   19.2795 O   0  0  0  0  0  0  0  0  0  0  0  0
  -27.0841  -24.3681   18.8603 O   0  0  0  0  0  0  0  0  0  0  0  0
  -31.0788  -25.3292   19.3188 O   0  0  0  0  0  0  0  0  0  0  0  0
  -32.2855  -20.9302   18.0096 O   0  0  0  0  0  0  0  0  0  0  0  0
  -21.7493  -12.6448   22.8432 O   0  0  0  0  0  0  0  0  0  0  0  0
  -19.4825  -25.3930   24.3626 O   0  0  0  0  0  0  0  0  0  0  0  0
  -26.2676  -18.3748   19.9087 O   0  0  0  0  0  0  0  0  0  1  0  0
  -25.9291  -15.0299   21.3006 O   0  0  0  0  0  0  0  0  0  0  0  0
  -18.3011  -29.6154   21.0190 F   0  0  0  0  0  0  0  0  0  0  0  0
  -21.3771  -26.3905   22.6138 F   0  0  0  0  0  0  0  0  0  0  0  0
  1  2  1  0  0  0  0
  1  5  2  0  0  0  0
  2  6  2  0  0  0  0
  3  8  2  0  0  0  0
  3 17  1  0  0  0  0
  4  9  1  0  0  0  0
  4 17  2  0  0  0  0
  5 19  1  0  0  0  0
  6 21  1  0  0  0  0
  7 10  2  0  0  0  0
  7 20  1  0  0  0  0
  8 26  1  0  0  0  0
  9 26  2  0  0  0  0
 10 27  1  0  0  0  0
 11 12  2  0  0  0  0
 11 28  1  0  0  0  0
 12 30  1  0  0  0  0
 13 22  1  0  0  0  0
 13 27  2  0  0  0  0
 14 23  2  0  0  0  0
 14 25  1  0  0  0  0
 15 24  2  0  0  0  0
 15 29  1  0  0  0  0
 16 30  2  0  0  0  0
 16 31  1  0  0  0  0
 17 32  1  0  0  0  0
 18 32  1  0  0  0  0
 18 33  2  0  0  0  0
 18 34  1  0  0  0  0
 19 21  2  0  0  0  0
 19 39  1  0  0  0  0
 20 22  2  0  0  0  0
 20 40  1  0  0  0  0
 21 48  1  0  0  0  0
 22 41  1  0  0  0  0
 23 24  1  0  0  0  0
 23 51  1  0  0  0  0
 24 52  1  0  0  0  0
 25 29  2  0  0  0  0
 25 69  1  0  0  0  0
 26 78  1  0  0  0  0
 27 79  1  0  0  0  0
 28 31  2  0  0  0  0
 28 78  1  0  0  0  0
 29 80  1  0  0  0  0
 30 81  1  0  0  0  0
 31 82  1  0  0  0  0
 32 63  2  0  0  0  0
 33 64  1  0  0  0  0
 33 67  1  0  0  0  0
 34 68  1  0  0  0  0
 34 73  2  0  0  0  0
 35 49  1  0  0  0  0
 35 70  1  0  0  0  0
 35 74  2  0  0  0  0
 36 60  1  0  0  0  0
 36 65  1  0  0  0  0
 36 75  2  0  0  0  0
 37 61  1  0  0  0  0
 37 71  1  0  0  0  0
 37 76  2  0  0  0  0
 38 66  1  0  0  0  0
 38 69  1  0  0  0  0
 38 77  2  0  0  0  0
 39 42  1  0  0  0  0
 40 49  1  0  0  0  0
 41 65  1  0  0  0  0
 42 44  1  0  0  0  0
 43 45  1  0  0  0  0
 43 46  1  0  0  0  0
 44 48  1  0  0  0  0
 45 50  1  0  0  0  0
 46 66  1  0  0  0  0
 47 50  1  0  0  0  0
 47 66  1  0  0  0  0
 48 70  1  0  0  0  0
 49 65  1  0  0  0  0
 50 64  1  0  0  0  0
 53 61  1  0  0  0  0
 54 62  1  0  0  0  0
 55 62  1  0  0  0  0
 56 62  1  0  0  0  0
 57 72  1  0  0  0  0
 58 59  1  0  0  0  0
 58 79  1  0  0  0  0
 59 80  1  0  0  0  0
 60 62  1  0  0  0  0
 60 71  1  0  0  0  0
 61 72  1  0  0  0  0
 63 64  1  0  0  0  0
M  CHG  1  72   1
M  ISO  4  38 100  58 101  69 100  79 101
M  END
> <Batch ID>
0006

> <Smiles>
CNC(C)C(=O)NC(C(=O)N1Cc2cc([101O:1][101CH2:1]COc3cc(C)c(C)cc3[100NH:0][100C:0](=O)N3CCCC(n4nc(-c5ccc(Oc6ccc(F)cc6F)cc5)c(C(N)=O)c4N)C3)ccc2CC1C(=O)NC1CCCc2ccccc21)C(C)(C)C

> <Shape>
0.190

> <Color>
0.076

> <Negative vol penalty>
0.000

$$$$

  -OEChem-04052315303D

 91 99  0     1  0  0  0  0  0999 V2000
  -29.6693  -28.2014   20.5300 C   0  0  0  0  0  0  0  0  0  0  0  0
  -28.7729  -27.2940   21.0855 C   0  0  0  0  0  0  0  0  0  0  0  0
  -27.5034  -17.0735   18.9848 C   0  0  0  0  0  0  0  0  0  0  0  0
  -27.8734  -17.0784   21.3723 C   0  0  0  0  0  0  0  0  0  0  0  0
  -29.4089  -29.5693   20.6015 C   0  0  0  0  0  0  0  0  0  0  0  0
  -27.6162  -27.7540   21.7139 C   0  0  0  0  0  0  0  0  0  0  0  0
  -23.5056  -25.1060   20.3965 C   0  0  0  0  0  0  0  0  0  0  0  0
  -24.4553  -15.3982   27.4333 C   0  0  0  0  0  0  0  0  0  0  0  0
  -28.1739  -18.2920   18.8784 C   0  0  0  0  0  0  0  0  0  0  0  0
  -28.5439  -18.2969   21.2659 C   0  0  0  0  0  0  0  0  0  0  0  0
  -23.3296  -23.8614   20.9997 C   0  0  0  0  0  0  0  0  0  0  0  0
  -24.6091  -16.6349   26.8067 C   0  0  0  0  0  0  0  0  0  0  0  0
  -30.0387  -21.5847   21.6729 C   0  0  0  0  0  0  0  0  0  0  0  0
  -29.7315  -22.5771   22.6036 C   0  0  0  0  0  0  0  0  0  0  0  0
  -21.7523  -24.8384   22.5413 C   0  0  0  0  0  0  0  0  0  0  0  0
  -26.1511  -15.6451   25.2319 C   0  0  0  0  0  0  0  0  0  0  0  0
  -27.4311  -22.5571   21.8656 C   0  0  0  0  0  0  0  0  0  0  0  0
  -27.3531  -16.4667   20.2318 C   0  0  0  0  0  0  0  0  0  0  0  0
  -27.2199  -13.9193   20.2584 C   0  0  0  0  0  0  0  0  0  0  0  0
  -28.2437  -30.0458   21.2225 C   0  0  0  0  0  0  0  0  0  0  0  0
  -22.8133  -26.2302   20.8689 C   0  0  0  0  0  0  0  0  0  0  0  0
  -27.3407  -29.1296   21.7949 C   0  0  0  0  0  0  0  0  0  0  0  0
  -21.9193  -26.0956   21.9408 C   0  0  0  0  0  0  0  0  0  0  0  0
  -25.1494  -14.2850   26.9592 C   0  0  0  0  0  0  0  0  0  0  0  0
  -28.6941  -18.9037   20.0190 C   0  0  0  0  0  0  0  0  0  0  0  0
  -22.4550  -23.7280   22.0741 C   0  0  0  0  0  0  0  0  0  0  0  0
  -25.4570  -16.7583   25.7060 C   0  0  0  0  0  0  0  0  0  0  0  0
  -29.0422  -21.0785   20.8384 C   0  0  0  0  0  0  0  0  0  0  0  0
  -28.4277  -23.0633   22.7000 C   0  0  0  0  0  0  0  0  0  0  0  0
  -25.9972  -14.4085   25.8585 C   0  0  0  0  0  0  0  0  0  0  0  0
  -27.7383  -21.5646   20.9348 C   0  0  0  0  0  0  0  0  0  0  0  0
  -26.6602  -15.2083   20.3424 C   0  0  0  0  0  0  0  0  0  0  0  0
  -26.1535  -13.0702   20.4263 C   0  0  0  0  0  0  0  0  0  0  0  0
  -28.5822  -13.5248   20.0477 C   0  0  0  0  0  0  0  0  0  0  0  0
  -23.6630  -29.0197   22.1341 C   0  0  0  0  0  0  0  0  0  0  0  0
  -20.4865  -29.6417   21.9205 C   0  0  0  0  0  0  0  0  0  0  0  0
  -23.7223  -12.3781   27.6957 C   0  0  0  0  0  0  0  0  0  0  0  0
  -17.3017  -28.4277   21.7487 C   0  0  0  0  0  0  0  0  0  0  0  0
  -21.1979  -12.6505   23.3895 C   0  0  0  0  0  0  0  0  0  0  0  0
  -28.0287  -31.5357   21.3169 C   0  0  0  0  0  0  0  0  0  0  0  0
  -22.9940  -27.5603   20.1902 C   0  0  0  0  0  0  0  0  0  0  0  0
  -21.1369  -27.2674   22.4728 C   0  0  0  0  0  0  0  0  0  0  0  0
  -26.5950  -31.9230   21.6703 C   0  0  0  0  0  0  0  0  0  0  0  0
  -21.2526  -13.4917   19.9303 C   0  0  0  0  0  0  0  0  0  0  0  0
  -26.0844  -31.0768   22.8321 C   0  0  0  0  0  0  0  0  0  0  0  0
  -22.7046  -13.9003   19.6761 C   0  0  0  0  0  0  0  0  0  0  0  0
  -20.7759  -13.9328   21.3124 C   0  0  0  0  0  0  0  0  0  0  0  0
  -23.0835  -13.9040   22.1772 C   0  0  0  0  0  0  0  0  0  0  0  0
  -26.0628  -29.5886   22.4630 C   0  0  1  0  0  0  0  0  0  0  0  0
  -22.6260  -28.7415   21.0829 C   0  0  1  0  0  0  0  0  0  0  0  0
  -23.6270  -13.4319   20.8177 C   0  0  2  0  0  0  0  0  0  0  0  0
  -26.4670  -12.6515   29.5232 C   0  0  0  0  0  0  0  0  0  0  0  0
  -14.9110  -29.1798   21.6207 C   0  0  0  0  0  0  0  0  0  0  0  0
  -20.5528  -30.3491   24.8878 C   0  0  0  0  0  0  0  0  0  0  0  0
  -18.0563  -30.1617   24.9168 C   0  0  0  0  0  0  0  0  0  0  0  0
  -19.1599  -31.8779   23.4817 C   0  0  0  0  0  0  0  0  0  0  0  0
  -16.9002  -27.0929   19.1379 C   0  0  0  0  0  0  0  0  0  0  0  0
  -22.4794  -13.1244   27.2145 C   0  0  0  0  0  0  0  0  0  0  0  0
  -21.3711  -12.2087   26.6809 C   0  0  0  0  0  0  0  0  0  0  0  0
  -23.3400  -20.7035   23.8614 C   0  0  0  0  0  0  0  0  0  0  0  0
  -24.5211  -19.7397   23.8913 C   0  0  0  0  0  0  0  0  0  0  0  0
  -26.2167  -12.3446   28.0859 C   0  0  0  0  0  0  0  0  0  0  0  0
  -21.7798  -11.3984   25.4517 C   0  0  0  0  0  0  0  0  0  0  0  0
  -23.3918  -21.6178   22.6446 C   0  0  0  0  0  0  0  0  0  1  0  0
  -24.4933  -18.8546   25.1293 C   0  0  0  0  0  0  0  0  0  0  0  0
  -19.2945  -29.4403   22.8246 C   0  0  1  0  0  0  0  0  0  0  0  0
  -16.1424  -28.7673   20.8293 C   0  0  2  0  0  0  0  0  0  0  0  0
  -19.2819  -30.4354   24.0192 C   0  0  0  0  0  0  0  0  0  0  0  0
  -25.3405  -15.1850   20.5474 N   0  0  0  0  0  0  0  0  0  0  0  0
  -25.0622  -13.8710   20.5937 N   0  0  0  0  0  0  0  0  0  0  0  0
  -21.3527  -28.5482   21.7797 N   0  0  0  0  0  0  0  0  0  0  0  0
  -21.6931  -13.4551   22.3500 N   0  0  0  0  0  0  0  0  0  0  0  0
  -26.0521  -11.7242   20.4454 N   0  0  0  0  0  0  0  0  0  0  0  0
  -29.5515  -14.5254   19.8947 N   0  0  0  0  0  0  0  0  0  0  0  0
  -24.9193  -29.2917   21.6270 N   0  0  0  0  0  0  0  0  0  0  0  0
  -18.1154  -29.5188   21.9691 N   0  0  0  0  0  0  0  0  0  0  0  0
  -22.1352  -12.2356   24.3276 N   0  0  0  0  0  0  0  0  0  0  0  0
  -24.9935  -13.0494   27.5882 N   0  0  0  0  0  0  0  0  0  0  0  0
  -15.7872  -27.5903   19.9870 N   0  3  0  0  0  0  0  0  0  0  0  0
  -28.9269  -12.3206   19.9802 O   0  0  0  0  0  0  0  0  0  0  0  0
  -23.3463  -28.9911   23.3176 O   0  0  0  0  0  0  0  0  0  0  0  0
  -20.6395  -30.7269   21.3541 O   0  0  0  0  0  0  0  0  0  0  0  0
  -23.6027  -11.2498   28.1799 O   0  0  0  0  0  0  0  0  0  0  0  0
  -17.4666  -27.3075   22.2267 O   0  0  0  0  0  0  0  0  0  0  0  0
  -20.0097  -12.3217   23.4723 O   0  0  0  0  0  0  0  0  0  0  0  0
  -29.3486  -20.0926   19.9155 O   0  0  0  0  0  0  0  0  0  0  0  0
  -22.2819  -22.5145   22.6651 O   0  0  0  0  0  0  0  0  0  1  0  0
  -25.6072  -17.9734   25.0895 O   0  0  0  0  0  0  0  0  0  0  0  0
  -28.1325  -24.0153   23.5948 F   0  0  0  0  0  0  0  0  0  0  0  0
  -26.6696  -13.3453   25.3947 F   0  0  0  0  0  0  0  0  0  0  0  0
  -26.7764  -21.0814   20.1367 F   0  0  0  0  0  0  0  0  0  0  0  0
  1  2  1  0  0  0  0
  1  5  2  0  0  0  0
  2  6  2  0  0  0  0
  3  9  2  0  0  0  0
  3 18  1  0  0  0  0
  4 10  1  0  0  0  0
  4 18  2  0  0  0  0
  5 20  1  0  0  0  0
  6 22  1  0  0  0  0
  7 11  2  0  0  0  0
  7 21  1  0  0  0  0
  8 12  2  0  0  0  0
  8 24  1  0  0  0  0
  9 25  1  0  0  0  0
 10 25  2  0  0  0  0
 11 26  1  0  0  0  0
 12 27  1  0  0  0  0
 13 14  2  0  0  0  0
 13 28  1  0  0  0  0
 14 29  1  0  0  0  0
 15 23  1  0  0  0  0
 15 26  2  0  0  0  0
 16 27  2  0  0  0  0
 16 30  1  0  0  0  0
 17 29  2  0  0  0  0
 17 31  1  0  0  0  0
 18 32  1  0  0  0  0
 19 32  1  0  0  0  0
 19 33  2  0  0  0  0
 19 34  1  0  0  0  0
 20 22  2  0  0  0  0
 20 40  1  0  0  0  0
 21 23  2  0  0  0  0
 21 41  1  0  0  0  0
 22 49  1  0  0  0  0
 23 42  1  0  0  0  0
 24 30  2  0  0  0  0
 24 78  1  0  0  0  0
 25 86  1  0  0  0  0
 26 87  1  0  0  0  0
 27 88  1  0  0  0  0
 28 31  2  0  0  0  0
 28 86  1  0  0  0  0
 29 89  1  0  0  0  0
 30 90  1  0  0  0  0
 31 91  1  0  0  0  0
 32 69  2  0  0  0  0
 33 70  1  0  0  0  0
 33 73  1  0  0  0  0
 34 74  1  0  0  0  0
 34 80  2  0  0  0  0
 35 50  1  0  0  0  0
 35 75  1  0  0  0  0
 35 81  2  0  0  0  0
 36 66  1  0  0  0  0
 36 71  1  0  0  0  0
 36 82  2  0  0  0  0
 37 58  1  0  0  0  0
 37 78  1  0  0  0  0
 37 83  2  0  0  0  0
 38 67  1  0  0  0  0
 38 76  1  0  0  0  0
 38 84  2  0  0  0  0
 39 72  1  0  0  0  0
 39 77  1  0  0  0  0
 39 85  2  0  0  0  0
 40 43  1  0  0  0  0
 41 50  1  0  0  0  0
 42 71  1  0  0  0  0
 43 45  1  0  0  0  0
 44 46  1  0  0  0  0
 44 47  1  0  0  0  0
 45 49  1  0  0  0  0
 46 51  1  0  0  0  0
 47 72  1  0  0  0  0
 48 51  1  0  0  0  0
 48 72  1  0  0  0  0
 49 75  1  0  0  0  0
 50 71  1  0  0  0  0
 51 70  1  0  0  0  0
 52 62  1  0  0  0  0
 53 67  1  0  0  0  0
 54 68  1  0  0  0  0
 55 68  1  0  0  0  0
 56 68  1  0  0  0  0
 57 79  1  0  0  0  0
 58 59  1  0  0  0  0
 59 63  1  0  0  0  0
 60 61  1  0  0  0  0
 60 64  1  0  0  0  0
 61 65  1  0  0  0  0
 62 78  1  0  0  0  0
 63 77  1  0  0  0  0
 64 87  1  0  0  0  0
 65 88  1  0  0  0  0
 66 68  1  0  0  0  0
 66 76  1  0  0  0  0
 67 79  1  0  0  0  0
 69 70  1  0  0  0  0
M  CHG  1  79   1
M  ISO  4  39 100  64 101  77 100  87 101
M  END
> <Batch ID>
0006

> <Smiles>
CCN(C(=O)CCC[100NH:0][100C:0](=O)N1CCCC(n2nc(-c3ccc(Oc4ccc(F)cc4F)cc3)c(C(N)=O)c2N)C1)c1ccc(OCCC[101CH2:1][101O:1]c2ccc3c(c2)CN(C(=O)C(NC(=O)C(C)NC)C(C)(C)C)C(C(=O)NC2CCCc4ccccc42)C3)cc1F

> <Shape>
0.237

> <Color>
0.074

> <Negative vol penalty>
0.000

$$$$

  -OEChem-04052315303D

 87 95  0     1  0  0  0  0  0999 V2000
  -27.1463  -28.8306   18.6063 C   0  0  0  0  0  0  0  0  0  0  0  0
  -26.9041  -27.5556   19.1073 C   0  0  0  0  0  0  0  0  0  0  0  0
  -29.8441  -23.6284   20.3121 C   0  0  0  0  0  0  0  0  0  0  0  0
  -28.5151  -23.0314   18.3848 C   0  0  0  0  0  0  0  0  0  0  0  0
  -26.4860  -29.9302   19.1529 C   0  0  0  0  0  0  0  0  0  0  0  0
  -26.0021  -27.3796   20.1561 C   0  0  0  0  0  0  0  0  0  0  0  0
  -22.8715  -23.4733   19.3911 C   0  0  0  0  0  0  0  0  0  0  0  0
  -25.9350  -11.3493   20.6714 C   0  0  0  0  0  0  0  0  0  0  0  0
  -26.8553  -12.3735   20.4488 C   0  0  0  0  0  0  0  0  0  0  0  0
  -30.1674  -24.8455   19.7123 C   0  0  0  0  0  0  0  0  0  0  0  0
  -28.8384  -24.2485   17.7849 C   0  0  0  0  0  0  0  0  0  0  0  0
  -23.3791  -22.1957   19.6228 C   0  0  0  0  0  0  0  0  0  0  0  0
  -31.6338  -27.9573   18.5335 C   0  0  0  0  0  0  0  0  0  0  0  0
  -32.9644  -28.3729   18.5822 C   0  0  0  0  0  0  0  0  0  0  0  0
  -22.2970  -22.1631   21.7785 C   0  0  0  0  0  0  0  0  0  0  0  0
  -24.1519  -12.9756   20.7831 C   0  0  0  0  0  0  0  0  0  0  0  0
  -33.6299  -26.3818   17.3865 C   0  0  0  0  0  0  0  0  0  0  0  0
  -29.0180  -22.7214   19.6484 C   0  0  0  0  0  0  0  0  0  0  0  0
  -27.5869  -21.1943   21.1070 C   0  0  0  0  0  0  0  0  0  0  0  0
  -25.5682  -29.7664   20.2025 C   0  0  0  0  0  0  0  0  0  0  0  0
  -22.0804  -24.1110   20.3576 C   0  0  0  0  0  0  0  0  0  0  0  0
  -25.3299  -28.4782   20.7182 C   0  0  0  0  0  0  0  0  0  0  0  0
  -21.7784  -23.4479   21.5556 C   0  0  0  0  0  0  0  0  0  0  0  0
  -24.5833  -11.6503   20.8385 C   0  0  0  0  0  0  0  0  0  0  0  0
  -26.4239  -13.6988   20.3933 C   0  0  0  0  0  0  0  0  0  0  0  0
  -29.6645  -25.1556   18.4487 C   0  0  0  0  0  0  0  0  0  0  0  0
  -23.0943  -21.5415   20.8178 C   0  0  0  0  0  0  0  0  0  0  0  0
  -31.3012  -26.7540   17.9114 C   0  0  0  0  0  0  0  0  0  0  0  0
  -25.0722  -13.9999   20.5604 C   0  0  0  0  0  0  0  0  0  0  0  0
  -33.9624  -27.5851   18.0087 C   0  0  0  0  0  0  0  0  0  0  0  0
  -32.2993  -25.9662   17.3379 C   0  0  0  0  0  0  0  0  0  0  0  0
  -28.6841  -21.4637   20.2673 C   0  0  0  0  0  0  0  0  0  0  0  0
  -27.7179  -19.8651   21.4274 C   0  0  0  0  0  0  0  0  0  0  0  0
  -26.5426  -22.0675   21.5572 C   0  0  0  0  0  0  0  0  0  0  0  0
  -22.3515  -26.7681   22.0810 C   0  0  0  0  0  0  0  0  0  0  0  0
  -19.3378  -26.0084   23.0100 C   0  0  0  0  0  0  0  0  0  0  0  0
  -22.2791  -10.1520   19.0087 C   0  0  0  0  0  0  0  0  0  0  0  0
  -16.9578  -23.5999   23.4363 C   0  0  0  0  0  0  0  0  0  0  0  0
  -28.7463  -14.5860   19.9865 C   0  0  0  0  0  0  0  0  0  0  0  0
  -24.9142  -30.9906   20.7925 C   0  0  0  0  0  0  0  0  0  0  0  0
  -21.5184  -25.4785   20.0813 C   0  0  0  0  0  0  0  0  0  0  0  0
  -20.9172  -24.0807   22.6169 C   0  0  0  0  0  0  0  0  0  0  0  0
  -23.6929  -30.6743   21.6520 C   0  0  0  0  0  0  0  0  0  0  0  0
  -31.5600  -16.6577   20.6709 C   0  0  0  0  0  0  0  0  0  0  0  0
  -23.9961  -29.5248   22.6079 C   0  0  0  0  0  0  0  0  0  0  0  0
  -30.9724  -18.0706   20.6960 C   0  0  0  0  0  0  0  0  0  0  0  0
  -30.8909  -15.7839   19.6114 C   0  0  0  0  0  0  0  0  0  0  0  0
  -28.8378  -17.1418   19.7122 C   0  0  0  0  0  0  0  0  0  0  0  0
  -24.3401  -28.2437   21.8386 C   0  0  1  0  0  0  0  0  0  0  0  0
  -21.1492  -26.2404   21.3504 C   0  0  1  0  0  0  0  0  0  0  0  0
  -29.4354  -18.0398   20.8076 C   0  0  2  0  0  0  0  0  0  0  0  0
  -22.1546   -9.2469   17.8282 C   0  0  0  0  0  0  0  0  0  0  0  0
  -14.6058  -23.2767   24.2493 C   0  0  0  0  0  0  0  0  0  0  0  0
  -20.3093  -26.2148   25.8951 C   0  0  0  0  0  0  0  0  0  0  0  0
  -18.2476  -24.9841   26.6040 C   0  0  0  0  0  0  0  0  0  0  0  0
  -18.0495  -27.2033   25.4821 C   0  0  0  0  0  0  0  0  0  0  0  0
  -16.0516  -22.6369   20.7886 C   0  0  0  0  0  0  0  0  0  0  0  0
  -23.5997  -10.5549   21.0766 C   0  0  0  0  0  0  0  0  0  0  0  0
  -23.5964  -18.0001   20.2948 C   0  0  0  0  0  0  0  0  0  0  0  0
  -23.8296  -17.0679   19.1110 C   0  0  0  0  0  0  0  0  0  0  0  0
  -23.7973  -19.4595   19.9086 C   0  0  0  0  0  0  0  0  0  1  0  0
  -23.6710  -15.6066   19.5064 C   0  0  0  0  0  0  0  0  0  0  0  0
  -18.7381  -25.1849   24.1241 C   0  0  1  0  0  0  0  0  0  0  0  0
  -15.4920  -23.5518   23.0445 C   0  0  2  0  0  0  0  0  0  0  0  0
  -18.8540  -25.8854   25.5073 C   0  0  0  0  0  0  0  0  0  0  0  0
  -29.4554  -20.3918   20.0668 N   0  0  0  0  0  0  0  0  0  0  0  0
  -28.8420  -19.4360   20.7853 N   0  0  0  0  0  0  0  0  0  0  0  0
  -20.3964  -25.4214   22.3026 N   0  0  0  0  0  0  0  0  0  0  0  0
  -29.4365  -15.7996   19.7821 N   0  0  0  0  0  0  0  0  0  0  0  0
  -26.9800  -19.0333   22.1929 N   0  0  0  0  0  0  0  0  0  0  0  0
  -26.5591  -23.4032   21.1330 N   0  0  0  0  0  0  0  0  0  0  0  0
  -27.3711  -14.7284   20.1687 N   0  0  0  0  0  0  0  0  0  0  0  0
  -23.1368  -27.6213   21.3295 N   0  0  0  0  0  0  0  0  0  0  0  0
  -23.3033   -9.8144   19.8765 N   0  0  0  0  0  0  0  0  0  0  0  0
  -17.3690  -24.8854   23.7188 N   0  0  0  0  0  0  0  0  0  0  0  0
  -15.2604  -22.4791   22.0361 N   0  3  0  0  0  0  0  0  0  0  0  0
  -25.6311  -21.6789   22.3265 O   0  0  0  0  0  0  0  0  0  0  0  0
  -22.5510  -26.4275   23.2411 O   0  0  0  0  0  0  0  0  0  0  0  0
  -18.8791  -27.1284   22.7715 O   0  0  0  0  0  0  0  0  0  0  0  0
  -21.5056  -11.0945   19.1315 O   0  0  0  0  0  0  0  0  0  0  0  0
  -17.6662  -22.5971   23.4903 O   0  0  0  0  0  0  0  0  0  0  0  0
  -29.3358  -13.5030   20.0262 O   0  0  0  0  0  0  0  0  0  0  0  0
  -29.9796  -26.3432   17.8632 O   0  0  0  0  0  0  0  0  0  0  0  0
  -23.5890  -20.2947   21.0467 O   0  0  0  0  0  0  0  0  0  1  0  0
  -24.6276  -15.2956   20.5100 O   0  0  0  0  0  0  0  0  0  0  0  0
  -35.2400  -27.9850   18.0541 F   0  0  0  0  0  0  0  0  0  0  0  0
  -31.9858  -24.8097   16.7378 F   0  0  0  0  0  0  0  0  0  0  0  0
  1  2  1  0  0  0  0
  1  5  2  0  0  0  0
  2  6  2  0  0  0  0
  3 10  2  0  0  0  0
  3 18  1  0  0  0  0
  4 11  1  0  0  0  0
  4 18  2  0  0  0  0
  5 20  1  0  0  0  0
  6 22  1  0  0  0  0
  7 12  2  0  0  0  0
  7 21  1  0  0  0  0
  8  9  2  0  0  0  0
  8 24  1  0  0  0  0
  9 25  1  0  0  0  0
 10 26  1  0  0  0  0
 11 26  2  0  0  0  0
 12 27  1  0  0  0  0
 13 14  2  0  0  0  0
 13 28  1  0  0  0  0
 14 30  1  0  0  0  0
 15 23  1  0  0  0  0
 15 27  2  0  0  0  0
 16 24  2  0  0  0  0
 16 29  1  0  0  0  0
 17 30  2  0  0  0  0
 17 31  1  0  0  0  0
 18 32  1  0  0  0  0
 19 32  1  0  0  0  0
 19 33  2  0  0  0  0
 19 34  1  0  0  0  0
 20 22  2  0  0  0  0
 20 40  1  0  0  0  0
 21 23  2  0  0  0  0
 21 41  1  0  0  0  0
 22 49  1  0  0  0  0
 23 42  1  0  0  0  0
 24 58  1  0  0  0  0
 25 29  2  0  0  0  0
 25 72  1  0  0  0  0
 26 83  1  0  0  0  0
 27 84  1  0  0  0  0
 28 31  2  0  0  0  0
 28 83  1  0  0  0  0
 29 85  1  0  0  0  0
 30 86  1  0  0  0  0
 31 87  1  0  0  0  0
 32 66  2  0  0  0  0
 33 67  1  0  0  0  0
 33 70  1  0  0  0  0
 34 71  1  0  0  0  0
 34 77  2  0  0  0  0
 35 50  1  0  0  0  0
 35 73  1  0  0  0  0
 35 78  2  0  0  0  0
 36 63  1  0  0  0  0
 36 68  1  0  0  0  0
 36 79  2  0  0  0  0
 37 52  1  0  0  0  0
 37 74  1  0  0  0  0
 37 80  2  0  0  0  0
 38 64  1  0  0  0  0
 38 75  1  0  0  0  0
 38 81  2  0  0  0  0
 39 69  1  0  0  0  0
 39 72  1  0  0  0  0
 39 82  2  0  0  0  0
 40 43  1  0  0  0  0
 41 50  1  0  0  0  0
 42 68  1  0  0  0  0
 43 45  1  0  0  0  0
 44 46  1  0  0  0  0
 44 47  1  0  0  0  0
 45 49  1  0  0  0  0
 46 51  1  0  0  0  0
 47 69  1  0  0  0  0
 48 51  1  0  0  0  0
 48 69  1  0  0  0  0
 49 73  1  0  0  0  0
 50 68  1  0  0  0  0
 51 67  1  0  0  0  0
 53 64  1  0  0  0  0
 54 65  1  0  0  0  0
 55 65  1  0  0  0  0
 56 65  1  0  0  0  0
 57 76  1  0  0  0  0
 58 74  1  0  0  0  0
 59 60  1  0  0  0  0
 59 61  1  0  0  0  0
 60 62  1  0  0  0  0
 61 84  1  0  0  0  0
 62 85  1  0  0  0  0
 63 65  1  0  0  0  0
 63 75  1  0  0  0  0
 64 76  1  0  0  0  0
 66 67  1  0  0  0  0
M  CHG  1  76   1
M  ISO  4  39 100  61 101  72 100  84 101
M  END
> <Batch ID>
0006

> <Smiles>
CNC(C)C(=O)NC(C(=O)N1Cc2cc([101O:1][101CH2:1]CCCOc3cc(CNC(C)=O)ccc3[100NH:0][100C:0](=O)N3CCCC(n4nc(-c5ccc(Oc6ccc(F)cc6F)cc5)c(C(N)=O)c4N)C3)ccc2CC1C(=O)NC1CCCc2ccccc21)C(C)(C)C

> <Shape>
0.242

> <Color>
0.072

> <Negative vol penalty>
0.000

$$$$

  -OEChem-04052315303D

 86 94  0     1  0  0  0  0  0999 V2000
  -21.5894  -23.2198   21.0726 C   0  0  0  0  0  0  0  0  0  0  0  0
  -22.3534  -24.0687   20.2782 C   0  0  0  0  0  0  0  0  0  0  0  0
  -24.8478  -13.8446   21.7776 C   0  0  0  0  0  0  0  0  0  0  0  0
  -26.5289  -13.7060   20.0480 C   0  0  0  0  0  0  0  0  0  0  0  0
  -20.6736  -23.7518   21.9793 C   0  0  0  0  0  0  0  0  0  0  0  0
  -22.2011  -25.4504   20.3893 C   0  0  0  0  0  0  0  0  0  0  0  0
  -26.6372  -27.8893   20.5203 C   0  0  0  0  0  0  0  0  0  0  0  0
  -30.0775  -21.8931   15.0615 C   0  0  0  0  0  0  0  0  0  0  0  0
  -24.1664  -12.7727   21.2012 C   0  0  0  0  0  0  0  0  0  0  0  0
  -25.8475  -12.6341   19.4716 C   0  0  0  0  0  0  0  0  0  0  0  0
  -27.3020  -28.0674   19.3078 C   0  0  0  0  0  0  0  0  0  0  0  0
  -22.1762   -9.8406   20.3905 C   0  0  0  0  0  0  0  0  0  0  0  0
  -30.4886  -20.7083   15.6722 C   0  0  0  0  0  0  0  0  0  0  0  0
  -21.7102   -8.8367   21.2392 C   0  0  0  0  0  0  0  0  0  0  0  0
  -26.4804  -30.3327   19.1969 C   0  0  0  0  0  0  0  0  0  0  0  0
  -28.7000  -22.4038   16.9795 C   0  0  0  0  0  0  0  0  0  0  0  0
  -23.9730   -8.3987   21.9637 C   0  0  0  0  0  0  0  0  0  0  0  0
  -26.0290  -14.3113   21.2010 C   0  0  0  0  0  0  0  0  0  0  0  0
  -27.7393  -15.3577   22.7782 C   0  0  0  0  0  0  0  0  0  0  0  0
  -20.5169  -25.1409   22.1084 C   0  0  0  0  0  0  0  0  0  0  0  0
  -25.8788  -28.9299   21.0757 C   0  0  0  0  0  0  0  0  0  0  0  0
  -21.2814  -26.0015   21.2976 C   0  0  0  0  0  0  0  0  0  0  0  0
  -25.8090  -30.1662   20.4178 C   0  0  0  0  0  0  0  0  0  0  0  0
  -29.1832  -22.7409   15.7152 C   0  0  0  0  0  0  0  0  0  0  0  0
  -29.1110  -21.2189   17.5902 C   0  0  0  0  0  0  0  0  0  0  0  0
  -24.6662  -12.1674   20.0483 C   0  0  0  0  0  0  0  0  0  0  0  0
  -27.2213  -29.2882   18.6445 C   0  0  0  0  0  0  0  0  0  0  0  0
  -23.5407  -10.1236   20.3282 C   0  0  0  0  0  0  0  0  0  0  0  0
  -22.6085   -8.1157   22.0258 C   0  0  0  0  0  0  0  0  0  0  0  0
  -30.0053  -20.3712   16.9365 C   0  0  0  0  0  0  0  0  0  0  0  0
  -24.4391   -9.4027   21.1148 C   0  0  0  0  0  0  0  0  0  0  0  0
  -26.7331  -15.4190   21.7956 C   0  0  0  0  0  0  0  0  0  0  0  0
  -28.0799  -16.6692   23.0031 C   0  0  0  0  0  0  0  0  0  0  0  0
  -28.3147  -14.2173   23.4295 C   0  0  0  0  0  0  0  0  0  0  0  0
  -22.8114  -29.3257   21.8092 C   0  0  0  0  0  0  0  0  0  0  0  0
  -23.8784  -32.1098   23.0868 C   0  0  0  0  0  0  0  0  0  0  0  0
  -29.6313  -25.2105   15.3789 C   0  0  0  0  0  0  0  0  0  0  0  0
  -26.2608  -34.5531   23.1287 C   0  0  0  0  0  0  0  0  0  0  0  0
  -27.7283  -21.6090   19.6595 C   0  0  0  0  0  0  0  0  0  0  0  0
  -19.4804  -25.6684   23.0687 C   0  0  0  0  0  0  0  0  0  0  0  0
  -25.1895  -28.7306   22.3977 C   0  0  0  0  0  0  0  0  0  0  0  0
  -25.0247  -31.3216   20.9819 C   0  0  0  0  0  0  0  0  0  0  0  0
  -19.6481  -27.1508   23.3920 C   0  0  0  0  0  0  0  0  0  0  0  0
  -26.2488  -21.0918   22.8565 C   0  0  0  0  0  0  0  0  0  0  0  0
  -19.8781  -27.9530   22.1151 C   0  0  0  0  0  0  0  0  0  0  0  0
  -26.3022  -19.5733   23.0393 C   0  0  0  0  0  0  0  0  0  0  0  0
  -25.9655  -21.4788   21.4061 C   0  0  0  0  0  0  0  0  0  0  0  0
  -26.9181  -19.3555   20.5980 C   0  0  0  0  0  0  0  0  0  0  0  0
  -21.1627  -27.5062   21.4067 C   0  0  1  0  0  0  0  0  0  0  0  0
  -24.0253  -29.6920   22.6154 C   0  0  1  0  0  0  0  0  0  0  0  0
  -27.2653  -18.9177   22.0303 C   0  0  2  0  0  0  0  0  0  0  0  0
  -26.8404  -36.7202   24.2534 C   0  0  0  0  0  0  0  0  0  0  0  0
  -21.7753  -33.5430   21.4036 C   0  0  0  0  0  0  0  0  0  0  0  0
  -23.0016  -35.6854   21.8214 C   0  0  0  0  0  0  0  0  0  0  0  0
  -22.0209  -34.4185   23.7334 C   0  0  0  0  0  0  0  0  0  0  0  0
  -28.1482  -26.5810   13.8712 C   0  0  0  0  0  0  0  0  0  0  0  0
  -28.7806  -33.4475   24.2184 C   0  0  0  0  0  0  0  0  0  0  0  0
  -28.7384  -24.0222   15.0537 C   0  0  0  0  0  0  0  0  0  0  0  0
  -29.2322  -28.7488   15.6201 C   0  0  0  0  0  0  0  0  0  0  0  0
  -30.0661  -27.6340   15.0033 C   0  0  0  0  0  0  0  0  0  0  0  0
  -28.6124  -28.3561   16.9557 C   0  0  0  0  0  0  0  0  0  1  0  0
  -24.0773  -33.5152   22.5725 C   0  0  1  0  0  0  0  0  0  0  0  0
  -27.0107  -35.2091   24.2740 C   0  0  2  0  0  0  0  0  0  0  0  0
  -22.7321  -34.2683   22.3709 C   0  0  0  0  0  0  0  0  0  0  0  0
  -26.4526  -16.6703   21.4221 N   0  0  0  0  0  0  0  0  0  0  0  0
  -27.2876  -17.4075   22.1740 N   0  0  0  0  0  0  0  0  0  0  0  0
  -24.3631  -31.0753   22.2739 N   0  0  0  0  0  0  0  0  0  0  0  0
  -26.9194  -20.8241   20.5082 N   0  0  0  0  0  0  0  0  0  0  0  0
  -28.9768  -17.2513   23.8272 N   0  0  0  0  0  0  0  0  0  0  0  0
  -27.8488  -12.9426   23.0798 N   0  0  0  0  0  0  0  0  0  0  0  0
  -28.6199  -20.8783   18.8749 N   0  0  0  0  0  0  0  0  0  0  0  0
  -22.3241  -28.0592   22.0699 N   0  0  0  0  0  0  0  0  0  0  0  0
  -24.9921  -34.1653   23.5046 N   0  0  0  0  0  0  0  0  0  0  0  0
  -29.2997  -26.4405   14.7745 N   0  0  0  0  0  0  0  0  0  0  0  0
  -28.4657  -34.8990   24.1855 N   0  3  0  0  0  0  0  0  0  0  0  0
  -29.2037  -14.3265   24.3077 O   0  0  0  0  0  0  0  0  0  0  0  0
  -22.3502  -30.1329   21.0108 O   0  0  0  0  0  0  0  0  0  0  0  0
  -23.3203  -31.9367   24.1731 O   0  0  0  0  0  0  0  0  0  0  0  0
  -30.5961  -25.0841   16.1382 O   0  0  0  0  0  0  0  0  0  0  0  0
  -26.7501  -34.4032   22.0113 O   0  0  0  0  0  0  0  0  0  0  0  0
  -27.6559  -22.8406   19.6507 O   0  0  0  0  0  0  0  0  0  0  0  0
  -24.0017  -11.1212   19.4857 O   0  0  0  0  0  0  0  0  0  0  0  0
  -27.8687  -29.4645   17.4605 O   0  0  0  0  0  0  0  0  0  1  0  0
  -22.1607   -7.1526   22.8420 F   0  0  0  0  0  0  0  0  0  0  0  0
  -30.4069  -19.2296   17.5134 F   0  0  0  0  0  0  0  0  0  0  0  0
  -25.7509   -9.6708   21.0602 F   0  0  0  0  0  0  0  0  0  0  0  0
  1  2  1  0  0  0  0
  1  5  2  0  0  0  0
  2  6  2  0  0  0  0
  3  9  2  0  0  0  0
  3 18  1  0  0  0  0
  4 10  1  0  0  0  0
  4 18  2  0  0  0  0
  5 20  1  0  0  0  0
  6 22  1  0  0  0  0
  7 11  2  0  0  0  0
  7 21  1  0  0  0  0
  8 13  2  0  0  0  0
  8 24  1  0  0  0  0
  9 26  1  0  0  0  0
 10 26  2  0  0  0  0
 11 27  1  0  0  0  0
 12 14  2  0  0  0  0
 12 28  1  0  0  0  0
 13 30  1  0  0  0  0
 14 29  1  0  0  0  0
 15 23  1  0  0  0  0
 15 27  2  0  0  0  0
 16 24  2  0  0  0  0
 16 25  1  0  0  0  0
 17 29  2  0  0  0  0
 17 31  1  0  0  0  0
 18 32  1  0  0  0  0
 19 32  1  0  0  0  0
 19 33  2  0  0  0  0
 19 34  1  0  0  0  0
 20 22  2  0  0  0  0
 20 40  1  0  0  0  0
 21 23  2  0  0  0  0
 21 41  1  0  0  0  0
 22 49  1  0  0  0  0
 23 42  1  0  0  0  0
 24 58  1  0  0  0  0
 25 30  2  0  0  0  0
 25 71  1  0  0  0  0
 26 82  1  0  0  0  0
 27 83  1  0  0  0  0
 28 31  2  0  0  0  0
 28 82  1  0  0  0  0
 29 84  1  0  0  0  0
 30 85  1  0  0  0  0
 31 86  1  0  0  0  0
 32 65  2  0  0  0  0
 33 66  1  0  0  0  0
 33 69  1  0  0  0  0
 34 70  1  0  0  0  0
 34 76  2  0  0  0  0
 35 50  1  0  0  0  0
 35 72  1  0  0  0  0
 35 77  2  0  0  0  0
 36 62  1  0  0  0  0
 36 67  1  0  0  0  0
 36 78  2  0  0  0  0
 37 58  1  0  0  0  0
 37 74  1  0  0  0  0
 37 79  2  0  0  0  0
 38 63  1  0  0  0  0
 38 73  1  0  0  0  0
 38 80  2  0  0  0  0
 39 68  1  0  0  0  0
 39 71  1  0  0  0  0
 39 81  2  0  0  0  0
 40 43  1  0  0  0  0
 41 50  1  0  0  0  0
 42 67  1  0  0  0  0
 43 45  1  0  0  0  0
 44 46  1  0  0  0  0
 44 47  1  0  0  0  0
 45 49  1  0  0  0  0
 46 51  1  0  0  0  0
 47 68  1  0  0  0  0
 48 51  1  0  0  0  0
 48 68  1  0  0  0  0
 49 72  1  0  0  0  0
 50 67  1  0  0  0  0
 51 66  1  0  0  0  0
 52 63  1  0  0  0  0
 53 64  1  0  0  0  0
 54 64  1  0  0  0  0
 55 64  1  0  0  0  0
 56 74  1  0  0  0  0
 57 75  1  0  0  0  0
 59 60  1  0  0  0  0
 59 61  1  0  0  0  0
 60 74  1  0  0  0  0
 61 83  1  0  0  0  0
 62 64  1  0  0  0  0
 62 73  1  0  0  0  0
 63 75  1  0  0  0  0
 65 66  1  0  0  0  0
M  CHG  1  75   1
M  ISO  4  39 100  61 101  71 100  83 101
M  END
> <Batch ID>
0006

> <Smiles>
CNC(C)C(=O)NC(C(=O)N1Cc2cc([101O:1][101CH2:1]CCN(C)C(=O)Cc3ccc(F)c([100NH:0][100C:0](=O)N4CCCC(n5nc(-c6ccc(Oc7ccc(F)cc7F)cc6)c(C(N)=O)c5N)C4)c3)ccc2CC1C(=O)NC1CCCc2ccccc21)C(C)(C)C

> <Shape>
0.234

> <Color>
0.094

> <Negative vol penalty>
0.000

$$$$

  -OEChem-04052315303D

 82 90  0     1  0  0  0  0  0999 V2000
  -36.4018  -31.4914   20.5841 C   0  0  0  0  0  0  0  0  0  0  0  0
  -35.3275  -30.6120   20.6723 C   0  0  0  0  0  0  0  0  0  0  0  0
  -23.2770   -9.6975   20.9518 C   0  0  0  0  0  0  0  0  0  0  0  0
  -23.9672  -10.4337   23.1470 C   0  0  0  0  0  0  0  0  0  0  0  0
  -36.4773  -32.5864   21.4438 C   0  0  0  0  0  0  0  0  0  0  0  0
  -34.3284  -30.8266   21.6211 C   0  0  0  0  0  0  0  0  0  0  0  0
  -29.6759  -30.2292   19.7125 C   0  0  0  0  0  0  0  0  0  0  0  0
  -30.8416  -17.9021   19.3379 C   0  0  0  0  0  0  0  0  0  0  0  0
  -22.5955   -8.6244   21.5259 C   0  0  0  0  0  0  0  0  0  0  0  0
  -23.2857   -9.3606   23.7211 C   0  0  0  0  0  0  0  0  0  0  0  0
  -29.2214  -28.9225   19.5400 C   0  0  0  0  0  0  0  0  0  0  0  0
  -19.6580   -8.1035   23.1174 C   0  0  0  0  0  0  0  0  0  0  0  0
  -18.3710   -7.8304   22.6541 C   0  0  0  0  0  0  0  0  0  0  0  0
  -30.9042  -19.2377   18.9565 C   0  0  0  0  0  0  0  0  0  0  0  0
  -27.9579  -29.0981   21.5874 C   0  0  0  0  0  0  0  0  0  0  0  0
  -19.0833   -5.6235   21.9764 C   0  0  0  0  0  0  0  0  0  0  0  0
  -29.1763  -18.4890   20.9313 C   0  0  0  0  0  0  0  0  0  0  0  0
  -23.9629  -10.6022   21.7623 C   0  0  0  0  0  0  0  0  0  0  0  0
  -24.1583  -12.9948   20.8994 C   0  0  0  0  0  0  0  0  0  0  0  0
  -35.4738  -32.8199   22.3972 C   0  0  0  0  0  0  0  0  0  0  0  0
  -29.2829  -30.9776   20.8313 C   0  0  0  0  0  0  0  0  0  0  0  0
  -34.3912  -31.9250   22.4953 C   0  0  0  0  0  0  0  0  0  0  0  0
  -28.4068  -30.4149   21.7705 C   0  0  0  0  0  0  0  0  0  0  0  0
  -29.9638  -17.5123   20.3433 C   0  0  0  0  0  0  0  0  0  0  0  0
  -22.5998   -8.4560   22.9106 C   0  0  0  0  0  0  0  0  0  0  0  0
  -28.3646  -28.3558   20.4790 C   0  0  0  0  0  0  0  0  0  0  0  0
  -20.6577   -7.1367   23.0101 C   0  0  0  0  0  0  0  0  0  0  0  0
  -18.0836   -6.5904   22.0837 C   0  0  0  0  0  0  0  0  0  0  0  0
  -20.3703   -5.8967   22.4397 C   0  0  0  0  0  0  0  0  0  0  0  0
  -24.6675  -11.7106   21.1698 C   0  0  0  0  0  0  0  0  0  0  0  0
  -30.0744  -20.1371   19.6065 C   0  0  0  0  0  0  0  0  0  0  0  0
  -25.2144  -13.6724   20.3410 C   0  0  0  0  0  0  0  0  0  0  0  0
  -22.8477  -13.5277   21.1323 C   0  0  0  0  0  0  0  0  0  0  0  0
  -30.8022  -32.3127   23.2835 C   0  0  0  0  0  0  0  0  0  0  0  0
  -27.8622  -33.5107   23.9495 C   0  0  0  0  0  0  0  0  0  0  0  0
  -24.4765  -33.2246   23.6297 C   0  0  0  0  0  0  0  0  0  0  0  0
  -30.6017  -15.0769   20.2542 C   0  0  0  0  0  0  0  0  0  0  0  0
  -35.6229  -33.9905   23.3364 C   0  0  0  0  0  0  0  0  0  0  0  0
  -29.7607  -32.3951   20.9891 C   0  0  0  0  0  0  0  0  0  0  0  0
  -27.9390  -31.1833   22.9785 C   0  0  0  0  0  0  0  0  0  0  0  0
  -34.3315  -34.3565   24.0635 C   0  0  0  0  0  0  0  0  0  0  0  0
  -29.7022  -12.0021   18.7005 C   0  0  0  0  0  0  0  0  0  0  0  0
  -33.6597  -33.1054   24.6207 C   0  0  0  0  0  0  0  0  0  0  0  0
  -28.2703  -11.7578   19.1822 C   0  0  0  0  0  0  0  0  0  0  0  0
  -30.5664  -12.6361   19.7891 C   0  0  0  0  0  0  0  0  0  0  0  0
  -28.5801  -13.6116   20.8717 C   0  0  0  0  0  0  0  0  0  0  0  0
  -33.2751  -32.1379   23.4949 C   0  0  1  0  0  0  0  0  0  0  0  0
  -29.7055  -32.8872   22.4320 C   0  0  1  0  0  0  0  0  0  0  0  0
  -27.6543  -13.0338   19.7887 C   0  0  2  0  0  0  0  0  0  0  0  0
  -22.3324  -34.3333   24.3158 C   0  0  0  0  0  0  0  0  0  0  0  0
  -28.1619  -32.3489   26.7550 C   0  0  0  0  0  0  0  0  0  0  0  0
  -25.6942  -32.6385   27.0630 C   0  0  0  0  0  0  0  0  0  0  0  0
  -27.1431  -34.6315   26.6744 C   0  0  0  0  0  0  0  0  0  0  0  0
  -23.7095  -33.7423   20.8186 C   0  0  0  0  0  0  0  0  0  0  0  0
  -28.5416  -24.7553   20.1178 C   0  0  0  0  0  0  0  0  0  0  0  0
  -29.4588  -23.7554   19.4222 C   0  0  0  0  0  0  0  0  0  0  0  0
  -28.7829  -26.1759   19.6250 C   0  0  0  0  0  0  0  0  0  1  0  0
  -29.2482  -22.3414   19.9448 C   0  0  0  0  0  0  0  0  0  0  0  0
  -26.6771  -33.0460   24.7611 C   0  0  1  0  0  0  0  0  0  0  0  0
  -23.4116  -34.2371   23.2486 C   0  0  2  0  0  0  0  0  0  0  0  0
  -26.9292  -33.1508   26.2917 C   0  0  0  0  0  0  0  0  0  0  0  0
  -29.2092  -19.7960   20.5876 N   0  0  0  0  0  0  0  0  0  0  0  0
  -25.9476  -11.5777   20.8124 N   0  0  0  0  0  0  0  0  0  0  0  0
  -26.2516  -12.7872   20.3117 N   0  0  0  0  0  0  0  0  0  0  0  0
  -28.4388  -32.5635   23.0916 N   0  0  0  0  0  0  0  0  0  0  0  0
  -29.9219  -13.8419   20.3138 N   0  0  0  0  0  0  0  0  0  0  0  0
  -25.3478  -14.9331   19.8771 N   0  0  0  0  0  0  0  0  0  0  0  0
  -21.8818  -12.6955   21.7143 N   0  0  0  0  0  0  0  0  0  0  0  0
  -29.8770  -16.1587   20.7531 N   0  0  0  0  0  0  0  0  0  0  0  0
  -32.0754  -32.5927   22.8254 N   0  0  0  0  0  0  0  0  0  0  0  0
  -25.5319  -33.8174   24.2899 N   0  0  0  0  0  0  0  0  0  0  0  0
  -22.7669  -33.8512   21.9616 N   0  3  0  0  0  0  0  0  0  0  0  0
  -22.5375  -14.7018   20.8181 O   0  0  0  0  0  0  0  0  0  0  0  0
  -30.5145  -31.6646   24.2830 O   0  0  0  0  0  0  0  0  0  0  0  0
  -28.2571  -34.6734   24.0671 O   0  0  0  0  0  0  0  0  0  0  0  0
  -24.3799  -32.0269   23.3712 O   0  0  0  0  0  0  0  0  0  0  0  0
  -31.7322  -15.1726   19.7695 O   0  0  0  0  0  0  0  0  0  0  0  0
  -21.9347   -7.4091   23.4712 O   0  0  0  0  0  0  0  0  0  0  0  0
  -27.9200  -27.0803   20.3134 O   0  0  0  0  0  0  0  0  0  1  0  0
  -30.1183  -21.4597   19.2487 O   0  0  0  0  0  0  0  0  0  0  0  0
  -16.8473   -6.3277   21.6403 F   0  0  0  0  0  0  0  0  0  0  0  0
  -21.3263   -4.9634   22.3350 F   0  0  0  0  0  0  0  0  0  0  0  0
  1  2  1  0  0  0  0
  1  5  2  0  0  0  0
  2  6  2  0  0  0  0
  3  9  2  0  0  0  0
  3 18  1  0  0  0  0
  4 10  1  0  0  0  0
  4 18  2  0  0  0  0
  5 20  1  0  0  0  0
  6 22  1  0  0  0  0
  7 11  2  0  0  0  0
  7 21  1  0  0  0  0
  8 14  2  0  0  0  0
  8 24  1  0  0  0  0
  9 25  1  0  0  0  0
 10 25  2  0  0  0  0
 11 26  1  0  0  0  0
 12 13  2  0  0  0  0
 12 27  1  0  0  0  0
 13 28  1  0  0  0  0
 14 31  1  0  0  0  0
 15 23  1  0  0  0  0
 15 26  2  0  0  0  0
 16 28  2  0  0  0  0
 16 29  1  0  0  0  0
 17 24  2  0  0  0  0
 17 62  1  0  0  0  0
 18 30  1  0  0  0  0
 19 30  1  0  0  0  0
 19 32  2  0  0  0  0
 19 33  1  0  0  0  0
 20 22  2  0  0  0  0
 20 38  1  0  0  0  0
 21 23  2  0  0  0  0
 21 39  1  0  0  0  0
 22 47  1  0  0  0  0
 23 40  1  0  0  0  0
 24 69  1  0  0  0  0
 25 78  1  0  0  0  0
 26 79  1  0  0  0  0
 27 29  2  0  0  0  0
 27 78  1  0  0  0  0
 28 81  1  0  0  0  0
 29 82  1  0  0  0  0
 30 63  2  0  0  0  0
 31 62  2  0  0  0  0
 31 80  1  0  0  0  0
 32 64  1  0  0  0  0
 32 67  1  0  0  0  0
 33 68  1  0  0  0  0
 33 73  2  0  0  0  0
 34 48  1  0  0  0  0
 34 70  1  0  0  0  0
 34 74  2  0  0  0  0
 35 59  1  0  0  0  0
 35 65  1  0  0  0  0
 35 75  2  0  0  0  0
 36 60  1  0  0  0  0
 36 71  1  0  0  0  0
 36 76  2  0  0  0  0
 37 66  1  0  0  0  0
 37 69  1  0  0  0  0
 37 77  2  0  0  0  0
 38 41  1  0  0  0  0
 39 48  1  0  0  0  0
 40 65  1  0  0  0  0
 41 43  1  0  0  0  0
 42 44  1  0  0  0  0
 42 45  1  0  0  0  0
 43 47  1  0  0  0  0
 44 49  1  0  0  0  0
 45 66  1  0  0  0  0
 46 49  1  0  0  0  0
 46 66  1  0  0  0  0
 47 70  1  0  0  0  0
 48 65  1  0  0  0  0
 49 64  1  0  0  0  0
 50 60  1  0  0  0  0
 51 61  1  0  0  0  0
 52 61  1  0  0  0  0
 53 61  1  0  0  0  0
 54 72  1  0  0  0  0
 55 56  1  0  0  0  0
 55 57  1  0  0  0  0
 56 58  1  0  0  0  0
 57 79  1  0  0  0  0
 58 80  1  0  0  0  0
 59 61  1  0  0  0  0
 59 71  1  0  0  0  0
 60 72  1  0  0  0  0
 63 64  1  0  0  0  0
M  CHG  1  72   1
M  ISO  4  37 100  57 101  69 100  79 101
M  END
> <Batch ID>
0006

> <Smiles>
CNC(C)C(=O)NC(C(=O)N1Cc2cc([101O:1][101CH2:1]CCCOc3ccc([100NH:0][100C:0](=O)N4CCCC(n5nc(-c6ccc(Oc7ccc(F)cc7F)cc6)c(C(N)=O)c5N)C4)cn3)ccc2CC1C(=O)NC1CCCc2ccccc21)C(C)(C)C

> <Shape>
0.272

> <Color>
0.210

> <Negative vol penalty>
0.000

$$$$

  -OEChem-04052315303D

 82 90  0     1  0  0  0  0  0999 V2000
  -25.3082  -37.8061   19.9633 C   0  0  0  0  0  0  0  0  0  0  0  0
  -25.9834  -36.6510   19.5822 C   0  0  0  0  0  0  0  0  0  0  0  0
  -29.5687  -19.2604   14.2743 C   0  0  0  0  0  0  0  0  0  0  0  0
  -26.1712  -11.6636   21.1217 C   0  0  0  0  0  0  0  0  0  0  0  0
  -25.9568  -12.1478   18.7645 C   0  0  0  0  0  0  0  0  0  0  0  0
  -24.6906  -37.8714   21.2116 C   0  0  0  0  0  0  0  0  0  0  0  0
  -26.0423  -35.5608   20.4498 C   0  0  0  0  0  0  0  0  0  0  0  0
  -26.0211  -29.6314   18.9177 C   0  0  0  0  0  0  0  0  0  0  0  0
  -29.8724  -18.3902   15.3212 C   0  0  0  0  0  0  0  0  0  0  0  0
  -29.6734  -20.6389   14.4604 C   0  0  0  0  0  0  0  0  0  0  0  0
  -24.8263  -11.2967   21.1687 C   0  0  0  0  0  0  0  0  0  0  0  0
  -24.6119  -11.7808   18.8114 C   0  0  0  0  0  0  0  0  0  0  0  0
  -27.0447  -28.6955   18.7764 C   0  0  0  0  0  0  0  0  0  0  0  0
  -22.9451   -8.6152   20.3299 C   0  0  0  0  0  0  0  0  0  0  0  0
  -22.6161   -7.4444   21.0129 C   0  0  0  0  0  0  0  0  0  0  0  0
  -26.6458  -27.9280   21.0283 C   0  0  0  0  0  0  0  0  0  0  0  0
  -30.3853  -20.2769   16.7406 C   0  0  0  0  0  0  0  0  0  0  0  0
  -21.2114   -8.7143   22.5132 C   0  0  0  0  0  0  0  0  0  0  0  0
  -26.7365  -12.0892   19.9196 C   0  0  0  0  0  0  0  0  0  0  0  0
  -29.2259  -11.6340   19.5987 C   0  0  0  0  0  0  0  0  0  0  0  0
  -24.7337  -36.7780   22.0910 C   0  0  0  0  0  0  0  0  0  0  0  0
  -25.3082  -29.7302   20.1213 C   0  0  0  0  0  0  0  0  0  0  0  0
  -25.4259  -35.6121   21.7115 C   0  0  0  0  0  0  0  0  0  0  0  0
  -25.6119  -28.8643   21.1815 C   0  0  0  0  0  0  0  0  0  0  0  0
  -30.2807  -18.8984   16.5544 C   0  0  0  0  0  0  0  0  0  0  0  0
  -24.0466  -11.3553   20.0136 C   0  0  0  0  0  0  0  0  0  0  0  0
  -27.3591  -27.8455   19.8327 C   0  0  0  0  0  0  0  0  0  0  0  0
  -30.0817  -21.1471   15.6936 C   0  0  0  0  0  0  0  0  0  0  0  0
  -22.4073   -9.8356   20.7386 C   0  0  0  0  0  0  0  0  0  0  0  0
  -21.7493   -7.4939   22.1045 C   0  0  0  0  0  0  0  0  0  0  0  0
  -21.5405   -9.8852   21.8303 C   0  0  0  0  0  0  0  0  0  0  0  0
  -28.1255  -12.4689   19.8705 C   0  0  0  0  0  0  0  0  0  0  0  0
  -30.3152  -12.4676   19.6700 C   0  0  0  0  0  0  0  0  0  0  0  0
  -29.2604  -10.2305   19.3078 C   0  0  0  0  0  0  0  0  0  0  0  0
  -24.8963  -32.0036   22.3043 C   0  0  0  0  0  0  0  0  0  0  0  0
  -22.7894  -29.8779   23.5552 C   0  0  0  0  0  0  0  0  0  0  0  0
  -21.7843  -26.6306   23.8569 C   0  0  0  0  0  0  0  0  0  0  0  0
  -31.0089  -18.3529   18.9035 C   0  0  0  0  0  0  0  0  0  0  0  0
  -24.0915  -36.9128   23.4489 C   0  0  0  0  0  0  0  0  0  0  0  0
  -24.1890  -30.7270   20.2486 C   0  0  0  0  0  0  0  0  0  0  0  0
  -24.8630  -28.9163   22.4872 C   0  0  0  0  0  0  0  0  0  0  0  0
  -23.8811  -35.5776   24.1584 C   0  0  0  0  0  0  0  0  0  0  0  0
  -31.8318  -16.4728   21.8130 C   0  0  0  0  0  0  0  0  0  0  0  0
  -25.1417  -34.7230   24.0726 C   0  0  0  0  0  0  0  0  0  0  0  0
  -31.0798  -15.1544   21.6174 C   0  0  0  0  0  0  0  0  0  0  0  0
  -31.0316  -17.6650   21.2913 C   0  0  0  0  0  0  0  0  0  0  0  0
  -29.8138  -16.2223   19.7086 C   0  0  0  0  0  0  0  0  0  0  0  0
  -25.4908  -34.3997   22.6148 C   0  0  1  0  0  0  0  0  0  0  0  0
  -23.8719  -31.0877   21.6966 C   0  0  1  0  0  0  0  0  0  0  0  0
  -30.6079  -14.9856   20.1599 C   0  0  2  0  0  0  0  0  0  0  0  0
  -20.0522  -25.2004   24.9759 C   0  0  0  0  0  0  0  0  0  0  0  0
  -24.2801  -30.1490   26.2036 C   0  0  0  0  0  0  0  0  0  0  0  0
  -23.1462  -28.0548   26.9762 C   0  0  0  0  0  0  0  0  0  0  0  0
  -21.7892  -30.0704   26.4119 C   0  0  0  0  0  0  0  0  0  0  0  0
  -20.7179  -25.6886   21.2618 C   0  0  0  0  0  0  0  0  0  0  0  0
  -29.1101  -24.9878   18.4780 C   0  0  0  0  0  0  0  0  0  0  0  0
  -29.3982  -24.4053   17.0987 C   0  0  0  0  0  0  0  0  0  0  0  0
  -28.5965  -26.4187   18.3874 C   0  0  0  0  0  0  0  0  0  1  0  0
  -29.9521  -22.9905   17.1905 C   0  0  0  0  0  0  0  0  0  0  0  0
  -22.8758  -28.7472   24.5516 C   0  0  1  0  0  0  0  0  0  0  0  0
  -20.4179  -25.9825   23.7240 C   0  0  2  0  0  0  0  0  0  0  0  0
  -23.0384  -29.2555   26.0120 C   0  0  0  0  0  0  0  0  0  0  0  0
  -28.4830  -13.7357   20.0977 N   0  0  0  0  0  0  0  0  0  0  0  0
  -29.8204  -13.7029   19.9688 N   0  0  0  0  0  0  0  0  0  0  0  0
  -23.7815  -29.9121   22.5651 N   0  0  0  0  0  0  0  0  0  0  0  0
  -30.6222  -17.4361   19.9039 N   0  0  0  0  0  0  0  0  0  0  0  0
  -31.6385  -12.2571   19.5056 N   0  0  0  0  0  0  0  0  0  0  0  0
  -28.0497   -9.5253   19.2738 N   0  0  0  0  0  0  0  0  0  0  0  0
  -30.5894  -18.0140   17.6175 N   0  0  0  0  0  0  0  0  0  0  0  0
  -24.6348  -33.3467   22.1117 N   0  0  0  0  0  0  0  0  0  0  0  0
  -21.6933  -27.9208   24.3348 N   0  0  0  0  0  0  0  0  0  0  0  0
  -20.3987  -25.0477   22.5635 N   0  3  0  0  0  0  0  0  0  0  0  0
  -30.3345   -9.6166   19.1007 O   0  0  0  0  0  0  0  0  0  0  0  0
  -25.8524  -31.5271   22.9048 O   0  0  0  0  0  0  0  0  0  0  0  0
  -21.8711  -30.6965   23.6474 O   0  0  0  0  0  0  0  0  0  0  0  0
  -22.8281  -26.0490   23.5693 O   0  0  0  0  0  0  0  0  0  0  0  0
  -31.6871  -19.3499   19.1642 O   0  0  0  0  0  0  0  0  0  0  0  0
  -22.7343  -10.9971   20.0590 O   0  0  0  0  0  0  0  0  0  0  0  0
  -28.3582  -26.9315   19.6976 O   0  0  0  0  0  0  0  0  0  1  0  0
  -30.1844  -22.5016   15.8767 O   0  0  0  0  0  0  0  0  0  0  0  0
  -21.4322   -6.3692   22.7593 F   0  0  0  0  0  0  0  0  0  0  0  0
  -21.0197  -11.0545   22.2268 F   0  0  0  0  0  0  0  0  0  0  0  0
  1  2  1  0  0  0  0
  1  6  2  0  0  0  0
  2  7  2  0  0  0  0
  3  9  1  0  0  0  0
  3 10  2  0  0  0  0
  4 11  2  0  0  0  0
  4 19  1  0  0  0  0
  5 12  1  0  0  0  0
  5 19  2  0  0  0  0
  6 21  1  0  0  0  0
  7 23  1  0  0  0  0
  8 13  2  0  0  0  0
  8 22  1  0  0  0  0
  9 25  2  0  0  0  0
 10 28  1  0  0  0  0
 11 26  1  0  0  0  0
 12 26  2  0  0  0  0
 13 27  1  0  0  0  0
 14 15  2  0  0  0  0
 14 29  1  0  0  0  0
 15 30  1  0  0  0  0
 16 24  1  0  0  0  0
 16 27  2  0  0  0  0
 17 25  1  0  0  0  0
 17 28  2  0  0  0  0
 18 30  2  0  0  0  0
 18 31  1  0  0  0  0
 19 32  1  0  0  0  0
 20 32  1  0  0  0  0
 20 33  2  0  0  0  0
 20 34  1  0  0  0  0
 21 23  2  0  0  0  0
 21 39  1  0  0  0  0
 22 24  2  0  0  0  0
 22 40  1  0  0  0  0
 23 48  1  0  0  0  0
 24 41  1  0  0  0  0
 25 69  1  0  0  0  0
 26 78  1  0  0  0  0
 27 79  1  0  0  0  0
 28 80  1  0  0  0  0
 29 31  2  0  0  0  0
 29 78  1  0  0  0  0
 30 81  1  0  0  0  0
 31 82  1  0  0  0  0
 32 63  2  0  0  0  0
 33 64  1  0  0  0  0
 33 67  1  0  0  0  0
 34 68  1  0  0  0  0
 34 73  2  0  0  0  0
 35 49  1  0  0  0  0
 35 70  1  0  0  0  0
 35 74  2  0  0  0  0
 36 60  1  0  0  0  0
 36 65  1  0  0  0  0
 36 75  2  0  0  0  0
 37 61  1  0  0  0  0
 37 71  1  0  0  0  0
 37 76  2  0  0  0  0
 38 66  1  0  0  0  0
 38 69  1  0  0  0  0
 38 77  2  0  0  0  0
 39 42  1  0  0  0  0
 40 49  1  0  0  0  0
 41 65  1  0  0  0  0
 42 44  1  0  0  0  0
 43 45  1  0  0  0  0
 43 46  1  0  0  0  0
 44 48  1  0  0  0  0
 45 50  1  0  0  0  0
 46 66  1  0  0  0  0
 47 50  1  0  0  0  0
 47 66  1  0  0  0  0
 48 70  1  0  0  0  0
 49 65  1  0  0  0  0
 50 64  1  0  0  0  0
 51 61  1  0  0  0  0
 52 62  1  0  0  0  0
 53 62  1  0  0  0  0
 54 62  1  0  0  0  0
 55 72  1  0  0  0  0
 56 57  1  0  0  0  0
 56 58  1  0  0  0  0
 57 59  1  0  0  0  0
 58 79  1  0  0  0  0
 59 80  1  0  0  0  0
 60 62  1  0  0  0  0
 60 71  1  0  0  0  0
 61 72  1  0  0  0  0
 63 64  1  0  0  0  0
M  CHG  1  72   1
M  ISO  4  38 100  58 101  69 100  79 101
M  END
> <Batch ID>
0006

> <Smiles>
CNC(C)C(=O)NC(C(=O)N1Cc2cc([101O:1][101CH2:1]CCCOc3cccc([100NH:0][100C:0](=O)N4CCCC(n5nc(-c6ccc(Oc7ccc(F)cc7F)cc6)c(C(N)=O)c5N)C4)c3)ccc2CC1C(=O)NC1CCCc2ccccc21)C(C)(C)C

> <Shape>
0.287

> <Color>
0.073

> <Negative vol penalty>
0.000

$$$$

  -OEChem-04052315303D

 84 92  0     1  0  0  0  0  0999 V2000
  -28.6303  -37.0904   21.1903 C   0  0  0  0  0  0  0  0  0  0  0  0
  -28.9854  -35.8064   20.7895 C   0  0  0  0  0  0  0  0  0  0  0  0
  -23.4449   -9.9976   20.6987 C   0  0  0  0  0  0  0  0  0  0  0  0
  -22.8704  -11.8933   22.0819 C   0  0  0  0  0  0  0  0  0  0  0  0
  -27.7316  -37.2679   22.2413 C   0  0  0  0  0  0  0  0  0  0  0  0
  -28.4427  -34.6990   21.4403 C   0  0  0  0  0  0  0  0  0  0  0  0
  -26.9918  -29.3022   18.9353 C   0  0  0  0  0  0  0  0  0  0  0  0
  -22.4688   -9.2344   21.3392 C   0  0  0  0  0  0  0  0  0  0  0  0
  -21.8943  -11.1301   22.7225 C   0  0  0  0  0  0  0  0  0  0  0  0
  -27.6615  -28.0803   18.8866 C   0  0  0  0  0  0  0  0  0  0  0  0
  -19.1088   -8.8765   21.2168 C   0  0  0  0  0  0  0  0  0  0  0  0
  -18.2732   -8.0927   20.4211 C   0  0  0  0  0  0  0  0  0  0  0  0
  -26.4063  -27.3230   20.8024 C   0  0  0  0  0  0  0  0  0  0  0  0
  -29.1183  -20.5040   19.5816 C   0  0  0  0  0  0  0  0  0  0  0  0
  -30.8569  -18.8170   20.9651 C   0  0  0  0  0  0  0  0  0  0  0  0
  -19.0444   -6.1093   21.5650 C   0  0  0  0  0  0  0  0  0  0  0  0
  -23.6458  -11.3271   21.0701 C   0  0  0  0  0  0  0  0  0  0  0  0
  -24.4939  -12.9084   19.2568 C   0  0  0  0  0  0  0  0  0  0  0  0
  -27.1702  -36.1620   22.8990 C   0  0  0  0  0  0  0  0  0  0  0  0
  -26.0305  -29.5480   19.9262 C   0  0  0  0  0  0  0  0  0  0  0  0
  -27.5366  -34.8618   22.5020 C   0  0  0  0  0  0  0  0  0  0  0  0
  -25.7240  -28.5478   20.8599 C   0  0  0  0  0  0  0  0  0  0  0  0
  -28.9148  -19.1242   19.5611 C   0  0  0  0  0  0  0  0  0  0  0  0
  -31.0603  -20.1968   20.9856 C   0  0  0  0  0  0  0  0  0  0  0  0
  -30.1910  -21.0403   20.2939 C   0  0  0  0  0  0  0  0  0  0  0  0
  -29.7841  -18.2807   20.2528 C   0  0  0  0  0  0  0  0  0  0  0  0
  -21.6935   -9.8006   22.3511 C   0  0  0  0  0  0  0  0  0  0  0  0
  -27.3709  -27.0916   19.8220 C   0  0  0  0  0  0  0  0  0  0  0  0
  -19.9123   -8.2767   22.1865 C   0  0  0  0  0  0  0  0  0  0  0  0
  -18.2409   -6.7091   20.5952 C   0  0  0  0  0  0  0  0  0  0  0  0
  -19.8800   -6.8931   22.3606 C   0  0  0  0  0  0  0  0  0  0  0  0
  -24.6543  -12.1159   20.4092 C   0  0  0  0  0  0  0  0  0  0  0  0
  -25.7374  -13.4479   19.0353 C   0  0  0  0  0  0  0  0  0  0  0  0
  -23.3253  -13.1365   18.4581 C   0  0  0  0  0  0  0  0  0  0  0  0
  -25.7453  -31.6360   22.3058 C   0  0  0  0  0  0  0  0  0  0  0  0
  -22.8074  -30.2953   22.6115 C   0  0  0  0  0  0  0  0  0  0  0  0
  -29.6044  -23.4078   19.6656 C   0  0  0  0  0  0  0  0  0  0  0  0
  -20.7850  -27.5973   22.0848 C   0  0  0  0  0  0  0  0  0  0  0  0
  -30.3762  -15.9138   20.8803 C   0  0  0  0  0  0  0  0  0  0  0  0
  -26.2393  -36.4040   24.0608 C   0  0  0  0  0  0  0  0  0  0  0  0
  -25.2979  -30.8614   19.9487 C   0  0  0  0  0  0  0  0  0  0  0  0
  -24.6859  -28.7544   21.9313 C   0  0  0  0  0  0  0  0  0  0  0  0
  -25.4216  -35.1759   24.4521 C   0  0  0  0  0  0  0  0  0  0  0  0
  -30.2180  -12.3654   21.1267 C   0  0  0  0  0  0  0  0  0  0  0  0
  -26.3150  -33.9418   24.5286 C   0  0  0  0  0  0  0  0  0  0  0  0
  -28.7432  -12.0493   20.8672 C   0  0  0  0  0  0  0  0  0  0  0  0
  -30.3895  -13.6580   21.9225 C   0  0  0  0  0  0  0  0  0  0  0  0
  -28.2303  -14.5130   21.1002 C   0  0  0  0  0  0  0  0  0  0  0  0
  -26.9502  -33.6354   23.1670 C   0  0  1  0  0  0  0  0  0  0  0  0
  -24.7062  -31.1922   21.3154 C   0  0  1  0  0  0  0  0  0  0  0  0
  -28.0096  -13.2540   20.2458 C   0  0  2  0  0  0  0  0  0  0  0  0
  -27.7586  -18.5775   18.7885 C   0  0  0  0  0  0  0  0  0  0  0  0
  -32.2174  -20.7442   21.7565 C   0  0  0  0  0  0  0  0  0  0  0  0
  -18.4440  -26.7835   22.4782 C   0  0  0  0  0  0  0  0  0  0  0  0
  -23.4730  -29.8083   25.5492 C   0  0  0  0  0  0  0  0  0  0  0  0
  -21.5626  -28.1927   25.6421 C   0  0  0  0  0  0  0  0  0  0  0  0
  -21.1375  -30.5959   25.1253 C   0  0  0  0  0  0  0  0  0  0  0  0
  -20.2753  -27.3049   19.1842 C   0  0  0  0  0  0  0  0  0  0  0  0
  -30.1602  -24.8016   19.9344 C   0  0  0  0  0  0  0  0  0  0  0  0
  -29.3554  -25.9053   19.2649 C   0  0  0  0  0  0  0  0  0  1  0  0
  -22.2393  -29.1299   23.3849 C   0  0  1  0  0  0  0  0  0  0  0  0
  -19.3842  -27.4852   21.5106 C   0  0  2  0  0  0  0  0  0  0  0  0
  -22.1241  -29.4282   24.9065 C   0  0  0  0  0  0  0  0  0  0  0  0
  -25.9015  -12.1463   20.8863 N   0  0  0  0  0  0  0  0  0  0  0  0
  -26.5360  -12.9644   20.0295 N   0  0  0  0  0  0  0  0  0  0  0  0
  -24.0013  -30.0577   21.9157 N   0  0  0  0  0  0  0  0  0  0  0  0
  -29.6712  -14.7561   21.2721 N   0  0  0  0  0  0  0  0  0  0  0  0
  -26.2146  -14.2840   18.0889 N   0  0  0  0  0  0  0  0  0  0  0  0
  -22.1300  -12.5042   18.8269 N   0  0  0  0  0  0  0  0  0  0  0  0
  -30.3803  -22.4427   20.3022 N   0  0  0  0  0  0  0  0  0  0  0  0
  -29.5946  -16.8765   20.2423 N   0  0  0  0  0  0  0  0  0  0  0  0
  -25.9896  -32.9961   22.2935 N   0  0  0  0  0  0  0  0  0  0  0  0
  -20.9725  -28.7935   22.7444 N   0  0  0  0  0  0  0  0  0  0  0  0
  -19.4073  -26.7144   20.2354 N   0  3  0  0  0  0  0  0  0  0  0  0
  -23.3444  -13.8659   17.4378 O   0  0  0  0  0  0  0  0  0  0  0  0
  -26.2844  -30.8063   23.0287 O   0  0  0  0  0  0  0  0  0  0  0  0
  -22.2100  -31.3745   22.6185 O   0  0  0  0  0  0  0  0  0  0  0  0
  -28.6077  -23.2245   18.9748 O   0  0  0  0  0  0  0  0  0  0  0  0
  -21.6274  -26.7105   21.9638 O   0  0  0  0  0  0  0  0  0  0  0  0
  -31.5895  -16.0302   21.0705 O   0  0  0  0  0  0  0  0  0  0  0  0
  -20.7408   -9.0562   22.9762 O   0  0  0  0  0  0  0  0  0  0  0  0
  -28.0235  -25.8983   19.7772 O   0  0  0  0  0  0  0  0  0  1  0  0
  -17.4373   -5.9568   19.8322 F   0  0  0  0  0  0  0  0  0  0  0  0
  -20.6487   -6.3113   23.2915 F   0  0  0  0  0  0  0  0  0  0  0  0
  1  2  1  0  0  0  0
  1  5  2  0  0  0  0
  2  6  2  0  0  0  0
  3  8  2  0  0  0  0
  3 17  1  0  0  0  0
  4  9  1  0  0  0  0
  4 17  2  0  0  0  0
  5 19  1  0  0  0  0
  6 21  1  0  0  0  0
  7 10  2  0  0  0  0
  7 20  1  0  0  0  0
  8 27  1  0  0  0  0
  9 27  2  0  0  0  0
 10 28  1  0  0  0  0
 11 12  2  0  0  0  0
 11 29  1  0  0  0  0
 12 30  1  0  0  0  0
 13 22  1  0  0  0  0
 13 28  2  0  0  0  0
 14 23  2  0  0  0  0
 14 25  1  0  0  0  0
 15 24  1  0  0  0  0
 15 26  2  0  0  0  0
 16 30  2  0  0  0  0
 16 31  1  0  0  0  0
 17 32  1  0  0  0  0
 18 32  1  0  0  0  0
 18 33  2  0  0  0  0
 18 34  1  0  0  0  0
 19 21  2  0  0  0  0
 19 40  1  0  0  0  0
 20 22  2  0  0  0  0
 20 41  1  0  0  0  0
 21 49  1  0  0  0  0
 22 42  1  0  0  0  0
 23 26  1  0  0  0  0
 23 52  1  0  0  0  0
 24 25  2  0  0  0  0
 24 53  1  0  0  0  0
 25 70  1  0  0  0  0
 26 71  1  0  0  0  0
 27 81  1  0  0  0  0
 28 82  1  0  0  0  0
 29 31  2  0  0  0  0
 29 81  1  0  0  0  0
 30 83  1  0  0  0  0
 31 84  1  0  0  0  0
 32 64  2  0  0  0  0
 33 65  1  0  0  0  0
 33 68  1  0  0  0  0
 34 69  1  0  0  0  0
 34 75  2  0  0  0  0
 35 50  1  0  0  0  0
 35 72  1  0  0  0  0
 35 76  2  0  0  0  0
 36 61  1  0  0  0  0
 36 66  1  0  0  0  0
 36 77  2  0  0  0  0
 37 59  1  0  0  0  0
 37 70  1  0  0  0  0
 37 78  2  0  0  0  0
 38 62  1  0  0  0  0
 38 73  1  0  0  0  0
 38 79  2  0  0  0  0
 39 67  1  0  0  0  0
 39 71  1  0  0  0  0
 39 80  2  0  0  0  0
 40 43  1  0  0  0  0
 41 50  1  0  0  0  0
 42 66  1  0  0  0  0
 43 45  1  0  0  0  0
 44 46  1  0  0  0  0
 44 47  1  0  0  0  0
 45 49  1  0  0  0  0
 46 51  1  0  0  0  0
 47 67  1  0  0  0  0
 48 51  1  0  0  0  0
 48 67  1  0  0  0  0
 49 72  1  0  0  0  0
 50 66  1  0  0  0  0
 51 65  1  0  0  0  0
 54 62  1  0  0  0  0
 55 63  1  0  0  0  0
 56 63  1  0  0  0  0
 57 63  1  0  0  0  0
 58 74  1  0  0  0  0
 59 60  1  0  0  0  0
 60 82  1  0  0  0  0
 61 63  1  0  0  0  0
 61 73  1  0  0  0  0
 62 74  1  0  0  0  0
 64 65  1  0  0  0  0
M  CHG  1  74   1
M  ISO  4  39 100  60 101  71 100  82 101
M  END
> <Batch ID>
0006

> <Smiles>
CNC(C)C(=O)NC(C(=O)N1Cc2cc([101O:1][101CH2:1]CC(=O)Nc3cc(C)c([100NH:0][100C:0](=O)N4CCCC(n5nc(-c6ccc(Oc7ccc(F)cc7F)cc6)c(C(N)=O)c5N)C4)cc3C)ccc2CC1C(=O)NC1CCCc2ccccc21)C(C)(C)C

> <Shape>
0.334

> <Color>
0.092

> <Negative vol penalty>
0.000

$$$$

  -OEChem-04052315303D

 98106  0     1  0  0  0  0  0999 V2000
  -26.8911  -18.4784   18.6457 C   0  0  0  0  0  0  0  0  0  0  0  0
  -28.2294  -18.8290   18.7927 C   0  0  0  0  0  0  0  0  0  0  0  0
  -23.1528   -9.8673   19.9602 C   0  0  0  0  0  0  0  0  0  0  0  0
  -23.8269   -9.9615   22.2783 C   0  0  0  0  0  0  0  0  0  0  0  0
  -26.0755  -19.1966   17.7723 C   0  0  0  0  0  0  0  0  0  0  0  0
  -28.7531  -19.8972   18.0654 C   0  0  0  0  0  0  0  0  0  0  0  0
  -31.6470  -22.9408   20.8950 C   0  0  0  0  0  0  0  0  0  0  0  0
  -32.5280  -17.0286   24.9149 C   0  0  0  0  0  0  0  0  0  0  0  0
  -31.1396  -17.1227   24.8198 C   0  0  0  0  0  0  0  0  0  0  0  0
  -22.4396   -8.6961   20.2151 C   0  0  0  0  0  0  0  0  0  0  0  0
  -23.1136   -8.7903   22.5333 C   0  0  0  0  0  0  0  0  0  0  0  0
  -32.9418  -22.5073   21.1767 C   0  0  0  0  0  0  0  0  0  0  0  0
  -23.5368   -5.4668   22.0793 C   0  0  0  0  0  0  0  0  0  0  0  0
  -24.1596   -4.4829   22.8471 C   0  0  0  0  0  0  0  0  0  0  0  0
  -33.7936  -23.9352   19.4290 C   0  0  0  0  0  0  0  0  0  0  0  0
  -32.5237  -15.2790   23.2488 C   0  0  0  0  0  0  0  0  0  0  0  0
  -22.3915   -4.6425   24.4858 C   0  0  0  0  0  0  0  0  0  0  0  0
  -23.8465  -10.5000   20.9918 C   0  0  0  0  0  0  0  0  0  0  0  0
  -24.1071  -13.0315   20.8140 C   0  0  0  0  0  0  0  0  0  0  0  0
  -26.5870  -20.2803   17.0412 C   0  0  0  0  0  0  0  0  0  0  0  0
  -31.4143  -23.8682   19.8692 C   0  0  0  0  0  0  0  0  0  0  0  0
  -27.9438  -20.6297   17.1804 C   0  0  0  0  0  0  0  0  0  0  0  0
  -32.4952  -24.3808   19.1380 C   0  0  0  0  0  0  0  0  0  0  0  0
  -33.2201  -16.1068   24.1294 C   0  0  0  0  0  0  0  0  0  0  0  0
  -30.4432  -16.2949   23.9392 C   0  0  0  0  0  0  0  0  0  0  0  0
  -31.1352  -15.3730   23.1537 C   0  0  0  0  0  0  0  0  0  0  0  0
  -22.4199   -8.1575   21.5017 C   0  0  0  0  0  0  0  0  0  0  0  0
  -34.0150  -23.0023   20.4417 C   0  0  0  0  0  0  0  0  0  0  0  0
  -22.3413   -6.0386   22.5147 C   0  0  0  0  0  0  0  0  0  0  0  0
  -23.5870   -4.0707   24.0504 C   0  0  0  0  0  0  0  0  0  0  0  0
  -21.7687   -5.6265   23.7180 C   0  0  0  0  0  0  0  0  0  0  0  0
  -24.5840  -11.7097   20.7289 C   0  0  0  0  0  0  0  0  0  0  0  0
  -25.1860  -13.8085   20.4696 C   0  0  0  0  0  0  0  0  0  0  0  0
  -22.8054  -13.5138   21.1725 C   0  0  0  0  0  0  0  0  0  0  0  0
  -29.7886  -23.8310   17.1380 C   0  0  0  0  0  0  0  0  0  0  0  0
  -30.5899  -26.9735   17.0701 C   0  0  0  0  0  0  0  0  0  0  0  0
  -35.4720  -15.1580   23.5205 C   0  0  0  0  0  0  0  0  0  0  0  0
  -40.2200  -16.5101   22.0615 C   0  0  0  0  0  0  0  0  0  0  0  0
  -36.7706  -20.6784   20.8349 C   0  0  0  0  0  0  0  0  0  0  0  0
  -32.7170  -29.4435   18.0807 C   0  0  0  0  0  0  0  0  0  0  0  0
  -30.9294  -14.0022   21.0502 C   0  0  0  0  0  0  0  0  0  0  0  0
  -25.6785  -20.9968   16.0737 C   0  0  0  0  0  0  0  0  0  0  0  0
  -30.0145  -24.3460   19.5956 C   0  0  0  0  0  0  0  0  0  0  0  0
  -32.3009  -25.3933   18.0399 C   0  0  0  0  0  0  0  0  0  0  0  0
  -26.2177  -22.3513   15.6210 C   0  0  0  0  0  0  0  0  0  0  0  0
  -29.3953  -13.0247   17.9894 C   0  0  0  0  0  0  0  0  0  0  0  0
  -27.6883  -22.2376   15.2322 C   0  0  0  0  0  0  0  0  0  0  0  0
  -27.9512  -12.7148   18.3904 C   0  0  0  0  0  0  0  0  0  0  0  0
  -30.3876  -12.6009   19.0708 C   0  0  0  0  0  0  0  0  0  0  0  0
  -28.6601  -12.8147   20.8142 C   0  0  0  0  0  0  0  0  0  0  0  0
  -28.5426  -21.7979   16.4274 C   0  0  1  0  0  0  0  0  0  0  0  0
  -29.8387  -24.9054   18.1872 C   0  0  1  0  0  0  0  0  0  0  0  0
  -27.6191  -13.2829   19.7842 C   0  0  2  0  0  0  0  0  0  0  0  0
  -27.8315  -14.7350   25.1388 C   0  0  0  0  0  0  0  0  0  0  0  0
  -28.2561  -18.2479   22.4916 C   0  0  0  0  0  0  0  0  0  0  0  0
  -33.1377  -31.9049   17.8316 C   0  0  0  0  0  0  0  0  0  0  0  0
  -31.7295  -26.4939   14.2806 C   0  0  0  0  0  0  0  0  0  0  0  0
  -32.9484  -28.6717   14.4801 C   0  0  0  0  0  0  0  0  0  0  0  0
  -30.4548  -28.6306   14.5335 C   0  0  0  0  0  0  0  0  0  0  0  0
  -32.3652  -29.9151   20.9812 C   0  0  0  0  0  0  0  0  0  0  0  0
  -36.9221  -15.3857   23.9249 C   0  0  0  0  0  0  0  0  0  0  0  0
  -40.4603  -18.0099   22.0068 C   0  0  0  0  0  0  0  0  0  0  0  0
  -35.4267  -21.2559   21.2248 C   0  0  0  0  0  0  0  0  0  1  0  0
  -37.8915  -14.4691   23.1803 C   0  0  0  0  0  0  0  0  0  0  0  0
  -39.1921  -18.8444   22.1957 C   0  0  0  0  0  0  0  0  0  0  0  0
  -28.2181  -16.1709   25.0319 C   0  0  0  0  0  0  0  0  0  0  0  0
  -28.4004  -16.7689   22.6117 C   0  0  0  0  0  0  0  0  0  0  0  0
  -39.3378  -14.7522   23.5812 C   0  0  0  0  0  0  0  0  0  0  0  0
  -38.1398  -18.6207   21.1117 C   0  0  0  0  0  0  0  0  0  0  0  0
  -31.7516  -27.7690   16.5255 C   0  0  1  0  0  0  0  0  0  0  0  0
  -32.4567  -30.8239   18.6564 C   0  0  2  0  0  0  0  0  0  0  0  0
  -31.7249  -27.8708   14.9743 C   0  0  0  0  0  0  0  0  0  0  0  0
  -25.8659  -11.6468   20.3592 N   0  0  0  0  0  0  0  0  0  0  0  0
  -26.2038  -12.9388   20.2089 N   0  0  0  0  0  0  0  0  0  0  0  0
  -30.9129  -25.8246   17.8060 N   0  0  0  0  0  0  0  0  0  0  0  0
  -30.0119  -13.1799   20.3625 N   0  0  0  0  0  0  0  0  0  0  0  0
  -25.3539  -15.1441   20.3673 N   0  0  0  0  0  0  0  0  0  0  0  0
  -21.8130  -12.5793   21.4982 N   0  0  0  0  0  0  0  0  0  0  0  0
  -34.6291  -16.0138   24.2238 N   0  0  0  0  0  0  0  0  0  0  0  0
  -30.4494  -14.5222   22.2517 N   0  0  0  0  0  0  0  0  0  0  0  0
  -28.7726  -22.9125   17.3214 N   0  0  0  0  0  0  0  0  0  0  0  0
  -39.6829  -16.1222   23.2804 N   0  0  0  0  0  0  0  0  0  0  0  0
  -36.9431  -19.3979   21.3367 N   0  0  0  0  0  0  0  0  0  0  0  0
  -31.7204  -29.0573   17.2095 N   0  0  0  0  0  0  0  0  0  0  0  0
  -29.0367  -16.4057   23.8608 N   0  0  0  0  0  0  0  0  0  0  0  0
  -32.9678  -30.9070   20.0538 N   0  3  0  0  0  0  0  0  0  0  0  0
  -22.5258  -14.7365   21.1871 O   0  0  0  0  0  0  0  0  0  0  0  0
  -30.6099  -23.8358   16.2286 O   0  0  0  0  0  0  0  0  0  0  0  0
  -29.4385  -27.3612   16.8566 O   0  0  0  0  0  0  0  0  0  0  0  0
  -35.1534  -14.3196   22.6838 O   0  0  0  0  0  0  0  0  0  0  0  0
  -40.4577  -15.7547   21.1229 O   0  0  0  0  0  0  0  0  0  0  0  0
  -37.5874  -21.2956   20.1567 O   0  0  0  0  0  0  0  0  0  0  0  0
  -33.7073  -28.7763   18.3716 O   0  0  0  0  0  0  0  0  0  0  0  0
  -32.0479  -14.2504   20.5927 O   0  0  0  0  0  0  0  0  0  0  0  0
  -21.7238   -7.0148   21.7509 O   0  0  0  0  0  0  0  0  0  0  0  0
  -35.2798  -22.5803   20.7142 O   0  0  0  0  0  0  0  0  0  1  0  0
  -24.1844   -3.1248   24.7869 F   0  0  0  0  0  0  0  0  0  0  0  0
  -20.6197   -6.1713   24.1409 F   0  0  0  0  0  0  0  0  0  0  0  0
  1  2  1  0  0  0  0
  1  5  2  0  0  0  0
  2  6  2  0  0  0  0
  3 10  2  0  0  0  0
  3 18  1  0  0  0  0
  4 11  1  0  0  0  0
  4 18  2  0  0  0  0
  5 20  1  0  0  0  0
  6 22  1  0  0  0  0
  7 12  2  0  0  0  0
  7 21  1  0  0  0  0
  8  9  2  0  0  0  0
  8 24  1  0  0  0  0
  9 25  1  0  0  0  0
 10 27  1  0  0  0  0
 11 27  2  0  0  0  0
 12 28  1  0  0  0  0
 13 14  2  0  0  0  0
 13 29  1  0  0  0  0
 14 30  1  0  0  0  0
 15 23  1  0  0  0  0
 15 28  2  0  0  0  0
 16 24  2  0  0  0  0
 16 26  1  0  0  0  0
 17 30  2  0  0  0  0
 17 31  1  0  0  0  0
 18 32  1  0  0  0  0
 19 32  1  0  0  0  0
 19 33  2  0  0  0  0
 19 34  1  0  0  0  0
 20 22  2  0  0  0  0
 20 42  1  0  0  0  0
 21 23  2  0  0  0  0
 21 43  1  0  0  0  0
 22 51  1  0  0  0  0
 23 44  1  0  0  0  0
 24 79  1  0  0  0  0
 25 26  2  0  0  0  0
 25 85  1  0  0  0  0
 26 80  1  0  0  0  0
 27 95  1  0  0  0  0
 28 96  1  0  0  0  0
 29 31  2  0  0  0  0
 29 95  1  0  0  0  0
 30 97  1  0  0  0  0
 31 98  1  0  0  0  0
 32 73  2  0  0  0  0
 33 74  1  0  0  0  0
 33 77  1  0  0  0  0
 34 78  1  0  0  0  0
 34 87  2  0  0  0  0
 35 52  1  0  0  0  0
 35 81  1  0  0  0  0
 35 88  2  0  0  0  0
 36 70  1  0  0  0  0
 36 75  1  0  0  0  0
 36 89  2  0  0  0  0
 37 61  1  0  0  0  0
 37 79  1  0  0  0  0
 37 90  2  0  0  0  0
 38 62  1  0  0  0  0
 38 82  1  0  0  0  0
 38 91  2  0  0  0  0
 39 63  1  0  0  0  0
 39 83  1  0  0  0  0
 39 92  2  0  0  0  0
 40 71  1  0  0  0  0
 40 84  1  0  0  0  0
 40 93  2  0  0  0  0
 41 76  1  0  0  0  0
 41 80  1  0  0  0  0
 41 94  2  0  0  0  0
 42 45  1  0  0  0  0
 43 52  1  0  0  0  0
 44 75  1  0  0  0  0
 45 47  1  0  0  0  0
 46 48  1  0  0  0  0
 46 49  1  0  0  0  0
 47 51  1  0  0  0  0
 48 53  1  0  0  0  0
 49 76  1  0  0  0  0
 50 53  1  0  0  0  0
 50 76  1  0  0  0  0
 51 81  1  0  0  0  0
 52 75  1  0  0  0  0
 53 74  1  0  0  0  0
 54 66  1  0  0  0  0
 55 67  1  0  0  0  0
 56 71  1  0  0  0  0
 57 72  1  0  0  0  0
 58 72  1  0  0  0  0
 59 72  1  0  0  0  0
 60 86  1  0  0  0  0
 61 64  1  0  0  0  0
 62 65  1  0  0  0  0
 63 96  1  0  0  0  0
 64 68  1  0  0  0  0
 65 69  1  0  0  0  0
 66 85  1  0  0  0  0
 67 85  1  0  0  0  0
 68 82  1  0  0  0  0
 69 83  1  0  0  0  0
 70 72  1  0  0  0  0
 70 84  1  0  0  0  0
 71 86  1  0  0  0  0
 73 74  1  0  0  0  0
M  CHG  1  86   1
M  ISO  4  41 100  63 101  80 100  96 101
M  END
> <Batch ID>
0006

> <Smiles>
CCN(CC)c1ccc(NC(=O)CCCNC(=O)CCCNC(=O)[101CH2:1][101O:1]c2ccc3c(c2)CN(C(=O)C(NC(=O)C(C)NC)C(C)(C)C)C(C(=O)NC2CCCc4ccccc42)C3)cc1[100NH:0][100C:0](=O)N1CCCC(n2nc(-c3ccc(Oc4ccc(F)cc4F)cc3)c(C(N)=O)c2N)C1

> <Shape>
0.208

> <Color>
0.173

> <Negative vol penalty>
0.000

$$$$

  -OEChem-04052315303D

 82 90  0     1  0  0  0  0  0999 V2000
  -25.3082  -37.8061   19.9633 C   0  0  0  0  0  0  0  0  0  0  0  0
  -25.9834  -36.6510   19.5822 C   0  0  0  0  0  0  0  0  0  0  0  0
  -29.5687  -19.2604   14.2743 C   0  0  0  0  0  0  0  0  0  0  0  0
  -26.1712  -11.6636   21.1217 C   0  0  0  0  0  0  0  0  0  0  0  0
  -25.9568  -12.1478   18.7645 C   0  0  0  0  0  0  0  0  0  0  0  0
  -24.6906  -37.8714   21.2116 C   0  0  0  0  0  0  0  0  0  0  0  0
  -26.0423  -35.5608   20.4498 C   0  0  0  0  0  0  0  0  0  0  0  0
  -26.0211  -29.6314   18.9177 C   0  0  0  0  0  0  0  0  0  0  0  0
  -29.8724  -18.3902   15.3212 C   0  0  0  0  0  0  0  0  0  0  0  0
  -29.6734  -20.6389   14.4604 C   0  0  0  0  0  0  0  0  0  0  0  0
  -24.8263  -11.2967   21.1687 C   0  0  0  0  0  0  0  0  0  0  0  0
  -24.6119  -11.7808   18.8114 C   0  0  0  0  0  0  0  0  0  0  0  0
  -27.0447  -28.6955   18.7764 C   0  0  0  0  0  0  0  0  0  0  0  0
  -22.9451   -8.6152   20.3299 C   0  0  0  0  0  0  0  0  0  0  0  0
  -22.6161   -7.4444   21.0129 C   0  0  0  0  0  0  0  0  0  0  0  0
  -26.6458  -27.9280   21.0283 C   0  0  0  0  0  0  0  0  0  0  0  0
  -30.3853  -20.2769   16.7406 C   0  0  0  0  0  0  0  0  0  0  0  0
  -21.2114   -8.7143   22.5132 C   0  0  0  0  0  0  0  0  0  0  0  0
  -26.7365  -12.0892   19.9196 C   0  0  0  0  0  0  0  0  0  0  0  0
  -29.2259  -11.6340   19.5987 C   0  0  0  0  0  0  0  0  0  0  0  0
  -24.7337  -36.7780   22.0910 C   0  0  0  0  0  0  0  0  0  0  0  0
  -25.3082  -29.7302   20.1213 C   0  0  0  0  0  0  0  0  0  0  0  0
  -25.4259  -35.6121   21.7115 C   0  0  0  0  0  0  0  0  0  0  0  0
  -25.6119  -28.8643   21.1815 C   0  0  0  0  0  0  0  0  0  0  0  0
  -30.2807  -18.8984   16.5544 C   0  0  0  0  0  0  0  0  0  0  0  0
  -24.0466  -11.3553   20.0136 C   0  0  0  0  0  0  0  0  0  0  0  0
  -27.3591  -27.8455   19.8327 C   0  0  0  0  0  0  0  0  0  0  0  0
  -30.0817  -21.1471   15.6936 C   0  0  0  0  0  0  0  0  0  0  0  0
  -22.4073   -9.8356   20.7386 C   0  0  0  0  0  0  0  0  0  0  0  0
  -21.7493   -7.4939   22.1045 C   0  0  0  0  0  0  0  0  0  0  0  0
  -21.5405   -9.8852   21.8303 C   0  0  0  0  0  0  0  0  0  0  0  0
  -28.1255  -12.4689   19.8705 C   0  0  0  0  0  0  0  0  0  0  0  0
  -30.3152  -12.4676   19.6700 C   0  0  0  0  0  0  0  0  0  0  0  0
  -29.2604  -10.2305   19.3078 C   0  0  0  0  0  0  0  0  0  0  0  0
  -24.8963  -32.0036   22.3043 C   0  0  0  0  0  0  0  0  0  0  0  0
  -22.7894  -29.8779   23.5552 C   0  0  0  0  0  0  0  0  0  0  0  0
  -21.7843  -26.6306   23.8569 C   0  0  0  0  0  0  0  0  0  0  0  0
  -31.0089  -18.3529   18.9035 C   0  0  0  0  0  0  0  0  0  0  0  0
  -24.0915  -36.9128   23.4489 C   0  0  0  0  0  0  0  0  0  0  0  0
  -24.1890  -30.7270   20.2486 C   0  0  0  0  0  0  0  0  0  0  0  0
  -24.8630  -28.9163   22.4872 C   0  0  0  0  0  0  0  0  0  0  0  0
  -23.8811  -35.5776   24.1584 C   0  0  0  0  0  0  0  0  0  0  0  0
  -31.8318  -16.4728   21.8130 C   0  0  0  0  0  0  0  0  0  0  0  0
  -25.1417  -34.7230   24.0726 C   0  0  0  0  0  0  0  0  0  0  0  0
  -31.0798  -15.1544   21.6174 C   0  0  0  0  0  0  0  0  0  0  0  0
  -31.0316  -17.6650   21.2913 C   0  0  0  0  0  0  0  0  0  0  0  0
  -29.8138  -16.2223   19.7086 C   0  0  0  0  0  0  0  0  0  0  0  0
  -25.4908  -34.3997   22.6148 C   0  0  1  0  0  0  0  0  0  0  0  0
  -23.8719  -31.0877   21.6966 C   0  0  1  0  0  0  0  0  0  0  0  0
  -30.6079  -14.9856   20.1599 C   0  0  2  0  0  0  0  0  0  0  0  0
  -20.0522  -25.2004   24.9759 C   0  0  0  0  0  0  0  0  0  0  0  0
  -24.2801  -30.1490   26.2036 C   0  0  0  0  0  0  0  0  0  0  0  0
  -23.1462  -28.0548   26.9762 C   0  0  0  0  0  0  0  0  0  0  0  0
  -21.7892  -30.0704   26.4119 C   0  0  0  0  0  0  0  0  0  0  0  0
  -20.7179  -25.6886   21.2618 C   0  0  0  0  0  0  0  0  0  0  0  0
  -29.1101  -24.9878   18.4780 C   0  0  0  0  0  0  0  0  0  0  0  0
  -29.3982  -24.4053   17.0987 C   0  0  0  0  0  0  0  0  0  0  0  0
  -28.5965  -26.4187   18.3874 C   0  0  0  0  0  0  0  0  0  1  0  0
  -29.9521  -22.9905   17.1905 C   0  0  0  0  0  0  0  0  0  0  0  0
  -22.8758  -28.7472   24.5516 C   0  0  1  0  0  0  0  0  0  0  0  0
  -20.4179  -25.9825   23.7240 C   0  0  2  0  0  0  0  0  0  0  0  0
  -23.0384  -29.2555   26.0120 C   0  0  0  0  0  0  0  0  0  0  0  0
  -28.4830  -13.7357   20.0977 N   0  0  0  0  0  0  0  0  0  0  0  0
  -29.8204  -13.7029   19.9688 N   0  0  0  0  0  0  0  0  0  0  0  0
  -23.7815  -29.9121   22.5651 N   0  0  0  0  0  0  0  0  0  0  0  0
  -30.6222  -17.4361   19.9039 N   0  0  0  0  0  0  0  0  0  0  0  0
  -31.6385  -12.2571   19.5056 N   0  0  0  0  0  0  0  0  0  0  0  0
  -28.0497   -9.5253   19.2738 N   0  0  0  0  0  0  0  0  0  0  0  0
  -30.5894  -18.0140   17.6175 N   0  0  0  0  0  0  0  0  0  0  0  0
  -24.6348  -33.3467   22.1117 N   0  0  0  0  0  0  0  0  0  0  0  0
  -21.6933  -27.9208   24.3348 N   0  0  0  0  0  0  0  0  0  0  0  0
  -20.3987  -25.0477   22.5635 N   0  3  0  0  0  0  0  0  0  0  0  0
  -30.3345   -9.6166   19.1007 O   0  0  0  0  0  0  0  0  0  0  0  0
  -25.8524  -31.5271   22.9048 O   0  0  0  0  0  0  0  0  0  0  0  0
  -21.8711  -30.6965   23.6474 O   0  0  0  0  0  0  0  0  0  0  0  0
  -22.8281  -26.0490   23.5693 O   0  0  0  0  0  0  0  0  0  0  0  0
  -31.6871  -19.3499   19.1642 O   0  0  0  0  0  0  0  0  0  0  0  0
  -22.7343  -10.9971   20.0590 O   0  0  0  0  0  0  0  0  0  0  0  0
  -28.3582  -26.9315   19.6976 O   0  0  0  0  0  0  0  0  0  1  0  0
  -30.1844  -22.5016   15.8767 O   0  0  0  0  0  0  0  0  0  0  0  0
  -21.4322   -6.3692   22.7593 F   0  0  0  0  0  0  0  0  0  0  0  0
  -21.0197  -11.0545   22.2268 F   0  0  0  0  0  0  0  0  0  0  0  0
  1  2  1  0  0  0  0
  1  6  2  0  0  0  0
  2  7  2  0  0  0  0
  3  9  1  0  0  0  0
  3 10  2  0  0  0  0
  4 11  2  0  0  0  0
  4 19  1  0  0  0  0
  5 12  1  0  0  0  0
  5 19  2  0  0  0  0
  6 21  1  0  0  0  0
  7 23  1  0  0  0  0
  8 13  2  0  0  0  0
  8 22  1  0  0  0  0
  9 25  2  0  0  0  0
 10 28  1  0  0  0  0
 11 26  1  0  0  0  0
 12 26  2  0  0  0  0
 13 27  1  0  0  0  0
 14 15  2  0  0  0  0
 14 29  1  0  0  0  0
 15 30  1  0  0  0  0
 16 24  1  0  0  0  0
 16 27  2  0  0  0  0
 17 25  1  0  0  0  0
 17 28  2  0  0  0  0
 18 30  2  0  0  0  0
 18 31  1  0  0  0  0
 19 32  1  0  0  0  0
 20 32  1  0  0  0  0
 20 33  2  0  0  0  0
 20 34  1  0  0  0  0
 21 23  2  0  0  0  0
 21 39  1  0  0  0  0
 22 24  2  0  0  0  0
 22 40  1  0  0  0  0
 23 48  1  0  0  0  0
 24 41  1  0  0  0  0
 25 69  1  0  0  0  0
 26 78  1  0  0  0  0
 27 79  1  0  0  0  0
 28 80  1  0  0  0  0
 29 31  2  0  0  0  0
 29 78  1  0  0  0  0
 30 81  1  0  0  0  0
 31 82  1  0  0  0  0
 32 63  2  0  0  0  0
 33 64  1  0  0  0  0
 33 67  1  0  0  0  0
 34 68  1  0  0  0  0
 34 73  2  0  0  0  0
 35 49  1  0  0  0  0
 35 70  1  0  0  0  0
 35 74  2  0  0  0  0
 36 60  1  0  0  0  0
 36 65  1  0  0  0  0
 36 75  2  0  0  0  0
 37 61  1  0  0  0  0
 37 71  1  0  0  0  0
 37 76  2  0  0  0  0
 38 66  1  0  0  0  0
 38 69  1  0  0  0  0
 38 77  2  0  0  0  0
 39 42  1  0  0  0  0
 40 49  1  0  0  0  0
 41 65  1  0  0  0  0
 42 44  1  0  0  0  0
 43 45  1  0  0  0  0
 43 46  1  0  0  0  0
 44 48  1  0  0  0  0
 45 50  1  0  0  0  0
 46 66  1  0  0  0  0
 47 50  1  0  0  0  0
 47 66  1  0  0  0  0
 48 70  1  0  0  0  0
 49 65  1  0  0  0  0
 50 64  1  0  0  0  0
 51 61  1  0  0  0  0
 52 62  1  0  0  0  0
 53 62  1  0  0  0  0
 54 62  1  0  0  0  0
 55 72  1  0  0  0  0
 56 57  1  0  0  0  0
 56 58  1  0  0  0  0
 57 59  1  0  0  0  0
 58 79  1  0  0  0  0
 59 80  1  0  0  0  0
 60 62  1  0  0  0  0
 60 71  1  0  0  0  0
 61 72  1  0  0  0  0
 63 64  1  0  0  0  0
M  CHG  1  72   1
M  ISO  4  38 100  58 101  69 100  79 101
M  END
> <Batch ID>
0006

> <Smiles>
CNC(C)C(=O)NC(C(=O)N1Cc2cc([101O:1][101CH2:1]CCCOc3cccc([100NH:0][100C:0](=O)N4CCCC(n5nc(-c6ccc(Oc7ccc(F)cc7F)cc6)c(C(N)=O)c5N)C4)c3)ccc2CC1C(=O)NC1CCCc2ccccc21)C(C)(C)C

> <Shape>
0.287

> <Color>
0.073

> <Negative vol penalty>
0.000

$$$$

  -OEChem-04052315303D

 83 91  0     1  0  0  0  0  0999 V2000
  -19.9967  -27.5581   26.6279 C   0  0  0  0  0  0  0  0  0  0  0  0
  -21.1351  -27.1644   25.9318 C   0  0  0  0  0  0  0  0  0  0  0  0
  -24.3768   -8.3436   20.4705 C   0  0  0  0  0  0  0  0  0  0  0  0
  -23.1023  -10.3219   21.0174 C   0  0  0  0  0  0  0  0  0  0  0  0
  -18.9775  -28.2412   25.9657 C   0  0  0  0  0  0  0  0  0  0  0  0
  -21.2544  -27.4526   24.5727 C   0  0  0  0  0  0  0  0  0  0  0  0
  -25.8355  -29.2385   23.3605 C   0  0  0  0  0  0  0  0  0  0  0  0
  -30.0497  -18.3560   20.8879 C   0  0  0  0  0  0  0  0  0  0  0  0
  -23.3268   -7.5429   20.9199 C   0  0  0  0  0  0  0  0  0  0  0  0
  -22.0523   -9.5212   21.4668 C   0  0  0  0  0  0  0  0  0  0  0  0
  -26.8708  -28.3116   23.2475 C   0  0  0  0  0  0  0  0  0  0  0  0
  -30.0765  -19.7246   20.6198 C   0  0  0  0  0  0  0  0  0  0  0  0
  -22.0990   -6.4780   23.8835 C   0  0  0  0  0  0  0  0  0  0  0  0
  -22.4164   -5.3912   24.6981 C   0  0  0  0  0  0  0  0  0  0  0  0
  -26.6301  -28.3445   20.8474 C   0  0  0  0  0  0  0  0  0  0  0  0
  -28.7940  -19.3552   18.6059 C   0  0  0  0  0  0  0  0  0  0  0  0
  -21.4430   -3.8898   23.0747 C   0  0  0  0  0  0  0  0  0  0  0  0
  -24.2646   -9.7331   20.5193 C   0  0  0  0  0  0  0  0  0  0  0  0
  -25.5476  -11.0497   18.7507 C   0  0  0  0  0  0  0  0  0  0  0  0
  -19.0887  -28.5464   24.6000 C   0  0  0  0  0  0  0  0  0  0  0  0
  -25.1813  -29.7179   22.2165 C   0  0  0  0  0  0  0  0  0  0  0  0
  -20.2352  -28.1392   23.8913 C   0  0  0  0  0  0  0  0  0  0  0  0
  -25.5885  -29.2794   20.9485 C   0  0  0  0  0  0  0  0  0  0  0  0
  -29.3952  -17.4870   20.0149 C   0  0  0  0  0  0  0  0  0  0  0  0
  -22.1645   -8.1316   21.4180 C   0  0  0  0  0  0  0  0  0  0  0  0
  -27.2663  -27.8623   21.9910 C   0  0  0  0  0  0  0  0  0  0  0  0
  -29.4486  -20.2242   19.4788 C   0  0  0  0  0  0  0  0  0  0  0  0
  -21.4534   -6.2707   22.6644 C   0  0  0  0  0  0  0  0  0  0  0  0
  -22.0885   -4.0971   24.2938 C   0  0  0  0  0  0  0  0  0  0  0  0
  -21.1255   -4.9767   22.2600 C   0  0  0  0  0  0  0  0  0  0  0  0
  -28.7673  -17.9866   18.8740 C   0  0  0  0  0  0  0  0  0  0  0  0
  -25.3491  -10.5607   20.0558 C   0  0  0  0  0  0  0  0  0  0  0  0
  -26.7097  -11.7775   18.8297 C   0  0  0  0  0  0  0  0  0  0  0  0
  -24.7526  -10.8627   17.5723 C   0  0  0  0  0  0  0  0  0  0  0  0
  -22.1985  -29.6029   21.1243 C   0  0  0  0  0  0  0  0  0  0  0  0
  -23.3765  -31.5698   18.8296 C   0  0  0  0  0  0  0  0  0  0  0  0
  -26.0878  -32.6879   17.0845 C   0  0  0  0  0  0  0  0  0  0  0  0
  -29.9761  -15.4735   21.4130 C   0  0  0  0  0  0  0  0  0  0  0  0
  -17.9401  -29.2450   23.9164 C   0  0  0  0  0  0  0  0  0  0  0  0
  -24.0843  -30.7378   22.3538 C   0  0  0  0  0  0  0  0  0  0  0  0
  -24.9321  -29.7786   19.6882 C   0  0  0  0  0  0  0  0  0  0  0  0
  -18.3098  -29.8412   22.5606 C   0  0  0  0  0  0  0  0  0  0  0  0
  -30.1516  -12.0964   22.5275 C   0  0  0  0  0  0  0  0  0  0  0  0
  -19.0967  -28.8322   21.7304 C   0  0  0  0  0  0  0  0  0  0  0  0
  -28.9342  -11.4361   21.8764 C   0  0  0  0  0  0  0  0  0  0  0  0
  -29.8554  -13.5316   22.9589 C   0  0  0  0  0  0  0  0  0  0  0  0
  -28.0872  -13.7348   21.2555 C   0  0  0  0  0  0  0  0  0  0  0  0
  -20.4124  -28.4553   22.4220 C   0  0  1  0  0  0  0  0  0  0  0  0
  -23.1445  -30.7699   21.1525 C   0  0  1  0  0  0  0  0  0  0  0  0
  -28.3567  -12.3097   20.7455 C   0  0  2  0  0  0  0  0  0  0  0  0
  -26.7317  -34.2706   15.2465 C   0  0  0  0  0  0  0  0  0  0  0  0
  -22.2695  -29.6167   16.7633 C   0  0  0  0  0  0  0  0  0  0  0  0
  -23.7291  -30.7115   15.0489 C   0  0  0  0  0  0  0  0  0  0  0  0
  -21.9483  -32.0306   16.1941 C   0  0  0  0  0  0  0  0  0  0  0  0
  -27.8374  -34.2529   18.8870 C   0  0  0  0  0  0  0  0  0  0  0  0
  -28.8680  -24.7348   21.1420 C   0  0  0  0  0  0  0  0  0  0  0  0
  -28.8549  -23.7540   19.9746 C   0  0  0  0  0  0  0  0  0  0  0  0
  -28.2260  -26.0637   20.7662 C   0  0  0  0  0  0  0  0  0  1  0  0
  -29.5346  -22.4408   20.3360 C   0  0  0  0  0  0  0  0  0  0  0  0
  -24.0229  -31.3711   17.4799 C   0  0  1  0  0  0  0  0  0  0  0  0
  -26.5599  -34.0906   16.7468 C   0  0  2  0  0  0  0  0  0  0  0  0
  -23.0037  -30.9214   16.3952 C   0  0  0  0  0  0  0  0  0  0  0  0
  -26.3084  -10.9454   20.9019 N   0  0  0  0  0  0  0  0  0  0  0  0
  -27.1208  -11.6837   20.1268 N   0  0  0  0  0  0  0  0  0  0  0  0
  -23.8602  -30.7703   19.8750 N   0  0  0  0  0  0  0  0  0  0  0  0
  -29.3155  -14.3005   21.8354 N   0  0  0  0  0  0  0  0  0  0  0  0
  -27.4099  -12.4821   17.9155 N   0  0  0  0  0  0  0  0  0  0  0  0
  -23.5896  -10.0863   17.6672 N   0  0  0  0  0  0  0  0  0  0  0  0
  -29.3893  -16.1022   20.3153 N   0  0  0  0  0  0  0  0  0  0  0  0
  -21.3950  -29.5028   22.2442 N   0  0  0  0  0  0  0  0  0  0  0  0
  -24.7134  -32.6184   17.1704 N   0  0  0  0  0  0  0  0  0  0  0  0
  -27.8667  -34.3702   17.4063 N   0  3  0  0  0  0  0  0  0  0  0  0
  -25.0730  -11.3555   16.4641 O   0  0  0  0  0  0  0  0  0  0  0  0
  -22.1964  -28.8499   20.1575 O   0  0  0  0  0  0  0  0  0  0  0  0
  -22.4807  -32.4087   18.9535 O   0  0  0  0  0  0  0  0  0  0  0  0
  -26.8608  -31.7471   17.2514 O   0  0  0  0  0  0  0  0  0  0  0  0
  -31.0034  -15.8746   21.9660 O   0  0  0  0  0  0  0  0  0  0  0  0
  -21.1396   -7.3506   21.8563 O   0  0  0  0  0  0  0  0  0  0  0  0
  -28.2761  -26.9571   21.8778 O   0  0  0  0  0  0  0  0  0  1  0  0
  -29.4758  -21.5691   19.2155 O   0  0  0  0  0  0  0  0  0  0  0  0
  -22.3948   -3.0535   25.0755 F   0  0  0  0  0  0  0  0  0  0  0  0
  -20.5064   -4.7712   21.0894 F   0  0  0  0  0  0  0  0  0  0  0  0
  -27.9441  -16.9459   17.7676 Cl  0  0  0  0  0  0  0  0  0  0  0  0
  1  2  1  0  0  0  0
  1  5  2  0  0  0  0
  2  6  2  0  0  0  0
  3  9  2  0  0  0  0
  3 18  1  0  0  0  0
  4 10  1  0  0  0  0
  4 18  2  0  0  0  0
  5 20  1  0  0  0  0
  6 22  1  0  0  0  0
  7 11  2  0  0  0  0
  7 21  1  0  0  0  0
  8 12  2  0  0  0  0
  8 24  1  0  0  0  0
  9 25  1  0  0  0  0
 10 25  2  0  0  0  0
 11 26  1  0  0  0  0
 12 27  1  0  0  0  0
 13 14  2  0  0  0  0
 13 28  1  0  0  0  0
 14 29  1  0  0  0  0
 15 23  1  0  0  0  0
 15 26  2  0  0  0  0
 16 27  2  0  0  0  0
 16 31  1  0  0  0  0
 17 29  2  0  0  0  0
 17 30  1  0  0  0  0
 18 32  1  0  0  0  0
 19 32  1  0  0  0  0
 19 33  2  0  0  0  0
 19 34  1  0  0  0  0
 20 22  2  0  0  0  0
 20 39  1  0  0  0  0
 21 23  2  0  0  0  0
 21 40  1  0  0  0  0
 22 48  1  0  0  0  0
 23 41  1  0  0  0  0
 24 31  2  0  0  0  0
 24 69  1  0  0  0  0
 25 78  1  0  0  0  0
 26 79  1  0  0  0  0
 27 80  1  0  0  0  0
 28 30  2  0  0  0  0
 28 78  1  0  0  0  0
 29 81  1  0  0  0  0
 30 82  1  0  0  0  0
 31 83  1  0  0  0  0
 32 63  2  0  0  0  0
 33 64  1  0  0  0  0
 33 67  1  0  0  0  0
 34 68  1  0  0  0  0
 34 73  2  0  0  0  0
 35 49  1  0  0  0  0
 35 70  1  0  0  0  0
 35 74  2  0  0  0  0
 36 60  1  0  0  0  0
 36 65  1  0  0  0  0
 36 75  2  0  0  0  0
 37 61  1  0  0  0  0
 37 71  1  0  0  0  0
 37 76  2  0  0  0  0
 38 66  1  0  0  0  0
 38 69  1  0  0  0  0
 38 77  2  0  0  0  0
 39 42  1  0  0  0  0
 40 49  1  0  0  0  0
 41 65  1  0  0  0  0
 42 44  1  0  0  0  0
 43 45  1  0  0  0  0
 43 46  1  0  0  0  0
 44 48  1  0  0  0  0
 45 50  1  0  0  0  0
 46 66  1  0  0  0  0
 47 50  1  0  0  0  0
 47 66  1  0  0  0  0
 48 70  1  0  0  0  0
 49 65  1  0  0  0  0
 50 64  1  0  0  0  0
 51 61  1  0  0  0  0
 52 62  1  0  0  0  0
 53 62  1  0  0  0  0
 54 62  1  0  0  0  0
 55 72  1  0  0  0  0
 56 57  1  0  0  0  0
 56 58  1  0  0  0  0
 57 59  1  0  0  0  0
 58 79  1  0  0  0  0
 59 80  1  0  0  0  0
 60 62  1  0  0  0  0
 60 71  1  0  0  0  0
 61 72  1  0  0  0  0
 63 64  1  0  0  0  0
M  CHG  1  72   1
M  ISO  4  38 100  58 101  69 100  79 101
M  END
> <Batch ID>
0006

> <Smiles>
CNC(C)C(=O)NC(C(=O)N1Cc2cc([101O:1][101CH2:1]CCCOc3ccc([100NH:0][100C:0](=O)N4CCCC(n5nc(-c6ccc(Oc7ccc(F)cc7F)cc6)c(C(N)=O)c5N)C4)c(Cl)c3)ccc2CC1C(=O)NC1CCCc2ccccc21)C(C)(C)C

> <Shape>
0.287

> <Color>
0.106

> <Negative vol penalty>
0.000

$$$$

  -OEChem-04052315303D

 90 97  0     1  0  0  0  0  0999 V2000
  -30.7602  -25.9458   23.4490 C   0  0  0  0  0  0  0  0  0  0  0  0
  -29.9206  -26.4810   22.4774 C   0  0  0  0  0  0  0  0  0  0  0  0
  -26.4007  -12.2273   21.7278 C   0  0  0  0  0  0  0  0  0  0  0  0
  -25.6257  -13.5621   19.8692 C   0  0  0  0  0  0  0  0  0  0  0  0
  -30.2183  -25.2713   24.5423 C   0  0  0  0  0  0  0  0  0  0  0  0
  -28.5385  -26.3411   22.5980 C   0  0  0  0  0  0  0  0  0  0  0  0
  -26.0561  -30.6406   21.5995 C   0  0  0  0  0  0  0  0  0  0  0  0
  -25.2006  -11.5166   21.7179 C   0  0  0  0  0  0  0  0  0  0  0  0
  -24.4255  -12.8514   19.8592 C   0  0  0  0  0  0  0  0  0  0  0  0
  -25.8967  -30.9871   20.2585 C   0  0  0  0  0  0  0  0  0  0  0  0
  -23.8014   -9.0159   19.9231 C   0  0  0  0  0  0  0  0  0  0  0  0
  -23.8697   -7.6268   20.0303 C   0  0  0  0  0  0  0  0  0  0  0  0
  -23.6419  -30.1316   20.3117 C   0  0  0  0  0  0  0  0  0  0  0  0
  -22.5541   -7.7183   22.0546 C   0  0  0  0  0  0  0  0  0  0  0  0
  -26.6133  -13.2502   20.8035 C   0  0  0  0  0  0  0  0  0  0  0  0
  -29.0285  -13.6786   20.1029 C   0  0  0  0  0  0  0  0  0  0  0  0
  -28.8284  -25.1315   24.6813 C   0  0  0  0  0  0  0  0  0  0  0  0
  -25.0115  -30.0260   22.3049 C   0  0  0  0  0  0  0  0  0  0  0  0
  -27.9775  -25.6630   23.6935 C   0  0  0  0  0  0  0  0  0  0  0  0
  -23.7896  -29.7806   21.6623 C   0  0  0  0  0  0  0  0  0  0  0  0
  -24.2130  -11.8286   20.7836 C   0  0  0  0  0  0  0  0  0  0  0  0
  -24.6905  -30.7300   19.6136 C   0  0  0  0  0  0  0  0  0  0  0  0
  -23.1095   -9.7562   20.8817 C   0  0  0  0  0  0  0  0  0  0  0  0
  -23.2460   -6.9781   21.0960 C   0  0  0  0  0  0  0  0  0  0  0  0
  -22.4858   -9.1074   21.9474 C   0  0  0  0  0  0  0  0  0  0  0  0
  -27.8526  -13.9851   20.8136 C   0  0  0  0  0  0  0  0  0  0  0  0
  -29.9087  -14.6743   20.4498 C   0  0  0  0  0  0  0  0  0  0  0  0
  -29.3008  -12.5912   19.2090 C   0  0  0  0  0  0  0  0  0  0  0  0
  -24.6294  -27.2248   23.7577 C   0  0  0  0  0  0  0  0  0  0  0  0
  -21.8099  -28.5320   24.6872 C   0  0  0  0  0  0  0  0  0  0  0  0
  -29.6556  -21.9930   19.6484 C   0  0  0  0  0  0  0  0  0  0  0  0
  -30.2471  -23.3022   16.7091 C   0  0  0  0  0  0  0  0  0  0  0  0
  -25.3368  -30.7430   16.0456 C   0  0  0  0  0  0  0  0  0  0  0  0
  -19.3442  -30.8181   24.1035 C   0  0  0  0  0  0  0  0  0  0  0  0
  -29.1558  -20.2883   22.3907 C   0  0  0  0  0  0  0  0  0  0  0  0
  -28.2911  -24.3531   25.8561 C   0  0  0  0  0  0  0  0  0  0  0  0
  -25.1902  -29.6827   23.7584 C   0  0  0  0  0  0  0  0  0  0  0  0
  -22.6303  -29.1413   22.3804 C   0  0  0  0  0  0  0  0  0  0  0  0
  -26.8009  -24.5737   26.1026 C   0  0  0  0  0  0  0  0  0  0  0  0
  -30.9428  -17.6792   24.0264 C   0  0  0  0  0  0  0  0  0  0  0  0
  -26.0229  -24.4742   24.7943 C   0  0  0  0  0  0  0  0  0  0  0  0
  -30.4596  -16.4090   23.3244 C   0  0  0  0  0  0  0  0  0  0  0  0
  -29.8202  -18.7038   24.1751 C   0  0  0  0  0  0  0  0  0  0  0  0
  -28.6425  -17.7777   22.2182 C   0  0  0  0  0  0  0  0  0  0  0  0
  -26.4720  -25.5534   23.8018 C   0  0  1  0  0  0  0  0  0  0  0  0
  -24.2354  -28.5933   24.2368 C   0  0  1  0  0  0  0  0  0  0  0  0
  -29.7532  -16.7370   21.9952 C   0  0  2  0  0  0  0  0  0  0  0  0
  -17.1492  -31.6240   25.0145 C   0  0  0  0  0  0  0  0  0  0  0  0
  -20.4311  -26.0620   23.5433 C   0  0  0  0  0  0  0  0  0  0  0  0
  -18.2693  -27.3230   23.6114 C   0  0  0  0  0  0  0  0  0  0  0  0
  -19.5059  -26.8559   25.7269 C   0  0  0  0  0  0  0  0  0  0  0  0
  -20.4037  -33.5428   24.5645 C   0  0  0  0  0  0  0  0  0  0  0  0
  -28.4392  -21.7475   20.5155 C   0  0  0  0  0  0  0  0  0  0  0  0
  -30.6088  -23.7086   18.1149 C   0  0  0  0  0  0  0  0  0  0  0  0
  -25.6995  -31.0472   17.4835 C   0  0  0  0  0  0  0  0  0  1  0  0
  -27.8887  -26.8713   13.6707 C   0  0  0  0  0  0  0  0  0  0  0  0
  -29.2014  -26.2528   14.1574 C   0  0  0  0  0  0  0  0  0  0  0  0
  -27.8320  -28.3699   13.9768 C   0  0  0  0  0  0  0  0  0  0  0  0
  -29.2423  -24.7477   13.8762 C   0  0  0  0  0  0  0  0  0  0  0  0
  -26.5306  -28.9915   13.4618 C   0  0  0  0  0  0  0  0  0  0  0  0
  -30.5288  -24.0718   14.3549 C   0  0  0  0  0  0  0  0  0  0  0  0
  -26.3857  -30.4757   13.8065 C   0  0  0  0  0  0  0  0  0  0  0  0
  -20.4136  -28.5797   24.1154 C   0  0  1  0  0  0  0  0  0  0  0  0
  -18.6579  -31.8154   25.0194 C   0  0  2  0  0  0  0  0  0  0  0  0
  -19.6773  -27.2155   24.2349 C   0  0  0  0  0  0  0  0  0  0  0  0
  -27.9717  -15.0890   21.5561 N   0  0  0  0  0  0  0  0  0  0  0  0
  -29.2329  -15.4848   21.3139 N   0  0  0  0  0  0  0  0  0  0  0  0
  -22.8563  -28.8183   23.7989 N   0  0  0  0  0  0  0  0  0  0  0  0
  -29.1928  -18.9717   22.8787 N   0  0  0  0  0  0  0  0  0  0  0  0
  -31.1871  -14.9267   20.0971 N   0  0  0  0  0  0  0  0  0  0  0  0
  -28.2846  -11.6578   18.9634 N   0  0  0  0  0  0  0  0  0  0  0  0
  -25.8948  -26.8335   24.1517 N   0  0  0  0  0  0  0  0  0  0  0  0
  -29.5799  -23.2265   19.0478 N   0  0  0  0  0  0  0  0  0  0  0  0
  -30.7290  -24.2147   15.7919 N   0  0  0  0  0  0  0  0  0  0  0  0
  -26.4542  -30.7376   15.2255 N   0  0  0  0  0  0  0  0  0  0  0  0
  -19.7360  -29.6850   24.7844 N   0  0  0  0  0  0  0  0  0  0  0  0
  -28.5487  -20.4537   21.1518 N   0  0  0  0  0  0  0  0  0  0  0  0
  -18.9562  -33.2091   24.5840 N   0  3  0  0  0  0  0  0  0  0  0  0
  -30.4176  -12.4423   18.6576 O   0  0  0  0  0  0  0  0  0  0  0  0
  -23.8431  -26.5715   23.0820 O   0  0  0  0  0  0  0  0  0  0  0  0
  -21.9660  -28.2580   25.8797 O   0  0  0  0  0  0  0  0  0  0  0  0
  -30.5509  -21.1664   19.4938 O   0  0  0  0  0  0  0  0  0  0  0  0
  -29.6094  -22.2872   16.4420 O   0  0  0  0  0  0  0  0  0  0  0  0
  -24.1829  -30.5326   15.6818 O   0  0  0  0  0  0  0  0  0  0  0  0
  -19.5124  -31.0222   22.9032 O   0  0  0  0  0  0  0  0  0  0  0  0
  -29.6334  -21.2447   23.0105 O   0  0  0  0  0  0  0  0  0  0  0  0
  -23.0419  -11.1351   20.7734 O   0  0  0  0  0  0  0  0  0  0  0  0
  -24.5325  -31.0666   18.3045 O   0  0  0  0  0  0  0  0  0  1  0  0
  -23.3104   -5.6440   21.1979 F   0  0  0  0  0  0  0  0  0  0  0  0
  -21.8186   -9.8132   22.8708 F   0  0  0  0  0  0  0  0  0  0  0  0
  1  2  1  0  0  0  0
  1  5  2  0  0  0  0
  2  6  2  0  0  0  0
  3  8  2  0  0  0  0
  3 15  1  0  0  0  0
  4  9  1  0  0  0  0
  4 15  2  0  0  0  0
  5 17  1  0  0  0  0
  6 19  1  0  0  0  0
  7 10  2  0  0  0  0
  7 18  1  0  0  0  0
  8 21  1  0  0  0  0
  9 21  2  0  0  0  0
 10 22  1  0  0  0  0
 11 12  2  0  0  0  0
 11 23  1  0  0  0  0
 12 24  1  0  0  0  0
 13 20  1  0  0  0  0
 13 22  2  0  0  0  0
 14 24  2  0  0  0  0
 14 25  1  0  0  0  0
 15 26  1  0  0  0  0
 16 26  1  0  0  0  0
 16 27  2  0  0  0  0
 16 28  1  0  0  0  0
 17 19  2  0  0  0  0
 17 36  1  0  0  0  0
 18 20  2  0  0  0  0
 18 37  1  0  0  0  0
 19 45  1  0  0  0  0
 20 38  1  0  0  0  0
 21 87  1  0  0  0  0
 22 88  1  0  0  0  0
 23 25  2  0  0  0  0
 23 87  1  0  0  0  0
 24 89  1  0  0  0  0
 25 90  1  0  0  0  0
 26 66  2  0  0  0  0
 27 67  1  0  0  0  0
 27 70  1  0  0  0  0
 28 71  1  0  0  0  0
 28 79  2  0  0  0  0
 29 46  1  0  0  0  0
 29 72  1  0  0  0  0
 29 80  2  0  0  0  0
 30 63  1  0  0  0  0
 30 68  1  0  0  0  0
 30 81  2  0  0  0  0
 31 53  1  0  0  0  0
 31 73  1  0  0  0  0
 31 82  2  0  0  0  0
 32 54  1  0  0  0  0
 32 74  1  0  0  0  0
 32 83  2  0  0  0  0
 33 55  1  0  0  0  0
 33 75  1  0  0  0  0
 33 84  2  0  0  0  0
 34 64  1  0  0  0  0
 34 76  1  0  0  0  0
 34 85  2  0  0  0  0
 35 69  1  0  0  0  0
 35 77  1  0  0  0  0
 35 86  2  0  0  0  0
 36 39  1  0  0  0  0
 37 46  1  0  0  0  0
 38 68  1  0  0  0  0
 39 41  1  0  0  0  0
 40 42  1  0  0  0  0
 40 43  1  0  0  0  0
 41 45  1  0  0  0  0
 42 47  1  0  0  0  0
 43 69  1  0  0  0  0
 44 47  1  0  0  0  0
 44 69  1  0  0  0  0
 45 72  1  0  0  0  0
 46 68  1  0  0  0  0
 47 67  1  0  0  0  0
 48 64  1  0  0  0  0
 49 65  1  0  0  0  0
 50 65  1  0  0  0  0
 51 65  1  0  0  0  0
 52 78  1  0  0  0  0
 53 77  1  0  0  0  0
 54 73  1  0  0  0  0
 55 88  1  0  0  0  0
 56 57  1  0  0  0  0
 56 58  1  0  0  0  0
 57 59  1  0  0  0  0
 58 60  1  0  0  0  0
 59 61  1  0  0  0  0
 60 62  1  0  0  0  0
 61 74  1  0  0  0  0
 62 75  1  0  0  0  0
 63 65  1  0  0  0  0
 63 76  1  0  0  0  0
 64 78  1  0  0  0  0
 66 67  1  0  0  0  0
M  CHG  1  78   1
M  ISO  4  35 100  55 101  77 100  88 101
M  END
> <Batch ID>
0006

> <Smiles>
CNC(C)C(=O)NC(C(=O)N1Cc2cc([101O:1][101CH2:1]C(=O)NCCCCCCCNC(=O)CNC(=O)C[100NH:0][100C:0](=O)N3CCCC(n4nc(-c5ccc(Oc6ccc(F)cc6F)cc5)c(C(N)=O)c4N)C3)ccc2CC1C(=O)NC1CCCc2ccccc21)C(C)(C)C

> <Shape>
0.256

> <Color>
0.055

> <Negative vol penalty>
0.000

$$$$

  -OEChem-04052315303D

 84 92  0     1  0  0  0  0  0999 V2000
  -39.0140  -28.9115   19.0900 C   0  0  0  0  0  0  0  0  0  0  0  0
  -38.9259  -27.6017   19.5504 C   0  0  0  0  0  0  0  0  0  0  0  0
  -23.0751   -9.8688   19.9404 C   0  0  0  0  0  0  0  0  0  0  0  0
  -23.8348   -9.8747   22.2339 C   0  0  0  0  0  0  0  0  0  0  0  0
  -39.5842  -29.8957   19.8963 C   0  0  0  0  0  0  0  0  0  0  0  0
  -39.4090  -27.2751   20.8171 C   0  0  0  0  0  0  0  0  0  0  0  0
  -36.2226  -24.3110   23.4067 C   0  0  0  0  0  0  0  0  0  0  0  0
  -30.5033  -18.3387   24.0503 C   0  0  0  0  0  0  0  0  0  0  0  0
  -31.8906  -18.3414   24.1946 C   0  0  0  0  0  0  0  0  0  0  0  0
  -22.3308   -8.7159   20.1899 C   0  0  0  0  0  0  0  0  0  0  0  0
  -23.0904   -8.7218   22.4834 C   0  0  0  0  0  0  0  0  0  0  0  0
  -36.1998  -22.9572   23.0743 C   0  0  0  0  0  0  0  0  0  0  0  0
  -19.8618   -7.9251   23.0853 C   0  0  0  0  0  0  0  0  0  0  0  0
  -19.1047   -7.8851   24.2561 C   0  0  0  0  0  0  0  0  0  0  0  0
  -37.6072  -22.4735   24.9728 C   0  0  0  0  0  0  0  0  0  0  0  0
  -32.0663  -16.5913   22.5383 C   0  0  0  0  0  0  0  0  0  0  0  0
  -20.3453   -5.9469   24.9921 C   0  0  0  0  0  0  0  0  0  0  0  0
  -23.8272  -10.4482   20.9624 C   0  0  0  0  0  0  0  0  0  0  0  0
  -24.1700  -12.9733   20.8432 C   0  0  0  0  0  0  0  0  0  0  0  0
  -40.0657  -29.5830   21.1773 C   0  0  0  0  0  0  0  0  0  0  0  0
  -36.9480  -24.7584   24.5203 C   0  0  0  0  0  0  0  0  0  0  0  0
  -39.9873  -28.2558   21.6407 C   0  0  0  0  0  0  0  0  0  0  0  0
  -37.6355  -23.8332   25.3187 C   0  0  0  0  0  0  0  0  0  0  0  0
  -29.8974  -17.4622   23.1501 C   0  0  0  0  0  0  0  0  0  0  0  0
  -32.6721  -17.4677   23.4386 C   0  0  0  0  0  0  0  0  0  0  0  0
  -30.6789  -16.5886   22.3940 C   0  0  0  0  0  0  0  0  0  0  0  0
  -22.3383   -8.1424   21.4614 C   0  0  0  0  0  0  0  0  0  0  0  0
  -36.8946  -22.0386   23.8557 C   0  0  0  0  0  0  0  0  0  0  0  0
  -20.8606   -6.9760   22.8678 C   0  0  0  0  0  0  0  0  0  0  0  0
  -19.3465   -6.8961   25.2095 C   0  0  0  0  0  0  0  0  0  0  0  0
  -21.1024   -5.9869   23.8212 C   0  0  0  0  0  0  0  0  0  0  0  0
  -24.5968  -11.6389   20.7051 C   0  0  0  0  0  0  0  0  0  0  0  0
  -25.2625  -13.7224   20.4803 C   0  0  0  0  0  0  0  0  0  0  0  0
  -22.8997  -13.4895   21.2621 C   0  0  0  0  0  0  0  0  0  0  0  0
  -39.4099  -26.7220   24.9524 C   0  0  0  0  0  0  0  0  0  0  0  0
  -38.7611  -26.2166   28.0902 C   0  0  0  0  0  0  0  0  0  0  0  0
  -34.8087  -18.6478   23.9470 C   0  0  0  0  0  0  0  0  0  0  0  0
  -37.3876  -24.2001   30.4764 C   0  0  0  0  0  0  0  0  0  0  0  0
  -30.7291  -14.7658   20.6558 C   0  0  0  0  0  0  0  0  0  0  0  0
  -40.7168  -30.6712   21.9937 C   0  0  0  0  0  0  0  0  0  0  0  0
  -36.9406  -26.2186   24.8809 C   0  0  0  0  0  0  0  0  0  0  0  0
  -38.4128  -24.2597   26.5363 C   0  0  0  0  0  0  0  0  0  0  0  0
  -40.8647  -30.3182   23.4715 C   0  0  0  0  0  0  0  0  0  0  0  0
  -29.6140  -12.3532   18.2867 C   0  0  0  0  0  0  0  0  0  0  0  0
  -41.4238  -28.9078   23.6300 C   0  0  0  0  0  0  0  0  0  0  0  0
  -28.1742  -12.0620   18.7160 C   0  0  0  0  0  0  0  0  0  0  0  0
  -30.5291  -12.5812   19.4885 C   0  0  0  0  0  0  0  0  0  0  0  0
  -28.6223  -13.3060   20.8698 C   0  0  0  0  0  0  0  0  0  0  0  0
  -40.4776  -27.8673   23.0187 C   0  0  1  0  0  0  0  0  0  0  0  0
  -38.1335  -26.6281   25.7394 C   0  0  1  0  0  0  0  0  0  0  0  0
  -27.6495  -13.1335   19.6918 C   0  0  2  0  0  0  0  0  0  0  0  0
  -28.4092  -17.4812   23.0163 C   0  0  0  0  0  0  0  0  0  0  0  0
  -37.0457  -24.0345   32.9570 C   0  0  0  0  0  0  0  0  0  0  0  0
  -41.6857  -25.4189   28.4375 C   0  0  0  0  0  0  0  0  0  0  0  0
  -41.0696  -24.3809   30.6310 C   0  0  0  0  0  0  0  0  0  0  0  0
  -40.7635  -26.8320   30.2834 C   0  0  0  0  0  0  0  0  0  0  0  0
  -34.7897  -16.1712   23.4533 C   0  0  0  0  0  0  0  0  0  0  0  0
  -34.4422  -24.2046   30.1877 C   0  0  0  0  0  0  0  0  0  0  0  0
  -36.3026  -18.4801   24.2262 C   0  0  0  0  0  0  0  0  0  0  0  0
  -36.9938  -19.7843   24.6066 C   0  0  0  0  0  0  0  0  0  1  0  0
  -39.2058  -25.2119   29.1255 C   0  0  1  0  0  0  0  0  0  0  0  0
  -36.4554  -24.5023   31.6358 C   0  0  2  0  0  0  0  0  0  0  0  0
  -40.6682  -25.4528   29.5953 C   0  0  0  0  0  0  0  0  0  0  0  0
  -25.8616  -11.5426   20.2869 N   0  0  0  0  0  0  0  0  0  0  0  0
  -26.2391  -12.8261   20.1590 N   0  0  0  0  0  0  0  0  0  0  0  0
  -38.3803  -25.6990   26.8440 N   0  0  0  0  0  0  0  0  0  0  0  0
  -29.9704  -13.6120   20.3662 N   0  0  0  0  0  0  0  0  0  0  0  0
  -25.4735  -15.0538   20.4077 N   0  0  0  0  0  0  0  0  0  0  0  0
  -21.8874  -12.5806   21.5990 N   0  0  0  0  0  0  0  0  0  0  0  0
  -30.0820  -15.6908   21.4745 N   0  0  0  0  0  0  0  0  0  0  0  0
  -39.3592  -27.6199   23.9032 N   0  0  0  0  0  0  0  0  0  0  0  0
  -38.2173  -25.2654   30.1972 N   0  0  0  0  0  0  0  0  0  0  0  0
  -34.1135  -17.4709   23.5889 N   0  0  0  0  0  0  0  0  0  0  0  0
  -35.1453  -23.8199   31.4385 N   0  3  0  0  0  0  0  0  0  0  0  0
  -22.6640  -14.7201   21.3198 O   0  0  0  0  0  0  0  0  0  0  0  0
  -40.3703  -26.0321   25.2741 O   0  0  0  0  0  0  0  0  0  0  0  0
  -38.7453  -27.4157   28.3789 O   0  0  0  0  0  0  0  0  0  0  0  0
  -34.2908  -19.7602   24.0741 O   0  0  0  0  0  0  0  0  0  0  0  0
  -37.3830  -23.1251   29.8807 O   0  0  0  0  0  0  0  0  0  0  0  0
  -31.8583  -14.9342   20.1884 O   0  0  0  0  0  0  0  0  0  0  0  0
  -21.6119   -7.0175   21.7053 O   0  0  0  0  0  0  0  0  0  0  0  0
  -36.8745  -20.7167   23.5330 O   0  0  0  0  0  0  0  0  0  1  0  0
  -18.6204   -6.8587   26.3345 F   0  0  0  0  0  0  0  0  0  0  0  0
  -22.0613   -5.0731   23.6184 F   0  0  0  0  0  0  0  0  0  0  0  0
  1  2  1  0  0  0  0
  1  5  2  0  0  0  0
  2  6  2  0  0  0  0
  3 10  2  0  0  0  0
  3 18  1  0  0  0  0
  4 11  1  0  0  0  0
  4 18  2  0  0  0  0
  5 20  1  0  0  0  0
  6 22  1  0  0  0  0
  7 12  2  0  0  0  0
  7 21  1  0  0  0  0
  8  9  2  0  0  0  0
  8 24  1  0  0  0  0
  9 25  1  0  0  0  0
 10 27  1  0  0  0  0
 11 27  2  0  0  0  0
 12 28  1  0  0  0  0
 13 14  2  0  0  0  0
 13 29  1  0  0  0  0
 14 30  1  0  0  0  0
 15 23  1  0  0  0  0
 15 28  2  0  0  0  0
 16 25  2  0  0  0  0
 16 26  1  0  0  0  0
 17 30  2  0  0  0  0
 17 31  1  0  0  0  0
 18 32  1  0  0  0  0
 19 32  1  0  0  0  0
 19 33  2  0  0  0  0
 19 34  1  0  0  0  0
 20 22  2  0  0  0  0
 20 40  1  0  0  0  0
 21 23  2  0  0  0  0
 21 41  1  0  0  0  0
 22 49  1  0  0  0  0
 23 42  1  0  0  0  0
 24 26  2  0  0  0  0
 24 52  1  0  0  0  0
 25 73  1  0  0  0  0
 26 70  1  0  0  0  0
 27 81  1  0  0  0  0
 28 82  1  0  0  0  0
 29 31  2  0  0  0  0
 29 81  1  0  0  0  0
 30 83  1  0  0  0  0
 31 84  1  0  0  0  0
 32 64  2  0  0  0  0
 33 65  1  0  0  0  0
 33 68  1  0  0  0  0
 34 69  1  0  0  0  0
 34 75  2  0  0  0  0
 35 50  1  0  0  0  0
 35 71  1  0  0  0  0
 35 76  2  0  0  0  0
 36 61  1  0  0  0  0
 36 66  1  0  0  0  0
 36 77  2  0  0  0  0
 37 59  1  0  0  0  0
 37 73  1  0  0  0  0
 37 78  2  0  0  0  0
 38 62  1  0  0  0  0
 38 72  1  0  0  0  0
 38 79  2  0  0  0  0
 39 67  1  0  0  0  0
 39 70  1  0  0  0  0
 39 80  2  0  0  0  0
 40 43  1  0  0  0  0
 41 50  1  0  0  0  0
 42 66  1  0  0  0  0
 43 45  1  0  0  0  0
 44 46  1  0  0  0  0
 44 47  1  0  0  0  0
 45 49  1  0  0  0  0
 46 51  1  0  0  0  0
 47 67  1  0  0  0  0
 48 51  1  0  0  0  0
 48 67  1  0  0  0  0
 49 71  1  0  0  0  0
 50 66  1  0  0  0  0
 51 65  1  0  0  0  0
 53 62  1  0  0  0  0
 54 63  1  0  0  0  0
 55 63  1  0  0  0  0
 56 63  1  0  0  0  0
 57 73  1  0  0  0  0
 58 74  1  0  0  0  0
 59 60  1  0  0  0  0
 60 82  1  0  0  0  0
 61 63  1  0  0  0  0
 61 72  1  0  0  0  0
 62 74  1  0  0  0  0
 64 65  1  0  0  0  0
M  CHG  1  74   1
M  ISO  4  39 100  60 101  70 100  82 101
M  END
> <Batch ID>
0006

> <Smiles>
CNC(C)C(=O)NC(C(=O)N1Cc2cc([101O:1][101CH2:1]CC(=O)N(C)c3ccc(C)c([100NH:0][100C:0](=O)N4CCCC(n5nc(-c6ccc(Oc7ccc(F)cc7F)cc6)c(C(N)=O)c5N)C4)c3)ccc2CC1C(=O)NC1CCCc2ccccc21)C(C)(C)C

> <Shape>
0.167

> <Color>
0.196

> <Negative vol penalty>
0.000

$$$$

  -OEChem-04052315303D

104112  0     1  0  0  0  0  0999 V2000
  -32.2095  -14.0055   20.1238 C   0  0  0  0  0  0  0  0  0  0  0  0
  -31.4729  -14.9543   20.8256 C   0  0  0  0  0  0  0  0  0  0  0  0
  -22.5295  -30.5409   20.3190 C   0  0  0  0  0  0  0  0  0  0  0  0
  -22.5586  -28.8776   22.0710 C   0  0  0  0  0  0  0  0  0  0  0  0
  -31.5639  -13.1251   19.2567 C   0  0  0  0  0  0  0  0  0  0  0  0
  -30.0901  -15.0241   20.6597 C   0  0  0  0  0  0  0  0  0  0  0  0
  -25.9385  -16.4648   24.9251 C   0  0  0  0  0  0  0  0  0  0  0  0
  -21.1463  -30.3997   20.2079 C   0  0  0  0  0  0  0  0  0  0  0  0
  -21.1754  -28.7364   21.9599 C   0  0  0  0  0  0  0  0  0  0  0  0
  -25.2702  -17.6522   25.2203 C   0  0  0  0  0  0  0  0  0  0  0  0
  -18.4141  -30.4013   22.9719 C   0  0  0  0  0  0  0  0  0  0  0  0
  -17.6714  -30.3627   24.1519 C   0  0  0  0  0  0  0  0  0  0  0  0
  -23.3906  -16.9155   23.8998 C   0  0  0  0  0  0  0  0  0  0  0  0
  -29.8058  -22.9246   20.7227 C   0  0  0  0  0  0  0  0  0  0  0  0
  -28.7045  -22.1807   23.1755 C   0  0  0  0  0  0  0  0  0  0  0  0
  -16.8620  -28.1618   23.5705 C   0  0  0  0  0  0  0  0  0  0  0  0
  -23.2357  -29.7798   21.2505 C   0  0  0  0  0  0  0  0  0  0  0  0
  -25.3643  -30.8164   22.2004 C   0  0  0  0  0  0  0  0  0  0  0  0
  -30.1713  -13.1777   19.0874 C   0  0  0  0  0  0  0  0  0  0  0  0
  -25.3413  -15.4969   24.1048 C   0  0  0  0  0  0  0  0  0  0  0  0
  -29.4254  -14.1444   19.7884 C   0  0  0  0  0  0  0  0  0  0  0  0
  -24.0524  -15.7155   23.5978 C   0  0  0  0  0  0  0  0  0  0  0  0
  -29.1825  -23.8797   21.5257 C   0  0  0  0  0  0  0  0  0  0  0  0
  -29.3277  -21.2255   22.3724 C   0  0  0  0  0  0  0  0  0  0  0  0
  -20.4692  -29.4975   21.0284 C   0  0  0  0  0  0  0  0  0  0  0  0
  -23.9972  -17.8790   24.7053 C   0  0  0  0  0  0  0  0  0  0  0  0
  -18.3808  -29.3202   22.0912 C   0  0  0  0  0  0  0  0  0  0  0  0
  -29.8783  -21.5974   21.1460 C   0  0  0  0  0  0  0  0  0  0  0  0
  -16.8953  -29.2430   24.4512 C   0  0  0  0  0  0  0  0  0  0  0  0
  -28.6319  -23.5078   22.7521 C   0  0  0  0  0  0  0  0  0  0  0  0
  -17.6048  -28.2004   22.3905 C   0  0  0  0  0  0  0  0  0  0  0  0
  -24.6646  -29.9248   21.3653 C   0  0  0  0  0  0  0  0  0  0  0  0
  -26.6888  -30.5635   21.9395 C   0  0  0  0  0  0  0  0  0  0  0  0
  -24.8618  -31.7863   23.1291 C   0  0  0  0  0  0  0  0  0  0  0  0
  -26.0525  -14.1883   21.2967 C   0  0  0  0  0  0  0  0  0  0  0  0
  -23.5053  -12.2969   21.9724 C   0  0  0  0  0  0  0  0  0  0  0  0
  -30.0678  -19.5443   24.0568 C   0  0  0  0  0  0  0  0  0  0  0  0
  -22.3749  -21.0398   24.0386 C   0  0  0  0  0  0  0  0  0  0  0  0
  -20.5741  -11.8823   23.6704 C   0  0  0  0  0  0  0  0  0  0  0  0
  -29.6041  -25.7610   19.9042 C   0  0  0  0  0  0  0  0  0  0  0  0
  -29.5236  -12.2363   18.1031 C   0  0  0  0  0  0  0  0  0  0  0  0
  -26.0645  -14.2097   23.8177 C   0  0  0  0  0  0  0  0  0  0  0  0
  -23.3591  -14.6994   22.7288 C   0  0  0  0  0  0  0  0  0  0  0  0
  -28.0097  -12.1298   18.2678 C   0  0  0  0  0  0  0  0  0  0  0  0
  -29.5906  -29.0149   18.4587 C   0  0  0  0  0  0  0  0  0  0  0  0
  -27.3892  -13.5162   18.4081 C   0  0  0  0  0  0  0  0  0  0  0  0
  -28.3932  -29.7006   19.1206 C   0  0  0  0  0  0  0  0  0  0  0  0
  -29.3192  -27.5360   18.1886 C   0  0  0  0  0  0  0  0  0  0  0  0
  -27.6683  -27.4509   20.0152 C   0  0  0  0  0  0  0  0  0  0  0  0
  -27.9207  -14.2351   19.6540 C   0  0  1  0  0  0  0  0  0  0  0  0
  -25.5709  -13.5165   22.5515 C   0  0  1  0  0  0  0  0  0  0  0  0
  -27.9181  -28.9268   20.3660 C   0  0  2  0  0  0  0  0  0  0  0  0
  -30.7858  -20.7132   24.6914 C   0  0  0  0  0  0  0  0  0  0  0  0
  -18.6975  -10.2473   23.9909 C   0  0  0  0  0  0  0  0  0  0  0  0
  -26.1885  -20.8093   16.5065 C   0  0  0  0  0  0  0  0  0  0  0  0
  -27.1944  -22.3490   18.2362 C   0  0  0  0  0  0  0  0  0  0  0  0
  -22.3594  -13.0833   19.2561 C   0  0  0  0  0  0  0  0  0  0  0  0
  -20.1367  -12.2229   20.0226 C   0  0  0  0  0  0  0  0  0  0  0  0
  -22.0804  -10.6692   19.8467 C   0  0  0  0  0  0  0  0  0  0  0  0
  -21.1447  -11.6168   26.5622 C   0  0  0  0  0  0  0  0  0  0  0  0
  -31.8918  -20.4873   20.5381 C   0  0  0  0  0  0  0  0  0  0  0  0
  -22.4304  -19.5273   24.0097 C   0  0  0  0  0  0  0  0  0  1  0  0
  -22.1178  -22.9523   20.4949 C   0  0  0  0  0  0  0  0  0  0  0  0
  -26.4655  -18.1012   21.0964 C   0  0  0  0  0  0  0  0  0  0  0  0
  -23.0556  -23.6422   19.5014 C   0  0  0  0  0  0  0  0  0  0  0  0
  -24.9746  -18.4331   20.9993 C   0  0  0  0  0  0  0  0  0  0  0  0
  -22.2355  -23.5758   21.8898 C   0  0  0  0  0  0  0  0  0  0  0  0
  -27.2183  -19.1702   21.8957 C   0  0  0  0  0  0  0  0  0  0  0  0
  -23.0476  -23.0016   18.1088 C   0  0  0  0  0  0  0  0  0  0  0  0
  -24.6947  -19.8125   20.3921 C   0  0  0  0  0  0  0  0  0  0  0  0
  -21.2715  -22.9521   22.8937 C   0  0  0  0  0  0  0  0  0  0  0  0
  -28.6983  -18.8422   22.0639 C   0  0  0  0  0  0  0  0  0  0  0  0
  -23.5280  -21.5570   18.0379 C   0  0  0  0  0  0  0  0  0  0  0  0
  -25.2658  -20.0554   19.0002 C   0  0  0  0  0  0  0  0  0  0  0  0
  -22.0197  -12.3719   21.7147 C   0  0  1  0  0  0  0  0  0  0  0  0
  -20.0468  -10.7274   24.5026 C   0  0  2  0  0  0  0  0  0  0  0  0
  -25.9313  -21.9294   17.5016 C   0  0  0  0  0  0  0  0  0  0  0  0
  -21.6626  -12.1070   20.2248 C   0  0  0  0  0  0  0  0  0  0  0  0
  -25.4775  -29.1626   20.6289 N   0  0  0  0  0  0  0  0  0  0  0  0
  -26.7016  -29.5746   21.0003 N   0  0  0  0  0  0  0  0  0  0  0  0
  -24.1099  -13.4594   22.4714 N   0  0  0  0  0  0  0  0  0  0  0  0
  -28.8775  -26.8667   19.4141 N   0  0  0  0  0  0  0  0  0  0  0  0
  -27.8322  -31.0929   22.4241 N   0  0  0  0  0  0  0  0  0  0  0  0
  -23.4738  -31.9159   23.2742 N   0  0  0  0  0  0  0  0  0  0  0  0
  -29.1091  -25.2271   21.0935 N   0  0  0  0  0  0  0  0  0  0  0  0
  -27.2743  -13.7270   20.8450 N   0  0  0  0  0  0  0  0  0  0  0  0
  -21.5077  -21.5391   23.0796 N   0  0  0  0  0  0  0  0  0  0  0  0
  -21.3954  -11.4452   22.6526 N   0  0  0  0  0  0  0  0  0  0  0  0
  -29.3959  -19.8362   22.8317 N   0  0  0  0  0  0  0  0  0  0  0  0
  -19.8890  -11.1434   25.9249 N   0  3  0  0  0  0  0  0  0  0  0  0
  -24.9248  -21.4451   18.5179 N   0  3  1  0  0  0  0  0  0  0  0  0
  -25.6209  -32.5278   23.7980 O   0  0  0  0  0  0  0  0  0  0  0  0
  -25.3658  -15.0595   20.7760 O   0  0  0  0  0  0  0  0  0  0  0  0
  -24.1058  -11.2434   21.7464 O   0  0  0  0  0  0  0  0  0  0  0  0
  -30.1475  -18.4470   24.6149 O   0  0  0  0  0  0  0  0  0  0  0  0
  -23.0319  -21.7138   24.8274 O   0  0  0  0  0  0  0  0  0  0  0  0
  -20.2834  -13.0545   23.8979 O   0  0  0  0  0  0  0  0  0  0  0  0
  -30.6088  -25.3373   19.3271 O   0  0  0  0  0  0  0  0  0  0  0  0
  -19.1194  -29.3597   20.9204 O   0  0  0  0  0  0  0  0  0  0  0  0
  -30.4920  -20.6798   20.3465 O   0  0  0  0  0  0  0  0  0  0  0  0
  -23.3430  -19.0374   24.9913 O   0  0  0  0  0  0  0  0  0  1  0  0
  -16.1833  -29.2054   25.5852 F   0  0  0  0  0  0  0  0  0  0  0  0
  -28.0287  -24.4170   23.5312 F   0  0  0  0  0  0  0  0  0  0  0  0
  -17.5698  -27.1582   21.5488 F   0  0  0  0  0  0  0  0  0  0  0  0
  1  2  1  0  0  0  0
  1  5  2  0  0  0  0
  2  6  2  0  0  0  0
  3  8  2  0  0  0  0
  3 17  1  0  0  0  0
  4  9  1  0  0  0  0
  4 17  2  0  0  0  0
  5 19  1  0  0  0  0
  6 21  1  0  0  0  0
  7 10  2  0  0  0  0
  7 20  1  0  0  0  0
  8 25  1  0  0  0  0
  9 25  2  0  0  0  0
 10 26  1  0  0  0  0
 11 12  2  0  0  0  0
 11 27  1  0  0  0  0
 12 29  1  0  0  0  0
 13 22  1  0  0  0  0
 13 26  2  0  0  0  0
 14 23  2  0  0  0  0
 14 28  1  0  0  0  0
 15 24  1  0  0  0  0
 15 30  2  0  0  0  0
 16 29  2  0  0  0  0
 16 31  1  0  0  0  0
 17 32  1  0  0  0  0
 18 32  1  0  0  0  0
 18 33  2  0  0  0  0
 18 34  1  0  0  0  0
 19 21  2  0  0  0  0
 19 41  1  0  0  0  0
 20 22  2  0  0  0  0
 20 42  1  0  0  0  0
 21 50  1  0  0  0  0
 22 43  1  0  0  0  0
 23 30  1  0  0  0  0
 23 85  1  0  0  0  0
 24 28  2  0  0  0  0
 24 89  1  0  0  0  0
 25 99  1  0  0  0  0
 26101  1  0  0  0  0
 27 31  2  0  0  0  0
 27 99  1  0  0  0  0
 28100  1  0  0  0  0
 29102  1  0  0  0  0
 30103  1  0  0  0  0
 31104  1  0  0  0  0
 32 79  2  0  0  0  0
 33 80  1  0  0  0  0
 33 83  1  0  0  0  0
 34 84  1  0  0  0  0
 34 92  2  0  0  0  0
 35 51  1  0  0  0  0
 35 86  1  0  0  0  0
 35 93  2  0  0  0  0
 36 75  1  0  0  0  0
 36 81  1  0  0  0  0
 36 94  2  0  0  0  0
 37 53  1  0  0  0  0
 37 89  1  0  0  0  0
 37 95  2  0  0  0  0
 38 62  1  0  0  0  0
 38 87  1  0  0  0  0
 38 96  2  0  0  0  0
 39 76  1  0  0  0  0
 39 88  1  0  0  0  0
 39 97  2  0  0  0  0
 40 82  1  0  0  0  0
 40 85  1  0  0  0  0
 40 98  2  0  0  0  0
 41 44  1  0  0  0  0
 42 51  1  0  0  0  0
 43 81  1  0  0  0  0
 44 46  1  0  0  0  0
 45 47  1  0  0  0  0
 45 48  1  0  0  0  0
 46 50  1  0  0  0  0
 47 52  1  0  0  0  0
 48 82  1  0  0  0  0
 49 52  1  0  0  0  0
 49 82  1  0  0  0  0
 50 86  1  0  0  0  0
 51 81  1  0  0  0  0
 52 80  1  0  0  0  0
 54 76  1  0  0  0  0
 55 77  1  0  0  0  0
 56 77  1  0  0  0  0
 57 78  1  0  0  0  0
 58 78  1  0  0  0  0
 59 78  1  0  0  0  0
 60 90  1  0  0  0  0
 61100  1  0  0  0  0
 62101  1  0  0  0  0
 63 65  1  0  0  0  0
 63 67  1  0  0  0  0
 64 66  1  0  0  0  0
 64 68  1  0  0  0  0
 65 69  1  0  0  0  0
 66 70  1  0  0  0  0
 67 71  1  0  0  0  0
 68 72  1  0  0  0  0
 69 73  1  0  0  0  0
 70 74  1  0  0  0  0
 71 87  1  0  0  0  0
 72 89  1  0  0  0  0
 73 91  1  0  0  0  0
 74 91  1  0  0  0  0
 75 78  1  0  0  0  0
 75 88  1  0  0  0  0
 76 90  1  0  0  0  0
 77 91  1  0  0  0  0
 79 80  1  0  0  0  0
M  CHG  2  90   1  91   1
M  ISO  4  40 100  62 101  85 100 101 101
M  END
> <Batch ID>
0006

> <Smiles>
CNC(C)C(=O)NC(C(=O)N1Cc2cc([101O:1][101CH2:1]C(=O)NCCCCCCN(CCCCCCN(C(C)=O)c3cc(F)c([100NH:0][100C:0](=O)N4CCCC(n5nc(-c6ccc(Oc7ccc(F)cc7F)cc6)c(C(N)=O)c5N)C4)cc3OC)C(C)C)ccc2CC1C(=O)NC1CCCc2ccccc21)C(C)(C)C

> <Shape>
0.265

> <Color>
0.064

> <Negative vol penalty>
0.000

$$$$

  -OEChem-04052315303D

 86 94  0     1  0  0  0  0  0999 V2000
  -27.6945  -32.3897   27.3288 C   0  0  0  0  0  0  0  0  0  0  0  0
  -27.9303  -31.3800   26.4013 C   0  0  0  0  0  0  0  0  0  0  0  0
  -23.8079  -10.6458   23.0565 C   0  0  0  0  0  0  0  0  0  0  0  0
  -23.0014  -12.9230   23.0280 C   0  0  0  0  0  0  0  0  0  0  0  0
  -26.3883  -32.6920   27.7115 C   0  0  0  0  0  0  0  0  0  0  0  0
  -26.8600  -30.6712   25.8568 C   0  0  0  0  0  0  0  0  0  0  0  0
  -27.2782  -30.0675   20.8462 C   0  0  0  0  0  0  0  0  0  0  0  0
  -30.1131  -18.8206   20.9239 C   0  0  0  0  0  0  0  0  0  0  0  0
  -23.0836  -10.4038   24.2237 C   0  0  0  0  0  0  0  0  0  0  0  0
  -22.2771  -12.6811   24.1952 C   0  0  0  0  0  0  0  0  0  0  0  0
  -28.1526  -29.0799   20.3946 C   0  0  0  0  0  0  0  0  0  0  0  0
  -30.2183  -20.1594   21.3007 C   0  0  0  0  0  0  0  0  0  0  0  0
  -19.8766   -9.7541   25.0757 C   0  0  0  0  0  0  0  0  0  0  0  0
  -19.1427   -8.5702   25.1496 C   0  0  0  0  0  0  0  0  0  0  0  0
  -26.2846  -27.5941   20.0454 C   0  0  0  0  0  0  0  0  0  0  0  0
  -27.7305  -19.0910   20.6281 C   0  0  0  0  0  0  0  0  0  0  0  0
  -20.4234   -7.8972   27.0845 C   0  0  0  0  0  0  0  0  0  0  0  0
  -23.7669  -11.9054   22.4586 C   0  0  0  0  0  0  0  0  0  0  0  0
  -24.0744  -11.9835   19.9274 C   0  0  0  0  0  0  0  0  0  0  0  0
  -25.3009  -31.9930   27.1642 C   0  0  0  0  0  0  0  0  0  0  0  0
  -25.8991  -29.8216   20.9112 C   0  0  0  0  0  0  0  0  0  0  0  0
  -25.5382  -30.9635   26.2335 C   0  0  0  0  0  0  0  0  0  0  0  0
  -25.3945  -28.5810   20.4958 C   0  0  0  0  0  0  0  0  0  0  0  0
  -27.8357  -20.4299   21.0050 C   0  0  0  0  0  0  0  0  0  0  0  0
  -28.8692  -18.2863   20.5876 C   0  0  0  0  0  0  0  0  0  0  0  0
  -22.3182  -11.4215   24.7931 C   0  0  0  0  0  0  0  0  0  0  0  0
  -27.6561  -27.8420   19.9969 C   0  0  0  0  0  0  0  0  0  0  0  0
  -29.0796  -20.9641   21.3412 C   0  0  0  0  0  0  0  0  0  0  0  0
  -20.8839  -10.0095   26.0062 C   0  0  0  0  0  0  0  0  0  0  0  0
  -19.4161   -7.6418   26.1540 C   0  0  0  0  0  0  0  0  0  0  0  0
  -21.1573   -9.0811   27.0106 C   0  0  0  0  0  0  0  0  0  0  0  0
  -24.5153  -12.1560   21.2532 C   0  0  0  0  0  0  0  0  0  0  0  0
  -25.1490  -12.3553   19.1571 C   0  0  0  0  0  0  0  0  0  0  0  0
  -22.8068  -11.5280   19.4362 C   0  0  0  0  0  0  0  0  0  0  0  0
  -23.7428  -29.7391   23.2451 C   0  0  0  0  0  0  0  0  0  0  0  0
  -21.6636  -29.3726   20.7824 C   0  0  0  0  0  0  0  0  0  0  0  0
  -21.1369  -28.3882   17.5575 C   0  0  0  0  0  0  0  0  0  0  0  0
  -29.7934  -15.9915   20.1125 C   0  0  0  0  0  0  0  0  0  0  0  0
  -23.9098  -32.3235   27.6441 C   0  0  0  0  0  0  0  0  0  0  0  0
  -24.9665  -30.9065   21.3754 C   0  0  0  0  0  0  0  0  0  0  0  0
  -23.9203  -28.2738   20.5271 C   0  0  0  0  0  0  0  0  0  0  0  0
  -22.8078  -31.7783   26.7393 C   0  0  0  0  0  0  0  0  0  0  0  0
  -29.9336  -12.5413   19.2444 C   0  0  0  0  0  0  0  0  0  0  0  0
  -23.0857  -30.3228   26.3771 C   0  0  0  0  0  0  0  0  0  0  0  0
  -28.5182  -12.0366   19.5346 C   0  0  0  0  0  0  0  0  0  0  0  0
  -30.3850  -13.5829   20.2666 C   0  0  0  0  0  0  0  0  0  0  0  0
  -28.0495  -14.2080   20.7399 C   0  0  0  0  0  0  0  0  0  0  0  0
  -24.4019  -30.1889   25.6018 C   0  0  1  0  0  0  0  0  0  0  0  0
  -23.6327  -30.3699   21.8858 C   0  0  1  0  0  0  0  0  0  0  0  0
  -27.5262  -13.2047   19.6991 C   0  0  2  0  0  0  0  0  0  0  0  0
  -19.3249  -28.1715   15.8350 C   0  0  0  0  0  0  0  0  0  0  0  0
  -20.6141  -26.8846   22.2031 C   0  0  0  0  0  0  0  0  0  0  0  0
  -19.5240  -26.2029   20.0547 C   0  0  0  0  0  0  0  0  0  0  0  0
  -18.8451  -28.3245   21.1775 C   0  0  0  0  0  0  0  0  0  0  0  0
  -22.4957  -30.2714   15.7227 C   0  0  0  0  0  0  0  0  0  0  0  0
  -30.3838  -25.4602   20.1090 C   0  0  0  0  0  0  0  0  0  0  0  0
  -29.5134  -24.5217   20.9375 C   0  0  0  0  0  0  0  0  0  0  0  0
  -29.8279  -26.8780   20.0975 C   0  0  0  0  0  0  0  0  0  1  0  0
  -30.0445  -23.0954   20.9143 C   0  0  0  0  0  0  0  0  0  0  0  0
  -21.0943  -28.1939   20.0303 C   0  0  1  0  0  0  0  0  0  0  0  0
  -20.4183  -29.0629   16.4030 C   0  0  2  0  0  0  0  0  0  0  0  0
  -26.6066  -21.2768   21.0428 C   0  0  0  0  0  0  0  0  0  0  0  0
  -20.0474  -27.4063   20.8675 C   0  0  0  0  0  0  0  0  0  0  0  0
  -25.7721  -12.6026   21.3246 N   0  0  0  0  0  0  0  0  0  0  0  0
  -26.1302  -12.7137   20.0341 N   0  0  0  0  0  0  0  0  0  0  0  0
  -23.0495  -29.3649   20.9947 N   0  0  0  0  0  0  0  0  0  0  0  0
  -29.3985  -14.6608   20.3657 N   0  0  0  0  0  0  0  0  0  0  0  0
  -25.3410  -12.4073   17.8218 N   0  0  0  0  0  0  0  0  0  0  0  0
  -21.8138  -11.1871   20.3647 N   0  0  0  0  0  0  0  0  0  0  0  0
  -28.7628  -16.9262   20.2048 N   0  0  0  0  0  0  0  0  0  0  0  0
  -24.2197  -30.5905   24.2235 N   0  0  0  0  0  0  0  0  0  0  0  0
  -20.5779  -28.7231   18.7726 N   0  0  0  0  0  0  0  0  0  0  0  0
  -21.3798  -29.3819   15.3099 N   0  3  0  0  0  0  0  0  0  0  0  0
  -22.5675  -11.4105   18.2104 O   0  0  0  0  0  0  0  0  0  0  0  0
  -23.4177  -28.5672   23.3955 O   0  0  0  0  0  0  0  0  0  0  0  0
  -20.9075  -30.2706   21.1612 O   0  0  0  0  0  0  0  0  0  0  0  0
  -22.0957  -27.6362   17.3971 O   0  0  0  0  0  0  0  0  0  0  0  0
  -30.9542  -16.2771   19.8077 O   0  0  0  0  0  0  0  0  0  0  0  0
  -21.6111  -11.1857   25.9319 O   0  0  0  0  0  0  0  0  0  0  0  0
  -28.5075  -26.8761   19.5564 O   0  0  0  0  0  0  0  0  0  1  0  0
  -29.2011  -22.2777   21.7136 O   0  0  0  0  0  0  0  0  0  0  0  0
  -18.7103   -6.5056   26.2258 F   0  0  0  0  0  0  0  0  0  0  0  0
  -22.1230   -9.3214   27.9081 F   0  0  0  0  0  0  0  0  0  0  0  0
  -25.4713  -20.6071   20.6869 F   0  0  0  0  0  0  0  0  0  0  0  0
  -26.3420  -21.7985   22.2764 F   0  0  0  0  0  0  0  0  0  0  0  0
  -26.6819  -22.3466   20.1996 F   0  0  0  0  0  0  0  0  0  0  0  0
  1  2  1  0  0  0  0
  1  5  2  0  0  0  0
  2  6  2  0  0  0  0
  3  9  2  0  0  0  0
  3 18  1  0  0  0  0
  4 10  1  0  0  0  0
  4 18  2  0  0  0  0
  5 20  1  0  0  0  0
  6 22  1  0  0  0  0
  7 11  2  0  0  0  0
  7 21  1  0  0  0  0
  8 12  2  0  0  0  0
  8 25  1  0  0  0  0
  9 26  1  0  0  0  0
 10 26  2  0  0  0  0
 11 27  1  0  0  0  0
 12 28  1  0  0  0  0
 13 14  2  0  0  0  0
 13 29  1  0  0  0  0
 14 30  1  0  0  0  0
 15 23  1  0  0  0  0
 15 27  2  0  0  0  0
 16 24  1  0  0  0  0
 16 25  2  0  0  0  0
 17 30  2  0  0  0  0
 17 31  1  0  0  0  0
 18 32  1  0  0  0  0
 19 32  1  0  0  0  0
 19 33  2  0  0  0  0
 19 34  1  0  0  0  0
 20 22  2  0  0  0  0
 20 39  1  0  0  0  0
 21 23  2  0  0  0  0
 21 40  1  0  0  0  0
 22 48  1  0  0  0  0
 23 41  1  0  0  0  0
 24 28  2  0  0  0  0
 24 62  1  0  0  0  0
 25 70  1  0  0  0  0
 26 79  1  0  0  0  0
 27 80  1  0  0  0  0
 28 81  1  0  0  0  0
 29 31  2  0  0  0  0
 29 79  1  0  0  0  0
 30 82  1  0  0  0  0
 31 83  1  0  0  0  0
 32 64  2  0  0  0  0
 33 65  1  0  0  0  0
 33 68  1  0  0  0  0
 34 69  1  0  0  0  0
 34 74  2  0  0  0  0
 35 49  1  0  0  0  0
 35 71  1  0  0  0  0
 35 75  2  0  0  0  0
 36 60  1  0  0  0  0
 36 66  1  0  0  0  0
 36 76  2  0  0  0  0
 37 61  1  0  0  0  0
 37 72  1  0  0  0  0
 37 77  2  0  0  0  0
 38 67  1  0  0  0  0
 38 70  1  0  0  0  0
 38 78  2  0  0  0  0
 39 42  1  0  0  0  0
 40 49  1  0  0  0  0
 41 66  1  0  0  0  0
 42 44  1  0  0  0  0
 43 45  1  0  0  0  0
 43 46  1  0  0  0  0
 44 48  1  0  0  0  0
 45 50  1  0  0  0  0
 46 67  1  0  0  0  0
 47 50  1  0  0  0  0
 47 67  1  0  0  0  0
 48 71  1  0  0  0  0
 49 66  1  0  0  0  0
 50 65  1  0  0  0  0
 51 61  1  0  0  0  0
 52 63  1  0  0  0  0
 53 63  1  0  0  0  0
 54 63  1  0  0  0  0
 55 73  1  0  0  0  0
 56 57  1  0  0  0  0
 56 58  1  0  0  0  0
 57 59  1  0  0  0  0
 58 80  1  0  0  0  0
 59 81  1  0  0  0  0
 60 63  1  0  0  0  0
 60 72  1  0  0  0  0
 61 73  1  0  0  0  0
 62 84  1  0  0  0  0
 62 85  1  0  0  0  0
 62 86  1  0  0  0  0
 64 65  1  0  0  0  0
M  CHG  1  73   1
M  ISO  4  38 100  58 101  70 100  80 101
M  END
> <Batch ID>
0006

> <Smiles>
CNC(C)C(=O)NC(C(=O)N1Cc2cc([101O:1][101CH2:1]CCCOc3ccc([100NH:0][100C:0](=O)N4CCCC(n5nc(-c6ccc(Oc7ccc(F)cc7F)cc6)c(C(N)=O)c5N)C4)cc3C(F)(F)F)ccc2CC1C(=O)NC1CCCc2ccccc21)C(C)(C)C

> <Shape>
0.288

> <Color>
0.091

> <Negative vol penalty>
0.000

$$$$

  -OEChem-04052315303D

 92100  0     1  0  0  0  0  0999 V2000
  -16.7192  -27.3821   21.4778 C   0  0  0  0  0  0  0  0  0  0  0  0
  -17.8283  -26.6341   21.8595 C   0  0  0  0  0  0  0  0  0  0  0  0
  -20.3377  -12.8308   23.4358 C   0  0  0  0  0  0  0  0  0  0  0  0
  -30.0376  -19.5685   20.2933 C   0  0  0  0  0  0  0  0  0  0  0  0
  -27.6240  -19.5149   20.3855 C   0  0  0  0  0  0  0  0  0  0  0  0
  -16.8895  -28.6683   20.9672 C   0  0  0  0  0  0  0  0  0  0  0  0
  -19.1085  -27.1714   21.7299 C   0  0  0  0  0  0  0  0  0  0  0  0
  -21.9803  -26.3577   25.8208 C   0  0  0  0  0  0  0  0  0  0  0  0
  -21.0218  -12.4701   22.2750 C   0  0  0  0  0  0  0  0  0  0  0  0
  -20.9199  -13.7179   24.3412 C   0  0  0  0  0  0  0  0  0  0  0  0
  -29.9891  -20.8618   19.7733 C   0  0  0  0  0  0  0  0  0  0  0  0
  -27.5754  -20.8083   19.8655 C   0  0  0  0  0  0  0  0  0  0  0  0
  -22.5361  -25.0873   25.9662 C   0  0  0  0  0  0  0  0  0  0  0  0
  -26.8253  -24.2322   18.9000 C   0  0  0  0  0  0  0  0  0  0  0  0
  -25.9534  -25.1408   19.4999 C   0  0  0  0  0  0  0  0  0  0  0  0
  -24.6353  -25.9146   25.1131 C   0  0  0  0  0  0  0  0  0  0  0  0
  -22.8704  -13.8833   22.9251 C   0  0  0  0  0  0  0  0  0  0  0  0
  -27.1208  -24.8756   21.5985 C   0  0  0  0  0  0  0  0  0  0  0  0
  -28.8551  -18.8949   20.5994 C   0  0  0  0  0  0  0  0  0  0  0  0
  -28.9644  -17.1893   22.4931 C   0  0  0  0  0  0  0  0  0  0  0  0
  -18.1718  -29.2253   20.8402 C   0  0  0  0  0  0  0  0  0  0  0  0
  -22.7461  -27.4153   25.3093 C   0  0  0  0  0  0  0  0  0  0  0  0
  -19.2962  -28.4657   21.2158 C   0  0  0  0  0  0  0  0  0  0  0  0
  -24.0877  -27.1981   24.9646 C   0  0  0  0  0  0  0  0  0  0  0  0
  -22.2881  -12.9962   22.0196 C   0  0  0  0  0  0  0  0  0  0  0  0
  -22.1863  -14.2441   24.0859 C   0  0  0  0  0  0  0  0  0  0  0  0
  -28.7580  -21.4818   19.5594 C   0  0  0  0  0  0  0  0  0  0  0  0
  -23.8629  -24.8650   25.6096 C   0  0  0  0  0  0  0  0  0  0  0  0
  -27.8449  -23.6452   19.6494 C   0  0  0  0  0  0  0  0  0  0  0  0
  -26.1011  -25.4625   20.8491 C   0  0  0  0  0  0  0  0  0  0  0  0
  -27.9926  -23.9669   20.9986 C   0  0  0  0  0  0  0  0  0  0  0  0
  -28.9046  -17.5587   21.1360 C   0  0  0  0  0  0  0  0  0  0  0  0
  -28.9933  -15.8162   22.4743 C   0  0  0  0  0  0  0  0  0  0  0  0
  -28.9913  -18.0136   23.6659 C   0  0  0  0  0  0  0  0  0  0  0  0
  -22.5559  -29.2888   22.7486 C   0  0  0  0  0  0  0  0  0  0  0  0
  -24.3154  -10.8352   19.8956 C   0  0  0  0  0  0  0  0  0  0  0  0
  -25.0485  -30.8116   24.1595 C   0  0  0  0  0  0  0  0  0  0  0  0
  -24.0213  -15.7600   24.9088 C   0  0  0  0  0  0  0  0  0  0  0  0
  -24.3204  -21.2955   26.3949 C   0  0  0  0  0  0  0  0  0  0  0  0
  -27.6864  -30.6637   26.3197 C   0  0  0  0  0  0  0  0  0  0  0  0
  -27.0805  -11.7515   18.5157 C   0  0  0  0  0  0  0  0  0  0  0  0
  -18.3091  -30.6016   20.2388 C   0  0  0  0  0  0  0  0  0  0  0  0
  -22.1396  -28.7860   25.1837 C   0  0  0  0  0  0  0  0  0  0  0  0
  -24.9583  -28.3047   24.4298 C   0  0  0  0  0  0  0  0  0  0  0  0
  -19.6741  -31.2398   20.4835 C   0  0  0  0  0  0  0  0  0  0  0  0
  -30.3957  -12.1375   19.7556 C   0  0  0  0  0  0  0  0  0  0  0  0
  -20.7902  -30.2428   20.1884 C   0  0  0  0  0  0  0  0  0  0  0  0
  -30.3948  -13.5373   20.3725 C   0  0  0  0  0  0  0  0  0  0  0  0
  -29.5363  -12.0758   18.4948 C   0  0  0  0  0  0  0  0  0  0  0  0
  -28.1516  -13.9568   19.2812 C   0  0  0  0  0  0  0  0  0  0  0  0
  -20.6993  -29.0232   21.1136 C   0  0  1  0  0  0  0  0  0  0  0  0
  -22.8617  -29.6682   24.1699 C   0  0  1  0  0  0  0  0  0  0  0  0
  -28.9597  -14.0549   20.5865 C   0  0  2  0  0  0  0  0  0  0  0  0
  -24.8844   -9.4414   20.0274 C   0  0  0  0  0  0  0  0  0  0  0  0
  -29.5625  -32.0558   27.2360 C   0  0  0  0  0  0  0  0  0  0  0  0
  -26.5759  -30.4732   21.5399 C   0  0  0  0  0  0  0  0  0  0  0  0
  -28.6854  -30.9951   22.7833 C   0  0  0  0  0  0  0  0  0  0  0  0
  -26.8703  -32.7002   22.6390 C   0  0  0  0  0  0  0  0  0  0  0  0
  -26.6735  -30.4140   29.0893 C   0  0  0  0  0  0  0  0  0  0  0  0
  -23.0190  -12.6102   20.7785 C   0  0  0  0  0  0  0  0  0  0  0  0
  -24.6069  -11.5731   18.6078 C   0  0  0  0  0  0  0  0  0  0  0  0
  -24.2680  -16.6557   26.1150 C   0  0  0  0  0  0  0  0  0  0  0  0
  -23.5624  -22.5997   26.2687 C   0  0  0  0  0  0  0  0  0  1  0  0
  -23.7752  -18.0853   25.8968 C   0  0  0  0  0  0  0  0  0  0  0  0
  -24.0027  -18.9438   27.1393 C   0  0  0  0  0  0  0  0  0  0  0  0
  -26.5509  -30.6718   24.1140 C   0  0  1  0  0  0  0  0  0  0  0  0
  -28.1277  -31.5932   27.4358 C   0  0  2  0  0  0  0  0  0  0  0  0
  -27.1539  -31.1885   22.7773 C   0  0  0  0  0  0  0  0  0  0  0  0
  -28.8961  -16.5053   20.3148 N   0  0  0  0  0  0  0  0  0  0  0  0
  -23.6091  -11.2691   20.8741 N   0  0  0  0  0  0  0  0  0  0  0  0
  -28.9511  -15.4605   21.1583 N   0  0  0  0  0  0  0  0  0  0  0  0
  -24.3177  -29.6257   24.3195 N   0  0  0  0  0  0  0  0  0  0  0  0
  -28.1876  -12.5791   18.7660 N   0  0  0  0  0  0  0  0  0  0  0  0
  -29.0506  -14.8905   23.4552 N   0  0  0  0  0  0  0  0  0  0  0  0
  -28.9550  -19.4054   23.5053 N   0  0  0  0  0  0  0  0  0  0  0  0
  -22.7764  -15.1446   25.0044 N   0  0  0  0  0  0  0  0  0  0  0  0
  -21.2132  -29.3460   22.4274 N   0  0  0  0  0  0  0  0  0  0  0  0
  -23.5232  -20.2880   26.9152 N   0  0  0  0  0  0  0  0  0  0  0  0
  -27.0602  -31.3502   25.3010 N   0  0  0  0  0  0  0  0  0  0  0  0
  -25.8389  -12.3036   18.8061 N   0  0  0  0  0  0  0  0  0  0  0  0
  -28.0359  -30.9014   28.7527 N   0  3  0  0  0  0  0  0  0  0  0  0
  -29.0625  -17.5306   24.8214 O   0  0  0  0  0  0  0  0  0  0  0  0
  -23.4707  -28.9694   21.9984 O   0  0  0  0  0  0  0  0  0  0  0  0
  -24.5422  -31.9324   24.0641 O   0  0  0  0  0  0  0  0  0  0  0  0
  -24.8455  -15.6383   24.0086 O   0  0  0  0  0  0  0  0  0  0  0  0
  -25.4983  -21.1773   26.0687 O   0  0  0  0  0  0  0  0  0  0  0  0
  -27.8814  -29.4506   26.3469 O   0  0  0  0  0  0  0  0  0  0  0  0
  -27.1908  -10.6036   18.0717 O   0  0  0  0  0  0  0  0  0  0  0  0
  -28.7102  -22.7439   19.0523 O   0  0  0  0  0  0  0  0  0  0  0  0
  -24.4076  -23.6258   25.7499 O   0  0  0  0  0  0  0  0  0  1  0  0
  -25.2647  -26.3363   21.4246 F   0  0  0  0  0  0  0  0  0  0  0  0
  -28.9710  -23.4071   21.7234 F   0  0  0  0  0  0  0  0  0  0  0  0
  1  2  1  0  0  0  0
  1  6  2  0  0  0  0
  2  7  2  0  0  0  0
  3  9  2  0  0  0  0
  3 10  1  0  0  0  0
  4 11  2  0  0  0  0
  4 19  1  0  0  0  0
  5 12  1  0  0  0  0
  5 19  2  0  0  0  0
  6 21  1  0  0  0  0
  7 23  1  0  0  0  0
  8 13  2  0  0  0  0
  8 22  1  0  0  0  0
  9 25  1  0  0  0  0
 10 26  2  0  0  0  0
 11 27  1  0  0  0  0
 12 27  2  0  0  0  0
 13 28  1  0  0  0  0
 14 15  2  0  0  0  0
 14 29  1  0  0  0  0
 15 30  1  0  0  0  0
 16 24  1  0  0  0  0
 16 28  2  0  0  0  0
 17 25  2  0  0  0  0
 17 26  1  0  0  0  0
 18 30  2  0  0  0  0
 18 31  1  0  0  0  0
 19 32  1  0  0  0  0
 20 32  1  0  0  0  0
 20 33  2  0  0  0  0
 20 34  1  0  0  0  0
 21 23  2  0  0  0  0
 21 42  1  0  0  0  0
 22 24  2  0  0  0  0
 22 43  1  0  0  0  0
 23 51  1  0  0  0  0
 24 44  1  0  0  0  0
 25 60  1  0  0  0  0
 26 76  1  0  0  0  0
 27 89  1  0  0  0  0
 28 90  1  0  0  0  0
 29 31  2  0  0  0  0
 29 89  1  0  0  0  0
 30 91  1  0  0  0  0
 31 92  1  0  0  0  0
 32 69  2  0  0  0  0
 33 71  1  0  0  0  0
 33 74  1  0  0  0  0
 34 75  1  0  0  0  0
 34 82  2  0  0  0  0
 35 52  1  0  0  0  0
 35 77  1  0  0  0  0
 35 83  2  0  0  0  0
 36 54  1  0  0  0  0
 36 61  1  0  0  0  0
 36 70  2  0  0  0  0
 37 66  1  0  0  0  0
 37 72  1  0  0  0  0
 37 84  2  0  0  0  0
 38 62  1  0  0  0  0
 38 76  1  0  0  0  0
 38 85  2  0  0  0  0
 39 63  1  0  0  0  0
 39 78  1  0  0  0  0
 39 86  2  0  0  0  0
 40 67  1  0  0  0  0
 40 79  1  0  0  0  0
 40 87  2  0  0  0  0
 41 73  1  0  0  0  0
 41 80  1  0  0  0  0
 41 88  2  0  0  0  0
 42 45  1  0  0  0  0
 43 52  1  0  0  0  0
 44 72  1  0  0  0  0
 45 47  1  0  0  0  0
 46 48  1  0  0  0  0
 46 49  1  0  0  0  0
 47 51  1  0  0  0  0
 48 53  1  0  0  0  0
 49 73  1  0  0  0  0
 50 53  1  0  0  0  0
 50 73  1  0  0  0  0
 51 77  1  0  0  0  0
 52 72  1  0  0  0  0
 53 71  1  0  0  0  0
 55 67  1  0  0  0  0
 56 68  1  0  0  0  0
 57 68  1  0  0  0  0
 58 68  1  0  0  0  0
 59 81  1  0  0  0  0
 60 70  1  0  0  0  0
 61 80  1  0  0  0  0
 62 64  1  0  0  0  0
 63 90  1  0  0  0  0
 64 65  1  0  0  0  0
 65 78  1  0  0  0  0
 66 68  1  0  0  0  0
 66 79  1  0  0  0  0
 67 81  1  0  0  0  0
 69 71  1  0  0  0  0
M  CHG  1  81   1
M  ISO  4  41 100  63 101  80 100  90 101
M  END
> <Batch ID>
0006

> <Smiles>
C=C(C[100NH:0][100C:0](=O)N1CCCC(n2nc(-c3ccc(Oc4ccc(F)cc4F)cc3)c(C(N)=O)c2N)C1)NCc1cccc(NC(=O)CCCNC(=O)[101CH2:1][101O:1]c2ccc3c(c2)CN(C(=O)C(NC(=O)C(C)NC)C(C)(C)C)C(C(=O)NC2CCCc4ccccc42)C3)c1

> <Shape>
0.248

> <Color>
0.058

> <Negative vol penalty>
0.000

$$$$

  -OEChem-04052315303D

 82 90  0     1  0  0  0  0  0999 V2000
  -24.6122  -34.0114   28.0639 C   0  0  0  0  0  0  0  0  0  0  0  0
  -25.4919  -33.1965   27.3586 C   0  0  0  0  0  0  0  0  0  0  0  0
  -24.2567   -9.1059   21.4812 C   0  0  0  0  0  0  0  0  0  0  0  0
  -24.7683  -10.3935   23.4604 C   0  0  0  0  0  0  0  0  0  0  0  0
  -23.2367  -33.8149   27.9481 C   0  0  0  0  0  0  0  0  0  0  0  0
  -24.9966  -32.1839   26.5377 C   0  0  0  0  0  0  0  0  0  0  0  0
  -27.3828  -30.2386   21.2437 C   0  0  0  0  0  0  0  0  0  0  0  0
  -30.2159  -18.8786   20.0778 C   0  0  0  0  0  0  0  0  0  0  0  0
  -23.9218   -8.0121   22.2793 C   0  0  0  0  0  0  0  0  0  0  0  0
  -24.4333   -9.2997   24.2585 C   0  0  0  0  0  0  0  0  0  0  0  0
  -28.1972  -29.1529   20.9246 C   0  0  0  0  0  0  0  0  0  0  0  0
  -30.3965  -20.2134   20.4399 C   0  0  0  0  0  0  0  0  0  0  0  0
  -21.2944   -7.0103   24.1570 C   0  0  0  0  0  0  0  0  0  0  0  0
  -20.1253   -6.3155   23.8470 C   0  0  0  0  0  0  0  0  0  0  0  0
  -26.2451  -27.8791   20.3032 C   0  0  0  0  0  0  0  0  0  0  0  0
  -28.0127  -20.4509   20.7535 C   0  0  0  0  0  0  0  0  0  0  0  0
  -21.4143   -4.3017   23.4998 C   0  0  0  0  0  0  0  0  0  0  0  0
  -24.6800  -10.2966   22.0717 C   0  0  0  0  0  0  0  0  0  0  0  0
  -24.1683  -12.4504   20.8040 C   0  0  0  0  0  0  0  0  0  0  0  0
  -22.7241  -32.8057   27.1179 C   0  0  0  0  0  0  0  0  0  0  0  0
  -25.9903  -30.1489   21.1050 C   0  0  0  0  0  0  0  0  0  0  0  0
  -23.6130  -31.9729   26.4117 C   0  0  0  0  0  0  0  0  0  0  0  0
  -25.4155  -28.9660   20.6188 C   0  0  0  0  0  0  0  0  0  0  0  0
  -28.9336  -18.3299   20.0534 C   0  0  0  0  0  0  0  0  0  0  0  0
  -24.0101   -8.1090   23.6679 C   0  0  0  0  0  0  0  0  0  0  0  0
  -27.6281  -27.9719   20.4571 C   0  0  0  0  0  0  0  0  0  0  0  0
  -29.2950  -20.9996   20.7778 C   0  0  0  0  0  0  0  0  0  0  0  0
  -22.5234   -6.3509   24.1383 C   0  0  0  0  0  0  0  0  0  0  0  0
  -20.1853   -4.9612   23.5185 C   0  0  0  0  0  0  0  0  0  0  0  0
  -27.8321  -19.1160   20.3913 C   0  0  0  0  0  0  0  0  0  0  0  0
  -22.5834   -4.9966   23.8098 C   0  0  0  0  0  0  0  0  0  0  0  0
  -25.0267  -11.4267   21.2478 C   0  0  0  0  0  0  0  0  0  0  0  0
  -24.9747  -13.2760   20.0594 C   0  0  0  0  0  0  0  0  0  0  0  0
  -22.7672  -12.6382   21.0434 C   0  0  0  0  0  0  0  0  0  0  0  0
  -23.5206  -30.3437   23.0966 C   0  0  0  0  0  0  0  0  0  0  0  0
  -21.7957  -30.1726   20.3547 C   0  0  0  0  0  0  0  0  0  0  0  0
  -21.6387  -29.2028   17.0865 C   0  0  0  0  0  0  0  0  0  0  0  0
  -29.7411  -16.0584   19.3221 C   0  0  0  0  0  0  0  0  0  0  0  0
  -21.2309  -32.6009   27.0614 C   0  0  0  0  0  0  0  0  0  0  0  0
  -25.1278  -31.3381   21.4281 C   0  0  0  0  0  0  0  0  0  0  0  0
  -23.9275  -28.8254   20.4328 C   0  0  0  0  0  0  0  0  0  0  0  0
  -20.7774  -31.7478   25.8795 C   0  0  0  0  0  0  0  0  0  0  0  0
  -29.7068  -12.6236   18.3850 C   0  0  0  0  0  0  0  0  0  0  0  0
  -21.6503  -30.5032   25.7534 C   0  0  0  0  0  0  0  0  0  0  0  0
  -28.4155  -12.0902   19.0097 C   0  0  0  0  0  0  0  0  0  0  0  0
  -30.3849  -13.6587   19.2809 C   0  0  0  0  0  0  0  0  0  0  0  0
  -28.2331  -14.2360   20.3323 C   0  0  0  0  0  0  0  0  0  0  0  0
  -23.1136  -30.8799   25.4919 C   0  0  1  0  0  0  0  0  0  0  0  0
  -23.6820  -30.9615   21.7365 C   0  0  1  0  0  0  0  0  0  0  0  0
  -27.4802  -13.2383   19.4372 C   0  0  2  0  0  0  0  0  0  0  0  0
  -20.0851  -29.1624   15.1161 C   0  0  0  0  0  0  0  0  0  0  0  0
  -20.2767  -27.8395   21.6034 C   0  0  0  0  0  0  0  0  0  0  0  0
  -19.4426  -27.2500   19.3175 C   0  0  0  0  0  0  0  0  0  0  0  0
  -18.8500  -29.4513   20.3303 C   0  0  0  0  0  0  0  0  0  0  0  0
  -23.4541  -30.8939   15.4731 C   0  0  0  0  0  0  0  0  0  0  0  0
  -28.9589  -24.6088   20.6297 C   0  0  0  0  0  0  0  0  0  0  0  0
  -27.8587  -25.6093   20.3123 C   0  0  0  0  0  0  0  0  0  1  0  0
  -28.4097  -23.2060   20.8371 C   0  0  0  0  0  0  0  0  0  0  0  0
  -21.2136  -29.0531   19.5260 C   0  0  1  0  0  0  0  0  0  0  0  0
  -21.1770  -29.9352   15.8395 C   0  0  2  0  0  0  0  0  0  0  0  0
  -19.9736  -28.4001   20.1995 C   0  0  0  0  0  0  0  0  0  0  0  0
  -26.2823  -11.5853   20.8207 N   0  0  0  0  0  0  0  0  0  0  0  0
  -26.2187  -12.7183   20.1006 N   0  0  0  0  0  0  0  0  0  0  0  0
  -23.1260  -30.0139   20.7684 N   0  0  0  0  0  0  0  0  0  0  0  0
  -29.4398  -14.7176   19.6419 N   0  0  0  0  0  0  0  0  0  0  0  0
  -24.7340  -14.4175   19.3799 N   0  0  0  0  0  0  0  0  0  0  0  0
  -22.0916  -11.6955   21.8304 N   0  0  0  0  0  0  0  0  0  0  0  0
  -28.7535  -16.9736   19.6850 N   0  0  0  0  0  0  0  0  0  0  0  0
  -23.2983  -31.2591   24.1075 N   0  0  0  0  0  0  0  0  0  0  0  0
  -20.9493  -29.6168   18.2066 N   0  0  0  0  0  0  0  0  0  0  0  0
  -22.3176  -30.1280   14.8999 N   0  3  0  0  0  0  0  0  0  0  0  0
  -22.1296  -13.6042   20.5598 O   0  0  0  0  0  0  0  0  0  0  0  0
  -23.5911  -29.1265   23.2195 O   0  0  0  0  0  0  0  0  0  0  0  0
  -21.0982  -31.1551   20.6191 O   0  0  0  0  0  0  0  0  0  0  0  0
  -22.5198  -28.3462   17.0680 O   0  0  0  0  0  0  0  0  0  0  0  0
  -30.7851  -16.3685   18.7427 O   0  0  0  0  0  0  0  0  0  0  0  0
  -23.6831   -7.0420   24.4471 O   0  0  0  0  0  0  0  0  0  0  0  0
  -28.4206  -26.9104   20.1455 O   0  0  0  0  0  0  0  0  0  1  0  0
  -29.4727  -22.3109   21.1348 O   0  0  0  0  0  0  0  0  0  0  0  0
  -19.0624   -4.2937   23.2223 F   0  0  0  0  0  0  0  0  0  0  0  0
  -26.5952  -18.5992   20.3709 F   0  0  0  0  0  0  0  0  0  0  0  0
  -23.7611   -4.3575   23.7913 F   0  0  0  0  0  0  0  0  0  0  0  0
  1  2  1  0  0  0  0
  1  5  2  0  0  0  0
  2  6  2  0  0  0  0
  3  9  2  0  0  0  0
  3 18  1  0  0  0  0
  4 10  1  0  0  0  0
  4 18  2  0  0  0  0
  5 20  1  0  0  0  0
  6 22  1  0  0  0  0
  7 11  2  0  0  0  0
  7 21  1  0  0  0  0
  8 12  2  0  0  0  0
  8 24  1  0  0  0  0
  9 25  1  0  0  0  0
 10 25  2  0  0  0  0
 11 26  1  0  0  0  0
 12 27  1  0  0  0  0
 13 14  2  0  0  0  0
 13 28  1  0  0  0  0
 14 29  1  0  0  0  0
 15 23  1  0  0  0  0
 15 26  2  0  0  0  0
 16 27  2  0  0  0  0
 16 30  1  0  0  0  0
 17 29  2  0  0  0  0
 17 31  1  0  0  0  0
 18 32  1  0  0  0  0
 19 32  1  0  0  0  0
 19 33  2  0  0  0  0
 19 34  1  0  0  0  0
 20 22  2  0  0  0  0
 20 39  1  0  0  0  0
 21 23  2  0  0  0  0
 21 40  1  0  0  0  0
 22 48  1  0  0  0  0
 23 41  1  0  0  0  0
 24 30  2  0  0  0  0
 24 68  1  0  0  0  0
 25 77  1  0  0  0  0
 26 78  1  0  0  0  0
 27 79  1  0  0  0  0
 28 31  2  0  0  0  0
 28 77  1  0  0  0  0
 29 80  1  0  0  0  0
 30 81  1  0  0  0  0
 31 82  1  0  0  0  0
 32 62  2  0  0  0  0
 33 63  1  0  0  0  0
 33 66  1  0  0  0  0
 34 67  1  0  0  0  0
 34 72  2  0  0  0  0
 35 49  1  0  0  0  0
 35 69  1  0  0  0  0
 35 73  2  0  0  0  0
 36 59  1  0  0  0  0
 36 64  1  0  0  0  0
 36 74  2  0  0  0  0
 37 60  1  0  0  0  0
 37 70  1  0  0  0  0
 37 75  2  0  0  0  0
 38 65  1  0  0  0  0
 38 68  1  0  0  0  0
 38 76  2  0  0  0  0
 39 42  1  0  0  0  0
 40 49  1  0  0  0  0
 41 64  1  0  0  0  0
 42 44  1  0  0  0  0
 43 45  1  0  0  0  0
 43 46  1  0  0  0  0
 44 48  1  0  0  0  0
 45 50  1  0  0  0  0
 46 65  1  0  0  0  0
 47 50  1  0  0  0  0
 47 65  1  0  0  0  0
 48 69  1  0  0  0  0
 49 64  1  0  0  0  0
 50 63  1  0  0  0  0
 51 60  1  0  0  0  0
 52 61  1  0  0  0  0
 53 61  1  0  0  0  0
 54 61  1  0  0  0  0
 55 71  1  0  0  0  0
 56 57  1  0  0  0  0
 56 58  1  0  0  0  0
 57 78  1  0  0  0  0
 58 79  1  0  0  0  0
 59 61  1  0  0  0  0
 59 70  1  0  0  0  0
 60 71  1  0  0  0  0
 62 63  1  0  0  0  0
M  CHG  1  71   1
M  ISO  4  38 100  57 101  68 100  78 101
M  END
> <Batch ID>
0006

> <Smiles>
CNC(C)C(=O)NC(C(=O)N1Cc2cc([101O:1][101CH2:1]CCOc3ccc([100NH:0][100C:0](=O)N4CCCC(n5nc(-c6ccc(Oc7ccc(F)cc7F)cc6)c(C(N)=O)c5N)C4)c(F)c3)ccc2CC1C(=O)NC1CCCc2ccccc21)C(C)(C)C

> <Shape>
0.303

> <Color>
0.145

> <Negative vol penalty>
0.000

$$$$

  -OEChem-04052315303D

 82 90  0     1  0  0  0  0  0999 V2000
  -25.2356  -30.3265   22.9895 C   0  0  0  0  0  0  0  0  0  0  0  0
  -24.9513  -29.0792   23.5361 C   0  0  0  0  0  0  0  0  0  0  0  0
  -20.1780  -22.6962   22.3029 C   0  0  0  0  0  0  0  0  0  0  0  0
  -22.5813  -22.4691   22.2046 C   0  0  0  0  0  0  0  0  0  0  0  0
  -25.6064  -30.4311   21.6496 C   0  0  0  0  0  0  0  0  0  0  0  0
  -25.0366  -27.9357   22.7427 C   0  0  0  0  0  0  0  0  0  0  0  0
  -26.7041  -20.9800   23.1350 C   0  0  0  0  0  0  0  0  0  0  0  0
  -20.3207  -23.9930   22.7963 C   0  0  0  0  0  0  0  0  0  0  0  0
  -22.7240  -23.7660   22.6980 C   0  0  0  0  0  0  0  0  0  0  0  0
  -26.1834  -19.7277   22.8117 C   0  0  0  0  0  0  0  0  0  0  0  0
  -20.0504  -27.4929   23.7413 C   0  0  0  0  0  0  0  0  0  0  0  0
  -19.2431  -28.4885   23.1914 C   0  0  0  0  0  0  0  0  0  0  0  0
  -26.9109  -20.0208   20.5305 C   0  0  0  0  0  0  0  0  0  0  0  0
  -24.0152  -12.2903   21.3738 C   0  0  0  0  0  0  0  0  0  0  0  0
  -20.2006  -28.0626   21.0144 C   0  0  0  0  0  0  0  0  0  0  0  0
  -25.6352  -11.7883   19.6531 C   0  0  0  0  0  0  0  0  0  0  0  0
  -21.3084  -21.9342   22.0070 C   0  0  0  0  0  0  0  0  0  0  0  0
  -21.0697  -20.2030   20.1486 C   0  0  0  0  0  0  0  0  0  0  0  0
  -25.7056  -29.2872   20.8418 C   0  0  0  0  0  0  0  0  0  0  0  0
  -27.3234  -21.7681   22.1543 C   0  0  0  0  0  0  0  0  0  0  0  0
  -25.4078  -28.0252   21.3903 C   0  0  0  0  0  0  0  0  0  0  0  0
  -27.4408  -21.2817   20.8444 C   0  0  0  0  0  0  0  0  0  0  0  0
  -24.4549  -13.6138   21.4016 C   0  0  0  0  0  0  0  0  0  0  0  0
  -21.5937  -24.5279   22.9939 C   0  0  0  0  0  0  0  0  0  0  0  0
  -26.2842  -19.2492   21.5087 C   0  0  0  0  0  0  0  0  0  0  0  0
  -20.9330  -26.7821   22.9278 C   0  0  0  0  0  0  0  0  0  0  0  0
  -25.4846  -14.0245   20.5552 C   0  0  0  0  0  0  0  0  0  0  0  0
  -19.3181  -28.7733   21.8279 C   0  0  0  0  0  0  0  0  0  0  0  0
  -24.6054  -11.3776   20.4995 C   0  0  0  0  0  0  0  0  0  0  0  0
  -21.0080  -27.0669   21.5644 C   0  0  0  0  0  0  0  0  0  0  0  0
  -26.0748  -13.1118   19.6809 C   0  0  0  0  0  0  0  0  0  0  0  0
  -21.1616  -20.5944   21.4978 C   0  0  0  0  0  0  0  0  0  0  0  0
  -20.9433  -18.8362   20.1955 C   0  0  0  0  0  0  0  0  0  0  0  0
  -21.0962  -21.0035   18.9594 C   0  0  0  0  0  0  0  0  0  0  0  0
  -26.7470  -24.6202   20.8749 C   0  0  0  0  0  0  0  0  0  0  0  0
  -29.5855  -24.0970   19.3945 C   0  0  0  0  0  0  0  0  0  0  0  0
  -31.9002  -21.8515   18.2779 C   0  0  0  0  0  0  0  0  0  0  0  0
  -22.8129  -14.2689   23.1963 C   0  0  0  0  0  0  0  0  0  0  0  0
  -26.0644  -29.4551   19.3866 C   0  0  0  0  0  0  0  0  0  0  0  0
  -27.9036  -23.1053   22.5251 C   0  0  0  0  0  0  0  0  0  0  0  0
  -28.1144  -22.0801   19.7594 C   0  0  0  0  0  0  0  0  0  0  0  0
  -26.4948  -28.1554   18.7115 C   0  0  0  0  0  0  0  0  0  0  0  0
  -19.5346  -15.5829   23.6473 C   0  0  0  0  0  0  0  0  0  0  0  0
  -25.5279  -27.0279   19.0586 C   0  0  0  0  0  0  0  0  0  0  0  0
  -19.6092  -16.9711   23.0074 C   0  0  0  0  0  0  0  0  0  0  0  0
  -20.8341  -15.2174   24.3624 C   0  0  0  0  0  0  0  0  0  0  0  0
  -22.1229  -16.7296   22.9059 C   0  0  0  0  0  0  0  0  0  0  0  0
  -25.5131  -26.7590   20.5682 C   0  0  1  0  0  0  0  0  0  0  0  0
  -28.0568  -24.0421   21.3309 C   0  0  1  0  0  0  0  0  0  0  0  0
  -20.8600  -17.1154   22.1185 C   0  0  2  0  0  0  0  0  0  0  0  0
  -34.0979  -21.7220   17.0734 C   0  0  0  0  0  0  0  0  0  0  0  0
  -28.1666  -24.6524   16.7509 C   0  0  0  0  0  0  0  0  0  0  0  0
  -30.1065  -23.6000   15.5688 C   0  0  0  0  0  0  0  0  0  0  0  0
  -30.4498  -25.6552   16.9402 C   0  0  0  0  0  0  0  0  0  0  0  0
  -33.2272  -20.5762   20.5955 C   0  0  0  0  0  0  0  0  0  0  0  0
  -25.9145  -17.5995   19.8360 C   0  0  0  0  0  0  0  0  0  1  0  0
  -25.2853  -16.2282   19.6834 C   0  0  0  0  0  0  0  0  0  0  0  0
  -30.0123  -23.4509   18.0986 C   0  0  1  0  0  0  0  0  0  0  0  0
  -33.4101  -21.8027   18.4274 C   0  0  2  0  0  0  0  0  0  0  0  0
  -29.6693  -24.3251   16.8594 C   0  0  0  0  0  0  0  0  0  0  0  0
  -21.0988  -19.5598   22.3402 N   0  0  0  0  0  0  0  0  0  0  0  0
  -20.9660  -18.5048   21.5183 N   0  0  0  0  0  0  0  0  0  0  0  0
  -28.6603  -23.3842   20.1702 N   0  0  0  0  0  0  0  0  0  0  0  0
  -21.9751  -15.3737   23.4577 N   0  0  0  0  0  0  0  0  0  0  0  0
  -20.8160  -17.8974   19.2337 N   0  0  0  0  0  0  0  0  0  0  0  0
  -21.2321  -22.3922   19.0916 N   0  0  0  0  0  0  0  0  0  0  0  0
  -23.8453  -14.5286   22.2957 N   0  0  0  0  0  0  0  0  0  0  0  0
  -26.6810  -25.9980   20.9575 N   0  0  0  0  0  0  0  0  0  0  0  0
  -31.4322  -23.1481   18.2417 N   0  0  0  0  0  0  0  0  0  0  0  0
  -33.8129  -20.6140   19.2308 N   0  3  0  0  0  0  0  0  0  0  0  0
  -20.9857  -20.5037   17.8142 O   0  0  0  0  0  0  0  0  0  0  0  0
  -25.8624  -23.8718   20.4762 O   0  0  0  0  0  0  0  0  0  0  0  0
  -30.0611  -25.1905   19.7104 O   0  0  0  0  0  0  0  0  0  0  0  0
  -31.2058  -20.8407   18.1973 O   0  0  0  0  0  0  0  0  0  0  0  0
  -22.6118  -13.1659   23.7110 O   0  0  0  0  0  0  0  0  0  0  0  0
  -21.7333  -25.7934   23.4752 O   0  0  0  0  0  0  0  0  0  0  0  0
  -25.7763  -18.0275   21.1903 O   0  0  0  0  0  0  0  0  0  1  0  0
  -25.9301  -15.3201   20.5683 O   0  0  0  0  0  0  0  0  0  0  0  0
  -18.5416  -29.7284   21.2997 F   0  0  0  0  0  0  0  0  0  0  0  0
  -24.1835  -10.1066   20.4727 F   0  0  0  0  0  0  0  0  0  0  0  0
  -21.8530  -26.3866   20.7777 F   0  0  0  0  0  0  0  0  0  0  0  0
  -27.0648  -13.5002   18.8653 F   0  0  0  0  0  0  0  0  0  0  0  0
  1  2  1  0  0  0  0
  1  5  2  0  0  0  0
  2  6  2  0  0  0  0
  3  8  2  0  0  0  0
  3 17  1  0  0  0  0
  4  9  1  0  0  0  0
  4 17  2  0  0  0  0
  5 19  1  0  0  0  0
  6 21  1  0  0  0  0
  7 10  2  0  0  0  0
  7 20  1  0  0  0  0
  8 24  1  0  0  0  0
  9 24  2  0  0  0  0
 10 25  1  0  0  0  0
 11 12  2  0  0  0  0
 11 26  1  0  0  0  0
 12 28  1  0  0  0  0
 13 22  1  0  0  0  0
 13 25  2  0  0  0  0
 14 23  1  0  0  0  0
 14 29  2  0  0  0  0
 15 28  2  0  0  0  0
 15 30  1  0  0  0  0
 16 29  1  0  0  0  0
 16 31  2  0  0  0  0
 17 32  1  0  0  0  0
 18 32  1  0  0  0  0
 18 33  2  0  0  0  0
 18 34  1  0  0  0  0
 19 21  2  0  0  0  0
 19 39  1  0  0  0  0
 20 22  2  0  0  0  0
 20 40  1  0  0  0  0
 21 48  1  0  0  0  0
 22 41  1  0  0  0  0
 23 27  2  0  0  0  0
 23 67  1  0  0  0  0
 24 76  1  0  0  0  0
 25 77  1  0  0  0  0
 26 30  2  0  0  0  0
 26 76  1  0  0  0  0
 27 31  1  0  0  0  0
 27 78  1  0  0  0  0
 28 79  1  0  0  0  0
 29 80  1  0  0  0  0
 30 81  1  0  0  0  0
 31 82  1  0  0  0  0
 32 61  2  0  0  0  0
 33 62  1  0  0  0  0
 33 65  1  0  0  0  0
 34 66  1  0  0  0  0
 34 71  2  0  0  0  0
 35 49  1  0  0  0  0
 35 68  1  0  0  0  0
 35 72  2  0  0  0  0
 36 58  1  0  0  0  0
 36 63  1  0  0  0  0
 36 73  2  0  0  0  0
 37 59  1  0  0  0  0
 37 69  1  0  0  0  0
 37 74  2  0  0  0  0
 38 64  1  0  0  0  0
 38 67  1  0  0  0  0
 38 75  2  0  0  0  0
 39 42  1  0  0  0  0
 40 49  1  0  0  0  0
 41 63  1  0  0  0  0
 42 44  1  0  0  0  0
 43 45  1  0  0  0  0
 43 46  1  0  0  0  0
 44 48  1  0  0  0  0
 45 50  1  0  0  0  0
 46 64  1  0  0  0  0
 47 50  1  0  0  0  0
 47 64  1  0  0  0  0
 48 68  1  0  0  0  0
 49 63  1  0  0  0  0
 50 62  1  0  0  0  0
 51 59  1  0  0  0  0
 52 60  1  0  0  0  0
 53 60  1  0  0  0  0
 54 60  1  0  0  0  0
 55 70  1  0  0  0  0
 56 57  1  0  0  0  0
 56 77  1  0  0  0  0
 57 78  1  0  0  0  0
 58 60  1  0  0  0  0
 58 69  1  0  0  0  0
 59 70  1  0  0  0  0
 61 62  1  0  0  0  0
M  CHG  1  70   1
M  ISO  4  38 100  56 101  67 100  77 101
M  END
> <Batch ID>
0006

> <Smiles>
CNC(C)C(=O)NC(C(=O)N1Cc2cc([101O:1][101CH2:1]COc3c(F)cc(F)cc3[100NH:0][100C:0](=O)N3CCCC(n4nc(-c5ccc(Oc6ccc(F)cc6F)cc5)c(C(N)=O)c4N)C3)ccc2CC1C(=O)NC1CCCc2ccccc21)C(C)(C)C

> <Shape>
0.184

> <Color>
0.073

> <Negative vol penalty>
0.000

$$$$

  -OEChem-04052315303D

 81 89  0     1  0  0  0  0  0999 V2000
  -28.6561  -32.5991   25.5568 C   0  0  0  0  0  0  0  0  0  0  0  0
  -28.8112  -31.2640   25.1979 C   0  0  0  0  0  0  0  0  0  0  0  0
  -23.9419  -10.0095   22.3373 C   0  0  0  0  0  0  0  0  0  0  0  0
  -24.5902  -11.6421   23.9960 C   0  0  0  0  0  0  0  0  0  0  0  0
  -27.4059  -33.2073   25.4517 C   0  0  0  0  0  0  0  0  0  0  0  0
  -27.7158  -30.5359   24.7348 C   0  0  0  0  0  0  0  0  0  0  0  0
  -28.8204  -27.7502   20.6525 C   0  0  0  0  0  0  0  0  0  0  0  0
  -30.7419  -18.6706   18.9070 C   0  0  0  0  0  0  0  0  0  0  0  0
  -23.5187   -9.1487   23.3499 C   0  0  0  0  0  0  0  0  0  0  0  0
  -24.1670  -10.7813   25.0087 C   0  0  0  0  0  0  0  0  0  0  0  0
  -29.5139  -26.5592   20.8631 C   0  0  0  0  0  0  0  0  0  0  0  0
  -31.0436  -20.0307   18.9742 C   0  0  0  0  0  0  0  0  0  0  0  0
  -24.9321   -7.0100   25.5528 C   0  0  0  0  0  0  0  0  0  0  0  0
  -25.3008   -5.6682   25.4579 C   0  0  0  0  0  0  0  0  0  0  0  0
  -27.4456  -25.3304   20.6849 C   0  0  0  0  0  0  0  0  0  0  0  0
  -28.3919  -19.1803   19.1417 C   0  0  0  0  0  0  0  0  0  0  0  0
  -22.9708   -5.0306   25.4181 C   0  0  0  0  0  0  0  0  0  0  0  0
  -24.4777  -11.2563   22.6603 C   0  0  0  0  0  0  0  0  0  0  0  0
  -24.1480  -13.1230   20.9532 C   0  0  0  0  0  0  0  0  0  0  0  0
  -26.2968  -32.4890   24.9779 C   0  0  0  0  0  0  0  0  0  0  0  0
  -27.4305  -27.7413   20.4671 C   0  0  0  0  0  0  0  0  0  0  0  0
  -26.4493  -31.1347   24.6245 C   0  0  0  0  0  0  0  0  0  0  0  0
  -26.7372  -26.5225   20.4696 C   0  0  0  0  0  0  0  0  0  0  0  0
  -28.6937  -20.5405   19.2089 C   0  0  0  0  0  0  0  0  0  0  0  0
  -29.4160  -18.2453   18.9908 C   0  0  0  0  0  0  0  0  0  0  0  0
  -23.6312   -9.5346   24.6856 C   0  0  0  0  0  0  0  0  0  0  0  0
  -28.8261  -25.3493   20.8821 C   0  0  0  0  0  0  0  0  0  0  0  0
  -30.0196  -20.9657   19.1251 C   0  0  0  0  0  0  0  0  0  0  0  0
  -23.5826   -7.3622   25.5805 C   0  0  0  0  0  0  0  0  0  0  0  0
  -24.3202   -4.6785   25.3905 C   0  0  0  0  0  0  0  0  0  0  0  0
  -22.6020   -6.3725   25.5131 C   0  0  0  0  0  0  0  0  0  0  0  0
  -24.9156  -12.1457   21.6147 C   0  0  0  0  0  0  0  0  0  0  0  0
  -25.0172  -13.6920   20.0547 C   0  0  0  0  0  0  0  0  0  0  0  0
  -22.7725  -13.4842   21.1347 C   0  0  0  0  0  0  0  0  0  0  0  0
  -24.9512  -28.9735   22.0288 C   0  0  0  0  0  0  0  0  0  0  0  0
  -23.2851  -27.8427   19.4856 C   0  0  0  0  0  0  0  0  0  0  0  0
  -23.0984  -25.6245   16.8988 C   0  0  0  0  0  0  0  0  0  0  0  0
  -30.0066  -15.8060   18.7740 C   0  0  0  0  0  0  0  0  0  0  0  0
  -24.9551  -33.1760   24.9264 C   0  0  0  0  0  0  0  0  0  0  0  0
  -26.7008  -29.0321   20.2146 C   0  0  0  0  0  0  0  0  0  0  0  0
  -25.2478  -26.4568   20.2554 C   0  0  0  0  0  0  0  0  0  0  0  0
  -23.9263  -32.4399   24.0721 C   0  0  0  0  0  0  0  0  0  0  0  0
  -29.6516  -12.2675   18.6003 C   0  0  0  0  0  0  0  0  0  0  0  0
  -23.9271  -30.9503   24.4006 C   0  0  0  0  0  0  0  0  0  0  0  0
  -28.3247  -12.0007   19.3146 C   0  0  0  0  0  0  0  0  0  0  0  0
  -30.4306  -13.4056   19.2572 C   0  0  0  0  0  0  0  0  0  0  0  0
  -28.3518  -14.3889   20.1412 C   0  0  0  0  0  0  0  0  0  0  0  0
  -25.2904  -30.3186   24.0943 C   0  0  1  0  0  0  0  0  0  0  0  0
  -25.2146  -28.9538   20.5496 C   0  0  1  0  0  0  0  0  0  0  0  0
  -27.5018  -13.2939   19.4763 C   0  0  2  0  0  0  0  0  0  0  0  0
  -27.5850  -21.5275   19.3706 C   0  0  0  0  0  0  0  0  0  0  0  0
  -21.5985  -24.9159   15.0159 C   0  0  0  0  0  0  0  0  0  0  0  0
  -21.4815  -26.3899   21.4722 C   0  0  0  0  0  0  0  0  0  0  0  0
  -20.6416  -24.9864   19.5767 C   0  0  0  0  0  0  0  0  0  0  0  0
  -20.2780  -27.4542   19.5556 C   0  0  0  0  0  0  0  0  0  0  0  0
  -25.1325  -26.3173   14.8638 C   0  0  0  0  0  0  0  0  0  0  0  0
  -30.8539  -24.1307   20.6389 C   0  0  0  0  0  0  0  0  0  1  0  0
  -31.1894  -22.7038   20.2505 C   0  0  0  0  0  0  0  0  0  0  0  0
  -22.6000  -26.5400   19.1501 C   0  0  1  0  0  0  0  0  0  0  0  0
  -22.7531  -25.8135   15.4327 C   0  0  2  0  0  0  0  0  0  0  0  0
  -21.2781  -26.3437   19.9446 C   0  0  0  0  0  0  0  0  0  0  0  0
  -26.1754  -12.0940   21.1740 N   0  0  0  0  0  0  0  0  0  0  0  0
  -26.2061  -13.0458   20.2258 N   0  0  0  0  0  0  0  0  0  0  0  0
  -24.5783  -27.7465   20.0187 N   0  0  0  0  0  0  0  0  0  0  0  0
  -29.5892  -14.5987   19.3732 N   0  0  0  0  0  0  0  0  0  0  0  0
  -24.8728  -14.6769   19.1428 N   0  0  0  0  0  0  0  0  0  0  0  0
  -22.0236  -12.7988   22.1009 N   0  0  0  0  0  0  0  0  0  0  0  0
  -29.1099  -16.8635   18.9224 N   0  0  0  0  0  0  0  0  0  0  0  0
  -25.4363  -30.0963   22.6717 N   0  0  0  0  0  0  0  0  0  0  0  0
  -22.4335  -26.5279   17.7007 N   0  0  0  0  0  0  0  0  0  0  0  0
  -23.9307  -25.4922   14.5777 N   0  3  0  0  0  0  0  0  0  0  0  0
  -22.2192  -14.3768   20.4486 O   0  0  0  0  0  0  0  0  0  0  0  0
  -24.3510  -28.0398   22.5481 O   0  0  0  0  0  0  0  0  0  0  0  0
  -22.6973  -28.9066   19.2757 O   0  0  0  0  0  0  0  0  0  0  0  0
  -23.8770  -24.7593   17.2936 O   0  0  0  0  0  0  0  0  0  0  0  0
  -31.0677  -15.8878   18.1501 O   0  0  0  0  0  0  0  0  0  0  0  0
  -23.2181   -8.6949   25.6740 O   0  0  0  0  0  0  0  0  0  0  0  0
  -29.5005  -24.1854   21.0881 O   0  0  0  0  0  0  0  0  0  1  0  0
  -30.3337  -22.2977   19.1892 O   0  0  0  0  0  0  0  0  0  0  0  0
  -24.6745   -3.3901   25.2978 F   0  0  0  0  0  0  0  0  0  0  0  0
  -21.3040   -6.7048   25.5381 F   0  0  0  0  0  0  0  0  0  0  0  0
  1  2  1  0  0  0  0
  1  5  2  0  0  0  0
  2  6  2  0  0  0  0
  3  9  2  0  0  0  0
  3 18  1  0  0  0  0
  4 10  1  0  0  0  0
  4 18  2  0  0  0  0
  5 20  1  0  0  0  0
  6 22  1  0  0  0  0
  7 11  2  0  0  0  0
  7 21  1  0  0  0  0
  8 12  2  0  0  0  0
  8 25  1  0  0  0  0
  9 26  1  0  0  0  0
 10 26  2  0  0  0  0
 11 27  1  0  0  0  0
 12 28  1  0  0  0  0
 13 14  2  0  0  0  0
 13 29  1  0  0  0  0
 14 30  1  0  0  0  0
 15 23  1  0  0  0  0
 15 27  2  0  0  0  0
 16 24  1  0  0  0  0
 16 25  2  0  0  0  0
 17 30  2  0  0  0  0
 17 31  1  0  0  0  0
 18 32  1  0  0  0  0
 19 32  1  0  0  0  0
 19 33  2  0  0  0  0
 19 34  1  0  0  0  0
 20 22  2  0  0  0  0
 20 39  1  0  0  0  0
 21 23  2  0  0  0  0
 21 40  1  0  0  0  0
 22 48  1  0  0  0  0
 23 41  1  0  0  0  0
 24 28  2  0  0  0  0
 24 51  1  0  0  0  0
 25 68  1  0  0  0  0
 26 77  1  0  0  0  0
 27 78  1  0  0  0  0
 28 79  1  0  0  0  0
 29 31  2  0  0  0  0
 29 77  1  0  0  0  0
 30 80  1  0  0  0  0
 31 81  1  0  0  0  0
 32 62  2  0  0  0  0
 33 63  1  0  0  0  0
 33 66  1  0  0  0  0
 34 67  1  0  0  0  0
 34 72  2  0  0  0  0
 35 49  1  0  0  0  0
 35 69  1  0  0  0  0
 35 73  2  0  0  0  0
 36 59  1  0  0  0  0
 36 64  1  0  0  0  0
 36 74  2  0  0  0  0
 37 60  1  0  0  0  0
 37 70  1  0  0  0  0
 37 75  2  0  0  0  0
 38 65  1  0  0  0  0
 38 68  1  0  0  0  0
 38 76  2  0  0  0  0
 39 42  1  0  0  0  0
 40 49  1  0  0  0  0
 41 64  1  0  0  0  0
 42 44  1  0  0  0  0
 43 45  1  0  0  0  0
 43 46  1  0  0  0  0
 44 48  1  0  0  0  0
 45 50  1  0  0  0  0
 46 65  1  0  0  0  0
 47 50  1  0  0  0  0
 47 65  1  0  0  0  0
 48 69  1  0  0  0  0
 49 64  1  0  0  0  0
 50 63  1  0  0  0  0
 52 60  1  0  0  0  0
 53 61  1  0  0  0  0
 54 61  1  0  0  0  0
 55 61  1  0  0  0  0
 56 71  1  0  0  0  0
 57 58  1  0  0  0  0
 57 78  1  0  0  0  0
 58 79  1  0  0  0  0
 59 61  1  0  0  0  0
 59 70  1  0  0  0  0
 60 71  1  0  0  0  0
 62 63  1  0  0  0  0
M  CHG  1  71   1
M  ISO  4  38 100  57 101  68 100  78 101
M  END
> <Batch ID>
0006

> <Smiles>
CNC(C)C(=O)NC(C(=O)N1Cc2cc([101O:1][101CH2:1]COc3ccc([100NH:0][100C:0](=O)N4CCCC(n5nc(-c6ccc(Oc7ccc(F)cc7F)cc6)c(C(N)=O)c5N)C4)cc3C)ccc2CC1C(=O)NC1CCCc2ccccc21)C(C)(C)C

> <Shape>
0.282

> <Color>
0.106

> <Negative vol penalty>
0.000

$$$$

  -OEChem-04052315303D

 86 94  0     1  0  0  0  0  0999 V2000
  -27.5008   -9.7914   21.6592 C   0  0  0  0  0  0  0  0  0  0  0  0
  -28.2038  -10.9678   21.4197 C   0  0  0  0  0  0  0  0  0  0  0  0
  -22.2428  -30.7999   22.0015 C   0  0  0  0  0  0  0  0  0  0  0  0
  -23.5751  -29.0243   22.9550 C   0  0  0  0  0  0  0  0  0  0  0  0
  -26.1251   -9.7453   21.4372 C   0  0  0  0  0  0  0  0  0  0  0  0
  -27.5317  -12.0985   20.9570 C   0  0  0  0  0  0  0  0  0  0  0  0
  -28.7781  -17.9375   22.3202 C   0  0  0  0  0  0  0  0  0  0  0  0
  -21.2007  -30.4866   22.8741 C   0  0  0  0  0  0  0  0  0  0  0  0
  -22.5330  -28.7110   23.8277 C   0  0  0  0  0  0  0  0  0  0  0  0
  -29.4867  -18.9283   21.6420 C   0  0  0  0  0  0  0  0  0  0  0  0
  -18.0545  -29.9209   24.6075 C   0  0  0  0  0  0  0  0  0  0  0  0
  -16.7636  -29.8590   24.0828 C   0  0  0  0  0  0  0  0  0  0  0  0
  -29.0190  -27.5744   21.9753 C   0  0  0  0  0  0  0  0  0  0  0  0
  -29.6686  -25.9888   23.6630 C   0  0  0  0  0  0  0  0  0  0  0  0
  -27.4198  -19.7728   20.7287 C   0  0  0  0  0  0  0  0  0  0  0  0
  -17.4603  -28.1036   22.5761 C   0  0  0  0  0  0  0  0  0  0  0  0
  -28.1579  -28.1316   22.9068 C   0  0  0  0  0  0  0  0  0  0  0  0
  -28.7785  -26.6171   24.5191 C   0  0  0  0  0  0  0  0  0  0  0  0
  -23.4300  -30.0687   22.0419 C   0  0  0  0  0  0  0  0  0  0  0  0
  -25.5586  -31.3001   21.3632 C   0  0  0  0  0  0  0  0  0  0  0  0
  -25.4342  -10.8788   20.9807 C   0  0  0  0  0  0  0  0  0  0  0  0
  -27.3839  -17.8499   22.1988 C   0  0  0  0  0  0  0  0  0  0  0  0
  -26.1457  -12.0671   20.7274 C   0  0  0  0  0  0  0  0  0  0  0  0
  -26.6956  -18.7814   21.4084 C   0  0  0  0  0  0  0  0  0  0  0  0
  -29.7852  -26.4828   22.3686 C   0  0  0  0  0  0  0  0  0  0  0  0
  -21.3458  -29.4422   23.7872 C   0  0  0  0  0  0  0  0  0  0  0  0
  -28.8078  -19.8444   20.8438 C   0  0  0  0  0  0  0  0  0  0  0  0
  -19.0484  -29.0742   24.1165 C   0  0  0  0  0  0  0  0  0  0  0  0
  -16.4665  -28.9503   23.0671 C   0  0  0  0  0  0  0  0  0  0  0  0
  -18.7512  -28.1655   23.1008 C   0  0  0  0  0  0  0  0  0  0  0  0
  -24.5067  -30.3914   21.1403 C   0  0  0  0  0  0  0  0  0  0  0  0
  -26.3090  -31.2450   20.2142 C   0  0  0  0  0  0  0  0  0  0  0  0
  -25.8328  -32.1205   22.5066 C   0  0  0  0  0  0  0  0  0  0  0  0
  -25.3612  -15.6587   21.0984 C   0  0  0  0  0  0  0  0  0  0  0  0
  -23.1256  -17.7034   22.2575 C   0  0  0  0  0  0  0  0  0  0  0  0
  -29.6155  -25.5313   19.1627 C   0  0  0  0  0  0  0  0  0  0  0  0
  -22.3031  -20.8917   23.1549 C   0  0  0  0  0  0  0  0  0  0  0  0
  -27.0475  -27.0318   16.0244 C   0  0  0  0  0  0  0  0  0  0  0  0
  -23.9547  -10.7670   20.7101 C   0  0  0  0  0  0  0  0  0  0  0  0
  -26.6315  -16.7917   22.9581 C   0  0  0  0  0  0  0  0  0  0  0  0
  -25.1972  -18.7430   21.2611 C   0  0  0  0  0  0  0  0  0  0  0  0
  -23.2561  -12.1178   20.5767 C   0  0  0  0  0  0  0  0  0  0  0  0
  -25.9203  -30.3721   15.5261 C   0  0  0  0  0  0  0  0  0  0  0  0
  -24.0562  -13.0450   19.6673 C   0  0  0  0  0  0  0  0  0  0  0  0
  -25.5251  -30.8378   16.9286 C   0  0  0  0  0  0  0  0  0  0  0  0
  -25.5861  -28.8984   15.3058 C   0  0  0  0  0  0  0  0  0  0  0  0
  -25.7401  -28.4460   17.7235 C   0  0  0  0  0  0  0  0  0  0  0  0
  -25.4480  -13.3218   20.2487 C   0  0  1  0  0  0  0  0  0  0  0  0
  -25.2661  -16.4793   22.3534 C   0  0  1  0  0  0  0  0  0  0  0  0
  -26.1086  -29.9113   18.0123 C   0  0  2  0  0  0  0  0  0  0  0  0
  -20.3908  -22.2604   24.0307 C   0  0  0  0  0  0  0  0  0  0  0  0
  -21.8261  -17.6496   19.4974 C   0  0  0  0  0  0  0  0  0  0  0  0
  -20.5432  -19.7019   20.1381 C   0  0  0  0  0  0  0  0  0  0  0  0
  -20.2161  -17.5810   21.4099 C   0  0  0  0  0  0  0  0  0  0  0  0
  -23.8054  -21.6435   25.5914 C   0  0  0  0  0  0  0  0  0  0  0  0
  -30.7343  -25.8396   21.3991 C   0  0  0  0  0  0  0  0  0  0  0  0
  -28.8976  -24.5692   18.2212 C   0  0  0  0  0  0  0  0  0  0  0  0
  -30.9324  -22.7262   20.3665 C   0  0  0  0  0  0  0  0  0  0  0  0
  -28.4813  -25.2047   16.8991 C   0  0  0  0  0  0  0  0  0  0  0  0
  -29.7935  -23.6476   20.7818 C   0  0  0  0  0  0  0  0  0  0  0  0
  -30.7046  -21.2777   20.7815 C   0  0  0  0  0  0  0  0  0  1  0  0
  -22.3641  -18.8823   21.7013 C   0  0  1  0  0  0  0  0  0  0  0  0
  -21.6226  -21.4457   24.3936 C   0  0  2  0  0  0  0  0  0  0  0  0
  -21.2658  -18.4535   20.6877 C   0  0  0  0  0  0  0  0  0  0  0  0
  -28.0174  -27.6795   24.1731 N   0  0  0  0  0  0  0  0  0  0  0  0
  -24.5789  -29.8024   19.9438 N   0  0  0  0  0  0  0  0  0  0  0  0
  -25.6852  -30.3422   19.4044 N   0  0  0  0  0  0  0  0  0  0  0  0
  -24.5070  -17.6858   22.0183 N   0  0  0  0  0  0  0  0  0  0  0  0
  -26.1700  -28.0739   16.3665 N   0  0  0  0  0  0  0  0  0  0  0  0
  -27.4351  -31.8814   19.8276 N   0  0  0  0  0  0  0  0  0  0  0  0
  -24.9600  -32.0544   23.6012 N   0  0  0  0  0  0  0  0  0  0  0  0
  -25.3651  -14.2943   21.3172 N   0  0  0  0  0  0  0  0  0  0  0  0
  -21.8587  -19.6219   22.8527 N   0  0  0  0  0  0  0  0  0  0  0  0
  -27.5610  -26.3034   17.0905 N   0  0  0  0  0  0  0  0  0  0  0  0
  -30.0311  -25.0140   20.4065 N   0  0  0  0  0  0  0  0  0  0  0  0
  -22.5597  -22.3226   25.1510 N   0  3  0  0  0  0  0  0  0  0  0  0
  -26.8134  -32.9016   22.5496 O   0  0  0  0  0  0  0  0  0  0  0  0
  -25.4247  -16.2217   20.0117 O   0  0  0  0  0  0  0  0  0  0  0  0
  -22.5182  -16.8340   22.8874 O   0  0  0  0  0  0  0  0  0  0  0  0
  -29.8145  -26.7027   18.8307 O   0  0  0  0  0  0  0  0  0  0  0  0
  -23.1421  -21.5237   22.5168 O   0  0  0  0  0  0  0  0  0  0  0  0
  -27.3549  -26.7732   14.8558 O   0  0  0  0  0  0  0  0  0  0  0  0
  -20.3293  -29.1364   24.6391 O   0  0  0  0  0  0  0  0  0  0  0  0
  -29.4970  -20.8122   20.1803 O   0  0  0  0  0  0  0  0  0  1  0  0
  -15.2264  -28.8899   22.5643 F   0  0  0  0  0  0  0  0  0  0  0  0
  -19.7016  -27.3487   22.6259 F   0  0  0  0  0  0  0  0  0  0  0  0
  1  2  1  0  0  0  0
  1  5  2  0  0  0  0
  2  6  2  0  0  0  0
  3  8  2  0  0  0  0
  3 19  1  0  0  0  0
  4  9  1  0  0  0  0
  4 19  2  0  0  0  0
  5 21  1  0  0  0  0
  6 23  1  0  0  0  0
  7 10  2  0  0  0  0
  7 22  1  0  0  0  0
  8 26  1  0  0  0  0
  9 26  2  0  0  0  0
 10 27  1  0  0  0  0
 11 12  2  0  0  0  0
 11 28  1  0  0  0  0
 12 29  1  0  0  0  0
 13 17  2  0  0  0  0
 13 25  1  0  0  0  0
 14 18  1  0  0  0  0
 14 25  2  0  0  0  0
 15 24  1  0  0  0  0
 15 27  2  0  0  0  0
 16 29  2  0  0  0  0
 16 30  1  0  0  0  0
 17 65  1  0  0  0  0
 18 65  2  0  0  0  0
 19 31  1  0  0  0  0
 20 31  1  0  0  0  0
 20 32  2  0  0  0  0
 20 33  1  0  0  0  0
 21 23  2  0  0  0  0
 21 39  1  0  0  0  0
 22 24  2  0  0  0  0
 22 40  1  0  0  0  0
 23 48  1  0  0  0  0
 24 41  1  0  0  0  0
 25 56  1  0  0  0  0
 26 83  1  0  0  0  0
 27 84  1  0  0  0  0
 28 30  2  0  0  0  0
 28 83  1  0  0  0  0
 29 85  1  0  0  0  0
 30 86  1  0  0  0  0
 31 66  2  0  0  0  0
 32 67  1  0  0  0  0
 32 70  1  0  0  0  0
 33 71  1  0  0  0  0
 33 77  2  0  0  0  0
 34 49  1  0  0  0  0
 34 72  1  0  0  0  0
 34 78  2  0  0  0  0
 35 62  1  0  0  0  0
 35 68  1  0  0  0  0
 35 79  2  0  0  0  0
 36 57  1  0  0  0  0
 36 75  1  0  0  0  0
 36 80  2  0  0  0  0
 37 63  1  0  0  0  0
 37 73  1  0  0  0  0
 37 81  2  0  0  0  0
 38 69  1  0  0  0  0
 38 74  1  0  0  0  0
 38 82  2  0  0  0  0
 39 42  1  0  0  0  0
 40 49  1  0  0  0  0
 41 68  1  0  0  0  0
 42 44  1  0  0  0  0
 43 45  1  0  0  0  0
 43 46  1  0  0  0  0
 44 48  1  0  0  0  0
 45 50  1  0  0  0  0
 46 69  1  0  0  0  0
 47 50  1  0  0  0  0
 47 69  1  0  0  0  0
 48 72  1  0  0  0  0
 49 68  1  0  0  0  0
 50 67  1  0  0  0  0
 51 63  1  0  0  0  0
 52 64  1  0  0  0  0
 53 64  1  0  0  0  0
 54 64  1  0  0  0  0
 55 76  1  0  0  0  0
 56 75  1  0  0  0  0
 57 59  1  0  0  0  0
 58 60  1  0  0  0  0
 58 61  1  0  0  0  0
 59 74  1  0  0  0  0
 60 75  1  0  0  0  0
 61 84  1  0  0  0  0
 62 64  1  0  0  0  0
 62 73  1  0  0  0  0
 63 76  1  0  0  0  0
 66 67  1  0  0  0  0
M  CHG  1  76   1
M  ISO  4  38 100  61 101  74 100  84 101
M  END
> <Batch ID>
0006

> <Smiles>
CNC(C)C(=O)NC(C(=O)N1Cc2cc([101O:1][101CH2:1]CCN(Cc3ccncc3)C(=O)CC[100NH:0][100C:0](=O)N3CCCC(n4nc(-c5ccc(Oc6ccc(F)cc6F)cc5)c(C(N)=O)c4N)C3)ccc2CC1C(=O)NC1CCCc2ccccc21)C(C)(C)C

> <Shape>
0.238

> <Color>
0.059

> <Negative vol penalty>
0.000

$$$$

  -OEChem-04052315303D

 89 97  0     1  0  0  0  0  0999 V2000
  -18.2278  -33.7381    7.4394 C   0  0  0  0  0  0  0  0  0  0  0  0
  -18.3268  -32.7258    8.3885 C   0  0  0  0  0  0  0  0  0  0  0  0
  -23.0794   -9.8893   19.8969 C   0  0  0  0  0  0  0  0  0  0  0  0
  -23.8606   -9.8170   22.1820 C   0  0  0  0  0  0  0  0  0  0  0  0
  -19.1188  -34.8101    7.4697 C   0  0  0  0  0  0  0  0  0  0  0  0
  -19.3176  -32.7844    9.3680 C   0  0  0  0  0  0  0  0  0  0  0  0
  -18.8867  -30.8458   15.1612 C   0  0  0  0  0  0  0  0  0  0  0  0
  -27.7209  -22.3366   19.3607 C   0  0  0  0  0  0  0  0  0  0  0  0
  -25.6664  -21.2623   18.6811 C   0  0  0  0  0  0  0  0  0  0  0  0
  -22.3509   -8.7189   20.1089 C   0  0  0  0  0  0  0  0  0  0  0  0
  -23.1320   -8.6466   22.3940 C   0  0  0  0  0  0  0  0  0  0  0  0
  -19.3004  -29.6728   15.7910 C   0  0  0  0  0  0  0  0  0  0  0  0
  -27.3306  -23.5012   18.6998 C   0  0  0  0  0  0  0  0  0  0  0  0
  -25.2760  -22.4270   18.0202 C   0  0  0  0  0  0  0  0  0  0  0  0
  -19.9188   -7.7888   22.9940 C   0  0  0  0  0  0  0  0  0  0  0  0
  -19.1733   -7.6952   24.1692 C   0  0  0  0  0  0  0  0  0  0  0  0
  -21.3246  -30.7756   16.5021 C   0  0  0  0  0  0  0  0  0  0  0  0
  -20.4433   -5.7454   24.8194 C   0  0  0  0  0  0  0  0  0  0  0  0
  -23.8343  -10.4384   20.9335 C   0  0  0  0  0  0  0  0  0  0  0  0
  -24.1466  -12.9701   20.9078 C   0  0  0  0  0  0  0  0  0  0  0  0
  -20.1149  -34.8868    8.4558 C   0  0  0  0  0  0  0  0  0  0  0  0
  -19.6952  -31.9912   15.1879 C   0  0  0  0  0  0  0  0  0  0  0  0
  -20.2236  -33.8578    9.4107 C   0  0  0  0  0  0  0  0  0  0  0  0
  -20.9177  -31.9626   15.8741 C   0  0  0  0  0  0  0  0  0  0  0  0
  -26.8888  -21.2171   19.3513 C   0  0  0  0  0  0  0  0  0  0  0  0
  -22.3772   -8.0975   21.3574 C   0  0  0  0  0  0  0  0  0  0  0  0
  -26.1081  -23.5465   18.0296 C   0  0  0  0  0  0  0  0  0  0  0  0
  -20.5208  -29.6367   16.4591 C   0  0  0  0  0  0  0  0  0  0  0  0
  -20.9265   -6.8607   22.7315 C   0  0  0  0  0  0  0  0  0  0  0  0
  -19.4356   -6.6735   25.0819 C   0  0  0  0  0  0  0  0  0  0  0  0
  -21.1887   -5.8390   23.6442 C   0  0  0  0  0  0  0  0  0  0  0  0
  -24.5875  -11.6471   20.7150 C   0  0  0  0  0  0  0  0  0  0  0  0
  -25.2268  -13.7456   20.5639 C   0  0  0  0  0  0  0  0  0  0  0  0
  -22.8744  -13.4547   21.3575 C   0  0  0  0  0  0  0  0  0  0  0  0
  -21.1534  -33.7594   12.9854 C   0  0  0  0  0  0  0  0  0  0  0  0
  -21.8398  -35.6580   15.5244 C   0  0  0  0  0  0  0  0  0  0  0  0
  -28.6585  -19.6660   20.1744 C   0  0  0  0  0  0  0  0  0  0  0  0
  -22.2648  -35.9420   18.8987 C   0  0  0  0  0  0  0  0  0  0  0  0
  -30.7003  -14.8201   20.7426 C   0  0  0  0  0  0  0  0  0  0  0  0
  -21.0849  -36.0411    8.4196 C   0  0  0  0  0  0  0  0  0  0  0  0
  -19.2224  -33.2566   14.5264 C   0  0  0  0  0  0  0  0  0  0  0  0
  -21.8133  -33.1712   15.9494 C   0  0  0  0  0  0  0  0  0  0  0  0
  -21.8697  -36.2182    9.7169 C   0  0  0  0  0  0  0  0  0  0  0  0
  -29.5673  -12.5161   18.2760 C   0  0  0  0  0  0  0  0  0  0  0  0
  -22.4107  -34.8766   10.2009 C   0  0  0  0  0  0  0  0  0  0  0  0
  -28.1374  -12.1893   18.7100 C   0  0  0  0  0  0  0  0  0  0  0  0
  -30.4931  -12.7012   19.4763 C   0  0  0  0  0  0  0  0  0  0  0  0
  -28.5963  -13.3564   20.9069 C   0  0  0  0  0  0  0  0  0  0  0  0
  -21.2693  -33.8983   10.5039 C   0  0  1  0  0  0  0  0  0  0  0  0
  -20.3610  -34.2109   14.1795 C   0  0  1  0  0  0  0  0  0  0  0  0
  -27.6132  -13.2159   19.7321 C   0  0  2  0  0  0  0  0  0  0  0  0
  -22.8596  -37.6110   20.6756 C   0  0  0  0  0  0  0  0  0  0  0  0
  -24.7729  -35.4852   14.7014 C   0  0  0  0  0  0  0  0  0  0  0  0
  -25.3885  -36.3345   16.9747 C   0  0  0  0  0  0  0  0  0  0  0  0
  -24.0287  -37.7556   15.4404 C   0  0  0  0  0  0  0  0  0  0  0  0
  -26.2231  -19.2175   20.6675 C   0  0  0  0  0  0  0  0  0  0  0  0
  -19.6515  -35.6108   20.2478 C   0  0  0  0  0  0  0  0  0  0  0  0
  -28.9594  -18.4420   21.0375 C   0  0  0  0  0  0  0  0  0  0  0  0
  -30.4525  -18.1112   21.1497 C   0  0  0  0  0  0  0  0  0  0  0  0
  -24.0768  -26.4441   17.2392 C   0  0  0  0  0  0  0  0  0  0  0  0
  -22.5873  -26.7625   17.1694 C   0  0  0  0  0  0  0  0  0  0  0  0
  -30.7535  -16.9222   22.0608 C   0  0  0  0  0  0  0  0  0  0  0  0
  -24.3282  -24.9431   17.2968 C   0  0  0  0  0  0  0  0  0  0  0  0
  -22.3334  -28.2632   17.1550 C   0  0  0  0  0  0  0  0  0  1  0  0
  -22.9651  -35.7361   16.5277 C   0  0  1  0  0  0  0  0  0  0  0  0
  -21.7307  -36.9504   19.8998 C   0  0  2  0  0  0  0  0  0  0  0  0
  -24.2731  -36.3043   15.9082 C   0  0  0  0  0  0  0  0  0  0  0  0
  -25.8494  -11.5821   20.2821 N   0  0  0  0  0  0  0  0  0  0  0  0
  -26.2106  -12.8739   20.1999 N   0  0  0  0  0  0  0  0  0  0  0  0
  -21.3099  -34.3829   15.2815 N   0  0  0  0  0  0  0  0  0  0  0  0
  -29.9393  -13.6885   20.4061 N   0  0  0  0  0  0  0  0  0  0  0  0
  -25.4215  -15.0812   20.5404 N   0  0  0  0  0  0  0  0  0  0  0  0
  -21.8759  -12.5215   21.6685 N   0  0  0  0  0  0  0  0  0  0  0  0
  -20.6586  -34.2131   11.7776 N   0  0  0  0  0  0  0  0  0  0  0  0
  -22.4538  -36.5075   17.6554 N   0  0  0  0  0  0  0  0  0  0  0  0
  -30.0986  -15.7089   21.6251 N   0  0  0  0  0  0  0  0  0  0  0  0
  -27.2791  -20.0520   20.0123 N   0  0  0  0  0  0  0  0  0  0  0  0
  -20.8202  -36.2825   20.8723 N   0  3  0  0  0  0  0  0  0  0  0  0
  -22.6248  -14.6793   21.4643 O   0  0  0  0  0  0  0  0  0  0  0  0
  -22.1414  -33.0530   13.1479 O   0  0  0  0  0  0  0  0  0  0  0  0
  -21.4407  -36.6914   14.9817 O   0  0  0  0  0  0  0  0  0  0  0  0
  -29.5912  -20.2961   19.6695 O   0  0  0  0  0  0  0  0  0  0  0  0
  -22.4950  -34.7707   19.1912 O   0  0  0  0  0  0  0  0  0  0  0  0
  -31.8299  -15.0261   20.2860 O   0  0  0  0  0  0  0  0  0  0  0  0
  -21.6663   -6.9555   21.5647 O   0  0  0  0  0  0  0  0  0  0  0  0
  -25.7245  -24.6908   17.3802 O   0  0  0  0  0  0  0  0  0  0  0  0
  -20.9273  -28.4928   17.0742 O   0  0  0  0  0  0  0  0  0  1  0  0
  -18.7206   -6.5846   26.2111 F   0  0  0  0  0  0  0  0  0  0  0  0
  -22.1563   -4.9452   23.3980 F   0  0  0  0  0  0  0  0  0  0  0  0
  1  2  1  0  0  0  0
  1  5  2  0  0  0  0
  2  6  2  0  0  0  0
  3 10  2  0  0  0  0
  3 19  1  0  0  0  0
  4 11  1  0  0  0  0
  4 19  2  0  0  0  0
  5 21  1  0  0  0  0
  6 23  1  0  0  0  0
  7 12  2  0  0  0  0
  7 22  1  0  0  0  0
  8 13  2  0  0  0  0
  8 25  1  0  0  0  0
  9 14  1  0  0  0  0
  9 25  2  0  0  0  0
 10 26  1  0  0  0  0
 11 26  2  0  0  0  0
 12 28  1  0  0  0  0
 13 27  1  0  0  0  0
 14 27  2  0  0  0  0
 15 16  2  0  0  0  0
 15 29  1  0  0  0  0
 16 30  1  0  0  0  0
 17 24  1  0  0  0  0
 17 28  2  0  0  0  0
 18 30  2  0  0  0  0
 18 31  1  0  0  0  0
 19 32  1  0  0  0  0
 20 32  1  0  0  0  0
 20 33  2  0  0  0  0
 20 34  1  0  0  0  0
 21 23  2  0  0  0  0
 21 40  1  0  0  0  0
 22 24  2  0  0  0  0
 22 41  1  0  0  0  0
 23 49  1  0  0  0  0
 24 42  1  0  0  0  0
 25 77  1  0  0  0  0
 26 85  1  0  0  0  0
 27 86  1  0  0  0  0
 28 87  1  0  0  0  0
 29 31  2  0  0  0  0
 29 85  1  0  0  0  0
 30 88  1  0  0  0  0
 31 89  1  0  0  0  0
 32 68  2  0  0  0  0
 33 69  1  0  0  0  0
 33 72  1  0  0  0  0
 34 73  1  0  0  0  0
 34 79  2  0  0  0  0
 35 50  1  0  0  0  0
 35 74  1  0  0  0  0
 35 80  2  0  0  0  0
 36 65  1  0  0  0  0
 36 70  1  0  0  0  0
 36 81  2  0  0  0  0
 37 58  1  0  0  0  0
 37 77  1  0  0  0  0
 37 82  2  0  0  0  0
 38 66  1  0  0  0  0
 38 75  1  0  0  0  0
 38 83  2  0  0  0  0
 39 71  1  0  0  0  0
 39 76  1  0  0  0  0
 39 84  2  0  0  0  0
 40 43  1  0  0  0  0
 41 50  1  0  0  0  0
 42 70  1  0  0  0  0
 43 45  1  0  0  0  0
 44 46  1  0  0  0  0
 44 47  1  0  0  0  0
 45 49  1  0  0  0  0
 46 51  1  0  0  0  0
 47 71  1  0  0  0  0
 48 51  1  0  0  0  0
 48 71  1  0  0  0  0
 49 74  1  0  0  0  0
 50 70  1  0  0  0  0
 51 69  1  0  0  0  0
 52 66  1  0  0  0  0
 53 67  1  0  0  0  0
 54 67  1  0  0  0  0
 55 67  1  0  0  0  0
 56 77  1  0  0  0  0
 57 78  1  0  0  0  0
 58 59  1  0  0  0  0
 59 62  1  0  0  0  0
 60 61  1  0  0  0  0
 60 63  1  0  0  0  0
 61 64  1  0  0  0  0
 62 76  1  0  0  0  0
 63 86  1  0  0  0  0
 64 87  1  0  0  0  0
 65 67  1  0  0  0  0
 65 75  1  0  0  0  0
 66 78  1  0  0  0  0
 68 69  1  0  0  0  0
M  CHG  1  78   1
M  ISO  4  39 100  64 101  76 100  87 101
M  END
> <Batch ID>
0006

> <Smiles>
CNC(C)C(=O)NC(C(=O)N1Cc2cc([101O:1][101CH2:1]CCCOc3ccc(N(C)C(=O)CCC[100NH:0][100C:0](=O)N4CCCC(n5nc(-c6ccc(Oc7ccc(F)cc7F)cc6)c(C(N)=O)c5N)C4)cc3)ccc2CC1C(=O)NC1CCCc2ccccc21)C(C)(C)C

> <Shape>
0.196

> <Color>
0.211

> <Negative vol penalty>
0.000

$$$$

  -OEChem-04052315303D

 91 98  0     1  0  0  0  0  0999 V2000
  -22.2054  -14.2882   19.1406 C   0  0  0  0  0  0  0  0  0  0  0  0
  -22.7732  -15.4696   19.6068 C   0  0  0  0  0  0  0  0  0  0  0  0
  -24.5563  -22.5807   23.3244 C   0  0  0  0  0  0  0  0  0  0  0  0
  -22.4766  -23.1722   24.4024 C   0  0  0  0  0  0  0  0  0  0  0  0
  -22.8730  -13.0773   19.3190 C   0  0  0  0  0  0  0  0  0  0  0  0
  -24.0088  -15.4406   20.2526 C   0  0  0  0  0  0  0  0  0  0  0  0
  -27.1191  -19.1066   18.6615 C   0  0  0  0  0  0  0  0  0  0  0  0
  -24.9600  -21.9032   24.4749 C   0  0  0  0  0  0  0  0  0  0  0  0
  -22.8802  -22.4947   25.5529 C   0  0  0  0  0  0  0  0  0  0  0  0
  -26.8974  -20.3901   19.1588 C   0  0  0  0  0  0  0  0  0  0  0  0
  -24.3564  -18.9216   25.9509 C   0  0  0  0  0  0  0  0  0  0  0  0
  -24.9282  -17.6592   25.7928 C   0  0  0  0  0  0  0  0  0  0  0  0
  -28.6826  -20.0752   20.7504 C   0  0  0  0  0  0  0  0  0  0  0  0
  -26.9566  -18.4464   26.8431 C   0  0  0  0  0  0  0  0  0  0  0  0
  -23.3146  -23.2153   23.2882 C   0  0  0  0  0  0  0  0  0  0  0  0
  -22.1814  -23.3876   21.0092 C   0  0  0  0  0  0  0  0  0  0  0  0
  -24.1219  -13.0347   19.9588 C   0  0  0  0  0  0  0  0  0  0  0  0
  -28.1187  -18.2923   19.2131 C   0  0  0  0  0  0  0  0  0  0  0  0
  -24.6932  -14.2278   20.4409 C   0  0  0  0  0  0  0  0  0  0  0  0
  -28.9166  -18.7827   20.2566 C   0  0  0  0  0  0  0  0  0  0  0  0
  -24.1219  -21.8602   25.5892 C   0  0  0  0  0  0  0  0  0  0  0  0
  -27.6772  -20.8735   20.2054 C   0  0  0  0  0  0  0  0  0  0  0  0
  -25.0848  -19.9464   26.5550 C   0  0  0  0  0  0  0  0  0  0  0  0
  -26.2283  -17.4216   26.2389 C   0  0  0  0  0  0  0  0  0  0  0  0
  -26.3848  -19.7088   27.0011 C   0  0  0  0  0  0  0  0  0  0  0  0
  -22.8973  -23.9158   22.1002 C   0  0  0  0  0  0  0  0  0  0  0  0
  -22.0359  -24.4479   20.1484 C   0  0  0  0  0  0  0  0  0  0  0  0
  -21.6917  -22.0575   20.7932 C   0  0  0  0  0  0  0  0  0  0  0  0
  -28.1550  -15.4904   20.7137 C   0  0  0  0  0  0  0  0  0  0  0  0
  -31.3708  -15.8596   20.5026 C   0  0  0  0  0  0  0  0  0  0  0  0
  -25.6957  -34.6231   23.1070 C   0  0  0  0  0  0  0  0  0  0  0  0
  -27.5973  -26.1874   22.0570 C   0  0  0  0  0  0  0  0  0  0  0  0
  -34.0294  -17.9755   20.1840 C   0  0  0  0  0  0  0  0  0  0  0  0
  -21.9197  -30.2778   21.0731 C   0  0  0  0  0  0  0  0  0  0  0  0
  -24.7837  -11.6961   20.1706 C   0  0  0  0  0  0  0  0  0  0  0  0
  -28.3629  -16.9201   18.6476 C   0  0  0  0  0  0  0  0  0  0  0  0
  -30.0160  -17.9559   20.8701 C   0  0  0  0  0  0  0  0  0  0  0  0
  -26.2632  -11.7985   20.5323 C   0  0  0  0  0  0  0  0  0  0  0  0
  -24.1669  -28.5288   18.8396 C   0  0  0  0  0  0  0  0  0  0  0  0
  -26.4766  -12.8531   21.6135 C   0  0  0  0  0  0  0  0  0  0  0  0
  -24.0209  -27.0868   19.3290 C   0  0  0  0  0  0  0  0  0  0  0  0
  -24.1256  -29.5145   20.0035 C   0  0  0  0  0  0  0  0  0  0  0  0
  -22.7641  -27.9644   21.3515 C   0  0  0  0  0  0  0  0  0  0  0  0
  -26.0433  -14.2403   21.1244 C   0  0  1  0  0  0  0  0  0  0  0  0
  -29.0670  -15.9867   19.6276 C   0  0  1  0  0  0  0  0  0  0  0  0
  -22.7754  -26.9208   20.2197 C   0  0  2  0  0  0  0  0  0  0  0  0
  -36.5368  -17.9868   20.0809 C   0  0  0  0  0  0  0  0  0  0  0  0
  -31.4944  -15.4120   23.5183 C   0  0  0  0  0  0  0  0  0  0  0  0
  -33.8117  -16.3594   23.4938 C   0  0  0  0  0  0  0  0  0  0  0  0
  -33.3046  -14.2754   22.2199 C   0  0  0  0  0  0  0  0  0  0  0  0
  -26.3943  -25.7911   24.2204 C   0  0  0  0  0  0  0  0  0  0  0  0
  -34.0282  -19.1501   17.4675 C   0  0  0  0  0  0  0  0  0  0  0  0
  -24.5557  -35.6276   23.0717 C   0  0  0  0  0  0  0  0  0  0  0  0
  -27.0482  -24.8399   21.6065 C   0  0  0  0  0  0  0  0  0  0  0  0
  -23.1694  -34.9860   23.1022 C   0  0  0  0  0  0  0  0  0  0  0  0
  -27.4847  -24.4715   20.1901 C   0  0  0  0  0  0  0  0  0  0  0  0
  -22.9061  -34.1083   21.8742 C   0  0  0  0  0  0  0  0  0  0  0  0
  -27.1834  -30.3346   24.2378 C   0  0  0  0  0  0  0  0  0  0  0  0
  -21.5202  -33.4595   21.9449 C   0  0  0  0  0  0  0  0  0  0  0  0
  -26.1621  -31.4461   23.9759 C   0  0  0  0  0  0  0  0  0  0  0  0
  -26.7267  -29.0078   23.6226 C   0  0  0  0  0  0  0  0  0  0  0  0
  -26.6121  -32.7966   24.5236 C   0  0  0  0  0  0  0  0  0  0  0  0
  -21.2027  -32.6250   20.7079 C   0  0  0  0  0  0  0  0  0  0  0  0
  -27.6916  -27.8634   23.9148 C   0  0  0  0  0  0  0  0  0  0  0  0
  -26.9637  -23.1018   19.7795 C   0  0  0  0  0  0  0  0  0  1  0  0
  -32.4336  -16.4911   21.3690 C   0  0  1  0  0  0  0  0  0  0  0  0
  -35.2465  -17.9344   19.2776 C   0  0  2  0  0  0  0  0  0  0  0  0
  -32.7392  -15.6496   22.6402 C   0  0  0  0  0  0  0  0  0  0  0  0
  -23.1866  -25.2109   21.9487 N   0  0  0  0  0  0  0  0  0  0  0  0
  -22.6498  -25.5055   20.7524 N   0  0  0  0  0  0  0  0  0  0  0  0
  -30.2118  -16.6184   20.2868 N   0  0  0  0  0  0  0  0  0  0  0  0
  -22.9067  -29.3161   20.8005 N   0  0  0  0  0  0  0  0  0  0  0  0
  -21.4439  -24.5695   18.9412 N   0  0  0  0  0  0  0  0  0  0  0  0
  -21.9285  -21.0900   21.7792 N   0  0  0  0  0  0  0  0  0  0  0  0
  -27.0487  -14.8047   20.2497 N   0  0  0  0  0  0  0  0  0  0  0  0
  -25.6617  -33.8406   24.2573 N   0  0  0  0  0  0  0  0  0  0  0  0
  -33.5886  -16.7090   20.5048 N   0  0  0  0  0  0  0  0  0  0  0  0
  -22.1334  -31.5344   20.5201 N   0  0  0  0  0  0  0  0  0  0  0  0
  -27.2422  -26.5985   23.3463 N   0  0  0  0  0  0  0  0  0  0  0  0
  -35.2312  -19.0903   18.3371 N   0  3  0  0  0  0  0  0  0  0  0  0
  -21.0770  -21.7324   19.7492 O   0  0  0  0  0  0  0  0  0  0  0  0
  -28.4351  -15.7119   21.8859 O   0  0  0  0  0  0  0  0  0  0  0  0
  -31.5650  -14.7373   20.0288 O   0  0  0  0  0  0  0  0  0  0  0  0
  -26.5245  -34.5126   22.2076 O   0  0  0  0  0  0  0  0  0  0  0  0
  -28.3118  -26.8548   21.3044 O   0  0  0  0  0  0  0  0  0  0  0  0
  -33.5229  -19.0260   20.5719 O   0  0  0  0  0  0  0  0  0  0  0  0
  -20.9185  -30.0331   21.7549 O   0  0  0  0  0  0  0  0  0  0  0  0
  -24.5154  -21.1990   26.7119 O   0  0  0  0  0  0  0  0  0  0  0  0
  -27.4625  -22.1256   20.6931 O   0  0  0  0  0  0  0  0  0  1  0  0
  -26.7767  -16.2088   26.0884 F   0  0  0  0  0  0  0  0  0  0  0  0
  -27.0890  -20.6891   27.5833 F   0  0  0  0  0  0  0  0  0  0  0  0
  1  2  1  0  0  0  0
  1  5  2  0  0  0  0
  2  6  2  0  0  0  0
  3  8  2  0  0  0  0
  3 15  1  0  0  0  0
  4  9  1  0  0  0  0
  4 15  2  0  0  0  0
  5 17  1  0  0  0  0
  6 19  1  0  0  0  0
  7 10  2  0  0  0  0
  7 18  1  0  0  0  0
  8 21  1  0  0  0  0
  9 21  2  0  0  0  0
 10 22  1  0  0  0  0
 11 12  2  0  0  0  0
 11 23  1  0  0  0  0
 12 24  1  0  0  0  0
 13 20  1  0  0  0  0
 13 22  2  0  0  0  0
 14 24  2  0  0  0  0
 14 25  1  0  0  0  0
 15 26  1  0  0  0  0
 16 26  1  0  0  0  0
 16 27  2  0  0  0  0
 16 28  1  0  0  0  0
 17 19  2  0  0  0  0
 17 35  1  0  0  0  0
 18 20  2  0  0  0  0
 18 36  1  0  0  0  0
 19 44  1  0  0  0  0
 20 37  1  0  0  0  0
 21 88  1  0  0  0  0
 22 89  1  0  0  0  0
 23 25  2  0  0  0  0
 23 88  1  0  0  0  0
 24 90  1  0  0  0  0
 25 91  1  0  0  0  0
 26 69  2  0  0  0  0
 27 70  1  0  0  0  0
 27 73  1  0  0  0  0
 28 74  1  0  0  0  0
 28 81  2  0  0  0  0
 29 45  1  0  0  0  0
 29 75  1  0  0  0  0
 29 82  2  0  0  0  0
 30 66  1  0  0  0  0
 30 71  1  0  0  0  0
 30 83  2  0  0  0  0
 31 53  1  0  0  0  0
 31 76  1  0  0  0  0
 31 84  2  0  0  0  0
 32 54  1  0  0  0  0
 32 79  1  0  0  0  0
 32 85  2  0  0  0  0
 33 67  1  0  0  0  0
 33 77  1  0  0  0  0
 33 86  2  0  0  0  0
 34 72  1  0  0  0  0
 34 78  1  0  0  0  0
 34 87  2  0  0  0  0
 35 38  1  0  0  0  0
 36 45  1  0  0  0  0
 37 71  1  0  0  0  0
 38 40  1  0  0  0  0
 39 41  1  0  0  0  0
 39 42  1  0  0  0  0
 40 44  1  0  0  0  0
 41 46  1  0  0  0  0
 42 72  1  0  0  0  0
 43 46  1  0  0  0  0
 43 72  1  0  0  0  0
 44 75  1  0  0  0  0
 45 71  1  0  0  0  0
 46 70  1  0  0  0  0
 47 67  1  0  0  0  0
 48 68  1  0  0  0  0
 49 68  1  0  0  0  0
 50 68  1  0  0  0  0
 51 79  1  0  0  0  0
 52 80  1  0  0  0  0
 53 55  1  0  0  0  0
 54 56  1  0  0  0  0
 55 57  1  0  0  0  0
 56 65  1  0  0  0  0
 57 59  1  0  0  0  0
 58 60  1  0  0  0  0
 58 61  1  0  0  0  0
 59 63  1  0  0  0  0
 60 62  1  0  0  0  0
 61 64  1  0  0  0  0
 62 76  1  0  0  0  0
 63 78  1  0  0  0  0
 64 79  1  0  0  0  0
 65 89  1  0  0  0  0
 66 68  1  0  0  0  0
 66 77  1  0  0  0  0
 67 80  1  0  0  0  0
 69 70  1  0  0  0  0
M  CHG  1  80   1
M  ISO  4  34 100  65 101  78 100  89 101
M  END
> <Batch ID>
0006

> <Smiles>
CNC(C)C(=O)NC(C(=O)N1Cc2cc([101O:1][101CH2:1]CCC(=O)N(C)CCCCCNC(=O)CCCCC[100NH:0][100C:0](=O)N3CCCC(n4nc(-c5ccc(Oc6ccc(F)cc6F)cc5)c(C(N)=O)c4N)C3)ccc2CC1C(=O)NC1CCCc2ccccc21)C(C)(C)C

> <Shape>
0.193

> <Color>
0.072

> <Negative vol penalty>
0.000

$$$$

  -OEChem-04052315303D

 90 98  0     1  0  0  0  0  0999 V2000
  -17.7239  -25.8429   23.3286 C   0  0  0  0  0  0  0  0  0  0  0  0
  -18.9909  -25.4691   22.8921 C   0  0  0  0  0  0  0  0  0  0  0  0
  -19.5138  -26.0783   18.2856 C   0  0  0  0  0  0  0  0  0  0  0  0
  -20.7660  -26.6924   18.3046 C   0  0  0  0  0  0  0  0  0  0  0  0
  -23.7317  -14.4698   21.9727 C   0  0  0  0  0  0  0  0  0  0  0  0
  -24.5139  -15.0717   19.7675 C   0  0  0  0  0  0  0  0  0  0  0  0
  -17.3047  -27.1661   23.1969 C   0  0  0  0  0  0  0  0  0  0  0  0
  -19.8390  -26.4182   22.3227 C   0  0  0  0  0  0  0  0  0  0  0  0
  -25.9383  -26.6710   22.8138 C   0  0  0  0  0  0  0  0  0  0  0  0
  -19.4066  -24.7057   18.5099 C   0  0  0  0  0  0  0  0  0  0  0  0
  -24.2205  -13.1758   21.7930 C   0  0  0  0  0  0  0  0  0  0  0  0
  -25.0028  -13.7777   19.5877 C   0  0  0  0  0  0  0  0  0  0  0  0
  -26.9655  -26.2549   21.9680 C   0  0  0  0  0  0  0  0  0  0  0  0
  -24.9440   -9.6122   21.7728 C   0  0  0  0  0  0  0  0  0  0  0  0
  -24.1228   -8.5491   22.1482 C   0  0  0  0  0  0  0  0  0  0  0  0
  -21.9111  -25.9340   18.5479 C   0  0  0  0  0  0  0  0  0  0  0  0
  -27.1267  -28.4897   21.0742 C   0  0  0  0  0  0  0  0  0  0  0  0
  -22.4469   -9.2870   20.5722 C   0  0  0  0  0  0  0  0  0  0  0  0
  -23.8783  -15.4177   20.9599 C   0  0  0  0  0  0  0  0  0  0  0  0
  -24.0609  -17.8555   21.6891 C   0  0  0  0  0  0  0  0  0  0  0  0
  -18.1518  -28.1339   22.6344 C   0  0  0  0  0  0  0  0  0  0  0  0
  -25.4894  -27.9993   22.7884 C   0  0  0  0  0  0  0  0  0  0  0  0
  -19.4303  -27.7553   22.1821 C   0  0  0  0  0  0  0  0  0  0  0  0
  -26.0954  -28.9208   21.9225 C   0  0  0  0  0  0  0  0  0  0  0  0
  -20.5517  -23.9473   18.7532 C   0  0  0  0  0  0  0  0  0  0  0  0
  -24.8561  -12.8298   20.6005 C   0  0  0  0  0  0  0  0  0  0  0  0
  -27.5579  -27.1636   21.0959 C   0  0  0  0  0  0  0  0  0  0  0  0
  -24.5166  -10.5128   20.7971 C   0  0  0  0  0  0  0  0  0  0  0  0
  -22.8743   -8.3865   21.5479 C   0  0  0  0  0  0  0  0  0  0  0  0
  -23.2681  -10.3502   20.1968 C   0  0  0  0  0  0  0  0  0  0  0  0
  -21.8039  -24.5614   18.7722 C   0  0  0  0  0  0  0  0  0  0  0  0
  -23.3730  -16.7544   21.1448 C   0  0  0  0  0  0  0  0  0  0  0  0
  -23.1514  -18.8838   21.6462 C   0  0  0  0  0  0  0  0  0  0  0  0
  -25.4020  -17.9411   22.1887 C   0  0  0  0  0  0  0  0  0  0  0  0
  -22.7277  -29.4213   22.1140 C   0  0  0  0  0  0  0  0  0  0  0  0
  -24.2963  -32.0767   23.1193 C   0  0  0  0  0  0  0  0  0  0  0  0
  -27.2742  -33.6641   23.6282 C   0  0  0  0  0  0  0  0  0  0  0  0
  -19.2333  -21.8134   18.9874 C   0  0  0  0  0  0  0  0  0  0  0  0
  -17.6369  -29.5419   22.4697 C   0  0  0  0  0  0  0  0  0  0  0  0
  -24.3985  -28.4387   23.7261 C   0  0  0  0  0  0  0  0  0  0  0  0
  -25.6638  -30.3629   21.8710 C   0  0  0  0  0  0  0  0  0  0  0  0
  -18.7369  -30.5649   22.1981 C   0  0  0  0  0  0  0  0  0  0  0  0
  -18.1863  -18.8509   20.6620 C   0  0  0  0  0  0  0  0  0  0  0  0
  -19.6925  -30.0494   21.1266 C   0  0  0  0  0  0  0  0  0  0  0  0
  -19.4989  -18.1320   20.9817 C   0  0  0  0  0  0  0  0  0  0  0  0
  -18.2417  -19.5577   19.3088 C   0  0  0  0  0  0  0  0  0  0  0  0
  -20.6940  -19.7472   19.4488 C   0  0  0  0  0  0  0  0  0  0  0  0
  -20.3885  -28.7611   21.5818 C   0  0  1  0  0  0  0  0  0  0  0  0
  -23.6716  -29.6930   23.2511 C   0  0  1  0  0  0  0  0  0  0  0  0
  -20.7089  -19.0747   20.8312 C   0  0  2  0  0  0  0  0  0  0  0  0
  -28.2351  -35.8412   24.4247 C   0  0  0  0  0  0  0  0  0  0  0  0
  -23.5212  -33.3839   20.4735 C   0  0  0  0  0  0  0  0  0  0  0  0
  -25.2595  -35.1325   20.9083 C   0  0  0  0  0  0  0  0  0  0  0  0
  -23.3313  -34.8777   22.4702 C   0  0  0  0  0  0  0  0  0  0  0  0
  -28.7214  -32.3464   25.8482 C   0  0  0  0  0  0  0  0  0  0  0  0
  -28.0830  -23.0942   16.4846 C   0  0  0  0  0  0  0  0  0  0  0  0
  -26.6620  -23.4311   16.0204 C   0  0  0  0  0  0  0  0  0  0  0  0
  -28.9660  -24.3265   16.6941 C   0  0  0  0  0  0  0  0  0  0  0  0
  -25.7738  -22.1974   15.8391 C   0  0  0  0  0  0  0  0  0  0  0  0
  -28.3576  -25.2733   17.7321 C   0  0  0  0  0  0  0  0  0  0  0  0
  -24.3497  -22.5347   15.3783 C   0  0  0  0  0  0  0  0  0  0  0  0
  -29.2549  -26.4924   17.9654 C   0  0  0  0  0  0  0  0  0  0  0  0
  -23.5410  -23.3922   16.3467 C   0  0  0  0  0  0  0  0  0  0  0  0
  -28.6858  -27.4341   19.0198 C   0  0  0  0  0  0  0  0  0  1  0  0
  -25.1548  -33.1266   22.4562 C   0  0  1  0  0  0  0  0  0  0  0  0
  -27.8145  -34.4341   24.8197 C   0  0  2  0  0  0  0  0  0  0  0  0
  -24.3237  -34.1026   21.5764 C   0  0  0  0  0  0  0  0  0  0  0  0
  -22.1230  -17.0549   20.7828 N   0  0  0  0  0  0  0  0  0  0  0  0
  -22.0181  -18.3565   21.1004 N   0  0  0  0  0  0  0  0  0  0  0  0
  -24.5891  -30.7425   22.8029 N   0  0  0  0  0  0  0  0  0  0  0  0
  -19.4110  -20.4368   19.2404 N   0  0  0  0  0  0  0  0  0  0  0  0
  -23.2184  -20.1785   22.0226 N   0  0  0  0  0  0  0  0  0  0  0  0
  -26.2010  -16.7900   22.1587 N   0  0  0  0  0  0  0  0  0  0  0  0
  -20.4142  -22.5550   18.9777 N   0  0  0  0  0  0  0  0  0  0  0  0
  -21.4539  -29.0642   22.5132 N   0  0  0  0  0  0  0  0  0  0  0  0
  -25.9038  -33.7768   23.5261 N   0  0  0  0  0  0  0  0  0  0  0  0
  -23.4147  -22.7154   17.6551 N   0  0  0  0  0  0  0  0  0  0  0  0
  -28.9975  -33.7342   25.3956 N   0  3  0  0  0  0  0  0  0  0  0  0
  -25.8725  -19.0027   22.6632 O   0  0  0  0  0  0  0  0  0  0  0  0
  -23.1253  -29.5291   20.9599 O   0  0  0  0  0  0  0  0  0  0  0  0
  -23.4036  -32.4271   23.8951 O   0  0  0  0  0  0  0  0  0  0  0  0
  -27.9961  -33.0294   22.8624 O   0  0  0  0  0  0  0  0  0  0  0  0
  -18.1134  -22.3033   18.8205 O   0  0  0  0  0  0  0  0  0  0  0  0
  -24.3855  -24.5707   19.1536 O   0  0  0  0  0  0  0  0  0  0  0  0
  -22.9975  -22.7469   20.1887 O   0  0  0  0  0  0  0  0  0  0  0  0
  -25.3334  -11.5673   20.4249 O   0  0  0  0  0  0  0  0  0  0  0  0
  -28.5678  -26.7568   20.2625 O   0  0  0  0  0  0  0  0  0  1  0  0
  -22.0864   -7.3646   21.9075 F   0  0  0  0  0  0  0  0  0  0  0  0
  -22.8526  -11.2115   19.2580 F   0  0  0  0  0  0  0  0  0  0  0  0
  -23.2788  -23.6362   19.0780 S   0  0  0  0  0  0  0  0  0  0  0  0
  1  2  1  0  0  0  0
  1  7  2  0  0  0  0
  2  8  2  0  0  0  0
  3  4  1  0  0  0  0
  3 10  2  0  0  0  0
  4 16  2  0  0  0  0
  5 11  2  0  0  0  0
  5 19  1  0  0  0  0
  6 12  1  0  0  0  0
  6 19  2  0  0  0  0
  7 21  1  0  0  0  0
  8 23  1  0  0  0  0
  9 13  2  0  0  0  0
  9 22  1  0  0  0  0
 10 25  1  0  0  0  0
 11 26  1  0  0  0  0
 12 26  2  0  0  0  0
 13 27  1  0  0  0  0
 14 15  2  0  0  0  0
 14 28  1  0  0  0  0
 15 29  1  0  0  0  0
 16 31  1  0  0  0  0
 17 24  1  0  0  0  0
 17 27  2  0  0  0  0
 18 29  2  0  0  0  0
 18 30  1  0  0  0  0
 19 32  1  0  0  0  0
 20 32  1  0  0  0  0
 20 33  2  0  0  0  0
 20 34  1  0  0  0  0
 21 23  2  0  0  0  0
 21 39  1  0  0  0  0
 22 24  2  0  0  0  0
 22 40  1  0  0  0  0
 23 48  1  0  0  0  0
 24 41  1  0  0  0  0
 25 31  2  0  0  0  0
 25 74  1  0  0  0  0
 26 86  1  0  0  0  0
 27 87  1  0  0  0  0
 28 30  2  0  0  0  0
 28 86  1  0  0  0  0
 29 88  1  0  0  0  0
 30 89  1  0  0  0  0
 31 90  1  0  0  0  0
 32 68  2  0  0  0  0
 33 69  1  0  0  0  0
 33 72  1  0  0  0  0
 34 73  1  0  0  0  0
 34 79  2  0  0  0  0
 35 49  1  0  0  0  0
 35 75  1  0  0  0  0
 35 80  2  0  0  0  0
 36 65  1  0  0  0  0
 36 70  1  0  0  0  0
 36 81  2  0  0  0  0
 37 66  1  0  0  0  0
 37 76  1  0  0  0  0
 37 82  2  0  0  0  0
 38 71  1  0  0  0  0
 38 74  1  0  0  0  0
 38 83  2  0  0  0  0
 39 42  1  0  0  0  0
 40 49  1  0  0  0  0
 41 70  1  0  0  0  0
 42 44  1  0  0  0  0
 43 45  1  0  0  0  0
 43 46  1  0  0  0  0
 44 48  1  0  0  0  0
 45 50  1  0  0  0  0
 46 71  1  0  0  0  0
 47 50  1  0  0  0  0
 47 71  1  0  0  0  0
 48 75  1  0  0  0  0
 49 70  1  0  0  0  0
 50 69  1  0  0  0  0
 51 66  1  0  0  0  0
 52 67  1  0  0  0  0
 53 67  1  0  0  0  0
 54 67  1  0  0  0  0
 55 78  1  0  0  0  0
 56 57  1  0  0  0  0
 56 58  1  0  0  0  0
 57 59  1  0  0  0  0
 58 60  1  0  0  0  0
 59 61  1  0  0  0  0
 60 62  1  0  0  0  0
 61 63  1  0  0  0  0
 62 64  1  0  0  0  0
 63 77  1  0  0  0  0
 64 87  1  0  0  0  0
 65 67  1  0  0  0  0
 65 76  1  0  0  0  0
 66 78  1  0  0  0  0
 68 69  1  0  0  0  0
 77 90  1  0  0  0  0
 84 90  2  0  0  0  0
 85 90  2  0  0  0  0
M  CHG  1  78   1
M  ISO  4  38 100  64 101  74 100  87 101
M  END
> <Batch ID>
0006

> <Smiles>
CNC(C)C(=O)NC(C(=O)N1Cc2cc([101O:1][101CH2:1]CCCCCCCCNS(=O)(=O)c3ccccc3[100NH:0][100C:0](=O)N3CCCC(n4nc(-c5ccc(Oc6ccc(F)cc6F)cc5)c(C(N)=O)c4N)C3)ccc2CC1C(=O)NC1CCCc2ccccc21)C(C)(C)C

> <Shape>
0.221

> <Color>
0.099

> <Negative vol penalty>
0.000

$$$$

  -OEChem-04052315303D

 84 92  0     1  0  0  0  0  0999 V2000
  -29.3660  -11.7963   20.1670 C   0  0  0  0  0  0  0  0  0  0  0  0
  -29.3147  -13.0803   19.6338 C   0  0  0  0  0  0  0  0  0  0  0  0
  -19.7653  -28.4504   23.7698 C   0  0  0  0  0  0  0  0  0  0  0  0
  -20.9055  -27.2562   22.0060 C   0  0  0  0  0  0  0  0  0  0  0  0
  -28.1893  -11.1552   20.5521 C   0  0  0  0  0  0  0  0  0  0  0  0
  -28.0866  -13.7235   19.4845 C   0  0  0  0  0  0  0  0  0  0  0  0
  -28.2167  -18.5431   21.0335 C   0  0  0  0  0  0  0  0  0  0  0  0
  -18.5490  -28.2557   23.1154 C   0  0  0  0  0  0  0  0  0  0  0  0
  -19.6891  -27.0614   21.3516 C   0  0  0  0  0  0  0  0  0  0  0  0
  -28.7999  -19.4727   20.1736 C   0  0  0  0  0  0  0  0  0  0  0  0
  -17.0169  -25.0106   21.6232 C   0  0  0  0  0  0  0  0  0  0  0  0
  -16.7515  -23.7383   21.1169 C   0  0  0  0  0  0  0  0  0  0  0  0
  -26.6075  -20.1563   19.4353 C   0  0  0  0  0  0  0  0  0  0  0  0
  -29.6366  -28.0108   19.3573 C   0  0  0  0  0  0  0  0  0  0  0  0
  -30.0089  -25.9288   18.1897 C   0  0  0  0  0  0  0  0  0  0  0  0
  -28.4939  -26.0051   20.0701 C   0  0  0  0  0  0  0  0  0  0  0  0
  -16.5722  -24.6613   18.8914 C   0  0  0  0  0  0  0  0  0  0  0  0
  -20.9436  -27.9507   23.2150 C   0  0  0  0  0  0  0  0  0  0  0  0
  -22.5514  -27.7146   25.1815 C   0  0  0  0  0  0  0  0  0  0  0  0
  -26.9470  -11.7947   20.4164 C   0  0  0  0  0  0  0  0  0  0  0  0
  -26.8224  -18.4053   21.0929 C   0  0  0  0  0  0  0  0  0  0  0  0
  -26.8920  -13.0898   19.8670 C   0  0  0  0  0  0  0  0  0  0  0  0
  -26.0089  -19.2260   20.2987 C   0  0  0  0  0  0  0  0  0  0  0  0
  -30.2657  -27.2914   18.3414 C   0  0  0  0  0  0  0  0  0  0  0  0
  -28.7507  -27.3677   20.2218 C   0  0  0  0  0  0  0  0  0  0  0  0
  -18.5109  -27.5612   21.9063 C   0  0  0  0  0  0  0  0  0  0  0  0
  -27.9954  -20.2775   19.3723 C   0  0  0  0  0  0  0  0  0  0  0  0
  -17.0598  -26.1083   20.7636 C   0  0  0  0  0  0  0  0  0  0  0  0
  -29.1230  -25.2856   19.0541 C   0  0  0  0  0  0  0  0  0  0  0  0
  -16.5292  -23.5636   19.7510 C   0  0  0  0  0  0  0  0  0  0  0  0
  -16.8375  -25.9336   19.3977 C   0  0  0  0  0  0  0  0  0  0  0  0
  -22.2004  -28.1521   23.8903 C   0  0  0  0  0  0  0  0  0  0  0  0
  -23.8412  -28.1540   25.3541 C   0  0  0  0  0  0  0  0  0  0  0  0
  -21.7804  -26.9770   26.1392 C   0  0  0  0  0  0  0  0  0  0  0  0
  -24.7729  -16.0533   20.4837 C   0  0  0  0  0  0  0  0  0  0  0  0
  -22.6103  -18.1513   21.6852 C   0  0  0  0  0  0  0  0  0  0  0  0
  -21.7730  -21.3951   22.3358 C   0  0  0  0  0  0  0  0  0  0  0  0
  -28.2551  -29.4550   21.5424 C   0  0  0  0  0  0  0  0  0  0  0  0
  -25.6977  -11.0432   20.8028 C   0  0  0  0  0  0  0  0  0  0  0  0
  -26.2080  -17.4164   22.0452 C   0  0  0  0  0  0  0  0  0  0  0  0
  -24.5063  -19.1313   20.3399 C   0  0  0  0  0  0  0  0  0  0  0  0
  -24.4718  -11.9393   20.9595 C   0  0  0  0  0  0  0  0  0  0  0  0
  -26.8290  -31.6321   23.9721 C   0  0  0  0  0  0  0  0  0  0  0  0
  -24.3614  -12.9034   19.7826 C   0  0  0  0  0  0  0  0  0  0  0  0
  -25.5151  -30.9438   24.3488 C   0  0  0  0  0  0  0  0  0  0  0  0
  -27.1490  -31.4696   22.4872 C   0  0  0  0  0  0  0  0  0  0  0  0
  -25.8219  -29.3971   22.3738 C   0  0  0  0  0  0  0  0  0  0  0  0
  -25.5812  -13.8301   19.7123 C   0  0  1  0  0  0  0  0  0  0  0  0
  -24.7943  -17.0031   21.6477 C   0  0  1  0  0  0  0  0  0  0  0  0
  -25.4900  -29.4781   23.8728 C   0  0  2  0  0  0  0  0  0  0  0  0
  -19.9247  -22.7993   23.2893 C   0  0  0  0  0  0  0  0  0  0  0  0
  -20.9967  -17.7614   19.1251 C   0  0  0  0  0  0  0  0  0  0  0  0
  -19.7177  -19.8360   19.6980 C   0  0  0  0  0  0  0  0  0  0  0  0
  -19.6282  -17.8587   21.2161 C   0  0  0  0  0  0  0  0  0  0  0  0
  -23.5218  -22.4487   24.4784 C   0  0  0  0  0  0  0  0  0  0  0  0
  -29.8127  -21.7460   18.9288 C   0  0  0  0  0  0  0  0  0  1  0  0
  -29.9238  -23.1525   18.3728 C   0  0  0  0  0  0  0  0  0  0  0  0
  -21.7419  -19.2414   21.1050 C   0  0  1  0  0  0  0  0  0  0  0  0
  -21.2222  -22.0625   23.5831 C   0  0  2  0  0  0  0  0  0  0  0  0
  -31.2131  -27.9787   17.4172 C   0  0  0  0  0  0  0  0  0  0  0  0
  -20.5495  -18.6750   20.2836 C   0  0  0  0  0  0  0  0  0  0  0  0
  -23.1875  -28.8184   23.2855 N   0  0  0  0  0  0  0  0  0  0  0  0
  -24.1714  -28.8029   24.2009 N   0  0  0  0  0  0  0  0  0  0  0  0
  -23.9533  -18.1449   21.2825 N   0  0  0  0  0  0  0  0  0  0  0  0
  -27.1110  -30.0551   22.1094 N   0  0  0  0  0  0  0  0  0  0  0  0
  -24.7137  -28.0448   26.3784 N   0  0  0  0  0  0  0  0  0  0  0  0
  -20.9980  -27.6894   27.0583 N   0  0  0  0  0  0  0  0  0  0  0  0
  -28.1116  -28.0982   21.2540 N   0  0  0  0  0  0  0  0  0  0  0  0
  -25.4741  -14.8824   20.7001 N   0  0  0  0  0  0  0  0  0  0  0  0
  -21.3471  -20.0884   22.2253 N   0  0  0  0  0  0  0  0  0  0  0  0
  -22.2066  -23.0419   24.1242 N   0  3  0  0  0  0  0  0  0  0  0  0
  -21.7980  -25.7237   26.1894 O   0  0  0  0  0  0  0  0  0  0  0  0
  -24.1640  -16.3593   19.4652 O   0  0  0  0  0  0  0  0  0  0  0  0
  -22.1169  -17.3397   22.4723 O   0  0  0  0  0  0  0  0  0  0  0  0
  -22.5048  -21.9761   21.5373 O   0  0  0  0  0  0  0  0  0  0  0  0
  -29.2954  -30.0908   21.3535 O   0  0  0  0  0  0  0  0  0  0  0  0
  -17.3241  -27.3707   21.2676 O   0  0  0  0  0  0  0  0  0  0  0  0
  -28.5621  -21.1852   18.5316 O   0  0  0  0  0  0  0  0  0  1  0  0
  -28.8711  -23.9471   18.9054 O   0  0  0  0  0  0  0  0  0  0  0  0
  -16.2759  -22.3415   19.2648 F   0  0  0  0  0  0  0  0  0  0  0  0
  -16.8786  -26.9842   18.5667 F   0  0  0  0  0  0  0  0  0  0  0  0
  -31.3683  -29.3097   17.6826 F   0  0  0  0  0  0  0  0  0  0  0  0
  -32.4767  -27.4607   17.4448 F   0  0  0  0  0  0  0  0  0  0  0  0
  -30.8176  -27.9095   16.1127 F   0  0  0  0  0  0  0  0  0  0  0  0
  1  2  1  0  0  0  0
  1  5  2  0  0  0  0
  2  6  2  0  0  0  0
  3  8  2  0  0  0  0
  3 18  1  0  0  0  0
  4  9  1  0  0  0  0
  4 18  2  0  0  0  0
  5 20  1  0  0  0  0
  6 22  1  0  0  0  0
  7 10  2  0  0  0  0
  7 21  1  0  0  0  0
  8 26  1  0  0  0  0
  9 26  2  0  0  0  0
 10 27  1  0  0  0  0
 11 12  2  0  0  0  0
 11 28  1  0  0  0  0
 12 30  1  0  0  0  0
 13 23  1  0  0  0  0
 13 27  2  0  0  0  0
 14 24  2  0  0  0  0
 14 25  1  0  0  0  0
 15 24  1  0  0  0  0
 15 29  2  0  0  0  0
 16 25  2  0  0  0  0
 16 29  1  0  0  0  0
 17 30  2  0  0  0  0
 17 31  1  0  0  0  0
 18 32  1  0  0  0  0
 19 32  1  0  0  0  0
 19 33  2  0  0  0  0
 19 34  1  0  0  0  0
 20 22  2  0  0  0  0
 20 39  1  0  0  0  0
 21 23  2  0  0  0  0
 21 40  1  0  0  0  0
 22 48  1  0  0  0  0
 23 41  1  0  0  0  0
 24 60  1  0  0  0  0
 25 68  1  0  0  0  0
 26 77  1  0  0  0  0
 27 78  1  0  0  0  0
 28 31  2  0  0  0  0
 28 77  1  0  0  0  0
 29 79  1  0  0  0  0
 30 80  1  0  0  0  0
 31 81  1  0  0  0  0
 32 62  2  0  0  0  0
 33 63  1  0  0  0  0
 33 66  1  0  0  0  0
 34 67  1  0  0  0  0
 34 72  2  0  0  0  0
 35 49  1  0  0  0  0
 35 69  1  0  0  0  0
 35 73  2  0  0  0  0
 36 58  1  0  0  0  0
 36 64  1  0  0  0  0
 36 74  2  0  0  0  0
 37 59  1  0  0  0  0
 37 70  1  0  0  0  0
 37 75  2  0  0  0  0
 38 65  1  0  0  0  0
 38 68  1  0  0  0  0
 38 76  2  0  0  0  0
 39 42  1  0  0  0  0
 40 49  1  0  0  0  0
 41 64  1  0  0  0  0
 42 44  1  0  0  0  0
 43 45  1  0  0  0  0
 43 46  1  0  0  0  0
 44 48  1  0  0  0  0
 45 50  1  0  0  0  0
 46 65  1  0  0  0  0
 47 50  1  0  0  0  0
 47 65  1  0  0  0  0
 48 69  1  0  0  0  0
 49 64  1  0  0  0  0
 50 63  1  0  0  0  0
 51 59  1  0  0  0  0
 52 61  1  0  0  0  0
 53 61  1  0  0  0  0
 54 61  1  0  0  0  0
 55 71  1  0  0  0  0
 56 57  1  0  0  0  0
 56 78  1  0  0  0  0
 57 79  1  0  0  0  0
 58 61  1  0  0  0  0
 58 70  1  0  0  0  0
 59 71  1  0  0  0  0
 60 82  1  0  0  0  0
 60 83  1  0  0  0  0
 60 84  1  0  0  0  0
 62 63  1  0  0  0  0
M  CHG  1  71   1
M  ISO  4  38 100  56 101  68 100  78 101
M  END
> <Batch ID>
0006

> <Smiles>
CNC(C)C(=O)NC(C(=O)N1Cc2cc([101O:1][101CH2:1]COc3cc([100NH:0][100C:0](=O)N4CCCC(n5nc(-c6ccc(Oc7ccc(F)cc7F)cc6)c(C(N)=O)c5N)C4)cc(C(F)(F)F)c3)ccc2CC1C(=O)NC1CCCc2ccccc21)C(C)(C)C

> <Shape>
0.228

> <Color>
0.082

> <Negative vol penalty>
0.000

$$$$

  -OEChem-04052315303D

 85 93  0     1  0  0  0  0  0999 V2000
  -18.7763  -21.4026   22.2610 C   0  0  0  0  0  0  0  0  0  0  0  0
  -19.7257  -21.2284   21.2604 C   0  0  0  0  0  0  0  0  0  0  0  0
  -25.4044  -30.1057   21.2001 C   0  0  0  0  0  0  0  0  0  0  0  0
  -23.0493  -29.5745   21.2919 C   0  0  0  0  0  0  0  0  0  0  0  0
  -18.9444  -20.7740   23.4930 C   0  0  0  0  0  0  0  0  0  0  0  0
  -20.8373  -20.4161   21.4873 C   0  0  0  0  0  0  0  0  0  0  0  0
  -27.1188  -18.2381   18.8025 C   0  0  0  0  0  0  0  0  0  0  0  0
  -27.5552  -20.2678   22.1996 C   0  0  0  0  0  0  0  0  0  0  0  0
  -28.6806  -19.5400   22.5860 C   0  0  0  0  0  0  0  0  0  0  0  0
  -25.2048  -31.1472   22.1063 C   0  0  0  0  0  0  0  0  0  0  0  0
  -22.8497  -30.6159   22.1982 C   0  0  0  0  0  0  0  0  0  0  0  0
  -28.4927  -18.1756   19.0315 C   0  0  0  0  0  0  0  0  0  0  0  0
  -24.7956  -31.5007   25.4440 C   0  0  0  0  0  0  0  0  0  0  0  0
  -25.7024  -31.6271   26.4963 C   0  0  0  0  0  0  0  0  0  0  0  0
  -28.1512  -16.3220   20.5371 C   0  0  0  0  0  0  0  0  0  0  0  0
  -28.9822  -22.0109   21.3266 C   0  0  0  0  0  0  0  0  0  0  0  0
  -26.2856  -33.8421   25.7276 C   0  0  0  0  0  0  0  0  0  0  0  0
  -24.3266  -29.3194   20.7929 C   0  0  0  0  0  0  0  0  0  0  0  0
  -25.0335  -28.3429   18.5447 C   0  0  0  0  0  0  0  0  0  0  0  0
  -20.0652  -19.9638   23.7385 C   0  0  0  0  0  0  0  0  0  0  0  0
  -26.2483  -17.3486   19.4485 C   0  0  0  0  0  0  0  0  0  0  0  0
  -21.0126  -19.7540   22.7159 C   0  0  0  0  0  0  0  0  0  0  0  0
  -26.7670  -16.3736   20.3126 C   0  0  0  0  0  0  0  0  0  0  0  0
  -27.7060  -21.5033   21.5698 C   0  0  0  0  0  0  0  0  0  0  0  0
  -29.9568  -20.0476   22.3427 C   0  0  0  0  0  0  0  0  0  0  0  0
  -23.9275  -31.4023   22.6054 C   0  0  0  0  0  0  0  0  0  0  0  0
  -29.0088  -17.2193   19.9011 C   0  0  0  0  0  0  0  0  0  0  0  0
  -24.6338  -32.5450   24.5335 C   0  0  0  0  0  0  0  0  0  0  0  0
  -30.1076  -21.2831   21.7130 C   0  0  0  0  0  0  0  0  0  0  0  0
  -26.4474  -32.7978   26.6381 C   0  0  0  0  0  0  0  0  0  0  0  0
  -25.3788  -33.7157   24.6753 C   0  0  0  0  0  0  0  0  0  0  0  0
  -24.5320  -28.2438   19.8564 C   0  0  0  0  0  0  0  0  0  0  0  0
  -25.0349  -27.0507   18.0792 C   0  0  0  0  0  0  0  0  0  0  0  0
  -25.4601  -29.4995   17.8126 C   0  0  0  0  0  0  0  0  0  0  0  0
  -23.8402  -17.6590   21.4999 C   0  0  0  0  0  0  0  0  0  0  0  0
  -23.5257  -14.4676   21.0121 C   0  0  0  0  0  0  0  0  0  0  0  0
  -24.9782  -11.5211   20.0870 C   0  0  0  0  0  0  0  0  0  0  0  0
  -25.3209  -21.7345   20.7924 C   0  0  0  0  0  0  0  0  0  0  0  0
  -20.1933  -19.3011   25.0875 C   0  0  0  0  0  0  0  0  0  0  0  0
  -24.7715  -17.4118   19.1702 C   0  0  0  0  0  0  0  0  0  0  0  0
  -25.8770  -15.3824   21.0153 C   0  0  0  0  0  0  0  0  0  0  0  0
  -21.6119  -18.8259   25.3841 C   0  0  0  0  0  0  0  0  0  0  0  0
  -22.7489  -22.8763   18.6110 C   0  0  0  0  0  0  0  0  0  0  0  0
  -22.1486  -18.0252   24.2070 C   0  0  0  0  0  0  0  0  0  0  0  0
  -22.9637  -24.3906   18.5586 C   0  0  0  0  0  0  0  0  0  0  0  0
  -23.0370  -22.3103   20.0004 C   0  0  0  0  0  0  0  0  0  0  0  0
  -24.5659  -24.1760   20.5013 C   0  0  0  0  0  0  0  0  0  0  0  0
  -22.2452  -18.8996   22.9504 C   0  0  1  0  0  0  0  0  0  0  0  0
  -23.9275  -16.7890   20.2780 C   0  0  1  0  0  0  0  0  0  0  0  0
  -24.3507  -24.7823   19.1050 C   0  0  2  0  0  0  0  0  0  0  0  0
  -33.1419  -23.1121   22.3486 C   0  0  0  0  0  0  0  0  0  0  0  0
  -24.4792   -9.0758   19.8249 C   0  0  0  0  0  0  0  0  0  0  0  0
  -23.6586  -14.1183   24.0404 C   0  0  0  0  0  0  0  0  0  0  0  0
  -24.1118  -11.6841   23.6698 C   0  0  0  0  0  0  0  0  0  0  0  0
  -21.9597  -12.6818   22.8981 C   0  0  0  0  0  0  0  0  0  0  0  0
  -31.2719  -18.9642   24.1474 C   0  0  0  0  0  0  0  0  0  0  0  0
  -25.5785  -11.5905   17.1898 C   0  0  0  0  0  0  0  0  0  0  0  0
  -32.1130  -17.3279   21.7453 C   0  0  0  0  0  0  0  0  0  0  0  0
  -32.0559  -18.8504   21.7766 C   0  0  0  0  0  0  0  0  0  0  0  0
  -31.6558  -23.0535   22.0661 C   0  0  0  0  0  0  0  0  0  0  0  0
  -30.7710  -16.6890   21.4075 C   0  0  0  0  0  0  0  0  0  1  0  0
  -24.0939  -13.2264   21.6569 C   0  0  1  0  0  0  0  0  0  0  0  0
  -24.5244  -10.4299   19.1342 C   0  0  2  0  0  0  0  0  0  0  0  0
  -23.4729  -12.9474   23.0547 C   0  0  0  0  0  0  0  0  0  0  0  0
  -24.2361  -26.9880   20.2019 N   0  0  0  0  0  0  0  0  0  0  0  0
  -24.5526  -26.2860   19.1004 N   0  0  0  0  0  0  0  0  0  0  0  0
  -24.4395  -15.4887   20.7154 N   0  0  0  0  0  0  0  0  0  0  0  0
  -24.3693  -22.7187   20.4509 N   0  0  0  0  0  0  0  0  0  0  0  0
  -25.4015  -26.5053   16.9000 N   0  0  0  0  0  0  0  0  0  0  0  0
  -24.5131  -30.1910   17.0449 N   0  0  0  0  0  0  0  0  0  0  0  0
  -26.5625  -22.2411   21.1751 N   0  0  0  0  0  0  0  0  0  0  0  0
  -22.5558  -18.0605   21.8141 N   0  0  0  0  0  0  0  0  0  0  0  0
  -23.9094  -12.1455   20.6946 N   0  0  0  0  0  0  0  0  0  0  0  0
  -31.0793  -19.3052   22.7366 N   0  0  3  0  0  0  0  0  0  0  0  0
  -25.4554  -10.3350   17.9743 N   0  3  0  0  0  0  0  0  0  0  0  0
  -26.6494  -29.8981   17.8254 O   0  0  0  0  0  0  0  0  0  0  0  0
  -24.8622  -17.9437   22.1132 O   0  0  0  0  0  0  0  0  0  0  0  0
  -22.3168  -14.5259   20.7738 O   0  0  0  0  0  0  0  0  0  0  0  0
  -26.1624  -11.7900   20.2764 O   0  0  0  0  0  0  0  0  0  0  0  0
  -25.0627  -20.5302   20.7224 O   0  0  0  0  0  0  0  0  0  0  0  0
  -23.7325  -32.4183   23.4898 O   0  0  0  0  0  0  0  0  0  0  0  0
  -30.3493  -17.1565   20.1269 O   0  0  0  0  0  0  0  0  0  1  0  0
  -31.3459  -21.7968   21.4677 O   0  0  0  0  0  0  0  0  0  0  0  0
  -27.3171  -32.9196   27.6495 F   0  0  0  0  0  0  0  0  0  0  0  0
  -25.2268  -34.7228   23.8044 F   0  0  0  0  0  0  0  0  0  0  0  0
  1  2  1  0  0  0  0
  1  5  2  0  0  0  0
  2  6  2  0  0  0  0
  3 10  2  0  0  0  0
  3 18  1  0  0  0  0
  4 11  1  0  0  0  0
  4 18  2  0  0  0  0
  5 20  1  0  0  0  0
  6 22  1  0  0  0  0
  7 12  2  0  0  0  0
  7 21  1  0  0  0  0
  8  9  2  0  0  0  0
  8 24  1  0  0  0  0
  9 25  1  0  0  0  0
 10 26  1  0  0  0  0
 11 26  2  0  0  0  0
 12 27  1  0  0  0  0
 13 14  2  0  0  0  0
 13 28  1  0  0  0  0
 14 30  1  0  0  0  0
 15 23  1  0  0  0  0
 15 27  2  0  0  0  0
 16 24  2  0  0  0  0
 16 29  1  0  0  0  0
 17 30  2  0  0  0  0
 17 31  1  0  0  0  0
 18 32  1  0  0  0  0
 19 32  1  0  0  0  0
 19 33  2  0  0  0  0
 19 34  1  0  0  0  0
 20 22  2  0  0  0  0
 20 39  1  0  0  0  0
 21 23  2  0  0  0  0
 21 40  1  0  0  0  0
 22 48  1  0  0  0  0
 23 41  1  0  0  0  0
 24 71  1  0  0  0  0
 25 29  2  0  0  0  0
 25 74  1  0  0  0  0
 26 81  1  0  0  0  0
 27 82  1  0  0  0  0
 28 31  2  0  0  0  0
 28 81  1  0  0  0  0
 29 83  1  0  0  0  0
 30 84  1  0  0  0  0
 31 85  1  0  0  0  0
 32 65  2  0  0  0  0
 33 66  1  0  0  0  0
 33 69  1  0  0  0  0
 34 70  1  0  0  0  0
 34 76  2  0  0  0  0
 35 49  1  0  0  0  0
 35 72  1  0  0  0  0
 35 77  2  0  0  0  0
 36 62  1  0  0  0  0
 36 67  1  0  0  0  0
 36 78  2  0  0  0  0
 37 63  1  0  0  0  0
 37 73  1  0  0  0  0
 37 79  2  0  0  0  0
 38 68  1  0  0  0  0
 38 71  1  0  0  0  0
 38 80  2  0  0  0  0
 39 42  1  0  0  0  0
 40 49  1  0  0  0  0
 41 67  1  0  0  0  0
 42 44  1  0  0  0  0
 43 45  1  0  0  0  0
 43 46  1  0  0  0  0
 44 48  1  0  0  0  0
 45 50  1  0  0  0  0
 46 68  1  0  0  0  0
 47 50  1  0  0  0  0
 47 68  1  0  0  0  0
 48 72  1  0  0  0  0
 49 67  1  0  0  0  0
 50 66  1  0  0  0  0
 51 60  1  0  0  0  0
 52 63  1  0  0  0  0
 53 64  1  0  0  0  0
 54 64  1  0  0  0  0
 55 64  1  0  0  0  0
 56 74  1  0  0  0  0
 57 75  1  0  0  0  0
 58 59  1  0  0  0  0
 58 61  1  0  0  0  0
 59 74  1  0  0  0  0
 60 83  1  0  0  0  0
 61 82  1  0  0  0  0
 62 64  1  0  0  0  0
 62 73  1  0  0  0  0
 63 75  1  0  0  0  0
 65 66  1  0  0  0  0
M  CHG  1  75   1
M  ISO  4  38 100  61 101  71 100  82 101
M  END
> <Batch ID>
0006

> <Smiles>
CCOc1cc([100NH:0][100C:0](=O)N2CCCC(n3nc(-c4ccc(Oc5ccc(F)cc5F)cc4)c(C(N)=O)c3N)C2)ccc1N(C)CC[101CH2:1][101O:1]c1ccc2c(c1)CN(C(=O)C(NC(=O)C(C)NC)C(C)(C)C)C(C(=O)NC1CCCc3ccccc31)C2

> <Shape>
0.202

> <Color>
0.074

> <Negative vol penalty>
0.000

$$$$

  -OEChem-04052315303D

 90 98  0     1  0  0  0  0  0999 V2000
  -32.7753  -25.9406   15.2099 C   0  0  0  0  0  0  0  0  0  0  0  0
  -31.3950  -26.0993   15.1390 C   0  0  0  0  0  0  0  0  0  0  0  0
  -29.0754  -18.3822   21.4416 C   0  0  0  0  0  0  0  0  0  0  0  0
  -28.0940  -17.7880   19.3154 C   0  0  0  0  0  0  0  0  0  0  0  0
  -33.3941  -25.7748   16.4482 C   0  0  0  0  0  0  0  0  0  0  0  0
  -30.6326  -26.0911   16.3065 C   0  0  0  0  0  0  0  0  0  0  0  0
  -25.5764  -29.3610   17.4243 C   0  0  0  0  0  0  0  0  0  0  0  0
  -20.2161  -19.7262   17.5178 C   0  0  0  0  0  0  0  0  0  0  0  0
  -18.6235  -20.5072   19.1581 C   0  0  0  0  0  0  0  0  0  0  0  0
  -29.8500  -17.2228   21.4082 C   0  0  0  0  0  0  0  0  0  0  0  0
  -28.8687  -16.6285   19.2819 C   0  0  0  0  0  0  0  0  0  0  0  0
  -24.2204  -29.0440   17.3570 C   0  0  0  0  0  0  0  0  0  0  0  0
  -19.1916  -19.6094   16.5785 C   0  0  0  0  0  0  0  0  0  0  0  0
  -17.5989  -20.3905   18.2188 C   0  0  0  0  0  0  0  0  0  0  0  0
  -30.3230  -13.3316   18.8075 C   0  0  0  0  0  0  0  0  0  0  0  0
  -29.6951  -12.1429   18.4356 C   0  0  0  0  0  0  0  0  0  0  0  0
  -24.2194  -28.5729   19.7229 C   0  0  0  0  0  0  0  0  0  0  0  0
  -28.1787  -12.3593   20.3041 C   0  0  0  0  0  0  0  0  0  0  0  0
  -28.1973  -18.6648   20.3953 C   0  0  0  0  0  0  0  0  0  0  0  0
  -27.7380  -21.1283   19.9179 C   0  0  0  0  0  0  0  0  0  0  0  0
  -32.6400  -25.7744   17.6322 C   0  0  0  0  0  0  0  0  0  0  0  0
  -26.2678  -29.2757   18.6413 C   0  0  0  0  0  0  0  0  0  0  0  0
  -31.2417  -25.9239   17.5617 C   0  0  0  0  0  0  0  0  0  0  0  0
  -25.5836  -28.8919   19.8034 C   0  0  0  0  0  0  0  0  0  0  0  0
  -19.9321  -20.1750   18.8076 C   0  0  0  0  0  0  0  0  0  0  0  0
  -29.7467  -16.3459   20.3283 C   0  0  0  0  0  0  0  0  0  0  0  0
  -17.8830  -19.9416   16.9290 C   0  0  0  0  0  0  0  0  0  0  0  0
  -23.5424  -28.6471   18.5059 C   0  0  0  0  0  0  0  0  0  0  0  0
  -29.8788  -14.0341   19.9277 C   0  0  0  0  0  0  0  0  0  0  0  0
  -28.6230  -11.6567   19.1839 C   0  0  0  0  0  0  0  0  0  0  0  0
  -28.8067  -13.5480   20.6759 C   0  0  0  0  0  0  0  0  0  0  0  0
  -27.3964  -19.8621   20.4296 C   0  0  0  0  0  0  0  0  0  0  0  0
  -26.6493  -21.9173   20.1988 C   0  0  0  0  0  0  0  0  0  0  0  0
  -28.9324  -21.5533   19.2483 C   0  0  0  0  0  0  0  0  0  0  0  0
  -28.7228  -27.5633   19.7112 C   0  0  0  0  0  0  0  0  0  0  0  0
  -28.4038  -29.4592   22.3239 C   0  0  0  0  0  0  0  0  0  0  0  0
  -17.2001  -23.6050   15.4882 C   0  0  0  0  0  0  0  0  0  0  0  0
  -26.3923  -31.4513   24.2298 C   0  0  0  0  0  0  0  0  0  0  0  0
  -20.8618  -20.7230   21.0839 C   0  0  0  0  0  0  0  0  0  0  0  0
  -33.3481  -25.5445   18.9439 C   0  0  0  0  0  0  0  0  0  0  0  0
  -27.7242  -29.6468   18.7023 C   0  0  0  0  0  0  0  0  0  0  0  0
  -26.2753  -28.8039   21.1384 C   0  0  0  0  0  0  0  0  0  0  0  0
  -32.5105  -25.9227   20.1627 C   0  0  0  0  0  0  0  0  0  0  0  0
  -23.0655  -22.3718   23.3428 C   0  0  0  0  0  0  0  0  0  0  0  0
  -31.0972  -25.3633   20.0337 C   0  0  0  0  0  0  0  0  0  0  0  0
  -24.4572  -22.0356   22.8019 C   0  0  0  0  0  0  0  0  0  0  0  0
  -22.0979  -21.2000   23.1862 C   0  0  0  0  0  0  0  0  0  0  0  0
  -23.3933  -20.3154   21.2865 C   0  0  0  0  0  0  0  0  0  0  0  0
  -30.3832  -25.9454   18.8078 C   0  0  1  0  0  0  0  0  0  0  0  0
  -28.4487  -29.0293   19.8944 C   0  0  1  0  0  0  0  0  0  0  0  0
  -24.3854  -21.4875   21.3632 C   0  0  2  0  0  0  0  0  0  0  0  0
  -26.4028  -32.8314   26.3257 C   0  0  0  0  0  0  0  0  0  0  0  0
  -28.2539  -26.9129   23.9984 C   0  0  0  0  0  0  0  0  0  0  0  0
  -27.3308  -28.2861   25.8774 C   0  0  0  0  0  0  0  0  0  0  0  0
  -29.6231  -28.7462   25.0078 C   0  0  0  0  0  0  0  0  0  0  0  0
  -17.1361  -23.2486   13.0081 C   0  0  0  0  0  0  0  0  0  0  0  0
  -25.7708  -33.9309   22.7385 C   0  0  0  0  0  0  0  0  0  0  0  0
  -18.3068  -24.6197   15.2225 C   0  0  0  0  0  0  0  0  0  0  0  0
  -18.8499  -25.2911   16.4864 C   0  0  0  0  0  0  0  0  0  0  0  0
  -20.0127  -26.2440   16.1892 C   0  0  0  0  0  0  0  0  0  0  0  0
  -20.5606  -26.8665   17.4773 C   0  0  0  0  0  0  0  0  0  0  0  0
  -16.0395  -20.6107   13.9032 C   0  0  0  0  0  0  0  0  0  0  0  0
  -15.6145  -21.9633   14.4596 C   0  0  0  0  0  0  0  0  0  0  0  0
  -21.7356  -27.7997   17.2122 C   0  0  0  0  0  0  0  0  0  1  0  0
  -17.2317  -20.0159   14.6429 C   0  0  0  0  0  0  0  0  0  0  0  0
  -27.6158  -29.3842   23.6094 C   0  0  1  0  0  0  0  0  0  0  0  0
  -26.6103  -32.8332   24.8191 C   0  0  2  0  0  0  0  0  0  0  0  0
  -28.1930  -28.3321   24.5979 C   0  0  0  0  0  0  0  0  0  0  0  0
  -26.1856  -19.8432   20.9931 N   0  0  0  0  0  0  0  0  0  0  0  0
  -25.7568  -21.1073   20.8373 N   0  0  0  0  0  0  0  0  0  0  0  0
  -27.7010  -29.1708   21.1454 N   0  0  0  0  0  0  0  0  0  0  0  0
  -22.0792  -20.7366   21.7970 N   0  0  0  0  0  0  0  0  0  0  0  0
  -26.3781  -23.2179   19.9597 N   0  0  0  0  0  0  0  0  0  0  0  0
  -29.9522  -20.6144   19.0408 N   0  0  0  0  0  0  0  0  0  0  0  0
  -20.9728  -20.2936   19.7618 N   0  0  0  0  0  0  0  0  0  0  0  0
  -29.9224  -27.2896   19.0823 N   0  0  0  0  0  0  0  0  0  0  0  0
  -27.5715  -30.7422   24.1408 N   0  0  0  0  0  0  0  0  0  0  0  0
  -16.6704  -22.9635   14.3631 N   0  0  0  0  0  0  0  0  0  0  0  0
  -25.6603  -33.8097   24.2150 N   0  3  0  0  0  0  0  0  0  0  0  0
  -29.0975  -22.7348   18.8605 O   0  0  0  0  0  0  0  0  0  0  0  0
  -27.9071  -26.7415   20.1121 O   0  0  0  0  0  0  0  0  0  0  0  0
  -29.5970  -29.7693   22.3633 O   0  0  0  0  0  0  0  0  0  0  0  0
  -16.8195  -23.3773   16.6393 O   0  0  0  0  0  0  0  0  0  0  0  0
  -25.2860  -31.0405   23.8865 O   0  0  0  0  0  0  0  0  0  0  0  0
  -19.8037  -21.0927   21.5993 O   0  0  0  0  0  0  0  0  0  0  0  0
  -30.5027  -15.2146   20.2952 O   0  0  0  0  0  0  0  0  0  0  0  0
  -16.8762  -19.8269   16.0062 O   0  0  0  0  0  0  0  0  0  0  0  0
  -22.2190  -28.3365   18.4429 O   0  0  0  0  0  0  0  0  0  1  0  0
  -28.0191  -10.5160   18.8258 F   0  0  0  0  0  0  0  0  0  0  0  0
  -28.3747  -14.2192   21.7524 F   0  0  0  0  0  0  0  0  0  0  0  0
  1  2  1  0  0  0  0
  1  5  2  0  0  0  0
  2  6  2  0  0  0  0
  3 10  2  0  0  0  0
  3 19  1  0  0  0  0
  4 11  1  0  0  0  0
  4 19  2  0  0  0  0
  5 21  1  0  0  0  0
  6 23  1  0  0  0  0
  7 12  2  0  0  0  0
  7 22  1  0  0  0  0
  8 13  2  0  0  0  0
  8 25  1  0  0  0  0
  9 14  1  0  0  0  0
  9 25  2  0  0  0  0
 10 26  1  0  0  0  0
 11 26  2  0  0  0  0
 12 28  1  0  0  0  0
 13 27  1  0  0  0  0
 14 27  2  0  0  0  0
 15 16  2  0  0  0  0
 15 29  1  0  0  0  0
 16 30  1  0  0  0  0
 17 24  1  0  0  0  0
 17 28  2  0  0  0  0
 18 30  2  0  0  0  0
 18 31  1  0  0  0  0
 19 32  1  0  0  0  0
 20 32  1  0  0  0  0
 20 33  2  0  0  0  0
 20 34  1  0  0  0  0
 21 23  2  0  0  0  0
 21 40  1  0  0  0  0
 22 24  2  0  0  0  0
 22 41  1  0  0  0  0
 23 49  1  0  0  0  0
 24 42  1  0  0  0  0
 25 75  1  0  0  0  0
 26 86  1  0  0  0  0
 27 87  1  0  0  0  0
 28 88  1  0  0  0  0
 29 31  2  0  0  0  0
 29 86  1  0  0  0  0
 30 89  1  0  0  0  0
 31 90  1  0  0  0  0
 32 69  2  0  0  0  0
 33 70  1  0  0  0  0
 33 73  1  0  0  0  0
 34 74  1  0  0  0  0
 34 80  2  0  0  0  0
 35 50  1  0  0  0  0
 35 76  1  0  0  0  0
 35 81  2  0  0  0  0
 36 66  1  0  0  0  0
 36 71  1  0  0  0  0
 36 82  2  0  0  0  0
 37 58  1  0  0  0  0
 37 78  1  0  0  0  0
 37 83  2  0  0  0  0
 38 67  1  0  0  0  0
 38 77  1  0  0  0  0
 38 84  2  0  0  0  0
 39 72  1  0  0  0  0
 39 75  1  0  0  0  0
 39 85  2  0  0  0  0
 40 43  1  0  0  0  0
 41 50  1  0  0  0  0
 42 71  1  0  0  0  0
 43 45  1  0  0  0  0
 44 46  1  0  0  0  0
 44 47  1  0  0  0  0
 45 49  1  0  0  0  0
 46 51  1  0  0  0  0
 47 72  1  0  0  0  0
 48 51  1  0  0  0  0
 48 72  1  0  0  0  0
 49 76  1  0  0  0  0
 50 71  1  0  0  0  0
 51 70  1  0  0  0  0
 52 67  1  0  0  0  0
 53 68  1  0  0  0  0
 54 68  1  0  0  0  0
 55 68  1  0  0  0  0
 56 78  1  0  0  0  0
 57 79  1  0  0  0  0
 58 59  1  0  0  0  0
 59 60  1  0  0  0  0
 60 61  1  0  0  0  0
 61 64  1  0  0  0  0
 62 63  1  0  0  0  0
 62 65  1  0  0  0  0
 63 78  1  0  0  0  0
 64 88  1  0  0  0  0
 65 87  1  0  0  0  0
 66 68  1  0  0  0  0
 66 77  1  0  0  0  0
 67 79  1  0  0  0  0
 69 70  1  0  0  0  0
M  CHG  1  79   1
M  ISO  4  39 100  64 101  75 100  88 101
M  END
> <Batch ID>
0006

> <Smiles>
CNC(C)C(=O)NC(C(=O)N1Cc2cc([101O:1][101CH2:1]CCCCC(=O)N(C)CCCOc3ccc([100NH:0][100C:0](=O)N4CCCC(n5nc(-c6ccc(Oc7ccc(F)cc7F)cc6)c(C(N)=O)c5N)C4)cc3)ccc2CC1C(=O)NC1CCCc2ccccc21)C(C)(C)C

> <Shape>
0.215

> <Color>
0.075

> <Negative vol penalty>
0.000

$$$$

  -OEChem-04052315303D

 83 91  0     1  0  0  0  0  0999 V2000
  -21.5234  -26.5947   21.8260 C   0  0  0  0  0  0  0  0  0  0  0  0
  -22.8194  -26.1087   21.6864 C   0  0  0  0  0  0  0  0  0  0  0  0
  -23.0980   -9.8531   20.0475 C   0  0  0  0  0  0  0  0  0  0  0  0
  -23.9215   -9.9642   22.3162 C   0  0  0  0  0  0  0  0  0  0  0  0
  -20.6278  -26.5045   20.7613 C   0  0  0  0  0  0  0  0  0  0  0  0
  -23.2203  -25.5313   20.4821 C   0  0  0  0  0  0  0  0  0  0  0  0
  -27.7894  -27.1253   18.9894 C   0  0  0  0  0  0  0  0  0  0  0  0
  -29.4467  -18.4128   20.9446 C   0  0  0  0  0  0  0  0  0  0  0  0
  -31.7307  -17.6309   20.8495 C   0  0  0  0  0  0  0  0  0  0  0  0
  -29.9006  -19.7100   21.1827 C   0  0  0  0  0  0  0  0  0  0  0  0
  -32.1847  -18.9282   21.0876 C   0  0  0  0  0  0  0  0  0  0  0  0
  -22.3830   -8.6980   20.3636 C   0  0  0  0  0  0  0  0  0  0  0  0
  -23.2064   -8.8091   22.6323 C   0  0  0  0  0  0  0  0  0  0  0  0
  -28.8977  -26.5619   19.6202 C   0  0  0  0  0  0  0  0  0  0  0  0
  -20.0117   -7.9795   23.3578 C   0  0  0  0  0  0  0  0  0  0  0  0
  -19.2887   -7.9728   24.5506 C   0  0  0  0  0  0  0  0  0  0  0  0
  -29.2080  -25.0824   17.7403 C   0  0  0  0  0  0  0  0  0  0  0  0
  -20.5859   -6.0881   25.3264 C   0  0  0  0  0  0  0  0  0  0  0  0
  -23.8674  -10.4863   21.0238 C   0  0  0  0  0  0  0  0  0  0  0  0
  -24.1587  -13.0102   20.7953 C   0  0  0  0  0  0  0  0  0  0  0  0
  -21.0209  -25.9344   19.5402 C   0  0  0  0  0  0  0  0  0  0  0  0
  -27.3748  -26.6632   17.7320 C   0  0  0  0  0  0  0  0  0  0  0  0
  -22.3288  -25.4322   19.4005 C   0  0  0  0  0  0  0  0  0  0  0  0
  -28.0956  -25.6434   17.0945 C   0  0  0  0  0  0  0  0  0  0  0  0
  -30.3617  -17.3732   20.7781 C   0  0  0  0  0  0  0  0  0  0  0  0
  -31.2696  -19.9677   21.2542 C   0  0  0  0  0  0  0  0  0  0  0  0
  -22.4371   -8.1760   21.6560 C   0  0  0  0  0  0  0  0  0  0  0  0
  -29.6055  -25.5383   18.9969 C   0  0  0  0  0  0  0  0  0  0  0  0
  -21.0219   -7.0405   23.1492 C   0  0  0  0  0  0  0  0  0  0  0  0
  -19.5758   -7.0271   25.5349 C   0  0  0  0  0  0  0  0  0  0  0  0
  -21.3090   -6.0948   24.1335 C   0  0  0  0  0  0  0  0  0  0  0  0
  -24.6067  -11.6792   20.6977 C   0  0  0  0  0  0  0  0  0  0  0  0
  -25.2262  -13.7637   20.3719 C   0  0  0  0  0  0  0  0  0  0  0  0
  -22.8911  -13.5200   21.2300 C   0  0  0  0  0  0  0  0  0  0  0  0
  -24.7397  -25.2893   16.6040 C   0  0  0  0  0  0  0  0  0  0  0  0
  -26.2389  -25.6546   13.7507 C   0  0  0  0  0  0  0  0  0  0  0  0
  -31.0012  -22.4398   21.0724 C   0  0  0  0  0  0  0  0  0  0  0  0
  -29.1719  -26.0222   12.0451 C   0  0  0  0  0  0  0  0  0  0  0  0
  -30.6748  -14.9107   20.3488 C   0  0  0  0  0  0  0  0  0  0  0  0
  -20.0033  -25.8161   18.4333 C   0  0  0  0  0  0  0  0  0  0  0  0
  -26.1931  -27.2997   17.0530 C   0  0  0  0  0  0  0  0  0  0  0  0
  -27.7037  -25.1254   15.7356 C   0  0  0  0  0  0  0  0  0  0  0  0
  -20.6202  -25.5294   17.0668 C   0  0  0  0  0  0  0  0  0  0  0  0
  -29.5396  -12.3858   18.1097 C   0  0  0  0  0  0  0  0  0  0  0  0
  -21.6580  -24.4164   17.1725 C   0  0  0  0  0  0  0  0  0  0  0  0
  -28.1182  -12.0864   18.5914 C   0  0  0  0  0  0  0  0  0  0  0  0
  -30.4836  -12.6780   19.2748 C   0  0  0  0  0  0  0  0  0  0  0  0
  -28.6028  -13.4232   20.6807 C   0  0  0  0  0  0  0  0  0  0  0  0
  -22.8086  -24.8214   18.1017 C   0  0  1  0  0  0  0  0  0  0  0  0
  -25.5524  -26.3998   16.0008 C   0  0  1  0  0  0  0  0  0  0  0  0
  -27.6009  -13.1865   19.5389 C   0  0  2  0  0  0  0  0  0  0  0  0
  -30.0813  -26.2577    9.7181 C   0  0  0  0  0  0  0  0  0  0  0  0
  -25.8006  -22.6719   13.2802 C   0  0  0  0  0  0  0  0  0  0  0  0
  -27.5143  -22.7785   11.4582 C   0  0  0  0  0  0  0  0  0  0  0  0
  -25.4146  -24.1125   11.2727 C   0  0  0  0  0  0  0  0  0  0  0  0
  -32.9658  -21.4436   22.3076 C   0  0  0  0  0  0  0  0  0  0  0  0
  -30.3263  -28.6814   12.6407 C   0  0  0  0  0  0  0  0  0  0  0  0
  -31.5278  -23.7993   21.5330 C   0  0  0  0  0  0  0  0  0  0  0  0
  -30.6863  -24.9697   21.0376 C   0  0  0  0  0  0  0  0  0  1  0  0
  -27.1900  -24.8194   12.9281 C   0  0  1  0  0  0  0  0  0  0  0  0
  -29.5882  -26.9928   10.9547 C   0  0  2  0  0  0  0  0  0  0  0  0
  -26.4864  -23.6038   12.2613 C   0  0  0  0  0  0  0  0  0  0  0  0
  -25.8609  -11.5890   20.2475 N   0  0  0  0  0  0  0  0  0  0  0  0
  -26.2102  -12.8729   20.0583 N   0  0  0  0  0  0  0  0  0  0  0  0
  -26.5375  -25.7756   15.1153 N   0  0  0  0  0  0  0  0  0  0  0  0
  -29.9303  -13.7329   20.1268 N   0  0  0  0  0  0  0  0  0  0  0  0
  -25.4097  -15.0947   20.2409 N   0  0  0  0  0  0  0  0  0  0  0  0
  -21.9061  -12.6074   21.6314 N   0  0  0  0  0  0  0  0  0  0  0  0
  -29.9007  -16.0553   20.5366 N   0  0  0  0  0  0  0  0  0  0  0  0
  -23.7138  -25.7231   17.4219 N   0  0  0  0  0  0  0  0  0  0  0  0
  -27.8249  -25.7335   11.9849 N   0  0  0  0  0  0  0  0  0  0  0  0
  -31.7417  -21.3154   21.5015 N   0  0  0  0  0  0  0  0  0  0  0  0
  -30.6821  -27.8804   11.4412 N   0  3  0  0  0  0  0  0  0  0  0  0
  -22.6337  -14.7476   21.2459 O   0  0  0  0  0  0  0  0  0  0  0  0
  -25.0215  -24.1251   16.3454 O   0  0  0  0  0  0  0  0  0  0  0  0
  -25.2707  -26.1862   13.2014 O   0  0  0  0  0  0  0  0  0  0  0  0
  -29.9706  -22.3877   20.3965 O   0  0  0  0  0  0  0  0  0  0  0  0
  -29.9632  -25.5629   12.8657 O   0  0  0  0  0  0  0  0  0  0  0  0
  -31.9084  -14.9092   20.3437 O   0  0  0  0  0  0  0  0  0  0  0  0
  -21.7393   -7.0489   21.9648 O   0  0  0  0  0  0  0  0  0  0  0  0
  -30.6873  -24.9862   19.6107 O   0  0  0  0  0  0  0  0  0  1  0  0
  -18.8824   -7.0218   26.6809 F   0  0  0  0  0  0  0  0  0  0  0  0
  -22.2791   -5.1908   23.9394 F   0  0  0  0  0  0  0  0  0  0  0  0
  1  2  1  0  0  0  0
  1  5  2  0  0  0  0
  2  6  2  0  0  0  0
  3 12  2  0  0  0  0
  3 19  1  0  0  0  0
  4 13  1  0  0  0  0
  4 19  2  0  0  0  0
  5 21  1  0  0  0  0
  6 23  1  0  0  0  0
  7 14  2  0  0  0  0
  7 22  1  0  0  0  0
  8 10  2  0  0  0  0
  8 25  1  0  0  0  0
  9 11  1  0  0  0  0
  9 25  2  0  0  0  0
 10 26  1  0  0  0  0
 11 26  2  0  0  0  0
 12 27  1  0  0  0  0
 13 27  2  0  0  0  0
 14 28  1  0  0  0  0
 15 16  2  0  0  0  0
 15 29  1  0  0  0  0
 16 30  1  0  0  0  0
 17 24  1  0  0  0  0
 17 28  2  0  0  0  0
 18 30  2  0  0  0  0
 18 31  1  0  0  0  0
 19 32  1  0  0  0  0
 20 32  1  0  0  0  0
 20 33  2  0  0  0  0
 20 34  1  0  0  0  0
 21 23  2  0  0  0  0
 21 40  1  0  0  0  0
 22 24  2  0  0  0  0
 22 41  1  0  0  0  0
 23 49  1  0  0  0  0
 24 42  1  0  0  0  0
 25 69  1  0  0  0  0
 26 72  1  0  0  0  0
 27 80  1  0  0  0  0
 28 81  1  0  0  0  0
 29 31  2  0  0  0  0
 29 80  1  0  0  0  0
 30 82  1  0  0  0  0
 31 83  1  0  0  0  0
 32 63  2  0  0  0  0
 33 64  1  0  0  0  0
 33 67  1  0  0  0  0
 34 68  1  0  0  0  0
 34 74  2  0  0  0  0
 35 50  1  0  0  0  0
 35 70  1  0  0  0  0
 35 75  2  0  0  0  0
 36 60  1  0  0  0  0
 36 65  1  0  0  0  0
 36 76  2  0  0  0  0
 37 58  1  0  0  0  0
 37 72  1  0  0  0  0
 37 77  2  0  0  0  0
 38 61  1  0  0  0  0
 38 71  1  0  0  0  0
 38 78  2  0  0  0  0
 39 66  1  0  0  0  0
 39 69  1  0  0  0  0
 39 79  2  0  0  0  0
 40 43  1  0  0  0  0
 41 50  1  0  0  0  0
 42 65  1  0  0  0  0
 43 45  1  0  0  0  0
 44 46  1  0  0  0  0
 44 47  1  0  0  0  0
 45 49  1  0  0  0  0
 46 51  1  0  0  0  0
 47 66  1  0  0  0  0
 48 51  1  0  0  0  0
 48 66  1  0  0  0  0
 49 70  1  0  0  0  0
 50 65  1  0  0  0  0
 51 64  1  0  0  0  0
 52 61  1  0  0  0  0
 53 62  1  0  0  0  0
 54 62  1  0  0  0  0
 55 62  1  0  0  0  0
 56 72  1  0  0  0  0
 57 73  1  0  0  0  0
 58 59  1  0  0  0  0
 59 81  1  0  0  0  0
 60 62  1  0  0  0  0
 60 71  1  0  0  0  0
 61 73  1  0  0  0  0
 63 64  1  0  0  0  0
M  CHG  1  73   1
M  ISO  4  39 100  59 101  69 100  81 101
M  END
> <Batch ID>
0006

> <Smiles>
CNC(C)C(=O)NC(C(=O)N1Cc2cc([101O:1][101CH2:1]CC(=O)N(C)c3ccc([100NH:0][100C:0](=O)N4CCCC(n5nc(-c6ccc(Oc7ccc(F)cc7F)cc6)c(C(N)=O)c5N)C4)cc3)ccc2CC1C(=O)NC1CCCc2ccccc21)C(C)(C)C

> <Shape>
0.232

> <Color>
0.212

> <Negative vol penalty>
0.000

$$$$

  -OEChem-04052315303D

 85 92  0     1  0  0  0  0  0999 V2000
  -25.1112  -38.3842   28.5038 C   0  0  0  0  0  0  0  0  0  0  0  0
  -26.0244  -37.5055   27.9298 C   0  0  0  0  0  0  0  0  0  0  0  0
  -22.8819  -10.0257   20.0364 C   0  0  0  0  0  0  0  0  0  0  0  0
  -23.7119   -9.9684   22.3046 C   0  0  0  0  0  0  0  0  0  0  0  0
  -23.8410  -37.9331   28.8602 C   0  0  0  0  0  0  0  0  0  0  0  0
  -25.6683  -36.1749   27.7129 C   0  0  0  0  0  0  0  0  0  0  0  0
  -27.4315  -32.6031   23.0612 C   0  0  0  0  0  0  0  0  0  0  0  0
  -22.0739   -8.9207   20.3041 C   0  0  0  0  0  0  0  0  0  0  0  0
  -22.9038   -8.8634   22.5724 C   0  0  0  0  0  0  0  0  0  0  0  0
  -28.4282  -31.6349   22.9475 C   0  0  0  0  0  0  0  0  0  0  0  0
  -22.9638   -5.5335   21.9900 C   0  0  0  0  0  0  0  0  0  0  0  0
  -23.5344   -4.4661   22.6832 C   0  0  0  0  0  0  0  0  0  0  0  0
  -26.8022  -29.9149   23.4134 C   0  0  0  0  0  0  0  0  0  0  0  0
  -21.9017   -4.7363   24.4434 C   0  0  0  0  0  0  0  0  0  0  0  0
  -23.7010  -10.5495   21.0366 C   0  0  0  0  0  0  0  0  0  0  0  0
  -24.2000  -13.0484   20.9181 C   0  0  0  0  0  0  0  0  0  0  0  0
  -23.4658  -36.5987   28.6388 C   0  0  0  0  0  0  0  0  0  0  0  0
  -26.1126  -32.2348   23.3631 C   0  0  0  0  0  0  0  0  0  0  0  0
  -24.3923  -35.7052   28.0680 C   0  0  0  0  0  0  0  0  0  0  0  0
  -25.7901  -30.8801   23.5278 C   0  0  0  0  0  0  0  0  0  0  0  0
  -22.0848   -8.3396   21.5721 C   0  0  0  0  0  0  0  0  0  0  0  0
  -28.1143  -30.2908   23.1265 C   0  0  0  0  0  0  0  0  0  0  0  0
  -21.8621   -6.2025   22.5236 C   0  0  0  0  0  0  0  0  0  0  0  0
  -23.0034   -4.0675   23.9099 C   0  0  0  0  0  0  0  0  0  0  0  0
  -21.3311   -5.8038   23.7502 C   0  0  0  0  0  0  0  0  0  0  0  0
  -24.5364  -11.6906   20.7605 C   0  0  0  0  0  0  0  0  0  0  0  0
  -25.3261  -13.7291   20.5242 C   0  0  0  0  0  0  0  0  0  0  0  0
  -22.9789  -13.6415   21.3795 C   0  0  0  0  0  0  0  0  0  0  0  0
  -24.1056  -32.8401   25.7525 C   0  0  0  0  0  0  0  0  0  0  0  0
  -30.8866  -14.3261   20.6402 C   0  0  0  0  0  0  0  0  0  0  0  0
  -21.9985  -31.2472   23.8696 C   0  0  0  0  0  0  0  0  0  0  0  0
  -31.5763  -25.7957   25.3685 C   0  0  0  0  0  0  0  0  0  0  0  0
  -21.4848  -28.9792   21.3719 C   0  0  0  0  0  0  0  0  0  0  0  0
  -22.0979  -36.1457   29.0841 C   0  0  0  0  0  0  0  0  0  0  0  0
  -25.0437  -33.2889   23.4559 C   0  0  0  0  0  0  0  0  0  0  0  0
  -24.3854  -30.4308   23.8333 C   0  0  0  0  0  0  0  0  0  0  0  0
  -21.6702  -34.8121   28.4768 C   0  0  0  0  0  0  0  0  0  0  0  0
  -29.4998  -12.1258   18.1754 C   0  0  0  0  0  0  0  0  0  0  0  0
  -22.8011  -33.7932   28.5760 C   0  0  0  0  0  0  0  0  0  0  0  0
  -28.0669  -11.9040   18.6576 C   0  0  0  0  0  0  0  0  0  0  0  0
  -30.4684  -12.2610   19.3461 C   0  0  0  0  0  0  0  0  0  0  0  0
  -28.6607  -13.1062   20.8088 C   0  0  0  0  0  0  0  0  0  0  0  0
  -24.0348  -34.2605   27.7941 C   0  0  1  0  0  0  0  0  0  0  0  0
  -23.8355  -32.8444   24.2744 C   0  0  1  0  0  0  0  0  0  0  0  0
  -27.6452  -12.9951   19.6578 C   0  0  2  0  0  0  0  0  0  0  0  0
  -19.6518  -27.8563   20.0770 C   0  0  0  0  0  0  0  0  0  0  0  0
  -21.4185  -29.4422   26.2604 C   0  0  0  0  0  0  0  0  0  0  0  0
  -20.3511  -27.8156   24.6847 C   0  0  0  0  0  0  0  0  0  0  0  0
  -19.4004  -30.1075   24.9416 C   0  0  0  0  0  0  0  0  0  0  0  0
  -22.4456  -30.1069   18.8099 C   0  0  0  0  0  0  0  0  0  0  0  0
  -30.3533  -15.3518   21.6085 C   0  0  0  0  0  0  0  0  0  0  0  0
  -30.2127  -26.3430   24.9860 C   0  0  0  0  0  0  0  0  0  0  0  0
  -31.3988  -16.4216   21.9095 C   0  0  0  0  0  0  0  0  0  0  0  0
  -30.3085  -27.6017   24.1313 C   0  0  0  0  0  0  0  0  0  0  0  0
  -30.9641  -17.4912   22.9189 C   0  0  0  0  0  0  0  0  0  0  0  0
  -32.0081  -18.5908   23.1318 C   0  0  0  0  0  0  0  0  0  0  0  0
  -31.5317  -19.6100   24.1705 C   0  0  0  0  0  0  0  0  0  0  0  0
  -32.5432  -20.7294   24.4340 C   0  0  0  0  0  0  0  0  0  0  0  0
  -32.0373  -21.7886   25.4166 C   0  0  0  0  0  0  0  0  0  0  0  0
  -33.1026  -22.8608   25.6703 C   0  0  0  0  0  0  0  0  0  0  0  0
  -32.6253  -23.9408   26.6362 C   0  0  0  0  0  0  0  0  0  0  0  0
  -28.9332  -28.1615   23.7983 C   0  0  0  0  0  0  0  0  0  1  0  0
  -21.5870  -29.8036   23.7095 C   0  0  1  0  0  0  0  0  0  0  0  0
  -20.6169  -29.0305   20.1274 C   0  0  2  0  0  0  0  0  0  0  0  0
  -20.7162  -29.3005   24.8952 C   0  0  0  0  0  0  0  0  0  0  0  0
  -25.7788  -11.5170   20.3021 N   0  0  0  0  0  0  0  0  0  0  0  0
  -26.2330  -12.7747   20.1681 N   0  0  0  0  0  0  0  0  0  0  0  0
  -23.3767  -31.4997   23.9203 N   0  0  0  0  0  0  0  0  0  0  0  0
  -30.0210  -13.2916   20.2847 N   0  0  0  0  0  0  0  0  0  0  0  0
  -25.6190  -15.0449   20.4510 N   0  0  0  0  0  0  0  0  0  0  0  0
  -21.9218  -12.7965   21.7441 N   0  0  0  0  0  0  0  0  0  0  0  0
  -23.8453  -34.0457   26.3755 N   0  0  0  0  0  0  0  0  0  0  0  0
  -31.4737  -24.6483   26.1475 N   0  0  0  0  0  0  0  0  0  0  0  0
  -20.9367  -29.7066   22.4071 N   0  0  0  0  0  0  0  0  0  0  0  0
  -21.4651  -28.9947   18.9026 N   0  3  0  0  0  0  0  0  0  0  0  0
  -22.8238  -14.8842   21.4502 O   0  0  0  0  0  0  0  0  0  0  0  0
  -24.5181  -31.8181   26.2883 O   0  0  0  0  0  0  0  0  0  0  0  0
  -32.0374  -14.4442   20.2113 O   0  0  0  0  0  0  0  0  0  0  0  0
  -21.1291  -32.1196   23.9398 O   0  0  0  0  0  0  0  0  0  0  0  0
  -32.6335  -26.3159   25.0222 O   0  0  0  0  0  0  0  0  0  0  0  0
  -22.5412  -28.3531   21.4219 O   0  0  0  0  0  0  0  0  0  0  0  0
  -21.2962   -7.2615   21.8338 O   0  0  0  0  0  0  0  0  0  0  0  0
  -29.0925  -29.3369   23.0159 O   0  0  0  0  0  0  0  0  0  1  0  0
  -23.5505   -3.0414   24.5747 F   0  0  0  0  0  0  0  0  0  0  0  0
  -20.2721   -6.4418   24.2673 F   0  0  0  0  0  0  0  0  0  0  0  0
  1  2  1  0  0  0  0
  1  5  2  0  0  0  0
  2  6  2  0  0  0  0
  3  8  2  0  0  0  0
  3 15  1  0  0  0  0
  4  9  1  0  0  0  0
  4 15  2  0  0  0  0
  5 17  1  0  0  0  0
  6 19  1  0  0  0  0
  7 10  2  0  0  0  0
  7 18  1  0  0  0  0
  8 21  1  0  0  0  0
  9 21  2  0  0  0  0
 10 22  1  0  0  0  0
 11 12  2  0  0  0  0
 11 23  1  0  0  0  0
 12 24  1  0  0  0  0
 13 20  1  0  0  0  0
 13 22  2  0  0  0  0
 14 24  2  0  0  0  0
 14 25  1  0  0  0  0
 15 26  1  0  0  0  0
 16 26  1  0  0  0  0
 16 27  2  0  0  0  0
 16 28  1  0  0  0  0
 17 19  2  0  0  0  0
 17 34  1  0  0  0  0
 18 20  2  0  0  0  0
 18 35  1  0  0  0  0
 19 43  1  0  0  0  0
 20 36  1  0  0  0  0
 21 82  1  0  0  0  0
 22 83  1  0  0  0  0
 23 25  2  0  0  0  0
 23 82  1  0  0  0  0
 24 84  1  0  0  0  0
 25 85  1  0  0  0  0
 26 66  2  0  0  0  0
 27 67  1  0  0  0  0
 27 70  1  0  0  0  0
 28 71  1  0  0  0  0
 28 76  2  0  0  0  0
 29 44  1  0  0  0  0
 29 72  1  0  0  0  0
 29 77  2  0  0  0  0
 30 51  1  0  0  0  0
 30 69  1  0  0  0  0
 30 78  2  0  0  0  0
 31 63  1  0  0  0  0
 31 68  1  0  0  0  0
 31 79  2  0  0  0  0
 32 52  1  0  0  0  0
 32 73  1  0  0  0  0
 32 80  2  0  0  0  0
 33 64  1  0  0  0  0
 33 74  1  0  0  0  0
 33 81  2  0  0  0  0
 34 37  1  0  0  0  0
 35 44  1  0  0  0  0
 36 68  1  0  0  0  0
 37 39  1  0  0  0  0
 38 40  1  0  0  0  0
 38 41  1  0  0  0  0
 39 43  1  0  0  0  0
 40 45  1  0  0  0  0
 41 69  1  0  0  0  0
 42 45  1  0  0  0  0
 42 69  1  0  0  0  0
 43 72  1  0  0  0  0
 44 68  1  0  0  0  0
 45 67  1  0  0  0  0
 46 64  1  0  0  0  0
 47 65  1  0  0  0  0
 48 65  1  0  0  0  0
 49 65  1  0  0  0  0
 50 75  1  0  0  0  0
 51 53  1  0  0  0  0
 52 54  1  0  0  0  0
 53 55  1  0  0  0  0
 54 62  1  0  0  0  0
 55 56  1  0  0  0  0
 56 57  1  0  0  0  0
 57 58  1  0  0  0  0
 58 59  1  0  0  0  0
 59 60  1  0  0  0  0
 60 61  1  0  0  0  0
 61 73  1  0  0  0  0
 62 83  1  0  0  0  0
 63 65  1  0  0  0  0
 63 74  1  0  0  0  0
 64 75  1  0  0  0  0
 66 67  1  0  0  0  0
M  CHG  1  75   1
M  ISO  4  30 100  51 100  62 101  83 101
M  END
> <Batch ID>
0006

> <Smiles>
CNC(C)C(=O)NC(C(=O)N1Cc2cc([101O:1][101CH2:1]CCC(=O)NCCCCCCCC[100CH2:0][100C:0](=O)N3CCCC(n4nc(-c5ccc(Oc6ccc(F)cc6F)cc5)c(C(N)=O)c4N)C3)ccc2CC1C(=O)NC1CCCc2ccccc21)C(C)(C)C

> <Shape>
0.281

> <Color>
0.215

> <Negative vol penalty>
0.000

$$$$

  -OEChem-04052315303D

 85 93  0     1  0  0  0  0  0999 V2000
  -18.6662  -32.0930   25.5494 C   0  0  0  0  0  0  0  0  0  0  0  0
  -20.0441  -32.1547   25.3674 C   0  0  0  0  0  0  0  0  0  0  0  0
  -23.6770  -14.4673   21.6153 C   0  0  0  0  0  0  0  0  0  0  0  0
  -26.0334  -14.6160   22.1277 C   0  0  0  0  0  0  0  0  0  0  0  0
  -17.9590  -30.9661   25.1325 C   0  0  0  0  0  0  0  0  0  0  0  0
  -20.7156  -31.0890   24.7693 C   0  0  0  0  0  0  0  0  0  0  0  0
  -26.3281  -29.6930   20.5423 C   0  0  0  0  0  0  0  0  0  0  0  0
  -23.8764  -13.2008   21.0660 C   0  0  0  0  0  0  0  0  0  0  0  0
  -26.2327  -13.3494   21.5785 C   0  0  0  0  0  0  0  0  0  0  0  0
  -27.4708  -28.8954   20.4976 C   0  0  0  0  0  0  0  0  0  0  0  0
  -24.2919  -10.0374   22.1856 C   0  0  0  0  0  0  0  0  0  0  0  0
  -23.3870   -9.0327   22.5278 C   0  0  0  0  0  0  0  0  0  0  0  0
  -29.2699  -23.2331   19.8791 C   0  0  0  0  0  0  0  0  0  0  0  0
  -31.6501  -22.9214   20.1524 C   0  0  0  0  0  0  0  0  0  0  0  0
  -26.1344  -27.0334   19.7453 C   0  0  0  0  0  0  0  0  0  0  0  0
  -30.1020  -21.6294   21.4832 C   0  0  0  0  0  0  0  0  0  0  0  0
  -22.7978   -8.7702   20.1995 C   0  0  0  0  0  0  0  0  0  0  0  0
  -24.7555  -15.1750   22.1461 C   0  0  0  0  0  0  0  0  0  0  0  0
  -30.5793  -23.5599   19.5266 C   0  0  0  0  0  0  0  0  0  0  0  0
  -24.2401  -16.7911   24.0514 C   0  0  0  0  0  0  0  0  0  0  0  0
  -18.6208  -29.8901   24.5203 C   0  0  0  0  0  0  0  0  0  0  0  0
  -25.0762  -29.1628   20.1987 C   0  0  0  0  0  0  0  0  0  0  0  0
  -20.0167  -29.9460   24.3451 C   0  0  0  0  0  0  0  0  0  0  0  0
  -24.9778  -27.8270   19.7840 C   0  0  0  0  0  0  0  0  0  0  0  0
  -29.0312  -22.2679   20.8575 C   0  0  0  0  0  0  0  0  0  0  0  0
  -25.1542  -12.6418   21.0476 C   0  0  0  0  0  0  0  0  0  0  0  0
  -27.3736  -27.5646   20.1019 C   0  0  0  0  0  0  0  0  0  0  0  0
  -24.4497  -10.4087   20.8503 C   0  0  0  0  0  0  0  0  0  0  0  0
  -31.4114  -21.9562   21.1307 C   0  0  0  0  0  0  0  0  0  0  0  0
  -22.6400   -8.3990   21.5348 C   0  0  0  0  0  0  0  0  0  0  0  0
  -23.7027   -9.7750   19.8573 C   0  0  0  0  0  0  0  0  0  0  0  0
  -24.5503  -16.4836   22.7131 C   0  0  0  0  0  0  0  0  0  0  0  0
  -24.1490  -18.1613   24.0766 C   0  0  0  0  0  0  0  0  0  0  0  0
  -30.8318  -24.5773   18.4939 C   0  0  0  0  0  0  0  0  0  0  0  0
  -24.0512  -15.9164   25.1716 C   0  0  0  0  0  0  0  0  0  0  0  0
  -22.3283  -28.7232   21.7347 C   0  0  0  0  0  0  0  0  0  0  0  0
  -21.2817  -27.8197   18.8003 C   0  0  0  0  0  0  0  0  0  0  0  0
  -22.0386  -26.6104   15.7000 C   0  0  0  0  0  0  0  0  0  0  0  0
  -26.5260  -22.4736   20.6914 C   0  0  0  0  0  0  0  0  0  0  0  0
  -17.8204  -28.6731   24.1292 C   0  0  0  0  0  0  0  0  0  0  0  0
  -23.8573  -30.0436   20.2265 C   0  0  0  0  0  0  0  0  0  0  0  0
  -23.6603  -27.2154   19.3855 C   0  0  0  0  0  0  0  0  0  0  0  0
  -18.5544  -27.7455   23.1644 C   0  0  0  0  0  0  0  0  0  0  0  0
  -23.0626  -21.8942   21.2803 C   0  0  0  0  0  0  0  0  0  0  0  0
  -19.9854  -27.5083   23.6365 C   0  0  0  0  0  0  0  0  0  0  0  0
  -23.0235  -20.4712   21.8420 C   0  0  0  0  0  0  0  0  0  0  0  0
  -24.1284  -22.0470   20.1965 C   0  0  0  0  0  0  0  0  0  0  0  0
  -25.4367  -20.1885   21.1469 C   0  0  0  0  0  0  0  0  0  0  0  0
  -20.7774  -28.8207   23.6779 C   0  0  1  0  0  0  0  0  0  0  0  0
  -22.5552  -29.2581   20.3491 C   0  0  1  0  0  0  0  0  0  0  0  0
  -24.4226  -20.0024   22.2874 C   0  0  2  0  0  0  0  0  0  0  0  0
  -20.9681  -25.9412   13.5313 C   0  0  0  0  0  0  0  0  0  0  0  0
  -20.3087  -25.2279   20.0831 C   0  0  0  0  0  0  0  0  0  0  0  0
  -20.1334  -24.2400   17.7893 C   0  0  0  0  0  0  0  0  0  0  0  0
  -18.7389  -26.2147   18.4049 C   0  0  0  0  0  0  0  0  0  0  0  0
  -31.2248  -26.9346   17.8919 C   0  0  0  0  0  0  0  0  0  0  0  0
  -23.5473  -28.6598   14.1892 C   0  0  0  0  0  0  0  0  0  0  0  0
  -33.7687  -21.7144   21.3325 C   0  0  0  0  0  0  0  0  0  0  0  0
  -30.8491  -26.3876   20.2707 C   0  0  0  0  0  0  0  0  0  0  0  0
  -29.7227  -27.3929   20.4307 C   0  0  0  0  0  0  0  0  0  1  0  0
  -21.2226  -26.5163   18.0409 C   0  0  1  0  0  0  0  0  0  0  0  0
  -21.6267  -27.0677   14.3123 C   0  0  2  0  0  0  0  0  0  0  0  0
  -20.1256  -25.5604   18.5889 C   0  0  0  0  0  0  0  0  0  0  0  0
  -24.6495  -17.5710   21.9439 N   0  0  0  0  0  0  0  0  0  0  0  0
  -24.4001  -18.5752   22.8015 N   0  0  0  0  0  0  0  0  0  0  0  0
  -22.4963  -28.1154   19.4353 N   0  0  0  0  0  0  0  0  0  0  0  0
  -25.4280  -21.5874   20.6913 N   0  0  0  0  0  0  0  0  0  0  0  0
  -23.8793  -19.0406   25.0649 N   0  0  0  0  0  0  0  0  0  0  0  0
  -24.1814  -14.5355   24.9704 N   0  0  0  0  0  0  0  0  0  0  0  0
  -27.7011  -21.9355   21.2151 N   0  0  0  0  0  0  0  0  0  0  0  0
  -21.1863  -29.2065   22.3444 N   0  0  0  0  0  0  0  0  0  0  0  0
  -21.0590  -26.8700   16.6350 N   0  0  0  0  0  0  0  0  0  0  0  0
  -30.9589  -25.9187   18.9148 N   0  0  0  0  0  0  0  0  0  0  0  0
  -22.8164  -27.5370   13.5472 N   0  3  0  0  0  0  0  0  0  0  0  0
  -30.9231  -24.1678   17.3371 O   0  0  0  0  0  0  0  0  0  0  0  0
  -23.7590  -16.3455   26.3135 O   0  0  0  0  0  0  0  0  0  0  0  0
  -23.1291  -27.9294   22.2146 O   0  0  0  0  0  0  0  0  0  0  0  0
  -20.2893  -28.5519   18.8231 O   0  0  0  0  0  0  0  0  0  0  0  0
  -23.1196  -26.0730   15.9308 O   0  0  0  0  0  0  0  0  0  0  0  0
  -26.4238  -23.6335   20.2839 O   0  0  0  0  0  0  0  0  0  0  0  0
  -25.3491  -11.4058   20.5120 O   0  0  0  0  0  0  0  0  0  0  0  0
  -32.4559  -21.3328   21.7411 O   0  0  0  0  0  0  0  0  0  0  0  0
  -28.4873  -26.7838   20.0580 O   0  0  0  0  0  0  0  0  0  1  0  0
  -21.7721   -7.4331   21.8635 F   0  0  0  0  0  0  0  0  0  0  0  0
  -23.8508  -10.1265   18.5726 F   0  0  0  0  0  0  0  0  0  0  0  0
  1  2  1  0  0  0  0
  1  5  2  0  0  0  0
  2  6  2  0  0  0  0
  3  8  2  0  0  0  0
  3 18  1  0  0  0  0
  4  9  1  0  0  0  0
  4 18  2  0  0  0  0
  5 21  1  0  0  0  0
  6 23  1  0  0  0  0
  7 10  2  0  0  0  0
  7 22  1  0  0  0  0
  8 26  1  0  0  0  0
  9 26  2  0  0  0  0
 10 27  1  0  0  0  0
 11 12  2  0  0  0  0
 11 28  1  0  0  0  0
 12 30  1  0  0  0  0
 13 19  1  0  0  0  0
 13 25  2  0  0  0  0
 14 19  2  0  0  0  0
 14 29  1  0  0  0  0
 15 24  1  0  0  0  0
 15 27  2  0  0  0  0
 16 25  1  0  0  0  0
 16 29  2  0  0  0  0
 17 30  2  0  0  0  0
 17 31  1  0  0  0  0
 18 32  1  0  0  0  0
 19 34  1  0  0  0  0
 20 32  1  0  0  0  0
 20 33  2  0  0  0  0
 20 35  1  0  0  0  0
 21 23  2  0  0  0  0
 21 40  1  0  0  0  0
 22 24  2  0  0  0  0
 22 41  1  0  0  0  0
 23 49  1  0  0  0  0
 24 42  1  0  0  0  0
 25 70  1  0  0  0  0
 26 81  1  0  0  0  0
 27 83  1  0  0  0  0
 28 31  2  0  0  0  0
 28 81  1  0  0  0  0
 29 82  1  0  0  0  0
 30 84  1  0  0  0  0
 31 85  1  0  0  0  0
 32 64  2  0  0  0  0
 33 65  1  0  0  0  0
 33 68  1  0  0  0  0
 34 73  1  0  0  0  0
 34 75  2  0  0  0  0
 35 69  1  0  0  0  0
 35 76  2  0  0  0  0
 36 50  1  0  0  0  0
 36 71  1  0  0  0  0
 36 77  2  0  0  0  0
 37 61  1  0  0  0  0
 37 66  1  0  0  0  0
 37 78  2  0  0  0  0
 38 62  1  0  0  0  0
 38 72  1  0  0  0  0
 38 79  2  0  0  0  0
 39 67  1  0  0  0  0
 39 70  1  0  0  0  0
 39 80  2  0  0  0  0
 40 43  1  0  0  0  0
 41 50  1  0  0  0  0
 42 66  1  0  0  0  0
 43 45  1  0  0  0  0
 44 46  1  0  0  0  0
 44 47  1  0  0  0  0
 45 49  1  0  0  0  0
 46 51  1  0  0  0  0
 47 67  1  0  0  0  0
 48 51  1  0  0  0  0
 48 67  1  0  0  0  0
 49 71  1  0  0  0  0
 50 66  1  0  0  0  0
 51 65  1  0  0  0  0
 52 62  1  0  0  0  0
 53 63  1  0  0  0  0
 54 63  1  0  0  0  0
 55 63  1  0  0  0  0
 56 73  1  0  0  0  0
 57 74  1  0  0  0  0
 58 82  1  0  0  0  0
 59 60  1  0  0  0  0
 59 73  1  0  0  0  0
 60 83  1  0  0  0  0
 61 63  1  0  0  0  0
 61 72  1  0  0  0  0
 62 74  1  0  0  0  0
 64 65  1  0  0  0  0
M  CHG  1  74   1
M  ISO  4  39 100  60 101  70 100  83 101
M  END
> <Batch ID>
0006

> <Smiles>
CNC(C)C(=O)NC(C(=O)N1Cc2cc([101O:1][101CH2:1]CN(C)C(=O)c3cc([100NH:0][100C:0](=O)N4CCCC(n5nc(-c6ccc(Oc7ccc(F)cc7F)cc6)c(C(N)=O)c5N)C4)cc(OC)c3)ccc2CC1C(=O)NC1CCCc2ccccc21)C(C)(C)C

> <Shape>
0.238

> <Color>
0.092

> <Negative vol penalty>
0.000

$$$$

  -OEChem-04052315303D

 82 90  0     1  0  0  0  0  0999 V2000
  -25.3082  -37.8061   19.9633 C   0  0  0  0  0  0  0  0  0  0  0  0
  -25.9834  -36.6510   19.5822 C   0  0  0  0  0  0  0  0  0  0  0  0
  -29.5687  -19.2604   14.2743 C   0  0  0  0  0  0  0  0  0  0  0  0
  -26.1712  -11.6636   21.1217 C   0  0  0  0  0  0  0  0  0  0  0  0
  -25.9568  -12.1478   18.7645 C   0  0  0  0  0  0  0  0  0  0  0  0
  -24.6906  -37.8714   21.2116 C   0  0  0  0  0  0  0  0  0  0  0  0
  -26.0423  -35.5608   20.4498 C   0  0  0  0  0  0  0  0  0  0  0  0
  -26.0211  -29.6314   18.9177 C   0  0  0  0  0  0  0  0  0  0  0  0
  -29.8724  -18.3902   15.3212 C   0  0  0  0  0  0  0  0  0  0  0  0
  -29.6734  -20.6389   14.4604 C   0  0  0  0  0  0  0  0  0  0  0  0
  -24.8263  -11.2967   21.1687 C   0  0  0  0  0  0  0  0  0  0  0  0
  -24.6119  -11.7808   18.8114 C   0  0  0  0  0  0  0  0  0  0  0  0
  -27.0447  -28.6955   18.7764 C   0  0  0  0  0  0  0  0  0  0  0  0
  -22.9451   -8.6152   20.3299 C   0  0  0  0  0  0  0  0  0  0  0  0
  -22.6161   -7.4444   21.0129 C   0  0  0  0  0  0  0  0  0  0  0  0
  -26.6458  -27.9280   21.0283 C   0  0  0  0  0  0  0  0  0  0  0  0
  -30.3853  -20.2769   16.7406 C   0  0  0  0  0  0  0  0  0  0  0  0
  -21.2114   -8.7143   22.5132 C   0  0  0  0  0  0  0  0  0  0  0  0
  -26.7365  -12.0892   19.9196 C   0  0  0  0  0  0  0  0  0  0  0  0
  -29.2259  -11.6340   19.5987 C   0  0  0  0  0  0  0  0  0  0  0  0
  -24.7337  -36.7780   22.0910 C   0  0  0  0  0  0  0  0  0  0  0  0
  -25.3082  -29.7302   20.1213 C   0  0  0  0  0  0  0  0  0  0  0  0
  -25.4259  -35.6121   21.7115 C   0  0  0  0  0  0  0  0  0  0  0  0
  -25.6119  -28.8643   21.1815 C   0  0  0  0  0  0  0  0  0  0  0  0
  -30.2807  -18.8984   16.5544 C   0  0  0  0  0  0  0  0  0  0  0  0
  -24.0466  -11.3553   20.0136 C   0  0  0  0  0  0  0  0  0  0  0  0
  -27.3591  -27.8455   19.8327 C   0  0  0  0  0  0  0  0  0  0  0  0
  -30.0817  -21.1471   15.6936 C   0  0  0  0  0  0  0  0  0  0  0  0
  -22.4073   -9.8356   20.7386 C   0  0  0  0  0  0  0  0  0  0  0  0
  -21.7493   -7.4939   22.1045 C   0  0  0  0  0  0  0  0  0  0  0  0
  -21.5405   -9.8852   21.8303 C   0  0  0  0  0  0  0  0  0  0  0  0
  -28.1255  -12.4689   19.8705 C   0  0  0  0  0  0  0  0  0  0  0  0
  -30.3152  -12.4676   19.6700 C   0  0  0  0  0  0  0  0  0  0  0  0
  -29.2604  -10.2305   19.3078 C   0  0  0  0  0  0  0  0  0  0  0  0
  -24.8963  -32.0036   22.3043 C   0  0  0  0  0  0  0  0  0  0  0  0
  -22.7894  -29.8779   23.5552 C   0  0  0  0  0  0  0  0  0  0  0  0
  -21.7843  -26.6306   23.8569 C   0  0  0  0  0  0  0  0  0  0  0  0
  -31.0089  -18.3529   18.9035 C   0  0  0  0  0  0  0  0  0  0  0  0
  -24.0915  -36.9128   23.4489 C   0  0  0  0  0  0  0  0  0  0  0  0
  -24.1890  -30.7270   20.2486 C   0  0  0  0  0  0  0  0  0  0  0  0
  -24.8630  -28.9163   22.4872 C   0  0  0  0  0  0  0  0  0  0  0  0
  -23.8811  -35.5776   24.1584 C   0  0  0  0  0  0  0  0  0  0  0  0
  -31.8318  -16.4728   21.8130 C   0  0  0  0  0  0  0  0  0  0  0  0
  -25.1417  -34.7230   24.0726 C   0  0  0  0  0  0  0  0  0  0  0  0
  -31.0798  -15.1544   21.6174 C   0  0  0  0  0  0  0  0  0  0  0  0
  -31.0316  -17.6650   21.2913 C   0  0  0  0  0  0  0  0  0  0  0  0
  -29.8138  -16.2223   19.7086 C   0  0  0  0  0  0  0  0  0  0  0  0
  -25.4908  -34.3997   22.6148 C   0  0  1  0  0  0  0  0  0  0  0  0
  -23.8719  -31.0877   21.6966 C   0  0  1  0  0  0  0  0  0  0  0  0
  -30.6079  -14.9856   20.1599 C   0  0  2  0  0  0  0  0  0  0  0  0
  -20.0522  -25.2004   24.9759 C   0  0  0  0  0  0  0  0  0  0  0  0
  -24.2801  -30.1490   26.2036 C   0  0  0  0  0  0  0  0  0  0  0  0
  -23.1462  -28.0548   26.9762 C   0  0  0  0  0  0  0  0  0  0  0  0
  -21.7892  -30.0704   26.4119 C   0  0  0  0  0  0  0  0  0  0  0  0
  -20.7179  -25.6886   21.2618 C   0  0  0  0  0  0  0  0  0  0  0  0
  -29.1101  -24.9878   18.4780 C   0  0  0  0  0  0  0  0  0  0  0  0
  -29.3982  -24.4053   17.0987 C   0  0  0  0  0  0  0  0  0  0  0  0
  -28.5965  -26.4187   18.3874 C   0  0  0  0  0  0  0  0  0  1  0  0
  -29.9521  -22.9905   17.1905 C   0  0  0  0  0  0  0  0  0  0  0  0
  -22.8758  -28.7472   24.5516 C   0  0  1  0  0  0  0  0  0  0  0  0
  -20.4179  -25.9825   23.7240 C   0  0  2  0  0  0  0  0  0  0  0  0
  -23.0384  -29.2555   26.0120 C   0  0  0  0  0  0  0  0  0  0  0  0
  -28.4830  -13.7357   20.0977 N   0  0  0  0  0  0  0  0  0  0  0  0
  -29.8204  -13.7029   19.9688 N   0  0  0  0  0  0  0  0  0  0  0  0
  -23.7815  -29.9121   22.5651 N   0  0  0  0  0  0  0  0  0  0  0  0
  -30.6222  -17.4361   19.9039 N   0  0  0  0  0  0  0  0  0  0  0  0
  -31.6385  -12.2571   19.5056 N   0  0  0  0  0  0  0  0  0  0  0  0
  -28.0497   -9.5253   19.2738 N   0  0  0  0  0  0  0  0  0  0  0  0
  -30.5894  -18.0140   17.6175 N   0  0  0  0  0  0  0  0  0  0  0  0
  -24.6348  -33.3467   22.1117 N   0  0  0  0  0  0  0  0  0  0  0  0
  -21.6933  -27.9208   24.3348 N   0  0  0  0  0  0  0  0  0  0  0  0
  -20.3987  -25.0477   22.5635 N   0  3  0  0  0  0  0  0  0  0  0  0
  -30.3345   -9.6166   19.1007 O   0  0  0  0  0  0  0  0  0  0  0  0
  -25.8524  -31.5271   22.9048 O   0  0  0  0  0  0  0  0  0  0  0  0
  -21.8711  -30.6965   23.6474 O   0  0  0  0  0  0  0  0  0  0  0  0
  -22.8281  -26.0490   23.5693 O   0  0  0  0  0  0  0  0  0  0  0  0
  -31.6871  -19.3499   19.1642 O   0  0  0  0  0  0  0  0  0  0  0  0
  -22.7343  -10.9971   20.0590 O   0  0  0  0  0  0  0  0  0  0  0  0
  -28.3582  -26.9315   19.6976 O   0  0  0  0  0  0  0  0  0  1  0  0
  -30.1844  -22.5016   15.8767 O   0  0  0  0  0  0  0  0  0  0  0  0
  -21.4322   -6.3692   22.7593 F   0  0  0  0  0  0  0  0  0  0  0  0
  -21.0197  -11.0545   22.2268 F   0  0  0  0  0  0  0  0  0  0  0  0
  1  2  1  0  0  0  0
  1  6  2  0  0  0  0
  2  7  2  0  0  0  0
  3  9  1  0  0  0  0
  3 10  2  0  0  0  0
  4 11  2  0  0  0  0
  4 19  1  0  0  0  0
  5 12  1  0  0  0  0
  5 19  2  0  0  0  0
  6 21  1  0  0  0  0
  7 23  1  0  0  0  0
  8 13  2  0  0  0  0
  8 22  1  0  0  0  0
  9 25  2  0  0  0  0
 10 28  1  0  0  0  0
 11 26  1  0  0  0  0
 12 26  2  0  0  0  0
 13 27  1  0  0  0  0
 14 15  2  0  0  0  0
 14 29  1  0  0  0  0
 15 30  1  0  0  0  0
 16 24  1  0  0  0  0
 16 27  2  0  0  0  0
 17 25  1  0  0  0  0
 17 28  2  0  0  0  0
 18 30  2  0  0  0  0
 18 31  1  0  0  0  0
 19 32  1  0  0  0  0
 20 32  1  0  0  0  0
 20 33  2  0  0  0  0
 20 34  1  0  0  0  0
 21 23  2  0  0  0  0
 21 39  1  0  0  0  0
 22 24  2  0  0  0  0
 22 40  1  0  0  0  0
 23 48  1  0  0  0  0
 24 41  1  0  0  0  0
 25 69  1  0  0  0  0
 26 78  1  0  0  0  0
 27 79  1  0  0  0  0
 28 80  1  0  0  0  0
 29 31  2  0  0  0  0
 29 78  1  0  0  0  0
 30 81  1  0  0  0  0
 31 82  1  0  0  0  0
 32 63  2  0  0  0  0
 33 64  1  0  0  0  0
 33 67  1  0  0  0  0
 34 68  1  0  0  0  0
 34 73  2  0  0  0  0
 35 49  1  0  0  0  0
 35 70  1  0  0  0  0
 35 74  2  0  0  0  0
 36 60  1  0  0  0  0
 36 65  1  0  0  0  0
 36 75  2  0  0  0  0
 37 61  1  0  0  0  0
 37 71  1  0  0  0  0
 37 76  2  0  0  0  0
 38 66  1  0  0  0  0
 38 69  1  0  0  0  0
 38 77  2  0  0  0  0
 39 42  1  0  0  0  0
 40 49  1  0  0  0  0
 41 65  1  0  0  0  0
 42 44  1  0  0  0  0
 43 45  1  0  0  0  0
 43 46  1  0  0  0  0
 44 48  1  0  0  0  0
 45 50  1  0  0  0  0
 46 66  1  0  0  0  0
 47 50  1  0  0  0  0
 47 66  1  0  0  0  0
 48 70  1  0  0  0  0
 49 65  1  0  0  0  0
 50 64  1  0  0  0  0
 51 61  1  0  0  0  0
 52 62  1  0  0  0  0
 53 62  1  0  0  0  0
 54 62  1  0  0  0  0
 55 72  1  0  0  0  0
 56 57  1  0  0  0  0
 56 58  1  0  0  0  0
 57 59  1  0  0  0  0
 58 79  1  0  0  0  0
 59 80  1  0  0  0  0
 60 62  1  0  0  0  0
 60 71  1  0  0  0  0
 61 72  1  0  0  0  0
 63 64  1  0  0  0  0
M  CHG  1  72   1
M  ISO  4  38 100  58 101  69 100  79 101
M  END
> <Batch ID>
0006

> <Smiles>
CNC(C)C(=O)NC(C(=O)N1Cc2cc([101O:1][101CH2:1]CCCOc3cccc([100NH:0][100C:0](=O)N4CCCC(n5nc(-c6ccc(Oc7ccc(F)cc7F)cc6)c(C(N)=O)c5N)C4)c3)ccc2CC1C(=O)NC1CCCc2ccccc21)C(C)(C)C

> <Shape>
0.287

> <Color>
0.073

> <Negative vol penalty>
0.000

$$$$

  -OEChem-04052315303D

 99107  0     1  0  0  0  0  0999 V2000
  -24.4465  -37.3908   24.7209 C   0  0  0  0  0  0  0  0  0  0  0  0
  -25.3073  -36.8193   23.7893 C   0  0  0  0  0  0  0  0  0  0  0  0
  -30.1099  -12.5423   20.3976 C   0  0  0  0  0  0  0  0  0  0  0  0
  -28.6603  -14.2654   19.5221 C   0  0  0  0  0  0  0  0  0  0  0  0
  -23.7893  -36.5834   25.6483 C   0  0  0  0  0  0  0  0  0  0  0  0
  -25.5121  -35.4400   23.7852 C   0  0  0  0  0  0  0  0  0  0  0  0
  -26.8380  -30.0061   19.3096 C   0  0  0  0  0  0  0  0  0  0  0  0
  -29.4196  -11.5843   19.6552 C   0  0  0  0  0  0  0  0  0  0  0  0
  -27.9699  -13.3073   18.7796 C   0  0  0  0  0  0  0  0  0  0  0  0
  -27.7275  -28.9467   19.1354 C   0  0  0  0  0  0  0  0  0  0  0  0
  -28.4145  -11.5938   15.9010 C   0  0  0  0  0  0  0  0  0  0  0  0
  -28.1203  -11.8950   14.5713 C   0  0  0  0  0  0  0  0  0  0  0  0
  -26.4772  -27.6421   20.7334 C   0  0  0  0  0  0  0  0  0  0  0  0
  -25.7613  -11.6695   15.0422 C   0  0  0  0  0  0  0  0  0  0  0  0
  -29.9336  -20.8372   19.1611 C   0  0  0  0  0  0  0  0  0  0  0  0
  -29.7302  -13.8829   20.3311 C   0  0  0  0  0  0  0  0  0  0  0  0
  -31.5684  -15.6144   20.6926 C   0  0  0  0  0  0  0  0  0  0  0  0
  -23.9787  -35.1924   25.6493 C   0  0  0  0  0  0  0  0  0  0  0  0
  -25.7660  -29.8952   20.2067 C   0  0  0  0  0  0  0  0  0  0  0  0
  -24.8578  -34.6133   24.7143 C   0  0  0  0  0  0  0  0  0  0  0  0
  -25.5741  -28.7006   20.9153 C   0  0  0  0  0  0  0  0  0  0  0  0
  -28.3497  -11.9668   18.8462 C   0  0  0  0  0  0  0  0  0  0  0  0
  -27.5489  -27.7656   19.8495 C   0  0  0  0  0  0  0  0  0  0  0  0
  -27.3822  -11.3303   16.8014 C   0  0  0  0  0  0  0  0  0  0  0  0
  -26.7937  -11.9328   14.1418 C   0  0  0  0  0  0  0  0  0  0  0  0
  -26.0556  -11.3682   16.3720 C   0  0  0  0  0  0  0  0  0  0  0  0
  -30.4426  -14.8730   21.0982 C   0  0  0  0  0  0  0  0  0  0  0  0
  -29.0665  -19.9158   19.7121 C   0  0  0  0  0  0  0  0  0  0  0  0
  -29.6694  -22.1584   19.4595 C   0  0  0  0  0  0  0  0  0  0  0  0
  -31.8620  -16.4111   21.7722 C   0  0  0  0  0  0  0  0  0  0  0  0
  -27.8674  -21.5675   20.7128 C   0  0  0  0  0  0  0  0  0  0  0  0
  -32.2848  -15.5855   19.4509 C   0  0  0  0  0  0  0  0  0  0  0  0
  -24.8888  -31.4213   22.8534 C   0  0  0  0  0  0  0  0  0  0  0  0
  -22.2408  -29.5680   22.5781 C   0  0  0  0  0  0  0  0  0  0  0  0
  -22.5037  -18.9177   22.8016 C   0  0  0  0  0  0  0  0  0  0  0  0
  -20.8157  -26.7129   21.3680 C   0  0  0  0  0  0  0  0  0  0  0  0
  -28.5597  -18.5260   26.2969 C   0  0  0  0  0  0  0  0  0  0  0  0
  -23.2828  -34.3658   26.7016 C   0  0  0  0  0  0  0  0  0  0  0  0
  -24.7999  -31.0373   20.3633 C   0  0  0  0  0  0  0  0  0  0  0  0
  -24.4273  -28.5235   21.8755 C   0  0  0  0  0  0  0  0  0  0  0  0
  -23.2654  -32.8717   26.3893 C   0  0  0  0  0  0  0  0  0  0  0  0
  -31.5022  -16.5364   26.5414 C   0  0  0  0  0  0  0  0  0  0  0  0
  -24.6474  -32.4029   25.9454 C   0  0  0  0  0  0  0  0  0  0  0  0
  -31.6659  -15.9513   25.1375 C   0  0  0  0  0  0  0  0  0  0  0  0
  -30.0321  -16.6411   26.9413 C   0  0  0  0  0  0  0  0  0  0  0  0
  -29.3437  -16.7848   24.5793 C   0  0  0  0  0  0  0  0  0  0  0  0
  -25.0868  -33.1183   24.6622 C   0  0  1  0  0  0  0  0  0  0  0  0
  -24.0410  -31.0009   21.6863 C   0  0  1  0  0  0  0  0  0  0  0  0
  -30.8067  -16.7118   24.1095 C   0  0  2  0  0  0  0  0  0  0  0  0
  -29.2714  -18.4623   19.4457 C   0  0  0  0  0  0  0  0  0  0  0  0
  -18.6448  -25.4545   21.3382 C   0  0  0  0  0  0  0  0  0  0  0  0
  -22.7307  -28.6596   25.4495 C   0  0  0  0  0  0  0  0  0  0  0  0
  -21.1580  -26.7548   25.0415 C   0  0  0  0  0  0  0  0  0  0  0  0
  -20.3340  -29.1045   24.8906 C   0  0  0  0  0  0  0  0  0  0  0  0
  -31.6480  -22.7386   18.0779 C   0  0  0  0  0  0  0  0  0  0  0  0
  -20.6218  -26.8867   18.4199 C   0  0  0  0  0  0  0  0  0  0  0  0
  -23.9903  -22.8537   21.9828 C   0  0  0  0  0  0  0  0  0  0  0  0
  -22.7354  -23.0060   22.8460 C   0  0  0  0  0  0  0  0  0  0  0  0
  -24.9086  -19.3056   24.7530 C   0  0  0  0  0  0  0  0  0  0  0  0
  -25.2208  -23.4320   22.6900 C   0  0  0  0  0  0  0  0  0  0  0  0
  -21.4690  -22.4499   22.1844 C   0  0  0  0  0  0  0  0  0  0  0  0
  -25.6471  -20.0668   25.8601 C   0  0  0  0  0  0  0  0  0  0  0  0
  -23.4581  -19.0128   25.1595 C   0  0  0  0  0  0  0  0  0  0  0  0
  -29.3489  -25.1314   18.1487 C   0  0  0  0  0  0  0  0  0  0  0  0
  -26.4888  -23.3081   21.8509 C   0  0  0  0  0  0  0  0  0  0  0  0
  -21.5420  -20.9764   21.7948 C   0  0  0  0  0  0  0  0  0  0  0  0
  -27.0983  -20.3651   25.4961 C   0  0  0  0  0  0  0  0  0  0  0  0
  -30.3071  -24.5402   19.1756 C   0  0  0  0  0  0  0  0  0  0  0  0
  -29.0357  -26.6010   18.4041 C   0  0  0  0  0  0  0  0  0  1  0  0
  -21.8379  -28.1992   23.0711 C   0  0  1  0  0  0  0  0  0  0  0  0
  -22.6555  -18.2017   24.1343 C   0  0  2  0  0  0  0  0  0  0  0  0
  -19.5158  -26.4743   20.6211 C   0  0  2  0  0  0  0  0  0  0  0  0
  -21.5380  -28.1833   24.5966 C   0  0  0  0  0  0  0  0  0  0  0  0
  -30.0479  -15.1719   22.3387 N   0  0  0  0  0  0  0  0  0  0  0  0
  -28.0192  -20.2472   20.4955 N   0  0  0  0  0  0  0  0  0  0  0  0
  -28.6411  -22.5607   20.2347 N   0  0  0  0  0  0  0  0  0  0  0  0
  -30.9307  -16.1100   22.7219 N   0  0  0  0  0  0  0  0  0  0  0  0
  -23.5134  -29.6712   21.9988 N   0  0  0  0  0  0  0  0  0  0  0  0
  -29.2732  -17.3745   25.9255 N   0  0  0  0  0  0  0  0  0  0  0  0
  -32.8235  -17.3328   21.9922 N   0  0  0  0  0  0  0  0  0  0  0  0
  -31.8490  -14.7084   18.4484 N   0  0  0  0  0  0  0  0  0  0  0  0
  -26.7985  -21.9453   21.5160 N   0  0  0  0  0  0  0  0  0  0  0  0
  -24.4238  -32.5441   23.5110 N   0  0  0  0  0  0  0  0  0  0  0  0
  -21.8166  -20.1162   22.9221 N   0  0  0  0  0  0  0  0  0  0  0  0
  -20.7170  -27.7787   22.2373 N   0  0  0  0  0  0  0  0  0  0  0  0
  -27.8728  -19.1648   25.2718 N   0  0  0  0  0  0  0  0  0  0  0  0
  -30.5362  -23.1363   18.9132 N   0  0  3  0  0  0  0  0  0  0  0  0
  -23.2830  -16.8643   23.9391 N   0  3  0  0  0  0  0  0  0  0  0  0
  -19.7933  -25.9713   19.2460 N   0  3  0  0  0  0  0  0  0  0  0  0
  -33.2917  -16.3040   19.2428 O   0  0  0  0  0  0  0  0  0  0  0  0
  -25.8898  -30.7740   23.1373 O   0  0  0  0  0  0  0  0  0  0  0  0
  -21.4525  -30.5095   22.6961 O   0  0  0  0  0  0  0  0  0  0  0  0
  -22.9462  -18.4621   21.7493 O   0  0  0  0  0  0  0  0  0  0  0  0
  -21.8172  -26.0207   21.1999 O   0  0  0  0  0  0  0  0  0  0  0  0
  -28.5410  -18.9563   27.4551 O   0  0  0  0  0  0  0  0  0  0  0  0
  -27.6760  -11.0322   18.1214 O   0  0  0  0  0  0  0  0  0  0  0  0
  -28.4222  -26.7228   19.6806 O   0  0  0  0  0  0  0  0  0  1  0  0
  -26.5111  -12.2236   12.8652 F   0  0  0  0  0  0  0  0  0  0  0  0
  -25.0596  -11.1172   17.2326 F   0  0  0  0  0  0  0  0  0  0  0  0
  1  2  1  0  0  0  0
  1  5  2  0  0  0  0
  2  6  2  0  0  0  0
  3  8  2  0  0  0  0
  3 16  1  0  0  0  0
  4  9  1  0  0  0  0
  4 16  2  0  0  0  0
  5 18  1  0  0  0  0
  6 20  1  0  0  0  0
  7 10  2  0  0  0  0
  7 19  1  0  0  0  0
  8 22  1  0  0  0  0
  9 22  2  0  0  0  0
 10 23  1  0  0  0  0
 11 12  2  0  0  0  0
 11 24  1  0  0  0  0
 12 25  1  0  0  0  0
 13 21  1  0  0  0  0
 13 23  2  0  0  0  0
 14 25  2  0  0  0  0
 14 26  1  0  0  0  0
 15 28  2  0  0  0  0
 15 29  1  0  0  0  0
 16 27  1  0  0  0  0
 17 27  1  0  0  0  0
 17 30  2  0  0  0  0
 17 32  1  0  0  0  0
 18 20  2  0  0  0  0
 18 38  1  0  0  0  0
 19 21  2  0  0  0  0
 19 39  1  0  0  0  0
 20 47  1  0  0  0  0
 21 40  1  0  0  0  0
 22 96  1  0  0  0  0
 23 97  1  0  0  0  0
 24 26  2  0  0  0  0
 24 96  1  0  0  0  0
 25 98  1  0  0  0  0
 26 99  1  0  0  0  0
 27 74  2  0  0  0  0
 28 50  1  0  0  0  0
 28 75  1  0  0  0  0
 29 76  2  0  0  0  0
 29 87  1  0  0  0  0
 30 77  1  0  0  0  0
 30 80  1  0  0  0  0
 31 75  2  0  0  0  0
 31 76  1  0  0  0  0
 31 82  1  0  0  0  0
 32 81  1  0  0  0  0
 32 90  2  0  0  0  0
 33 48  1  0  0  0  0
 33 83  1  0  0  0  0
 33 91  2  0  0  0  0
 34 70  1  0  0  0  0
 34 78  1  0  0  0  0
 34 92  2  0  0  0  0
 35 71  1  0  0  0  0
 35 84  1  0  0  0  0
 35 93  2  0  0  0  0
 36 72  1  0  0  0  0
 36 85  1  0  0  0  0
 36 94  2  0  0  0  0
 37 79  1  0  0  0  0
 37 86  1  0  0  0  0
 37 95  2  0  0  0  0
 38 41  1  0  0  0  0
 39 48  1  0  0  0  0
 40 78  1  0  0  0  0
 41 43  1  0  0  0  0
 42 44  1  0  0  0  0
 42 45  1  0  0  0  0
 43 47  1  0  0  0  0
 44 49  1  0  0  0  0
 45 79  1  0  0  0  0
 46 49  1  0  0  0  0
 46 79  1  0  0  0  0
 47 83  1  0  0  0  0
 48 78  1  0  0  0  0
 49 77  1  0  0  0  0
 51 72  1  0  0  0  0
 52 73  1  0  0  0  0
 53 73  1  0  0  0  0
 54 73  1  0  0  0  0
 55 87  1  0  0  0  0
 56 89  1  0  0  0  0
 57 58  1  0  0  0  0
 57 60  1  0  0  0  0
 58 61  1  0  0  0  0
 59 62  1  0  0  0  0
 59 63  1  0  0  0  0
 60 65  1  0  0  0  0
 61 66  1  0  0  0  0
 62 67  1  0  0  0  0
 63 71  1  0  0  0  0
 64 68  1  0  0  0  0
 64 69  1  0  0  0  0
 65 82  1  0  0  0  0
 66 84  1  0  0  0  0
 67 86  1  0  0  0  0
 68 87  1  0  0  0  0
 69 97  1  0  0  0  0
 70 73  1  0  0  0  0
 70 85  1  0  0  0  0
 71 88  1  0  0  0  0
 72 89  1  0  0  0  0
 74 77  1  0  0  0  0
M  CHG  2  88   1  89   1
M  ISO  4  37 100  69 101  86 100  97 101
M  END
> <Batch ID>
0006

> <Smiles>
CNC(C)C(=O)NC(C(=O)N1Cc2cc([101O:1][101CH2:1]CCN(C)c3cc(C)nc(NCCCCCCNC(=O)C(N)CCCC[100NH:0][100C:0](=O)N4CCCC(n5nc(-c6ccc(Oc7ccc(F)cc7F)cc6)c(C(N)=O)c5N)C4)n3)ccc2CC1C(=O)NC1CCCc2ccccc21)C(C)(C)C

> <Shape>
0.290

> <Color>
0.061

> <Negative vol penalty>
0.000

$$$$

  -OEChem-04052315303D

 86 94  0     1  0  0  0  0  0999 V2000
  -28.4710  -37.4049   23.6811 C   0  0  0  0  0  0  0  0  0  0  0  0
  -28.6789  -36.0294   23.6933 C   0  0  0  0  0  0  0  0  0  0  0  0
  -24.5565   -9.4251   20.9759 C   0  0  0  0  0  0  0  0  0  0  0  0
  -24.9740  -10.2735   23.1992 C   0  0  0  0  0  0  0  0  0  0  0  0
  -27.1761  -37.9138   23.7715 C   0  0  0  0  0  0  0  0  0  0  0  0
  -27.5921  -35.1619   23.7970 C   0  0  0  0  0  0  0  0  0  0  0  0
  -27.0118  -29.6576   21.1757 C   0  0  0  0  0  0  0  0  0  0  0  0
  -24.3056   -8.1595   21.5059 C   0  0  0  0  0  0  0  0  0  0  0  0
  -24.7231   -9.0079   23.7292 C   0  0  0  0  0  0  0  0  0  0  0  0
  -27.2087  -28.3640   21.6570 C   0  0  0  0  0  0  0  0  0  0  0  0
  -23.2025   -4.7897   22.3075 C   0  0  0  0  0  0  0  0  0  0  0  0
  -22.0902   -4.0959   21.8311 C   0  0  0  0  0  0  0  0  0  0  0  0
  -29.4186  -20.0045   20.7161 C   0  0  0  0  0  0  0  0  0  0  0  0
  -24.8496  -28.1867   22.1284 C   0  0  0  0  0  0  0  0  0  0  0  0
  -27.1676  -21.1945   21.8561 C   0  0  0  0  0  0  0  0  0  0  0  0
  -20.6503   -5.8789   22.5959 C   0  0  0  0  0  0  0  0  0  0  0  0
  -24.8907  -10.4821   21.8225 C   0  0  0  0  0  0  0  0  0  0  0  0
  -29.3484  -21.3924   20.8354 C   0  0  0  0  0  0  0  0  0  0  0  0
  -24.2171  -12.8207   21.0576 C   0  0  0  0  0  0  0  0  0  0  0  0
  -26.0721  -37.0520   23.8666 C   0  0  0  0  0  0  0  0  0  0  0  0
  -25.7318  -30.2304   21.1772 C   0  0  0  0  0  0  0  0  0  0  0  0
  -26.2813  -35.6598   23.8901 C   0  0  0  0  0  0  0  0  0  0  0  0
  -24.6386  -29.4868   21.6442 C   0  0  0  0  0  0  0  0  0  0  0  0
  -28.3632  -19.2115   21.1667 C   0  0  0  0  0  0  0  0  0  0  0  0
  -28.2229  -21.9874   21.4054 C   0  0  0  0  0  0  0  0  0  0  0  0
  -24.3889   -7.9509   22.8825 C   0  0  0  0  0  0  0  0  0  0  0  0
  -26.1280  -27.6294   22.1361 C   0  0  0  0  0  0  0  0  0  0  0  0
  -23.0387   -6.0281   22.9283 C   0  0  0  0  0  0  0  0  0  0  0  0
  -27.2377  -19.8065   21.7367 C   0  0  0  0  0  0  0  0  0  0  0  0
  -20.8141   -4.6405   21.9752 C   0  0  0  0  0  0  0  0  0  0  0  0
  -21.7626   -6.5727   23.0724 C   0  0  0  0  0  0  0  0  0  0  0  0
  -25.1505  -11.7896   21.2755 C   0  0  0  0  0  0  0  0  0  0  0  0
  -24.9583  -13.8482   20.5272 C   0  0  0  0  0  0  0  0  0  0  0  0
  -30.4671  -22.1927   20.3530 C   0  0  0  0  0  0  0  0  0  0  0  0
  -22.8063  -12.8473   21.3119 C   0  0  0  0  0  0  0  0  0  0  0  0
  -24.4076  -32.7588   22.5763 C   0  0  0  0  0  0  0  0  0  0  0  0
  -21.8591  -31.9530   20.7382 C   0  0  0  0  0  0  0  0  0  0  0  0
  -27.0815  -24.1260   22.0819 C   0  0  0  0  0  0  0  0  0  0  0  0
  -20.1816  -29.5340   19.0117 C   0  0  0  0  0  0  0  0  0  0  0  0
  -29.5021  -17.0663   20.4977 C   0  0  0  0  0  0  0  0  0  0  0  0
  -24.6948  -37.6497   24.0096 C   0  0  0  0  0  0  0  0  0  0  0  0
  -25.5318  -31.6171   20.6299 C   0  0  0  0  0  0  0  0  0  0  0  0
  -23.2412  -30.0486   21.6485 C   0  0  0  0  0  0  0  0  0  0  0  0
  -23.5683  -36.6556   23.7392 C   0  0  0  0  0  0  0  0  0  0  0  0
  -29.7228  -13.9335   18.8203 C   0  0  0  0  0  0  0  0  0  0  0  0
  -23.8297  -35.3413   24.4680 C   0  0  0  0  0  0  0  0  0  0  0  0
  -28.4762  -13.1813   19.2916 C   0  0  0  0  0  0  0  0  0  0  0  0
  -30.3233  -14.7898   19.9337 C   0  0  0  0  0  0  0  0  0  0  0  0
  -28.1363  -14.9593   21.0551 C   0  0  0  0  0  0  0  0  0  0  0  0
  -25.1260  -34.6862   23.9763 C   0  0  1  0  0  0  0  0  0  0  0  0
  -24.2678  -32.2904   21.1555 C   0  0  1  0  0  0  0  0  0  0  0  0
  -27.4584  -14.1336   19.9495 C   0  0  2  0  0  0  0  0  0  0  0  0
  -18.1096  -29.1679   17.6441 C   0  0  0  0  0  0  0  0  0  0  0  0
  -20.1805  -31.9514   23.2862 C   0  0  0  0  0  0  0  0  0  0  0  0
  -18.4162  -30.6857   22.0400 C   0  0  0  0  0  0  0  0  0  0  0  0
  -19.0609  -32.9790   21.3000 C   0  0  0  0  0  0  0  0  0  0  0  0
  -21.7530  -28.7638   16.6249 C   0  0  0  0  0  0  0  0  0  0  0  0
  -25.1577  -18.7624   21.2477 C   0  0  0  0  0  0  0  0  0  0  0  0
  -27.3834  -25.6122   22.0318 C   0  0  0  0  0  0  0  0  0  1  0  0
  -20.6567  -31.0569   20.9115 C   0  0  1  0  0  0  0  0  0  0  0  0
  -19.5884  -29.5216   17.6144 C   0  0  2  0  0  0  0  0  0  0  0  0
  -19.6051  -31.6581   21.8863 C   0  0  0  0  0  0  0  0  0  0  0  0
  -26.3899  -12.1309   20.9131 N   0  0  0  0  0  0  0  0  0  0  0  0
  -26.2405  -13.3879   20.4619 N   0  0  0  0  0  0  0  0  0  0  0  0
  -23.0979  -31.4109   21.1090 N   0  0  0  0  0  0  0  0  0  0  0  0
  -29.3024  -15.6696   20.5070 N   0  0  0  0  0  0  0  0  0  0  0  0
  -24.6318  -15.0915   20.1149 N   0  0  0  0  0  0  0  0  0  0  0  0
  -30.4335  -22.6153   19.0289 N   0  0  0  0  0  0  0  0  0  0  0  0
  -22.2045  -11.7061   21.8595 N   0  0  0  0  0  0  0  0  0  0  0  0
  -28.1307  -23.3933   21.5375 N   0  0  0  0  0  0  0  0  0  0  0  0
  -28.4495  -17.8029   21.0401 N   0  0  0  0  0  0  0  0  0  0  0  0
  -24.9125  -34.0392   22.6994 N   0  0  0  0  0  0  0  0  0  0  0  0
  -20.1466  -30.7942   19.5702 N   0  0  0  0  0  0  0  0  0  0  0  0
  -20.2933  -28.5235   16.7612 N   0  3  0  0  0  0  0  0  0  0  0  0
  -31.4249  -22.4738   21.0918 O   0  0  0  0  0  0  0  0  0  0  0  0
  -22.0975  -13.8474   21.0456 O   0  0  0  0  0  0  0  0  0  0  0  0
  -24.0801  -32.0143   23.4929 O   0  0  0  0  0  0  0  0  0  0  0  0
  -21.7059  -33.0894   20.2837 O   0  0  0  0  0  0  0  0  0  0  0  0
  -26.0326  -23.6989   22.5530 O   0  0  0  0  0  0  0  0  0  0  0  0
  -20.6276  -28.5258   19.5549 O   0  0  0  0  0  0  0  0  0  0  0  0
  -30.5190  -17.5733   20.0173 O   0  0  0  0  0  0  0  0  0  0  0  0
  -24.1440   -6.7161   23.4001 O   0  0  0  0  0  0  0  0  0  0  0  0
  -26.1953  -19.0497   22.1825 O   0  0  0  0  0  0  0  0  0  0  0  0
  -26.3175  -26.3668   22.6071 O   0  0  0  0  0  0  0  0  0  1  0  0
  -19.7463   -3.9748   21.5162 F   0  0  0  0  0  0  0  0  0  0  0  0
  -21.5991   -7.7626   23.6668 F   0  0  0  0  0  0  0  0  0  0  0  0
  1  2  1  0  0  0  0
  1  5  2  0  0  0  0
  2  6  2  0  0  0  0
  3  8  2  0  0  0  0
  3 17  1  0  0  0  0
  4  9  1  0  0  0  0
  4 17  2  0  0  0  0
  5 20  1  0  0  0  0
  6 22  1  0  0  0  0
  7 10  2  0  0  0  0
  7 21  1  0  0  0  0
  8 26  1  0  0  0  0
  9 26  2  0  0  0  0
 10 27  1  0  0  0  0
 11 12  2  0  0  0  0
 11 28  1  0  0  0  0
 12 30  1  0  0  0  0
 13 18  1  0  0  0  0
 13 24  2  0  0  0  0
 14 23  1  0  0  0  0
 14 27  2  0  0  0  0
 15 25  1  0  0  0  0
 15 29  2  0  0  0  0
 16 30  2  0  0  0  0
 16 31  1  0  0  0  0
 17 32  1  0  0  0  0
 18 25  2  0  0  0  0
 18 34  1  0  0  0  0
 19 32  1  0  0  0  0
 19 33  2  0  0  0  0
 19 35  1  0  0  0  0
 20 22  2  0  0  0  0
 20 41  1  0  0  0  0
 21 23  2  0  0  0  0
 21 42  1  0  0  0  0
 22 50  1  0  0  0  0
 23 43  1  0  0  0  0
 24 29  1  0  0  0  0
 24 71  1  0  0  0  0
 25 70  1  0  0  0  0
 26 82  1  0  0  0  0
 27 84  1  0  0  0  0
 28 31  2  0  0  0  0
 28 82  1  0  0  0  0
 29 83  1  0  0  0  0
 30 85  1  0  0  0  0
 31 86  1  0  0  0  0
 32 63  2  0  0  0  0
 33 64  1  0  0  0  0
 33 67  1  0  0  0  0
 34 68  1  0  0  0  0
 34 75  2  0  0  0  0
 35 69  1  0  0  0  0
 35 76  2  0  0  0  0
 36 51  1  0  0  0  0
 36 72  1  0  0  0  0
 36 77  2  0  0  0  0
 37 60  1  0  0  0  0
 37 65  1  0  0  0  0
 37 78  2  0  0  0  0
 38 59  1  0  0  0  0
 38 70  1  0  0  0  0
 38 79  2  0  0  0  0
 39 61  1  0  0  0  0
 39 73  1  0  0  0  0
 39 80  2  0  0  0  0
 40 66  1  0  0  0  0
 40 71  1  0  0  0  0
 40 81  2  0  0  0  0
 41 44  1  0  0  0  0
 42 51  1  0  0  0  0
 43 65  1  0  0  0  0
 44 46  1  0  0  0  0
 45 47  1  0  0  0  0
 45 48  1  0  0  0  0
 46 50  1  0  0  0  0
 47 52  1  0  0  0  0
 48 66  1  0  0  0  0
 49 52  1  0  0  0  0
 49 66  1  0  0  0  0
 50 72  1  0  0  0  0
 51 65  1  0  0  0  0
 52 64  1  0  0  0  0
 53 61  1  0  0  0  0
 54 62  1  0  0  0  0
 55 62  1  0  0  0  0
 56 62  1  0  0  0  0
 57 74  1  0  0  0  0
 58 83  1  0  0  0  0
 59 84  1  0  0  0  0
 60 62  1  0  0  0  0
 60 73  1  0  0  0  0
 61 74  1  0  0  0  0
 63 64  1  0  0  0  0
M  CHG  1  74   1
M  ISO  4  40 100  59 101  71 100  84 101
M  END
> <Batch ID>
0006

> <Smiles>
CNC(C)C(=O)NC(C(=O)N1Cc2cc([101O:1][101CH2:1]C(=O)Nc3cc(OC)c([100NH:0][100C:0](=O)N4CCCC(n5nc(-c6ccc(Oc7ccc(F)cc7F)cc6)c(C(N)=O)c5N)C4)cc3C(N)=O)ccc2CC1C(=O)NC1CCCc2ccccc21)C(C)(C)C

> <Shape>
0.305

> <Color>
0.111

> <Negative vol penalty>
0.000

$$$$

  -OEChem-04052315303D

 97105  0     1  0  0  0  0  0999 V2000
  -25.2718  -37.9476   22.1061 C   0  0  0  0  0  0  0  0  0  0  0  0
  -26.0166  -37.0482   21.3500 C   0  0  0  0  0  0  0  0  0  0  0  0
  -22.9669  -13.2606   25.1464 C   0  0  0  0  0  0  0  0  0  0  0  0
  -28.7670  -12.9378   20.8427 C   0  0  0  0  0  0  0  0  0  0  0  0
  -28.1064  -12.4937   18.5616 C   0  0  0  0  0  0  0  0  0  0  0  0
  -24.2038  -13.7295   25.5890 C   0  0  0  0  0  0  0  0  0  0  0  0
  -24.6120  -37.5122   23.2546 C   0  0  0  0  0  0  0  0  0  0  0  0
  -26.1028  -35.7129   21.7425 C   0  0  0  0  0  0  0  0  0  0  0  0
  -26.6599  -29.1150   19.0087 C   0  0  0  0  0  0  0  0  0  0  0  0
  -22.7687  -11.8938   24.9505 C   0  0  0  0  0  0  0  0  0  0  0  0
  -30.1038  -12.7495   20.4923 C   0  0  0  0  0  0  0  0  0  0  0  0
  -29.4434  -12.3054   18.2111 C   0  0  0  0  0  0  0  0  0  0  0  0
  -27.4425  -27.9664   19.1180 C   0  0  0  0  0  0  0  0  0  0  0  0
  -33.7201  -12.7405   20.1208 C   0  0  0  0  0  0  0  0  0  0  0  0
  -34.6516  -13.6628   20.5975 C   0  0  0  0  0  0  0  0  0  0  0  0
  -25.0442  -11.4650   25.6395 C   0  0  0  0  0  0  0  0  0  0  0  0
  -26.1959  -27.3106   21.0763 C   0  0  0  0  0  0  0  0  0  0  0  0
  -33.4849  -15.4369   19.4450 C   0  0  0  0  0  0  0  0  0  0  0  0
  -27.7682  -12.8099   19.8774 C   0  0  0  0  0  0  0  0  0  0  0  0
  -25.2425  -12.8317   25.8355 C   0  0  0  0  0  0  0  0  0  0  0  0
  -25.6629  -14.2107   20.2133 C   0  0  0  0  0  0  0  0  0  0  0  0
  -24.6822  -36.1689   23.6561 C   0  0  0  0  0  0  0  0  0  0  0  0
  -25.6448  -29.3759   19.9403 C   0  0  0  0  0  0  0  0  0  0  0  0
  -25.4444  -35.2594   22.8982 C   0  0  0  0  0  0  0  0  0  0  0  0
  -25.4001  -28.4619   20.9751 C   0  0  0  0  0  0  0  0  0  0  0  0
  -23.8073  -10.9960   25.1970 C   0  0  0  0  0  0  0  0  0  0  0  0
  -30.4421  -12.4333   19.1765 C   0  0  0  0  0  0  0  0  0  0  0  0
  -27.2125  -27.0654   20.1536 C   0  0  0  0  0  0  0  0  0  0  0  0
  -32.6710  -13.1664   19.3060 C   0  0  0  0  0  0  0  0  0  0  0  0
  -34.5340  -15.0110   20.2596 C   0  0  0  0  0  0  0  0  0  0  0  0
  -32.5534  -14.5146   18.9682 C   0  0  0  0  0  0  0  0  0  0  0  0
  -26.3870  -13.0037   20.2389 C   0  0  0  0  0  0  0  0  0  0  0  0
  -24.4051  -13.8658   20.6438 C   0  0  0  0  0  0  0  0  0  0  0  0
  -26.5593  -13.3326   26.3068 C   0  0  0  0  0  0  0  0  0  0  0  0
  -26.0892  -15.5261   19.8343 C   0  0  0  0  0  0  0  0  0  0  0  0
  -25.0796  -31.6804   22.0555 C   0  0  0  0  0  0  0  0  0  0  0  0
  -22.2713  -30.1030   22.4401 C   0  0  0  0  0  0  0  0  0  0  0  0
  -27.8392  -21.1979   20.9615 C   0  0  0  0  0  0  0  0  0  0  0  0
  -20.5311  -27.1791   22.1774 C   0  0  0  0  0  0  0  0  0  0  0  0
  -22.7109   -9.0609   24.0375 C   0  0  0  0  0  0  0  0  0  0  0  0
  -23.9907  -35.7552   24.9309 C   0  0  0  0  0  0  0  0  0  0  0  0
  -24.7918  -30.6060   19.7930 C   0  0  0  0  0  0  0  0  0  0  0  0
  -24.3092  -28.6856   21.9893 C   0  0  0  0  0  0  0  0  0  0  0  0
  -23.8256  -34.2441   25.0715 C   0  0  0  0  0  0  0  0  0  0  0  0
  -21.3472  -10.1948   20.7898 C   0  0  0  0  0  0  0  0  0  0  0  0
  -25.1300  -33.5306   24.7306 C   0  0  0  0  0  0  0  0  0  0  0  0
  -22.4652  -11.0804   20.2430 C   0  0  0  0  0  0  0  0  0  0  0  0
  -21.8879   -9.1003   21.7048 C   0  0  0  0  0  0  0  0  0  0  0  0
  -23.8426  -10.5099   22.2823 C   0  0  0  0  0  0  0  0  0  0  0  0
  -25.5416  -33.7977   23.2778 C   0  0  1  0  0  0  0  0  0  0  0  0
  -24.1229  -31.0291   21.0972 C   0  0  1  0  0  0  0  0  0  0  0  0
  -23.3197  -11.6453   21.3897 C   0  0  1  0  0  0  0  0  0  0  0  0
  -18.2641  -26.1908   22.6033 C   0  0  0  0  0  0  0  0  0  0  0  0
  -23.1333   -8.4335   27.1109 C   0  0  0  0  0  0  0  0  0  0  0  0
  -24.5479   -7.3487   25.3373 C   0  0  0  0  0  0  0  0  0  0  0  0
  -22.8735  -30.0162   25.4300 C   0  0  0  0  0  0  0  0  0  0  0  0
  -21.1209  -28.2432   25.6607 C   0  0  0  0  0  0  0  0  0  0  0  0
  -20.4912  -30.5202   24.8599 C   0  0  0  0  0  0  0  0  0  0  0  0
  -27.3195  -20.9645   18.4865 C   0  0  0  0  0  0  0  0  0  0  0  0
  -20.1557  -26.5145   19.3180 C   0  0  0  0  0  0  0  0  0  0  0  0
  -27.9740  -19.6803   21.0233 C   0  0  0  0  0  0  0  0  0  0  0  0
  -28.3147  -19.1434   22.4157 C   0  0  0  0  0  0  0  0  0  0  0  0
  -28.4396  -17.6166   22.4391 C   0  0  0  0  0  0  0  0  0  0  0  0
  -28.7535  -17.1079   23.8485 C   0  0  0  0  0  0  0  0  0  0  0  0
  -28.9150  -15.5862   23.8648 C   0  0  0  0  0  0  0  0  0  0  0  0
  -29.2239  -15.0206   25.2559 C   0  0  0  0  0  0  0  0  0  0  0  0
  -28.6636  -23.8857   19.2302 C   0  0  0  0  0  0  0  0  0  0  0  0
  -28.1340  -15.2500   26.2989 C   0  0  0  0  0  0  0  0  0  0  0  0
  -27.3582  -23.1785   19.5687 C   0  0  0  0  0  0  0  0  0  0  0  0
  -28.4949  -25.3902   19.0560 C   0  0  0  0  0  0  0  0  0  1  0  0
  -21.7876  -28.9822   23.3282 C   0  0  1  0  0  0  0  0  0  0  0  0
  -19.1686  -26.8675   21.5850 C   0  0  2  0  0  0  0  0  0  0  0  0
  -24.1426   -8.6626   25.9928 C   0  0  0  0  0  0  0  0  0  0  0  0
  -21.5902  -29.4369   24.8019 C   0  0  0  0  0  0  0  0  0  0  0  0
  -25.6505  -11.9693   20.6530 N   0  0  0  0  0  0  0  0  0  0  0  0
  -24.4505  -12.5254   20.8917 N   0  0  0  0  0  0  0  0  0  0  0  0
  -23.5064  -29.9061   21.8064 N   0  0  0  0  0  0  0  0  0  0  0  0
  -22.7480   -9.6469   22.7556 N   0  0  0  0  0  0  0  0  0  0  0  0
  -23.2757  -14.5813   20.8308 N   0  0  0  0  0  0  0  0  0  0  0  0
  -27.4151  -15.7043   19.4164 N   0  0  0  0  0  0  0  0  0  0  0  0
  -26.8868  -14.6331   25.9402 N   0  0  0  0  0  0  0  0  0  0  0  0
  -24.7567  -32.9860   22.3727 N   0  0  0  0  0  0  0  0  0  0  0  0
  -20.5817  -28.4544   22.6991 N   0  0  0  0  0  0  0  0  0  0  0  0
  -23.6020   -9.5826   24.9946 N   0  0  0  0  0  0  0  0  0  0  0  0
  -27.5281  -21.7375   19.7085 N   0  0  0  0  0  0  0  0  0  0  0  0
  -19.3097  -25.9642   20.4081 N   0  3  0  0  0  0  0  0  0  0  0  0
  -27.2847  -12.5887   26.9617 O   0  0  0  0  0  0  0  0  0  0  0  0
  -25.3217  -16.5173   19.8808 O   0  0  0  0  0  0  0  0  0  0  0  0
  -26.0388  -31.0449   22.4771 O   0  0  0  0  0  0  0  0  0  0  0  0
  -21.5755  -31.1129   22.3076 O   0  0  0  0  0  0  0  0  0  0  0  0
  -28.0081  -21.8853   21.9719 O   0  0  0  0  0  0  0  0  0  0  0  0
  -21.4567  -26.3705   22.1805 O   0  0  0  0  0  0  0  0  0  0  0  0
  -21.9743   -8.1014   24.2973 O   0  0  0  0  0  0  0  0  0  0  0  0
  -31.7465  -12.2497   18.8342 O   0  0  0  0  0  0  0  0  0  0  0  0
  -27.9808  -25.9359   20.2638 O   0  0  0  0  0  0  0  0  0  1  0  0
  -35.4277  -15.8968   20.7188 F   0  0  0  0  0  0  0  0  0  0  0  0
  -31.5470  -14.9299   18.1868 F   0  0  0  0  0  0  0  0  0  0  0  0
  1  2  1  0  0  0  0
  1  7  2  0  0  0  0
  2  8  2  0  0  0  0
  3  6  2  0  0  0  0
  3 10  1  0  0  0  0
  4 11  2  0  0  0  0
  4 19  1  0  0  0  0
  5 12  1  0  0  0  0
  5 19  2  0  0  0  0
  6 20  1  0  0  0  0
  7 22  1  0  0  0  0
  8 24  1  0  0  0  0
  9 13  2  0  0  0  0
  9 23  1  0  0  0  0
 10 26  2  0  0  0  0
 11 27  1  0  0  0  0
 12 27  2  0  0  0  0
 13 28  1  0  0  0  0
 14 15  2  0  0  0  0
 14 29  1  0  0  0  0
 15 30  1  0  0  0  0
 16 20  2  0  0  0  0
 16 26  1  0  0  0  0
 17 25  1  0  0  0  0
 17 28  2  0  0  0  0
 18 30  2  0  0  0  0
 18 31  1  0  0  0  0
 19 32  1  0  0  0  0
 20 34  1  0  0  0  0
 21 32  1  0  0  0  0
 21 33  2  0  0  0  0
 21 35  1  0  0  0  0
 22 24  2  0  0  0  0
 22 41  1  0  0  0  0
 23 25  2  0  0  0  0
 23 42  1  0  0  0  0
 24 50  1  0  0  0  0
 25 43  1  0  0  0  0
 26 84  1  0  0  0  0
 27 94  1  0  0  0  0
 28 95  1  0  0  0  0
 29 31  2  0  0  0  0
 29 94  1  0  0  0  0
 30 96  1  0  0  0  0
 31 97  1  0  0  0  0
 32 75  2  0  0  0  0
 33 76  1  0  0  0  0
 33 79  1  0  0  0  0
 34 81  1  0  0  0  0
 34 87  2  0  0  0  0
 35 80  1  0  0  0  0
 35 88  2  0  0  0  0
 36 51  1  0  0  0  0
 36 82  1  0  0  0  0
 36 89  2  0  0  0  0
 37 71  1  0  0  0  0
 37 77  1  0  0  0  0
 37 90  2  0  0  0  0
 38 61  1  0  0  0  0
 38 85  1  0  0  0  0
 38 91  2  0  0  0  0
 39 72  1  0  0  0  0
 39 83  1  0  0  0  0
 39 92  2  0  0  0  0
 40 78  1  0  0  0  0
 40 84  1  0  0  0  0
 40 93  2  0  0  0  0
 41 44  1  0  0  0  0
 42 51  1  0  0  0  0
 43 77  1  0  0  0  0
 44 46  1  0  0  0  0
 45 47  1  0  0  0  0
 45 48  1  0  0  0  0
 46 50  1  0  0  0  0
 47 52  1  0  0  0  0
 48 78  1  0  0  0  0
 49 52  1  0  0  0  0
 49 78  1  0  0  0  0
 50 82  1  0  0  0  0
 51 77  1  0  0  0  0
 52 76  1  0  0  0  0
 53 72  1  0  0  0  0
 54 73  1  0  0  0  0
 55 73  1  0  0  0  0
 56 74  1  0  0  0  0
 57 74  1  0  0  0  0
 58 74  1  0  0  0  0
 59 85  1  0  0  0  0
 60 86  1  0  0  0  0
 61 62  1  0  0  0  0
 62 63  1  0  0  0  0
 63 64  1  0  0  0  0
 64 65  1  0  0  0  0
 65 66  1  0  0  0  0
 66 68  1  0  0  0  0
 67 69  1  0  0  0  0
 67 70  1  0  0  0  0
 68 81  1  0  0  0  0
 69 85  1  0  0  0  0
 70 95  1  0  0  0  0
 71 74  1  0  0  0  0
 71 83  1  0  0  0  0
 72 86  1  0  0  0  0
 73 84  1  0  0  0  0
 75 76  1  0  0  0  0
M  CHG  1  86   1
M  ISO  4  40 100  70 101  84 100  95 101
M  END
> <Batch ID>
0006

> <Smiles>
CNC(C)C(=O)NC(C(=O)N1Cc2cc([101O:1][101CH2:1]CCN(C)C(=O)CCCCCCCNC(=O)c3cccc([100N:0](C(C)C)[100C:0](=O)N4CCCC(n5nc(-c6ccc(Oc7ccc(F)cc7F)cc6)c(C(N)=O)c5N)C4)c3)ccc2CC1C(=O)NC1CCCc2ccccc21)C(C)(C)C

> <Shape>
0.324

> <Color>
0.106

> <Negative vol penalty>
0.000

$$$$

  -OEChem-04052315303D

 83 91  0     1  0  0  0  0  0999 V2000
  -30.1304  -21.4765   15.5322 C   0  0  0  0  0  0  0  0  0  0  0  0
  -29.1553  -21.5572   16.5199 C   0  0  0  0  0  0  0  0  0  0  0  0
  -26.6122  -21.8779   28.1644 C   0  0  0  0  0  0  0  0  0  0  0  0
  -27.9608  -21.7842   27.8206 C   0  0  0  0  0  0  0  0  0  0  0  0
  -26.3853  -13.4511   19.3720 C   0  0  0  0  0  0  0  0  0  0  0  0
  -25.0236  -13.7584   21.3439 C   0  0  0  0  0  0  0  0  0  0  0  0
  -30.9511  -22.5731   15.2772 C   0  0  0  0  0  0  0  0  0  0  0  0
  -28.9926  -22.7384   17.2447 C   0  0  0  0  0  0  0  0  0  0  0  0
  -25.1518  -22.9685   20.3104 C   0  0  0  0  0  0  0  0  0  0  0  0
  -25.6376  -21.3574   27.3130 C   0  0  0  0  0  0  0  0  0  0  0  0
  -28.3347  -21.1701   26.6253 C   0  0  0  0  0  0  0  0  0  0  0  0
  -26.2937  -12.0677   19.5243 C   0  0  0  0  0  0  0  0  0  0  0  0
  -24.9319  -12.3749   21.4961 C   0  0  0  0  0  0  0  0  0  0  0  0
  -25.0971  -22.2520   21.5051 C   0  0  0  0  0  0  0  0  0  0  0  0
  -23.1735   -9.8317   20.1320 C   0  0  0  0  0  0  0  0  0  0  0  0
  -21.9187   -9.2946   20.4191 C   0  0  0  0  0  0  0  0  0  0  0  0
  -25.5992  -24.2683   22.7305 C   0  0  0  0  0  0  0  0  0  0  0  0
  -22.7808   -8.3843   22.4844 C   0  0  0  0  0  0  0  0  0  0  0  0
  -25.7503  -14.2965   20.2818 C   0  0  0  0  0  0  0  0  0  0  0  0
  -24.9773  -16.5605   19.3962 C   0  0  0  0  0  0  0  0  0  0  0  0
  -30.8061  -23.7637   16.0082 C   0  0  0  0  0  0  0  0  0  0  0  0
  -25.4419  -24.3405   20.3160 C   0  0  0  0  0  0  0  0  0  0  0  0
  -29.7953  -23.8641   16.9857 C   0  0  0  0  0  0  0  0  0  0  0  0
  -25.6545  -25.0005   21.5347 C   0  0  0  0  0  0  0  0  0  0  0  0
  -26.0115  -20.7433   26.1177 C   0  0  0  0  0  0  0  0  0  0  0  0
  -27.3601  -20.6496   25.7739 C   0  0  0  0  0  0  0  0  0  0  0  0
  -25.5670  -11.5295   20.5863 C   0  0  0  0  0  0  0  0  0  0  0  0
  -25.3237  -22.9012   22.7152 C   0  0  0  0  0  0  0  0  0  0  0  0
  -24.2321   -9.6451   21.0211 C   0  0  0  0  0  0  0  0  0  0  0  0
  -21.7223   -8.5709   21.5953 C   0  0  0  0  0  0  0  0  0  0  0  0
  -24.0357   -8.9214   22.1972 C   0  0  0  0  0  0  0  0  0  0  0  0
  -25.8451  -15.7257   20.1254 C   0  0  0  0  0  0  0  0  0  0  0  0
  -25.4964  -17.8216   19.5592 C   0  0  0  0  0  0  0  0  0  0  0  0
  -23.8065  -16.2259   18.6393 C   0  0  0  0  0  0  0  0  0  0  0  0
  -27.7646  -26.1469   19.1136 C   0  0  0  0  0  0  0  0  0  0  0  0
  -25.9056  -28.5747   20.1965 C   0  0  0  0  0  0  0  0  0  0  0  0
  -23.4914  -29.6295   22.3657 C   0  0  0  0  0  0  0  0  0  0  0  0
  -28.8861  -20.3246   23.7960 C   0  0  0  0  0  0  0  0  0  0  0  0
  -31.7162  -24.9225   15.6855 C   0  0  0  0  0  0  0  0  0  0  0  0
  -25.4710  -25.1045   19.0207 C   0  0  0  0  0  0  0  0  0  0  0  0
  -25.9497  -26.4761   21.5964 C   0  0  0  0  0  0  0  0  0  0  0  0
  -31.7658  -25.9667   16.7961 C   0  0  0  0  0  0  0  0  0  0  0  0
  -29.6414  -20.0950   20.3241 C   0  0  0  0  0  0  0  0  0  0  0  0
  -30.3538  -26.3411   17.2210 C   0  0  0  0  0  0  0  0  0  0  0  0
  -28.6705  -19.0288   19.8116 C   0  0  0  0  0  0  0  0  0  0  0  0
  -30.1488  -19.7719   21.7284 C   0  0  0  0  0  0  0  0  0  0  0  0
  -28.1292  -18.4461   22.2105 C   0  0  0  0  0  0  0  0  0  0  0  0
  -29.6203  -25.1283   17.8076 C   0  0  1  0  0  0  0  0  0  0  0  0
  -26.2824  -26.3936   19.1054 C   0  0  1  0  0  0  0  0  0  0  0  0
  -27.5408  -18.7612   20.8255 C   0  0  2  0  0  0  0  0  0  0  0  0
  -22.2064  -31.6772   23.0389 C   0  0  0  0  0  0  0  0  0  0  0  0
  -23.5306  -20.4202   25.8236 C   0  0  0  0  0  0  0  0  0  0  0  0
  -28.3550  -29.6189   21.6866 C   0  0  0  0  0  0  0  0  0  0  0  0
  -26.8250  -31.0531   23.0543 C   0  0  0  0  0  0  0  0  0  0  0  0
  -26.9706  -31.3875   20.5865 C   0  0  0  0  0  0  0  0  0  0  0  0
  -20.9058  -28.3889   21.6346 C   0  0  0  0  0  0  0  0  0  0  0  0
  -24.9670  -17.9402   26.2882 C   0  0  0  0  0  0  0  0  0  0  0  0
  -23.9637  -18.2065   24.0248 C   0  0  0  0  0  0  0  0  0  0  0  0
  -24.9795  -20.8101   23.7943 C   0  0  0  0  0  0  0  0  0  1  0  0
  -25.7955  -29.3406   21.4928 C   0  0  1  0  0  0  0  0  0  0  0  0
  -22.2288  -30.4441   22.1491 C   0  0  2  0  0  0  0  0  0  0  0  0
  -24.9195  -20.1812   25.2029 C   0  0  1  0  0  0  0  0  0  0  0  0
  -26.9829  -30.3218   21.7041 C   0  0  0  0  0  0  0  0  0  0  0  0
  -26.8402  -16.3997   20.7082 N   0  0  0  0  0  0  0  0  0  0  0  0
  -26.6008  -17.6714   20.3452 N   0  0  0  0  0  0  0  0  0  0  0  0
  -25.9736  -27.1783   20.3026 N   0  0  0  0  0  0  0  0  0  0  0  0
  -29.0234  -19.5347   22.6350 N   0  0  0  0  0  0  0  0  0  0  0  0
  -25.1113  -19.0333   19.1054 N   0  0  0  0  0  0  0  0  0  0  0  0
  -23.4131  -14.8822   18.5761 N   0  0  0  0  0  0  0  0  0  0  0  0
  -27.7602  -20.0297   24.5642 N   0  0  0  0  0  0  0  0  0  0  0  0
  -28.2280  -25.4678   18.0030 N   0  0  0  0  0  0  0  0  0  0  0  0
  -24.4854  -29.9823   21.4776 N   0  0  0  0  0  0  0  0  0  0  0  0
  -21.0236  -29.6224   22.4542 N   0  3  0  0  0  0  0  0  0  0  0  0
  -25.0049  -18.6852   24.9893 N   0  3  0  0  0  0  0  0  0  0  0  0
  -23.1385  -17.0907   18.0233 O   0  0  0  0  0  0  0  0  0  0  0  0
  -28.4381  -26.5447   20.0569 O   0  0  0  0  0  0  0  0  0  0  0  0
  -25.9233  -29.1922   19.1288 O   0  0  0  0  0  0  0  0  0  0  0  0
  -23.5876  -28.7692   23.2381 O   0  0  0  0  0  0  0  0  0  0  0  0
  -29.6921  -21.2165   24.0731 O   0  0  0  0  0  0  0  0  0  0  0  0
  -25.4771  -10.1796   20.7350 O   0  0  0  0  0  0  0  0  0  0  0  0
  -25.2715  -22.2041   23.8827 O   0  0  0  0  0  0  0  0  0  1  0  0
  -20.5168   -8.0565   21.8716 F   0  0  0  0  0  0  0  0  0  0  0  0
  -25.0485   -8.7398   23.0558 F   0  0  0  0  0  0  0  0  0  0  0  0
  1  2  1  0  0  0  0
  1  7  2  0  0  0  0
  2  8  2  0  0  0  0
  3  4  1  0  0  0  0
  3 10  2  0  0  0  0
  4 11  2  0  0  0  0
  5 12  2  0  0  0  0
  5 19  1  0  0  0  0
  6 13  1  0  0  0  0
  6 19  2  0  0  0  0
  7 21  1  0  0  0  0
  8 23  1  0  0  0  0
  9 14  2  0  0  0  0
  9 22  1  0  0  0  0
 10 25  1  0  0  0  0
 11 26  1  0  0  0  0
 12 27  1  0  0  0  0
 13 27  2  0  0  0  0
 14 28  1  0  0  0  0
 15 16  2  0  0  0  0
 15 29  1  0  0  0  0
 16 30  1  0  0  0  0
 17 24  1  0  0  0  0
 17 28  2  0  0  0  0
 18 30  2  0  0  0  0
 18 31  1  0  0  0  0
 19 32  1  0  0  0  0
 20 32  1  0  0  0  0
 20 33  2  0  0  0  0
 20 34  1  0  0  0  0
 21 23  2  0  0  0  0
 21 39  1  0  0  0  0
 22 24  2  0  0  0  0
 22 40  1  0  0  0  0
 23 48  1  0  0  0  0
 24 41  1  0  0  0  0
 25 26  2  0  0  0  0
 25 62  1  0  0  0  0
 26 70  1  0  0  0  0
 27 80  1  0  0  0  0
 28 81  1  0  0  0  0
 29 31  2  0  0  0  0
 29 80  1  0  0  0  0
 30 82  1  0  0  0  0
 31 83  1  0  0  0  0
 32 64  2  0  0  0  0
 33 65  1  0  0  0  0
 33 68  1  0  0  0  0
 34 69  1  0  0  0  0
 34 75  2  0  0  0  0
 35 49  1  0  0  0  0
 35 71  1  0  0  0  0
 35 76  2  0  0  0  0
 36 60  1  0  0  0  0
 36 66  1  0  0  0  0
 36 77  2  0  0  0  0
 37 61  1  0  0  0  0
 37 72  1  0  0  0  0
 37 78  2  0  0  0  0
 38 67  1  0  0  0  0
 38 70  1  0  0  0  0
 38 79  2  0  0  0  0
 39 42  1  0  0  0  0
 40 49  1  0  0  0  0
 41 66  1  0  0  0  0
 42 44  1  0  0  0  0
 43 45  1  0  0  0  0
 43 46  1  0  0  0  0
 44 48  1  0  0  0  0
 45 50  1  0  0  0  0
 46 67  1  0  0  0  0
 47 50  1  0  0  0  0
 47 67  1  0  0  0  0
 48 71  1  0  0  0  0
 49 66  1  0  0  0  0
 50 65  1  0  0  0  0
 51 61  1  0  0  0  0
 52 62  1  0  0  0  0
 53 63  1  0  0  0  0
 54 63  1  0  0  0  0
 55 63  1  0  0  0  0
 56 73  1  0  0  0  0
 57 74  1  0  0  0  0
 58 74  1  0  0  0  0
 59 62  1  0  0  0  0
 59 81  1  0  0  0  0
 60 63  1  0  0  0  0
 60 72  1  0  0  0  0
 61 73  1  0  0  0  0
 62 74  1  0  0  0  0
 64 65  1  0  0  0  0
M  CHG  2  73   1  74   1
M  ISO  4  38 100  59 101  70 100  81 101
M  END
> <Batch ID>
0006

> <Smiles>
CNC(C)C(=O)NC(C(=O)N1Cc2cc([101O:1][101CH2:1]C(C)(c3ccccc3[100NH:0][100C:0](=O)N3CCCC(n4nc(-c5ccc(Oc6ccc(F)cc6F)cc5)c(C(N)=O)c4N)C3)N(C)C)ccc2CC1C(=O)NC1CCCc2ccccc21)C(C)(C)C

> <Shape>
0.212

> <Color>
0.088

> <Negative vol penalty>
0.000

$$$$

  -OEChem-04052315303D

 85 93  0     1  0  0  0  0  0999 V2000
  -28.6724  -33.6075   24.0147 C   0  0  0  0  0  0  0  0  0  0  0  0
  -28.6639  -32.2890   23.5708 C   0  0  0  0  0  0  0  0  0  0  0  0
  -22.7922  -11.7622   22.6255 C   0  0  0  0  0  0  0  0  0  0  0  0
  -22.0639  -13.8283   21.6069 C   0  0  0  0  0  0  0  0  0  0  0  0
  -27.5260  -34.1563   24.5879 C   0  0  0  0  0  0  0  0  0  0  0  0
  -27.5092  -31.5182   23.7009 C   0  0  0  0  0  0  0  0  0  0  0  0
  -26.4572  -28.8732   19.5126 C   0  0  0  0  0  0  0  0  0  0  0  0
  -21.5856  -11.6794   23.3204 C   0  0  0  0  0  0  0  0  0  0  0  0
  -20.8572  -13.7455   22.3017 C   0  0  0  0  0  0  0  0  0  0  0  0
  -27.1977  -27.7132   19.2893 C   0  0  0  0  0  0  0  0  0  0  0  0
  -17.9393  -12.0623   22.0312 C   0  0  0  0  0  0  0  0  0  0  0  0
  -16.7661  -12.3204   21.3224 C   0  0  0  0  0  0  0  0  0  0  0  0
  -25.3689  -26.3894   20.1392 C   0  0  0  0  0  0  0  0  0  0  0  0
  -27.6498  -21.1842   19.2979 C   0  0  0  0  0  0  0  0  0  0  0  0
  -29.7560  -19.8961   20.5968 C   0  0  0  0  0  0  0  0  0  0  0  0
  -16.2640  -14.1490   22.8195 C   0  0  0  0  0  0  0  0  0  0  0  0
  -23.0314  -12.8367   21.7688 C   0  0  0  0  0  0  0  0  0  0  0  0
  -24.5636  -12.3960   19.7774 C   0  0  0  0  0  0  0  0  0  0  0  0
  -26.3537  -33.3948   24.7162 C   0  0  0  0  0  0  0  0  0  0  0  0
  -25.1690  -28.8006   20.0619 C   0  0  0  0  0  0  0  0  0  0  0  0
  -26.3464  -32.0570   24.2775 C   0  0  0  0  0  0  0  0  0  0  0  0
  -24.6131  -27.5498   20.3661 C   0  0  0  0  0  0  0  0  0  0  0  0
  -27.4819  -19.8865   19.7811 C   0  0  0  0  0  0  0  0  0  0  0  0
  -28.5350  -19.2425   20.4306 C   0  0  0  0  0  0  0  0  0  0  0  0
  -20.6181  -12.6711   23.1585 C   0  0  0  0  0  0  0  0  0  0  0  0
  -26.6547  -26.4713   19.6053 C   0  0  0  0  0  0  0  0  0  0  0  0
  -18.2749  -12.8475   23.1341 C   0  0  0  0  0  0  0  0  0  0  0  0
  -28.8708  -21.8378   19.4641 C   0  0  0  0  0  0  0  0  0  0  0  0
  -15.9284  -13.3638   21.7165 C   0  0  0  0  0  0  0  0  0  0  0  0
  -29.9239  -21.1938   20.1136 C   0  0  0  0  0  0  0  0  0  0  0  0
  -17.4373  -13.8909   23.5283 C   0  0  0  0  0  0  0  0  0  0  0  0
  -24.2778  -12.9230   21.0511 C   0  0  0  0  0  0  0  0  0  0  0  0
  -25.8720  -12.7448   19.5472 C   0  0  0  0  0  0  0  0  0  0  0  0
  -23.7217  -11.6574   18.8823 C   0  0  0  0  0  0  0  0  0  0  0  0
  -23.8001  -29.8789   22.7203 C   0  0  0  0  0  0  0  0  0  0  0  0
  -21.1040  -28.7206   21.3375 C   0  0  0  0  0  0  0  0  0  0  0  0
  -19.6902  -26.5491   19.1166 C   0  0  0  0  0  0  0  0  0  0  0  0
  -29.3409  -17.1585   21.5942 C   0  0  0  0  0  0  0  0  0  0  0  0
  -25.1537  -34.0167   25.3855 C   0  0  0  0  0  0  0  0  0  0  0  0
  -24.3728  -30.0594   20.2717 C   0  0  0  0  0  0  0  0  0  0  0  0
  -23.2266  -27.4163   20.9389 C   0  0  0  0  0  0  0  0  0  0  0  0
  -23.8563  -33.2491   25.1451 C   0  0  0  0  0  0  0  0  0  0  0  0
  -29.9648  -13.6630   21.8579 C   0  0  0  0  0  0  0  0  0  0  0  0
  -24.0717  -31.7550   25.3639 C   0  0  0  0  0  0  0  0  0  0  0  0
  -28.6047  -13.0284   21.5591 C   0  0  0  0  0  0  0  0  0  0  0  0
  -29.8231  -14.9614   22.6503 C   0  0  0  0  0  0  0  0  0  0  0  0
  -27.5528  -15.3174   21.7624 C   0  0  0  0  0  0  0  0  0  0  0  0
  -25.1056  -31.1966   24.3786 C   0  0  1  0  0  0  0  0  0  0  0  0
  -23.2703  -29.9022   21.3144 C   0  0  1  0  0  0  0  0  0  0  0  0
  -27.6408  -14.0410   20.9099 C   0  0  2  0  0  0  0  0  0  0  0  0
  -17.4613  -25.8071   18.2341 C   0  0  0  0  0  0  0  0  0  0  0  0
  -25.1595  -20.1381   18.8384 C   0  0  0  0  0  0  0  0  0  0  0  0
  -25.5213  -18.8289   20.9576 C   0  0  0  0  0  0  0  0  0  0  0  0
  -26.2060  -17.8841   18.7622 C   0  0  0  0  0  0  0  0  0  0  0  0
  -20.6167  -27.1418   23.9026 C   0  0  0  0  0  0  0  0  0  0  0  0
  -18.9699  -25.7381   22.6432 C   0  0  0  0  0  0  0  0  0  0  0  0
  -18.5696  -28.1852   22.9151 C   0  0  0  0  0  0  0  0  0  0  0  0
  -20.3745  -27.3812   16.3601 C   0  0  0  0  0  0  0  0  0  0  0  0
  -28.7956  -25.4432   19.4814 C   0  0  0  0  0  0  0  0  0  1  0  0
  -29.3621  -24.1147   19.9438 C   0  0  0  0  0  0  0  0  0  0  0  0
  -20.3849  -27.3933   21.3435 C   0  0  1  0  0  0  0  0  0  0  0  0
  -18.6379  -26.7510   18.0412 C   0  0  2  0  0  0  0  0  0  0  0  0
  -26.1632  -19.2106   19.5889 C   0  0  0  0  0  0  0  0  0  0  0  0
  -19.6622  -27.1169   22.6921 C   0  0  0  0  0  0  0  0  0  0  0  0
  -25.3208  -13.5581   21.5923 N   0  0  0  0  0  0  0  0  0  0  0  0
  -26.2747  -13.4323   20.6541 N   0  0  0  0  0  0  0  0  0  0  0  0
  -22.4902  -28.6765   21.1317 N   0  0  0  0  0  0  0  0  0  0  0  0
  -28.8986  -15.8734   21.9732 N   0  0  0  0  0  0  0  0  0  0  0  0
  -26.7058  -12.5272   18.5080 N   0  0  0  0  0  0  0  0  0  0  0  0
  -22.4041  -11.3859   19.2754 N   0  0  0  0  0  0  0  0  0  0  0  0
  -28.3845  -17.9245   20.9285 N   0  0  0  0  0  0  0  0  0  0  0  0
  -24.5103  -31.0106   23.0727 N   0  0  0  0  0  0  0  0  0  0  0  0
  -19.5010  -27.4026   20.1829 N   0  0  0  0  0  0  0  0  0  0  0  0
  -19.2219  -26.5047   16.6924 N   0  3  0  0  0  0  0  0  0  0  0  0
  -24.1308  -11.2360   17.7738 O   0  0  0  0  0  0  0  0  0  0  0  0
  -23.5794  -28.9068   23.4330 O   0  0  0  0  0  0  0  0  0  0  0  0
  -20.4585  -29.7589   21.5020 O   0  0  0  0  0  0  0  0  0  0  0  0
  -20.5878  -25.7149   19.0220 O   0  0  0  0  0  0  0  0  0  0  0  0
  -30.4925  -17.5406   21.8177 O   0  0  0  0  0  0  0  0  0  0  0  0
  -19.4405  -12.5905   23.8363 O   0  0  0  0  0  0  0  0  0  0  0  0
  -27.3756  -25.3375   19.3890 O   0  0  0  0  0  0  0  0  0  1  0  0
  -29.0346  -23.1124   18.9891 O   0  0  0  0  0  0  0  0  0  0  0  0
  -14.8025  -13.6125   21.0349 F   0  0  0  0  0  0  0  0  0  0  0  0
  -31.0993  -21.8166   20.2763 F   0  0  0  0  0  0  0  0  0  0  0  0
  -17.7550  -14.6494   24.5864 F   0  0  0  0  0  0  0  0  0  0  0  0
  1  2  1  0  0  0  0
  1  5  2  0  0  0  0
  2  6  2  0  0  0  0
  3  8  2  0  0  0  0
  3 17  1  0  0  0  0
  4  9  1  0  0  0  0
  4 17  2  0  0  0  0
  5 19  1  0  0  0  0
  6 21  1  0  0  0  0
  7 10  2  0  0  0  0
  7 20  1  0  0  0  0
  8 25  1  0  0  0  0
  9 25  2  0  0  0  0
 10 26  1  0  0  0  0
 11 12  2  0  0  0  0
 11 27  1  0  0  0  0
 12 29  1  0  0  0  0
 13 22  1  0  0  0  0
 13 26  2  0  0  0  0
 14 23  2  0  0  0  0
 14 28  1  0  0  0  0
 15 24  2  0  0  0  0
 15 30  1  0  0  0  0
 16 29  2  0  0  0  0
 16 31  1  0  0  0  0
 17 32  1  0  0  0  0
 18 32  1  0  0  0  0
 18 33  2  0  0  0  0
 18 34  1  0  0  0  0
 19 21  2  0  0  0  0
 19 39  1  0  0  0  0
 20 22  2  0  0  0  0
 20 40  1  0  0  0  0
 21 48  1  0  0  0  0
 22 41  1  0  0  0  0
 23 24  1  0  0  0  0
 23 63  1  0  0  0  0
 24 71  1  0  0  0  0
 25 80  1  0  0  0  0
 26 81  1  0  0  0  0
 27 31  2  0  0  0  0
 27 80  1  0  0  0  0
 28 30  2  0  0  0  0
 28 82  1  0  0  0  0
 29 83  1  0  0  0  0
 30 84  1  0  0  0  0
 31 85  1  0  0  0  0
 32 65  2  0  0  0  0
 33 66  1  0  0  0  0
 33 69  1  0  0  0  0
 34 70  1  0  0  0  0
 34 75  2  0  0  0  0
 35 49  1  0  0  0  0
 35 72  1  0  0  0  0
 35 76  2  0  0  0  0
 36 61  1  0  0  0  0
 36 67  1  0  0  0  0
 36 77  2  0  0  0  0
 37 62  1  0  0  0  0
 37 73  1  0  0  0  0
 37 78  2  0  0  0  0
 38 68  1  0  0  0  0
 38 71  1  0  0  0  0
 38 79  2  0  0  0  0
 39 42  1  0  0  0  0
 40 49  1  0  0  0  0
 41 67  1  0  0  0  0
 42 44  1  0  0  0  0
 43 45  1  0  0  0  0
 43 46  1  0  0  0  0
 44 48  1  0  0  0  0
 45 50  1  0  0  0  0
 46 68  1  0  0  0  0
 47 50  1  0  0  0  0
 47 68  1  0  0  0  0
 48 72  1  0  0  0  0
 49 67  1  0  0  0  0
 50 66  1  0  0  0  0
 51 62  1  0  0  0  0
 52 63  1  0  0  0  0
 53 63  1  0  0  0  0
 54 63  1  0  0  0  0
 55 64  1  0  0  0  0
 56 64  1  0  0  0  0
 57 64  1  0  0  0  0
 58 74  1  0  0  0  0
 59 60  1  0  0  0  0
 59 81  1  0  0  0  0
 60 82  1  0  0  0  0
 61 64  1  0  0  0  0
 61 73  1  0  0  0  0
 62 74  1  0  0  0  0
 65 66  1  0  0  0  0
M  CHG  1  74   1
M  ISO  4  38 100  59 101  71 100  81 101
M  END
> <Batch ID>
0006

> <Smiles>
CNC(C)C(=O)NC(C(=O)N1Cc2cc([101O:1][101CH2:1]COc3cc(C(C)(C)C)c([100NH:0][100C:0](=O)N4CCCC(n5nc(-c6ccc(Oc7ccc(F)cc7F)cc6)c(C(N)=O)c5N)C4)cc3F)ccc2CC1C(=O)NC1CCCc2ccccc21)C(C)(C)C

> <Shape>
0.304

> <Color>
0.068

> <Negative vol penalty>
0.000

$$$$

  -OEChem-04052315303D

 89 97  0     1  0  0  0  0  0999 V2000
  -18.7565  -25.5398   19.4758 C   0  0  0  0  0  0  0  0  0  0  0  0
  -20.0961  -25.8630   19.2850 C   0  0  0  0  0  0  0  0  0  0  0  0
  -24.6925  -14.0922   21.6763 C   0  0  0  0  0  0  0  0  0  0  0  0
  -26.6399  -13.9480   20.2537 C   0  0  0  0  0  0  0  0  0  0  0  0
  -18.0775  -26.0192   20.5952 C   0  0  0  0  0  0  0  0  0  0  0  0
  -20.7572  -26.6667   20.2130 C   0  0  0  0  0  0  0  0  0  0  0  0
  -25.3512  -24.8936   21.3947 C   0  0  0  0  0  0  0  0  0  0  0  0
  -24.6723  -12.7021   21.7896 C   0  0  0  0  0  0  0  0  0  0  0  0
  -26.6197  -12.5579   20.3670 C   0  0  0  0  0  0  0  0  0  0  0  0
  -26.3767  -25.1211   20.4779 C   0  0  0  0  0  0  0  0  0  0  0  0
  -23.6701  -10.0661   19.9264 C   0  0  0  0  0  0  0  0  0  0  0  0
  -22.4397   -9.4233   19.7898 C   0  0  0  0  0  0  0  0  0  0  0  0
  -27.1534  -26.9724   21.8152 C   0  0  0  0  0  0  0  0  0  0  0  0
  -27.5729  -23.4823   15.6532 C   0  0  0  0  0  0  0  0  0  0  0  0
  -29.7307  -24.5368   15.9159 C   0  0  0  0  0  0  0  0  0  0  0  0
  -22.6603   -8.5267   22.0225 C   0  0  0  0  0  0  0  0  0  0  0  0
  -25.6763  -14.7152   20.9084 C   0  0  0  0  0  0  0  0  0  0  0  0
  -26.3736  -17.0625   21.6235 C   0  0  0  0  0  0  0  0  0  0  0  0
  -18.7333  -26.8212   21.5425 C   0  0  0  0  0  0  0  0  0  0  0  0
  -25.2124  -25.7120   22.5248 C   0  0  0  0  0  0  0  0  0  0  0  0
  -20.0861  -27.1584   21.3455 C   0  0  0  0  0  0  0  0  0  0  0  0
  -26.1269  -26.7517   22.7461 C   0  0  0  0  0  0  0  0  0  0  0  0
  -28.8792  -23.0807   17.6455 C   0  0  0  0  0  0  0  0  0  0  0  0
  -28.5760  -24.3192   15.1642 C   0  0  0  0  0  0  0  0  0  0  0  0
  -27.7245  -22.8631   16.8939 C   0  0  0  0  0  0  0  0  0  0  0  0
  -25.6359  -11.9349   21.1349 C   0  0  0  0  0  0  0  0  0  0  0  0
  -27.2762  -26.1624   20.6866 C   0  0  0  0  0  0  0  0  0  0  0  0
  -24.3956   -9.9391   21.1110 C   0  0  0  0  0  0  0  0  0  0  0  0
  -21.9348   -8.6536   20.8378 C   0  0  0  0  0  0  0  0  0  0  0  0
  -23.8907   -9.1694   22.1590 C   0  0  0  0  0  0  0  0  0  0  0  0
  -29.8823  -23.9176   17.1566 C   0  0  0  0  0  0  0  0  0  0  0  0
  -25.6974  -16.1510   20.7905 C   0  0  0  0  0  0  0  0  0  0  0  0
  -26.0791  -18.2952   21.0940 C   0  0  0  0  0  0  0  0  0  0  0  0
  -27.1946  -16.8169   22.7730 C   0  0  0  0  0  0  0  0  0  0  0  0
  -22.9599  -27.6749   23.6099 C   0  0  0  0  0  0  0  0  0  0  0  0
  -24.9036  -27.8441   26.2013 C   0  0  0  0  0  0  0  0  0  0  0  0
  -28.0468  -27.5234   27.4912 C   0  0  0  0  0  0  0  0  0  0  0  0
  -25.4904  -21.7098   16.7355 C   0  0  0  0  0  0  0  0  0  0  0  0
  -17.9450  -27.3549   22.7123 C   0  0  0  0  0  0  0  0  0  0  0  0
  -24.1169  -25.4369   23.5182 C   0  0  0  0  0  0  0  0  0  0  0  0
  -26.0335  -27.6462   23.9542 C   0  0  0  0  0  0  0  0  0  0  0  0
  -18.8198  -27.8918   23.8422 C   0  0  0  0  0  0  0  0  0  0  0  0
  -22.7109  -19.6449   17.5649 C   0  0  0  0  0  0  0  0  0  0  0  0
  -19.9207  -28.7885   23.2849 C   0  0  0  0  0  0  0  0  0  0  0  0
  -23.2957  -18.6268   18.5465 C   0  0  0  0  0  0  0  0  0  0  0  0
  -23.7043  -20.0040   16.4613 C   0  0  0  0  0  0  0  0  0  0  0  0
  -25.6082  -19.4268   17.9143 C   0  0  0  0  0  0  0  0  0  0  0  0
  -20.8445  -28.0072   22.3427 C   0  0  1  0  0  0  0  0  0  0  0  0
  -23.7605  -26.6534   24.3669 C   0  0  1  0  0  0  0  0  0  0  0  0
  -24.6676  -19.0830   19.0808 C   0  0  2  0  0  0  0  0  0  0  0  0
  -29.0365  -22.4155   18.9774 C   0  0  0  0  0  0  0  0  0  0  0  0
  -27.5851  -27.1985   14.2339 C   0  0  0  0  0  0  0  0  0  0  0  0
  -29.1100  -23.4148   12.1584 C   0  0  0  0  0  0  0  0  0  0  0  0
  -29.3310  -27.7642   29.6338 C   0  0  0  0  0  0  0  0  0  0  0  0
  -24.8351  -30.8795   25.8985 C   0  0  0  0  0  0  0  0  0  0  0  0
  -26.8290  -31.0053   27.4073 C   0  0  0  0  0  0  0  0  0  0  0  0
  -24.6815  -30.0627   28.2572 C   0  0  0  0  0  0  0  0  0  0  0  0
  -28.8246  -24.6679   27.4814 C   0  0  0  0  0  0  0  0  0  0  0  0
  -27.3124  -25.8457   13.6698 C   0  0  0  0  0  0  0  0  0  0  0  0
  -29.3813  -24.7080   12.8489 C   0  0  0  0  0  0  0  0  0  0  0  0
  -30.6512  -26.5128   19.4283 C   0  0  0  0  0  0  0  0  0  0  0  0
  -29.4876  -26.9478   20.3008 C   0  0  0  0  0  0  0  0  0  1  0  0
  -26.0596  -28.7224   26.6151 C   0  0  1  0  0  0  0  0  0  0  0  0
  -28.5591  -26.8139   28.7316 C   0  0  2  0  0  0  0  0  0  0  0  0
  -25.6021  -30.1520   27.0207 C   0  0  0  0  0  0  0  0  0  0  0  0
  -25.0240  -16.7533   19.8068 N   0  0  0  0  0  0  0  0  0  0  0  0
  -25.2755  -18.0564   20.0182 N   0  0  0  0  0  0  0  0  0  0  0  0
  -24.9414  -27.3409   24.8932 N   0  0  0  0  0  0  0  0  0  0  0  0
  -24.9791  -20.4310   17.0422 N   0  0  0  0  0  0  0  0  0  0  0  0
  -26.4318  -19.5491   21.4484 N   0  0  0  0  0  0  0  0  0  0  0  0
  -27.3935  -15.4909   23.1809 N   0  0  0  0  0  0  0  0  0  0  0  0
  -26.6925  -22.0179   17.3717 N   0  0  0  0  0  0  0  0  0  0  0  0
  -21.7688  -27.1925   23.1020 N   0  0  0  0  0  0  0  0  0  0  0  0
  -26.7650  -27.9996   27.6679 N   0  0  0  0  0  0  0  0  0  0  0  0
  -30.7608  -25.0360   19.4426 N   0  0  0  0  0  0  0  0  0  0  0  0
  -28.4227  -24.9456   13.9097 N   0  0  0  0  0  0  0  0  0  0  0  0
  -29.4614  -25.6907   28.3505 N   0  3  0  0  0  0  0  0  0  0  0  0
  -27.7224  -17.7467   23.4290 O   0  0  0  0  0  0  0  0  0  0  0  0
  -23.3902  -28.8167   23.4962 O   0  0  0  0  0  0  0  0  0  0  0  0
  -24.0039  -27.6073   27.0113 O   0  0  0  0  0  0  0  0  0  0  0  0
  -28.7182  -27.6465   26.4692 O   0  0  0  0  0  0  0  0  0  0  0  0
  -24.8913  -22.4857   15.9866 O   0  0  0  0  0  0  0  0  0  0  0  0
  -31.9019  -22.9357   18.4860 O   0  0  0  0  0  0  0  0  0  0  0  0
  -32.1663  -25.1367   17.2986 O   0  0  0  0  0  0  0  0  0  0  0  0
  -25.6166  -10.5785   21.2454 O   0  0  0  0  0  0  0  0  0  0  0  0
  -28.2777  -26.3870   19.7930 O   0  0  0  0  0  0  0  0  0  1  0  0
  -20.7526   -8.0377   20.7071 F   0  0  0  0  0  0  0  0  0  0  0  0
  -24.5826   -9.0447   23.2999 F   0  0  0  0  0  0  0  0  0  0  0  0
  -31.3598  -24.2181   18.0792 S   0  0  0  0  0  0  0  0  0  0  0  0
  1  2  1  0  0  0  0
  1  5  2  0  0  0  0
  2  6  2  0  0  0  0
  3  8  2  0  0  0  0
  3 17  1  0  0  0  0
  4  9  1  0  0  0  0
  4 17  2  0  0  0  0
  5 19  1  0  0  0  0
  6 21  1  0  0  0  0
  7 10  2  0  0  0  0
  7 20  1  0  0  0  0
  8 26  1  0  0  0  0
  9 26  2  0  0  0  0
 10 27  1  0  0  0  0
 11 12  2  0  0  0  0
 11 28  1  0  0  0  0
 12 29  1  0  0  0  0
 13 22  1  0  0  0  0
 13 27  2  0  0  0  0
 14 24  1  0  0  0  0
 14 25  2  0  0  0  0
 15 24  2  0  0  0  0
 15 31  1  0  0  0  0
 16 29  2  0  0  0  0
 16 30  1  0  0  0  0
 17 32  1  0  0  0  0
 18 32  1  0  0  0  0
 18 33  2  0  0  0  0
 18 34  1  0  0  0  0
 19 21  2  0  0  0  0
 19 39  1  0  0  0  0
 20 22  2  0  0  0  0
 20 40  1  0  0  0  0
 21 48  1  0  0  0  0
 22 41  1  0  0  0  0
 23 25  1  0  0  0  0
 23 31  2  0  0  0  0
 23 51  1  0  0  0  0
 24 76  1  0  0  0  0
 25 72  1  0  0  0  0
 26 85  1  0  0  0  0
 27 86  1  0  0  0  0
 28 30  2  0  0  0  0
 28 85  1  0  0  0  0
 29 87  1  0  0  0  0
 30 88  1  0  0  0  0
 31 89  1  0  0  0  0
 32 66  2  0  0  0  0
 33 67  1  0  0  0  0
 33 70  1  0  0  0  0
 34 71  1  0  0  0  0
 34 78  2  0  0  0  0
 35 49  1  0  0  0  0
 35 73  1  0  0  0  0
 35 79  2  0  0  0  0
 36 63  1  0  0  0  0
 36 68  1  0  0  0  0
 36 80  2  0  0  0  0
 37 64  1  0  0  0  0
 37 74  1  0  0  0  0
 37 81  2  0  0  0  0
 38 69  1  0  0  0  0
 38 72  1  0  0  0  0
 38 82  2  0  0  0  0
 39 42  1  0  0  0  0
 40 49  1  0  0  0  0
 41 68  1  0  0  0  0
 42 44  1  0  0  0  0
 43 45  1  0  0  0  0
 43 46  1  0  0  0  0
 44 48  1  0  0  0  0
 45 50  1  0  0  0  0
 46 69  1  0  0  0  0
 47 50  1  0  0  0  0
 47 69  1  0  0  0  0
 48 73  1  0  0  0  0
 49 68  1  0  0  0  0
 50 67  1  0  0  0  0
 52 59  1  0  0  0  0
 53 60  1  0  0  0  0
 54 64  1  0  0  0  0
 55 65  1  0  0  0  0
 56 65  1  0  0  0  0
 57 65  1  0  0  0  0
 58 77  1  0  0  0  0
 59 76  1  0  0  0  0
 60 76  1  0  0  0  0
 61 62  1  0  0  0  0
 61 75  1  0  0  0  0
 62 86  1  0  0  0  0
 63 65  1  0  0  0  0
 63 74  1  0  0  0  0
 64 77  1  0  0  0  0
 66 67  1  0  0  0  0
 75 89  1  0  0  0  0
 83 89  2  0  0  0  0
 84 89  2  0  0  0  0
M  CHG  1  77   1
M  ISO  4  38 100  62 101  72 100  86 101
M  END
> <Batch ID>
0006

> <Smiles>
CCN(CC)c1cc([100NH:0][100C:0](=O)N2CCCC(n3nc(-c4ccc(Oc5ccc(F)cc5F)cc4)c(C(N)=O)c3N)C2)c(C)c(S(=O)(=O)NC[101CH2:1][101O:1]c2ccc3c(c2)CN(C(=O)C(NC(=O)C(C)NC)C(C)(C)C)C(C(=O)NC2CCCc4ccccc42)C3)c1

> <Shape>
0.198

> <Color>
0.085

> <Negative vol penalty>
0.000

$$$$

  -OEChem-04052315303D

 83 91  0     1  0  0  0  0  0999 V2000
  -18.3135  -25.3927   22.9254 C   0  0  0  0  0  0  0  0  0  0  0  0
  -19.7010  -25.4732   22.8632 C   0  0  0  0  0  0  0  0  0  0  0  0
  -23.0110  -10.1670   19.9573 C   0  0  0  0  0  0  0  0  0  0  0  0
  -24.1260   -9.6874   22.0463 C   0  0  0  0  0  0  0  0  0  0  0  0
  -17.5311  -26.3303   22.2526 C   0  0  0  0  0  0  0  0  0  0  0  0
  -20.3069  -26.4908   22.1271 C   0  0  0  0  0  0  0  0  0  0  0  0
  -24.1524  -28.6585   24.6087 C   0  0  0  0  0  0  0  0  0  0  0  0
  -29.7727  -17.6562   23.1054 C   0  0  0  0  0  0  0  0  0  0  0  0
  -31.1008  -17.9247   21.1051 C   0  0  0  0  0  0  0  0  0  0  0  0
  -22.3144   -8.9624   20.0525 C   0  0  0  0  0  0  0  0  0  0  0  0
  -23.4293   -8.4827   22.1415 C   0  0  0  0  0  0  0  0  0  0  0  0
  -25.3629  -27.9673   24.6359 C   0  0  0  0  0  0  0  0  0  0  0  0
  -29.9421  -19.0091   23.3995 C   0  0  0  0  0  0  0  0  0  0  0  0
  -31.2702  -19.2777   21.3992 C   0  0  0  0  0  0  0  0  0  0  0  0
  -20.3367   -7.4601   23.0419 C   0  0  0  0  0  0  0  0  0  0  0  0
  -19.7756   -7.1336   24.2764 C   0  0  0  0  0  0  0  0  0  0  0  0
  -26.1990  -29.3739   22.8635 C   0  0  0  0  0  0  0  0  0  0  0  0
  -21.1150   -5.1243   24.3537 C   0  0  0  0  0  0  0  0  0  0  0  0
  -23.9169  -10.5295   20.9542 C   0  0  0  0  0  0  0  0  0  0  0  0
  -24.2396  -13.0278   21.3566 C   0  0  0  0  0  0  0  0  0  0  0  0
  -18.1277  -27.3656   21.5158 C   0  0  0  0  0  0  0  0  0  0  0  0
  -23.9519  -29.7072   23.6996 C   0  0  0  0  0  0  0  0  0  0  0  0
  -19.5317  -27.4424   21.4426 C   0  0  0  0  0  0  0  0  0  0  0  0
  -24.9860  -30.0785   22.8285 C   0  0  0  0  0  0  0  0  0  0  0  0
  -30.3521  -17.1140   21.9582 C   0  0  0  0  0  0  0  0  0  0  0  0
  -22.5235   -8.1202   21.1445 C   0  0  0  0  0  0  0  0  0  0  0  0
  -30.6908  -19.8198   22.5464 C   0  0  0  0  0  0  0  0  0  0  0  0
  -26.3854  -28.3231   23.7613 C   0  0  0  0  0  0  0  0  0  0  0  0
  -21.2870   -6.6187   22.4632 C   0  0  0  0  0  0  0  0  0  0  0  0
  -20.1647   -5.9657   24.9323 C   0  0  0  0  0  0  0  0  0  0  0  0
  -21.6761   -5.4508   23.1191 C   0  0  0  0  0  0  0  0  0  0  0  0
  -24.6372  -11.7736   20.8561 C   0  0  0  0  0  0  0  0  0  0  0  0
  -25.2613  -13.8766   21.0071 C   0  0  0  0  0  0  0  0  0  0  0  0
  -23.0528  -13.3931   22.0734 C   0  0  0  0  0  0  0  0  0  0  0  0
  -21.9464  -30.2350   21.2907 C   0  0  0  0  0  0  0  0  0  0  0  0
  -23.3358  -33.1662   21.2885 C   0  0  0  0  0  0  0  0  0  0  0  0
  -26.0423  -35.0901   22.0763 C   0  0  0  0  0  0  0  0  0  0  0  0
  -30.6875  -15.0437   20.5626 C   0  0  0  0  0  0  0  0  0  0  0  0
  -17.2405  -28.3278   20.7664 C   0  0  0  0  0  0  0  0  0  0  0  0
  -22.6499  -30.4603   23.7011 C   0  0  0  0  0  0  0  0  0  0  0  0
  -24.8283  -31.2103   21.8473 C   0  0  0  0  0  0  0  0  0  0  0  0
  -17.9610  -29.5960   20.3160 C   0  0  0  0  0  0  0  0  0  0  0  0
  -29.2065  -13.1834   17.9124 C   0  0  0  0  0  0  0  0  0  0  0  0
  -19.3009  -29.2495   19.6745 C   0  0  0  0  0  0  0  0  0  0  0  0
  -27.8530  -12.7540   18.4832 C   0  0  0  0  0  0  0  0  0  0  0  0
  -30.3014  -13.1691   18.9776 C   0  0  0  0  0  0  0  0  0  0  0  0
  -28.6397  -13.5007   20.7659 C   0  0  0  0  0  0  0  0  0  0  0  0
  -20.2261  -28.5462   20.6749 C   0  0  1  0  0  0  0  0  0  0  0  0
  -22.3718  -31.1755   22.3826 C   0  0  1  0  0  0  0  0  0  0  0  0
  -27.4916  -13.5618   19.7451 C   0  0  2  0  0  0  0  0  0  0  0  0
  -26.8998  -37.4431   21.9174 C   0  0  0  0  0  0  0  0  0  0  0  0
  -23.9091  -32.7543   18.3200 C   0  0  0  0  0  0  0  0  0  0  0  0
  -25.5524  -34.6389   18.4472 C   0  0  0  0  0  0  0  0  0  0  0  0
  -23.1397  -35.0558   18.9243 C   0  0  0  0  0  0  0  0  0  0  0  0
  -26.2470  -35.3374   25.0184 C   0  0  0  0  0  0  0  0  0  0  0  0
  -28.6670  -24.0519   23.8573 C   0  0  0  0  0  0  0  0  0  0  0  0
  -29.7746  -23.2583   23.1643 C   0  0  0  0  0  0  0  0  0  0  0  0
  -28.6646  -25.5350   23.4909 C   0  0  0  0  0  0  0  0  0  0  0  0
  -29.8064  -21.7857   23.5508 C   0  0  0  0  0  0  0  0  0  0  0  0
  -27.5261  -26.2781   24.1771 C   0  0  0  0  0  0  0  0  0  1  0  0
  -24.5333  -33.7812   20.6052 C   0  0  1  0  0  0  0  0  0  0  0  0
  -26.1544  -36.4328   22.7755 C   0  0  2  0  0  0  0  0  0  0  0  0
  -24.2862  -34.0349   19.0912 C   0  0  0  0  0  0  0  0  0  0  0  0
  -25.8193  -11.8171   20.2358 N   0  0  0  0  0  0  0  0  0  0  0  0
  -26.1731  -13.1091   20.3441 N   0  0  0  0  0  0  0  0  0  0  0  0
  -23.5345  -31.9120   21.8828 N   0  0  0  0  0  0  0  0  0  0  0  0
  -29.8909  -13.9580   20.1412 N   0  0  0  0  0  0  0  0  0  0  0  0
  -25.4597  -15.1971   21.2053 N   0  0  0  0  0  0  0  0  0  0  0  0
  -22.1058  -12.3973   22.3493 N   0  0  0  0  0  0  0  0  0  0  0  0
  -30.1801  -15.7396   21.6593 N   0  0  0  0  0  0  0  0  0  0  0  0
  -20.8093  -29.5075   21.5860 N   0  0  0  0  0  0  0  0  0  0  0  0
  -24.8657  -34.9810   21.3657 N   0  0  0  0  0  0  0  0  0  0  0  0
  -26.8829  -36.2850   24.0672 N   0  3  0  0  0  0  0  0  0  0  0  0
  -22.8307  -14.5709   22.4435 O   0  0  0  0  0  0  0  0  0  0  0  0
  -22.6005  -30.1750   20.2561 O   0  0  0  0  0  0  0  0  0  0  0  0
  -22.2656  -33.7794   21.3007 O   0  0  0  0  0  0  0  0  0  0  0  0
  -26.9132  -34.2260   22.1498 O   0  0  0  0  0  0  0  0  0  0  0  0
  -31.7281  -15.3513   19.9757 O   0  0  0  0  0  0  0  0  0  0  0  0
  -21.8438   -6.9447   21.2379 O   0  0  0  0  0  0  0  0  0  0  0  0
  -30.8573  -21.1489   22.8353 O   0  0  0  0  0  0  0  0  0  0  0  0
  -27.5677  -27.6497   23.7853 O   0  0  0  0  0  0  0  0  0  1  0  0
  -19.6269   -5.6530   26.1186 F   0  0  0  0  0  0  0  0  0  0  0  0
  -22.5895   -4.6392   22.5687 F   0  0  0  0  0  0  0  0  0  0  0  0
  1  2  1  0  0  0  0
  1  5  2  0  0  0  0
  2  6  2  0  0  0  0
  3 10  2  0  0  0  0
  3 19  1  0  0  0  0
  4 11  1  0  0  0  0
  4 19  2  0  0  0  0
  5 21  1  0  0  0  0
  6 23  1  0  0  0  0
  7 12  2  0  0  0  0
  7 22  1  0  0  0  0
  8 13  2  0  0  0  0
  8 25  1  0  0  0  0
  9 14  1  0  0  0  0
  9 25  2  0  0  0  0
 10 26  1  0  0  0  0
 11 26  2  0  0  0  0
 12 28  1  0  0  0  0
 13 27  1  0  0  0  0
 14 27  2  0  0  0  0
 15 16  2  0  0  0  0
 15 29  1  0  0  0  0
 16 30  1  0  0  0  0
 17 24  1  0  0  0  0
 17 28  2  0  0  0  0
 18 30  2  0  0  0  0
 18 31  1  0  0  0  0
 19 32  1  0  0  0  0
 20 32  1  0  0  0  0
 20 33  2  0  0  0  0
 20 34  1  0  0  0  0
 21 23  2  0  0  0  0
 21 39  1  0  0  0  0
 22 24  2  0  0  0  0
 22 40  1  0  0  0  0
 23 48  1  0  0  0  0
 24 41  1  0  0  0  0
 25 70  1  0  0  0  0
 26 79  1  0  0  0  0
 27 80  1  0  0  0  0
 28 81  1  0  0  0  0
 29 31  2  0  0  0  0
 29 79  1  0  0  0  0
 30 82  1  0  0  0  0
 31 83  1  0  0  0  0
 32 64  2  0  0  0  0
 33 65  1  0  0  0  0
 33 68  1  0  0  0  0
 34 69  1  0  0  0  0
 34 74  2  0  0  0  0
 35 49  1  0  0  0  0
 35 71  1  0  0  0  0
 35 75  2  0  0  0  0
 36 61  1  0  0  0  0
 36 66  1  0  0  0  0
 36 76  2  0  0  0  0
 37 62  1  0  0  0  0
 37 72  1  0  0  0  0
 37 77  2  0  0  0  0
 38 67  1  0  0  0  0
 38 70  1  0  0  0  0
 38 78  2  0  0  0  0
 39 42  1  0  0  0  0
 40 49  1  0  0  0  0
 41 66  1  0  0  0  0
 42 44  1  0  0  0  0
 43 45  1  0  0  0  0
 43 46  1  0  0  0  0
 44 48  1  0  0  0  0
 45 50  1  0  0  0  0
 46 67  1  0  0  0  0
 47 50  1  0  0  0  0
 47 67  1  0  0  0  0
 48 71  1  0  0  0  0
 49 66  1  0  0  0  0
 50 65  1  0  0  0  0
 51 62  1  0  0  0  0
 52 63  1  0  0  0  0
 53 63  1  0  0  0  0
 54 63  1  0  0  0  0
 55 73  1  0  0  0  0
 56 57  1  0  0  0  0
 56 58  1  0  0  0  0
 57 59  1  0  0  0  0
 58 60  1  0  0  0  0
 59 80  1  0  0  0  0
 60 81  1  0  0  0  0
 61 63  1  0  0  0  0
 61 72  1  0  0  0  0
 62 73  1  0  0  0  0
 64 65  1  0  0  0  0
M  CHG  1  73   1
M  ISO  4  38 100  60 101  70 100  81 101
M  END
> <Batch ID>
0006

> <Smiles>
CNC(C)C(=O)NC(C(=O)N1Cc2cc([101O:1][101CH2:1]CCCCOc3ccc([100NH:0][100C:0](=O)N4CCCC(n5nc(-c6ccc(Oc7ccc(F)cc7F)cc6)c(C(N)=O)c5N)C4)cc3)ccc2CC1C(=O)NC1CCCc2ccccc21)C(C)(C)C

> <Shape>
0.313

> <Color>
0.185

> <Negative vol penalty>
0.000

$$$$

  -OEChem-04052315303D

 83 91  0     1  0  0  0  0  0999 V2000
  -25.0593   -9.9824   25.5744 C   0  0  0  0  0  0  0  0  0  0  0  0
  -25.3675  -11.3377   25.5140 C   0  0  0  0  0  0  0  0  0  0  0  0
  -22.6656  -10.1824   20.1258 C   0  0  0  0  0  0  0  0  0  0  0  0
  -24.2815   -9.4430   21.7627 C   0  0  0  0  0  0  0  0  0  0  0  0
  -23.7610   -9.5768   25.8805 C   0  0  0  0  0  0  0  0  0  0  0  0
  -24.3771  -12.2883   25.7587 C   0  0  0  0  0  0  0  0  0  0  0  0
  -25.9683  -16.0134   28.7978 C   0  0  0  0  0  0  0  0  0  0  0  0
  -31.2640  -19.0976   20.8794 C   0  0  0  0  0  0  0  0  0  0  0  0
  -31.1064  -17.7136   20.8074 C   0  0  0  0  0  0  0  0  0  0  0  0
  -21.9314   -9.0128   20.3222 C   0  0  0  0  0  0  0  0  0  0  0  0
  -23.5472   -8.2734   21.9592 C   0  0  0  0  0  0  0  0  0  0  0  0
  -26.7673  -17.0033   28.2271 C   0  0  0  0  0  0  0  0  0  0  0  0
  -20.7620   -7.3335   23.6263 C   0  0  0  0  0  0  0  0  0  0  0  0
  -20.5465   -6.9184   24.9404 C   0  0  0  0  0  0  0  0  0  0  0  0
  -24.8464  -18.4539   28.0687 C   0  0  0  0  0  0  0  0  0  0  0  0
  -29.4784  -17.8062   22.5902 C   0  0  0  0  0  0  0  0  0  0  0  0
  -21.6915   -4.8430   24.4726 C   0  0  0  0  0  0  0  0  0  0  0  0
  -23.8407  -10.3975   20.8459 C   0  0  0  0  0  0  0  0  0  0  0  0
  -24.1627  -12.9281   20.8444 C   0  0  0  0  0  0  0  0  0  0  0  0
  -22.7564  -10.5229   26.1386 C   0  0  0  0  0  0  0  0  0  0  0  0
  -24.5979  -16.2328   28.9985 C   0  0  0  0  0  0  0  0  0  0  0  0
  -23.0637  -11.8950   26.0673 C   0  0  0  0  0  0  0  0  0  0  0  0
  -24.0328  -17.4662   28.6444 C   0  0  0  0  0  0  0  0  0  0  0  0
  -30.5288  -19.8360   21.8069 C   0  0  0  0  0  0  0  0  0  0  0  0
  -30.2136  -17.0679   21.6628 C   0  0  0  0  0  0  0  0  0  0  0  0
  -29.6360  -19.1903   22.6622 C   0  0  0  0  0  0  0  0  0  0  0  0
  -22.3722   -8.0583   21.2390 C   0  0  0  0  0  0  0  0  0  0  0  0
  -26.2058  -18.2227   27.8598 C   0  0  0  0  0  0  0  0  0  0  0  0
  -21.4421   -6.5032   22.7352 C   0  0  0  0  0  0  0  0  0  0  0  0
  -21.0113   -5.6732   25.3635 C   0  0  0  0  0  0  0  0  0  0  0  0
  -21.9069   -5.2580   23.1584 C   0  0  0  0  0  0  0  0  0  0  0  0
  -24.5999  -11.6052   20.6430 C   0  0  0  0  0  0  0  0  0  0  0  0
  -25.2481  -13.7024   20.5145 C   0  0  0  0  0  0  0  0  0  0  0  0
  -22.8893  -13.4136   21.2898 C   0  0  0  0  0  0  0  0  0  0  0  0
  -21.9290  -14.8807   27.9249 C   0  0  0  0  0  0  0  0  0  0  0  0
  -20.5200  -16.8922   30.0442 C   0  0  0  0  0  0  0  0  0  0  0  0
  -27.9575  -19.4252   24.5254 C   0  0  0  0  0  0  0  0  0  0  0  0
  -20.6934  -19.7820   31.8512 C   0  0  0  0  0  0  0  0  0  0  0  0
  -30.7064  -14.7815   20.7268 C   0  0  0  0  0  0  0  0  0  0  0  0
  -21.3564  -10.0370   26.4189 C   0  0  0  0  0  0  0  0  0  0  0  0
  -23.7551  -15.1647   29.6398 C   0  0  0  0  0  0  0  0  0  0  0  0
  -22.5708  -17.7590   28.8576 C   0  0  0  0  0  0  0  0  0  0  0  0
  -20.4532  -11.1034   27.0332 C   0  0  0  0  0  0  0  0  0  0  0  0
  -29.6049  -12.4733   18.2497 C   0  0  0  0  0  0  0  0  0  0  0  0
  -20.5882  -12.4194   26.2738 C   0  0  0  0  0  0  0  0  0  0  0  0
  -28.1686  -12.1505   18.6681 C   0  0  0  0  0  0  0  0  0  0  0  0
  -30.5211  -12.6524   19.4588 C   0  0  0  0  0  0  0  0  0  0  0  0
  -28.6121  -13.2960   20.8768 C   0  0  0  0  0  0  0  0  0  0  0  0
  -22.0226  -12.9561   26.3508 C   0  0  1  0  0  0  0  0  0  0  0  0
  -22.2691  -15.3069   29.3251 C   0  0  1  0  0  0  0  0  0  0  0  0
  -27.6377  -13.1708   19.6941 C   0  0  2  0  0  0  0  0  0  0  0  0
  -30.7180  -21.3172   21.8617 C   0  0  0  0  0  0  0  0  0  0  0  0
  -19.3726  -21.1792   33.4639 C   0  0  0  0  0  0  0  0  0  0  0  0
  -18.7729  -17.8860   27.7485 C   0  0  0  0  0  0  0  0  0  0  0  0
  -18.1789  -19.8720   29.1525 C   0  0  0  0  0  0  0  0  0  0  0  0
  -17.5683  -17.5778   29.9184 C   0  0  0  0  0  0  0  0  0  0  0  0
  -22.7492  -19.4977   33.9612 C   0  0  0  0  0  0  0  0  0  0  0  0
  -27.3717  -20.5583   25.3603 C   0  0  0  0  0  0  0  0  0  0  0  0
  -26.3520  -20.0813   26.3833 C   0  0  0  0  0  0  0  0  0  1  0  0
  -19.9890  -18.3042   29.9873 C   0  0  1  0  0  0  0  0  0  0  0  0
  -20.4070  -20.0747   33.3130 C   0  0  2  0  0  0  0  0  0  0  0  0
  -18.6545  -18.4041   29.1958 C   0  0  0  0  0  0  0  0  0  0  0  0
  -25.8644  -11.5391   20.2180 N   0  0  0  0  0  0  0  0  0  0  0  0
  -26.2310  -12.8302   20.1495 N   0  0  0  0  0  0  0  0  0  0  0  0
  -21.7870  -16.6806   29.4822 N   0  0  0  0  0  0  0  0  0  0  0  0
  -29.9564  -13.6363   20.3850 N   0  0  0  0  0  0  0  0  0  0  0  0
  -25.4480  -15.0375   20.5039 N   0  0  0  0  0  0  0  0  0  0  0  0
  -22.6857  -13.5910   22.6651 N   0  0  0  0  0  0  0  0  0  0  0  0
  -28.8814  -19.9220   23.6098 N   0  0  0  0  0  0  0  0  0  0  0  0
  -30.0539  -15.6619   21.5892 N   0  0  0  0  0  0  0  0  0  0  0  0
  -22.2637  -13.5710   27.6386 N   0  0  0  0  0  0  0  0  0  0  0  0
  -19.8997  -18.7627   31.3694 N   0  0  0  0  0  0  0  0  0  0  0  0
  -21.6537  -20.5000   34.0100 N   0  3  0  0  0  0  0  0  0  0  0  0
  -21.9540  -13.6666   20.4931 O   0  0  0  0  0  0  0  0  0  0  0  0
  -21.4006  -15.6805   27.1615 O   0  0  0  0  0  0  0  0  0  0  0  0
  -19.8389  -16.0108   30.5742 O   0  0  0  0  0  0  0  0  0  0  0  0
  -27.6215  -18.2564   24.6839 O   0  0  0  0  0  0  0  0  0  0  0  0
  -21.5343  -20.3987   31.2007 O   0  0  0  0  0  0  0  0  0  0  0  0
  -31.8330  -14.9810   20.2652 O   0  0  0  0  0  0  0  0  0  0  0  0
  -21.6559   -6.9171   21.4311 O   0  0  0  0  0  0  0  0  0  0  0  0
  -26.9833  -19.1903   27.3020 O   0  0  0  0  0  0  0  0  0  1  0  0
  -20.8057   -5.2754   26.6259 F   0  0  0  0  0  0  0  0  0  0  0  0
  -22.5620   -4.4566   22.3073 F   0  0  0  0  0  0  0  0  0  0  0  0
  1  2  1  0  0  0  0
  1  5  2  0  0  0  0
  2  6  2  0  0  0  0
  3 10  2  0  0  0  0
  3 18  1  0  0  0  0
  4 11  1  0  0  0  0
  4 18  2  0  0  0  0
  5 20  1  0  0  0  0
  6 22  1  0  0  0  0
  7 12  2  0  0  0  0
  7 21  1  0  0  0  0
  8  9  2  0  0  0  0
  8 24  1  0  0  0  0
  9 25  1  0  0  0  0
 10 27  1  0  0  0  0
 11 27  2  0  0  0  0
 12 28  1  0  0  0  0
 13 14  2  0  0  0  0
 13 29  1  0  0  0  0
 14 30  1  0  0  0  0
 15 23  1  0  0  0  0
 15 28  2  0  0  0  0
 16 25  2  0  0  0  0
 16 26  1  0  0  0  0
 17 30  2  0  0  0  0
 17 31  1  0  0  0  0
 18 32  1  0  0  0  0
 19 32  1  0  0  0  0
 19 33  2  0  0  0  0
 19 34  1  0  0  0  0
 20 22  2  0  0  0  0
 20 40  1  0  0  0  0
 21 23  2  0  0  0  0
 21 41  1  0  0  0  0
 22 49  1  0  0  0  0
 23 42  1  0  0  0  0
 24 26  2  0  0  0  0
 24 52  1  0  0  0  0
 25 70  1  0  0  0  0
 26 69  1  0  0  0  0
 27 80  1  0  0  0  0
 28 81  1  0  0  0  0
 29 31  2  0  0  0  0
 29 80  1  0  0  0  0
 30 82  1  0  0  0  0
 31 83  1  0  0  0  0
 32 63  2  0  0  0  0
 33 64  1  0  0  0  0
 33 67  1  0  0  0  0
 34 68  1  0  0  0  0
 34 74  2  0  0  0  0
 35 50  1  0  0  0  0
 35 71  1  0  0  0  0
 35 75  2  0  0  0  0
 36 60  1  0  0  0  0
 36 65  1  0  0  0  0
 36 76  2  0  0  0  0
 37 58  1  0  0  0  0
 37 69  1  0  0  0  0
 37 77  2  0  0  0  0
 38 61  1  0  0  0  0
 38 72  1  0  0  0  0
 38 78  2  0  0  0  0
 39 66  1  0  0  0  0
 39 70  1  0  0  0  0
 39 79  2  0  0  0  0
 40 43  1  0  0  0  0
 41 50  1  0  0  0  0
 42 65  1  0  0  0  0
 43 45  1  0  0  0  0
 44 46  1  0  0  0  0
 44 47  1  0  0  0  0
 45 49  1  0  0  0  0
 46 51  1  0  0  0  0
 47 66  1  0  0  0  0
 48 51  1  0  0  0  0
 48 66  1  0  0  0  0
 49 71  1  0  0  0  0
 50 65  1  0  0  0  0
 51 64  1  0  0  0  0
 53 61  1  0  0  0  0
 54 62  1  0  0  0  0
 55 62  1  0  0  0  0
 56 62  1  0  0  0  0
 57 73  1  0  0  0  0
 58 59  1  0  0  0  0
 59 81  1  0  0  0  0
 60 62  1  0  0  0  0
 60 72  1  0  0  0  0
 61 73  1  0  0  0  0
 63 64  1  0  0  0  0
M  CHG  1  73   1
M  ISO  4  39 100  59 101  70 100  81 101
M  END
> <Batch ID>
0006

> <Smiles>
CNC(C)C(=O)NC(C(=O)N1Cc2cc([101O:1][101CH2:1]CC(=O)Nc3cc([100NH:0][100C:0](=O)N4CCCC(n5nc(-c6ccc(Oc7ccc(F)cc7F)cc6)c(C(N)=O)c5N)C4)ccc3C)ccc2CC1C(=O)NC1CCCc2ccccc21)C(C)(C)C

> <Shape>
0.192

> <Color>
0.178

> <Negative vol penalty>
0.000

$$$$

  -OEChem-04052315303D

 83 91  0     1  0  0  0  0  0999 V2000
  -29.6828  -33.8889   17.9950 C   0  0  0  0  0  0  0  0  0  0  0  0
  -30.0943  -32.8662   18.8437 C   0  0  0  0  0  0  0  0  0  0  0  0
  -32.7068  -17.4221   23.4390 C   0  0  0  0  0  0  0  0  0  0  0  0
  -23.0665   -9.8799   19.9380 C   0  0  0  0  0  0  0  0  0  0  0  0
  -23.8332   -9.8721   22.2291 C   0  0  0  0  0  0  0  0  0  0  0  0
  -28.3967  -33.8715   17.4569 C   0  0  0  0  0  0  0  0  0  0  0  0
  -29.2195  -31.8261   19.1557 C   0  0  0  0  0  0  0  0  0  0  0  0
  -30.6742  -25.9555   20.1176 C   0  0  0  0  0  0  0  0  0  0  0  0
  -31.9335  -18.2968   24.2021 C   0  0  0  0  0  0  0  0  0  0  0  0
  -32.0922  -16.5528   22.5377 C   0  0  0  0  0  0  0  0  0  0  0  0
  -22.3184   -8.7287   20.1844 C   0  0  0  0  0  0  0  0  0  0  0  0
  -23.0851   -8.7210   22.4756 C   0  0  0  0  0  0  0  0  0  0  0  0
  -30.8727  -25.2172   21.2835 C   0  0  0  0  0  0  0  0  0  0  0  0
  -19.8553   -7.9341   23.0837 C   0  0  0  0  0  0  0  0  0  0  0  0
  -19.1016   -7.8916   24.2566 C   0  0  0  0  0  0  0  0  0  0  0  0
  -28.5898  -24.4450   21.1758 C   0  0  0  0  0  0  0  0  0  0  0  0
  -20.3368   -5.9451   24.9797 C   0  0  0  0  0  0  0  0  0  0  0  0
  -23.8240  -10.4516   20.9603 C   0  0  0  0  0  0  0  0  0  0  0  0
  -24.1764  -12.9758   20.8519 C   0  0  0  0  0  0  0  0  0  0  0  0
  -27.5090  -32.8256   17.7547 C   0  0  0  0  0  0  0  0  0  0  0  0
  -29.4268  -25.9527   19.4770 C   0  0  0  0  0  0  0  0  0  0  0  0
  -27.9199  -31.7955   18.6221 C   0  0  0  0  0  0  0  0  0  0  0  0
  -28.3789  -25.1820   20.0005 C   0  0  0  0  0  0  0  0  0  0  0  0
  -30.5455  -18.3022   24.0640 C   0  0  0  0  0  0  0  0  0  0  0  0
  -29.9308  -17.4329   23.1628 C   0  0  0  0  0  0  0  0  0  0  0  0
  -30.7042  -16.5582   22.3996 C   0  0  0  0  0  0  0  0  0  0  0  0
  -22.3276   -8.1493   21.4532 C   0  0  0  0  0  0  0  0  0  0  0  0
  -29.8296  -24.4641   21.8144 C   0  0  0  0  0  0  0  0  0  0  0  0
  -20.8496   -6.9821   22.8587 C   0  0  0  0  0  0  0  0  0  0  0  0
  -19.3424   -6.8971   25.2046 C   0  0  0  0  0  0  0  0  0  0  0  0
  -21.0904   -5.9876   23.8067 C   0  0  0  0  0  0  0  0  0  0  0  0
  -24.5975  -11.6404   20.7063 C   0  0  0  0  0  0  0  0  0  0  0  0
  -25.2708  -13.7223   20.4891 C   0  0  0  0  0  0  0  0  0  0  0  0
  -22.9095  -13.4950   21.2772 C   0  0  0  0  0  0  0  0  0  0  0  0
  -27.2489  -28.1662   18.7980 C   0  0  0  0  0  0  0  0  0  0  0  0
  -25.8334  -25.7251   17.1981 C   0  0  0  0  0  0  0  0  0  0  0  0
  -29.9947  -21.5396   23.9517 C   0  0  0  0  0  0  0  0  0  0  0  0
  -25.4252  -22.3577   16.8230 C   0  0  0  0  0  0  0  0  0  0  0  0
  -30.7419  -14.7434   20.6528 C   0  0  0  0  0  0  0  0  0  0  0  0
  -26.1127  -32.8747   17.1868 C   0  0  0  0  0  0  0  0  0  0  0  0
  -29.2367  -26.7332   18.2054 C   0  0  0  0  0  0  0  0  0  0  0  0
  -27.0265  -25.1292   19.3397 C   0  0  0  0  0  0  0  0  0  0  0  0
  -25.3744  -31.5411   17.2690 C   0  0  0  0  0  0  0  0  0  0  0  0
  -29.6101  -12.3463   18.2758 C   0  0  0  0  0  0  0  0  0  0  0  0
  -25.5344  -30.9271   18.6561 C   0  0  0  0  0  0  0  0  0  0  0  0
  -28.1705  -12.0588   18.7082 C   0  0  0  0  0  0  0  0  0  0  0  0
  -30.5297  -12.5651   19.4759 C   0  0  0  0  0  0  0  0  0  0  0  0
  -28.6300  -13.2909   20.8664 C   0  0  0  0  0  0  0  0  0  0  0  0
  -27.0083  -30.6371   18.9645 C   0  0  1  0  0  0  0  0  0  0  0  0
  -27.7751  -27.0654   17.9210 C   0  0  1  0  0  0  0  0  0  0  0  0
  -27.6530  -13.1278   19.6906 C   0  0  2  0  0  0  0  0  0  0  0  0
  -28.4412  -17.4425   23.0180 C   0  0  0  0  0  0  0  0  0  0  0  0
  -24.1749  -20.6651   15.4558 C   0  0  0  0  0  0  0  0  0  0  0  0
  -23.2947  -26.3256   18.7806 C   0  0  0  0  0  0  0  0  0  0  0  0
  -22.4221  -24.0801   18.0991 C   0  0  0  0  0  0  0  0  0  0  0  0
  -22.9184  -25.8024   16.3641 C   0  0  0  0  0  0  0  0  0  0  0  0
  -27.9310  -21.1757   15.7826 C   0  0  0  0  0  0  0  0  0  0  0  0
  -29.7369  -19.2539   24.8976 C   0  0  0  0  0  0  0  0  0  0  0  0
  -29.2534  -22.5490   23.1013 C   0  0  0  0  0  0  0  0  0  1  0  0
  -24.8312  -24.6532   17.5526 C   0  0  1  0  0  0  0  0  0  0  0  0
  -25.4580  -21.4700   15.5920 C   0  0  2  0  0  0  0  0  0  0  0  0
  -23.3914  -25.2177   17.7129 C   0  0  0  0  0  0  0  0  0  0  0  0
  -25.8607  -11.5412   20.2837 N   0  0  0  0  0  0  0  0  0  0  0  0
  -26.2428  -12.8237   20.1607 N   0  0  0  0  0  0  0  0  0  0  0  0
  -26.8883  -25.9144   18.1021 N   0  0  0  0  0  0  0  0  0  0  0  0
  -29.9778  -13.5940   20.3601 N   0  0  0  0  0  0  0  0  0  0  0  0
  -25.4867  -15.0532   20.4221 N   0  0  0  0  0  0  0  0  0  0  0  0
  -21.8946  -12.5885   21.6129 N   0  0  0  0  0  0  0  0  0  0  0  0
  -30.1010  -15.6671   21.4777 N   0  0  0  0  0  0  0  0  0  0  0  0
  -27.4398  -29.4347   18.2843 N   0  0  0  0  0  0  0  0  0  0  0  0
  -29.2594  -20.3775   24.1253 N   0  0  0  0  0  0  0  0  0  0  0  0
  -24.9580  -23.6213   16.5291 N   0  0  0  0  0  0  0  0  0  0  0  0
  -26.6031  -20.5193   15.6694 N   0  3  0  0  0  0  0  0  0  0  0  0
  -22.6787  -14.7263   21.3413 O   0  0  0  0  0  0  0  0  0  0  0  0
  -26.7083  -27.8853   19.8613 O   0  0  0  0  0  0  0  0  0  0  0  0
  -25.6896  -26.3658   16.1538 O   0  0  0  0  0  0  0  0  0  0  0  0
  -31.1103  -21.7549   24.4175 O   0  0  0  0  0  0  0  0  0  0  0  0
  -25.7752  -21.9680   17.9348 O   0  0  0  0  0  0  0  0  0  0  0  0
  -31.8704  -14.9096   20.1827 O   0  0  0  0  0  0  0  0  0  0  0  0
  -21.5975   -7.0261   21.6941 O   0  0  0  0  0  0  0  0  0  0  0  0
  -30.0204  -23.7431   22.9526 O   0  0  0  0  0  0  0  0  0  1  0  0
  -18.6196   -6.8574   26.3317 F   0  0  0  0  0  0  0  0  0  0  0  0
  -22.0452   -5.0710   23.5967 F   0  0  0  0  0  0  0  0  0  0  0  0
  1  2  1  0  0  0  0
  1  6  2  0  0  0  0
  2  7  2  0  0  0  0
  3  9  2  0  0  0  0
  3 10  1  0  0  0  0
  4 11  2  0  0  0  0
  4 18  1  0  0  0  0
  5 12  1  0  0  0  0
  5 18  2  0  0  0  0
  6 20  1  0  0  0  0
  7 22  1  0  0  0  0
  8 13  2  0  0  0  0
  8 21  1  0  0  0  0
  9 24  1  0  0  0  0
 10 26  2  0  0  0  0
 11 27  1  0  0  0  0
 12 27  2  0  0  0  0
 13 28  1  0  0  0  0
 14 15  2  0  0  0  0
 14 29  1  0  0  0  0
 15 30  1  0  0  0  0
 16 23  1  0  0  0  0
 16 28  2  0  0  0  0
 17 30  2  0  0  0  0
 17 31  1  0  0  0  0
 18 32  1  0  0  0  0
 19 32  1  0  0  0  0
 19 33  2  0  0  0  0
 19 34  1  0  0  0  0
 20 22  2  0  0  0  0
 20 40  1  0  0  0  0
 21 23  2  0  0  0  0
 21 41  1  0  0  0  0
 22 49  1  0  0  0  0
 23 42  1  0  0  0  0
 24 25  2  0  0  0  0
 24 58  1  0  0  0  0
 25 26  1  0  0  0  0
 25 52  1  0  0  0  0
 26 69  1  0  0  0  0
 27 80  1  0  0  0  0
 28 81  1  0  0  0  0
 29 31  2  0  0  0  0
 29 80  1  0  0  0  0
 30 82  1  0  0  0  0
 31 83  1  0  0  0  0
 32 63  2  0  0  0  0
 33 64  1  0  0  0  0
 33 67  1  0  0  0  0
 34 68  1  0  0  0  0
 34 74  2  0  0  0  0
 35 50  1  0  0  0  0
 35 70  1  0  0  0  0
 35 75  2  0  0  0  0
 36 60  1  0  0  0  0
 36 65  1  0  0  0  0
 36 76  2  0  0  0  0
 37 59  1  0  0  0  0
 37 71  1  0  0  0  0
 37 77  2  0  0  0  0
 38 61  1  0  0  0  0
 38 72  1  0  0  0  0
 38 78  2  0  0  0  0
 39 66  1  0  0  0  0
 39 69  1  0  0  0  0
 39 79  2  0  0  0  0
 40 43  1  0  0  0  0
 41 50  1  0  0  0  0
 42 65  1  0  0  0  0
 43 45  1  0  0  0  0
 44 46  1  0  0  0  0
 44 47  1  0  0  0  0
 45 49  1  0  0  0  0
 46 51  1  0  0  0  0
 47 66  1  0  0  0  0
 48 51  1  0  0  0  0
 48 66  1  0  0  0  0
 49 70  1  0  0  0  0
 50 65  1  0  0  0  0
 51 64  1  0  0  0  0
 53 61  1  0  0  0  0
 54 62  1  0  0  0  0
 55 62  1  0  0  0  0
 56 62  1  0  0  0  0
 57 73  1  0  0  0  0
 58 71  1  0  0  0  0
 59 81  1  0  0  0  0
 60 62  1  0  0  0  0
 60 72  1  0  0  0  0
 61 73  1  0  0  0  0
 63 64  1  0  0  0  0
M  CHG  1  73   1
M  ISO  4  39 100  59 101  69 100  81 101
M  END
> <Batch ID>
0006

> <Smiles>
CNC(C)C(=O)NC(C(=O)N1Cc2cc([101O:1][101CH2:1]C(=O)NCc3cccc([100NH:0][100C:0](=O)N4CCCC(n5nc(-c6ccc(Oc7ccc(F)cc7F)cc6)c(C(N)=O)c5N)C4)c3C)ccc2CC1C(=O)NC1CCCc2ccccc21)C(C)(C)C

> <Shape>
0.219

> <Color>
0.192

> <Negative vol penalty>
0.000

$$$$

  -OEChem-04052315303D

 94102  0     1  0  0  0  0  0999 V2000
  -36.6001  -30.7379   17.0957 C   0  0  0  0  0  0  0  0  0  0  0  0
  -36.5836  -29.6652   17.9813 C   0  0  0  0  0  0  0  0  0  0  0  0
  -23.0675   -9.8089   20.0046 C   0  0  0  0  0  0  0  0  0  0  0  0
  -23.7922   -9.9135   22.3069 C   0  0  0  0  0  0  0  0  0  0  0  0
  -35.5557  -31.6617   17.1019 C   0  0  0  0  0  0  0  0  0  0  0  0
  -35.5233  -29.5162   18.8746 C   0  0  0  0  0  0  0  0  0  0  0  0
  -33.8394  -24.7462   19.1129 C   0  0  0  0  0  0  0  0  0  0  0  0
  -22.3125   -8.6723   20.2938 C   0  0  0  0  0  0  0  0  0  0  0  0
  -23.0372   -8.7769   22.5962 C   0  0  0  0  0  0  0  0  0  0  0  0
  -34.5899  -23.8429   19.8642 C   0  0  0  0  0  0  0  0  0  0  0  0
  -19.3373   -7.9580   21.7329 C   0  0  0  0  0  0  0  0  0  0  0  0
  -18.0377   -7.8978   21.2298 C   0  0  0  0  0  0  0  0  0  0  0  0
  -31.8798  -17.3019   21.4274 C   0  0  0  0  0  0  0  0  0  0  0  0
  -31.5861  -19.3933   22.6007 C   0  0  0  0  0  0  0  0  0  0  0  0
  -33.0411  -24.0900   21.6971 C   0  0  0  0  0  0  0  0  0  0  0  0
  -29.7997  -17.7671   22.5649 C   0  0  0  0  0  0  0  0  0  0  0  0
  -18.6051   -5.8947   20.0039 C   0  0  0  0  0  0  0  0  0  0  0  0
  -23.8075  -10.4295   21.0111 C   0  0  0  0  0  0  0  0  0  0  0  0
  -32.3774  -18.5411   21.8304 C   0  0  0  0  0  0  0  0  0  0  0  0
  -24.1674  -12.9448   20.7846 C   0  0  0  0  0  0  0  0  0  0  0  0
  -34.4773  -31.5185   17.9891 C   0  0  0  0  0  0  0  0  0  0  0  0
  -32.6883  -25.3376   19.6529 C   0  0  0  0  0  0  0  0  0  0  0  0
  -34.4642  -30.4396   18.8937 C   0  0  0  0  0  0  0  0  0  0  0  0
  -32.2764  -24.9986   20.9496 C   0  0  0  0  0  0  0  0  0  0  0  0
  -30.5909  -16.9149   21.7946 C   0  0  0  0  0  0  0  0  0  0  0  0
  -30.2973  -19.0063   22.9679 C   0  0  0  0  0  0  0  0  0  0  0  0
  -22.2973   -8.1563   21.5896 C   0  0  0  0  0  0  0  0  0  0  0  0
  -34.1924  -23.5168   21.1576 C   0  0  0  0  0  0  0  0  0  0  0  0
  -20.2708   -6.9866   21.3714 C   0  0  0  0  0  0  0  0  0  0  0  0
  -17.6716   -6.8661   20.3654 C   0  0  0  0  0  0  0  0  0  0  0  0
  -19.9047   -5.9550   20.5069 C   0  0  0  0  0  0  0  0  0  0  0  0
  -24.5881  -11.6033   20.7128 C   0  0  0  0  0  0  0  0  0  0  0  0
  -25.2698  -13.6711   20.4055 C   0  0  0  0  0  0  0  0  0  0  0  0
  -33.7502  -18.9531   21.4395 C   0  0  0  0  0  0  0  0  0  0  0  0
  -22.8940  -13.4860   21.1604 C   0  0  0  0  0  0  0  0  0  0  0  0
  -31.7978  -28.3154   20.3187 C   0  0  0  0  0  0  0  0  0  0  0  0
  -28.9584  -26.9006   20.9956 C   0  0  0  0  0  0  0  0  0  0  0  0
  -28.0702  -19.8455   23.6138 C   0  0  0  0  0  0  0  0  0  0  0  0
  -27.2725  -24.0749   21.9013 C   0  0  0  0  0  0  0  0  0  0  0  0
  -30.7393  -14.6919   20.6188 C   0  0  0  0  0  0  0  0  0  0  0  0
  -33.3948  -32.5687   17.9912 C   0  0  0  0  0  0  0  0  0  0  0  0
  -31.8749  -26.2898   18.8198 C   0  0  0  0  0  0  0  0  0  0  0  0
  -31.0370  -25.5902   21.5681 C   0  0  0  0  0  0  0  0  0  0  0  0
  -32.1229  -32.1309   18.7130 C   0  0  0  0  0  0  0  0  0  0  0  0
  -29.6457  -12.1817   18.3428 C   0  0  0  0  0  0  0  0  0  0  0  0
  -32.4642  -31.4884   20.0538 C   0  0  0  0  0  0  0  0  0  0  0  0
  -28.1978  -11.9178   18.7624 C   0  0  0  0  0  0  0  0  0  0  0  0
  -30.5438  -12.4584   19.5472 C   0  0  0  0  0  0  0  0  0  0  0  0
  -28.6206  -13.2545   20.8651 C   0  0  0  0  0  0  0  0  0  0  0  0
  -33.3193  -30.2302   19.8608 C   0  0  1  0  0  0  0  0  0  0  0  0
  -31.0059  -27.2235   19.6566 C   0  0  1  0  0  0  0  0  0  0  0  0
  -27.6648  -13.0347   19.6811 C   0  0  2  0  0  0  0  0  0  0  0  0
  -25.9020  -19.5361   24.8967 C   0  0  0  0  0  0  0  0  0  0  0  0
  -31.5612  -21.0456   26.7932 C   0  0  0  0  0  0  0  0  0  0  0  0
  -24.9627  -23.2379   22.4131 C   0  0  0  0  0  0  0  0  0  0  0  0
  -29.0700  -28.2667   23.7217 C   0  0  0  0  0  0  0  0  0  0  0  0
  -27.2965  -26.6847   24.5094 C   0  0  0  0  0  0  0  0  0  0  0  0
  -26.8128  -28.2697   22.6449 C   0  0  0  0  0  0  0  0  0  0  0  0
  -27.3608  -22.1245   19.6771 C   0  0  0  0  0  0  0  0  0  0  0  0
  -27.2484  -20.2416   24.8372 C   0  0  0  0  0  0  0  0  0  0  0  0
  -30.9419  -20.0891   25.7841 C   0  0  0  0  0  0  0  0  0  0  0  0
  -30.1289  -20.8074   24.7138 C   0  0  0  0  0  0  0  0  0  0  0  0
  -35.6287  -21.6215   21.1793 C   0  0  0  0  0  0  0  0  0  1  0  0
  -28.3335  -26.2934   22.2284 C   0  0  1  0  0  0  0  0  0  0  0  0
  -26.0222  -23.4238   21.3380 C   0  0  2  0  0  0  0  0  0  0  0  0
  -35.7052  -20.3596   22.0358 C   0  0  1  0  0  0  0  0  0  0  0  0
  -27.9027  -27.3688   23.2654 C   0  0  0  0  0  0  0  0  0  0  0  0
  -36.4269  -20.6208   23.3450 C   0  0  0  0  0  0  0  0  0  0  0  0
  -25.8585  -11.4817   20.3190 N   0  0  0  0  0  0  0  0  0  0  0  0
  -26.2456  -12.7561   20.1397 N   0  0  0  0  0  0  0  0  0  0  0  0
  -30.2788  -26.5210   20.7159 N   0  0  0  0  0  0  0  0  0  0  0  0
  -29.9781  -13.5304   20.3692 N   0  0  0  0  0  0  0  0  0  0  0  0
  -25.4898  -14.9967   20.2768 N   0  0  0  0  0  0  0  0  0  0  0  0
  -21.8712  -12.5986   21.5218 N   0  0  0  0  0  0  0  0  0  0  0  0
  -30.0854  -15.6561   21.3852 N   0  0  0  0  0  0  0  0  0  0  0  0
  -34.3783  -19.8463   22.2924 N   0  0  0  0  0  0  0  0  0  0  0  0
  -32.4948  -29.1190   19.4367 N   0  0  0  0  0  0  0  0  0  0  0  0
  -27.2430  -25.4460   21.7582 N   0  0  0  0  0  0  0  0  0  0  0  0
  -29.5061  -19.8587   23.7387 N   0  0  0  0  0  0  0  0  0  0  0  0
  -26.3479  -22.0880   20.7632 N   0  3  0  0  0  0  0  0  0  0  0  0
  -34.2366  -18.5114   20.4018 O   0  0  0  0  0  0  0  0  0  0  0  0
  -22.6648  -14.7193   21.1594 O   0  0  0  0  0  0  0  0  0  0  0  0
  -31.7768  -28.4219   21.5393 O   0  0  0  0  0  0  0  0  0  0  0  0
  -28.2968  -27.6773   20.3023 O   0  0  0  0  0  0  0  0  0  0  0  0
  -27.4882  -19.5585   22.5647 O   0  0  0  0  0  0  0  0  0  0  0  0
  -28.1824  -23.4319   22.4199 O   0  0  0  0  0  0  0  0  0  0  0  0
  -31.8764  -14.8331   20.1618 O   0  0  0  0  0  0  0  0  0  0  0  0
  -21.5604   -7.0474   21.8722 O   0  0  0  0  0  0  0  0  0  0  0  0
  -34.9234  -22.6359   21.8934 O   0  0  0  0  0  0  0  0  0  1  0  0
  -16.4231   -6.8076   19.8836 F   0  0  0  0  0  0  0  0  0  0  0  0
  -20.7968   -5.0182   20.1570 F   0  0  0  0  0  0  0  0  0  0  0  0
  -37.7012  -21.0157   23.1276 F   0  0  0  0  0  0  0  0  0  0  0  0
  -35.8162  -21.6016   24.0466 F   0  0  0  0  0  0  0  0  0  0  0  0
  -36.4625  -19.5187   24.1243 F   0  0  0  0  0  0  0  0  0  0  0  0
  1  2  1  0  0  0  0
  1  5  2  0  0  0  0
  2  6  2  0  0  0  0
  3  8  2  0  0  0  0
  3 18  1  0  0  0  0
  4  9  1  0  0  0  0
  4 18  2  0  0  0  0
  5 21  1  0  0  0  0
  6 23  1  0  0  0  0
  7 10  2  0  0  0  0
  7 22  1  0  0  0  0
  8 27  1  0  0  0  0
  9 27  2  0  0  0  0
 10 28  1  0  0  0  0
 11 12  2  0  0  0  0
 11 29  1  0  0  0  0
 12 30  1  0  0  0  0
 13 19  2  0  0  0  0
 13 25  1  0  0  0  0
 14 19  1  0  0  0  0
 14 26  2  0  0  0  0
 15 24  1  0  0  0  0
 15 28  2  0  0  0  0
 16 25  2  0  0  0  0
 16 26  1  0  0  0  0
 17 30  2  0  0  0  0
 17 31  1  0  0  0  0
 18 32  1  0  0  0  0
 19 34  1  0  0  0  0
 20 32  1  0  0  0  0
 20 33  2  0  0  0  0
 20 35  1  0  0  0  0
 21 23  2  0  0  0  0
 21 41  1  0  0  0  0
 22 24  2  0  0  0  0
 22 42  1  0  0  0  0
 23 50  1  0  0  0  0
 24 43  1  0  0  0  0
 25 75  1  0  0  0  0
 26 79  1  0  0  0  0
 27 88  1  0  0  0  0
 28 89  1  0  0  0  0
 29 31  2  0  0  0  0
 29 88  1  0  0  0  0
 30 90  1  0  0  0  0
 31 91  1  0  0  0  0
 32 69  2  0  0  0  0
 33 70  1  0  0  0  0
 33 73  1  0  0  0  0
 34 76  1  0  0  0  0
 34 81  2  0  0  0  0
 35 74  1  0  0  0  0
 35 82  2  0  0  0  0
 36 51  1  0  0  0  0
 36 77  1  0  0  0  0
 36 83  2  0  0  0  0
 37 64  1  0  0  0  0
 37 71  1  0  0  0  0
 37 84  2  0  0  0  0
 38 60  1  0  0  0  0
 38 79  1  0  0  0  0
 38 85  2  0  0  0  0
 39 65  1  0  0  0  0
 39 78  1  0  0  0  0
 39 86  2  0  0  0  0
 40 72  1  0  0  0  0
 40 75  1  0  0  0  0
 40 87  2  0  0  0  0
 41 44  1  0  0  0  0
 42 51  1  0  0  0  0
 43 71  1  0  0  0  0
 44 46  1  0  0  0  0
 45 47  1  0  0  0  0
 45 48  1  0  0  0  0
 46 50  1  0  0  0  0
 47 52  1  0  0  0  0
 48 72  1  0  0  0  0
 49 52  1  0  0  0  0
 49 72  1  0  0  0  0
 50 77  1  0  0  0  0
 51 71  1  0  0  0  0
 52 70  1  0  0  0  0
 53 60  1  0  0  0  0
 54 61  1  0  0  0  0
 55 65  1  0  0  0  0
 56 67  1  0  0  0  0
 57 67  1  0  0  0  0
 58 67  1  0  0  0  0
 59 80  1  0  0  0  0
 61 62  1  0  0  0  0
 62 79  1  0  0  0  0
 63 66  1  0  0  0  0
 63 89  1  0  0  0  0
 64 67  1  0  0  0  0
 64 78  1  0  0  0  0
 65 80  1  0  0  0  0
 66 68  1  0  0  0  0
 66 76  1  0  0  0  0
 68 92  1  0  0  0  0
 68 93  1  0  0  0  0
 68 94  1  0  0  0  0
 69 70  1  0  0  0  0
M  CHG  1  80   1
M  ISO  4  40 100  63 101  75 100  89 101
M  END
> <Batch ID>
0006

> <Smiles>
CCCN(C(=O)CC)c1cc([100NH:0][100C:0](=O)N2CCCC(n3nc(-c4ccc(Oc5ccc(F)cc5F)cc4)c(C(N)=O)c3N)C2)cc(C(=O)NC(C(F)(F)F)[101CH2:1][101O:1]c2ccc3c(c2)CN(C(=O)C(NC(=O)C(C)NC)C(C)(C)C)C(C(=O)NC2CCCc4ccccc42)C3)c1

> <Shape>
0.194

> <Color>
0.186

> <Negative vol penalty>
0.000

$$$$

  -OEChem-04052315303D

101108  0     1  0  0  0  0  0999 V2000
  -20.3944  -23.7055   23.2411 C   0  0  0  0  0  0  0  0  0  0  0  0
  -21.4908  -24.0726   22.4674 C   0  0  0  0  0  0  0  0  0  0  0  0
  -25.8184  -14.8476   19.0074 C   0  0  0  0  0  0  0  0  0  0  0  0
  -26.7675  -14.9066   21.2283 C   0  0  0  0  0  0  0  0  0  0  0  0
  -19.3742  -24.6245   23.4829 C   0  0  0  0  0  0  0  0  0  0  0  0
  -21.5669  -25.3588   21.9340 C   0  0  0  0  0  0  0  0  0  0  0  0
  -26.1557  -27.4260   22.4951 C   0  0  0  0  0  0  0  0  0  0  0  0
  -25.8719  -16.2402   18.9475 C   0  0  0  0  0  0  0  0  0  0  0  0
  -26.8211  -16.2992   21.1685 C   0  0  0  0  0  0  0  0  0  0  0  0
  -27.1536  -27.0097   21.6150 C   0  0  0  0  0  0  0  0  0  0  0  0
  -24.6816  -18.8923   21.5275 C   0  0  0  0  0  0  0  0  0  0  0  0
  -24.2455  -19.6062   22.6436 C   0  0  0  0  0  0  0  0  0  0  0  0
  -26.8210  -29.0065   20.3030 C   0  0  0  0  0  0  0  0  0  0  0  0
  -26.4355  -20.6028   22.8618 C   0  0  0  0  0  0  0  0  0  0  0  0
  -26.2661  -14.1808   20.1478 C   0  0  0  0  0  0  0  0  0  0  0  0
  -27.2086  -11.8348   19.8083 C   0  0  0  0  0  0  0  0  0  0  0  0
  -19.4425  -25.9256   22.9602 C   0  0  0  0  0  0  0  0  0  0  0  0
  -25.4743  -28.6325   22.2794 C   0  0  0  0  0  0  0  0  0  0  0  0
  -20.5460  -26.2956   22.1679 C   0  0  0  0  0  0  0  0  0  0  0  0
  -25.8167  -29.4371   21.1833 C   0  0  0  0  0  0  0  0  0  0  0  0
  -26.3733  -16.9659   20.0280 C   0  0  0  0  0  0  0  0  0  0  0  0
  -27.4844  -27.7985   20.5171 C   0  0  0  0  0  0  0  0  0  0  0  0
  -25.9947  -19.0336   21.0786 C   0  0  0  0  0  0  0  0  0  0  0  0
  -25.1224  -20.4615   23.3108 C   0  0  0  0  0  0  0  0  0  0  0  0
  -26.8716  -19.8889   21.7457 C   0  0  0  0  0  0  0  0  0  0  0  0
  -26.2105  -12.7424   20.2105 C   0  0  0  0  0  0  0  0  0  0  0  0
  -26.6735  -10.5974   20.0707 C   0  0  0  0  0  0  0  0  0  0  0  0
  -28.5038  -12.0876   19.2476 C   0  0  0  0  0  0  0  0  0  0  0  0
  -22.4490  -29.4309   21.7191 C   0  0  0  0  0  0  0  0  0  0  0  0
  -23.6035  -32.4501   21.9907 C   0  0  0  0  0  0  0  0  0  0  0  0
  -28.3740   -7.1203   24.4547 C   0  0  0  0  0  0  0  0  0  0  0  0
  -30.8997  -11.2183   23.7261 C   0  0  0  0  0  0  0  0  0  0  0  0
  -30.1735  -25.0569   18.4810 C   0  0  0  0  0  0  0  0  0  0  0  0
  -26.2815  -34.5565   21.7947 C   0  0  0  0  0  0  0  0  0  0  0  0
  -22.4992   -8.6929   23.9177 C   0  0  0  0  0  0  0  0  0  0  0  0
  -18.2927  -26.8693   23.2093 C   0  0  0  0  0  0  0  0  0  0  0  0
  -24.4189  -29.0804   23.2530 C   0  0  0  0  0  0  0  0  0  0  0  0
  -25.1292  -30.7508   20.9184 C   0  0  0  0  0  0  0  0  0  0  0  0
  -18.6295  -28.3296   22.9193 C   0  0  0  0  0  0  0  0  0  0  0  0
  -22.4762   -8.3214   20.3768 C   0  0  0  0  0  0  0  0  0  0  0  0
  -19.3487  -28.4559   21.5800 C   0  0  0  0  0  0  0  0  0  0  0  0
  -23.5207   -9.3304   19.8964 C   0  0  0  0  0  0  0  0  0  0  0  0
  -21.6955   -8.8466   21.5796 C   0  0  0  0  0  0  0  0  0  0  0  0
  -23.5733  -10.3041   22.2305 C   0  0  0  0  0  0  0  0  0  0  0  0
  -20.6767  -27.6892   21.5925 C   0  0  1  0  0  0  0  0  0  0  0  0
  -23.4348  -30.0782   22.6502 C   0  0  1  0  0  0  0  0  0  0  0  0
  -24.4243   -9.7963   21.0539 C   0  0  2  0  0  0  0  0  0  0  0  0
  -26.9070  -36.9750   22.0332 C   0  0  0  0  0  0  0  0  0  0  0  0
  -22.3509  -33.0398   19.2717 C   0  0  0  0  0  0  0  0  0  0  0  0
  -23.7792  -35.0915   19.1365 C   0  0  0  0  0  0  0  0  0  0  0  0
  -22.0904  -34.8675   20.9586 C   0  0  0  0  0  0  0  0  0  0  0  0
  -28.1522  -33.9738   24.0128 C   0  0  0  0  0  0  0  0  0  0  0  0
  -28.1510   -6.7947   25.9224 C   0  0  0  0  0  0  0  0  0  0  0  0
  -29.4357  -10.8780   23.5001 C   0  0  0  0  0  0  0  0  0  0  0  0
  -30.0023  -23.5608   18.2847 C   0  0  0  0  0  0  0  0  0  0  0  0
  -26.6902   -6.5201   26.2764 C   0  0  0  0  0  0  0  0  0  0  0  0
  -30.7565  -22.7447   19.3320 C   0  0  0  0  0  0  0  0  0  0  0  0
  -29.2162   -9.7079   22.5393 C   0  0  0  0  0  0  0  0  0  0  0  0
  -25.7947   -7.7416   26.0446 C   0  0  0  0  0  0  0  0  0  0  0  0
  -30.5986  -21.2426   19.0879 C   0  0  0  0  0  0  0  0  0  0  0  0
  -31.3820  -20.4286   20.1202 C   0  0  0  0  0  0  0  0  0  0  0  0
  -31.2014  -18.9157   19.9669 C   0  0  0  0  0  0  0  0  0  0  0  0
  -32.0042  -18.1008   20.9834 C   0  0  0  0  0  0  0  0  0  0  0  0
  -31.8112  -16.5984   20.7645 C   0  0  0  0  0  0  0  0  0  0  0  0
  -32.5855  -15.7809   21.7999 C   0  0  0  0  0  0  0  0  0  0  0  0
  -32.3657  -14.2798   21.6009 C   0  0  0  0  0  0  0  0  0  0  0  0
  -24.3340   -7.4290   26.3839 C   0  0  0  0  0  0  0  0  0  0  0  0
  -33.1091  -13.4643   22.6628 C   0  0  0  0  0  0  0  0  0  0  0  0
  -29.8993   -8.4141   22.9774 C   0  0  0  0  0  0  0  0  0  0  0  0
  -32.9210  -11.9613   22.4848 C   0  0  0  0  0  0  0  0  0  0  0  0
  -23.4242   -8.6426   26.2201 C   0  0  0  0  0  0  0  0  0  0  0  0
  -29.4744  -27.2238   17.4792 C   0  0  0  0  0  0  0  0  0  0  0  0
  -28.3350  -27.8063   18.2962 C   0  0  0  0  0  0  0  0  0  1  0  0
  -24.1897  -33.4606   21.0345 C   0  0  1  0  0  0  0  0  0  0  0  0
  -26.7877  -35.6327   22.7381 C   0  0  2  0  0  0  0  0  0  0  0  0
  -23.1143  -34.0892   20.1040 C   0  0  0  0  0  0  0  0  0  0  0  0
  -25.1235  -12.1335   20.6917 N   0  0  0  0  0  0  0  0  0  0  0  0
  -25.4354  -10.8300   20.5935 N   0  0  0  0  0  0  0  0  0  0  0  0
  -24.0998  -31.1423   21.8955 N   0  0  0  0  0  0  0  0  0  0  0  0
  -22.6106   -9.2704   22.6421 N   0  0  0  0  0  0  0  0  0  0  0  0
  -27.1458   -9.3439   19.9030 N   0  0  0  0  0  0  0  0  0  0  0  0
  -28.8956  -13.4178   19.0440 N   0  0  0  0  0  0  0  0  0  0  0  0
  -21.6868  -28.4396   22.3073 N   0  0  0  0  0  0  0  0  0  0  0  0
  -29.4586   -7.9728   24.2718 N   0  0  0  0  0  0  0  0  0  0  0  0
  -31.5392  -11.5716   22.5417 N   0  0  0  0  0  0  0  0  0  0  0  0
  -29.4812  -25.7797   17.5203 N   0  0  0  0  0  0  0  0  0  0  0  0
  -24.9098  -34.4287   21.8546 N   0  0  0  0  0  0  0  0  0  0  0  0
  -23.4092   -9.1463   24.8648 N   0  0  0  0  0  0  0  0  0  0  0  0
  -28.1279  -35.2628   23.2745 N   0  3  0  0  0  0  0  0  0  0  0  0
  -29.2838  -11.1610   18.9211 O   0  0  0  0  0  0  0  0  0  0  0  0
  -22.3837  -29.8042   20.5537 O   0  0  0  0  0  0  0  0  0  0  0  0
  -22.7423  -32.8096   22.7974 O   0  0  0  0  0  0  0  0  0  0  0  0
  -27.6847   -6.6579   23.5496 O   0  0  0  0  0  0  0  0  0  0  0  0
  -31.4330  -11.2002   24.8320 O   0  0  0  0  0  0  0  0  0  0  0  0
  -30.8449  -25.5442   19.3864 O   0  0  0  0  0  0  0  0  0  0  0  0
  -27.0278  -33.8978   21.0738 O   0  0  0  0  0  0  0  0  0  0  0  0
  -21.6549   -7.8329   24.1908 O   0  0  0  0  0  0  0  0  0  0  0  0
  -26.4259  -18.3247   19.9698 O   0  0  0  0  0  0  0  0  0  0  0  0
  -28.4644  -27.3914   19.6500 O   0  0  0  0  0  0  0  0  0  1  0  0
  -24.7030  -21.1482   24.3817 F   0  0  0  0  0  0  0  0  0  0  0  0
  -28.1339  -20.0296   21.3184 F   0  0  0  0  0  0  0  0  0  0  0  0
  1  2  1  0  0  0  0
  1  5  2  0  0  0  0
  2  6  2  0  0  0  0
  3  8  2  0  0  0  0
  3 15  1  0  0  0  0
  4  9  1  0  0  0  0
  4 15  2  0  0  0  0
  5 17  1  0  0  0  0
  6 19  1  0  0  0  0
  7 10  2  0  0  0  0
  7 18  1  0  0  0  0
  8 21  1  0  0  0  0
  9 21  2  0  0  0  0
 10 22  1  0  0  0  0
 11 12  2  0  0  0  0
 11 23  1  0  0  0  0
 12 24  1  0  0  0  0
 13 20  1  0  0  0  0
 13 22  2  0  0  0  0
 14 24  2  0  0  0  0
 14 25  1  0  0  0  0
 15 26  1  0  0  0  0
 16 26  1  0  0  0  0
 16 27  2  0  0  0  0
 16 28  1  0  0  0  0
 17 19  2  0  0  0  0
 17 36  1  0  0  0  0
 18 20  2  0  0  0  0
 18 37  1  0  0  0  0
 19 45  1  0  0  0  0
 20 38  1  0  0  0  0
 21 98  1  0  0  0  0
 22 99  1  0  0  0  0
 23 25  2  0  0  0  0
 23 98  1  0  0  0  0
 24100  1  0  0  0  0
 25101  1  0  0  0  0
 26 77  2  0  0  0  0
 27 78  1  0  0  0  0
 27 81  1  0  0  0  0
 28 82  1  0  0  0  0
 28 90  2  0  0  0  0
 29 46  1  0  0  0  0
 29 83  1  0  0  0  0
 29 91  2  0  0  0  0
 30 74  1  0  0  0  0
 30 79  1  0  0  0  0
 30 92  2  0  0  0  0
 31 53  1  0  0  0  0
 31 84  1  0  0  0  0
 31 93  2  0  0  0  0
 32 54  1  0  0  0  0
 32 85  1  0  0  0  0
 32 94  2  0  0  0  0
 33 55  1  0  0  0  0
 33 86  1  0  0  0  0
 33 95  2  0  0  0  0
 34 75  1  0  0  0  0
 34 87  1  0  0  0  0
 34 96  2  0  0  0  0
 35 80  1  0  0  0  0
 35 88  1  0  0  0  0
 35 97  2  0  0  0  0
 36 39  1  0  0  0  0
 37 46  1  0  0  0  0
 38 79  1  0  0  0  0
 39 41  1  0  0  0  0
 40 42  1  0  0  0  0
 40 43  1  0  0  0  0
 41 45  1  0  0  0  0
 42 47  1  0  0  0  0
 43 80  1  0  0  0  0
 44 47  1  0  0  0  0
 44 80  1  0  0  0  0
 45 83  1  0  0  0  0
 46 79  1  0  0  0  0
 47 78  1  0  0  0  0
 48 75  1  0  0  0  0
 49 76  1  0  0  0  0
 50 76  1  0  0  0  0
 51 76  1  0  0  0  0
 52 89  1  0  0  0  0
 53 56  1  0  0  0  0
 54 58  1  0  0  0  0
 55 57  1  0  0  0  0
 56 59  1  0  0  0  0
 57 60  1  0  0  0  0
 58 69  1  0  0  0  0
 59 67  1  0  0  0  0
 60 61  1  0  0  0  0
 61 62  1  0  0  0  0
 62 63  1  0  0  0  0
 63 64  1  0  0  0  0
 64 65  1  0  0  0  0
 65 66  1  0  0  0  0
 66 68  1  0  0  0  0
 67 71  1  0  0  0  0
 68 70  1  0  0  0  0
 69 84  1  0  0  0  0
 70 85  1  0  0  0  0
 71 88  1  0  0  0  0
 72 73  1  0  0  0  0
 72 86  1  0  0  0  0
 73 99  1  0  0  0  0
 74 76  1  0  0  0  0
 74 87  1  0  0  0  0
 75 89  1  0  0  0  0
 77 78  1  0  0  0  0
M  CHG  1  89   1
M  ISO  4  35 100  73 101  88 100  99 101
M  END
> <Batch ID>
0006

> <Smiles>
CNC(C)C(=O)NC(C(=O)N1Cc2cc([101O:1][101CH2:1]CNC(=O)CCCCCCCCCCCNC(=O)CCCNC(=O)CCCCC[100NH:0][100C:0](=O)N3CCCC(n4nc(-c5ccc(Oc6ccc(F)cc6F)cc5)c(C(N)=O)c4N)C3)ccc2CC1C(=O)NC1CCCc2ccccc21)C(C)(C)C

> <Shape>
0.258

> <Color>
0.090

> <Negative vol penalty>
0.000

$$$$

  -OEChem-04052315303D

 94102  0     1  0  0  0  0  0999 V2000
  -29.8902  -20.3883   24.7620 C   0  0  0  0  0  0  0  0  0  0  0  0
  -29.5792  -21.5720   24.1006 C   0  0  0  0  0  0  0  0  0  0  0  0
  -26.2445  -29.7701   14.9783 C   0  0  0  0  0  0  0  0  0  0  0  0
  -23.0068   -9.8919   19.9744 C   0  0  0  0  0  0  0  0  0  0  0  0
  -23.7358   -9.9404   22.2773 C   0  0  0  0  0  0  0  0  0  0  0  0
  -28.9118  -19.4103   24.9356 C   0  0  0  0  0  0  0  0  0  0  0  0
  -28.2897  -21.7780   23.6115 C   0  0  0  0  0  0  0  0  0  0  0  0
  -26.5395  -26.4173   24.6406 C   0  0  0  0  0  0  0  0  0  0  0  0
  -25.5573  -28.5570   14.9395 C   0  0  0  0  0  0  0  0  0  0  0  0
  -27.1126  -30.0465   16.0346 C   0  0  0  0  0  0  0  0  0  0  0  0
  -22.2439   -8.7548   20.2398 C   0  0  0  0  0  0  0  0  0  0  0  0
  -22.9728   -8.8033   22.5427 C   0  0  0  0  0  0  0  0  0  0  0  0
  -27.0013  -27.4634   23.8430 C   0  0  0  0  0  0  0  0  0  0  0  0
  -21.5018   -5.7039   23.7426 C   0  0  0  0  0  0  0  0  0  0  0  0
  -22.0919   -4.6883   24.4949 C   0  0  0  0  0  0  0  0  0  0  0  0
  -24.9595  -27.3796   22.5612 C   0  0  0  0  0  0  0  0  0  0  0  0
  -26.6061  -27.8965   17.0134 C   0  0  0  0  0  0  0  0  0  0  0  0
  -23.8160   -4.4490   22.8194 C   0  0  0  0  0  0  0  0  0  0  0  0
  -23.7529  -10.4847   20.9931 C   0  0  0  0  0  0  0  0  0  0  0  0
  -24.1310  -13.0016   20.8213 C   0  0  0  0  0  0  0  0  0  0  0  0
  -27.6071  -19.6084   24.4568 C   0  0  0  0  0  0  0  0  0  0  0  0
  -25.2867  -25.8362   24.3971 C   0  0  0  0  0  0  0  0  0  0  0  0
  -27.2932  -20.8012   23.7777 C   0  0  0  0  0  0  0  0  0  0  0  0
  -24.4829  -26.3279   23.3587 C   0  0  0  0  0  0  0  0  0  0  0  0
  -25.7380  -27.6202   15.9570 C   0  0  0  0  0  0  0  0  0  0  0  0
  -22.2268   -8.2105   21.5240 C   0  0  0  0  0  0  0  0  0  0  0  0
  -26.2125  -27.9429   22.8014 C   0  0  0  0  0  0  0  0  0  0  0  0
  -27.2933  -29.1097   17.0521 C   0  0  0  0  0  0  0  0  0  0  0  0
  -22.0688   -6.0921   22.5287 C   0  0  0  0  0  0  0  0  0  0  0  0
  -23.2490   -4.0609   24.0333 C   0  0  0  0  0  0  0  0  0  0  0  0
  -23.2259   -5.4647   22.0671 C   0  0  0  0  0  0  0  0  0  0  0  0
  -24.5417  -11.6590   20.7194 C   0  0  0  0  0  0  0  0  0  0  0  0
  -25.2382  -13.7280   20.4564 C   0  0  0  0  0  0  0  0  0  0  0  0
  -22.8622  -13.5438   21.2110 C   0  0  0  0  0  0  0  0  0  0  0  0
  -24.2803  -22.9317   23.5880 C   0  0  0  0  0  0  0  0  0  0  0  0
  -21.3495  -24.2448   24.0448 C   0  0  0  0  0  0  0  0  0  0  0  0
  -25.0995  -25.3503   16.8418 C   0  0  0  0  0  0  0  0  0  0  0  0
  -19.4192  -27.0572   24.1487 C   0  0  0  0  0  0  0  0  0  0  0  0
  -30.7324  -14.6771   20.6974 C   0  0  0  0  0  0  0  0  0  0  0  0
  -26.5958  -18.5025   24.6267 C   0  0  0  0  0  0  0  0  0  0  0  0
  -24.7916  -24.7263   25.2833 C   0  0  0  0  0  0  0  0  0  0  0  0
  -23.1218  -25.7521   23.0687 C   0  0  0  0  0  0  0  0  0  0  0  0
  -25.1547  -18.9562   24.4081 C   0  0  0  0  0  0  0  0  0  0  0  0
  -29.5943  -12.2548   18.3492 C   0  0  0  0  0  0  0  0  0  0  0  0
  -25.0473  -19.8018   23.1431 C   0  0  0  0  0  0  0  0  0  0  0  0
  -28.1473  -11.9903   18.7687 C   0  0  0  0  0  0  0  0  0  0  0  0
  -30.4982  -12.4903   19.5573 C   0  0  0  0  0  0  0  0  0  0  0  0
  -28.5882  -13.2780   20.9009 C   0  0  0  0  0  0  0  0  0  0  0  0
  -25.8993  -21.0719   23.2546 C   0  0  1  0  0  0  0  0  0  0  0  0
  -23.7189  -23.8667   24.6216 C   0  0  1  0  0  0  0  0  0  0  0  0
  -27.6276  -13.0900   19.7141 C   0  0  2  0  0  0  0  0  0  0  0  0
  -17.0524  -27.8098   24.5085 C   0  0  0  0  0  0  0  0  0  0  0  0
  -20.6213  -23.2869   21.2408 C   0  0  0  0  0  0  0  0  0  0  0  0
  -18.6650  -24.8485   21.2910 C   0  0  0  0  0  0  0  0  0  0  0  0
  -18.8169  -22.9887   22.9466 C   0  0  0  0  0  0  0  0  0  0  0  0
  -20.1702  -28.6758   26.5099 C   0  0  0  0  0  0  0  0  0  0  0  0
  -24.1883  -24.2042   16.4169 C   0  0  0  0  0  0  0  0  0  0  0  0
  -28.8497  -19.4204   19.7104 C   0  0  0  0  0  0  0  0  0  0  0  0
  -29.0717  -18.3222   20.7526 C   0  0  0  0  0  0  0  0  0  0  0  0
  -27.3668  -19.7782   19.5856 C   0  0  0  0  0  0  0  0  0  0  0  0
  -30.5592  -17.9875   20.8978 C   0  0  0  0  0  0  0  0  0  0  0  0
  -27.1524  -20.9055   18.5715 C   0  0  0  0  0  0  0  0  0  0  0  0
  -28.3739  -29.6609   20.4712 C   0  0  0  0  0  0  0  0  0  0  0  0
  -30.8112  -16.8539   21.8866 C   0  0  0  0  0  0  0  0  0  0  0  0
  -24.1935  -23.0242   17.3759 C   0  0  0  0  0  0  0  0  0  0  0  0
  -25.7005  -21.3546   18.4621 C   0  0  0  0  0  0  0  0  0  0  0  0
  -28.0726  -29.0704   21.8397 C   0  0  0  0  0  0  0  0  0  1  0  0
  -27.8364  -28.7913   19.3455 C   0  0  0  0  0  0  0  0  0  0  0  0
  -20.3594  -24.9790   23.1733 C   0  0  1  0  0  0  0  0  0  0  0  0
  -18.3987  -27.5416   25.1629 C   0  0  2  0  0  0  0  0  0  0  0  0
  -19.6421  -24.0355   22.1669 C   0  0  0  0  0  0  0  0  0  0  0  0
  -25.8106  -11.5367   20.3208 N   0  0  0  0  0  0  0  0  0  0  0  0
  -26.2068  -12.8118   20.1689 N   0  0  0  0  0  0  0  0  0  0  0  0
  -22.6847  -24.6641   23.9591 N   0  0  0  0  0  0  0  0  0  0  0  0
  -29.9499  -13.5459   20.4124 N   0  0  0  0  0  0  0  0  0  0  0  0
  -25.4679  -15.0545   20.3565 N   0  0  0  0  0  0  0  0  0  0  0  0
  -21.8334  -12.6562   21.5546 N   0  0  0  0  0  0  0  0  0  0  0  0
  -25.0506  -26.4066   15.9177 N   0  0  0  0  0  0  0  0  0  0  0  0
  -25.2319  -22.0576   24.0778 N   0  0  0  0  0  0  0  0  0  0  0  0
  -19.4582  -25.6806   24.0811 N   0  0  0  0  0  0  0  0  0  0  0  0
  -30.1348  -15.6326   21.5101 N   0  0  0  0  0  0  0  0  0  0  0  0
  -18.8669  -28.8009   25.8078 N   0  3  0  0  0  0  0  0  0  0  0  0
  -25.5695  -22.4820   17.4997 N   0  3  0  0  0  0  0  0  0  0  0  0
  -22.6422  -14.7785   21.2375 O   0  0  0  0  0  0  0  0  0  0  0  0
  -23.8787  -22.9974   22.4321 O   0  0  0  0  0  0  0  0  0  0  0  0
  -20.9518  -23.3376   24.7799 O   0  0  0  0  0  0  0  0  0  0  0  0
  -25.7607  -25.3091   17.8740 O   0  0  0  0  0  0  0  0  0  0  0  0
  -20.1097  -27.8234   23.4804 O   0  0  0  0  0  0  0  0  0  0  0  0
  -31.8767  -14.8269   20.2556 O   0  0  0  0  0  0  0  0  0  0  0  0
  -21.4822   -7.1011   21.7834 O   0  0  0  0  0  0  0  0  0  0  0  0
  -26.6612  -28.9634   22.0210 O   0  0  0  0  0  0  0  0  0  1  0  0
  -28.1462  -29.3813   18.0902 O   0  0  0  0  0  0  0  0  0  0  0  0
  -23.8164   -3.0866   24.7566 F   0  0  0  0  0  0  0  0  0  0  0  0
  -23.7758   -5.8341   20.9023 F   0  0  0  0  0  0  0  0  0  0  0  0
  1  2  1  0  0  0  0
  1  6  2  0  0  0  0
  2  7  2  0  0  0  0
  3  9  1  0  0  0  0
  3 10  2  0  0  0  0
  4 11  2  0  0  0  0
  4 19  1  0  0  0  0
  5 12  1  0  0  0  0
  5 19  2  0  0  0  0
  6 21  1  0  0  0  0
  7 23  1  0  0  0  0
  8 13  2  0  0  0  0
  8 22  1  0  0  0  0
  9 25  2  0  0  0  0
 10 28  1  0  0  0  0
 11 26  1  0  0  0  0
 12 26  2  0  0  0  0
 13 27  1  0  0  0  0
 14 15  2  0  0  0  0
 14 29  1  0  0  0  0
 15 30  1  0  0  0  0
 16 24  1  0  0  0  0
 16 27  2  0  0  0  0
 17 25  1  0  0  0  0
 17 28  2  0  0  0  0
 18 30  2  0  0  0  0
 18 31  1  0  0  0  0
 19 32  1  0  0  0  0
 20 32  1  0  0  0  0
 20 33  2  0  0  0  0
 20 34  1  0  0  0  0
 21 23  2  0  0  0  0
 21 40  1  0  0  0  0
 22 24  2  0  0  0  0
 22 41  1  0  0  0  0
 23 49  1  0  0  0  0
 24 42  1  0  0  0  0
 25 78  1  0  0  0  0
 26 90  1  0  0  0  0
 27 91  1  0  0  0  0
 28 92  1  0  0  0  0
 29 31  2  0  0  0  0
 29 90  1  0  0  0  0
 30 93  1  0  0  0  0
 31 94  1  0  0  0  0
 32 72  2  0  0  0  0
 33 73  1  0  0  0  0
 33 76  1  0  0  0  0
 34 77  1  0  0  0  0
 34 84  2  0  0  0  0
 35 50  1  0  0  0  0
 35 79  1  0  0  0  0
 35 85  2  0  0  0  0
 36 69  1  0  0  0  0
 36 74  1  0  0  0  0
 36 86  2  0  0  0  0
 37 57  1  0  0  0  0
 37 78  1  0  0  0  0
 37 87  2  0  0  0  0
 38 70  1  0  0  0  0
 38 80  1  0  0  0  0
 38 88  2  0  0  0  0
 39 75  1  0  0  0  0
 39 81  1  0  0  0  0
 39 89  2  0  0  0  0
 40 43  1  0  0  0  0
 41 50  1  0  0  0  0
 42 74  1  0  0  0  0
 43 45  1  0  0  0  0
 44 46  1  0  0  0  0
 44 47  1  0  0  0  0
 45 49  1  0  0  0  0
 46 51  1  0  0  0  0
 47 75  1  0  0  0  0
 48 51  1  0  0  0  0
 48 75  1  0  0  0  0
 49 79  1  0  0  0  0
 50 74  1  0  0  0  0
 51 73  1  0  0  0  0
 52 70  1  0  0  0  0
 53 71  1  0  0  0  0
 54 71  1  0  0  0  0
 55 71  1  0  0  0  0
 56 82  1  0  0  0  0
 57 65  1  0  0  0  0
 58 59  1  0  0  0  0
 58 60  1  0  0  0  0
 59 61  1  0  0  0  0
 60 62  1  0  0  0  0
 61 64  1  0  0  0  0
 62 66  1  0  0  0  0
 63 67  1  0  0  0  0
 63 68  1  0  0  0  0
 64 81  1  0  0  0  0
 65 83  1  0  0  0  0
 66 83  1  0  0  0  0
 67 91  1  0  0  0  0
 68 92  1  0  0  0  0
 69 71  1  0  0  0  0
 69 80  1  0  0  0  0
 70 82  1  0  0  0  0
 72 73  1  0  0  0  0
M  CHG  2  82   1  83   1
M  ISO  4  39 100  67 101  81 100  91 101
M  END
> <Batch ID>
0006

> <Smiles>
CNC(C)C(=O)NC(C(=O)N1Cc2cc([101O:1][101CH2:1]CCOc3cccc(NC(=O)CCNCCCCCCC[100NH:0][100C:0](=O)N4CCCC(n5nc(-c6ccc(Oc7ccc(F)cc7F)cc6)c(C(N)=O)c5N)C4)c3)ccc2CC1C(=O)NC1CCCc2ccccc21)C(C)(C)C

> <Shape>
0.227

> <Color>
0.182

> <Negative vol penalty>
0.000

$$$$

  -OEChem-04052315303D

 81 89  0     1  0  0  0  0  0999 V2000
  -20.2839  -34.7522   21.8265 C   0  0  0  0  0  0  0  0  0  0  0  0
  -21.5197  -34.2352   21.4512 C   0  0  0  0  0  0  0  0  0  0  0  0
  -26.0219  -22.7170   17.5877 C   0  0  0  0  0  0  0  0  0  0  0  0
  -26.4309  -12.2361   20.7809 C   0  0  0  0  0  0  0  0  0  0  0  0
  -24.7691  -13.6634   19.7618 C   0  0  0  0  0  0  0  0  0  0  0  0
  -19.4932  -34.0662   22.7474 C   0  0  0  0  0  0  0  0  0  0  0  0
  -21.9660  -33.0322   21.9973 C   0  0  0  0  0  0  0  0  0  0  0  0
  -25.3247  -28.7415   19.2020 C   0  0  0  0  0  0  0  0  0  0  0  0
  -26.2981  -21.6776   18.4758 C   0  0  0  0  0  0  0  0  0  0  0  0
  -26.9659  -23.7216   17.3744 C   0  0  0  0  0  0  0  0  0  0  0  0
  -25.4186  -11.4380   21.3138 C   0  0  0  0  0  0  0  0  0  0  0  0
  -23.7569  -12.8653   20.2947 C   0  0  0  0  0  0  0  0  0  0  0  0
  -26.6900  -28.4597   19.2199 C   0  0  0  0  0  0  0  0  0  0  0  0
  -23.2780   -8.8176   22.6428 C   0  0  0  0  0  0  0  0  0  0  0  0
  -23.4223   -7.4339   22.5422 C   0  0  0  0  0  0  0  0  0  0  0  0
  -26.3184  -26.7974   20.9281 C   0  0  0  0  0  0  0  0  0  0  0  0
  -28.4623  -22.6471   18.9375 C   0  0  0  0  0  0  0  0  0  0  0  0
  -23.4834   -7.6153   20.1338 C   0  0  0  0  0  0  0  0  0  0  0  0
  -26.1061  -13.3488   20.0049 C   0  0  0  0  0  0  0  0  0  0  0  0
  -27.7860  -14.0226   18.2072 C   0  0  0  0  0  0  0  0  0  0  0  0
  -19.9257  -32.8494   23.2978 C   0  0  0  0  0  0  0  0  0  0  0  0
  -24.4460  -28.0598   20.0562 C   0  0  0  0  0  0  0  0  0  0  0  0
  -21.1808  -32.3300   22.9274 C   0  0  0  0  0  0  0  0  0  0  0  0
  -24.9420  -27.0706   20.9172 C   0  0  0  0  0  0  0  0  0  0  0  0
  -27.5183  -21.6426   19.1507 C   0  0  0  0  0  0  0  0  0  0  0  0
  -24.0816  -11.7526   21.0707 C   0  0  0  0  0  0  0  0  0  0  0  0
  -27.1874  -27.4896   20.0851 C   0  0  0  0  0  0  0  0  0  0  0  0
  -28.1861  -23.6866   18.0493 C   0  0  0  0  0  0  0  0  0  0  0  0
  -23.2362   -9.6002   21.4888 C   0  0  0  0  0  0  0  0  0  0  0  0
  -23.5251   -6.8328   21.2877 C   0  0  0  0  0  0  0  0  0  0  0  0
  -23.3389   -8.9990   20.2344 C   0  0  0  0  0  0  0  0  0  0  0  0
  -27.1513  -14.1740   19.4546 C   0  0  0  0  0  0  0  0  0  0  0  0
  -28.6968  -15.0495   18.1585 C   0  0  0  0  0  0  0  0  0  0  0  0
  -27.5714  -13.0414   17.1840 C   0  0  0  0  0  0  0  0  0  0  0  0
  -22.4982  -28.9156   22.4178 C   0  0  0  0  0  0  0  0  0  0  0  0
  -21.6049  -25.7999   22.2876 C   0  0  0  0  0  0  0  0  0  0  0  0
  -22.3957  -22.5927   21.4301 C   0  0  0  0  0  0  0  0  0  0  0  0
  -28.9596  -20.4016   20.8026 C   0  0  0  0  0  0  0  0  0  0  0  0
  -19.0570  -32.1679   24.3253 C   0  0  0  0  0  0  0  0  0  0  0  0
  -22.9723  -28.3566   20.0056 C   0  0  0  0  0  0  0  0  0  0  0  0
  -24.0377  -26.2961   21.8397 C   0  0  0  0  0  0  0  0  0  0  0  0
  -19.4370  -30.7106   24.5741 C   0  0  0  0  0  0  0  0  0  0  0  0
  -31.3884  -17.8059   21.0031 C   0  0  0  0  0  0  0  0  0  0  0  0
  -20.9465  -30.5745   24.7465 C   0  0  0  0  0  0  0  0  0  0  0  0
  -30.6370  -16.5674   20.5095 C   0  0  0  0  0  0  0  0  0  0  0  0
  -30.4866  -18.7272   21.8225 C   0  0  0  0  0  0  0  0  0  0  0  0
  -28.4820  -17.8777   20.6696 C   0  0  0  0  0  0  0  0  0  0  0  0
  -21.6886  -31.0154   23.4790 C   0  0  1  0  0  0  0  0  0  0  0  0
  -22.2394  -27.9635   21.2846 C   0  0  1  0  0  0  0  0  0  0  0  0
  -29.3322  -16.9515   19.7847 C   0  0  2  0  0  0  0  0  0  0  0  0
  -21.4790  -20.2572   21.4801 C   0  0  0  0  0  0  0  0  0  0  0  0
  -22.1896  -25.6371   25.2778 C   0  0  0  0  0  0  0  0  0  0  0  0
  -22.1828  -23.1419   25.0724 C   0  0  0  0  0  0  0  0  0  0  0  0
  -20.1168  -24.4399   24.5534 C   0  0  0  0  0  0  0  0  0  0  0  0
  -22.5022  -22.3636   18.4813 C   0  0  0  0  0  0  0  0  0  0  0  0
  -30.4184  -26.4363   18.8350 C   0  0  0  0  0  0  0  0  0  0  0  0
  -29.2392  -27.3951   18.8863 C   0  0  0  0  0  0  0  0  0  1  0  0
  -29.9755  -24.9845   18.9264 C   0  0  0  0  0  0  0  0  0  0  0  0
  -22.0700  -24.5258   22.9504 C   0  0  1  0  0  0  0  0  0  0  0  0
  -21.6209  -21.5341   20.6663 C   0  0  2  0  0  0  0  0  0  0  0  0
  -21.6573  -24.4520   24.4476 C   0  0  0  0  0  0  0  0  0  0  0  0
  -27.6194  -15.2150   20.1483 N   0  0  0  0  0  0  0  0  0  0  0  0
  -28.5579  -15.7270   19.3340 N   0  0  0  0  0  0  0  0  0  0  0  0
  -22.6055  -26.6270   21.7578 N   0  0  0  0  0  0  0  0  0  0  0  0
  -29.2723  -19.0521   21.0709 N   0  0  0  0  0  0  0  0  0  0  0  0
  -29.5949  -15.4300   17.2252 N   0  0  0  0  0  0  0  0  0  0  0  0
  -26.5968  -12.0569   17.3962 N   0  0  0  0  0  0  0  0  0  0  0  0
  -27.7986  -20.5863   20.0526 N   0  0  0  0  0  0  0  0  0  0  0  0
  -21.6207  -29.9819   22.4683 N   0  0  0  0  0  0  0  0  0  0  0  0
  -21.5571  -23.4305   22.1345 N   0  0  0  0  0  0  0  0  0  0  0  0
  -22.3159  -21.2033   19.3902 N   0  3  0  0  0  0  0  0  0  0  0  0
  -28.2361  -13.0281   16.1202 O   0  0  0  0  0  0  0  0  0  0  0  0
  -23.4244  -28.6981   23.1901 O   0  0  0  0  0  0  0  0  0  0  0  0
  -20.3978  -26.0486   22.2352 O   0  0  0  0  0  0  0  0  0  0  0  0
  -23.6223  -22.6666   21.4073 O   0  0  0  0  0  0  0  0  0  0  0  0
  -29.6841  -21.3240   21.1851 O   0  0  0  0  0  0  0  0  0  0  0  0
  -23.0936  -10.9739   21.5903 O   0  0  0  0  0  0  0  0  0  0  0  0
  -28.5197  -27.2131   20.1052 O   0  0  0  0  0  0  0  0  0  1  0  0
  -29.1137  -24.6737   17.8399 O   0  0  0  0  0  0  0  0  0  0  0  0
  -23.6653   -5.5042   21.1914 F   0  0  0  0  0  0  0  0  0  0  0  0
  -23.3007   -9.7458   19.1223 F   0  0  0  0  0  0  0  0  0  0  0  0
  1  2  1  0  0  0  0
  1  6  2  0  0  0  0
  2  7  2  0  0  0  0
  3  9  1  0  0  0  0
  3 10  2  0  0  0  0
  4 11  2  0  0  0  0
  4 19  1  0  0  0  0
  5 12  1  0  0  0  0
  5 19  2  0  0  0  0
  6 21  1  0  0  0  0
  7 23  1  0  0  0  0
  8 13  2  0  0  0  0
  8 22  1  0  0  0  0
  9 25  2  0  0  0  0
 10 28  1  0  0  0  0
 11 26  1  0  0  0  0
 12 26  2  0  0  0  0
 13 27  1  0  0  0  0
 14 15  2  0  0  0  0
 14 29  1  0  0  0  0
 15 30  1  0  0  0  0
 16 24  1  0  0  0  0
 16 27  2  0  0  0  0
 17 25  1  0  0  0  0
 17 28  2  0  0  0  0
 18 30  2  0  0  0  0
 18 31  1  0  0  0  0
 19 32  1  0  0  0  0
 20 32  1  0  0  0  0
 20 33  2  0  0  0  0
 20 34  1  0  0  0  0
 21 23  2  0  0  0  0
 21 39  1  0  0  0  0
 22 24  2  0  0  0  0
 22 40  1  0  0  0  0
 23 48  1  0  0  0  0
 24 41  1  0  0  0  0
 25 68  1  0  0  0  0
 26 77  1  0  0  0  0
 27 78  1  0  0  0  0
 28 79  1  0  0  0  0
 29 31  2  0  0  0  0
 29 77  1  0  0  0  0
 30 80  1  0  0  0  0
 31 81  1  0  0  0  0
 32 62  2  0  0  0  0
 33 63  1  0  0  0  0
 33 66  1  0  0  0  0
 34 67  1  0  0  0  0
 34 72  2  0  0  0  0
 35 49  1  0  0  0  0
 35 69  1  0  0  0  0
 35 73  2  0  0  0  0
 36 59  1  0  0  0  0
 36 64  1  0  0  0  0
 36 74  2  0  0  0  0
 37 60  1  0  0  0  0
 37 70  1  0  0  0  0
 37 75  2  0  0  0  0
 38 65  1  0  0  0  0
 38 68  1  0  0  0  0
 38 76  2  0  0  0  0
 39 42  1  0  0  0  0
 40 49  1  0  0  0  0
 41 64  1  0  0  0  0
 42 44  1  0  0  0  0
 43 45  1  0  0  0  0
 43 46  1  0  0  0  0
 44 48  1  0  0  0  0
 45 50  1  0  0  0  0
 46 65  1  0  0  0  0
 47 50  1  0  0  0  0
 47 65  1  0  0  0  0
 48 69  1  0  0  0  0
 49 64  1  0  0  0  0
 50 63  1  0  0  0  0
 51 60  1  0  0  0  0
 52 61  1  0  0  0  0
 53 61  1  0  0  0  0
 54 61  1  0  0  0  0
 55 71  1  0  0  0  0
 56 57  1  0  0  0  0
 56 58  1  0  0  0  0
 57 78  1  0  0  0  0
 58 79  1  0  0  0  0
 59 61  1  0  0  0  0
 59 70  1  0  0  0  0
 60 71  1  0  0  0  0
 62 63  1  0  0  0  0
M  CHG  1  71   1
M  ISO  4  38 100  57 101  68 100  78 101
M  END
> <Batch ID>
0006

> <Smiles>
CNC(C)C(=O)NC(C(=O)N1Cc2cc([101O:1][101CH2:1]CCOc3cccc([100NH:0][100C:0](=O)N4CCCC(n5nc(-c6ccc(Oc7ccc(F)cc7F)cc6)c(C(N)=O)c5N)C4)c3)ccc2CC1C(=O)NC1CCCc2ccccc21)C(C)(C)C

> <Shape>
0.241

> <Color>
0.090

> <Negative vol penalty>
0.000

$$$$

  -OEChem-04052315303D

 91 99  0     1  0  0  0  0  0999 V2000
  -25.6423  -23.2745   21.2750 C   0  0  0  0  0  0  0  0  0  0  0  0
  -24.9840  -22.0899   20.9606 C   0  0  0  0  0  0  0  0  0  0  0  0
  -20.0711  -21.0642   19.3062 C   0  0  0  0  0  0  0  0  0  0  0  0
  -25.0595  -30.5609   20.3414 C   0  0  0  0  0  0  0  0  0  0  0  0
  -24.3807  -28.7494   21.7888 C   0  0  0  0  0  0  0  0  0  0  0  0
  -18.9840  -20.7173   18.5040 C   0  0  0  0  0  0  0  0  0  0  0  0
  -26.9762  -23.4479   20.9081 C   0  0  0  0  0  0  0  0  0  0  0  0
  -25.6589  -21.0785   20.2782 C   0  0  0  0  0  0  0  0  0  0  0  0
  -24.8175  -16.4975   22.2660 C   0  0  0  0  0  0  0  0  0  0  0  0
  -21.0351  -21.9521   18.8286 C   0  0  0  0  0  0  0  0  0  0  0  0
  -24.6429  -31.4836   21.3008 C   0  0  0  0  0  0  0  0  0  0  0  0
  -23.9641  -29.6722   22.7483 C   0  0  0  0  0  0  0  0  0  0  0  0
  -23.6035  -15.8839   21.9601 C   0  0  0  0  0  0  0  0  0  0  0  0
  -24.0906  -34.3109   23.5182 C   0  0  0  0  0  0  0  0  0  0  0  0
  -24.9380  -35.3829   23.7979 C   0  0  0  0  0  0  0  0  0  0  0  0
  -19.8250  -22.1461   16.7466 C   0  0  0  0  0  0  0  0  0  0  0  0
  -24.7087  -14.5463   20.2842 C   0  0  0  0  0  0  0  0  0  0  0  0
  -26.6663  -33.8388   24.4804 C   0  0  0  0  0  0  0  0  0  0  0  0
  -24.9284  -29.1937   20.5853 C   0  0  0  0  0  0  0  0  0  0  0  0
  -18.8610  -21.2582   17.2242 C   0  0  0  0  0  0  0  0  0  0  0  0
  -26.6351  -27.6612   19.4691 C   0  0  0  0  0  0  0  0  0  0  0  0
  -27.6706  -22.4342   20.2293 C   0  0  0  0  0  0  0  0  0  0  0  0
  -25.9861  -16.1473   21.5746 C   0  0  0  0  0  0  0  0  0  0  0  0
  -27.0030  -21.2390   19.9006 C   0  0  0  0  0  0  0  0  0  0  0  0
  -25.9367  -15.1551   20.5850 C   0  0  0  0  0  0  0  0  0  0  0  0
  -20.9120  -22.4930   17.5488 C   0  0  0  0  0  0  0  0  0  0  0  0
  -24.0952  -31.0393   22.5043 C   0  0  0  0  0  0  0  0  0  0  0  0
  -23.5484  -14.9102   20.9671 C   0  0  0  0  0  0  0  0  0  0  0  0
  -24.5310  -33.0027   23.7197 C   0  0  0  0  0  0  0  0  0  0  0  0
  -26.2258  -35.1469   24.2790 C   0  0  0  0  0  0  0  0  0  0  0  0
  -25.8189  -32.7667   24.2008 C   0  0  0  0  0  0  0  0  0  0  0  0
  -25.3580  -28.2401   19.5944 C   0  0  0  0  0  0  0  0  0  0  0  0
  -26.5301  -26.8299   18.3808 C   0  0  0  0  0  0  0  0  0  0  0  0
  -17.7026  -20.8879   16.3709 C   0  0  0  0  0  0  0  0  0  0  0  0
  -27.8112  -27.8573   20.2654 C   0  0  0  0  0  0  0  0  0  0  0  0
  -28.0308  -17.6957   19.6970 C   0  0  0  0  0  0  0  0  0  0  0  0
  -29.6831  -14.9087   19.8552 C   0  0  0  0  0  0  0  0  0  0  0  0
  -17.7669  -14.9587   19.0135 C   0  0  0  0  0  0  0  0  0  0  0  0
  -29.6336  -11.5372   20.3816 C   0  0  0  0  0  0  0  0  0  0  0  0
  -21.9196  -24.0221   15.8188 C   0  0  0  0  0  0  0  0  0  0  0  0
  -29.0978  -22.6863   19.8117 C   0  0  0  0  0  0  0  0  0  0  0  0
  -27.2928  -16.7994   21.9348 C   0  0  0  0  0  0  0  0  0  0  0  0
  -27.1667  -14.7288   19.8274 C   0  0  0  0  0  0  0  0  0  0  0  0
  -29.8513  -21.4175   19.4210 C   0  0  0  0  0  0  0  0  0  0  0  0
  -24.1346  -26.3355   14.2636 C   0  0  0  0  0  0  0  0  0  0  0  0
  -29.0016  -20.5569   18.4914 C   0  0  0  0  0  0  0  0  0  0  0  0
  -24.8204  -27.0295   15.4427 C   0  0  0  0  0  0  0  0  0  0  0  0
  -22.6675  -26.0301   14.5605 C   0  0  0  0  0  0  0  0  0  0  0  0
  -23.1132  -25.9805   16.9829 C   0  0  0  0  0  0  0  0  0  0  0  0
  -27.7084  -20.1087   19.1830 C   0  0  1  0  0  0  0  0  0  0  0  0
  -28.3236  -16.7323   20.8122 C   0  0  1  0  0  0  0  0  0  0  0  0
  -24.6097  -26.2500   16.7555 C   0  0  2  0  0  0  0  0  0  0  0  0
  -31.1329   -9.5250   20.4055 C   0  0  0  0  0  0  0  0  0  0  0  0
  -29.7165  -14.9004   16.8042 C   0  0  0  0  0  0  0  0  0  0  0  0
  -30.3506  -12.4798   16.8871 C   0  0  0  0  0  0  0  0  0  0  0  0
  -31.8659  -14.1988   17.8729 C   0  0  0  0  0  0  0  0  0  0  0  0
  -29.0581  -10.9981   23.2341 C   0  0  0  0  0  0  0  0  0  0  0  0
  -18.8346  -15.4166   19.9910 C   0  0  0  0  0  0  0  0  0  0  0  0
  -20.1380  -14.6413   19.8360 C   0  0  0  0  0  0  0  0  0  0  0  0
  -15.3869  -17.7808   17.3898 C   0  0  0  0  0  0  0  0  0  0  0  0
  -15.3095  -18.6013   16.0984 C   0  0  0  0  0  0  0  0  0  0  0  0
  -15.4057  -16.2784   17.0902 C   0  0  0  0  0  0  0  0  0  0  0  0
  -15.3485  -20.1042   16.3555 C   0  0  0  0  0  0  0  0  0  0  0  0
  -15.4226  -15.4283   18.3564 C   0  0  0  0  0  0  0  0  0  0  0  0
  -21.1791  -15.0815   20.8549 C   0  0  0  0  0  0  0  0  0  1  0  0
  -29.7029  -13.6306   19.0522 C   0  0  1  0  0  0  0  0  0  0  0  0
  -30.5104  -10.6378   21.2342 C   0  0  2  0  0  0  0  0  0  0  0  0
  -30.3853  -13.8116   17.6669 C   0  0  0  0  0  0  0  0  0  0  0  0
  -24.5044  -27.8128   18.6602 N   0  0  0  0  0  0  0  0  0  0  0  0
  -25.2465  -26.9567   17.9375 N   0  0  0  0  0  0  0  0  0  0  0  0
  -28.4193  -15.4002   20.2117 N   0  0  0  0  0  0  0  0  0  0  0  0
  -22.5457  -25.2864   15.8163 N   0  0  0  0  0  0  0  0  0  0  0  0
  -27.4114  -26.0102   17.7694 N   0  0  0  0  0  0  0  0  0  0  0  0
  -27.7454  -28.7468   21.3465 N   0  0  0  0  0  0  0  0  0  0  0  0
  -21.8913  -23.3951   17.0640 N   0  0  0  0  0  0  0  0  0  0  0  0
  -16.5434  -20.5124   17.0407 N   0  0  0  0  0  0  0  0  0  0  0  0
  -27.9752  -19.0177   20.0956 N   0  0  0  0  0  0  0  0  0  0  0  0
  -16.5894  -15.6753   19.1698 N   0  0  0  0  0  0  0  0  0  0  0  0
  -30.3320  -12.6247   19.9012 N   0  0  0  0  0  0  0  0  0  0  0  0
  -29.7087  -10.0180   22.3269 N   0  3  0  0  0  0  0  0  0  0  0  0
  -17.8259  -20.9102   15.1491 O   0  0  0  0  0  0  0  0  0  0  0  0
  -28.8932  -27.2739   20.0154 O   0  0  0  0  0  0  0  0  0  0  0  0
  -27.8689  -17.2713   18.5589 O   0  0  0  0  0  0  0  0  0  0  0  0
  -30.7499  -15.4472   20.1613 O   0  0  0  0  0  0  0  0  0  0  0  0
  -17.9434  -14.0628   18.1922 O   0  0  0  0  0  0  0  0  0  0  0  0
  -28.4488  -11.2969   20.1605 O   0  0  0  0  0  0  0  0  0  0  0  0
  -21.4677  -23.5196   14.7866 O   0  0  0  0  0  0  0  0  0  0  0  0
  -23.6888  -31.9394   23.4409 O   0  0  0  0  0  0  0  0  0  0  0  0
  -22.3647  -14.3102   20.6661 O   0  0  0  0  0  0  0  0  0  1  0  0
  -27.0400  -36.1765   24.5460 F   0  0  0  0  0  0  0  0  0  0  0  0
  -26.2480  -31.5122   24.3952 F   0  0  0  0  0  0  0  0  0  0  0  0
  1  2  1  0  0  0  0
  1  7  2  0  0  0  0
  2  8  2  0  0  0  0
  3  6  2  0  0  0  0
  3 10  1  0  0  0  0
  4 11  2  0  0  0  0
  4 19  1  0  0  0  0
  5 12  1  0  0  0  0
  5 19  2  0  0  0  0
  6 20  1  0  0  0  0
  7 22  1  0  0  0  0
  8 24  1  0  0  0  0
  9 13  2  0  0  0  0
  9 23  1  0  0  0  0
 10 26  2  0  0  0  0
 11 27  1  0  0  0  0
 12 27  2  0  0  0  0
 13 28  1  0  0  0  0
 14 15  2  0  0  0  0
 14 29  1  0  0  0  0
 15 30  1  0  0  0  0
 16 20  2  0  0  0  0
 16 26  1  0  0  0  0
 17 25  1  0  0  0  0
 17 28  2  0  0  0  0
 18 30  2  0  0  0  0
 18 31  1  0  0  0  0
 19 32  1  0  0  0  0
 20 34  1  0  0  0  0
 21 32  1  0  0  0  0
 21 33  2  0  0  0  0
 21 35  1  0  0  0  0
 22 24  2  0  0  0  0
 22 41  1  0  0  0  0
 23 25  2  0  0  0  0
 23 42  1  0  0  0  0
 24 50  1  0  0  0  0
 25 43  1  0  0  0  0
 26 75  1  0  0  0  0
 27 88  1  0  0  0  0
 28 89  1  0  0  0  0
 29 31  2  0  0  0  0
 29 88  1  0  0  0  0
 30 90  1  0  0  0  0
 31 91  1  0  0  0  0
 32 69  2  0  0  0  0
 33 70  1  0  0  0  0
 33 73  1  0  0  0  0
 34 76  1  0  0  0  0
 34 81  2  0  0  0  0
 35 74  1  0  0  0  0
 35 82  2  0  0  0  0
 36 51  1  0  0  0  0
 36 77  1  0  0  0  0
 36 83  2  0  0  0  0
 37 66  1  0  0  0  0
 37 71  1  0  0  0  0
 37 84  2  0  0  0  0
 38 58  1  0  0  0  0
 38 78  1  0  0  0  0
 38 85  2  0  0  0  0
 39 67  1  0  0  0  0
 39 79  1  0  0  0  0
 39 86  2  0  0  0  0
 40 72  1  0  0  0  0
 40 75  1  0  0  0  0
 40 87  2  0  0  0  0
 41 44  1  0  0  0  0
 42 51  1  0  0  0  0
 43 71  1  0  0  0  0
 44 46  1  0  0  0  0
 45 47  1  0  0  0  0
 45 48  1  0  0  0  0
 46 50  1  0  0  0  0
 47 52  1  0  0  0  0
 48 72  1  0  0  0  0
 49 52  1  0  0  0  0
 49 72  1  0  0  0  0
 50 77  1  0  0  0  0
 51 71  1  0  0  0  0
 52 70  1  0  0  0  0
 53 67  1  0  0  0  0
 54 68  1  0  0  0  0
 55 68  1  0  0  0  0
 56 68  1  0  0  0  0
 57 80  1  0  0  0  0
 58 59  1  0  0  0  0
 59 65  1  0  0  0  0
 60 61  1  0  0  0  0
 60 62  1  0  0  0  0
 61 63  1  0  0  0  0
 62 64  1  0  0  0  0
 63 76  1  0  0  0  0
 64 78  1  0  0  0  0
 65 89  1  0  0  0  0
 66 68  1  0  0  0  0
 66 79  1  0  0  0  0
 67 80  1  0  0  0  0
 69 70  1  0  0  0  0
M  CHG  1  80   1
M  ISO  4  40 100  65 101  75 100  89 101
M  END
> <Batch ID>
0006

> <Smiles>
CNC(C)C(=O)NC(C(=O)N1Cc2cc([101O:1][101CH2:1]CCC(=O)NCCCCCNC(=O)c3cccc([100NH:0][100C:0](=O)N4CCCC(n5nc(-c6ccc(Oc7ccc(F)cc7F)cc6)c(C(N)=O)c5N)C4)c3)ccc2CC1C(=O)NC1CCCc2ccccc21)C(C)(C)C

> <Shape>
0.228

> <Color>
0.061

> <Negative vol penalty>
0.000

$$$$

  -OEChem-04052315303D

 94101  0     1  0  0  0  0  0999 V2000
  -21.9724   -7.5370   24.5748 C   0  0  0  0  0  0  0  0  0  0  0  0
  -22.8579   -8.5916   24.7721 C   0  0  0  0  0  0  0  0  0  0  0  0
  -23.9797  -32.4562   23.5972 C   0  0  0  0  0  0  0  0  0  0  0  0
  -24.9163  -31.4164   21.6278 C   0  0  0  0  0  0  0  0  0  0  0  0
  -22.0012   -6.8183   23.3805 C   0  0  0  0  0  0  0  0  0  0  0  0
  -23.7736   -8.9275   23.7755 C   0  0  0  0  0  0  0  0  0  0  0  0
  -24.0464  -13.9231   22.9915 C   0  0  0  0  0  0  0  0  0  0  0  0
  -24.8748  -33.5174   23.4627 C   0  0  0  0  0  0  0  0  0  0  0  0
  -25.8115  -32.4776   21.4933 C   0  0  0  0  0  0  0  0  0  0  0  0
  -24.7814  -14.6724   23.9092 C   0  0  0  0  0  0  0  0  0  0  0  0
  -25.1637  -36.3088   21.5766 C   0  0  0  0  0  0  0  0  0  0  0  0
  -24.6629  -37.6022   21.7251 C   0  0  0  0  0  0  0  0  0  0  0  0
  -26.6469  -14.7040   22.3801 C   0  0  0  0  0  0  0  0  0  0  0  0
  -26.1699  -37.9732   23.5767 C   0  0  0  0  0  0  0  0  0  0  0  0
  -24.0004  -31.4057   22.6797 C   0  0  0  0  0  0  0  0  0  0  0  0
  -21.7883  -30.2066   22.2596 C   0  0  0  0  0  0  0  0  0  0  0  0
  -22.9111   -7.1516   22.3648 C   0  0  0  0  0  0  0  0  0  0  0  0
  -24.6110  -13.5487   21.7637 C   0  0  0  0  0  0  0  0  0  0  0  0
  -23.8154   -8.2117   22.5670 C   0  0  0  0  0  0  0  0  0  0  0  0
  -25.9161  -13.9521   21.4475 C   0  0  0  0  0  0  0  0  0  0  0  0
  -25.7908  -33.5281   22.4107 C   0  0  0  0  0  0  0  0  0  0  0  0
  -26.0828  -15.0605   23.6048 C   0  0  0  0  0  0  0  0  0  0  0  0
  -26.1676  -35.8476   22.4282 C   0  0  0  0  0  0  0  0  0  0  0  0
  -25.1660  -38.4344   22.7251 C   0  0  0  0  0  0  0  0  0  0  0  0
  -26.6707  -36.6798   23.4282 C   0  0  0  0  0  0  0  0  0  0  0  0
  -23.0763  -30.3089   22.8184 C   0  0  0  0  0  0  0  0  0  0  0  0
  -21.3260  -28.9848   22.6837 C   0  0  0  0  0  0  0  0  0  0  0  0
  -21.0737  -31.1332   21.4310 C   0  0  0  0  0  0  0  0  0  0  0  0
  -25.2964  -10.7797   20.3613 C   0  0  0  0  0  0  0  0  0  0  0  0
  -26.0333  -12.6843   17.8410 C   0  0  0  0  0  0  0  0  0  0  0  0
  -30.9807  -18.3913   20.7234 C   0  0  0  0  0  0  0  0  0  0  0  0
  -33.9322  -16.5563   25.5991 C   0  0  0  0  0  0  0  0  0  0  0  0
  -28.7987  -16.9371   25.2465 C   0  0  0  0  0  0  0  0  0  0  0  0
  -26.9739  -15.7658   16.7158 C   0  0  0  0  0  0  0  0  0  0  0  0
  -24.0821  -23.9486   24.3839 C   0  0  0  0  0  0  0  0  0  0  0  0
  -22.9365   -6.3156   21.1098 C   0  0  0  0  0  0  0  0  0  0  0  0
  -23.7956  -12.7631   20.7735 C   0  0  0  0  0  0  0  0  0  0  0  0
  -26.5610  -13.5932   20.1346 C   0  0  0  0  0  0  0  0  0  0  0  0
  -23.6852   -6.9745   19.9541 C   0  0  0  0  0  0  0  0  0  0  0  0
  -21.7565  -25.8622   26.2830 C   0  0  0  0  0  0  0  0  0  0  0  0
  -25.0181   -7.5394   20.4345 C   0  0  0  0  0  0  0  0  0  0  0  0
  -21.7148  -27.2096   25.5600 C   0  0  0  0  0  0  0  0  0  0  0  0
  -23.1595  -25.2593   26.2726 C   0  0  0  0  0  0  0  0  0  0  0  0
  -23.7307  -26.4870   24.2135 C   0  0  0  0  0  0  0  0  0  0  0  0
  -24.8066   -8.6221   21.4997 C   0  0  1  0  0  0  0  0  0  0  0  0
  -24.6510  -11.9996   19.7672 C   0  0  1  0  0  0  0  0  0  0  0  0
  -22.3247  -27.1079   24.1490 C   0  0  2  0  0  0  0  0  0  0  0  0
  -27.5346  -17.0066   14.6078 C   0  0  0  0  0  0  0  0  0  0  0  0
  -28.7567  -11.3108   17.7598 C   0  0  0  0  0  0  0  0  0  0  0  0
  -29.5816  -13.1857   16.3202 C   0  0  0  0  0  0  0  0  0  0  0  0
  -27.7282  -11.7216   15.5175 C   0  0  0  0  0  0  0  0  0  0  0  0
  -24.7478  -17.6757   17.1103 C   0  0  0  0  0  0  0  0  0  0  0  0
  -30.4732  -19.6291   21.4419 C   0  0  0  0  0  0  0  0  0  0  0  0
  -34.6215  -15.4593   24.8121 C   0  0  0  0  0  0  0  0  0  0  0  0
  -28.1236  -16.1596   24.1369 C   0  0  0  0  0  0  0  0  0  1  0  0
  -28.9652  -19.8148   21.2906 C   0  0  0  0  0  0  0  0  0  0  0  0
  -33.8990  -15.1306   23.5067 C   0  0  0  0  0  0  0  0  0  0  0  0
  -28.4762  -21.0457   22.0547 C   0  0  0  0  0  0  0  0  0  0  0  0
  -33.8621  -16.3195   22.5424 C   0  0  0  0  0  0  0  0  0  0  0  0
  -26.9705  -21.2500   21.8759 C   0  0  0  0  0  0  0  0  0  0  0  0
  -33.1592  -15.9508   21.2352 C   0  0  0  0  0  0  0  0  0  0  0  0
  -26.4896  -22.5055   22.6092 C   0  0  0  0  0  0  0  0  0  0  0  0
  -33.0865  -17.1429   20.2885 C   0  0  0  0  0  0  0  0  0  0  0  0
  -25.0022  -22.7719   22.4020 C   0  0  0  0  0  0  0  0  0  0  0  0
  -31.7734  -17.1185   26.7008 C   0  0  0  0  0  0  0  0  0  0  0  0
  -30.9640  -18.0309   25.7946 C   0  0  0  0  0  0  0  0  0  0  0  0
  -27.2790  -13.3904   17.3628 C   0  0  1  0  0  0  0  0  0  0  0  0
  -26.4372  -16.6352   15.5931 C   0  0  2  0  0  0  0  0  0  0  0  0
  -28.3252  -12.4074   16.7657 C   0  0  0  0  0  0  0  0  0  0  0  0
  -23.4108  -29.2375   23.5426 N   0  0  0  0  0  0  0  0  0  0  0  0
  -22.3261  -28.4505   23.4417 N   0  0  0  0  0  0  0  0  0  0  0  0
  -25.7254  -12.8187   19.2022 N   0  0  0  0  0  0  0  0  0  0  0  0
  -23.6797  -25.1894   24.9050 N   0  0  0  0  0  0  0  0  0  0  0  0
  -20.1656  -28.3262   22.4787 N   0  0  0  0  0  0  0  0  0  0  0  0
  -21.6959  -32.3418   21.0898 N   0  0  0  0  0  0  0  0  0  0  0  0
  -24.3999   -9.8661   20.8820 N   0  0  0  0  0  0  0  0  0  0  0  0
  -32.3517  -18.2407   20.8729 N   0  0  0  0  0  0  0  0  0  0  0  0
  -32.6337  -16.2308   25.9527 N   0  0  0  0  0  0  0  0  0  0  0  0
  -30.1016  -17.2893   24.9151 N   0  0  0  0  0  0  0  0  0  0  0  0
  -26.8318  -14.4234   16.4347 N   0  0  0  0  0  0  0  0  0  0  0  0
  -24.5570  -23.9699   23.0783 N   0  0  0  0  0  0  0  0  0  0  0  0
  -25.8552  -17.8917   16.1439 N   0  3  0  0  0  0  0  0  0  0  0  0
  -19.9112  -30.9035   21.0194 O   0  0  0  0  0  0  0  0  0  0  0  0
  -26.5172  -10.6744   20.3469 O   0  0  0  0  0  0  0  0  0  0  0  0
  -25.3544  -12.0431   17.0349 O   0  0  0  0  0  0  0  0  0  0  0  0
  -30.2497  -17.6309   20.0945 O   0  0  0  0  0  0  0  0  0  0  0  0
  -34.5035  -17.6109   25.8679 O   0  0  0  0  0  0  0  0  0  0  0  0
  -28.2371  -17.2086   26.3043 O   0  0  0  0  0  0  0  0  0  0  0  0
  -27.4729  -16.2310   17.7381 O   0  0  0  0  0  0  0  0  0  0  0  0
  -24.0177  -22.8986   25.0323 O   0  0  0  0  0  0  0  0  0  0  0  0
  -26.6643  -34.5636   22.2791 O   0  0  0  0  0  0  0  0  0  0  0  0
  -26.8101  -15.7990   24.5082 O   0  0  0  0  0  0  0  0  0  1  0  0
  -24.6860  -39.6768   22.8665 F   0  0  0  0  0  0  0  0  0  0  0  0
  -27.6359  -36.2427   24.2486 F   0  0  0  0  0  0  0  0  0  0  0  0
  1  2  1  0  0  0  0
  1  5  2  0  0  0  0
  2  6  2  0  0  0  0
  3  8  2  0  0  0  0
  3 15  1  0  0  0  0
  4  9  1  0  0  0  0
  4 15  2  0  0  0  0
  5 17  1  0  0  0  0
  6 19  1  0  0  0  0
  7 10  2  0  0  0  0
  7 18  1  0  0  0  0
  8 21  1  0  0  0  0
  9 21  2  0  0  0  0
 10 22  1  0  0  0  0
 11 12  2  0  0  0  0
 11 23  1  0  0  0  0
 12 24  1  0  0  0  0
 13 20  1  0  0  0  0
 13 22  2  0  0  0  0
 14 24  2  0  0  0  0
 14 25  1  0  0  0  0
 15 26  1  0  0  0  0
 16 26  1  0  0  0  0
 16 27  2  0  0  0  0
 16 28  1  0  0  0  0
 17 19  2  0  0  0  0
 17 36  1  0  0  0  0
 18 20  2  0  0  0  0
 18 37  1  0  0  0  0
 19 45  1  0  0  0  0
 20 38  1  0  0  0  0
 21 91  1  0  0  0  0
 22 92  1  0  0  0  0
 23 25  2  0  0  0  0
 23 91  1  0  0  0  0
 24 93  1  0  0  0  0
 25 94  1  0  0  0  0
 26 70  2  0  0  0  0
 27 71  1  0  0  0  0
 27 74  1  0  0  0  0
 28 75  1  0  0  0  0
 28 83  2  0  0  0  0
 29 46  1  0  0  0  0
 29 76  1  0  0  0  0
 29 84  2  0  0  0  0
 30 67  1  0  0  0  0
 30 72  1  0  0  0  0
 30 85  2  0  0  0  0
 31 53  1  0  0  0  0
 31 77  1  0  0  0  0
 31 86  2  0  0  0  0
 32 54  1  0  0  0  0
 32 78  1  0  0  0  0
 32 87  2  0  0  0  0
 33 55  1  0  0  0  0
 33 79  1  0  0  0  0
 33 88  2  0  0  0  0
 34 68  1  0  0  0  0
 34 80  1  0  0  0  0
 34 89  2  0  0  0  0
 35 73  1  0  0  0  0
 35 81  1  0  0  0  0
 35 90  2  0  0  0  0
 36 39  1  0  0  0  0
 37 46  1  0  0  0  0
 38 72  1  0  0  0  0
 39 41  1  0  0  0  0
 40 42  1  0  0  0  0
 40 43  1  0  0  0  0
 41 45  1  0  0  0  0
 42 47  1  0  0  0  0
 43 73  1  0  0  0  0
 44 47  1  0  0  0  0
 44 73  1  0  0  0  0
 45 76  1  0  0  0  0
 46 72  1  0  0  0  0
 47 71  1  0  0  0  0
 48 68  1  0  0  0  0
 49 69  1  0  0  0  0
 50 69  1  0  0  0  0
 51 69  1  0  0  0  0
 52 82  1  0  0  0  0
 53 56  1  0  0  0  0
 54 57  1  0  0  0  0
 55 92  1  0  0  0  0
 56 58  1  0  0  0  0
 57 59  1  0  0  0  0
 58 60  1  0  0  0  0
 59 61  1  0  0  0  0
 60 62  1  0  0  0  0
 61 63  1  0  0  0  0
 62 64  1  0  0  0  0
 63 77  1  0  0  0  0
 64 81  1  0  0  0  0
 65 66  1  0  0  0  0
 65 78  1  0  0  0  0
 66 79  1  0  0  0  0
 67 69  1  0  0  0  0
 67 80  1  0  0  0  0
 68 82  1  0  0  0  0
 70 71  1  0  0  0  0
M  CHG  1  82   1
M  ISO  4  35 100  55 101  81 100  92 101
M  END
> <Batch ID>
0006

> <Smiles>
CNC(C)C(=O)NC(C(=O)N1Cc2cc([101O:1][101CH2:1]C(=O)NCCNC(=O)CCCCCNC(=O)CCCCCC[100NH:0][100C:0](=O)N3CCCC(n4nc(-c5ccc(Oc6ccc(F)cc6F)cc5)c(C(N)=O)c4N)C3)ccc2CC1C(=O)NC1CCCc2ccccc21)C(C)(C)C

> <Shape>
0.199

> <Color>
0.065

> <Negative vol penalty>
0.000

$$$$

  -OEChem-04052315303D

 83 91  0     1  0  0  0  0  0999 V2000
  -20.9199  -22.9756   22.2735 C   0  0  0  0  0  0  0  0  0  0  0  0
  -22.2753  -23.2874   22.3047 C   0  0  0  0  0  0  0  0  0  0  0  0
  -26.7689  -13.5745   21.7407 C   0  0  0  0  0  0  0  0  0  0  0  0
  -25.8823  -14.1744   19.5748 C   0  0  0  0  0  0  0  0  0  0  0  0
  -19.9903  -23.9483   21.9080 C   0  0  0  0  0  0  0  0  0  0  0  0
  -22.7021  -24.5718   21.9693 C   0  0  0  0  0  0  0  0  0  0  0  0
  -26.1646  -26.3731   25.1959 C   0  0  0  0  0  0  0  0  0  0  0  0
  -31.4692  -23.5333   17.6452 C   0  0  0  0  0  0  0  0  0  0  0  0
  -30.3419  -22.7782   17.9687 C   0  0  0  0  0  0  0  0  0  0  0  0
  -26.0285  -12.3926   21.7165 C   0  0  0  0  0  0  0  0  0  0  0  0
  -25.1420  -12.9925   19.5505 C   0  0  0  0  0  0  0  0  0  0  0  0
  -27.4714  -25.9091   25.0519 C   0  0  0  0  0  0  0  0  0  0  0  0
  -24.0934   -9.3872   22.3846 C   0  0  0  0  0  0  0  0  0  0  0  0
  -23.4028   -9.0288   23.5423 C   0  0  0  0  0  0  0  0  0  0  0  0
  -28.0539  -27.9329   23.8753 C   0  0  0  0  0  0  0  0  0  0  0  0
  -29.9109  -24.2286   19.8523 C   0  0  0  0  0  0  0  0  0  0  0  0
  -22.1388  -11.0845   23.4246 C   0  0  0  0  0  0  0  0  0  0  0  0
  -26.6957  -14.4654   20.6699 C   0  0  0  0  0  0  0  0  0  0  0  0
  -28.7682  -15.8809   20.2127 C   0  0  0  0  0  0  0  0  0  0  0  0
  -20.4050  -25.2480   21.5773 C   0  0  0  0  0  0  0  0  0  0  0  0
  -25.7893  -27.6178   24.6703 C   0  0  0  0  0  0  0  0  0  0  0  0
  -21.7773  -25.5624   21.5977 C   0  0  0  0  0  0  0  0  0  0  0  0
  -26.7423  -28.4115   24.0163 C   0  0  0  0  0  0  0  0  0  0  0  0
  -31.8173  -24.6361   18.4253 C   0  0  0  0  0  0  0  0  0  0  0  0
  -29.5627  -23.1259   19.0722 C   0  0  0  0  0  0  0  0  0  0  0  0
  -31.0382  -24.9837   19.5288 C   0  0  0  0  0  0  0  0  0  0  0  0
  -25.2151  -12.1016   20.6214 C   0  0  0  0  0  0  0  0  0  0  0  0
  -28.4156  -26.6878   24.3890 C   0  0  0  0  0  0  0  0  0  0  0  0
  -23.8068  -10.5942   21.7469 C   0  0  0  0  0  0  0  0  0  0  0  0
  -22.4255   -9.8774   24.0623 C   0  0  0  0  0  0  0  0  0  0  0  0
  -22.8295  -11.4428   22.2669 C   0  0  0  0  0  0  0  0  0  0  0  0
  -27.4598  -15.6868   20.6947 C   0  0  0  0  0  0  0  0  0  0  0  0
  -29.0357  -17.2036   20.4686 C   0  0  0  0  0  0  0  0  0  0  0  0
  -29.6618  -14.9490   19.5893 C   0  0  0  0  0  0  0  0  0  0  0  0
  -23.7054  -28.5897   22.4757 C   0  0  0  0  0  0  0  0  0  0  0  0
  -24.6006  -31.5368   23.4932 C   0  0  0  0  0  0  0  0  0  0  0  0
  -26.9651  -33.4911   24.9887 C   0  0  0  0  0  0  0  0  0  0  0  0
  -27.5370  -22.5661   20.4612 C   0  0  0  0  0  0  0  0  0  0  0  0
  -19.3674  -26.2525   21.1427 C   0  0  0  0  0  0  0  0  0  0  0  0
  -24.3823  -28.1157   24.8575 C   0  0  0  0  0  0  0  0  0  0  0  0
  -26.3952  -29.7640   23.4516 C   0  0  0  0  0  0  0  0  0  0  0  0
  -19.8688  -27.6942   21.1640 C   0  0  0  0  0  0  0  0  0  0  0  0
  -26.5071  -20.5984   23.2441 C   0  0  0  0  0  0  0  0  0  0  0  0
  -21.2419  -27.7916   20.5068 C   0  0  0  0  0  0  0  0  0  0  0  0
  -26.7708  -19.1611   22.7893 C   0  0  0  0  0  0  0  0  0  0  0  0
  -26.0145  -21.4757   22.0946 C   0  0  0  0  0  0  0  0  0  0  0  0
  -27.1275  -20.0269   20.4419 C   0  0  0  0  0  0  0  0  0  0  0  0
  -22.2770  -26.9514   21.2646 C   0  0  1  0  0  0  0  0  0  0  0  0
  -23.9812  -29.1724   23.8329 C   0  0  1  0  0  0  0  0  0  0  0  0
  -27.6875  -19.1211   21.5509 C   0  0  2  0  0  0  0  0  0  0  0  0
  -33.0296  -25.4273   18.0558 C   0  0  0  0  0  0  0  0  0  0  0  0
  -27.4281  -35.8685   25.6453 C   0  0  0  0  0  0  0  0  0  0  0  0
  -25.2092  -32.2197   20.5823 C   0  0  0  0  0  0  0  0  0  0  0  0
  -26.5258  -34.1892   21.3924 C   0  0  0  0  0  0  0  0  0  0  0  0
  -24.0813  -34.0444   21.8680 C   0  0  0  0  0  0  0  0  0  0  0  0
  -30.8374  -27.4119   20.0016 C   0  0  0  0  0  0  0  0  0  0  0  0
  -27.1507  -32.7849   27.8567 C   0  0  0  0  0  0  0  0  0  0  0  0
  -31.4253  -25.5974   22.7152 C   0  0  0  0  0  0  0  0  0  0  0  0
  -32.2351  -25.9541   21.4746 C   0  0  0  0  0  0  0  0  0  0  0  0
  -30.4074  -26.6682   23.0896 C   0  0  0  0  0  0  0  0  0  1  0  0
  -25.6768  -32.5212   23.1035 C   0  0  1  0  0  0  0  0  0  0  0  0
  -26.8634  -34.5289   26.0919 C   0  0  2  0  0  0  0  0  0  0  0  0
  -25.3797  -33.2173   21.7454 C   0  0  0  0  0  0  0  0  0  0  0  0
  -26.9328  -16.7972   21.2174 N   0  0  0  0  0  0  0  0  0  0  0  0
  -27.9150  -17.7018   21.0654 N   0  0  0  0  0  0  0  0  0  0  0  0
  -25.0050  -30.2041   23.6546 N   0  0  0  0  0  0  0  0  0  0  0  0
  -26.9346  -21.3910   20.9583 N   0  0  0  0  0  0  0  0  0  0  0  0
  -30.1178  -17.9774   20.2392 N   0  0  0  0  0  0  0  0  0  0  0  0
  -29.2275  -13.6296   19.4025 N   0  0  0  0  0  0  0  0  0  0  0  0
  -28.4180  -22.3580   19.4005 N   0  0  0  0  0  0  0  0  0  0  0  0
  -22.7039  -27.6377   22.4651 N   0  0  0  0  0  0  0  0  0  0  0  0
  -25.8161  -33.4400   24.2281 N   0  0  0  0  0  0  0  0  0  0  0  0
  -31.3743  -26.0886   20.3242 N   0  0  3  0  0  0  0  0  0  0  0  0
  -27.6167  -34.0796   27.2967 N   0  3  0  0  0  0  0  0  0  0  0  0
  -30.8175  -15.2724   19.2241 O   0  0  0  0  0  0  0  0  0  0  0  0
  -24.3522  -28.9763   21.5093 O   0  0  0  0  0  0  0  0  0  0  0  0
  -23.4451  -31.9370   23.6556 O   0  0  0  0  0  0  0  0  0  0  0  0
  -27.9653  -32.7980   24.8163 O   0  0  0  0  0  0  0  0  0  0  0  0
  -27.3103  -23.6720   20.9588 O   0  0  0  0  0  0  0  0  0  0  0  0
  -24.4927  -10.9482   20.5972 O   0  0  0  0  0  0  0  0  0  0  0  0
  -29.6916  -26.2370   24.2464 O   0  0  0  0  0  0  0  0  0  1  0  0
  -21.7614   -9.5324   25.1732 F   0  0  0  0  0  0  0  0  0  0  0  0
  -22.5489  -12.6032   21.6581 F   0  0  0  0  0  0  0  0  0  0  0  0
  1  2  1  0  0  0  0
  1  5  2  0  0  0  0
  2  6  2  0  0  0  0
  3 10  2  0  0  0  0
  3 18  1  0  0  0  0
  4 11  1  0  0  0  0
  4 18  2  0  0  0  0
  5 20  1  0  0  0  0
  6 22  1  0  0  0  0
  7 12  2  0  0  0  0
  7 21  1  0  0  0  0
  8  9  2  0  0  0  0
  8 24  1  0  0  0  0
  9 25  1  0  0  0  0
 10 27  1  0  0  0  0
 11 27  2  0  0  0  0
 12 28  1  0  0  0  0
 13 14  2  0  0  0  0
 13 29  1  0  0  0  0
 14 30  1  0  0  0  0
 15 23  1  0  0  0  0
 15 28  2  0  0  0  0
 16 25  2  0  0  0  0
 16 26  1  0  0  0  0
 17 30  2  0  0  0  0
 17 31  1  0  0  0  0
 18 32  1  0  0  0  0
 19 32  1  0  0  0  0
 19 33  2  0  0  0  0
 19 34  1  0  0  0  0
 20 22  2  0  0  0  0
 20 39  1  0  0  0  0
 21 23  2  0  0  0  0
 21 40  1  0  0  0  0
 22 48  1  0  0  0  0
 23 41  1  0  0  0  0
 24 26  2  0  0  0  0
 24 51  1  0  0  0  0
 25 70  1  0  0  0  0
 26 73  1  0  0  0  0
 27 80  1  0  0  0  0
 28 81  1  0  0  0  0
 29 31  2  0  0  0  0
 29 80  1  0  0  0  0
 30 82  1  0  0  0  0
 31 83  1  0  0  0  0
 32 64  2  0  0  0  0
 33 65  1  0  0  0  0
 33 68  1  0  0  0  0
 34 69  1  0  0  0  0
 34 75  2  0  0  0  0
 35 49  1  0  0  0  0
 35 71  1  0  0  0  0
 35 76  2  0  0  0  0
 36 61  1  0  0  0  0
 36 66  1  0  0  0  0
 36 77  2  0  0  0  0
 37 62  1  0  0  0  0
 37 72  1  0  0  0  0
 37 78  2  0  0  0  0
 38 67  1  0  0  0  0
 38 70  1  0  0  0  0
 38 79  2  0  0  0  0
 39 42  1  0  0  0  0
 40 49  1  0  0  0  0
 41 66  1  0  0  0  0
 42 44  1  0  0  0  0
 43 45  1  0  0  0  0
 43 46  1  0  0  0  0
 44 48  1  0  0  0  0
 45 50  1  0  0  0  0
 46 67  1  0  0  0  0
 47 50  1  0  0  0  0
 47 67  1  0  0  0  0
 48 71  1  0  0  0  0
 49 66  1  0  0  0  0
 50 65  1  0  0  0  0
 52 62  1  0  0  0  0
 53 63  1  0  0  0  0
 54 63  1  0  0  0  0
 55 63  1  0  0  0  0
 56 73  1  0  0  0  0
 57 74  1  0  0  0  0
 58 59  1  0  0  0  0
 58 60  1  0  0  0  0
 59 73  1  0  0  0  0
 60 81  1  0  0  0  0
 61 63  1  0  0  0  0
 61 72  1  0  0  0  0
 62 74  1  0  0  0  0
 64 65  1  0  0  0  0
M  CHG  1  74   1
M  ISO  4  38 100  60 101  70 100  81 101
M  END
> <Batch ID>
0006

> <Smiles>
CNC(C)C(=O)NC(C(=O)N1Cc2cc([101O:1][101CH2:1]CCN(C)c3cc([100NH:0][100C:0](=O)N4CCCC(n5nc(-c6ccc(Oc7ccc(F)cc7F)cc6)c(C(N)=O)c5N)C4)ccc3C)ccc2CC1C(=O)NC1CCCc2ccccc21)C(C)(C)C

> <Shape>
0.253

> <Color>
0.063

> <Negative vol penalty>
0.000

$$$$

  -OEChem-04052315303D

 82 90  0     1  0  0  0  0  0999 V2000
  -24.2260   -6.7249   23.9000 C   0  0  0  0  0  0  0  0  0  0  0  0
  -25.3960   -7.4713   23.8026 C   0  0  0  0  0  0  0  0  0  0  0  0
  -23.7913  -33.1165   22.1097 C   0  0  0  0  0  0  0  0  0  0  0  0
  -25.7696  -32.3438   23.2612 C   0  0  0  0  0  0  0  0  0  0  0  0
  -23.1367   -7.0288   23.0846 C   0  0  0  0  0  0  0  0  0  0  0  0
  -25.4776   -8.5215   22.8889 C   0  0  0  0  0  0  0  0  0  0  0  0
  -28.4894  -14.9661   22.0451 C   0  0  0  0  0  0  0  0  0  0  0  0
  -27.6610  -23.4188   19.8564 C   0  0  0  0  0  0  0  0  0  0  0  0
  -23.8279  -34.3026   22.8427 C   0  0  0  0  0  0  0  0  0  0  0  0
  -25.8062  -33.5299   23.9943 C   0  0  0  0  0  0  0  0  0  0  0  0
  -29.2689  -15.6800   21.1359 C   0  0  0  0  0  0  0  0  0  0  0  0
  -28.6497  -22.4474   19.7006 C   0  0  0  0  0  0  0  0  0  0  0  0
  -25.5458  -37.2144   22.7854 C   0  0  0  0  0  0  0  0  0  0  0  0
  -25.3505  -38.4100   22.0940 C   0  0  0  0  0  0  0  0  0  0  0  0
  -27.2964  -16.1644   19.8344 C   0  0  0  0  0  0  0  0  0  0  0  0
  -26.4051  -21.9141   21.2690 C   0  0  0  0  0  0  0  0  0  0  0  0
  -23.4156  -38.8844   23.4608 C   0  0  0  0  0  0  0  0  0  0  0  0
  -24.7622  -32.1371   22.3190 C   0  0  0  0  0  0  0  0  0  0  0  0
  -25.3457  -30.6568   20.3250 C   0  0  0  0  0  0  0  0  0  0  0  0
  -23.2016   -8.0893   22.1672 C   0  0  0  0  0  0  0  0  0  0  0  0
  -27.1069  -14.8366   21.8496 C   0  0  0  0  0  0  0  0  0  0  0  0
  -24.3885   -8.8390   22.0595 C   0  0  0  0  0  0  0  0  0  0  0  0
  -26.5012  -15.4505   20.7440 C   0  0  0  0  0  0  0  0  0  0  0  0
  -26.5387  -23.1522   20.6407 C   0  0  0  0  0  0  0  0  0  0  0  0
  -24.8353  -34.5094   23.7850 C   0  0  0  0  0  0  0  0  0  0  0  0
  -28.6728  -16.2769   20.0289 C   0  0  0  0  0  0  0  0  0  0  0  0
  -24.6759  -36.8537   23.8144 C   0  0  0  0  0  0  0  0  0  0  0  0
  -28.5161  -21.2092   20.3289 C   0  0  0  0  0  0  0  0  0  0  0  0
  -24.2855  -39.2450   22.4318 C   0  0  0  0  0  0  0  0  0  0  0  0
  -23.6108  -37.6887   24.1521 C   0  0  0  0  0  0  0  0  0  0  0  0
  -27.3938  -20.9426   21.1132 C   0  0  0  0  0  0  0  0  0  0  0  0
  -24.7246  -30.9114   21.5624 C   0  0  0  0  0  0  0  0  0  0  0  0
  -25.0093  -29.3575   20.0328 C   0  0  0  0  0  0  0  0  0  0  0  0
  -26.1545  -31.5177   19.5123 C   0  0  0  0  0  0  0  0  0  0  0  0
  -25.1271  -12.3948   21.3785 C   0  0  0  0  0  0  0  0  0  0  0  0
  -22.8544  -14.6971   21.6163 C   0  0  0  0  0  0  0  0  0  0  0  0
  -22.0350  -17.9986   21.3419 C   0  0  0  0  0  0  0  0  0  0  0  0
  -24.3589  -24.0374   21.5414 C   0  0  0  0  0  0  0  0  0  0  0  0
  -22.0149   -8.3500   21.2737 C   0  0  0  0  0  0  0  0  0  0  0  0
  -26.2761  -14.0858   22.8538 C   0  0  0  0  0  0  0  0  0  0  0  0
  -25.0179  -15.3582   20.4995 C   0  0  0  0  0  0  0  0  0  0  0  0
  -22.0519   -9.7169   20.5951 C   0  0  0  0  0  0  0  0  0  0  0  0
  -21.6542  -26.2546   22.2093 C   0  0  0  0  0  0  0  0  0  0  0  0
  -23.4328   -9.9820   20.0038 C   0  0  0  0  0  0  0  0  0  0  0  0
  -22.2630  -27.6428   21.9987 C   0  0  0  0  0  0  0  0  0  0  0  0
  -22.6522  -25.2880   22.8445 C   0  0  0  0  0  0  0  0  0  0  0  0
  -24.5510  -26.5711   21.9403 C   0  0  0  0  0  0  0  0  0  0  0  0
  -24.5070  -10.0016   21.0979 C   0  0  1  0  0  0  0  0  0  0  0  0
  -24.9544  -13.5842   22.2803 C   0  0  1  0  0  0  0  0  0  0  0  0
  -23.6040  -27.5614   21.2432 C   0  0  2  0  0  0  0  0  0  0  0  0
  -20.0915  -19.5708   21.5621 C   0  0  0  0  0  0  0  0  0  0  0  0
  -21.7683  -13.7262   18.9353 C   0  0  0  0  0  0  0  0  0  0  0  0
  -20.4849  -15.8686   18.7584 C   0  0  0  0  0  0  0  0  0  0  0  0
  -20.0161  -14.2868   20.6294 C   0  0  0  0  0  0  0  0  0  0  0  0
  -23.3630  -19.5219   23.5040 C   0  0  0  0  0  0  0  0  0  0  0  0
  -30.9096  -18.8530   18.8157 C   0  0  0  0  0  0  0  0  0  0  0  0
  -30.5993  -17.6179   19.6467 C   0  0  0  0  0  0  0  0  0  1  0  0
  -29.7610  -19.8494   18.8266 C   0  0  0  0  0  0  0  0  0  0  0  0
  -22.1632  -15.6216   20.6434 C   0  0  1  0  0  0  0  0  0  0  0  0
  -21.2741  -18.9281   22.2701 C   0  0  2  0  0  0  0  0  0  0  0  0
  -21.1364  -14.8761   19.7449 C   0  0  0  0  0  0  0  0  0  0  0  0
  -24.0450  -29.8585   22.0245 N   0  0  0  0  0  0  0  0  0  0  0  0
  -24.2370  -28.9297   21.0724 N   0  0  0  0  0  0  0  0  0  0  0  0
  -24.2493  -14.6080   21.5064 N   0  0  0  0  0  0  0  0  0  0  0  0
  -23.8965  -25.2600   22.0727 N   0  0  0  0  0  0  0  0  0  0  0  0
  -25.3017  -28.5508   18.9907 N   0  0  0  0  0  0  0  0  0  0  0  0
  -26.4016  -32.8221   19.9614 N   0  0  0  0  0  0  0  0  0  0  0  0
  -25.5346  -24.1394   20.7985 N   0  0  0  0  0  0  0  0  0  0  0  0
  -24.4746  -11.2579   21.8156 N   0  0  0  0  0  0  0  0  0  0  0  0
  -21.5875  -16.6982   21.4421 N   0  0  0  0  0  0  0  0  0  0  0  0
  -22.1695  -20.0109   22.7668 N   0  3  0  0  0  0  0  0  0  0  0  0
  -26.6299  -31.1467   18.4124 O   0  0  0  0  0  0  0  0  0  0  0  0
  -25.8012  -12.5012   20.3607 O   0  0  0  0  0  0  0  0  0  0  0  0
  -22.1821  -14.0822   22.4480 O   0  0  0  0  0  0  0  0  0  0  0  0
  -22.9336  -18.3878   20.5993 O   0  0  0  0  0  0  0  0  0  0  0  0
  -23.7417  -22.9824   21.7086 O   0  0  0  0  0  0  0  0  0  0  0  0
  -24.8715  -35.6667   24.5004 O   0  0  0  0  0  0  0  0  0  0  0  0
  -29.4314  -16.9737   19.1396 O   0  0  0  0  0  0  0  0  0  1  0  0
  -29.5032  -20.2737   20.1583 O   0  0  0  0  0  0  0  0  0  0  0  0
  -24.0990  -40.3939   21.7688 F   0  0  0  0  0  0  0  0  0  0  0  0
  -22.7725  -37.3481   25.1406 F   0  0  0  0  0  0  0  0  0  0  0  0
  -27.2032  -19.4198   21.9013 Cl  0  0  0  0  0  0  0  0  0  0  0  0
  1  2  1  0  0  0  0
  1  5  2  0  0  0  0
  2  6  2  0  0  0  0
  3  9  2  0  0  0  0
  3 18  1  0  0  0  0
  4 10  1  0  0  0  0
  4 18  2  0  0  0  0
  5 20  1  0  0  0  0
  6 22  1  0  0  0  0
  7 11  2  0  0  0  0
  7 21  1  0  0  0  0
  8 12  2  0  0  0  0
  8 24  1  0  0  0  0
  9 25  1  0  0  0  0
 10 25  2  0  0  0  0
 11 26  1  0  0  0  0
 12 28  1  0  0  0  0
 13 14  2  0  0  0  0
 13 27  1  0  0  0  0
 14 29  1  0  0  0  0
 15 23  1  0  0  0  0
 15 26  2  0  0  0  0
 16 24  2  0  0  0  0
 16 31  1  0  0  0  0
 17 29  2  0  0  0  0
 17 30  1  0  0  0  0
 18 32  1  0  0  0  0
 19 32  1  0  0  0  0
 19 33  2  0  0  0  0
 19 34  1  0  0  0  0
 20 22  2  0  0  0  0
 20 39  1  0  0  0  0
 21 23  2  0  0  0  0
 21 40  1  0  0  0  0
 22 48  1  0  0  0  0
 23 41  1  0  0  0  0
 24 68  1  0  0  0  0
 25 77  1  0  0  0  0
 26 78  1  0  0  0  0
 27 30  2  0  0  0  0
 27 77  1  0  0  0  0
 28 31  2  0  0  0  0
 28 79  1  0  0  0  0
 29 80  1  0  0  0  0
 30 81  1  0  0  0  0
 31 82  1  0  0  0  0
 32 62  2  0  0  0  0
 33 63  1  0  0  0  0
 33 66  1  0  0  0  0
 34 67  1  0  0  0  0
 34 72  2  0  0  0  0
 35 49  1  0  0  0  0
 35 69  1  0  0  0  0
 35 73  2  0  0  0  0
 36 59  1  0  0  0  0
 36 64  1  0  0  0  0
 36 74  2  0  0  0  0
 37 60  1  0  0  0  0
 37 70  1  0  0  0  0
 37 75  2  0  0  0  0
 38 65  1  0  0  0  0
 38 68  1  0  0  0  0
 38 76  2  0  0  0  0
 39 42  1  0  0  0  0
 40 49  1  0  0  0  0
 41 64  1  0  0  0  0
 42 44  1  0  0  0  0
 43 45  1  0  0  0  0
 43 46  1  0  0  0  0
 44 48  1  0  0  0  0
 45 50  1  0  0  0  0
 46 65  1  0  0  0  0
 47 50  1  0  0  0  0
 47 65  1  0  0  0  0
 48 69  1  0  0  0  0
 49 64  1  0  0  0  0
 50 63  1  0  0  0  0
 51 60  1  0  0  0  0
 52 61  1  0  0  0  0
 53 61  1  0  0  0  0
 54 61  1  0  0  0  0
 55 71  1  0  0  0  0
 56 57  1  0  0  0  0
 56 58  1  0  0  0  0
 57 78  1  0  0  0  0
 58 79  1  0  0  0  0
 59 61  1  0  0  0  0
 59 70  1  0  0  0  0
 60 71  1  0  0  0  0
 62 63  1  0  0  0  0
M  CHG  1  71   1
M  ISO  4  38 100  57 101  68 100  78 101
M  END
> <Batch ID>
0006

> <Smiles>
CNC(C)C(=O)NC(C(=O)N1Cc2cc([101O:1][101CH2:1]CCOc3ccc([100NH:0][100C:0](=O)N4CCCC(n5nc(-c6ccc(Oc7ccc(F)cc7F)cc6)c(C(N)=O)c5N)C4)cc3Cl)ccc2CC1C(=O)NC1CCCc2ccccc21)C(C)(C)C

> <Shape>
0.242

> <Color>
0.069

> <Negative vol penalty>
0.000

$$$$

  -OEChem-04052315303D

 99107  0     1  0  0  0  0  0999 V2000
  -24.1442  -25.7477   20.3249 C   0  0  0  0  0  0  0  0  0  0  0  0
  -24.7615  -25.7915   21.5709 C   0  0  0  0  0  0  0  0  0  0  0  0
  -23.9587   -9.6722   20.9495 C   0  0  0  0  0  0  0  0  0  0  0  0
  -24.5724  -10.4634   23.1482 C   0  0  0  0  0  0  0  0  0  0  0  0
  -24.4870  -26.6787   19.3453 C   0  0  0  0  0  0  0  0  0  0  0  0
  -25.7227  -26.7658   21.8376 C   0  0  0  0  0  0  0  0  0  0  0  0
  -26.7410  -29.5649   27.1887 C   0  0  0  0  0  0  0  0  0  0  0  0
  -28.1761  -19.3629   21.0715 C   0  0  0  0  0  0  0  0  0  0  0  0
  -23.4977   -8.4797   21.5072 C   0  0  0  0  0  0  0  0  0  0  0  0
  -24.1113   -9.2709   23.7060 C   0  0  0  0  0  0  0  0  0  0  0  0
  -27.6782  -29.3472   28.1977 C   0  0  0  0  0  0  0  0  0  0  0  0
  -28.0091  -20.6989   20.7072 C   0  0  0  0  0  0  0  0  0  0  0  0
  -20.7501   -7.3991   23.1551 C   0  0  0  0  0  0  0  0  0  0  0  0
  -19.5192   -6.9114   22.7162 C   0  0  0  0  0  0  0  0  0  0  0  0
  -29.0925  -31.0527   27.2437 C   0  0  0  0  0  0  0  0  0  0  0  0
  -29.8964  -19.1200   19.3926 C   0  0  0  0  0  0  0  0  0  0  0  0
  -20.5936   -4.8864   21.9531 C   0  0  0  0  0  0  0  0  0  0  0  0
  -24.4961  -10.6640   21.7700 C   0  0  0  0  0  0  0  0  0  0  0  0
  -24.2346  -13.0744   20.9766 C   0  0  0  0  0  0  0  0  0  0  0  0
  -25.4460  -27.6709   19.6034 C   0  0  0  0  0  0  0  0  0  0  0  0
  -26.9779  -30.5221   26.1917 C   0  0  0  0  0  0  0  0  0  0  0  0
  -26.0796  -27.7101   20.8602 C   0  0  0  0  0  0  0  0  0  0  0  0
  -28.1556  -31.2824   26.2246 C   0  0  0  0  0  0  0  0  0  0  0  0
  -29.1198  -18.5734   20.4143 C   0  0  0  0  0  0  0  0  0  0  0  0
  -23.5740   -8.2791   22.8854 C   0  0  0  0  0  0  0  0  0  0  0  0
  -28.8555  -30.0892   28.2237 C   0  0  0  0  0  0  0  0  0  0  0  0
  -28.7857  -21.2455   19.6856 C   0  0  0  0  0  0  0  0  0  0  0  0
  -21.9028   -6.6305   22.9930 C   0  0  0  0  0  0  0  0  0  0  0  0
  -29.7294  -20.4561   19.0283 C   0  0  0  0  0  0  0  0  0  0  0  0
  -19.4410   -5.6551   22.1152 C   0  0  0  0  0  0  0  0  0  0  0  0
  -21.8245   -5.3742   22.3920 C   0  0  0  0  0  0  0  0  0  0  0  0
  -24.9731  -11.8958   21.1944 C   0  0  0  0  0  0  0  0  0  0  0  0
  -25.1353  -13.9447   20.4130 C   0  0  0  0  0  0  0  0  0  0  0  0
  -22.8576  -13.3571   21.2587 C   0  0  0  0  0  0  0  0  0  0  0  0
  -27.3102  -30.4346   23.0317 C   0  0  0  0  0  0  0  0  0  0  0  0
  -27.3628  -33.6635   23.3384 C   0  0  0  0  0  0  0  0  0  0  0  0
  -30.6050  -28.0856   24.4575 C   0  0  0  0  0  0  0  0  0  0  0  0
  -27.9562  -36.3760   25.3226 C   0  0  0  0  0  0  0  0  0  0  0  0
  -30.1797  -16.2952   20.2341 C   0  0  0  0  0  0  0  0  0  0  0  0
  -25.8178  -28.6264   18.4973 C   0  0  0  0  0  0  0  0  0  0  0  0
  -25.9449  -30.7636   25.1254 C   0  0  0  0  0  0  0  0  0  0  0  0
  -28.4484  -32.3363   25.1892 C   0  0  0  0  0  0  0  0  0  0  0  0
  -26.5747  -29.8588   18.9858 C   0  0  0  0  0  0  0  0  0  0  0  0
  -29.7976  -13.1501   18.6094 C   0  0  0  0  0  0  0  0  0  0  0  0
  -27.6841  -29.4557   19.9521 C   0  0  0  0  0  0  0  0  0  0  0  0
  -28.4476  -12.6403   19.1192 C   0  0  0  0  0  0  0  0  0  0  0  0
  -30.5671  -13.9005   19.6950 C   0  0  0  0  0  0  0  0  0  0  0  0
  -28.4721  -14.4753   20.8568 C   0  0  0  0  0  0  0  0  0  0  0  0
  -27.1091  -28.7673   21.1959 C   0  0  1  0  0  0  0  0  0  0  0  0
  -26.5232  -31.4041   23.8674 C   0  0  1  0  0  0  0  0  0  0  0  0
  -27.6322  -13.7690   19.7801 C   0  0  2  0  0  0  0  0  0  0  0  0
  -27.9497  -38.8851   25.2826 C   0  0  0  0  0  0  0  0  0  0  0  0
  -32.1593  -31.1630   30.0199 C   0  0  0  0  0  0  0  0  0  0  0  0
  -31.5718  -28.9217   30.9990 C   0  0  0  0  0  0  0  0  0  0  0  0
  -29.9888  -33.6431   21.7848 C   0  0  0  0  0  0  0  0  0  0  0  0
  -30.4019  -35.9779   22.5887 C   0  0  0  0  0  0  0  0  0  0  0  0
  -28.4194  -35.4862   21.1567 C   0  0  0  0  0  0  0  0  0  0  0  0
  -25.8857  -36.5199   27.4323 C   0  0  0  0  0  0  0  0  0  0  0  0
  -27.6277  -23.2888   20.0594 C   0  0  0  0  0  0  0  0  0  0  0  0
  -31.1615  -28.3859   25.8396 C   0  0  0  0  0  0  0  0  0  0  0  0
  -30.3352  -27.7871   26.9795 C   0  0  0  0  0  0  0  0  0  0  0  0
  -31.4768  -27.1123   19.9512 C   0  0  0  0  0  0  0  0  0  0  0  0
  -32.1547  -25.8665   19.3775 C   0  0  0  0  0  0  0  0  0  0  0  0
  -31.7677  -27.2634   21.4473 C   0  0  0  0  0  0  0  0  0  0  0  0
  -31.8936  -25.7320   17.8789 C   0  0  0  0  0  0  0  0  0  0  0  0
  -30.9135  -28.0338   28.3763 C   0  0  0  0  0  0  0  0  0  0  0  0
  -31.0935  -28.4908   22.0524 C   0  0  0  0  0  0  0  0  0  0  0  0
  -32.5293  -24.4719   17.3086 C   0  0  0  0  0  0  0  0  0  0  0  0
  -31.9065  -20.9614   18.2155 C   0  0  0  0  0  0  0  0  0  0  0  0
  -32.5247  -22.1273   17.4682 C   0  0  0  0  0  0  0  0  0  0  0  0
  -28.4388  -34.6991   23.5592 C   0  0  1  0  0  0  0  0  0  0  0  0
  -27.1430  -37.6313   25.5823 C   0  0  2  0  0  0  0  0  0  0  0  0
  -32.0217  -29.6686   29.7466 C   0  0  0  0  0  0  0  0  0  0  0  0
  -29.3079  -34.9304   22.2909 C   0  0  0  0  0  0  0  0  0  0  0  0
  -26.2449  -12.0042   20.8010 N   0  0  0  0  0  0  0  0  0  0  0  0
  -26.3126  -13.2611   20.3303 N   0  0  0  0  0  0  0  0  0  0  0  0
  -27.4103  -32.5309   24.1635 N   0  0  0  0  0  0  0  0  0  0  0  0
  -29.7336  -14.9571   20.2726 N   0  0  0  0  0  0  0  0  0  0  0  0
  -25.0271  -15.2205   19.9849 N   0  0  0  0  0  0  0  0  0  0  0  0
  -22.0740  -12.3503   21.8388 N   0  0  0  0  0  0  0  0  0  0  0  0
  -29.2887  -17.2161   20.7842 N   0  0  0  0  0  0  0  0  0  0  0  0
  -26.5518  -29.7470   22.1036 N   0  0  0  0  0  0  0  0  0  0  0  0
  -31.3863  -28.6480   23.4584 N   0  0  0  0  0  0  0  0  0  0  0  0
  -27.7602  -35.8957   24.0451 N   0  0  0  0  0  0  0  0  0  0  0  0
  -31.0661  -29.4590   28.6609 N   0  0  2  0  0  0  0  0  0  1  0  0
  -26.7084  -37.6814   27.0069 N   0  3  0  0  0  0  0  0  0  0  0  0
  -22.3332  -14.4642   20.9887 O   0  0  0  0  0  0  0  0  0  0  0  0
  -28.5166  -30.3201   23.2143 O   0  0  0  0  0  0  0  0  0  0  0  0
  -26.5072  -33.8559   22.4708 O   0  0  0  0  0  0  0  0  0  0  0  0
  -29.5996  -27.4062   24.2692 O   0  0  0  0  0  0  0  0  0  0  0  0
  -28.6946  -35.8740   26.1672 O   0  0  0  0  0  0  0  0  0  0  0  0
  -31.2597  -16.6047   19.7243 O   0  0  0  0  0  0  0  0  0  0  0  0
  -23.1240   -7.1157   23.4300 O   0  0  0  0  0  0  0  0  0  0  0  0
  -28.6128  -22.5513   19.3383 O   0  0  0  0  0  0  0  0  0  0  0  0
  -30.4974  -20.9810   18.0224 O   0  0  0  0  0  0  0  0  0  0  0  0
  -29.7722  -29.8783   29.2071 O   0  0  0  0  0  0  0  0  0  1  0  0
  -31.9691  -23.3399   17.9593 O   0  0  0  0  0  0  0  0  0  0  0  0
  -18.2586   -5.1863   21.6951 F   0  0  0  0  0  0  0  0  0  0  0  0
  -22.9283   -4.6307   22.2346 F   0  0  0  0  0  0  0  0  0  0  0  0
  1  2  1  0  0  0  0
  1  5  2  0  0  0  0
  2  6  2  0  0  0  0
  3  9  2  0  0  0  0
  3 18  1  0  0  0  0
  4 10  1  0  0  0  0
  4 18  2  0  0  0  0
  5 20  1  0  0  0  0
  6 22  1  0  0  0  0
  7 11  2  0  0  0  0
  7 21  1  0  0  0  0
  8 12  2  0  0  0  0
  8 24  1  0  0  0  0
  9 25  1  0  0  0  0
 10 25  2  0  0  0  0
 11 26  1  0  0  0  0
 12 27  1  0  0  0  0
 13 14  2  0  0  0  0
 13 28  1  0  0  0  0
 14 30  1  0  0  0  0
 15 23  1  0  0  0  0
 15 26  2  0  0  0  0
 16 24  2  0  0  0  0
 16 29  1  0  0  0  0
 17 30  2  0  0  0  0
 17 31  1  0  0  0  0
 18 32  1  0  0  0  0
 19 32  1  0  0  0  0
 19 33  2  0  0  0  0
 19 34  1  0  0  0  0
 20 22  2  0  0  0  0
 20 40  1  0  0  0  0
 21 23  2  0  0  0  0
 21 41  1  0  0  0  0
 22 49  1  0  0  0  0
 23 42  1  0  0  0  0
 24 81  1  0  0  0  0
 25 93  1  0  0  0  0
 26 96  1  0  0  0  0
 27 29  2  0  0  0  0
 27 94  1  0  0  0  0
 28 31  2  0  0  0  0
 28 93  1  0  0  0  0
 29 95  1  0  0  0  0
 30 98  1  0  0  0  0
 31 99  1  0  0  0  0
 32 75  2  0  0  0  0
 33 76  1  0  0  0  0
 33 79  1  0  0  0  0
 34 80  1  0  0  0  0
 34 87  2  0  0  0  0
 35 50  1  0  0  0  0
 35 82  1  0  0  0  0
 35 88  2  0  0  0  0
 36 71  1  0  0  0  0
 36 77  1  0  0  0  0
 36 89  2  0  0  0  0
 37 60  1  0  0  0  0
 37 83  1  0  0  0  0
 37 90  2  0  0  0  0
 38 72  1  0  0  0  0
 38 84  1  0  0  0  0
 38 91  2  0  0  0  0
 39 78  1  0  0  0  0
 39 81  1  0  0  0  0
 39 92  2  0  0  0  0
 40 43  1  0  0  0  0
 41 50  1  0  0  0  0
 42 77  1  0  0  0  0
 43 45  1  0  0  0  0
 44 46  1  0  0  0  0
 44 47  1  0  0  0  0
 45 49  1  0  0  0  0
 46 51  1  0  0  0  0
 47 78  1  0  0  0  0
 48 51  1  0  0  0  0
 48 78  1  0  0  0  0
 49 82  1  0  0  0  0
 50 77  1  0  0  0  0
 51 76  1  0  0  0  0
 52 72  1  0  0  0  0
 53 73  1  0  0  0  0
 54 73  1  0  0  0  0
 55 74  1  0  0  0  0
 56 74  1  0  0  0  0
 57 74  1  0  0  0  0
 58 86  1  0  0  0  0
 59 94  1  0  0  0  0
 60 61  1  0  0  0  0
 61 66  1  0  0  0  0
 62 63  1  0  0  0  0
 62 64  1  0  0  0  0
 63 65  1  0  0  0  0
 64 67  1  0  0  0  0
 65 68  1  0  0  0  0
 66 85  1  0  0  0  0
 67 83  1  0  0  0  0
 68 97  1  0  0  0  0
 69 70  1  0  0  0  0
 69 95  1  0  0  0  0
 70 97  1  0  0  0  0
 71 74  1  0  0  0  0
 71 84  1  0  0  0  0
 72 86  1  0  0  0  0
 73 85  1  0  0  0  0
 75 76  1  0  0  0  0
 85 96  1  0  0  0  0
M  CHG  1  86   1
M  ISO  4  39 100  81 100  85 101  96 101
M  END
> <Batch ID>
0006

> <Smiles>
CNC(C)C(=O)NC(C(=O)N1Cc2cc([101O:1][101N:1](CCCC(=O)NCCCCCCOCCOc3cc([100NH:0][100C:0](=O)N4CCCC(n5nc(-c6ccc(Oc7ccc(F)cc7F)cc6)c(C(N)=O)c5N)C4)ccc3OC)C(C)C)ccc2CC1C(=O)NC1CCCc2ccccc21)C(C)(C)C

> <Shape>
0.316

> <Color>
0.134

> <Negative vol penalty>
0.000

$$$$

  -OEChem-04052315303D

 86 94  0     1  0  0  0  0  0999 V2000
  -27.8609  -25.0682   16.2744 C   0  0  0  0  0  0  0  0  0  0  0  0
  -28.8470  -24.0901   16.3542 C   0  0  0  0  0  0  0  0  0  0  0  0
  -30.4692  -18.3388   23.9981 C   0  0  0  0  0  0  0  0  0  0  0  0
  -22.9993   -9.8953   19.9793 C   0  0  0  0  0  0  0  0  0  0  0  0
  -23.7253   -9.9428   22.2832 C   0  0  0  0  0  0  0  0  0  0  0  0
  -27.9791  -26.2383   17.0231 C   0  0  0  0  0  0  0  0  0  0  0  0
  -29.9525  -24.2821   17.1820 C   0  0  0  0  0  0  0  0  0  0  0  0
  -32.9675  -19.9957   20.3510 C   0  0  0  0  0  0  0  0  0  0  0  0
  -29.8810  -17.4434   23.1050 C   0  0  0  0  0  0  0  0  0  0  0  0
  -31.8527  -18.3382   24.1767 C   0  0  0  0  0  0  0  0  0  0  0  0
  -22.2325   -8.7607   20.2442 C   0  0  0  0  0  0  0  0  0  0  0  0
  -22.9584   -8.8082   22.5482 C   0  0  0  0  0  0  0  0  0  0  0  0
  -34.1464  -19.2964   20.0961 C   0  0  0  0  0  0  0  0  0  0  0  0
  -21.4762   -5.7139   23.7476 C   0  0  0  0  0  0  0  0  0  0  0  0
  -22.0621   -4.6969   24.5012 C   0  0  0  0  0  0  0  0  0  0  0  0
  -35.3721  -20.8875   21.4322 C   0  0  0  0  0  0  0  0  0  0  0  0
  -32.0594  -16.5465   22.5692 C   0  0  0  0  0  0  0  0  0  0  0  0
  -23.7878   -4.4515   22.8282 C   0  0  0  0  0  0  0  0  0  0  0  0
  -23.7458  -10.4864   20.9987 C   0  0  0  0  0  0  0  0  0  0  0  0
  -24.1319  -13.0021   20.8262 C   0  0  0  0  0  0  0  0  0  0  0  0
  -29.0818  -26.4406   17.8679 C   0  0  0  0  0  0  0  0  0  0  0  0
  -32.9839  -21.1544   21.1408 C   0  0  0  0  0  0  0  0  0  0  0  0
  -30.0862  -25.4567   17.9418 C   0  0  0  0  0  0  0  0  0  0  0  0
  -34.1917  -21.5983   21.6977 C   0  0  0  0  0  0  0  0  0  0  0  0
  -30.6760  -16.5472   22.3906 C   0  0  0  0  0  0  0  0  0  0  0  0
  -22.2120   -8.2172   21.5287 C   0  0  0  0  0  0  0  0  0  0  0  0
  -35.3494  -19.7438   20.6344 C   0  0  0  0  0  0  0  0  0  0  0  0
  -32.6477  -17.4421   23.4623 C   0  0  0  0  0  0  0  0  0  0  0  0
  -22.0461   -6.0997   22.5342 C   0  0  0  0  0  0  0  0  0  0  0  0
  -23.2179   -4.0657   24.0415 C   0  0  0  0  0  0  0  0  0  0  0  0
  -23.2019   -5.4685   22.0746 C   0  0  0  0  0  0  0  0  0  0  0  0
  -24.5386  -11.6581   20.7255 C   0  0  0  0  0  0  0  0  0  0  0  0
  -25.2418  -13.7248   20.4625 C   0  0  0  0  0  0  0  0  0  0  0  0
  -22.8643  -13.5484   21.2139 C   0  0  0  0  0  0  0  0  0  0  0  0
  -32.2680  -24.2125   20.6519 C   0  0  0  0  0  0  0  0  0  0  0  0
  -32.8035  -24.4444   23.8428 C   0  0  0  0  0  0  0  0  0  0  0  0
  -36.8901  -16.6971   23.0153 C   0  0  0  0  0  0  0  0  0  0  0  0
  -34.3252  -23.1818   26.6244 C   0  0  0  0  0  0  0  0  0  0  0  0
  -30.7217  -14.6836   20.6961 C   0  0  0  0  0  0  0  0  0  0  0  0
  -29.1895  -27.7423   18.6219 C   0  0  0  0  0  0  0  0  0  0  0  0
  -31.6994  -21.8823   21.4283 C   0  0  0  0  0  0  0  0  0  0  0  0
  -34.2597  -22.8251   22.5689 C   0  0  0  0  0  0  0  0  0  0  0  0
  -30.2055  -27.7044   19.7606 C   0  0  0  0  0  0  0  0  0  0  0  0
  -29.6018  -12.2344   18.3670 C   0  0  0  0  0  0  0  0  0  0  0  0
  -31.5101  -27.0684   19.2912 C   0  0  0  0  0  0  0  0  0  0  0  0
  -28.1513  -11.9767   18.7813 C   0  0  0  0  0  0  0  0  0  0  0  0
  -30.5028  -12.4758   19.5769 C   0  0  0  0  0  0  0  0  0  0  0  0
  -28.5881  -13.2634   20.9121 C   0  0  0  0  0  0  0  0  0  0  0  0
  -31.2880  -25.6175   18.8473 C   0  0  1  0  0  0  0  0  0  0  0  0
  -31.9143  -23.3402   21.8231 C   0  0  1  0  0  0  0  0  0  0  0  0
  -27.6301  -13.0791   19.7240 C   0  0  2  0  0  0  0  0  0  0  0  0
  -34.6073  -23.6095   29.0811 C   0  0  0  0  0  0  0  0  0  0  0  0
  -34.7670  -26.6962   23.2229 C   0  0  0  0  0  0  0  0  0  0  0  0
  -35.6939  -26.4299   25.5334 C   0  0  0  0  0  0  0  0  0  0  0  0
  -33.3121  -27.1000   25.2166 C   0  0  0  0  0  0  0  0  0  0  0  0
  -33.0772  -20.5944   27.3362 C   0  0  0  0  0  0  0  0  0  0  0  0
  -37.9684  -17.2570   22.1048 C   0  0  0  0  0  0  0  0  0  0  0  0
  -37.6836  -16.9898   20.6312 C   0  0  0  0  0  0  0  0  0  0  0  0
  -35.7988  -17.1199   25.2013 C   0  0  0  0  0  0  0  0  0  0  0  0
  -36.3927  -17.6560   20.1779 C   0  0  0  0  0  0  0  0  0  1  0  0
  -34.4877  -17.8303   24.9182 C   0  0  0  0  0  0  0  0  0  0  0  0
  -34.0094  -24.7239   24.7069 C   0  0  1  0  0  0  0  0  0  0  0  0
  -33.7957  -22.8878   28.0164 C   0  0  2  0  0  0  0  0  0  0  0  0
  -34.4450  -26.2154   24.6520 C   0  0  0  0  0  0  0  0  0  0  0  0
  -25.8077  -11.5317   20.3288 N   0  0  0  0  0  0  0  0  0  0  0  0
  -26.2081  -12.8055   20.1769 N   0  0  0  0  0  0  0  0  0  0  0  0
  -32.9779  -23.5061   22.8157 N   0  0  0  0  0  0  0  0  0  0  0  0
  -29.9484  -13.5357   20.4219 N   0  0  0  0  0  0  0  0  0  0  0  0
  -25.4757  -15.0505   20.3622 N   0  0  0  0  0  0  0  0  0  0  0  0
  -21.8323  -12.6641   21.5565 N   0  0  0  0  0  0  0  0  0  0  0  0
  -30.0780  -15.6379   21.4832 N   0  0  0  0  0  0  0  0  0  0  0  0
  -31.1744  -24.7484   19.9990 N   0  0  0  0  0  0  0  0  0  0  0  0
  -36.7589  -17.4481   24.1743 N   0  0  0  0  0  0  0  0  0  0  0  0
  -33.6721  -24.2488   26.0444 N   0  0  0  0  0  0  0  0  0  0  0  0
  -33.8523  -21.4246   28.2938 N   0  3  0  0  0  0  0  0  0  0  0  0
  -22.6480  -14.7837   21.2395 O   0  0  0  0  0  0  0  0  0  0  0  0
  -33.4459  -24.3877   20.3630 O   0  0  0  0  0  0  0  0  0  0  0  0
  -31.7438  -25.0315   24.0752 O   0  0  0  0  0  0  0  0  0  0  0  0
  -36.2258  -15.7012   22.7414 O   0  0  0  0  0  0  0  0  0  0  0  0
  -35.2303  -22.5325   26.1051 O   0  0  0  0  0  0  0  0  0  0  0  0
  -31.8603  -14.8228   20.2419 O   0  0  0  0  0  0  0  0  0  0  0  0
  -21.4636   -7.1102   21.7876 O   0  0  0  0  0  0  0  0  0  0  0  0
  -36.5016  -19.0635   20.3867 O   0  0  0  0  0  0  0  0  0  1  0  0
  -34.0067  -17.4413   23.6379 O   0  0  0  0  0  0  0  0  0  0  0  0
  -23.7814   -3.0900   24.7660 F   0  0  0  0  0  0  0  0  0  0  0  0
  -23.7546   -5.8357   20.9103 F   0  0  0  0  0  0  0  0  0  0  0  0
  1  2  1  0  0  0  0
  1  6  2  0  0  0  0
  2  7  2  0  0  0  0
  3  9  1  0  0  0  0
  3 10  2  0  0  0  0
  4 11  2  0  0  0  0
  4 19  1  0  0  0  0
  5 12  1  0  0  0  0
  5 19  2  0  0  0  0
  6 21  1  0  0  0  0
  7 23  1  0  0  0  0
  8 13  2  0  0  0  0
  8 22  1  0  0  0  0
  9 25  2  0  0  0  0
 10 28  1  0  0  0  0
 11 26  1  0  0  0  0
 12 26  2  0  0  0  0
 13 27  1  0  0  0  0
 14 15  2  0  0  0  0
 14 29  1  0  0  0  0
 15 30  1  0  0  0  0
 16 24  1  0  0  0  0
 16 27  2  0  0  0  0
 17 25  1  0  0  0  0
 17 28  2  0  0  0  0
 18 30  2  0  0  0  0
 18 31  1  0  0  0  0
 19 32  1  0  0  0  0
 20 32  1  0  0  0  0
 20 33  2  0  0  0  0
 20 34  1  0  0  0  0
 21 23  2  0  0  0  0
 21 40  1  0  0  0  0
 22 24  2  0  0  0  0
 22 41  1  0  0  0  0
 23 49  1  0  0  0  0
 24 42  1  0  0  0  0
 25 71  1  0  0  0  0
 26 82  1  0  0  0  0
 27 83  1  0  0  0  0
 28 84  1  0  0  0  0
 29 31  2  0  0  0  0
 29 82  1  0  0  0  0
 30 85  1  0  0  0  0
 31 86  1  0  0  0  0
 32 65  2  0  0  0  0
 33 66  1  0  0  0  0
 33 69  1  0  0  0  0
 34 70  1  0  0  0  0
 34 76  2  0  0  0  0
 35 50  1  0  0  0  0
 35 72  1  0  0  0  0
 35 77  2  0  0  0  0
 36 62  1  0  0  0  0
 36 67  1  0  0  0  0
 36 78  2  0  0  0  0
 37 57  1  0  0  0  0
 37 73  1  0  0  0  0
 37 79  2  0  0  0  0
 38 63  1  0  0  0  0
 38 74  1  0  0  0  0
 38 80  2  0  0  0  0
 39 68  1  0  0  0  0
 39 71  1  0  0  0  0
 39 81  2  0  0  0  0
 40 43  1  0  0  0  0
 41 50  1  0  0  0  0
 42 67  1  0  0  0  0
 43 45  1  0  0  0  0
 44 46  1  0  0  0  0
 44 47  1  0  0  0  0
 45 49  1  0  0  0  0
 46 51  1  0  0  0  0
 47 68  1  0  0  0  0
 48 51  1  0  0  0  0
 48 68  1  0  0  0  0
 49 72  1  0  0  0  0
 50 67  1  0  0  0  0
 51 66  1  0  0  0  0
 52 63  1  0  0  0  0
 53 64  1  0  0  0  0
 54 64  1  0  0  0  0
 55 64  1  0  0  0  0
 56 75  1  0  0  0  0
 57 58  1  0  0  0  0
 58 60  1  0  0  0  0
 59 61  1  0  0  0  0
 59 73  1  0  0  0  0
 60 83  1  0  0  0  0
 61 84  1  0  0  0  0
 62 64  1  0  0  0  0
 62 74  1  0  0  0  0
 63 75  1  0  0  0  0
 65 66  1  0  0  0  0
M  CHG  1  75   1
M  ISO  4  39 100  60 101  71 100  83 101
M  END
> <Batch ID>
0006

> <Smiles>
CNC(C)C(=O)NC(C(=O)N1Cc2cc([101O:1][101CH2:1]CCC(=O)NCCOc3cccc([100NH:0][100C:0](=O)N4CCCC(n5nc(-c6ccc(Oc7ccc(F)cc7F)cc6)c(C(N)=O)c5N)C4)c3)ccc2CC1C(=O)NC1CCCc2ccccc21)C(C)(C)C

> <Shape>
0.214

> <Color>
0.194

> <Negative vol penalty>
0.000

$$$$

  -OEChem-04052315303D

 86 94  0     1  0  0  0  0  0999 V2000
  -27.6223  -10.3196   20.1647 C   0  0  0  0  0  0  0  0  0  0  0  0
  -28.1994  -11.4208   19.5405 C   0  0  0  0  0  0  0  0  0  0  0  0
  -19.0160  -26.7463   21.3579 C   0  0  0  0  0  0  0  0  0  0  0  0
  -20.5161  -24.8735   21.6402 C   0  0  0  0  0  0  0  0  0  0  0  0
  -26.3289  -10.4089   20.6776 C   0  0  0  0  0  0  0  0  0  0  0  0
  -27.4830  -12.6118   19.4278 C   0  0  0  0  0  0  0  0  0  0  0  0
  -29.7376  -18.3009   19.6645 C   0  0  0  0  0  0  0  0  0  0  0  0
  -18.0550  -25.8944   20.8135 C   0  0  0  0  0  0  0  0  0  0  0  0
  -19.5550  -24.0216   21.0958 C   0  0  0  0  0  0  0  0  0  0  0  0
  -30.0791  -19.2167   18.6703 C   0  0  0  0  0  0  0  0  0  0  0  0
  -17.6342  -21.4122   19.4493 C   0  0  0  0  0  0  0  0  0  0  0  0
  -18.0565  -20.4793   18.5022 C   0  0  0  0  0  0  0  0  0  0  0  0
  -29.5436  -24.7762   19.9938 C   0  0  0  0  0  0  0  0  0  0  0  0
  -27.9157  -20.2596   18.8962 C   0  0  0  0  0  0  0  0  0  0  0  0
  -29.2545  -27.3459   18.9471 C   0  0  0  0  0  0  0  0  0  0  0  0
  -18.8224  -22.2733   17.0767 C   0  0  0  0  0  0  0  0  0  0  0  0
  -20.2466  -26.2358   21.7711 C   0  0  0  0  0  0  0  0  0  0  0  0
  -30.3953  -25.2164   18.9807 C   0  0  0  0  0  0  0  0  0  0  0  0
  -21.4068  -27.4532   23.6894 C   0  0  0  0  0  0  0  0  0  0  0  0
  -25.5999  -11.6045   20.5797 C   0  0  0  0  0  0  0  0  0  0  0  0
  -28.4764  -18.3509   20.2755 C   0  0  0  0  0  0  0  0  0  0  0  0
  -26.1781  -12.7168   19.9387 C   0  0  0  0  0  0  0  0  0  0  0  0
  -27.5616  -19.3450   19.8998 C   0  0  0  0  0  0  0  0  0  0  0  0
  -30.2508  -26.5013   18.4574 C   0  0  0  0  0  0  0  0  0  0  0  0
  -28.4028  -26.9056   19.9602 C   0  0  0  0  0  0  0  0  0  0  0  0
  -18.3244  -24.5321   20.6825 C   0  0  0  0  0  0  0  0  0  0  0  0
  -29.1671  -20.1944   18.2839 C   0  0  0  0  0  0  0  0  0  0  0  0
  -17.8059  -22.7757   19.2100 C   0  0  0  0  0  0  0  0  0  0  0  0
  -28.5473  -25.6207   20.4835 C   0  0  0  0  0  0  0  0  0  0  0  0
  -18.6506  -20.9098   17.3159 C   0  0  0  0  0  0  0  0  0  0  0  0
  -18.4000  -23.2062   18.0237 C   0  0  0  0  0  0  0  0  0  0  0  0
  -21.2400  -27.1154   22.3330 C   0  0  0  0  0  0  0  0  0  0  0  0
  -22.4785  -28.3121   23.7001 C   0  0  0  0  0  0  0  0  0  0  0  0
  -31.4356  -24.3036   18.4808 C   0  0  0  0  0  0  0  0  0  0  0  0
  -20.6598  -27.0284   24.8371 C   0  0  0  0  0  0  0  0  0  0  0  0
  -25.9996  -16.3685   20.4734 C   0  0  0  0  0  0  0  0  0  0  0  0
  -24.8546  -18.6243   22.5039 C   0  0  0  0  0  0  0  0  0  0  0  0
  -24.2941  -22.0361   23.5349 C   0  0  0  0  0  0  0  0  0  0  0  0
  -27.1317  -29.0795   20.0309 C   0  0  0  0  0  0  0  0  0  0  0  0
  -24.1873  -11.6386   21.1072 C   0  0  0  0  0  0  0  0  0  0  0  0
  -28.1333  -17.3725   21.3652 C   0  0  0  0  0  0  0  0  0  0  0  0
  -26.2022  -19.4541   20.5390 C   0  0  0  0  0  0  0  0  0  0  0  0
  -23.6355  -13.0515   21.2795 C   0  0  0  0  0  0  0  0  0  0  0  0
  -24.7237  -31.5329   20.9578 C   0  0  0  0  0  0  0  0  0  0  0  0
  -23.9315  -13.8947   20.0433 C   0  0  0  0  0  0  0  0  0  0  0  0
  -23.5748  -30.7096   21.5447 C   0  0  0  0  0  0  0  0  0  0  0  0
  -25.3819  -30.8252   19.7747 C   0  0  0  0  0  0  0  0  0  0  0  0
  -24.6712  -28.6257   20.6269 C   0  0  0  0  0  0  0  0  0  0  0  0
  -25.4421  -14.0336   19.8190 C   0  0  1  0  0  0  0  0  0  0  0  0
  -26.6304  -17.1955   21.5578 C   0  0  1  0  0  0  0  0  0  0  0  0
  -24.0190  -29.2683   21.8620 C   0  0  2  0  0  0  0  0  0  0  0  0
  -31.1485  -26.9968   17.3708 C   0  0  0  0  0  0  0  0  0  0  0  0
  -23.4243  -23.5925   25.3008 C   0  0  0  0  0  0  0  0  0  0  0  0
  -22.3255  -18.6963   20.7985 C   0  0  0  0  0  0  0  0  0  0  0  0
  -21.7298  -20.8654   21.8977 C   0  0  0  0  0  0  0  0  0  0  0  0
  -21.9235  -18.7881   23.2652 C   0  0  0  0  0  0  0  0  0  0  0  0
  -32.1380  -22.5597   16.8873 C   0  0  0  0  0  0  0  0  0  0  0  0
  -27.0048  -22.4937   24.6311 C   0  0  0  0  0  0  0  0  0  0  0  0
  -26.5271  -24.5121   21.0714 C   0  0  0  0  0  0  0  0  0  0  0  0
  -29.8211  -23.4025   16.7441 C   0  0  0  0  0  0  0  0  0  0  0  0
  -28.9015  -22.3832   17.3925 C   0  0  0  0  0  0  0  0  0  1  0  0
  -24.0180  -19.8719   22.3540 C   0  0  1  0  0  0  0  0  0  0  0  0
  -24.5267  -22.6174   24.9178 C   0  0  2  0  0  0  0  0  0  0  0  0
  -22.5240  -19.5524   22.0653 C   0  0  0  0  0  0  0  0  0  0  0  0
  -22.1341  -27.7113   21.5395 N   0  0  0  0  0  0  0  0  0  0  0  0
  -22.8729  -28.4322   22.4000 N   0  0  0  0  0  0  0  0  0  0  0  0
  -25.9113  -18.4706   21.5952 N   0  0  0  0  0  0  0  0  0  0  0  0
  -25.7803  -29.4670   20.1507 N   0  0  0  0  0  0  0  0  0  0  0  0
  -23.1124  -28.9690   24.6946 N   0  0  0  0  0  0  0  0  0  0  0  0
  -19.5895  -26.1435   24.6477 N   0  0  0  0  0  0  0  0  0  0  0  0
  -27.3970  -27.7758   20.4488 N   0  0  0  0  0  0  0  0  0  0  0  0
  -26.0004  -15.0105   20.7292 N   0  0  0  0  0  0  0  0  0  0  0  0
  -24.2380  -20.6586   23.5627 N   0  0  0  0  0  0  0  0  0  0  0  0
  -31.1011  -23.4609   17.3989 N   0  0  0  0  0  0  0  0  0  0  0  0
  -25.8296  -23.3393   24.9639 N   0  3  0  0  0  0  0  0  0  0  0  0
  -32.5267  -24.3593   19.0471 O   0  0  0  0  0  0  0  0  0  0  0  0
  -20.9230  -27.4347   25.9944 O   0  0  0  0  0  0  0  0  0  0  0  0
  -25.5446  -16.9216   19.4791 O   0  0  0  0  0  0  0  0  0  0  0  0
  -24.5851  -17.8194   23.3989 O   0  0  0  0  0  0  0  0  0  0  0  0
  -24.1706  -22.7342   22.5310 O   0  0  0  0  0  0  0  0  0  0  0  0
  -27.9953  -29.8565   19.6155 O   0  0  0  0  0  0  0  0  0  0  0  0
  -17.3868  -23.7006   20.1516 O   0  0  0  0  0  0  0  0  0  0  0  0
  -27.7255  -25.1717   21.4739 O   0  0  0  0  0  0  0  0  0  0  0  0
  -29.4976  -21.0891   17.3132 O   0  0  0  0  0  0  0  0  0  1  0  0
  -19.0575  -20.0138   16.4072 F   0  0  0  0  0  0  0  0  0  0  0  0
  -18.5687  -24.5147   17.7888 F   0  0  0  0  0  0  0  0  0  0  0  0
  1  2  1  0  0  0  0
  1  5  2  0  0  0  0
  2  6  2  0  0  0  0
  3  8  2  0  0  0  0
  3 17  1  0  0  0  0
  4  9  1  0  0  0  0
  4 17  2  0  0  0  0
  5 20  1  0  0  0  0
  6 22  1  0  0  0  0
  7 10  2  0  0  0  0
  7 21  1  0  0  0  0
  8 26  1  0  0  0  0
  9 26  2  0  0  0  0
 10 27  1  0  0  0  0
 11 12  2  0  0  0  0
 11 28  1  0  0  0  0
 12 30  1  0  0  0  0
 13 18  1  0  0  0  0
 13 29  2  0  0  0  0
 14 23  1  0  0  0  0
 14 27  2  0  0  0  0
 15 24  1  0  0  0  0
 15 25  2  0  0  0  0
 16 30  2  0  0  0  0
 16 31  1  0  0  0  0
 17 32  1  0  0  0  0
 18 24  2  0  0  0  0
 18 34  1  0  0  0  0
 19 32  1  0  0  0  0
 19 33  2  0  0  0  0
 19 35  1  0  0  0  0
 20 22  2  0  0  0  0
 20 40  1  0  0  0  0
 21 23  2  0  0  0  0
 21 41  1  0  0  0  0
 22 49  1  0  0  0  0
 23 42  1  0  0  0  0
 24 52  1  0  0  0  0
 25 29  1  0  0  0  0
 25 71  1  0  0  0  0
 26 82  1  0  0  0  0
 27 84  1  0  0  0  0
 28 31  2  0  0  0  0
 28 82  1  0  0  0  0
 29 83  1  0  0  0  0
 30 85  1  0  0  0  0
 31 86  1  0  0  0  0
 32 65  2  0  0  0  0
 33 66  1  0  0  0  0
 33 69  1  0  0  0  0
 34 74  1  0  0  0  0
 34 76  2  0  0  0  0
 35 70  1  0  0  0  0
 35 77  2  0  0  0  0
 36 50  1  0  0  0  0
 36 72  1  0  0  0  0
 36 78  2  0  0  0  0
 37 62  1  0  0  0  0
 37 67  1  0  0  0  0
 37 79  2  0  0  0  0
 38 63  1  0  0  0  0
 38 73  1  0  0  0  0
 38 80  2  0  0  0  0
 39 68  1  0  0  0  0
 39 71  1  0  0  0  0
 39 81  2  0  0  0  0
 40 43  1  0  0  0  0
 41 50  1  0  0  0  0
 42 67  1  0  0  0  0
 43 45  1  0  0  0  0
 44 46  1  0  0  0  0
 44 47  1  0  0  0  0
 45 49  1  0  0  0  0
 46 51  1  0  0  0  0
 47 68  1  0  0  0  0
 48 51  1  0  0  0  0
 48 68  1  0  0  0  0
 49 72  1  0  0  0  0
 50 67  1  0  0  0  0
 51 66  1  0  0  0  0
 53 63  1  0  0  0  0
 54 64  1  0  0  0  0
 55 64  1  0  0  0  0
 56 64  1  0  0  0  0
 57 74  1  0  0  0  0
 58 75  1  0  0  0  0
 59 83  1  0  0  0  0
 60 61  1  0  0  0  0
 60 74  1  0  0  0  0
 61 84  1  0  0  0  0
 62 64  1  0  0  0  0
 62 73  1  0  0  0  0
 63 75  1  0  0  0  0
 65 66  1  0  0  0  0
M  CHG  1  75   1
M  ISO  4  39 100  61 101  71 100  84 101
M  END
> <Batch ID>
0006

> <Smiles>
CNC(C)C(=O)NC(C(=O)N1Cc2cc([101O:1][101CH2:1]CN(C)C(=O)c3cc(OC)c([100NH:0][100C:0](=O)N4CCCC(n5nc(-c6ccc(Oc7ccc(F)cc7F)cc6)c(C(N)=O)c5N)C4)cc3C)ccc2CC1C(=O)NC1CCCc2ccccc21)C(C)(C)C

> <Shape>
0.231

> <Color>
0.048

> <Negative vol penalty>
0.000

$$$$

  -OEChem-04052315303D

 89 97  0     1  0  0  0  0  0999 V2000
  -24.1810  -31.6897   20.6835 C   0  0  0  0  0  0  0  0  0  0  0  0
  -23.2203  -30.6835   20.6815 C   0  0  0  0  0  0  0  0  0  0  0  0
  -24.7138  -14.9532   24.5850 C   0  0  0  0  0  0  0  0  0  0  0  0
  -28.3004  -19.7544   20.4875 C   0  0  0  0  0  0  0  0  0  0  0  0
  -27.8298  -19.4684   18.1351 C   0  0  0  0  0  0  0  0  0  0  0  0
  -25.5332  -31.3607   20.7684 C   0  0  0  0  0  0  0  0  0  0  0  0
  -23.6114  -29.3475   20.7633 C   0  0  0  0  0  0  0  0  0  0  0  0
  -21.4439  -23.0471   23.3945 C   0  0  0  0  0  0  0  0  0  0  0  0
  -24.2274  -13.8164   23.9396 C   0  0  0  0  0  0  0  0  0  0  0  0
  -23.9358  -16.1095   24.6421 C   0  0  0  0  0  0  0  0  0  0  0  0
  -28.7289  -21.0591   20.2432 C   0  0  0  0  0  0  0  0  0  0  0  0
  -28.2583  -20.7731   17.8908 C   0  0  0  0  0  0  0  0  0  0  0  0
  -21.2291  -21.7291   22.9939 C   0  0  0  0  0  0  0  0  0  0  0  0
  -31.1988  -22.4093   17.5629 C   0  0  0  0  0  0  0  0  0  0  0  0
  -32.0427  -22.6208   16.4726 C   0  0  0  0  0  0  0  0  0  0  0  0
  -23.5894  -21.2832   23.2164 C   0  0  0  0  0  0  0  0  0  0  0  0
  -22.1848  -14.9922   23.4081 C   0  0  0  0  0  0  0  0  0  0  0  0
  -30.4136  -24.1177   15.5019 C   0  0  0  0  0  0  0  0  0  0  0  0
  -27.8508  -18.9590   19.4335 C   0  0  0  0  0  0  0  0  0  0  0  0
  -26.1022  -17.1893   19.9975 C   0  0  0  0  0  0  0  0  0  0  0  0
  -25.9405  -30.0205   20.8610 C   0  0  0  0  0  0  0  0  0  0  0  0
  -22.7368  -23.4968   23.6991 C   0  0  0  0  0  0  0  0  0  0  0  0
  -24.9704  -29.0002   20.8482 C   0  0  0  0  0  0  0  0  0  0  0  0
  -23.8176  -22.6067   23.6231 C   0  0  0  0  0  0  0  0  0  0  0  0
  -22.9629  -13.8359   23.3511 C   0  0  0  0  0  0  0  0  0  0  0  0
  -28.7079  -21.5685   18.9448 C   0  0  0  0  0  0  0  0  0  0  0  0
  -22.3023  -20.8477   22.9021 C   0  0  0  0  0  0  0  0  0  0  0  0
  -22.6713  -16.1291   24.0536 C   0  0  0  0  0  0  0  0  0  0  0  0
  -29.9622  -23.0520   17.6226 C   0  0  0  0  0  0  0  0  0  0  0  0
  -31.6502  -23.4750   15.4422 C   0  0  0  0  0  0  0  0  0  0  0  0
  -29.5696  -23.9062   16.5922 C   0  0  0  0  0  0  0  0  0  0  0  0
  -27.4085  -17.6110   19.6851 C   0  0  0  0  0  0  0  0  0  0  0  0
  -26.2063  -15.8273   20.1414 C   0  0  0  0  0  0  0  0  0  0  0  0
  -24.9020  -17.9598   20.1444 C   0  0  0  0  0  0  0  0  0  0  0  0
  -24.6806  -25.7109   22.5064 C   0  0  0  0  0  0  0  0  0  0  0  0
  -26.5286  -24.8991   25.0457 C   0  0  0  0  0  0  0  0  0  0  0  0
  -23.3330  -11.7394   22.0543 C   0  0  0  0  0  0  0  0  0  0  0  0
  -27.3802  -22.5582   27.3786 C   0  0  0  0  0  0  0  0  0  0  0  0
  -28.1198  -10.8818   18.4019 C   0  0  0  0  0  0  0  0  0  0  0  0
  -27.4162  -29.7115   20.9032 C   0  0  0  0  0  0  0  0  0  0  0  0
  -22.9480  -24.9143   24.1554 C   0  0  0  0  0  0  0  0  0  0  0  0
  -25.2222  -23.0344   23.9587 C   0  0  0  0  0  0  0  0  0  0  0  0
  -27.7279  -28.2901   21.3644 C   0  0  0  0  0  0  0  0  0  0  0  0
  -30.2849  -12.8495   20.4310 C   0  0  0  0  0  0  0  0  0  0  0  0
  -26.8327  -27.2867   20.6442 C   0  0  0  0  0  0  0  0  0  0  0  0
  -29.6253  -14.2296   20.4382 C   0  0  0  0  0  0  0  0  0  0  0  0
  -30.1323  -12.1582   19.0779 C   0  0  0  0  0  0  0  0  0  0  0  0
  -28.0863  -13.4430   18.5913 C   0  0  0  0  0  0  0  0  0  0  0  0
  -25.3538  -27.5406   20.9604 C   0  0  1  0  0  0  0  0  0  0  0  0
  -24.3780  -25.4028   23.9455 C   0  0  1  0  0  0  0  0  0  0  0  0
  -28.1654  -14.1560   19.9521 C   0  0  2  0  0  0  0  0  0  0  0  0
  -28.9512  -22.1690   29.2963 C   0  0  0  0  0  0  0  0  0  0  0  0
  -28.8149  -24.4436   23.0771 C   0  0  0  0  0  0  0  0  0  0  0  0
  -30.0163  -23.1785   24.8727 C   0  0  0  0  0  0  0  0  0  0  0  0
  -29.4773  -25.5923   25.1975 C   0  0  0  0  0  0  0  0  0  0  0  0
  -21.0094  -12.4111   22.7793 C   0  0  0  0  0  0  0  0  0  0  0  0
  -25.1468  -22.2218   29.2912 C   0  0  0  0  0  0  0  0  0  0  0  0
  -22.6901  -10.4664   21.5069 C   0  0  0  0  0  0  0  0  0  0  0  0
  -23.6794   -9.5107   20.8335 C   0  0  0  0  0  0  0  0  0  0  0  0
  -24.3358  -10.1272   19.5933 C   0  0  0  0  0  0  0  0  0  0  0  0
  -25.3368   -9.1572   18.9576 C   0  0  0  0  0  0  0  0  0  0  0  0
  -26.0203   -9.7437   17.7267 C   0  0  0  0  0  0  0  0  0  0  0  0
  -20.8321  -18.9797   22.8306 C   0  0  0  0  0  0  0  0  0  1  0  0
  -21.0095  -17.4868   23.0284 C   0  0  0  0  0  0  0  0  0  0  0  0
  -27.6170  -23.8829   25.2945 C   0  0  1  0  0  0  0  0  0  0  0  0
  -27.5720  -22.6570   28.8812 C   0  0  2  0  0  0  0  0  0  0  0  0
  -28.9553  -24.2665   24.6022 C   0  0  0  0  0  0  0  0  0  0  0  0
  -28.2786  -16.5990   19.6336 N   0  0  0  0  0  0  0  0  0  0  0  0
  -27.5176  -15.5278   19.9156 N   0  0  0  0  0  0  0  0  0  0  0  0
  -25.3784  -24.4321   24.3939 N   0  0  0  0  0  0  0  0  0  0  0  0
  -28.7244  -12.1199   18.6752 N   0  0  0  0  0  0  0  0  0  0  0  0
  -25.3032  -14.8688   20.4379 N   0  0  0  0  0  0  0  0  0  0  0  0
  -24.9726  -19.3477   19.9623 N   0  0  0  0  0  0  0  0  0  0  0  0
  -25.0226  -27.0293   22.2731 N   0  0  0  0  0  0  0  0  0  0  0  0
  -27.7142  -23.7352   26.7426 N   0  0  0  0  0  0  0  0  0  0  0  0
  -26.7811  -10.9345   18.0331 N   0  0  0  0  0  0  0  0  0  0  0  0
  -22.4766  -12.6984   22.7058 N   0  0  0  0  0  0  0  0  0  0  0  0
  -26.5500  -21.8351   29.5890 N   0  3  0  0  0  0  0  0  0  0  0  0
  -23.8030  -17.4351   20.4448 O   0  0  0  0  0  0  0  0  0  0  0  0
  -24.6106  -24.8183   21.6697 O   0  0  0  0  0  0  0  0  0  0  0  0
  -26.6899  -26.0625   25.4224 O   0  0  0  0  0  0  0  0  0  0  0  0
  -24.5521  -11.8965   21.9491 O   0  0  0  0  0  0  0  0  0  0  0  0
  -26.9780  -21.5378   26.8240 O   0  0  0  0  0  0  0  0  0  0  0  0
  -28.7265   -9.8086   18.4858 O   0  0  0  0  0  0  0  0  0  0  0  0
  -29.1258  -22.8416   18.7061 O   0  0  0  0  0  0  0  0  0  0  0  0
  -22.0956  -19.5608   22.5107 O   0  0  0  0  0  0  0  0  0  1  0  0
  -21.9071  -17.2648   24.1094 O   0  0  0  0  0  0  0  0  0  0  0  0
  -32.4613  -23.6791   14.3960 F   0  0  0  0  0  0  0  0  0  0  0  0
  -28.3834  -24.5273   16.6446 F   0  0  0  0  0  0  0  0  0  0  0  0
  1  2  1  0  0  0  0
  1  6  2  0  0  0  0
  2  7  2  0  0  0  0
  3  9  1  0  0  0  0
  3 10  2  0  0  0  0
  4 11  2  0  0  0  0
  4 19  1  0  0  0  0
  5 12  1  0  0  0  0
  5 19  2  0  0  0  0
  6 21  1  0  0  0  0
  7 23  1  0  0  0  0
  8 13  2  0  0  0  0
  8 22  1  0  0  0  0
  9 25  2  0  0  0  0
 10 28  1  0  0  0  0
 11 26  1  0  0  0  0
 12 26  2  0  0  0  0
 13 27  1  0  0  0  0
 14 15  2  0  0  0  0
 14 29  1  0  0  0  0
 15 30  1  0  0  0  0
 16 24  1  0  0  0  0
 16 27  2  0  0  0  0
 17 25  1  0  0  0  0
 17 28  2  0  0  0  0
 18 30  2  0  0  0  0
 18 31  1  0  0  0  0
 19 32  1  0  0  0  0
 20 32  1  0  0  0  0
 20 33  2  0  0  0  0
 20 34  1  0  0  0  0
 21 23  2  0  0  0  0
 21 40  1  0  0  0  0
 22 24  2  0  0  0  0
 22 41  1  0  0  0  0
 23 49  1  0  0  0  0
 24 42  1  0  0  0  0
 25 77  1  0  0  0  0
 26 85  1  0  0  0  0
 27 86  1  0  0  0  0
 28 87  1  0  0  0  0
 29 31  2  0  0  0  0
 29 85  1  0  0  0  0
 30 88  1  0  0  0  0
 31 89  1  0  0  0  0
 32 68  2  0  0  0  0
 33 69  1  0  0  0  0
 33 72  1  0  0  0  0
 34 73  1  0  0  0  0
 34 79  2  0  0  0  0
 35 50  1  0  0  0  0
 35 74  1  0  0  0  0
 35 80  2  0  0  0  0
 36 65  1  0  0  0  0
 36 70  1  0  0  0  0
 36 81  2  0  0  0  0
 37 58  1  0  0  0  0
 37 77  1  0  0  0  0
 37 82  2  0  0  0  0
 38 66  1  0  0  0  0
 38 75  1  0  0  0  0
 38 83  2  0  0  0  0
 39 71  1  0  0  0  0
 39 76  1  0  0  0  0
 39 84  2  0  0  0  0
 40 43  1  0  0  0  0
 41 50  1  0  0  0  0
 42 70  1  0  0  0  0
 43 45  1  0  0  0  0
 44 46  1  0  0  0  0
 44 47  1  0  0  0  0
 45 49  1  0  0  0  0
 46 51  1  0  0  0  0
 47 71  1  0  0  0  0
 48 51  1  0  0  0  0
 48 71  1  0  0  0  0
 49 74  1  0  0  0  0
 50 70  1  0  0  0  0
 51 69  1  0  0  0  0
 52 66  1  0  0  0  0
 53 67  1  0  0  0  0
 54 67  1  0  0  0  0
 55 67  1  0  0  0  0
 56 77  1  0  0  0  0
 57 78  1  0  0  0  0
 58 59  1  0  0  0  0
 59 60  1  0  0  0  0
 60 61  1  0  0  0  0
 61 62  1  0  0  0  0
 62 76  1  0  0  0  0
 63 64  1  0  0  0  0
 63 86  1  0  0  0  0
 64 87  1  0  0  0  0
 65 67  1  0  0  0  0
 65 75  1  0  0  0  0
 66 78  1  0  0  0  0
 68 69  1  0  0  0  0
M  CHG  1  78   1
M  ISO  4  39 100  63 101  76 100  86 101
M  END
> <Batch ID>
0006

> <Smiles>
CNC(C)C(=O)NC(C(=O)N1Cc2cc([101O:1][101CH2:1]COc3cccc(N(C)C(=O)CCCCC[100NH:0][100C:0](=O)N4CCCC(n5nc(-c6ccc(Oc7ccc(F)cc7F)cc6)c(C(N)=O)c5N)C4)c3)ccc2CC1C(=O)NC1CCCc2ccccc21)C(C)(C)C

> <Shape>
0.185

> <Color>
0.094

> <Negative vol penalty>
0.000

$$$$

  -OEChem-04052315303D

 89 96  0     1  0  0  0  0  0999 V2000
  -26.4814  -30.0470   16.0725 C   0  0  0  0  0  0  0  0  0  0  0  0
  -25.2281  -29.4505   16.1663 C   0  0  0  0  0  0  0  0  0  0  0  0
  -29.8585  -20.0203   20.9404 C   0  0  0  0  0  0  0  0  0  0  0  0
  -27.6928  -19.5850   19.9620 C   0  0  0  0  0  0  0  0  0  0  0  0
  -27.3538  -30.0080   17.1594 C   0  0  0  0  0  0  0  0  0  0  0  0
  -24.8469  -28.8137   17.3468 C   0  0  0  0  0  0  0  0  0  0  0  0
  -19.0618  -27.4899   21.3589 C   0  0  0  0  0  0  0  0  0  0  0  0
  -29.8000  -21.3371   20.4841 C   0  0  0  0  0  0  0  0  0  0  0  0
  -27.6343  -20.9018   19.5057 C   0  0  0  0  0  0  0  0  0  0  0  0
  -18.3890  -26.4277   21.9614 C   0  0  0  0  0  0  0  0  0  0  0  0
  -28.3045  -24.2274   21.4020 C   0  0  0  0  0  0  0  0  0  0  0  0
  -28.6728  -25.2381   22.2900 C   0  0  0  0  0  0  0  0  0  0  0  0
  -19.9479  -26.4916   23.8012 C   0  0  0  0  0  0  0  0  0  0  0  0
  -30.4273  -25.9267   20.7785 C   0  0  0  0  0  0  0  0  0  0  0  0
  -28.8049  -19.1442   20.6793 C   0  0  0  0  0  0  0  0  0  0  0  0
  -28.9748  -17.3500   22.4847 C   0  0  0  0  0  0  0  0  0  0  0  0
  -26.9794  -29.3787   18.3571 C   0  0  0  0  0  0  0  0  0  0  0  0
  -20.1912  -28.0547   21.9689 C   0  0  0  0  0  0  0  0  0  0  0  0
  -25.7156  -28.7651   18.4503 C   0  0  0  0  0  0  0  0  0  0  0  0
  -20.6317  -27.5625   23.2057 C   0  0  0  0  0  0  0  0  0  0  0  0
  -28.6879  -21.7779   19.7667 C   0  0  0  0  0  0  0  0  0  0  0  0
  -18.8337  -25.9265   23.1813 C   0  0  0  0  0  0  0  0  0  0  0  0
  -28.9977  -24.0662   20.2024 C   0  0  0  0  0  0  0  0  0  0  0  0
  -29.7341  -26.0878   21.9782 C   0  0  0  0  0  0  0  0  0  0  0  0
  -30.0591  -24.9159   19.8906 C   0  0  0  0  0  0  0  0  0  0  0  0
  -28.8650  -17.7837   21.1500 C   0  0  0  0  0  0  0  0  0  0  0  0
  -28.9925  -15.9792   22.4000 C   0  0  0  0  0  0  0  0  0  0  0  0
  -29.0537  -18.1175   23.6932 C   0  0  0  0  0  0  0  0  0  0  0  0
  -23.2546  -28.3550   21.1757 C   0  0  0  0  0  0  0  0  0  0  0  0
  -26.8927  -12.1891   18.2361 C   0  0  0  0  0  0  0  0  0  0  0  0
  -23.3781  -30.1366   23.8837 C   0  0  0  0  0  0  0  0  0  0  0  0
  -25.0839  -12.4453   19.9871 C   0  0  0  0  0  0  0  0  0  0  0  0
  -22.0373  -30.8647   26.9364 C   0  0  0  0  0  0  0  0  0  0  0  0
  -27.9746  -29.3211   19.4888 C   0  0  0  0  0  0  0  0  0  0  0  0
  -20.8899  -29.2174   21.3191 C   0  0  0  0  0  0  0  0  0  0  0  0
  -21.8269  -28.1470   23.9116 C   0  0  0  0  0  0  0  0  0  0  0  0
  -27.3493  -28.9519   20.8316 C   0  0  0  0  0  0  0  0  0  0  0  0
  -30.2470  -12.4164   19.4758 C   0  0  0  0  0  0  0  0  0  0  0  0
  -26.4128  -27.7582   20.6742 C   0  0  0  0  0  0  0  0  0  0  0  0
  -30.2911  -13.7910   20.1420 C   0  0  0  0  0  0  0  0  0  0  0  0
  -29.3542  -12.4238   18.2389 C   0  0  0  0  0  0  0  0  0  0  0  0
  -28.0052  -14.2809   19.1625 C   0  0  0  0  0  0  0  0  0  0  0  0
  -25.2561  -28.0862   19.7223 C   0  0  1  0  0  0  0  0  0  0  0  0
  -22.3354  -29.3789   21.7794 C   0  0  1  0  0  0  0  0  0  0  0  0
  -28.8719  -14.3096   20.4339 C   0  0  2  0  0  0  0  0  0  0  0  0
  -22.3795  -32.3405   28.9369 C   0  0  0  0  0  0  0  0  0  0  0  0
  -25.6786  -28.3547   24.8017 C   0  0  0  0  0  0  0  0  0  0  0  0
  -25.3419  -29.2340   27.1216 C   0  0  0  0  0  0  0  0  0  0  0  0
  -25.9892  -30.7893   25.2818 C   0  0  0  0  0  0  0  0  0  0  0  0
  -19.4083  -32.1725   26.5663 C   0  0  0  0  0  0  0  0  0  0  0  0
  -25.5561  -12.7891   18.5934 C   0  0  0  0  0  0  0  0  0  0  0  0
  -23.6460  -16.3652   23.1559 C   0  0  0  0  0  0  0  0  0  0  0  0
  -23.3019  -17.7821   22.6935 C   0  0  0  0  0  0  0  0  0  0  0  0
  -23.2249  -15.3232   22.1178 C   0  0  0  0  0  0  0  0  0  0  0  0
  -23.7532  -18.8258   23.7165 C   0  0  0  0  0  0  0  0  0  0  0  0
  -23.5980  -13.9080   22.5692 C   0  0  0  0  0  0  0  0  0  0  0  0
  -23.3798  -20.2395   23.2708 C   0  0  0  0  0  0  0  0  0  0  0  0
  -17.5475  -22.5798   23.5649 C   0  0  0  0  0  0  0  0  0  0  0  0
  -23.2031  -12.8460   21.5478 C   0  0  0  0  0  0  0  0  0  0  0  0
  -18.9569  -22.0635   23.8212 C   0  0  0  0  0  0  0  0  0  0  0  0
  -17.5301  -23.9559   22.9105 C   0  0  0  0  0  0  0  0  0  1  0  0
  -21.8730  -20.3961   23.1365 C   0  0  0  0  0  0  0  0  0  0  0  0
  -23.6432  -29.8486   25.3417 C   0  0  1  0  0  0  0  0  0  0  0  0
  -21.6855  -32.1877   27.5924 C   0  0  2  0  0  0  0  0  0  0  0  0
  -25.1418  -29.5441   25.6227 C   0  0  0  0  0  0  0  0  0  0  0  0
  -28.8165  -16.7706   20.2809 N   0  0  0  0  0  0  0  0  0  0  0  0
  -28.8963  -15.6866   21.0713 N   0  0  0  0  0  0  0  0  0  0  0  0
  -22.4803  -29.2785   23.2331 N   0  0  0  0  0  0  0  0  0  0  0  0
  -28.0223  -12.9440   18.5527 N   0  0  0  0  0  0  0  0  0  0  0  0
  -29.0808  -15.0077   23.3331 N   0  0  0  0  0  0  0  0  0  0  0  0
  -29.0219  -19.5156   23.6000 N   0  0  0  0  0  0  0  0  0  0  0  0
  -24.2606  -28.8925   20.3957 N   0  0  0  0  0  0  0  0  0  0  0  0
  -23.8571  -13.0286   20.2811 N   0  0  0  0  0  0  0  0  0  0  0  0
  -23.1152  -30.9873   26.0853 N   0  0  0  0  0  0  0  0  0  0  0  0
  -19.7339  -21.9132   22.5777 N   0  0  0  0  0  0  0  0  0  0  0  0
  -20.2142  -32.2832   27.8094 N   0  3  0  0  0  0  0  0  0  0  0  0
  -29.1662  -17.5798   24.8209 O   0  0  0  0  0  0  0  0  0  0  0  0
  -23.0660  -27.1655   21.4022 O   0  0  0  0  0  0  0  0  0  0  0  0
  -26.9298  -11.0811   17.6945 O   0  0  0  0  0  0  0  0  0  0  0  0
  -23.9413  -31.0921   23.3439 O   0  0  0  0  0  0  0  0  0  0  0  0
  -25.7250  -11.7314   20.7539 O   0  0  0  0  0  0  0  0  0  0  0  0
  -21.4202  -29.8256   27.1596 O   0  0  0  0  0  0  0  0  0  0  0  0
  -21.8174  -22.9494   23.7092 O   0  0  0  0  0  0  0  0  0  0  0  0
  -21.9317  -22.2403   21.2924 O   0  0  0  0  0  0  0  0  0  0  0  0
  -28.6304  -23.0628   19.3215 O   0  0  0  0  0  0  0  0  0  0  0  0
  -18.1745  -24.8821   23.7753 O   0  0  0  0  0  0  0  0  0  1  0  0
  -30.0866  -27.0593   22.8302 F   0  0  0  0  0  0  0  0  0  0  0  0
  -30.7280  -24.7667   18.7390 F   0  0  0  0  0  0  0  0  0  0  0  0
  -21.4381  -22.0341   22.6449 S   0  0  0  0  0  0  0  0  0  0  0  0
  1  2  1  0  0  0  0
  1  5  2  0  0  0  0
  2  6  2  0  0  0  0
  3  8  2  0  0  0  0
  3 15  1  0  0  0  0
  4  9  1  0  0  0  0
  4 15  2  0  0  0  0
  5 17  1  0  0  0  0
  6 19  1  0  0  0  0
  7 10  2  0  0  0  0
  7 18  1  0  0  0  0
  8 21  1  0  0  0  0
  9 21  2  0  0  0  0
 10 22  1  0  0  0  0
 11 12  2  0  0  0  0
 11 23  1  0  0  0  0
 12 24  1  0  0  0  0
 13 20  1  0  0  0  0
 13 22  2  0  0  0  0
 14 24  2  0  0  0  0
 14 25  1  0  0  0  0
 15 26  1  0  0  0  0
 16 26  1  0  0  0  0
 16 27  2  0  0  0  0
 16 28  1  0  0  0  0
 17 19  2  0  0  0  0
 17 34  1  0  0  0  0
 18 20  2  0  0  0  0
 18 35  1  0  0  0  0
 19 43  1  0  0  0  0
 20 36  1  0  0  0  0
 21 85  1  0  0  0  0
 22 86  1  0  0  0  0
 23 25  2  0  0  0  0
 23 85  1  0  0  0  0
 24 87  1  0  0  0  0
 25 88  1  0  0  0  0
 26 66  2  0  0  0  0
 27 67  1  0  0  0  0
 27 70  1  0  0  0  0
 28 71  1  0  0  0  0
 28 77  2  0  0  0  0
 29 44  1  0  0  0  0
 29 72  1  0  0  0  0
 29 78  2  0  0  0  0
 30 51  1  0  0  0  0
 30 69  1  0  0  0  0
 30 79  2  0  0  0  0
 31 63  1  0  0  0  0
 31 68  1  0  0  0  0
 31 80  2  0  0  0  0
 32 51  1  0  0  0  0
 32 73  1  0  0  0  0
 32 81  2  0  0  0  0
 33 64  1  0  0  0  0
 33 74  1  0  0  0  0
 33 82  2  0  0  0  0
 34 37  1  0  0  0  0
 35 44  1  0  0  0  0
 36 68  1  0  0  0  0
 37 39  1  0  0  0  0
 38 40  1  0  0  0  0
 38 41  1  0  0  0  0
 39 43  1  0  0  0  0
 40 45  1  0  0  0  0
 41 69  1  0  0  0  0
 42 45  1  0  0  0  0
 42 69  1  0  0  0  0
 43 72  1  0  0  0  0
 44 68  1  0  0  0  0
 45 67  1  0  0  0  0
 46 64  1  0  0  0  0
 47 65  1  0  0  0  0
 48 65  1  0  0  0  0
 49 65  1  0  0  0  0
 50 76  1  0  0  0  0
 52 53  1  0  0  0  0
 52 54  1  0  0  0  0
 53 55  1  0  0  0  0
 54 56  1  0  0  0  0
 55 57  1  0  0  0  0
 56 59  1  0  0  0  0
 57 62  1  0  0  0  0
 58 60  1  0  0  0  0
 58 61  1  0  0  0  0
 59 73  1  0  0  0  0
 60 75  1  0  0  0  0
 61 86  1  0  0  0  0
 62 89  1  0  0  0  0
 63 65  1  0  0  0  0
 63 74  1  0  0  0  0
 64 76  1  0  0  0  0
 66 67  1  0  0  0  0
 75 89  1  0  0  0  0
 83 89  2  0  0  0  0
 84 89  2  0  0  0  0
M  CHG  1  76   1
M  ISO  4  30 100  51 100  61 101  86 101
M  END
> <Batch ID>
0006

> <Smiles>
CNC(C)C(=O)NC(C(=O)N1Cc2cc([101O:1][101CH2:1]CCNS(=O)(=O)CCCCCCCCNC(=O)[100CH2:0][100C:0](=O)N3CCCC(n4nc(-c5ccc(Oc6ccc(F)cc6F)cc5)c(C(N)=O)c4N)C3)ccc2CC1C(=O)NC1CCCc2ccccc21)C(C)(C)C

> <Shape>
0.270

> <Color>
0.065

> <Negative vol penalty>
0.000

$$$$

  -OEChem-04052315303D

 87 94  0     1  0  0  0  0  0999 V2000
  -16.4810  -26.5759   23.5740 C   0  0  0  0  0  0  0  0  0  0  0  0
  -17.7047  -26.1982   23.0304 C   0  0  0  0  0  0  0  0  0  0  0  0
  -23.2314   -9.7499   19.9210 C   0  0  0  0  0  0  0  0  0  0  0  0
  -23.8054   -9.8494   22.2657 C   0  0  0  0  0  0  0  0  0  0  0  0
  -16.1569  -27.9272   23.6867 C   0  0  0  0  0  0  0  0  0  0  0  0
  -18.6045  -27.1718   22.5981 C   0  0  0  0  0  0  0  0  0  0  0  0
  -23.3517  -26.2281   24.0874 C   0  0  0  0  0  0  0  0  0  0  0  0
  -22.5231   -8.5693   20.1444 C   0  0  0  0  0  0  0  0  0  0  0  0
  -23.0970   -8.6688   22.4892 C   0  0  0  0  0  0  0  0  0  0  0  0
  -24.0631  -25.2643   23.3742 C   0  0  0  0  0  0  0  0  0  0  0  0
  -23.5817   -5.3516   22.0506 C   0  0  0  0  0  0  0  0  0  0  0  0
  -24.1840   -4.3747   22.8433 C   0  0  0  0  0  0  0  0  0  0  0  0
  -25.1880  -27.0106   22.1479 C   0  0  0  0  0  0  0  0  0  0  0  0
  -22.3461   -4.5093   24.4057 C   0  0  0  0  0  0  0  0  0  0  0  0
  -23.8726  -10.3900   20.9816 C   0  0  0  0  0  0  0  0  0  0  0  0
  -24.1080  -12.9248   20.8173 C   0  0  0  0  0  0  0  0  0  0  0  0
  -17.0572  -28.9181   23.2644 C   0  0  0  0  0  0  0  0  0  0  0  0
  -23.5455  -27.5925   23.8282 C   0  0  0  0  0  0  0  0  0  0  0  0
  -18.2915  -28.5377   22.7040 C   0  0  0  0  0  0  0  0  0  0  0  0
  -24.4797  -27.9899   22.8610 C   0  0  0  0  0  0  0  0  0  0  0  0
  -22.4558   -8.0287   21.4285 C   0  0  0  0  0  0  0  0  0  0  0  0
  -24.9793  -25.6554   22.4023 C   0  0  0  0  0  0  0  0  0  0  0  0
  -22.3616   -5.9075   22.4355 C   0  0  0  0  0  0  0  0  0  0  0  0
  -23.5662   -3.9535   24.0208 C   0  0  0  0  0  0  0  0  0  0  0  0
  -21.7438   -5.4864   23.6130 C   0  0  0  0  0  0  0  0  0  0  0  0
  -24.6050  -11.6093   20.7513 C   0  0  0  0  0  0  0  0  0  0  0  0
  -25.1905  -13.7161   20.5196 C   0  0  0  0  0  0  0  0  0  0  0  0
  -22.7862  -13.3899   21.1206 C   0  0  0  0  0  0  0  0  0  0  0  0
  -21.6994  -29.9630   22.7906 C   0  0  0  0  0  0  0  0  0  0  0  0
  -24.3153  -31.7661   23.4453 C   0  0  0  0  0  0  0  0  0  0  0  0
  -28.5962  -12.4327   15.6149 C   0  0  0  0  0  0  0  0  0  0  0  0
  -25.3424  -20.9071   18.5762 C   0  0  0  0  0  0  0  0  0  0  0  0
  -27.6999  -31.9194   23.8550 C   0  0  0  0  0  0  0  0  0  0  0  0
  -29.8629  -13.8364   17.1854 C   0  0  0  0  0  0  0  0  0  0  0  0
  -16.6429  -30.3649   23.3628 C   0  0  0  0  0  0  0  0  0  0  0  0
  -22.7899  -28.6205   24.6249 C   0  0  0  0  0  0  0  0  0  0  0  0
  -24.7394  -29.4424   22.5589 C   0  0  0  0  0  0  0  0  0  0  0  0
  -17.8073  -31.3426   23.2263 C   0  0  0  0  0  0  0  0  0  0  0  0
  -30.0890  -13.1203   20.6220 C   0  0  0  0  0  0  0  0  0  0  0  0
  -18.6928  -30.9567   22.0457 C   0  0  0  0  0  0  0  0  0  0  0  0
  -28.6549  -12.7720   21.0190 C   0  0  0  0  0  0  0  0  0  0  0  0
  -30.4271  -12.5672   19.2421 C   0  0  0  0  0  0  0  0  0  0  0  0
  -28.0515  -12.6734   18.5525 C   0  0  0  0  0  0  0  0  0  0  0  0
  -19.3044  -29.5648   22.2466 C   0  0  1  0  0  0  0  0  0  0  0  0
  -22.6914  -29.9694   23.9192 C   0  0  1  0  0  0  0  0  0  0  0  0
  -27.6573  -13.2226   19.9374 C   0  0  1  0  0  0  0  0  0  0  0  0
  -28.7583  -11.3145   16.6172 C   0  0  0  0  0  0  0  0  0  0  0  0
  -29.5533  -33.5380   24.3470 C   0  0  0  0  0  0  0  0  0  0  0  0
  -24.1465  -32.8241   20.5884 C   0  0  0  0  0  0  0  0  0  0  0  0
  -26.4939  -33.6595   20.8332 C   0  0  0  0  0  0  0  0  0  0  0  0
  -24.6934  -34.5531   22.3105 C   0  0  0  0  0  0  0  0  0  0  0  0
  -23.8080  -18.9700   19.0659 C   0  0  0  0  0  0  0  0  0  0  0  0
  -28.4545  -30.4822   26.3297 C   0  0  0  0  0  0  0  0  0  0  0  0
  -24.8837  -21.5097   19.8978 C   0  0  0  0  0  0  0  0  0  0  0  0
  -25.5461  -22.8540   20.1917 C   0  0  0  0  0  0  0  0  0  0  0  0
  -27.8925  -16.3972   16.0600 C   0  0  0  0  0  0  0  0  0  0  0  0
  -26.6877  -17.3201   15.8600 C   0  0  0  0  0  0  0  0  0  0  0  0
  -28.2213  -15.6277   14.7772 C   0  0  0  0  0  0  0  0  0  0  0  0
  -26.3334  -18.0580   17.1546 C   0  0  0  0  0  0  0  0  0  0  0  0
  -29.4104  -14.6877   14.9460 C   0  0  0  0  0  0  0  0  0  0  0  0
  -25.1401  -18.9951   16.9934 C   0  0  0  0  0  0  0  0  0  0  0  0
  -25.0380  -23.4588   21.4925 C   0  0  0  0  0  0  0  0  0  1  0  0
  -25.5375  -32.1974   22.6713 C   0  0  1  0  0  0  0  0  0  0  0  0
  -28.5559  -32.5530   24.9367 C   0  0  2  0  0  0  0  0  0  0  0  0
  -25.2117  -33.2810   21.6049 C   0  0  0  0  0  0  0  0  0  0  0  0
  -25.9021  -11.5633   20.4362 N   0  0  0  0  0  0  0  0  0  0  0  0
  -26.2294  -12.8598   20.3015 N   0  0  0  0  0  0  0  0  0  0  0  0
  -23.9713  -30.4096   23.3602 N   0  0  0  0  0  0  0  0  0  0  0  0
  -29.4513  -13.0070   18.2443 N   0  0  0  0  0  0  0  0  0  0  0  0
  -25.3454  -15.0538   20.4256 N   0  0  0  0  0  0  0  0  0  0  0  0
  -21.7929  -12.4423   21.4032 N   0  0  0  0  0  0  0  0  0  0  0  0
  -20.4142  -29.6294   23.1732 N   0  0  0  0  0  0  0  0  0  0  0  0
  -26.5234  -32.6125   23.6632 N   0  0  0  0  0  0  0  0  0  0  0  0
  -29.1744  -13.6675   15.9648 N   0  0  0  0  0  0  0  0  0  0  0  0
  -24.7861  -19.6635   18.2155 N   0  0  0  0  0  0  0  0  0  0  0  0
  -29.3127  -31.5052   25.6785 N   0  3  0  0  0  0  0  0  0  0  0  0
  -22.4905  -14.6089   21.1245 O   0  0  0  0  0  0  0  0  0  0  0  0
  -22.0722  -30.2416   21.6570 O   0  0  0  0  0  0  0  0  0  0  0  0
  -23.6930  -32.6006   24.1071 O   0  0  0  0  0  0  0  0  0  0  0  0
  -27.9836  -12.2244   14.5648 O   0  0  0  0  0  0  0  0  0  0  0  0
  -26.1639  -21.4985   17.8708 O   0  0  0  0  0  0  0  0  0  0  0  0
  -28.0423  -30.9125   23.2389 O   0  0  0  0  0  0  0  0  0  0  0  0
  -30.7952  -14.6414   17.2918 O   0  0  0  0  0  0  0  0  0  0  0  0
  -21.7645   -6.8768   21.6470 O   0  0  0  0  0  0  0  0  0  0  0  0
  -25.6796  -24.7097   21.6991 O   0  0  0  0  0  0  0  0  0  1  0  0
  -24.1439   -3.0142   24.7812 F   0  0  0  0  0  0  0  0  0  0  0  0
  -20.5711   -6.0159   23.9873 F   0  0  0  0  0  0  0  0  0  0  0  0
  1  2  1  0  0  0  0
  1  5  2  0  0  0  0
  2  6  2  0  0  0  0
  3  8  2  0  0  0  0
  3 15  1  0  0  0  0
  4  9  1  0  0  0  0
  4 15  2  0  0  0  0
  5 17  1  0  0  0  0
  6 19  1  0  0  0  0
  7 10  2  0  0  0  0
  7 18  1  0  0  0  0
  8 21  1  0  0  0  0
  9 21  2  0  0  0  0
 10 22  1  0  0  0  0
 11 12  2  0  0  0  0
 11 23  1  0  0  0  0
 12 24  1  0  0  0  0
 13 20  1  0  0  0  0
 13 22  2  0  0  0  0
 14 24  2  0  0  0  0
 14 25  1  0  0  0  0
 15 26  1  0  0  0  0
 16 26  1  0  0  0  0
 16 27  2  0  0  0  0
 16 28  1  0  0  0  0
 17 19  2  0  0  0  0
 17 35  1  0  0  0  0
 18 20  2  0  0  0  0
 18 36  1  0  0  0  0
 19 44  1  0  0  0  0
 20 37  1  0  0  0  0
 21 84  1  0  0  0  0
 22 85  1  0  0  0  0
 23 25  2  0  0  0  0
 23 84  1  0  0  0  0
 24 86  1  0  0  0  0
 25 87  1  0  0  0  0
 26 66  2  0  0  0  0
 27 67  1  0  0  0  0
 27 70  1  0  0  0  0
 28 71  1  0  0  0  0
 28 77  2  0  0  0  0
 29 45  1  0  0  0  0
 29 72  1  0  0  0  0
 29 78  2  0  0  0  0
 30 63  1  0  0  0  0
 30 68  1  0  0  0  0
 30 79  2  0  0  0  0
 31 47  1  0  0  0  0
 31 74  1  0  0  0  0
 31 80  2  0  0  0  0
 32 54  1  0  0  0  0
 32 75  1  0  0  0  0
 32 81  2  0  0  0  0
 33 64  1  0  0  0  0
 33 73  1  0  0  0  0
 33 82  2  0  0  0  0
 34 69  1  0  0  0  0
 34 74  1  0  0  0  0
 34 83  2  0  0  0  0
 35 38  1  0  0  0  0
 36 45  1  0  0  0  0
 37 68  1  0  0  0  0
 38 40  1  0  0  0  0
 39 41  1  0  0  0  0
 39 42  1  0  0  0  0
 40 44  1  0  0  0  0
 41 46  1  0  0  0  0
 42 69  1  0  0  0  0
 43 46  1  0  0  0  0
 43 69  1  0  0  0  0
 44 72  1  0  0  0  0
 45 68  1  0  0  0  0
 46 67  1  0  0  0  0
 48 64  1  0  0  0  0
 49 65  1  0  0  0  0
 50 65  1  0  0  0  0
 51 65  1  0  0  0  0
 52 75  1  0  0  0  0
 53 76  1  0  0  0  0
 54 55  1  0  0  0  0
 55 62  1  0  0  0  0
 56 57  1  0  0  0  0
 56 58  1  0  0  0  0
 57 59  1  0  0  0  0
 58 60  1  0  0  0  0
 59 61  1  0  0  0  0
 60 74  1  0  0  0  0
 61 75  1  0  0  0  0
 62 85  1  0  0  0  0
 63 65  1  0  0  0  0
 63 73  1  0  0  0  0
 64 76  1  0  0  0  0
 66 67  1  0  0  0  0
M  CHG  1  76   1
M  ISO  4  34 100  62 101  74 100  85 101
M  END
> <Batch ID>
0006

> <Smiles>
CNC(C)C(=O)NC(C(=O)N1Cc2cc([101O:1][101CH2:1]CCC(=O)N(C)CCCCCC[100N:0](C(C)=O)[100C:0](=O)N3CCCC(n4nc(-c5ccc(Oc6ccc(F)cc6F)cc5)c(C(N)=O)c4N)C3)ccc2CC1C(=O)NC1CCCc2ccccc21)C(C)(C)C

> <Shape>
0.288

> <Color>
0.217

> <Negative vol penalty>
0.000

$$$$

  -OEChem-04052315303D

 99107  0     1  0  0  0  0  0999 V2000
  -17.7716  -26.8448   22.9352 C   0  0  0  0  0  0  0  0  0  0  0  0
  -18.7895  -26.6743   23.8680 C   0  0  0  0  0  0  0  0  0  0  0  0
  -29.1900  -10.9836   12.1408 C   0  0  0  0  0  0  0  0  0  0  0  0
  -28.9221  -12.3457   14.1182 C   0  0  0  0  0  0  0  0  0  0  0  0
  -18.0542  -27.4095   21.6921 C   0  0  0  0  0  0  0  0  0  0  0  0
  -20.0910  -27.0674   23.5578 C   0  0  0  0  0  0  0  0  0  0  0  0
  -26.0005  -29.7203   26.6166 C   0  0  0  0  0  0  0  0  0  0  0  0
  -22.5288   -8.0491   20.2643 C   0  0  0  0  0  0  0  0  0  0  0  0
  -29.3082  -12.1355   11.3632 C   0  0  0  0  0  0  0  0  0  0  0  0
  -29.0403  -13.4977   13.3406 C   0  0  0  0  0  0  0  0  0  0  0  0
  -27.3667  -29.4632   26.7225 C   0  0  0  0  0  0  0  0  0  0  0  0
  -21.9967   -8.3978   21.5056 C   0  0  0  0  0  0  0  0  0  0  0  0
  -27.0814  -15.3200   11.2735 C   0  0  0  0  0  0  0  0  0  0  0  0
  -26.1735  -16.3535   11.5042 C   0  0  0  0  0  0  0  0  0  0  0  0
  -27.7223  -30.5000   24.5736 C   0  0  0  0  0  0  0  0  0  0  0  0
  -24.0812   -9.8945   20.4112 C   0  0  0  0  0  0  0  0  0  0  0  0
  -28.0003  -17.8347   12.0573 C   0  0  0  0  0  0  0  0  0  0  0  0
  -28.9969  -11.0887   13.5183 C   0  0  0  0  0  0  0  0  0  0  0  0
  -29.9130   -9.1883   14.9526 C   0  0  0  0  0  0  0  0  0  0  0  0
  -19.3579  -27.8185   21.3701 C   0  0  0  0  0  0  0  0  0  0  0  0
  -25.4826  -30.3605   25.4815 C   0  0  0  0  0  0  0  0  0  0  0  0
  -20.3915  -27.6368   22.3087 C   0  0  0  0  0  0  0  0  0  0  0  0
  -26.3495  -30.7663   24.4568 C   0  0  0  0  0  0  0  0  0  0  0  0
  -23.5711   -8.7973   19.7171 C   0  0  0  0  0  0  0  0  0  0  0  0
  -23.5490  -10.2433   21.6525 C   0  0  0  0  0  0  0  0  0  0  0  0
  -29.2333  -13.3926   11.9631 C   0  0  0  0  0  0  0  0  0  0  0  0
  -28.2274  -29.8505   25.6997 C   0  0  0  0  0  0  0  0  0  0  0  0
  -22.5068   -9.4950   22.1997 C   0  0  0  0  0  0  0  0  0  0  0  0
  -28.4487  -15.5438   11.4348 C   0  0  0  0  0  0  0  0  0  0  0  0
  -26.6330  -17.6109   11.8960 C   0  0  0  0  0  0  0  0  0  0  0  0
  -28.9082  -16.8011   11.8267 C   0  0  0  0  0  0  0  0  0  0  0  0
  -28.8742   -9.8991   14.3220 C   0  0  0  0  0  0  0  0  0  0  0  0
  -29.2808   -8.1463   15.5858 C   0  0  0  0  0  0  0  0  0  0  0  0
  -31.3231   -9.4470   14.9649 C   0  0  0  0  0  0  0  0  0  0  0  0
  -23.4170  -29.5609   23.2017 C   0  0  0  0  0  0  0  0  0  0  0  0
  -23.8166  -32.6503   22.2973 C   0  0  0  0  0  0  0  0  0  0  0  0
  -25.1053  -12.2031   21.9350 C   0  0  0  0  0  0  0  0  0  0  0  0
  -31.2762  -27.9088   26.0229 C   0  0  0  0  0  0  0  0  0  0  0  0
  -25.7814  -35.4407   22.3062 C   0  0  0  0  0  0  0  0  0  0  0  0
  -23.7202   -7.3850   17.6364 C   0  0  0  0  0  0  0  0  0  0  0  0
  -19.6239  -28.3804   19.9960 C   0  0  0  0  0  0  0  0  0  0  0  0
  -24.0101  -30.6544   25.3945 C   0  0  0  0  0  0  0  0  0  0  0  0
  -25.8464  -31.4749   23.2267 C   0  0  0  0  0  0  0  0  0  0  0  0
  -20.9577  -29.1147   19.8859 C   0  0  0  0  0  0  0  0  0  0  0  0
  -25.4045   -5.3549   15.2450 C   0  0  0  0  0  0  0  0  0  0  0  0
  -22.0735  -28.2933   20.5239 C   0  0  0  0  0  0  0  0  0  0  0  0
  -26.5834   -6.2227   14.7988 C   0  0  0  0  0  0  0  0  0  0  0  0
  -24.1508   -6.1894   15.5009 C   0  0  0  0  0  0  0  0  0  0  0  0
  -25.5129   -8.1866   15.9753 C   0  0  0  0  0  0  0  0  0  0  0  0
  -21.8112  -28.0734   22.0187 C   0  0  1  0  0  0  0  0  0  0  0  0
  -23.5239  -30.8524   23.9621 C   0  0  1  0  0  0  0  0  0  0  0  0
  -26.8164   -7.3983   15.7680 C   0  0  2  0  0  0  0  0  0  0  0  0
  -25.8576  -37.7990   21.4517 C   0  0  0  0  0  0  0  0  0  0  0  0
  -24.4953  -31.6152   19.5084 C   0  0  0  0  0  0  0  0  0  0  0  0
  -25.4641  -33.8638   18.9856 C   0  0  0  0  0  0  0  0  0  0  0  0
  -23.0416  -33.6499   19.5408 C   0  0  0  0  0  0  0  0  0  0  0  0
  -25.8931  -36.5531   25.0465 C   0  0  0  0  0  0  0  0  0  0  0  0
  -22.5635   -9.2167   24.5608 C   0  0  0  0  0  0  0  0  0  0  0  0
  -25.3584  -13.2818   22.9790 C   0  0  0  0  0  0  0  0  0  0  0  0
  -29.9631  -28.4578   26.5386 C   0  0  0  0  0  0  0  0  0  1  0  0
  -26.4817  -14.2356   22.5780 C   0  0  0  0  0  0  0  0  0  0  0  0
  -26.6854  -15.3294   23.6282 C   0  0  0  0  0  0  0  0  0  0  0  0
  -27.7897  -16.3018   23.2078 C   0  0  0  0  0  0  0  0  0  0  0  0
  -28.0280  -17.4270   24.2187 C   0  0  0  0  0  0  0  0  0  0  0  0
  -29.1151  -18.4135   23.7865 C   0  0  0  0  0  0  0  0  0  0  0  0
  -29.2892  -19.5319   24.8165 C   0  0  0  0  0  0  0  0  0  0  0  0
  -30.3523  -20.5377   24.3713 C   0  0  0  0  0  0  0  0  0  0  0  0
  -30.5024  -21.6742   25.3852 C   0  0  0  0  0  0  0  0  0  0  0  0
  -31.5431  -22.6956   24.9220 C   0  0  0  0  0  0  0  0  0  0  0  0
  -31.7296  -23.8614   25.8979 C   0  0  0  0  0  0  0  0  0  0  0  0
  -32.7072  -24.9558   25.4528 C   0  0  0  0  0  0  0  0  0  0  0  0
  -32.9089  -26.0842   26.4596 C   0  0  0  0  0  0  0  0  0  0  0  0
  -24.7618  -33.3802   21.3739 C   0  0  1  0  0  0  0  0  0  0  0  0
  -25.4654  -36.8942   22.6094 C   0  0  2  0  0  0  0  0  0  0  0  0
  -24.4503  -33.1122   19.8744 C   0  0  0  0  0  0  0  0  0  0  0  0
  -27.6734   -9.3545   14.5351 N   0  0  0  0  0  0  0  0  0  0  0  0
  -27.9536   -8.2904   15.3066 N   0  0  0  0  0  0  0  0  0  0  0  0
  -24.3978  -31.7341   23.1854 N   0  0  0  0  0  0  0  0  0  0  0  0
  -24.4464   -7.2813   16.4311 N   0  0  0  0  0  0  0  0  0  0  0  0
  -29.7363   -7.1299   16.3486 N   0  0  0  0  0  0  0  0  0  0  0  0
  -31.8044  -10.5602   14.2624 N   0  0  0  0  0  0  0  0  0  0  0  0
  -24.0757  -11.3602   22.3438 N   0  0  0  0  0  0  0  0  0  0  0  0
  -24.1113   -8.4434   18.4559 N   0  0  0  0  0  0  0  0  0  0  0  0
  -22.1378  -29.2664   22.7700 N   0  0  0  0  0  0  0  0  0  0  0  0
  -31.6931  -26.7953   26.7436 N   0  0  0  0  0  0  0  0  0  0  0  0
  -24.6997  -34.7871   21.7549 N   0  0  0  0  0  0  0  0  0  0  0  0
  -26.2013  -37.3415   23.8257 N   0  3  0  0  0  0  0  0  0  0  0  0
  -32.1343   -8.7034   15.5671 O   0  0  0  0  0  0  0  0  0  0  0  0
  -24.4210  -28.8825   23.0189 O   0  0  0  0  0  0  0  0  0  0  0  0
  -22.6080  -32.8897   22.2380 O   0  0  0  0  0  0  0  0  0  0  0  0
  -25.7534  -12.1380   20.8957 O   0  0  0  0  0  0  0  0  0  0  0  0
  -31.8805  -28.4094   25.0784 O   0  0  0  0  0  0  0  0  0  0  0  0
  -26.8793  -34.9366   22.5321 O   0  0  0  0  0  0  0  0  0  0  0  0
  -22.8362   -6.5772   17.9330 O   0  0  0  0  0  0  0  0  0  0  0  0
  -29.3488  -14.5169   11.2047 O   0  0  0  0  0  0  0  0  0  0  0  0
  -21.9728   -9.8189   23.4113 O   0  0  0  0  0  0  0  0  0  0  0  0
  -29.5751  -29.5976   25.8013 O   0  0  0  0  0  0  0  0  0  1  0  0
  -25.7612  -18.6037   12.1160 F   0  0  0  0  0  0  0  0  0  0  0  0
  -30.2207  -17.0225   11.9822 F   0  0  0  0  0  0  0  0  0  0  0  0
  1  2  1  0  0  0  0
  1  5  2  0  0  0  0
  2  6  2  0  0  0  0
  3  9  2  0  0  0  0
  3 18  1  0  0  0  0
  4 10  1  0  0  0  0
  4 18  2  0  0  0  0
  5 20  1  0  0  0  0
  6 22  1  0  0  0  0
  7 11  2  0  0  0  0
  7 21  1  0  0  0  0
  8 12  2  0  0  0  0
  8 24  1  0  0  0  0
  9 26  1  0  0  0  0
 10 26  2  0  0  0  0
 11 27  1  0  0  0  0
 12 28  1  0  0  0  0
 13 14  2  0  0  0  0
 13 29  1  0  0  0  0
 14 30  1  0  0  0  0
 15 23  1  0  0  0  0
 15 27  2  0  0  0  0
 16 24  2  0  0  0  0
 16 25  1  0  0  0  0
 17 30  2  0  0  0  0
 17 31  1  0  0  0  0
 18 32  1  0  0  0  0
 19 32  1  0  0  0  0
 19 33  2  0  0  0  0
 19 34  1  0  0  0  0
 20 22  2  0  0  0  0
 20 41  1  0  0  0  0
 21 23  2  0  0  0  0
 21 42  1  0  0  0  0
 22 50  1  0  0  0  0
 23 43  1  0  0  0  0
 24 83  1  0  0  0  0
 25 28  2  0  0  0  0
 25 82  1  0  0  0  0
 26 95  1  0  0  0  0
 27 97  1  0  0  0  0
 28 96  1  0  0  0  0
 29 31  2  0  0  0  0
 29 95  1  0  0  0  0
 30 98  1  0  0  0  0
 31 99  1  0  0  0  0
 32 76  2  0  0  0  0
 33 77  1  0  0  0  0
 33 80  1  0  0  0  0
 34 81  1  0  0  0  0
 34 88  2  0  0  0  0
 35 51  1  0  0  0  0
 35 84  1  0  0  0  0
 35 89  2  0  0  0  0
 36 73  1  0  0  0  0
 36 78  1  0  0  0  0
 36 90  2  0  0  0  0
 37 59  1  0  0  0  0
 37 82  1  0  0  0  0
 37 91  2  0  0  0  0
 38 60  1  0  0  0  0
 38 85  1  0  0  0  0
 38 92  2  0  0  0  0
 39 74  1  0  0  0  0
 39 86  1  0  0  0  0
 39 93  2  0  0  0  0
 40 79  1  0  0  0  0
 40 83  1  0  0  0  0
 40 94  2  0  0  0  0
 41 44  1  0  0  0  0
 42 51  1  0  0  0  0
 43 78  1  0  0  0  0
 44 46  1  0  0  0  0
 45 47  1  0  0  0  0
 45 48  1  0  0  0  0
 46 50  1  0  0  0  0
 47 52  1  0  0  0  0
 48 79  1  0  0  0  0
 49 52  1  0  0  0  0
 49 79  1  0  0  0  0
 50 84  1  0  0  0  0
 51 78  1  0  0  0  0
 52 77  1  0  0  0  0
 53 74  1  0  0  0  0
 54 75  1  0  0  0  0
 55 75  1  0  0  0  0
 56 75  1  0  0  0  0
 57 87  1  0  0  0  0
 58 96  1  0  0  0  0
 59 61  1  0  0  0  0
 60 97  1  0  0  0  0
 61 62  1  0  0  0  0
 62 63  1  0  0  0  0
 63 64  1  0  0  0  0
 64 65  1  0  0  0  0
 65 66  1  0  0  0  0
 66 67  1  0  0  0  0
 67 68  1  0  0  0  0
 68 69  1  0  0  0  0
 69 70  1  0  0  0  0
 70 71  1  0  0  0  0
 71 72  1  0  0  0  0
 72 85  1  0  0  0  0
 73 75  1  0  0  0  0
 73 86  1  0  0  0  0
 74 87  1  0  0  0  0
 76 77  1  0  0  0  0
M  CHG  1  87   1
M  ISO  4  40 100  60 101  83 100  97 101
M  END
> <Batch ID>
0006

> <Smiles>
CNC(C)C(=O)NC(C(=O)N1Cc2cc([101O:1][101CH2:1]C(=O)NCCCCCCCCCCCCCC(=O)Nc3cc([100NH:0][100C:0](=O)N4CCCC(n5nc(-c6ccc(Oc7ccc(F)cc7F)cc6)c(C(N)=O)c5N)C4)ccc3OC)ccc2CC1C(=O)NC1CCCc2ccccc21)C(C)(C)C

> <Shape>
0.163

> <Color>
0.115

> <Negative vol penalty>
0.000

$$$$

  -OEChem-04052315303D

 82 90  0     1  0  0  0  0  0999 V2000
  -29.6002  -31.0558   28.8417 C   0  0  0  0  0  0  0  0  0  0  0  0
  -30.3168  -29.9889   28.3092 C   0  0  0  0  0  0  0  0  0  0  0  0
  -23.0014   -9.8894   19.9860 C   0  0  0  0  0  0  0  0  0  0  0  0
  -23.7196   -9.9536   22.2919 C   0  0  0  0  0  0  0  0  0  0  0  0
  -28.2829  -31.2778   28.4424 C   0  0  0  0  0  0  0  0  0  0  0  0
  -29.7161  -29.1426   27.3778 C   0  0  0  0  0  0  0  0  0  0  0  0
  -32.4244  -26.3772   22.6319 C   0  0  0  0  0  0  0  0  0  0  0  0
  -22.2345   -8.7561   20.2564 C   0  0  0  0  0  0  0  0  0  0  0  0
  -22.9526   -8.8203   22.5623 C   0  0  0  0  0  0  0  0  0  0  0  0
  -32.9201  -25.0859   22.4569 C   0  0  0  0  0  0  0  0  0  0  0  0
  -23.1996   -5.4789   22.1098 C   0  0  0  0  0  0  0  0  0  0  0  0
  -23.7853   -4.4661   22.8694 C   0  0  0  0  0  0  0  0  0  0  0  0
  -30.8430  -24.4360   21.4165 C   0  0  0  0  0  0  0  0  0  0  0  0
  -30.2332  -19.2016   22.5296 C   0  0  0  0  0  0  0  0  0  0  0  0
  -32.4637  -18.2736   22.5475 C   0  0  0  0  0  0  0  0  0  0  0  0
  -22.0563   -4.7177   24.5380 C   0  0  0  0  0  0  0  0  0  0  0  0
  -23.7440  -10.4881   21.0038 C   0  0  0  0  0  0  0  0  0  0  0  0
  -24.1289  -13.0029   20.8148 C   0  0  0  0  0  0  0  0  0  0  0  0
  -27.6689  -30.4396   27.4984 C   0  0  0  0  0  0  0  0  0  0  0  0
  -31.1280  -26.7052   22.2097 C   0  0  0  0  0  0  0  0  0  0  0  0
  -28.3889  -29.3529   26.9665 C   0  0  0  0  0  0  0  0  0  0  0  0
  -30.3341  -25.7328   21.5850 C   0  0  0  0  0  0  0  0  0  0  0  0
  -30.5871  -16.8955   21.9023 C   0  0  0  0  0  0  0  0  0  0  0  0
  -22.2101   -8.2216   21.5445 C   0  0  0  0  0  0  0  0  0  0  0  0
  -32.1284  -24.1143   21.8517 C   0  0  0  0  0  0  0  0  0  0  0  0
  -22.0423   -6.1111   22.5644 C   0  0  0  0  0  0  0  0  0  0  0  0
  -31.6022  -19.3516   22.7507 C   0  0  0  0  0  0  0  0  0  0  0  0
  -23.2136   -4.0855   24.0835 C   0  0  0  0  0  0  0  0  0  0  0  0
  -29.7256  -17.9735   22.1055 C   0  0  0  0  0  0  0  0  0  0  0  0
  -31.9562  -17.0455   22.1233 C   0  0  0  0  0  0  0  0  0  0  0  0
  -21.4706   -5.7305   23.7784 C   0  0  0  0  0  0  0  0  0  0  0  0
  -24.5368  -11.6585   20.7250 C   0  0  0  0  0  0  0  0  0  0  0  0
  -25.2395  -13.7238   20.4497 C   0  0  0  0  0  0  0  0  0  0  0  0
  -22.8595  -13.5509   21.1945 C   0  0  0  0  0  0  0  0  0  0  0  0
  -28.4826  -27.7063   23.6600 C   0  0  0  0  0  0  0  0  0  0  0  0
  -27.3792  -27.9613   20.6203 C   0  0  0  0  0  0  0  0  0  0  0  0
  -27.6021  -26.9644   17.3640 C   0  0  0  0  0  0  0  0  0  0  0  0
  -30.7178  -14.6884   20.6949 C   0  0  0  0  0  0  0  0  0  0  0  0
  -26.2275  -30.6913   27.1330 C   0  0  0  0  0  0  0  0  0  0  0  0
  -30.6178  -28.1097   22.3817 C   0  0  0  0  0  0  0  0  0  0  0  0
  -28.9431  -26.0394   21.0957 C   0  0  0  0  0  0  0  0  0  0  0  0
  -25.7869  -29.9713   25.8611 C   0  0  0  0  0  0  0  0  0  0  0  0
  -29.6075  -12.2221   18.3793 C   0  0  0  0  0  0  0  0  0  0  0  0
  -26.2502  -28.5181   25.8825 C   0  0  0  0  0  0  0  0  0  0  0  0
  -28.1558  -11.9662   18.7905 C   0  0  0  0  0  0  0  0  0  0  0  0
  -30.5043  -12.4726   19.5904 C   0  0  0  0  0  0  0  0  0  0  0  0
  -28.5846  -13.2682   20.9137 C   0  0  0  0  0  0  0  0  0  0  0  0
  -27.7801  -28.4276   25.9353 C   0  0  1  0  0  0  0  0  0  0  0  0
  -29.0947  -28.1967   22.3784 C   0  0  1  0  0  0  0  0  0  0  0  0
  -27.6306  -13.0748   19.7237 C   0  0  2  0  0  0  0  0  0  0  0  0
  -26.5414  -27.3206   15.1178 C   0  0  0  0  0  0  0  0  0  0  0  0
  -25.0073  -26.2402   21.4699 C   0  0  0  0  0  0  0  0  0  0  0  0
  -24.5152  -25.8453   19.0471 C   0  0  0  0  0  0  0  0  0  0  0  0
  -24.4221  -28.1586   19.9760 C   0  0  0  0  0  0  0  0  0  0  0  0
  -30.1303  -27.9711   16.2008 C   0  0  0  0  0  0  0  0  0  0  0  0
  -33.5562  -22.3830   22.6390 C   0  0  0  0  0  0  0  0  0  1  0  0
  -33.4262  -20.8776   22.7664 C   0  0  0  0  0  0  0  0  0  0  0  0
  -26.6669  -27.0390   19.6606 C   0  0  1  0  0  0  0  0  0  0  0  0
  -27.6454  -27.7554   16.0691 C   0  0  2  0  0  0  0  0  0  0  0  0
  -25.1783  -26.8141   20.0493 C   0  0  0  0  0  0  0  0  0  0  0  0
  -25.8073  -11.5303   20.3333 N   0  0  0  0  0  0  0  0  0  0  0  0
  -26.2073  -12.8033   20.1738 N   0  0  0  0  0  0  0  0  0  0  0  0
  -28.4869  -27.4253   21.2923 N   0  0  0  0  0  0  0  0  0  0  0  0
  -29.9463  -13.5380   20.4261 N   0  0  0  0  0  0  0  0  0  0  0  0
  -25.4727  -15.0490   20.3410 N   0  0  0  0  0  0  0  0  0  0  0  0
  -21.8271  -12.6683   21.5398 N   0  0  0  0  0  0  0  0  0  0  0  0
  -30.0708  -15.6477   21.4731 N   0  0  0  0  0  0  0  0  0  0  0  0
  -28.3469  -28.6827   24.6284 N   0  0  0  0  0  0  0  0  0  0  0  0
  -26.8579  -27.6072   18.3306 N   0  0  0  0  0  0  0  0  0  0  0  0
  -28.9565  -27.5618   15.3875 N   0  3  0  0  0  0  0  0  0  0  0  0
  -22.6423  -14.7863   21.2107 O   0  0  0  0  0  0  0  0  0  0  0  0
  -28.1561  -26.5296   23.7621 O   0  0  0  0  0  0  0  0  0  0  0  0
  -26.9722  -29.1170   20.7629 O   0  0  0  0  0  0  0  0  0  0  0  0
  -28.1684  -25.8824   17.5029 O   0  0  0  0  0  0  0  0  0  0  0  0
  -31.8578  -14.8252   20.2435 O   0  0  0  0  0  0  0  0  0  0  0  0
  -21.4616   -7.1159   21.8088 O   0  0  0  0  0  0  0  0  0  0  0  0
  -32.6095  -22.8530   21.6802 O   0  0  0  0  0  0  0  0  0  1  0  0
  -32.0996  -20.5581   23.1680 O   0  0  0  0  0  0  0  0  0  0  0  0
  -23.7752   -3.1119   24.8120 F   0  0  0  0  0  0  0  0  0  0  0  0
  -28.4079  -17.8401   21.8978 F   0  0  0  0  0  0  0  0  0  0  0  0
  -32.7934  -16.0156   21.9337 F   0  0  0  0  0  0  0  0  0  0  0  0
  -20.3582   -6.3335   24.2197 F   0  0  0  0  0  0  0  0  0  0  0  0
  1  2  1  0  0  0  0
  1  5  2  0  0  0  0
  2  6  2  0  0  0  0
  3  8  2  0  0  0  0
  3 17  1  0  0  0  0
  4  9  1  0  0  0  0
  4 17  2  0  0  0  0
  5 19  1  0  0  0  0
  6 21  1  0  0  0  0
  7 10  2  0  0  0  0
  7 20  1  0  0  0  0
  8 24  1  0  0  0  0
  9 24  2  0  0  0  0
 10 25  1  0  0  0  0
 11 12  2  0  0  0  0
 11 26  1  0  0  0  0
 12 28  1  0  0  0  0
 13 22  1  0  0  0  0
 13 25  2  0  0  0  0
 14 27  1  0  0  0  0
 14 29  2  0  0  0  0
 15 27  2  0  0  0  0
 15 30  1  0  0  0  0
 16 28  2  0  0  0  0
 16 31  1  0  0  0  0
 17 32  1  0  0  0  0
 18 32  1  0  0  0  0
 18 33  2  0  0  0  0
 18 34  1  0  0  0  0
 19 21  2  0  0  0  0
 19 39  1  0  0  0  0
 20 22  2  0  0  0  0
 20 40  1  0  0  0  0
 21 48  1  0  0  0  0
 22 41  1  0  0  0  0
 23 29  1  0  0  0  0
 23 30  2  0  0  0  0
 23 67  1  0  0  0  0
 24 76  1  0  0  0  0
 25 77  1  0  0  0  0
 26 31  2  0  0  0  0
 26 76  1  0  0  0  0
 27 78  1  0  0  0  0
 28 79  1  0  0  0  0
 29 80  1  0  0  0  0
 30 81  1  0  0  0  0
 31 82  1  0  0  0  0
 32 61  2  0  0  0  0
 33 62  1  0  0  0  0
 33 65  1  0  0  0  0
 34 66  1  0  0  0  0
 34 71  2  0  0  0  0
 35 49  1  0  0  0  0
 35 68  1  0  0  0  0
 35 72  2  0  0  0  0
 36 58  1  0  0  0  0
 36 63  1  0  0  0  0
 36 73  2  0  0  0  0
 37 59  1  0  0  0  0
 37 69  1  0  0  0  0
 37 74  2  0  0  0  0
 38 64  1  0  0  0  0
 38 67  1  0  0  0  0
 38 75  2  0  0  0  0
 39 42  1  0  0  0  0
 40 49  1  0  0  0  0
 41 63  1  0  0  0  0
 42 44  1  0  0  0  0
 43 45  1  0  0  0  0
 43 46  1  0  0  0  0
 44 48  1  0  0  0  0
 45 50  1  0  0  0  0
 46 64  1  0  0  0  0
 47 50  1  0  0  0  0
 47 64  1  0  0  0  0
 48 68  1  0  0  0  0
 49 63  1  0  0  0  0
 50 62  1  0  0  0  0
 51 59  1  0  0  0  0
 52 60  1  0  0  0  0
 53 60  1  0  0  0  0
 54 60  1  0  0  0  0
 55 70  1  0  0  0  0
 56 57  1  0  0  0  0
 56 77  1  0  0  0  0
 57 78  1  0  0  0  0
 58 60  1  0  0  0  0
 58 69  1  0  0  0  0
 59 70  1  0  0  0  0
 61 62  1  0  0  0  0
M  CHG  1  70   1
M  ISO  4  38 100  56 101  67 100  77 101
M  END
> <Batch ID>
0006

> <Smiles>
CNC(C)C(=O)NC(C(=O)N1Cc2cc([101O:1][101CH2:1]COc3cc(F)c([100NH:0][100C:0](=O)N4CCCC(n5nc(-c6ccc(Oc7ccc(F)cc7F)cc6)c(C(N)=O)c5N)C4)c(F)c3)ccc2CC1C(=O)NC1CCCc2ccccc21)C(C)(C)C

> <Shape>
0.269

> <Color>
0.202

> <Negative vol penalty>
0.000

$$$$

  -OEChem-04052315303D

 82 90  0     1  0  0  0  0  0999 V2000
  -28.4353  -32.7061   28.2182 C   0  0  0  0  0  0  0  0  0  0  0  0
  -28.3458  -31.6820   27.2809 C   0  0  0  0  0  0  0  0  0  0  0  0
  -24.6068   -8.6828   21.4336 C   0  0  0  0  0  0  0  0  0  0  0  0
  -23.1647  -10.6099   21.2236 C   0  0  0  0  0  0  0  0  0  0  0  0
  -27.3849  -33.6115   28.3622 C   0  0  0  0  0  0  0  0  0  0  0  0
  -27.2053  -31.5621   26.4876 C   0  0  0  0  0  0  0  0  0  0  0  0
  -28.3058  -30.6897   21.6222 C   0  0  0  0  0  0  0  0  0  0  0  0
  -26.1556  -18.0367   19.7879 C   0  0  0  0  0  0  0  0  0  0  0  0
  -28.3999  -18.4803   20.5646 C   0  0  0  0  0  0  0  0  0  0  0  0
  -23.7770   -8.1705   22.4309 C   0  0  0  0  0  0  0  0  0  0  0  0
  -22.3349  -10.0975   22.2208 C   0  0  0  0  0  0  0  0  0  0  0  0
  -28.6745  -29.3905   21.2758 C   0  0  0  0  0  0  0  0  0  0  0  0
  -25.7701  -19.3223   20.1677 C   0  0  0  0  0  0  0  0  0  0  0  0
  -28.0144  -19.7659   20.9444 C   0  0  0  0  0  0  0  0  0  0  0  0
  -20.8206   -6.5402   22.6173 C   0  0  0  0  0  0  0  0  0  0  0  0
  -20.4844   -5.1882   22.5496 C   0  0  0  0  0  0  0  0  0  0  0  0
  -26.4414  -28.9805   20.4607 C   0  0  0  0  0  0  0  0  0  0  0  0
  -21.5037   -4.8265   24.7100 C   0  0  0  0  0  0  0  0  0  0  0  0
  -24.3007   -9.9026   20.8300 C   0  0  0  0  0  0  0  0  0  0  0  0
  -25.0599  -10.2084   18.4139 C   0  0  0  0  0  0  0  0  0  0  0  0
  -26.2350  -33.5084   27.5636 C   0  0  0  0  0  0  0  0  0  0  0  0
  -26.9969  -31.1413   21.4000 C   0  0  0  0  0  0  0  0  0  0  0  0
  -26.1379  -32.4662   26.6220 C   0  0  0  0  0  0  0  0  0  0  0  0
  -26.0593  -30.2867   20.8028 C   0  0  0  0  0  0  0  0  0  0  0  0
  -27.4705  -17.6157   19.9865 C   0  0  0  0  0  0  0  0  0  0  0  0
  -22.6410   -8.8778   22.8245 C   0  0  0  0  0  0  0  0  0  0  0  0
  -26.6994  -20.1869   20.7459 C   0  0  0  0  0  0  0  0  0  0  0  0
  -27.7415  -28.5347   20.6976 C   0  0  0  0  0  0  0  0  0  0  0  0
  -21.4985   -7.0354   23.7313 C   0  0  0  0  0  0  0  0  0  0  0  0
  -20.8259   -4.3313   23.5960 C   0  0  0  0  0  0  0  0  0  0  0  0
  -21.8400   -6.1786   24.7777 C   0  0  0  0  0  0  0  0  0  0  0  0
  -25.1578  -10.4326   19.8002 C   0  0  0  0  0  0  0  0  0  0  0  0
  -26.0985  -10.9280   17.8755 C   0  0  0  0  0  0  0  0  0  0  0  0
  -24.1145   -9.4203   17.6785 C   0  0  0  0  0  0  0  0  0  0  0  0
  -24.6350  -32.1752   23.2590 C   0  0  0  0  0  0  0  0  0  0  0  0
  -23.1907  -32.7871   20.4197 C   0  0  0  0  0  0  0  0  0  0  0  0
  -22.9348  -32.0878   17.0892 C   0  0  0  0  0  0  0  0  0  0  0  0
  -29.1265  -15.7349   19.7276 C   0  0  0  0  0  0  0  0  0  0  0  0
  -25.1055  -34.4823   27.7882 C   0  0  0  0  0  0  0  0  0  0  0  0
  -26.6224  -32.5541   21.7548 C   0  0  0  0  0  0  0  0  0  0  0  0
  -24.6469  -30.7295   20.5247 C   0  0  0  0  0  0  0  0  0  0  0  0
  -24.0901  -34.5107   26.6487 C   0  0  0  0  0  0  0  0  0  0  0  0
  -30.4822  -12.5399   18.9334 C   0  0  0  0  0  0  0  0  0  0  0  0
  -23.7074  -33.0920   26.2391 C   0  0  0  0  0  0  0  0  0  0  0  0
  -29.2609  -11.6176   18.9334 C   0  0  0  0  0  0  0  0  0  0  0  0
  -30.3839  -13.6113   20.0179 C   0  0  0  0  0  0  0  0  0  0  0  0
  -27.9240  -13.4777   20.0009 C   0  0  0  0  0  0  0  0  0  0  0  0
  -24.9276  -32.3180   25.7258 C   0  0  1  0  0  0  0  0  0  0  0  0
  -25.1217  -32.7420   21.9554 C   0  0  1  0  0  0  0  0  0  0  0  0
  -27.9472  -12.4222   18.8833 C   0  0  2  0  0  0  0  0  0  0  0  0
  -21.6379  -32.7230   15.0369 C   0  0  0  0  0  0  0  0  0  0  0  0
  -20.8142  -31.1552   21.4192 C   0  0  0  0  0  0  0  0  0  0  0  0
  -19.9998  -31.0231   19.0554 C   0  0  0  0  0  0  0  0  0  0  0  0
  -20.2013  -33.2399   20.1813 C   0  0  0  0  0  0  0  0  0  0  0  0
  -25.3721  -33.0292   15.6991 C   0  0  0  0  0  0  0  0  0  0  0  0
  -26.6764  -23.8123   20.7993 C   0  0  0  0  0  0  0  0  0  0  0  0
  -27.7164  -24.9244   20.7195 C   0  0  0  0  0  0  0  0  0  0  0  0
  -27.3204  -22.4594   21.0714 C   0  0  0  0  0  0  0  0  0  0  0  0
  -27.0778  -26.2698   20.4050 C   0  0  0  0  0  0  0  0  0  1  0  0
  -22.2967  -32.0084   19.4852 C   0  0  1  0  0  0  0  0  0  0  0  0
  -22.8805  -32.9923   15.8712 C   0  0  2  0  0  0  0  0  0  0  0  0
  -20.8540  -31.8474   20.0422 C   0  0  0  0  0  0  0  0  0  0  0  0
  -26.1782  -11.2319   20.1225 N   0  0  0  0  0  0  0  0  0  0  0  0
  -26.7310  -11.5163   18.9310 N   0  0  0  0  0  0  0  0  0  0  0  0
  -24.3273  -32.1181   20.8953 N   0  0  0  0  0  0  0  0  0  0  0  0
  -29.1157  -14.3353   19.9056 N   0  0  0  0  0  0  0  0  0  0  0  0
  -26.5234  -11.1086   16.6069 N   0  0  0  0  0  0  0  0  0  0  0  0
  -23.1114   -8.7460   18.3881 N   0  0  0  0  0  0  0  0  0  0  0  0
  -27.8623  -16.3097   19.6008 N   0  0  0  0  0  0  0  0  0  0  0  0
  -25.2473  -32.7184   24.3723 N   0  0  0  0  0  0  0  0  0  0  0  0
  -22.3669  -32.6850   18.1946 N   0  0  0  0  0  0  0  0  0  0  0  0
  -24.0791  -32.7769   15.0123 N   0  3  0  0  0  0  0  0  0  0  0  0
  -24.1679   -9.3037   16.4307 O   0  0  0  0  0  0  0  0  0  0  0  0
  -23.7670  -31.3102   23.2552 O   0  0  0  0  0  0  0  0  0  0  0  0
  -22.8953  -33.9488   20.7110 O   0  0  0  0  0  0  0  0  0  0  0  0
  -23.4280  -30.9624   17.0617 O   0  0  0  0  0  0  0  0  0  0  0  0
  -30.1805  -16.3728   19.6632 O   0  0  0  0  0  0  0  0  0  0  0  0
  -21.8309   -8.3781   23.7974 O   0  0  0  0  0  0  0  0  0  0  0  0
  -26.3207  -21.4501   21.1190 O   0  0  0  0  0  0  0  0  0  0  0  0
  -28.0986  -27.2660   20.3592 O   0  0  0  0  0  0  0  0  0  1  0  0
  -20.5016   -3.0333   23.5315 F   0  0  0  0  0  0  0  0  0  0  0  0
  -22.4902   -6.6487   25.8510 F   0  0  0  0  0  0  0  0  0  0  0  0
  1  2  1  0  0  0  0
  1  5  2  0  0  0  0
  2  6  2  0  0  0  0
  3 10  2  0  0  0  0
  3 19  1  0  0  0  0
  4 11  1  0  0  0  0
  4 19  2  0  0  0  0
  5 21  1  0  0  0  0
  6 23  1  0  0  0  0
  7 12  2  0  0  0  0
  7 22  1  0  0  0  0
  8 13  2  0  0  0  0
  8 25  1  0  0  0  0
  9 14  1  0  0  0  0
  9 25  2  0  0  0  0
 10 26  1  0  0  0  0
 11 26  2  0  0  0  0
 12 28  1  0  0  0  0
 13 27  1  0  0  0  0
 14 27  2  0  0  0  0
 15 16  2  0  0  0  0
 15 29  1  0  0  0  0
 16 30  1  0  0  0  0
 17 24  1  0  0  0  0
 17 28  2  0  0  0  0
 18 30  2  0  0  0  0
 18 31  1  0  0  0  0
 19 32  1  0  0  0  0
 20 32  1  0  0  0  0
 20 33  2  0  0  0  0
 20 34  1  0  0  0  0
 21 23  2  0  0  0  0
 21 39  1  0  0  0  0
 22 24  2  0  0  0  0
 22 40  1  0  0  0  0
 23 48  1  0  0  0  0
 24 41  1  0  0  0  0
 25 69  1  0  0  0  0
 26 78  1  0  0  0  0
 27 79  1  0  0  0  0
 28 80  1  0  0  0  0
 29 31  2  0  0  0  0
 29 78  1  0  0  0  0
 30 81  1  0  0  0  0
 31 82  1  0  0  0  0
 32 63  2  0  0  0  0
 33 64  1  0  0  0  0
 33 67  1  0  0  0  0
 34 68  1  0  0  0  0
 34 73  2  0  0  0  0
 35 49  1  0  0  0  0
 35 70  1  0  0  0  0
 35 74  2  0  0  0  0
 36 60  1  0  0  0  0
 36 65  1  0  0  0  0
 36 75  2  0  0  0  0
 37 61  1  0  0  0  0
 37 71  1  0  0  0  0
 37 76  2  0  0  0  0
 38 66  1  0  0  0  0
 38 69  1  0  0  0  0
 38 77  2  0  0  0  0
 39 42  1  0  0  0  0
 40 49  1  0  0  0  0
 41 65  1  0  0  0  0
 42 44  1  0  0  0  0
 43 45  1  0  0  0  0
 43 46  1  0  0  0  0
 44 48  1  0  0  0  0
 45 50  1  0  0  0  0
 46 66  1  0  0  0  0
 47 50  1  0  0  0  0
 47 66  1  0  0  0  0
 48 70  1  0  0  0  0
 49 65  1  0  0  0  0
 50 64  1  0  0  0  0
 51 61  1  0  0  0  0
 52 62  1  0  0  0  0
 53 62  1  0  0  0  0
 54 62  1  0  0  0  0
 55 72  1  0  0  0  0
 56 57  1  0  0  0  0
 56 58  1  0  0  0  0
 57 59  1  0  0  0  0
 58 79  1  0  0  0  0
 59 80  1  0  0  0  0
 60 62  1  0  0  0  0
 60 71  1  0  0  0  0
 61 72  1  0  0  0  0
 63 64  1  0  0  0  0
M  CHG  1  72   1
M  ISO  4  38 100  59 101  69 100  80 101
M  END
> <Batch ID>
0006

> <Smiles>
CNC(C)C(=O)NC(C(=O)N1Cc2cc([101O:1][101CH2:1]CCCOc3ccc([100NH:0][100C:0](=O)N4CCCC(n5nc(-c6ccc(Oc7ccc(F)cc7F)cc6)c(C(N)=O)c5N)C4)cc3)ccc2CC1C(=O)NC1CCCc2ccccc21)C(C)(C)C

> <Shape>
0.243

> <Color>
0.082

> <Negative vol penalty>
0.000

$$$$

  -OEChem-04052315303D

 84 92  0     1  0  0  0  0  0999 V2000
  -25.6958  -26.8885   25.9245 C   0  0  0  0  0  0  0  0  0  0  0  0
  -18.9141  -28.7626   23.2973 C   0  0  0  0  0  0  0  0  0  0  0  0
  -20.3029  -28.6822   23.2910 C   0  0  0  0  0  0  0  0  0  0  0  0
  -26.4105  -25.9231   25.2155 C   0  0  0  0  0  0  0  0  0  0  0  0
  -26.1290  -28.2145   25.9277 C   0  0  0  0  0  0  0  0  0  0  0  0
  -27.2313  -17.6238   20.1306 C   0  0  0  0  0  0  0  0  0  0  0  0
  -29.2396  -17.2164   21.4103 C   0  0  0  0  0  0  0  0  0  0  0  0
  -18.1561  -27.7595   22.6947 C   0  0  0  0  0  0  0  0  0  0  0  0
  -20.9346  -27.5980   22.6829 C   0  0  0  0  0  0  0  0  0  0  0  0
  -24.8588  -28.9998   19.8053 C   0  0  0  0  0  0  0  0  0  0  0  0
  -27.5584  -26.2835   24.5097 C   0  0  0  0  0  0  0  0  0  0  0  0
  -27.2769  -28.5749   25.2220 C   0  0  0  0  0  0  0  0  0  0  0  0
  -27.1067  -16.2555   19.8904 C   0  0  0  0  0  0  0  0  0  0  0  0
  -29.1150  -15.8480   21.1701 C   0  0  0  0  0  0  0  0  0  0  0  0
  -26.0481  -29.3160   20.4606 C   0  0  0  0  0  0  0  0  0  0  0  0
  -26.0598  -12.8349   19.2431 C   0  0  0  0  0  0  0  0  0  0  0  0
  -24.7966  -12.2626   19.3927 C   0  0  0  0  0  0  0  0  0  0  0  0
  -26.9153  -27.1285   19.9292 C   0  0  0  0  0  0  0  0  0  0  0  0
  -24.7603  -12.9483   21.7091 C   0  0  0  0  0  0  0  0  0  0  0  0
  -28.2978  -18.1043   20.8905 C   0  0  0  0  0  0  0  0  0  0  0  0
  -27.8880  -20.2446   22.2167 C   0  0  0  0  0  0  0  0  0  0  0  0
  -18.7791  -26.6673   22.0704 C   0  0  0  0  0  0  0  0  0  0  0  0
  -24.6844  -27.7396   19.2155 C   0  0  0  0  0  0  0  0  0  0  0  0
  -20.1843  -26.5786   22.0725 C   0  0  0  0  0  0  0  0  0  0  0  0
  -25.7239  -26.7998   19.2648 C   0  0  0  0  0  0  0  0  0  0  0  0
  -27.9916  -27.6094   24.5130 C   0  0  0  0  0  0  0  0  0  0  0  0
  -28.0485  -15.3676   20.4102 C   0  0  0  0  0  0  0  0  0  0  0  0
  -27.0755  -28.3792   20.5252 C   0  0  0  0  0  0  0  0  0  0  0  0
  -26.6733  -13.4639   20.3266 C   0  0  0  0  0  0  0  0  0  0  0  0
  -24.1468  -12.3193   20.6257 C   0  0  0  0  0  0  0  0  0  0  0  0
  -26.0235  -13.5206   21.5595 C   0  0  0  0  0  0  0  0  0  0  0  0
  -28.4274  -19.5177   21.1384 C   0  0  0  0  0  0  0  0  0  0  0  0
  -28.2926  -21.5384   21.9952 C   0  0  0  0  0  0  0  0  0  0  0  0
  -27.0926  -19.7909   23.3198 C   0  0  0  0  0  0  0  0  0  0  0  0
  -22.6810  -25.3124   19.6609 C   0  0  0  0  0  0  0  0  0  0  0  0
  -24.1581  -24.1191   17.0309 C   0  0  0  0  0  0  0  0  0  0  0  0
  -30.2321  -27.0128   23.6173 C   0  0  0  0  0  0  0  0  0  0  0  0
  -26.9260  -24.0680   15.0352 C   0  0  0  0  0  0  0  0  0  0  0  0
  -32.2322  -25.2321   20.5877 C   0  0  0  0  0  0  0  0  0  0  0  0
  -17.9167  -25.5836   21.4734 C   0  0  0  0  0  0  0  0  0  0  0  0
  -23.4057  -27.4237   18.4892 C   0  0  0  0  0  0  0  0  0  0  0  0
  -25.5944  -25.4401   18.6301 C   0  0  0  0  0  0  0  0  0  0  0  0
  -18.6723  -24.6581   20.5232 C   0  0  0  0  0  0  0  0  0  0  0  0
  -30.4380  -23.6683   17.9397 C   0  0  0  0  0  0  0  0  0  0  0  0
  -19.9972  -24.2238   21.1421 C   0  0  0  0  0  0  0  0  0  0  0  0
  -29.7160  -22.5060   18.6235 C   0  0  0  0  0  0  0  0  0  0  0  0
  -31.8234  -23.9025   18.5380 C   0  0  0  0  0  0  0  0  0  0  0  0
  -31.1216  -22.9184   20.6858 C   0  0  0  0  0  0  0  0  0  0  0  0
  -20.9069  -25.4308   21.4013 C   0  0  1  0  0  0  0  0  0  0  0  0
  -23.1412  -25.9261   18.3689 C   0  0  1  0  0  0  0  0  0  0  0  0
  -29.6980  -22.6797   20.1541 C   0  0  2  0  0  0  0  0  0  0  0  0
  -27.8530  -22.9650   12.9805 C   0  0  0  0  0  0  0  0  0  0  0  0
  -24.7005  -21.5838   18.6396 C   0  0  0  0  0  0  0  0  0  0  0  0
  -26.4005  -20.9389   16.9185 C   0  0  0  0  0  0  0  0  0  0  0  0
  -24.0044  -21.1871   16.2705 C   0  0  0  0  0  0  0  0  0  0  0  0
  -27.1561  -26.6519   13.6107 C   0  0  0  0  0  0  0  0  0  0  0  0
  -31.4742  -27.5082   22.8760 C   0  0  0  0  0  0  0  0  0  0  0  0
  -32.5619  -26.4491   22.7253 C   0  0  0  0  0  0  0  0  0  0  0  0
  -29.2785  -29.3206   23.2365 C   0  0  0  0  0  0  0  0  0  0  0  0
  -28.1566  -29.6039   22.2536 C   0  0  0  0  0  0  0  0  0  1  0  0
  -25.3693  -23.2519   16.7860 C   0  0  1  0  0  0  0  0  0  0  0  0
  -27.0828  -24.1566   13.5279 C   0  0  2  0  0  0  0  0  0  0  0  0
  -25.1207  -21.7653   17.1674 C   0  0  0  0  0  0  0  0  0  0  0  0
  -29.1215  -20.2859   20.2945 N   0  0  0  0  0  0  0  0  0  0  0  0
  -29.0210  -21.5089   20.8424 N   0  0  0  0  0  0  0  0  0  0  0  0
  -24.3225  -25.1764   17.9369 N   0  0  0  0  0  0  0  0  0  0  0  0
  -31.7363  -24.0609   19.9917 N   0  0  0  0  0  0  0  0  0  0  0  0
  -28.0928  -22.6869   22.6759 N   0  0  0  0  0  0  0  0  0  0  0  0
  -26.7680  -18.4295   23.3943 N   0  0  0  0  0  0  0  0  0  0  0  0
  -21.5244  -25.8721   20.1691 N   0  0  0  0  0  0  0  0  0  0  0  0
  -25.7423  -23.4565   15.3905 N   0  0  0  0  0  0  0  0  0  0  0  0
  -32.1046  -25.3045   21.9695 N   0  0  0  0  0  0  0  0  0  0  0  0
  -29.1967  -27.9876   23.7719 N   0  0  0  0  0  0  0  0  0  0  0  0
  -27.8144  -25.4004   13.1554 N   0  3  0  0  0  0  0  0  0  0  0  0
  -26.6679  -20.5725   24.2043 O   0  0  0  0  0  0  0  0  0  0  0  0
  -23.3267  -24.3976   20.1590 O   0  0  0  0  0  0  0  0  0  0  0  0
  -23.1068  -23.8719   16.4347 O   0  0  0  0  0  0  0  0  0  0  0  0
  -30.2091  -25.8602   24.0564 O   0  0  0  0  0  0  0  0  0  0  0  0
  -27.7709  -24.4949   15.8190 O   0  0  0  0  0  0  0  0  0  0  0  0
  -32.7456  -26.1480   19.9362 O   0  0  0  0  0  0  0  0  0  0  0  0
  -27.9271  -14.0322   20.1763 O   0  0  0  0  0  0  0  0  0  0  0  0
  -28.2371  -28.6850   21.1648 O   0  0  0  0  0  0  0  0  0  1  0  0
  -22.9331  -11.7711   20.7688 F   0  0  0  0  0  0  0  0  0  0  0  0
  -26.6074  -14.1245   22.6037 F   0  0  0  0  0  0  0  0  0  0  0  0
  1  4  1  0  0  0  0
  1  5  2  0  0  0  0
  2  3  1  0  0  0  0
  2  8  2  0  0  0  0
  3  9  2  0  0  0  0
  4 11  2  0  0  0  0
  5 12  1  0  0  0  0
  6 13  2  0  0  0  0
  6 20  1  0  0  0  0
  7 14  1  0  0  0  0
  7 20  2  0  0  0  0
  8 22  1  0  0  0  0
  9 24  1  0  0  0  0
 10 15  2  0  0  0  0
 10 23  1  0  0  0  0
 11 26  1  0  0  0  0
 12 26  2  0  0  0  0
 13 27  1  0  0  0  0
 14 27  2  0  0  0  0
 15 28  1  0  0  0  0
 16 17  2  0  0  0  0
 16 29  1  0  0  0  0
 17 30  1  0  0  0  0
 18 25  1  0  0  0  0
 18 28  2  0  0  0  0
 19 30  2  0  0  0  0
 19 31  1  0  0  0  0
 20 32  1  0  0  0  0
 21 32  1  0  0  0  0
 21 33  2  0  0  0  0
 21 34  1  0  0  0  0
 22 24  2  0  0  0  0
 22 40  1  0  0  0  0
 23 25  2  0  0  0  0
 23 41  1  0  0  0  0
 24 49  1  0  0  0  0
 25 42  1  0  0  0  0
 26 73  1  0  0  0  0
 27 81  1  0  0  0  0
 28 82  1  0  0  0  0
 29 31  2  0  0  0  0
 29 81  1  0  0  0  0
 30 83  1  0  0  0  0
 31 84  1  0  0  0  0
 32 64  2  0  0  0  0
 33 65  1  0  0  0  0
 33 68  1  0  0  0  0
 34 69  1  0  0  0  0
 34 75  2  0  0  0  0
 35 50  1  0  0  0  0
 35 70  1  0  0  0  0
 35 76  2  0  0  0  0
 36 61  1  0  0  0  0
 36 66  1  0  0  0  0
 36 77  2  0  0  0  0
 37 57  1  0  0  0  0
 37 73  1  0  0  0  0
 37 78  2  0  0  0  0
 38 62  1  0  0  0  0
 38 71  1  0  0  0  0
 38 79  2  0  0  0  0
 39 67  1  0  0  0  0
 39 72  1  0  0  0  0
 39 80  2  0  0  0  0
 40 43  1  0  0  0  0
 41 50  1  0  0  0  0
 42 66  1  0  0  0  0
 43 45  1  0  0  0  0
 44 46  1  0  0  0  0
 44 47  1  0  0  0  0
 45 49  1  0  0  0  0
 46 51  1  0  0  0  0
 47 67  1  0  0  0  0
 48 51  1  0  0  0  0
 48 67  1  0  0  0  0
 49 70  1  0  0  0  0
 50 66  1  0  0  0  0
 51 65  1  0  0  0  0
 52 62  1  0  0  0  0
 53 63  1  0  0  0  0
 54 63  1  0  0  0  0
 55 63  1  0  0  0  0
 56 74  1  0  0  0  0
 57 58  1  0  0  0  0
 58 72  1  0  0  0  0
 59 60  1  0  0  0  0
 59 73  1  0  0  0  0
 60 82  1  0  0  0  0
 61 63  1  0  0  0  0
 61 71  1  0  0  0  0
 62 74  1  0  0  0  0
 64 65  1  0  0  0  0
M  CHG  1  74   1
M  ISO  4  39 100  60 101  72 100  82 101
M  END
> <Batch ID>
0006

> <Smiles>
CNC(C)C(=O)NC(C(=O)N1Cc2cc([101O:1][101CH2:1]CN(C(=O)CC[100NH:0][100C:0](=O)N3CCCC(n4nc(-c5ccc(Oc6ccc(F)cc6F)cc5)c(C(N)=O)c4N)C3)c3ccccc3)ccc2CC1C(=O)NC1CCCc2ccccc21)C(C)(C)C

> <Shape>
0.214

> <Color>
0.069

> <Negative vol penalty>
0.000

$$$$

  -OEChem-04052315303D

 86 94  0     1  0  0  0  0  0999 V2000
  -21.4229  -29.5943   18.0324 C   0  0  0  0  0  0  0  0  0  0  0  0
  -22.1975  -29.3739   19.1667 C   0  0  0  0  0  0  0  0  0  0  0  0
  -23.0344   -9.8777   19.9712 C   0  0  0  0  0  0  0  0  0  0  0  0
  -23.7552   -9.9410   22.2762 C   0  0  0  0  0  0  0  0  0  0  0  0
  -21.0074  -28.5156   17.2530 C   0  0  0  0  0  0  0  0  0  0  0  0
  -22.5562  -28.0743   19.5229 C   0  0  0  0  0  0  0  0  0  0  0  0
  -27.7992  -26.2872   22.1350 C   0  0  0  0  0  0  0  0  0  0  0  0
  -32.5687  -17.5677   23.4437 C   0  0  0  0  0  0  0  0  0  0  0  0
  -31.9814  -16.6678   22.5544 C   0  0  0  0  0  0  0  0  0  0  0  0
  -22.2857   -8.7312   20.2367 C   0  0  0  0  0  0  0  0  0  0  0  0
  -23.0065   -8.7945   22.5419 C   0  0  0  0  0  0  0  0  0  0  0  0
  -28.1404  -26.0066   23.4574 C   0  0  0  0  0  0  0  0  0  0  0  0
  -21.5729   -5.6785   23.7441 C   0  0  0  0  0  0  0  0  0  0  0  0
  -22.1740   -4.6725   24.5005 C   0  0  0  0  0  0  0  0  0  0  0  0
  -27.7536  -23.6601   23.0531 C   0  0  0  0  0  0  0  0  0  0  0  0
  -30.3871  -18.4487   23.9929 C   0  0  0  0  0  0  0  0  0  0  0  0
  -23.9065   -4.4524   22.8310 C   0  0  0  0  0  0  0  0  0  0  0  0
  -23.7692  -10.4826   20.9909 C   0  0  0  0  0  0  0  0  0  0  0  0
  -24.1145  -13.0040   20.8146 C   0  0  0  0  0  0  0  0  0  0  0  0
  -21.3692  -27.2029   17.5944 C   0  0  0  0  0  0  0  0  0  0  0  0
  -27.4215  -25.2558   21.2633 C   0  0  0  0  0  0  0  0  0  0  0  0
  -22.1441  -26.9768   18.7481 C   0  0  0  0  0  0  0  0  0  0  0  0
  -27.4106  -23.9299   21.7194 C   0  0  0  0  0  0  0  0  0  0  0  0
  -31.7715  -18.4582   24.1629 C   0  0  0  0  0  0  0  0  0  0  0  0
  -30.5970  -16.6583   22.3844 C   0  0  0  0  0  0  0  0  0  0  0  0
  -22.2717   -8.1896   21.5221 C   0  0  0  0  0  0  0  0  0  0  0  0
  -28.1149  -24.6933   23.9174 C   0  0  0  0  0  0  0  0  0  0  0  0
  -22.1386   -6.0715   22.5311 C   0  0  0  0  0  0  0  0  0  0  0  0
  -29.7998  -17.5488   23.1036 C   0  0  0  0  0  0  0  0  0  0  0  0
  -23.3408   -4.0594   24.0440 C   0  0  0  0  0  0  0  0  0  0  0  0
  -23.3054   -5.4584   22.0746 C   0  0  0  0  0  0  0  0  0  0  0  0
  -24.5432  -11.6667   20.7170 C   0  0  0  0  0  0  0  0  0  0  0  0
  -25.2131  -13.7441   20.4516 C   0  0  0  0  0  0  0  0  0  0  0  0
  -22.8374  -13.5302   21.1991 C   0  0  0  0  0  0  0  0  0  0  0  0
  -24.7862  -24.5498   19.6321 C   0  0  0  0  0  0  0  0  0  0  0  0
  -26.6504  -22.2022   18.3929 C   0  0  0  0  0  0  0  0  0  0  0  0
  -31.5404  -21.3925   25.9303 C   0  0  0  0  0  0  0  0  0  0  0  0
  -29.3692  -20.1702   18.7485 C   0  0  0  0  0  0  0  0  0  0  0  0
  -30.6762  -14.7927   20.6933 C   0  0  0  0  0  0  0  0  0  0  0  0
  -20.8567  -26.0650   16.7475 C   0  0  0  0  0  0  0  0  0  0  0  0
  -27.0821  -25.5719   19.8324 C   0  0  0  0  0  0  0  0  0  0  0  0
  -27.0318  -22.7843   20.8180 C   0  0  0  0  0  0  0  0  0  0  0  0
  -21.5937  -24.7493   16.9845 C   0  0  0  0  0  0  0  0  0  0  0  0
  -29.6007  -12.3216   18.3665 C   0  0  0  0  0  0  0  0  0  0  0  0
  -21.7451  -24.4840   18.4790 C   0  0  0  0  0  0  0  0  0  0  0  0
  -28.1538  -12.0409   18.7786 C   0  0  0  0  0  0  0  0  0  0  0  0
  -30.4954  -12.5797   19.5775 C   0  0  0  0  0  0  0  0  0  0  0  0
  -28.5657  -13.3383   20.9080 C   0  0  0  0  0  0  0  0  0  0  0  0
  -22.5743  -25.5837   19.1533 C   0  0  1  0  0  0  0  0  0  0  0  0
  -26.2163  -24.5026   19.1734 C   0  0  1  0  0  0  0  0  0  0  0  0
  -27.6129  -13.1363   19.7184 C   0  0  2  0  0  0  0  0  0  0  0  0
  -30.6172  -18.3285   17.5876 C   0  0  0  0  0  0  0  0  0  0  0  0
  -24.4805  -20.2194   19.2111 C   0  0  0  0  0  0  0  0  0  0  0  0
  -26.1488  -18.3768   18.9116 C   0  0  0  0  0  0  0  0  0  0  0  0
  -25.4918  -19.7908   16.9643 C   0  0  0  0  0  0  0  0  0  0  0  0
  -31.8371  -21.7944   18.5750 C   0  0  0  0  0  0  0  0  0  0  0  0
  -27.6932  -16.7064   23.8166 C   0  0  0  0  0  0  0  0  0  0  0  0
  -30.6461  -21.9505   27.0238 C   0  0  0  0  0  0  0  0  0  0  0  0
  -29.9827  -23.2733   26.6544 C   0  0  0  0  0  0  0  0  0  0  0  0
  -29.0341  -23.1427   25.4687 C   0  0  0  0  0  0  0  0  0  1  0  0
  -26.9631  -20.7743   18.7699 C   0  0  1  0  0  0  0  0  0  0  0  0
  -30.5036  -19.8302   17.7988 C   0  0  2  0  0  0  0  0  0  0  0  0
  -25.7764  -19.8119   18.4820 C   0  0  0  0  0  0  0  0  0  0  0  0
  -25.8150  -11.5603   20.3228 N   0  0  0  0  0  0  0  0  0  0  0  0
  -26.1948  -12.8403   20.1693 N   0  0  0  0  0  0  0  0  0  0  0  0
  -26.7021  -23.1451   19.4293 N   0  0  0  0  0  0  0  0  0  0  0  0
  -29.9222  -13.6319   20.4197 N   0  0  0  0  0  0  0  0  0  0  0  0
  -25.4255  -15.0733   20.3494 N   0  0  0  0  0  0  0  0  0  0  0  0
  -21.8194  -12.6298   21.5414 N   0  0  0  0  0  0  0  0  0  0  0  0
  -30.0156  -15.7378   21.4776 N   0  0  0  0  0  0  0  0  0  0  0  0
  -32.3610  -19.3612   25.0562 N   0  0  0  0  0  0  0  0  0  0  0  0
  -23.9833  -25.3906   18.8852 N   0  0  0  0  0  0  0  0  0  0  0  0
  -28.1961  -20.4282   18.0712 N   0  0  0  0  0  0  0  0  0  0  0  0
  -31.5784  -20.0106   25.9664 N   0  0  0  0  0  0  0  0  0  0  0  0
  -31.7996  -20.3279   18.3408 N   0  3  0  0  0  0  0  0  0  0  0  0
  -22.6009  -14.7619   21.2221 O   0  0  0  0  0  0  0  0  0  0  0  0
  -24.4368  -23.8725   20.5917 O   0  0  0  0  0  0  0  0  0  0  0  0
  -26.3776  -22.4723   17.2206 O   0  0  0  0  0  0  0  0  0  0  0  0
  -32.1583  -22.1001   25.1391 O   0  0  0  0  0  0  0  0  0  0  0  0
  -29.5086  -20.2001   19.9692 O   0  0  0  0  0  0  0  0  0  0  0  0
  -31.8131  -14.9497   20.2409 O   0  0  0  0  0  0  0  0  0  0  0  0
  -21.5411   -7.0710   21.7817 O   0  0  0  0  0  0  0  0  0  0  0  0
  -28.4450  -17.5558   22.9528 O   0  0  0  0  0  0  0  0  0  0  0  0
  -28.4468  -24.4168   25.2078 O   0  0  0  0  0  0  0  0  0  1  0  0
  -23.9188   -3.0944   24.7712 F   0  0  0  0  0  0  0  0  0  0  0  0
  -23.8541   -5.8325   20.9106 F   0  0  0  0  0  0  0  0  0  0  0  0
  1  2  1  0  0  0  0
  1  5  2  0  0  0  0
  2  6  2  0  0  0  0
  3 10  2  0  0  0  0
  3 18  1  0  0  0  0
  4 11  1  0  0  0  0
  4 18  2  0  0  0  0
  5 20  1  0  0  0  0
  6 22  1  0  0  0  0
  7 12  2  0  0  0  0
  7 21  1  0  0  0  0
  8  9  2  0  0  0  0
  8 24  1  0  0  0  0
  9 25  1  0  0  0  0
 10 26  1  0  0  0  0
 11 26  2  0  0  0  0
 12 27  1  0  0  0  0
 13 14  2  0  0  0  0
 13 28  1  0  0  0  0
 14 30  1  0  0  0  0
 15 23  1  0  0  0  0
 15 27  2  0  0  0  0
 16 24  2  0  0  0  0
 16 29  1  0  0  0  0
 17 30  2  0  0  0  0
 17 31  1  0  0  0  0
 18 32  1  0  0  0  0
 19 32  1  0  0  0  0
 19 33  2  0  0  0  0
 19 34  1  0  0  0  0
 20 22  2  0  0  0  0
 20 40  1  0  0  0  0
 21 23  2  0  0  0  0
 21 41  1  0  0  0  0
 22 49  1  0  0  0  0
 23 42  1  0  0  0  0
 24 71  1  0  0  0  0
 25 29  2  0  0  0  0
 25 70  1  0  0  0  0
 26 82  1  0  0  0  0
 27 84  1  0  0  0  0
 28 31  2  0  0  0  0
 28 82  1  0  0  0  0
 29 83  1  0  0  0  0
 30 85  1  0  0  0  0
 31 86  1  0  0  0  0
 32 64  2  0  0  0  0
 33 65  1  0  0  0  0
 33 68  1  0  0  0  0
 34 69  1  0  0  0  0
 34 76  2  0  0  0  0
 35 50  1  0  0  0  0
 35 72  1  0  0  0  0
 35 77  2  0  0  0  0
 36 61  1  0  0  0  0
 36 66  1  0  0  0  0
 36 78  2  0  0  0  0
 37 58  1  0  0  0  0
 37 74  1  0  0  0  0
 37 79  2  0  0  0  0
 38 62  1  0  0  0  0
 38 73  1  0  0  0  0
 38 80  2  0  0  0  0
 39 67  1  0  0  0  0
 39 70  1  0  0  0  0
 39 81  2  0  0  0  0
 40 43  1  0  0  0  0
 41 50  1  0  0  0  0
 42 66  1  0  0  0  0
 43 45  1  0  0  0  0
 44 46  1  0  0  0  0
 44 47  1  0  0  0  0
 45 49  1  0  0  0  0
 46 51  1  0  0  0  0
 47 67  1  0  0  0  0
 48 51  1  0  0  0  0
 48 67  1  0  0  0  0
 49 72  1  0  0  0  0
 50 66  1  0  0  0  0
 51 65  1  0  0  0  0
 52 62  1  0  0  0  0
 53 63  1  0  0  0  0
 54 63  1  0  0  0  0
 55 63  1  0  0  0  0
 56 75  1  0  0  0  0
 57 83  1  0  0  0  0
 58 59  1  0  0  0  0
 59 60  1  0  0  0  0
 60 84  1  0  0  0  0
 61 63  1  0  0  0  0
 61 73  1  0  0  0  0
 62 75  1  0  0  0  0
 64 65  1  0  0  0  0
 71 74  1  0  0  0  0
M  CHG  1  75   1
M  ISO  4  39 100  60 101  70 100  84 101
M  END
> <Batch ID>
0006

> <Smiles>
CNC(C)C(=O)NC(C(=O)N1Cc2cc([101O:1][101CH2:1]CCC(=O)NNc3ccc([100NH:0][100C:0](=O)N4CCCC(n5nc(-c6ccc(Oc7ccc(F)cc7F)cc6)c(C(N)=O)c5N)C4)c(OC)c3)ccc2CC1C(=O)NC1CCCc2ccccc21)C(C)(C)C

> <Shape>
0.211

> <Color>
0.210

> <Negative vol penalty>
0.000

$$$$

  -OEChem-04052315303D

 96104  0     1  0  0  0  0  0999 V2000
  -20.9515  -28.1524   25.8807 C   0  0  0  0  0  0  0  0  0  0  0  0
  -22.1011  -27.7421   25.2133 C   0  0  0  0  0  0  0  0  0  0  0  0
  -29.0895  -23.6787   18.0574 C   0  0  0  0  0  0  0  0  0  0  0  0
  -23.3059  -14.3043   21.7107 C   0  0  0  0  0  0  0  0  0  0  0  0
  -25.7082  -14.5341   21.5963 C   0  0  0  0  0  0  0  0  0  0  0  0
  -19.7142  -28.0851   25.2414 C   0  0  0  0  0  0  0  0  0  0  0  0
  -22.0140  -27.2631   23.9066 C   0  0  0  0  0  0  0  0  0  0  0  0
  -25.6059  -29.1763   20.8928 C   0  0  0  0  0  0  0  0  0  0  0  0
  -27.9406  -23.2846   18.7430 C   0  0  0  0  0  0  0  0  0  0  0  0
  -30.3175  -23.0889   18.3573 C   0  0  0  0  0  0  0  0  0  0  0  0
  -23.3969  -13.0507   21.1058 C   0  0  0  0  0  0  0  0  0  0  0  0
  -25.7993  -13.2805   20.9915 C   0  0  0  0  0  0  0  0  0  0  0  0
  -26.8842  -28.6304   20.9999 C   0  0  0  0  0  0  0  0  0  0  0  0
  -23.0274   -9.6343   19.9200 C   0  0  0  0  0  0  0  0  0  0  0  0
  -22.2735   -8.5950   20.4650 C   0  0  0  0  0  0  0  0  0  0  0  0
  -26.4702  -27.2907   19.0370 C   0  0  0  0  0  0  0  0  0  0  0  0
  -23.4360   -8.8538   22.5670 C   0  0  0  0  0  0  0  0  0  0  0  0
  -24.4615  -15.0461   21.9558 C   0  0  0  0  0  0  0  0  0  0  0  0
  -24.4066  -16.6255   23.9583 C   0  0  0  0  0  0  0  0  0  0  0  0
  -19.6132  -27.6142   23.9229 C   0  0  0  0  0  0  0  0  0  0  0  0
  -24.7446  -28.7747   19.8615 C   0  0  0  0  0  0  0  0  0  0  0  0
  -20.7741  -27.1882   23.2496 C   0  0  0  0  0  0  0  0  0  0  0  0
  -25.1823  -27.8349   18.9175 C   0  0  0  0  0  0  0  0  0  0  0  0
  -29.2475  -21.7110   20.0286 C   0  0  0  0  0  0  0  0  0  0  0  0
  -28.0195  -22.3008   19.7287 C   0  0  0  0  0  0  0  0  0  0  0  0
  -30.3965  -22.1051   19.3429 C   0  0  0  0  0  0  0  0  0  0  0  0
  -24.6436  -12.5388   20.7463 C   0  0  0  0  0  0  0  0  0  0  0  0
  -27.3156  -27.6853   20.0737 C   0  0  0  0  0  0  0  0  0  0  0  0
  -23.9858  -10.2833   20.6985 C   0  0  0  0  0  0  0  0  0  0  0  0
  -22.4778   -8.2047   21.7885 C   0  0  0  0  0  0  0  0  0  0  0  0
  -24.1900   -9.8931   22.0220 C   0  0  0  0  0  0  0  0  0  0  0  0
  -24.3680  -16.3413   22.5801 C   0  0  0  0  0  0  0  0  0  0  0  0
  -24.2803  -17.9913   24.0309 C   0  0  0  0  0  0  0  0  0  0  0  0
  -24.5445  -15.7347   25.0732 C   0  0  0  0  0  0  0  0  0  0  0  0
  -21.9087  -27.3445   19.7366 C   0  0  0  0  0  0  0  0  0  0  0  0
  -22.1706  -27.9651   16.5635 C   0  0  0  0  0  0  0  0  0  0  0  0
  -34.8673  -26.1248   20.1369 C   0  0  0  0  0  0  0  0  0  0  0  0
  -32.0773  -20.3424   18.9124 C   0  0  0  0  0  0  0  0  0  0  0  0
  -24.1996  -28.5872   13.8909 C   0  0  0  0  0  0  0  0  0  0  0  0
  -25.5519  -22.4167   20.2225 C   0  0  0  0  0  0  0  0  0  0  0  0
  -18.2478  -27.5154   23.2900 C   0  0  0  0  0  0  0  0  0  0  0  0
  -23.3784  -29.3929   19.7441 C   0  0  0  0  0  0  0  0  0  0  0  0
  -24.3036  -27.3853   17.7798 C   0  0  0  0  0  0  0  0  0  0  0  0
  -18.2901  -27.3474   21.7733 C   0  0  0  0  0  0  0  0  0  0  0  0
  -22.3820  -21.7066   21.6800 C   0  0  0  0  0  0  0  0  0  0  0  0
  -19.3110  -26.2835   21.3824 C   0  0  0  0  0  0  0  0  0  0  0  0
  -22.5370  -20.2782   22.2070 C   0  0  0  0  0  0  0  0  0  0  0  0
  -23.1235  -21.9076   20.3596 C   0  0  0  0  0  0  0  0  0  0  0  0
  -24.6943  -20.0896   20.9042 C   0  0  0  0  0  0  0  0  0  0  0  0
  -20.7236  -26.6860   21.8230 C   0  0  1  0  0  0  0  0  0  0  0  0
  -22.3982  -28.5305   18.9548 C   0  0  1  0  0  0  0  0  0  0  0  0
  -24.0184  -19.8568   22.2653 C   0  0  2  0  0  0  0  0  0  0  0  0
  -29.3324  -20.6553   21.0875 C   0  0  0  0  0  0  0  0  0  0  0  0
  -35.8594  -26.9727   19.4346 C   0  0  0  0  0  0  0  0  0  0  0  0
  -30.8806  -16.8336   15.4287 C   0  0  0  0  0  0  0  0  0  0  0  0
  -24.1261  -29.0153   11.4193 C   0  0  0  0  0  0  0  0  0  0  0  0
  -21.6483  -25.0001   16.0679 C   0  0  0  0  0  0  0  0  0  0  0  0
  -22.5149  -25.3081   13.7393 C   0  0  0  0  0  0  0  0  0  0  0  0
  -20.4803  -26.5439   14.4847 C   0  0  0  0  0  0  0  0  0  0  0  0
  -25.4370  -31.2579   14.1994 C   0  0  0  0  0  0  0  0  0  0  0  0
  -31.0371  -19.8175   17.9231 C   0  0  0  0  0  0  0  0  0  0  0  0
  -30.4154  -18.0749   16.1742 C   0  0  0  0  0  0  0  0  0  0  0  0
  -31.4812  -18.5682   17.1565 C   0  0  0  0  0  0  0  0  0  0  0  0
  -32.0499  -28.4742   20.7474 C   0  0  0  0  0  0  0  0  0  0  0  0
  -30.9296  -27.6282   20.1426 C   0  0  0  0  0  0  0  0  0  0  0  0
  -33.4320  -23.1699   20.0454 C   0  0  0  0  0  0  0  0  0  0  0  0
  -33.4166  -28.1167   20.1803 C   0  0  0  0  0  0  0  0  0  0  0  0
  -32.5075  -22.1160   20.6524 C   0  0  0  0  0  0  0  0  0  0  0  0
  -34.3020  -23.8870   21.0711 C   0  0  0  0  0  0  0  0  0  0  0  0
  -29.5767  -27.9729   20.7521 C   0  0  0  0  0  0  0  0  0  1  0  0
  -22.7443  -27.2326   15.3747 C   0  0  1  0  0  0  0  0  0  0  0  0
  -24.1375  -29.6448   12.8037 C   0  0  2  0  0  0  0  0  0  0  0  0
  -21.8630  -26.0280   14.9391 C   0  0  0  0  0  0  0  0  0  0  0  0
  -24.2279  -17.4383   21.8311 N   0  0  0  0  0  0  0  0  0  0  0  0
  -24.1773  -18.4251   22.7420 N   0  0  0  0  0  0  0  0  0  0  0  0
  -22.9742  -28.0141   17.7115 N   0  0  0  0  0  0  0  0  0  0  0  0
  -24.5214  -21.4913   20.4917 N   0  0  0  0  0  0  0  0  0  0  0  0
  -24.2482  -18.8514   25.0709 N   0  0  0  0  0  0  0  0  0  0  0  0
  -24.6631  -14.3612   24.8204 N   0  0  0  0  0  0  0  0  0  0  0  0
  -26.8398  -21.9171   20.4134 N   0  0  0  0  0  0  0  0  0  0  0  0
  -21.2729  -27.6734   20.9186 N   0  0  0  0  0  0  0  0  0  0  0  0
  -33.7156  -26.7183   20.4717 N   0  0  0  0  0  0  0  0  0  0  0  0
  -22.9420  -28.2356   14.3338 N   0  0  0  0  0  0  0  0  0  0  0  0
  -31.6786  -21.5098   19.6377 N   0  0  0  0  0  0  0  0  0  0  0  0
  -35.1733  -24.8488   20.3882 N   0  3  0  0  0  0  0  0  0  0  0  0
  -25.3150  -30.5535   12.8971 N   0  3  0  0  0  0  0  0  0  0  0  0
  -24.5455  -16.1429   26.2594 O   0  0  0  0  0  0  0  0  0  0  0  0
  -22.0927  -26.2147   19.2992 O   0  0  0  0  0  0  0  0  0  0  0  0
  -21.0537  -28.4811   16.4745 O   0  0  0  0  0  0  0  0  0  0  0  0
  -33.1382  -19.7289   19.0557 O   0  0  0  0  0  0  0  0  0  0  0  0
  -25.2577  -28.1171   14.3032 O   0  0  0  0  0  0  0  0  0  0  0  0
  -25.3092  -23.5757   19.8764 O   0  0  0  0  0  0  0  0  0  0  0  0
  -24.7329  -11.3155   20.1563 O   0  0  0  0  0  0  0  0  0  0  0  0
  -28.5626  -27.1504   20.1764 O   0  0  0  0  0  0  0  0  0  1  0  0
  -21.7526   -7.2077   22.3121 F   0  0  0  0  0  0  0  0  0  0  0  0
  -25.1084  -10.5137   22.7752 F   0  0  0  0  0  0  0  0  0  0  0  0
  1  2  1  0  0  0  0
  1  6  2  0  0  0  0
  2  7  2  0  0  0  0
  3  9  1  0  0  0  0
  3 10  2  0  0  0  0
  4 11  2  0  0  0  0
  4 18  1  0  0  0  0
  5 12  1  0  0  0  0
  5 18  2  0  0  0  0
  6 20  1  0  0  0  0
  7 22  1  0  0  0  0
  8 13  2  0  0  0  0
  8 21  1  0  0  0  0
  9 25  2  0  0  0  0
 10 26  1  0  0  0  0
 11 27  1  0  0  0  0
 12 27  2  0  0  0  0
 13 28  1  0  0  0  0
 14 15  2  0  0  0  0
 14 29  1  0  0  0  0
 15 30  1  0  0  0  0
 16 23  1  0  0  0  0
 16 28  2  0  0  0  0
 17 30  2  0  0  0  0
 17 31  1  0  0  0  0
 18 32  1  0  0  0  0
 19 32  1  0  0  0  0
 19 33  2  0  0  0  0
 19 34  1  0  0  0  0
 20 22  2  0  0  0  0
 20 41  1  0  0  0  0
 21 23  2  0  0  0  0
 21 42  1  0  0  0  0
 22 50  1  0  0  0  0
 23 43  1  0  0  0  0
 24 25  1  0  0  0  0
 24 26  2  0  0  0  0
 24 53  1  0  0  0  0
 25 80  1  0  0  0  0
 26 84  1  0  0  0  0
 27 93  1  0  0  0  0
 28 94  1  0  0  0  0
 29 31  2  0  0  0  0
 29 93  1  0  0  0  0
 30 95  1  0  0  0  0
 31 96  1  0  0  0  0
 32 74  2  0  0  0  0
 33 75  1  0  0  0  0
 33 78  1  0  0  0  0
 34 79  1  0  0  0  0
 34 87  2  0  0  0  0
 35 51  1  0  0  0  0
 35 81  1  0  0  0  0
 35 88  2  0  0  0  0
 36 71  1  0  0  0  0
 36 76  1  0  0  0  0
 36 89  2  0  0  0  0
 37 54  1  0  0  0  0
 37 82  1  0  0  0  0
 37 85  2  0  0  0  0
 38 61  1  0  0  0  0
 38 84  1  0  0  0  0
 38 90  2  0  0  0  0
 39 72  1  0  0  0  0
 39 83  1  0  0  0  0
 39 91  2  0  0  0  0
 40 77  1  0  0  0  0
 40 80  1  0  0  0  0
 40 92  2  0  0  0  0
 41 44  1  0  0  0  0
 42 51  1  0  0  0  0
 43 76  1  0  0  0  0
 44 46  1  0  0  0  0
 45 47  1  0  0  0  0
 45 48  1  0  0  0  0
 46 50  1  0  0  0  0
 47 52  1  0  0  0  0
 48 77  1  0  0  0  0
 49 52  1  0  0  0  0
 49 77  1  0  0  0  0
 50 81  1  0  0  0  0
 51 76  1  0  0  0  0
 52 75  1  0  0  0  0
 55 62  1  0  0  0  0
 56 72  1  0  0  0  0
 57 73  1  0  0  0  0
 58 73  1  0  0  0  0
 59 73  1  0  0  0  0
 60 86  1  0  0  0  0
 61 63  1  0  0  0  0
 62 63  1  0  0  0  0
 64 65  1  0  0  0  0
 64 67  1  0  0  0  0
 65 70  1  0  0  0  0
 66 68  1  0  0  0  0
 66 69  1  0  0  0  0
 67 82  1  0  0  0  0
 68 84  1  0  0  0  0
 69 85  1  0  0  0  0
 70 94  1  0  0  0  0
 71 73  1  0  0  0  0
 71 83  1  0  0  0  0
 72 86  1  0  0  0  0
 74 75  1  0  0  0  0
M  CHG  2  85   1  86   1
M  ISO  4  40 100  70 101  80 100  94 101
M  END
> <Batch ID>
0006

> <Smiles>
CCCCC(=O)N(CCCNC(C)=NCCC[101CH2:1][101O:1]c1ccc2c(c1)CN(C(=O)C(NC(=O)C(C)NC)C(C)(C)C)C(C(=O)NC1CCCc3ccccc31)C2)c1cccc([100NH:0][100C:0](=O)N2CCCC(n3nc(-c4ccc(Oc5ccc(F)cc5F)cc4)c(C(N)=O)c3N)C2)c1C

> <Shape>
0.207

> <Color>
0.069

> <Negative vol penalty>
0.000

$$$$

  -OEChem-04052315303D

 89 97  0     1  0  0  0  0  0999 V2000
  -27.2152  -23.7628   17.8203 C   0  0  0  0  0  0  0  0  0  0  0  0
  -26.0415  -24.2409   18.3941 C   0  0  0  0  0  0  0  0  0  0  0  0
  -26.5313  -12.2761   20.9407 C   0  0  0  0  0  0  0  0  0  0  0  0
  -24.8046  -13.6828   20.0042 C   0  0  0  0  0  0  0  0  0  0  0  0
  -28.4497  -24.1164   18.3633 C   0  0  0  0  0  0  0  0  0  0  0  0
  -26.1017  -25.0722   19.5120 C   0  0  0  0  0  0  0  0  0  0  0  0
  -22.9796  -29.0430   19.1506 C   0  0  0  0  0  0  0  0  0  0  0  0
  -25.5857  -11.2814   21.1900 C   0  0  0  0  0  0  0  0  0  0  0  0
  -23.8591  -12.6881   20.2535 C   0  0  0  0  0  0  0  0  0  0  0  0
  -21.6274  -28.8147   19.4020 C   0  0  0  0  0  0  0  0  0  0  0  0
  -23.9634   -8.8905   19.4338 C   0  0  0  0  0  0  0  0  0  0  0  0
  -24.2978   -7.5790   19.0964 C   0  0  0  0  0  0  0  0  0  0  0  0
  -21.8983  -29.7004   21.6294 C   0  0  0  0  0  0  0  0  0  0  0  0
  -25.8477  -22.5610   23.1444 C   0  0  0  0  0  0  0  0  0  0  0  0
  -23.7825  -22.6963   21.2737 C   0  0  0  0  0  0  0  0  0  0  0  0
  -24.0240   -6.9157   21.4034 C   0  0  0  0  0  0  0  0  0  0  0  0
  -26.1407  -13.4768   20.3479 C   0  0  0  0  0  0  0  0  0  0  0  0
  -27.8867  -14.6736   18.9242 C   0  0  0  0  0  0  0  0  0  0  0  0
  -28.5253  -24.9602   19.4826 C   0  0  0  0  0  0  0  0  0  0  0  0
  -23.8051  -29.5925   20.1421 C   0  0  0  0  0  0  0  0  0  0  0  0
  -27.3383  -25.4364   20.0714 C   0  0  0  0  0  0  0  0  0  0  0  0
  -23.2601  -29.9370   21.3872 C   0  0  0  0  0  0  0  0  0  0  0  0
  -25.8221  -21.6738   22.0685 C   0  0  0  0  0  0  0  0  0  0  0  0
  -24.2497  -11.4874   20.8463 C   0  0  0  0  0  0  0  0  0  0  0  0
  -21.0872  -29.1407   20.6425 C   0  0  0  0  0  0  0  0  0  0  0  0
  -23.6594   -9.2146   20.7560 C   0  0  0  0  0  0  0  0  0  0  0  0
  -23.8081  -23.5835   22.3498 C   0  0  0  0  0  0  0  0  0  0  0  0
  -24.3281   -6.5916   20.0812 C   0  0  0  0  0  0  0  0  0  0  0  0
  -24.8406  -23.5159   23.2851 C   0  0  0  0  0  0  0  0  0  0  0  0
  -24.7896  -21.7414   21.1331 C   0  0  0  0  0  0  0  0  0  0  0  0
  -23.6896   -8.2272   21.7407 C   0  0  0  0  0  0  0  0  0  0  0  0
  -27.1169  -14.5050   20.0907 C   0  0  0  0  0  0  0  0  0  0  0  0
  -28.6538  -15.7846   19.1766 C   0  0  0  0  0  0  0  0  0  0  0  0
  -27.9066  -13.8956   17.7200 C   0  0  0  0  0  0  0  0  0  0  0  0
  -26.3796  -28.6008   21.7207 C   0  0  0  0  0  0  0  0  0  0  0  0
  -26.3427  -31.6233   22.8977 C   0  0  0  0  0  0  0  0  0  0  0  0
  -17.4854  -27.4877   22.0849 C   0  0  0  0  0  0  0  0  0  0  0  0
  -24.5435  -34.4365   23.6020 C   0  0  0  0  0  0  0  0  0  0  0  0
  -27.9419  -20.5065   22.7686 C   0  0  0  0  0  0  0  0  0  0  0  0
  -29.8810  -25.2767   20.0629 C   0  0  0  0  0  0  0  0  0  0  0  0
  -25.2558  -29.8573   19.8460 C   0  0  0  0  0  0  0  0  0  0  0  0
  -24.0992  -30.5481   22.4785 C   0  0  0  0  0  0  0  0  0  0  0  0
  -29.8710  -26.4647   21.0215 C   0  0  0  0  0  0  0  0  0  0  0  0
  -30.6610  -18.2079   22.7867 C   0  0  0  0  0  0  0  0  0  0  0  0
  -28.7096  -26.3484   22.0036 C   0  0  0  0  0  0  0  0  0  0  0  0
  -30.1330  -17.0153   21.9860 C   0  0  0  0  0  0  0  0  0  0  0  0
  -29.5683  -18.8440   23.6440 C   0  0  0  0  0  0  0  0  0  0  0  0
  -27.8182  -18.0212   22.1177 C   0  0  0  0  0  0  0  0  0  0  0  0
  -27.3632  -26.3603   21.2696 C   0  0  1  0  0  0  0  0  0  0  0  0
  -26.1158  -29.9449   21.1030 C   0  0  1  0  0  0  0  0  0  0  0  0
  -28.8672  -17.3876   21.1893 C   0  0  2  0  0  0  0  0  0  0  0  0
  -24.7798  -36.7284   24.5962 C   0  0  0  0  0  0  0  0  0  0  0  0
  -26.4048  -30.4017   25.6930 C   0  0  0  0  0  0  0  0  0  0  0  0
  -25.6890  -32.6215   26.6033 C   0  0  0  0  0  0  0  0  0  0  0  0
  -27.8641  -32.4114   25.4002 C   0  0  0  0  0  0  0  0  0  0  0  0
  -23.7364  -35.7435   21.0724 C   0  0  0  0  0  0  0  0  0  0  0  0
  -17.7944  -28.9655   22.2669 C   0  0  0  0  0  0  0  0  0  0  0  0
  -19.0639  -24.5595   22.3183 C   0  0  0  0  0  0  0  0  0  0  0  0
  -20.4732  -24.8744   22.8207 C   0  0  0  0  0  0  0  0  0  0  0  0
  -17.9833  -25.2769   23.1213 C   0  0  0  0  0  0  0  0  0  0  0  0
  -19.2808  -29.2761   22.1836 C   0  0  0  0  0  0  0  0  0  1  0  0
  -21.5356  -24.1793   21.9802 C   0  0  0  0  0  0  0  0  0  0  0  0
  -25.7061  -32.2994   24.0879 C   0  0  1  0  0  0  0  0  0  0  0  0
  -24.8153  -35.9030   23.3194 C   0  0  2  0  0  0  0  0  0  0  0  0
  -26.4003  -31.9202   25.4264 C   0  0  0  0  0  0  0  0  0  0  0  0
  -27.3718  -15.4343   21.0155 N   0  0  0  0  0  0  0  0  0  0  0  0
  -28.3104  -16.1976   20.4303 N   0  0  0  0  0  0  0  0  0  0  0  0
  -25.5135  -30.7818   22.1427 N   0  0  0  0  0  0  0  0  0  0  0  0
  -28.4023  -19.1738   22.8214 N   0  0  0  0  0  0  0  0  0  0  0  0
  -29.5818  -16.4387   18.4463 N   0  0  0  0  0  0  0  0  0  0  0  0
  -27.0546  -12.7866   17.6269 N   0  0  0  0  0  0  0  0  0  0  0  0
  -26.8470  -20.7053   21.9283 N   0  0  0  0  0  0  0  0  0  0  0  0
  -27.0135  -27.7086   20.8771 N   0  0  0  0  0  0  0  0  0  0  0  0
  -18.1063  -26.7154   23.0561 N   0  0  0  0  0  0  0  0  0  0  0  0
  -25.7110  -33.7289   23.7962 N   0  0  0  0  0  0  0  0  0  0  0  0
  -23.7949  -36.4472   22.3794 N   0  3  0  0  0  0  0  0  0  0  0  0
  -28.6694  -14.1658   16.7616 O   0  0  0  0  0  0  0  0  0  0  0  0
  -26.0350  -28.3894   22.8775 O   0  0  0  0  0  0  0  0  0  0  0  0
  -27.5302  -31.8396   22.6430 O   0  0  0  0  0  0  0  0  0  0  0  0
  -16.7726  -27.0546   21.1836 O   0  0  0  0  0  0  0  0  0  0  0  0
  -23.4089  -33.9664   23.6496 O   0  0  0  0  0  0  0  0  0  0  0  0
  -28.4963  -21.4100   23.3996 O   0  0  0  0  0  0  0  0  0  0  0  0
  -23.3268  -10.5169   21.0892 O   0  0  0  0  0  0  0  0  0  0  0  0
  -19.7678  -28.9184   20.8908 O   0  0  0  0  0  0  0  0  0  1  0  0
  -22.8184  -24.5221   22.4859 O   0  0  0  0  0  0  0  0  0  0  0  0
  -24.6477   -5.3319   19.7567 F   0  0  0  0  0  0  0  0  0  0  0  0
  -24.8703  -24.3659   24.3206 F   0  0  0  0  0  0  0  0  0  0  0  0
  -24.7549  -20.8930   20.0954 F   0  0  0  0  0  0  0  0  0  0  0  0
  -23.3973   -8.5323   23.0125 F   0  0  0  0  0  0  0  0  0  0  0  0
  1  2  1  0  0  0  0
  1  5  2  0  0  0  0
  2  6  2  0  0  0  0
  3  8  2  0  0  0  0
  3 17  1  0  0  0  0
  4  9  1  0  0  0  0
  4 17  2  0  0  0  0
  5 19  1  0  0  0  0
  6 21  1  0  0  0  0
  7 10  2  0  0  0  0
  7 20  1  0  0  0  0
  8 24  1  0  0  0  0
  9 24  2  0  0  0  0
 10 25  1  0  0  0  0
 11 12  2  0  0  0  0
 11 26  1  0  0  0  0
 12 28  1  0  0  0  0
 13 22  1  0  0  0  0
 13 25  2  0  0  0  0
 14 23  2  0  0  0  0
 14 29  1  0  0  0  0
 15 27  1  0  0  0  0
 15 30  2  0  0  0  0
 16 28  2  0  0  0  0
 16 31  1  0  0  0  0
 17 32  1  0  0  0  0
 18 32  1  0  0  0  0
 18 33  2  0  0  0  0
 18 34  1  0  0  0  0
 19 21  2  0  0  0  0
 19 40  1  0  0  0  0
 20 22  2  0  0  0  0
 20 41  1  0  0  0  0
 21 49  1  0  0  0  0
 22 42  1  0  0  0  0
 23 30  1  0  0  0  0
 23 72  1  0  0  0  0
 24 83  1  0  0  0  0
 25 84  1  0  0  0  0
 26 31  2  0  0  0  0
 26 83  1  0  0  0  0
 27 29  2  0  0  0  0
 27 85  1  0  0  0  0
 28 86  1  0  0  0  0
 29 87  1  0  0  0  0
 30 88  1  0  0  0  0
 31 89  1  0  0  0  0
 32 66  2  0  0  0  0
 33 67  1  0  0  0  0
 33 70  1  0  0  0  0
 34 71  1  0  0  0  0
 34 77  2  0  0  0  0
 35 50  1  0  0  0  0
 35 73  1  0  0  0  0
 35 78  2  0  0  0  0
 36 63  1  0  0  0  0
 36 68  1  0  0  0  0
 36 79  2  0  0  0  0
 37 57  1  0  0  0  0
 37 74  1  0  0  0  0
 37 80  2  0  0  0  0
 38 64  1  0  0  0  0
 38 75  1  0  0  0  0
 38 81  2  0  0  0  0
 39 69  1  0  0  0  0
 39 72  1  0  0  0  0
 39 82  2  0  0  0  0
 40 43  1  0  0  0  0
 41 50  1  0  0  0  0
 42 68  1  0  0  0  0
 43 45  1  0  0  0  0
 44 46  1  0  0  0  0
 44 47  1  0  0  0  0
 45 49  1  0  0  0  0
 46 51  1  0  0  0  0
 47 69  1  0  0  0  0
 48 51  1  0  0  0  0
 48 69  1  0  0  0  0
 49 73  1  0  0  0  0
 50 68  1  0  0  0  0
 51 67  1  0  0  0  0
 52 64  1  0  0  0  0
 53 65  1  0  0  0  0
 54 65  1  0  0  0  0
 55 65  1  0  0  0  0
 56 76  1  0  0  0  0
 57 61  1  0  0  0  0
 58 59  1  0  0  0  0
 58 60  1  0  0  0  0
 59 62  1  0  0  0  0
 60 74  1  0  0  0  0
 61 84  1  0  0  0  0
 62 85  1  0  0  0  0
 63 65  1  0  0  0  0
 63 75  1  0  0  0  0
 64 76  1  0  0  0  0
 66 67  1  0  0  0  0
M  CHG  1  76   1
M  ISO  4  39 100  61 101  72 100  84 101
M  END
> <Batch ID>
0006

> <Smiles>
CNC(C)C(=O)NC(C(=O)N1Cc2cc([101O:1][101CH2:1]CC(=O)NCCCCOc3cc(F)c([100NH:0][100C:0](=O)N4CCCC(n5nc(-c6ccc(Oc7ccc(F)cc7F)cc6)c(C(N)=O)c5N)C4)cc3F)ccc2CC1C(=O)NC1CCCc2ccccc21)C(C)(C)C

> <Shape>
0.308

> <Color>
0.067

> <Negative vol penalty>
0.000

$$$$

  -OEChem-04052315303D

 82 90  0     1  0  0  0  0  0999 V2000
  -24.6340  -34.0333   28.0532 C   0  0  0  0  0  0  0  0  0  0  0  0
  -25.5100  -33.2134   27.3491 C   0  0  0  0  0  0  0  0  0  0  0  0
  -24.2723   -9.0596   21.4663 C   0  0  0  0  0  0  0  0  0  0  0  0
  -24.7685  -10.3479   23.4490 C   0  0  0  0  0  0  0  0  0  0  0  0
  -23.2577  -33.8428   27.9378 C   0  0  0  0  0  0  0  0  0  0  0  0
  -25.0101  -32.2017   26.5299 C   0  0  0  0  0  0  0  0  0  0  0  0
  -27.3871  -30.2374   21.2387 C   0  0  0  0  0  0  0  0  0  0  0  0
  -30.1693  -18.8631   20.0901 C   0  0  0  0  0  0  0  0  0  0  0  0
  -23.9432   -7.9621   22.2618 C   0  0  0  0  0  0  0  0  0  0  0  0
  -24.4393   -9.2505   24.2445 C   0  0  0  0  0  0  0  0  0  0  0  0
  -28.1966  -29.1475   20.9213 C   0  0  0  0  0  0  0  0  0  0  0  0
  -30.3560  -20.1975   20.4506 C   0  0  0  0  0  0  0  0  0  0  0  0
  -21.3178   -6.9379   24.1303 C   0  0  0  0  0  0  0  0  0  0  0  0
  -20.1549   -6.2348   23.8158 C   0  0  0  0  0  0  0  0  0  0  0  0
  -26.2388  -27.8814   20.3021 C   0  0  0  0  0  0  0  0  0  0  0  0
  -27.9733  -20.4463   20.7635 C   0  0  0  0  0  0  0  0  0  0  0  0
  -21.4599   -4.2313   23.4694 C   0  0  0  0  0  0  0  0  0  0  0  0
  -24.6850  -10.2525   22.0599 C   0  0  0  0  0  0  0  0  0  0  0  0
  -24.1610  -12.4043   20.7939 C   0  0  0  0  0  0  0  0  0  0  0  0
  -22.7405  -32.8345   27.1093 C   0  0  0  0  0  0  0  0  0  0  0  0
  -25.9942  -30.1536   21.1003 C   0  0  0  0  0  0  0  0  0  0  0  0
  -23.6256  -31.9967   26.4043 C   0  0  0  0  0  0  0  0  0  0  0  0
  -25.4141  -28.9725   20.6160 C   0  0  0  0  0  0  0  0  0  0  0  0
  -27.7866  -19.1118   20.4029 C   0  0  0  0  0  0  0  0  0  0  0  0
  -28.8846  -18.3202   20.0662 C   0  0  0  0  0  0  0  0  0  0  0  0
  -24.0267   -8.0575   23.6509 C   0  0  0  0  0  0  0  0  0  0  0  0
  -27.6222  -27.9683   20.4557 C   0  0  0  0  0  0  0  0  0  0  0  0
  -29.2580  -20.9891   20.7873 C   0  0  0  0  0  0  0  0  0  0  0  0
  -22.5518   -6.2877   24.1143 C   0  0  0  0  0  0  0  0  0  0  0  0
  -20.2259   -4.8815   23.4854 C   0  0  0  0  0  0  0  0  0  0  0  0
  -22.6228   -4.9344   23.7839 C   0  0  0  0  0  0  0  0  0  0  0  0
  -25.0257  -11.3864   21.2387 C   0  0  0  0  0  0  0  0  0  0  0  0
  -24.9634  -13.2370   20.0529 C   0  0  0  0  0  0  0  0  0  0  0  0
  -22.7578  -12.5812   21.0294 C   0  0  0  0  0  0  0  0  0  0  0  0
  -23.5256  -30.3626   23.0918 C   0  0  0  0  0  0  0  0  0  0  0  0
  -21.7997  -30.1949   20.3504 C   0  0  0  0  0  0  0  0  0  0  0  0
  -21.6380  -29.2206   17.0837 C   0  0  0  0  0  0  0  0  0  0  0  0
  -29.7111  -16.0559   19.3339 C   0  0  0  0  0  0  0  0  0  0  0  0
  -21.2464  -32.6363   27.0533 C   0  0  0  0  0  0  0  0  0  0  0  0
  -25.1371  -31.3472   21.4216 C   0  0  0  0  0  0  0  0  0  0  0  0
  -23.9255  -28.8383   20.4304 C   0  0  0  0  0  0  0  0  0  0  0  0
  -20.7889  -31.7834   25.8728 C   0  0  0  0  0  0  0  0  0  0  0  0
  -29.7051  -12.6224   18.3915 C   0  0  0  0  0  0  0  0  0  0  0  0
  -21.6563  -30.5347   25.7485 C   0  0  0  0  0  0  0  0  0  0  0  0
  -28.4161  -12.0785   19.0116 C   0  0  0  0  0  0  0  0  0  0  0  0
  -30.3729  -13.6611   19.2909 C   0  0  0  0  0  0  0  0  0  0  0  0
  -28.2137  -14.2208   20.3369 C   0  0  0  0  0  0  0  0  0  0  0  0
  -23.1212  -30.9044   25.4863 C   0  0  1  0  0  0  0  0  0  0  0  0
  -23.6896  -30.9775   21.7307 C   0  0  1  0  0  0  0  0  0  0  0  0
  -27.4709  -13.2189   19.4380 C   0  0  2  0  0  0  0  0  0  0  0  0
  -26.3991  -18.5574   20.3861 C   0  0  0  0  0  0  0  0  0  0  0  0
  -20.0841  -29.1840   15.1136 C   0  0  0  0  0  0  0  0  0  0  0  0
  -20.2704  -27.8705   21.6029 C   0  0  0  0  0  0  0  0  0  0  0  0
  -19.4335  -27.2811   19.3181 C   0  0  0  0  0  0  0  0  0  0  0  0
  -18.8508  -29.4867   20.3273 C   0  0  0  0  0  0  0  0  0  0  0  0
  -23.4608  -30.9010   15.4675 C   0  0  0  0  0  0  0  0  0  0  0  0
  -28.9380  -24.5996   20.6336 C   0  0  0  0  0  0  0  0  0  0  0  0
  -27.8423  -25.6045   20.3146 C   0  0  0  0  0  0  0  0  0  1  0  0
  -28.3826  -23.1996   20.8432 C   0  0  0  0  0  0  0  0  0  0  0  0
  -21.2125  -29.0767   19.5235 C   0  0  1  0  0  0  0  0  0  0  0  0
  -21.1795  -29.9530   15.8356 C   0  0  2  0  0  0  0  0  0  0  0  0
  -19.9697  -28.4303   20.1982 C   0  0  0  0  0  0  0  0  0  0  0  0
  -26.2813  -11.5550   20.8155 N   0  0  0  0  0  0  0  0  0  0  0  0
  -26.2114  -12.6885   20.0970 N   0  0  0  0  0  0  0  0  0  0  0  0
  -23.1293  -30.0309   20.7642 N   0  0  0  0  0  0  0  0  0  0  0  0
  -29.4189  -14.7124   19.6508 N   0  0  0  0  0  0  0  0  0  0  0  0
  -24.7162  -14.3777   19.3745 N   0  0  0  0  0  0  0  0  0  0  0  0
  -22.0870  -11.6324   21.8130 N   0  0  0  0  0  0  0  0  0  0  0  0
  -28.7156  -16.9632   19.6952 N   0  0  0  0  0  0  0  0  0  0  0  0
  -23.3075  -31.2806   24.1013 N   0  0  0  0  0  0  0  0  0  0  0  0
  -20.9506  -29.6394   18.2032 N   0  0  0  0  0  0  0  0  0  0  0  0
  -22.3208  -30.1392   14.8956 N   0  3  0  0  0  0  0  0  0  0  0  0
  -22.1145  -13.5432   20.5454 O   0  0  0  0  0  0  0  0  0  0  0  0
  -23.5906  -29.1453   23.2167 O   0  0  0  0  0  0  0  0  0  0  0  0
  -21.1067  -31.1809   20.6133 O   0  0  0  0  0  0  0  0  0  0  0  0
  -22.5154  -28.3600   17.0665 O   0  0  0  0  0  0  0  0  0  0  0  0
  -30.7545  -16.3747   18.7580 O   0  0  0  0  0  0  0  0  0  0  0  0
  -23.7054   -6.9869   24.4275 O   0  0  0  0  0  0  0  0  0  0  0  0
  -28.4100  -26.9028   20.1458 O   0  0  0  0  0  0  0  0  0  1  0  0
  -29.4416  -22.3002   21.1422 O   0  0  0  0  0  0  0  0  0  0  0  0
  -19.1089   -4.2061   23.1850 F   0  0  0  0  0  0  0  0  0  0  0  0
  -23.8053   -4.3040   23.7679 F   0  0  0  0  0  0  0  0  0  0  0  0
  1  2  1  0  0  0  0
  1  5  2  0  0  0  0
  2  6  2  0  0  0  0
  3  9  2  0  0  0  0
  3 18  1  0  0  0  0
  4 10  1  0  0  0  0
  4 18  2  0  0  0  0
  5 20  1  0  0  0  0
  6 22  1  0  0  0  0
  7 11  2  0  0  0  0
  7 21  1  0  0  0  0
  8 12  2  0  0  0  0
  8 25  1  0  0  0  0
  9 26  1  0  0  0  0
 10 26  2  0  0  0  0
 11 27  1  0  0  0  0
 12 28  1  0  0  0  0
 13 14  2  0  0  0  0
 13 29  1  0  0  0  0
 14 30  1  0  0  0  0
 15 23  1  0  0  0  0
 15 27  2  0  0  0  0
 16 24  1  0  0  0  0
 16 28  2  0  0  0  0
 17 30  2  0  0  0  0
 17 31  1  0  0  0  0
 18 32  1  0  0  0  0
 19 32  1  0  0  0  0
 19 33  2  0  0  0  0
 19 34  1  0  0  0  0
 20 22  2  0  0  0  0
 20 39  1  0  0  0  0
 21 23  2  0  0  0  0
 21 40  1  0  0  0  0
 22 48  1  0  0  0  0
 23 41  1  0  0  0  0
 24 25  2  0  0  0  0
 24 51  1  0  0  0  0
 25 69  1  0  0  0  0
 26 78  1  0  0  0  0
 27 79  1  0  0  0  0
 28 80  1  0  0  0  0
 29 31  2  0  0  0  0
 29 78  1  0  0  0  0
 30 81  1  0  0  0  0
 31 82  1  0  0  0  0
 32 63  2  0  0  0  0
 33 64  1  0  0  0  0
 33 67  1  0  0  0  0
 34 68  1  0  0  0  0
 34 73  2  0  0  0  0
 35 49  1  0  0  0  0
 35 70  1  0  0  0  0
 35 74  2  0  0  0  0
 36 60  1  0  0  0  0
 36 65  1  0  0  0  0
 36 75  2  0  0  0  0
 37 61  1  0  0  0  0
 37 71  1  0  0  0  0
 37 76  2  0  0  0  0
 38 66  1  0  0  0  0
 38 69  1  0  0  0  0
 38 77  2  0  0  0  0
 39 42  1  0  0  0  0
 40 49  1  0  0  0  0
 41 65  1  0  0  0  0
 42 44  1  0  0  0  0
 43 45  1  0  0  0  0
 43 46  1  0  0  0  0
 44 48  1  0  0  0  0
 45 50  1  0  0  0  0
 46 66  1  0  0  0  0
 47 50  1  0  0  0  0
 47 66  1  0  0  0  0
 48 70  1  0  0  0  0
 49 65  1  0  0  0  0
 50 64  1  0  0  0  0
 52 61  1  0  0  0  0
 53 62  1  0  0  0  0
 54 62  1  0  0  0  0
 55 62  1  0  0  0  0
 56 72  1  0  0  0  0
 57 58  1  0  0  0  0
 57 59  1  0  0  0  0
 58 79  1  0  0  0  0
 59 80  1  0  0  0  0
 60 62  1  0  0  0  0
 60 71  1  0  0  0  0
 61 72  1  0  0  0  0
 63 64  1  0  0  0  0
M  CHG  1  72   1
M  ISO  4  38 100  58 101  69 100  79 101
M  END
> <Batch ID>
0006

> <Smiles>
CNC(C)C(=O)NC(C(=O)N1Cc2cc([101O:1][101CH2:1]CCOc3ccc([100NH:0][100C:0](=O)N4CCCC(n5nc(-c6ccc(Oc7ccc(F)cc7F)cc6)c(C(N)=O)c5N)C4)c(C)c3)ccc2CC1C(=O)NC1CCCc2ccccc21)C(C)(C)C

> <Shape>
0.303

> <Color>
0.144

> <Negative vol penalty>
0.000

$$$$

  -OEChem-04052315303D

 80 87  0     1  0  0  0  0  0999 V2000
  -22.3104  -10.5836   20.5916 C   0  0  0  0  0  0  0  0  0  0  0  0
  -22.1786  -11.6428   21.4838 C   0  0  0  0  0  0  0  0  0  0  0  0
  -25.2207  -31.6738   23.3312 C   0  0  0  0  0  0  0  0  0  0  0  0
  -25.3854  -30.0429   25.1060 C   0  0  0  0  0  0  0  0  0  0  0  0
  -23.5050  -10.4048   19.8952 C   0  0  0  0  0  0  0  0  0  0  0  0
  -23.2418  -12.5233   21.6810 C   0  0  0  0  0  0  0  0  0  0  0  0
  -21.7708  -17.3689   21.7135 C   0  0  0  0  0  0  0  0  0  0  0  0
  -25.9927  -32.5641   24.0776 C   0  0  0  0  0  0  0  0  0  0  0  0
  -26.1574  -30.9331   25.8524 C   0  0  0  0  0  0  0  0  0  0  0  0
  -21.1705  -17.8443   22.8786 C   0  0  0  0  0  0  0  0  0  0  0  0
  -27.6193  -35.4006   25.6687 C   0  0  0  0  0  0  0  0  0  0  0  0
  -27.1958  -36.7278   25.7386 C   0  0  0  0  0  0  0  0  0  0  0  0
  -23.2588  -18.8589   23.5333 C   0  0  0  0  0  0  0  0  0  0  0  0
  -25.1185  -36.0120   26.7433 C   0  0  0  0  0  0  0  0  0  0  0  0
  -24.9170  -30.4132   23.8454 C   0  0  0  0  0  0  0  0  0  0  0  0
  -24.5795  -28.5353   22.1522 C   0  0  0  0  0  0  0  0  0  0  0  0
  -24.5799  -11.2892   20.0767 C   0  0  0  0  0  0  0  0  0  0  0  0
  -23.1247  -17.6261   21.4544 C   0  0  0  0  0  0  0  0  0  0  0  0
  -24.4523  -12.3554   20.9873 C   0  0  0  0  0  0  0  0  0  0  0  0
  -23.8733  -18.3879   22.3630 C   0  0  0  0  0  0  0  0  0  0  0  0
  -26.4611  -32.1937   25.3382 C   0  0  0  0  0  0  0  0  0  0  0  0
  -21.9153  -18.5870   23.7901 C   0  0  0  0  0  0  0  0  0  0  0  0
  -26.7924  -34.3791   26.1360 C   0  0  0  0  0  0  0  0  0  0  0  0
  -25.9454  -37.0335   26.2759 C   0  0  0  0  0  0  0  0  0  0  0  0
  -25.5420  -34.6848   26.6734 C   0  0  0  0  0  0  0  0  0  0  0  0
  -24.1191  -29.4934   23.0751 C   0  0  0  0  0  0  0  0  0  0  0  0
  -23.4384  -27.9221   21.6958 C   0  0  0  0  0  0  0  0  0  0  0  0
  -25.9190  -28.2270   21.7441 C   0  0  0  0  0  0  0  0  0  0  0  0
  -25.7165  -15.8264   21.0710 C   0  0  0  0  0  0  0  0  0  0  0  0
  -27.1019  -18.6647   20.3314 C   0  0  0  0  0  0  0  0  0  0  0  0
  -19.8308  -22.1336   24.1396 C   0  0  0  0  0  0  0  0  0  0  0  0
  -27.0710  -22.0653   20.6169 C   0  0  0  0  0  0  0  0  0  0  0  0
  -18.4440  -25.6160   22.6354 C   0  0  0  0  0  0  0  0  0  0  0  0
  -25.8679  -11.0277   19.3368 C   0  0  0  0  0  0  0  0  0  0  0  0
  -23.7505  -17.1290   20.1801 C   0  0  0  0  0  0  0  0  0  0  0  0
  -25.3249  -18.7089   22.1218 C   0  0  0  0  0  0  0  0  0  0  0  0
  -26.8160  -12.2240   19.3228 C   0  0  0  0  0  0  0  0  0  0  0  0
  -18.5706  -29.1582   22.2981 C   0  0  0  0  0  0  0  0  0  0  0  0
  -26.9319  -12.8296   20.7181 C   0  0  0  0  0  0  0  0  0  0  0  0
  -20.0621  -29.4823   22.4003 C   0  0  0  0  0  0  0  0  0  0  0  0
  -18.1783  -28.0079   23.2227 C   0  0  0  0  0  0  0  0  0  0  0  0
  -20.4704  -27.1043   23.1601 C   0  0  0  0  0  0  0  0  0  0  0  0
  -25.5744  -13.3462   21.2098 C   0  0  1  0  0  0  0  0  0  0  0  0
  -25.2692  -17.0135   20.2657 C   0  0  1  0  0  0  0  0  0  0  0  0
  -20.9246  -28.2209   22.2046 C   0  0  2  0  0  0  0  0  0  0  0  0
  -28.3540  -24.1112   19.9346 C   0  0  0  0  0  0  0  0  0  0  0  0
  -21.2627  -22.3189   26.8086 C   0  0  0  0  0  0  0  0  0  0  0  0
  -29.2136  -18.0420   22.4440 C   0  0  0  0  0  0  0  0  0  0  0  0
  -29.8762  -20.4558   22.3928 C   0  0  0  0  0  0  0  0  0  0  0  0
  -30.1093  -19.0565   20.3409 C   0  0  0  0  0  0  0  0  0  0  0  0
  -18.3511  -20.7470   25.6262 C   0  0  0  0  0  0  0  0  0  0  0  0
  -24.7631  -23.1546   19.1182 C   0  0  0  0  0  0  0  0  0  0  0  0
  -18.6009  -22.3659   23.2674 C   0  0  0  0  0  0  0  0  0  0  0  0
  -18.8719  -23.2426   22.0497 C   0  0  0  0  0  0  0  0  0  0  0  0
  -21.8432  -20.2689   25.4700 C   0  0  0  0  0  0  0  0  0  1  0  0
  -27.8037  -19.7479   21.1143 C   0  0  1  0  0  0  0  0  0  0  0  0
  -27.2177  -23.1645   19.5803 C   0  0  2  0  0  0  0  0  0  0  0  0
  -20.7328  -21.0322   26.1896 C   0  0  2  0  0  0  0  0  0  0  0  0
  -29.2239  -19.3180   21.5788 C   0  0  0  0  0  0  0  0  0  0  0  0
  -22.7892  -29.4929   23.1987 N   0  0  0  0  0  0  0  0  0  0  0  0
  -22.4041  -28.5269   22.3474 N   0  0  0  0  0  0  0  0  0  0  0  0
  -25.8931  -18.1952   20.8645 N   0  0  0  0  0  0  0  0  0  0  0  0
  -19.0332  -26.8422   22.9854 N   0  0  0  0  0  0  0  0  0  0  0  0
  -23.2289  -26.9300   20.8046 N   0  0  0  0  0  0  0  0  0  0  0  0
  -26.9744  -28.9532   22.3124 N   0  0  0  0  0  0  0  0  0  0  0  0
  -25.2608  -14.6147   20.5877 N   0  0  0  0  0  0  0  0  0  0  0  0
  -27.7857  -20.9381   20.2707 N   0  0  0  0  0  0  0  0  0  0  0  0
  -19.3262  -24.5639   22.4220 N   0  0  0  0  0  0  0  0  0  0  0  0
  -19.6502  -21.3327   25.2803 N   0  0  0  0  0  0  0  0  0  0  0  0
  -25.9591  -23.9566   19.4835 N   0  3  0  0  0  0  0  0  0  0  0  0
  -26.1712  -27.3453   20.8882 O   0  0  0  0  0  0  0  0  0  0  0  0
  -26.4240  -15.9970   22.0569 O   0  0  0  0  0  0  0  0  0  0  0  0
  -27.6040  -18.2553   19.2816 O   0  0  0  0  0  0  0  0  0  0  0  0
  -20.9179  -22.6324   23.8369 O   0  0  0  0  0  0  0  0  0  0  0  0
  -26.3933  -22.1950   21.6340 O   0  0  0  0  0  0  0  0  0  0  0  0
  -17.2226  -25.4711   22.5164 O   0  0  0  0  0  0  0  0  0  0  0  0
  -27.2146  -33.0621   26.0667 O   0  0  0  0  0  0  0  0  0  0  0  0
  -21.3320  -19.0516   24.9285 O   0  0  0  0  0  0  0  0  0  1  0  0
  -25.5395  -38.3081   26.3444 F   0  0  0  0  0  0  0  0  0  0  0  0
  -24.7437  -33.7079   27.1251 F   0  0  0  0  0  0  0  0  0  0  0  0
  1  2  1  0  0  0  0
  1  5  2  0  0  0  0
  2  6  2  0  0  0  0
  3  8  2  0  0  0  0
  3 15  1  0  0  0  0
  4  9  1  0  0  0  0
  4 15  2  0  0  0  0
  5 17  1  0  0  0  0
  6 19  1  0  0  0  0
  7 10  2  0  0  0  0
  7 18  1  0  0  0  0
  8 21  1  0  0  0  0
  9 21  2  0  0  0  0
 10 22  1  0  0  0  0
 11 12  2  0  0  0  0
 11 23  1  0  0  0  0
 12 24  1  0  0  0  0
 13 20  1  0  0  0  0
 13 22  2  0  0  0  0
 14 24  2  0  0  0  0
 14 25  1  0  0  0  0
 15 26  1  0  0  0  0
 16 26  1  0  0  0  0
 16 27  2  0  0  0  0
 16 28  1  0  0  0  0
 17 19  2  0  0  0  0
 17 34  1  0  0  0  0
 18 20  2  0  0  0  0
 18 35  1  0  0  0  0
 19 43  1  0  0  0  0
 20 36  1  0  0  0  0
 21 77  1  0  0  0  0
 22 78  1  0  0  0  0
 23 25  2  0  0  0  0
 23 77  1  0  0  0  0
 24 79  1  0  0  0  0
 25 80  1  0  0  0  0
 26 60  2  0  0  0  0
 27 61  1  0  0  0  0
 27 64  1  0  0  0  0
 28 65  1  0  0  0  0
 28 71  2  0  0  0  0
 29 44  1  0  0  0  0
 29 66  1  0  0  0  0
 29 72  2  0  0  0  0
 30 56  1  0  0  0  0
 30 62  1  0  0  0  0
 30 73  2  0  0  0  0
 31 53  1  0  0  0  0
 31 69  1  0  0  0  0
 31 74  2  0  0  0  0
 32 57  1  0  0  0  0
 32 67  1  0  0  0  0
 32 75  2  0  0  0  0
 33 63  1  0  0  0  0
 33 68  1  0  0  0  0
 33 76  2  0  0  0  0
 34 37  1  0  0  0  0
 35 44  1  0  0  0  0
 36 62  1  0  0  0  0
 37 39  1  0  0  0  0
 38 40  1  0  0  0  0
 38 41  1  0  0  0  0
 39 43  1  0  0  0  0
 40 45  1  0  0  0  0
 41 63  1  0  0  0  0
 42 45  1  0  0  0  0
 42 63  1  0  0  0  0
 43 66  1  0  0  0  0
 44 62  1  0  0  0  0
 45 61  1  0  0  0  0
 46 57  1  0  0  0  0
 47 58  1  0  0  0  0
 48 59  1  0  0  0  0
 49 59  1  0  0  0  0
 50 59  1  0  0  0  0
 51 69  1  0  0  0  0
 52 70  1  0  0  0  0
 53 54  1  0  0  0  0
 54 68  1  0  0  0  0
 55 58  1  0  0  0  0
 55 78  1  0  0  0  0
 56 59  1  0  0  0  0
 56 67  1  0  0  0  0
 57 70  1  0  0  0  0
 58 69  1  0  0  0  0
 60 61  1  0  0  0  0
M  CHG  1  70   1
M  ISO  4  33 100  55 101  68 100  78 101
M  END
> <Batch ID>
0006

> <Smiles>
CNC(C)C(=O)NC(C(=O)N1Cc2cc([101O:1][101CH2:1]C(C)N(C)C(=O)CC[100NH:0][100C:0](=O)N3CCCC(n4nc(-c5ccc(Oc6ccc(F)cc6F)cc5)c(C(N)=O)c4N)C3)ccc2CC1C(=O)NC1CCCc2ccccc21)C(C)(C)C

> <Shape>
0.238

> <Color>
0.047

> <Negative vol penalty>
0.000

$$$$

  -OEChem-04052315303D

 93101  0     1  0  0  0  0  0999 V2000
  -27.1966  -19.6903   16.6155 C   0  0  0  0  0  0  0  0  0  0  0  0
  -26.4119  -20.6851   17.1900 C   0  0  0  0  0  0  0  0  0  0  0  0
  -26.2853  -13.5560   20.0981 C   0  0  0  0  0  0  0  0  0  0  0  0
  -23.9860  -13.6663   20.8317 C   0  0  0  0  0  0  0  0  0  0  0  0
  -28.5231  -19.5327   17.0148 C   0  0  0  0  0  0  0  0  0  0  0  0
  -26.9531  -21.5223   18.1650 C   0  0  0  0  0  0  0  0  0  0  0  0
  -25.6613  -27.4406   19.0654 C   0  0  0  0  0  0  0  0  0  0  0  0
  -22.1870  -23.6579   26.6727 C   0  0  0  0  0  0  0  0  0  0  0  0
  -23.1495  -22.6910   26.3826 C   0  0  0  0  0  0  0  0  0  0  0  0
  -26.1189  -12.2085   19.7788 C   0  0  0  0  0  0  0  0  0  0  0  0
  -23.8195  -12.3187   20.5123 C   0  0  0  0  0  0  0  0  0  0  0  0
  -24.8130  -28.0898   19.9613 C   0  0  0  0  0  0  0  0  0  0  0  0
  -24.5818   -9.3218   21.8792 C   0  0  0  0  0  0  0  0  0  0  0  0
  -23.9218   -8.5132   22.8045 C   0  0  0  0  0  0  0  0  0  0  0  0
  -26.6758  -28.4575   21.4493 C   0  0  0  0  0  0  0  0  0  0  0  0
  -21.5492  -23.7220   24.3433 C   0  0  0  0  0  0  0  0  0  0  0  0
  -22.2309   -8.0058   21.1551 C   0  0  0  0  0  0  0  0  0  0  0  0
  -25.2189  -14.2849   20.6246 C   0  0  0  0  0  0  0  0  0  0  0  0
  -25.1745  -16.7836   20.1126 C   0  0  0  0  0  0  0  0  0  0  0  0
  -29.0836  -20.3747   17.9882 C   0  0  0  0  0  0  0  0  0  0  0  0
  -27.0234  -27.2851   19.3601 C   0  0  0  0  0  0  0  0  0  0  0  0
  -28.2880  -21.3750   18.5787 C   0  0  0  0  0  0  0  0  0  0  0  0
  -27.5398  -27.8082   20.5542 C   0  0  0  0  0  0  0  0  0  0  0  0
  -22.5118  -22.7551   24.0532 C   0  0  0  0  0  0  0  0  0  0  0  0
  -21.3868  -24.1734   25.6531 C   0  0  0  0  0  0  0  0  0  0  0  0
  -23.3119  -22.2395   25.0729 C   0  0  0  0  0  0  0  0  0  0  0  0
  -24.8860  -11.5898   19.9858 C   0  0  0  0  0  0  0  0  0  0  0  0
  -25.3196  -28.5958   21.1548 C   0  0  0  0  0  0  0  0  0  0  0  0
  -24.0663   -9.4725   20.5918 C   0  0  0  0  0  0  0  0  0  0  0  0
  -22.7464   -7.8552   22.4425 C   0  0  0  0  0  0  0  0  0  0  0  0
  -22.8909   -8.8145   20.2298 C   0  0  0  0  0  0  0  0  0  0  0  0
  -25.3905  -15.6768   20.9553 C   0  0  0  0  0  0  0  0  0  0  0  0
  -25.4748  -17.8732   20.8930 C   0  0  0  0  0  0  0  0  0  0  0  0
  -24.7410  -16.8233   18.7465 C   0  0  0  0  0  0  0  0  0  0  0  0
  -28.9538  -24.7983   19.7996 C   0  0  0  0  0  0  0  0  0  0  0  0
  -31.2432  -27.0931   19.9206 C   0  0  0  0  0  0  0  0  0  0  0  0
  -19.5285  -25.7669   25.0614 C   0  0  0  0  0  0  0  0  0  0  0  0
  -22.3424  -30.0947   22.7222 C   0  0  0  0  0  0  0  0  0  0  0  0
  -32.0451  -30.3573   20.5111 C   0  0  0  0  0  0  0  0  0  0  0  0
  -25.1605  -20.6505   25.7087 C   0  0  0  0  0  0  0  0  0  0  0  0
  -30.5083  -20.1355   18.4215 C   0  0  0  0  0  0  0  0  0  0  0  0
  -27.9304  -26.6060   18.3709 C   0  0  0  0  0  0  0  0  0  0  0  0
  -28.9985  -27.6853   20.9084 C   0  0  0  0  0  0  0  0  0  0  0  0
  -31.1156  -21.3058   19.1910 C   0  0  0  0  0  0  0  0  0  0  0  0
  -27.6914  -18.1613   25.4346 C   0  0  0  0  0  0  0  0  0  0  0  0
  -30.1446  -21.8057   20.2559 C   0  0  0  0  0  0  0  0  0  0  0  0
  -27.3007  -17.3841   24.1755 C   0  0  0  0  0  0  0  0  0  0  0  0
  -26.4655  -18.6017   26.2325 C   0  0  0  0  0  0  0  0  0  0  0  0
  -25.0671  -18.5662   24.2046 C   0  0  0  0  0  0  0  0  0  0  0  0
  -28.8463  -22.3189   19.6215 C   0  0  1  0  0  0  0  0  0  0  0  0
  -29.2008  -26.0513   19.0080 C   0  0  1  0  0  0  0  0  0  0  0  0
  -26.2666  -18.1575   23.3340 C   0  0  2  0  0  0  0  0  0  0  0  0
  -34.0034  -31.9256   20.5675 C   0  0  0  0  0  0  0  0  0  0  0  0
  -32.1087  -25.9123   22.5976 C   0  0  0  0  0  0  0  0  0  0  0  0
  -33.3784  -28.0243   23.0396 C   0  0  0  0  0  0  0  0  0  0  0  0
  -33.9924  -26.5855   21.0965 C   0  0  0  0  0  0  0  0  0  0  0  0
  -30.8980  -32.0515   18.3727 C   0  0  0  0  0  0  0  0  0  0  0  0
  -18.6393  -26.7641   25.7942 C   0  0  0  0  0  0  0  0  0  0  0  0
  -23.1191  -29.3401   21.6645 C   0  0  0  0  0  0  0  0  0  1  0  0
  -18.1958  -27.9464   24.9334 C   0  0  0  0  0  0  0  0  0  0  0  0
  -19.3774  -28.8042   24.4687 C   0  0  0  0  0  0  0  0  0  0  0  0
  -18.8994  -30.0029   23.6433 C   0  0  0  0  0  0  0  0  0  0  0  0
  -20.0456  -30.9125   23.2132 C   0  0  0  0  0  0  0  0  0  0  0  0
  -31.8561  -27.9352   21.0133 C   0  0  1  0  0  0  0  0  0  0  0  0
  -32.8800  -31.3484   19.7204 C   0  0  2  0  0  0  0  0  0  0  0  0
  -22.6627  -22.2882   22.6418 C   0  0  0  0  0  0  0  0  0  0  0  0
  -32.8060  -27.1151   21.9313 C   0  0  0  0  0  0  0  0  0  0  0  0
  -25.7968  -16.0308   22.1774 N   0  0  0  0  0  0  0  0  0  0  0  0
  -25.8386  -17.3722   22.1083 N   0  0  0  0  0  0  0  0  0  0  0  0
  -29.8438  -27.0074   19.9117 N   0  0  0  0  0  0  0  0  0  0  0  0
  -25.5323  -19.3318   25.3717 N   0  0  0  0  0  0  0  0  0  0  0  0
  -25.4607  -19.2013   20.6514 N   0  0  0  0  0  0  0  0  0  0  0  0
  -24.4756  -15.6115   18.0943 N   0  0  0  0  0  0  0  0  0  0  0  0
  -20.4084  -25.1525   25.9481 N   0  0  0  0  0  0  0  0  0  0  0  0
  -24.2940  -21.2556   24.7989 N   0  0  0  0  0  0  0  0  0  0  0  0
  -29.0459  -23.6365   19.0572 N   0  0  0  0  0  0  0  0  0  0  0  0
  -21.0068  -30.2308   22.3775 N   0  0  0  0  0  0  0  0  0  0  0  0
  -32.4964  -29.0646   20.3478 N   0  0  0  0  0  0  0  0  0  0  0  0
  -32.0296  -32.4732   19.2380 N   0  3  0  0  0  0  0  0  0  0  0  0
  -24.6092  -17.9006   18.1176 O   0  0  0  0  0  0  0  0  0  0  0  0
  -28.6999  -24.8795   20.9957 O   0  0  0  0  0  0  0  0  0  0  0  0
  -31.9787  -26.5377   19.1006 O   0  0  0  0  0  0  0  0  0  0  0  0
  -19.4210  -25.5596   23.8573 O   0  0  0  0  0  0  0  0  0  0  0  0
  -22.8620  -30.5226   23.7493 O   0  0  0  0  0  0  0  0  0  0  0  0
  -31.0907  -30.6964   21.2072 O   0  0  0  0  0  0  0  0  0  0  0  0
  -25.6012  -21.2120   26.7149 O   0  0  0  0  0  0  0  0  0  0  0  0
  -24.7231  -10.2750   19.6740 O   0  0  0  0  0  0  0  0  0  0  0  0
  -24.4937  -29.2292   22.0314 O   0  0  0  0  0  0  0  0  0  1  0  0
  -22.1135   -7.0776   23.3307 F   0  0  0  0  0  0  0  0  0  0  0  0
  -22.3914   -8.9544   18.9941 F   0  0  0  0  0  0  0  0  0  0  0  0
  -21.8013  -22.8931   21.7729 F   0  0  0  0  0  0  0  0  0  0  0  0
  -23.9066  -22.5095   22.1258 F   0  0  0  0  0  0  0  0  0  0  0  0
  -22.4411  -20.9492   22.5081 F   0  0  0  0  0  0  0  0  0  0  0  0
  1  2  1  0  0  0  0
  1  5  2  0  0  0  0
  2  6  2  0  0  0  0
  3 10  2  0  0  0  0
  3 18  1  0  0  0  0
  4 11  1  0  0  0  0
  4 18  2  0  0  0  0
  5 20  1  0  0  0  0
  6 22  1  0  0  0  0
  7 12  2  0  0  0  0
  7 21  1  0  0  0  0
  8  9  2  0  0  0  0
  8 25  1  0  0  0  0
  9 26  1  0  0  0  0
 10 27  1  0  0  0  0
 11 27  2  0  0  0  0
 12 28  1  0  0  0  0
 13 14  2  0  0  0  0
 13 29  1  0  0  0  0
 14 30  1  0  0  0  0
 15 23  1  0  0  0  0
 15 28  2  0  0  0  0
 16 24  1  0  0  0  0
 16 25  2  0  0  0  0
 17 30  2  0  0  0  0
 17 31  1  0  0  0  0
 18 32  1  0  0  0  0
 19 32  1  0  0  0  0
 19 33  2  0  0  0  0
 19 34  1  0  0  0  0
 20 22  2  0  0  0  0
 20 41  1  0  0  0  0
 21 23  2  0  0  0  0
 21 42  1  0  0  0  0
 22 50  1  0  0  0  0
 23 43  1  0  0  0  0
 24 26  2  0  0  0  0
 24 66  1  0  0  0  0
 25 74  1  0  0  0  0
 26 75  1  0  0  0  0
 27 87  1  0  0  0  0
 28 88  1  0  0  0  0
 29 31  2  0  0  0  0
 29 87  1  0  0  0  0
 30 89  1  0  0  0  0
 31 90  1  0  0  0  0
 32 68  2  0  0  0  0
 33 69  1  0  0  0  0
 33 72  1  0  0  0  0
 34 73  1  0  0  0  0
 34 80  2  0  0  0  0
 35 51  1  0  0  0  0
 35 76  1  0  0  0  0
 35 81  2  0  0  0  0
 36 64  1  0  0  0  0
 36 70  1  0  0  0  0
 36 82  2  0  0  0  0
 37 58  1  0  0  0  0
 37 74  1  0  0  0  0
 37 83  2  0  0  0  0
 38 59  1  0  0  0  0
 38 77  1  0  0  0  0
 38 84  2  0  0  0  0
 39 65  1  0  0  0  0
 39 78  1  0  0  0  0
 39 85  2  0  0  0  0
 40 71  1  0  0  0  0
 40 75  1  0  0  0  0
 40 86  2  0  0  0  0
 41 44  1  0  0  0  0
 42 51  1  0  0  0  0
 43 70  1  0  0  0  0
 44 46  1  0  0  0  0
 45 47  1  0  0  0  0
 45 48  1  0  0  0  0
 46 50  1  0  0  0  0
 47 52  1  0  0  0  0
 48 71  1  0  0  0  0
 49 52  1  0  0  0  0
 49 71  1  0  0  0  0
 50 76  1  0  0  0  0
 51 70  1  0  0  0  0
 52 69  1  0  0  0  0
 53 65  1  0  0  0  0
 54 67  1  0  0  0  0
 55 67  1  0  0  0  0
 56 67  1  0  0  0  0
 57 79  1  0  0  0  0
 58 60  1  0  0  0  0
 59 88  1  0  0  0  0
 60 61  1  0  0  0  0
 61 62  1  0  0  0  0
 62 63  1  0  0  0  0
 63 77  1  0  0  0  0
 64 67  1  0  0  0  0
 64 78  1  0  0  0  0
 65 79  1  0  0  0  0
 66 91  1  0  0  0  0
 66 92  1  0  0  0  0
 66 93  1  0  0  0  0
 68 69  1  0  0  0  0
M  CHG  1  79   1
M  ISO  4  40 100  59 101  75 100  88 101
M  END
> <Batch ID>
0006

> <Smiles>
CNC(C)C(=O)NC(C(=O)N1Cc2cc([101O:1][101CH2:1]C(=O)NCCCCCC(=O)Nc3ccc([100NH:0][100C:0](=O)N4CCCC(n5nc(-c6ccc(Oc7ccc(F)cc7F)cc6)c(C(N)=O)c5N)C4)c(C(F)(F)F)c3)ccc2CC1C(=O)NC1CCCc2ccccc21)C(C)(C)C

> <Shape>
0.208

> <Color>
0.052

> <Negative vol penalty>
0.000

$$$$

  -OEChem-04052315303D

 82 90  0     1  0  0  0  0  0999 V2000
  -18.6292  -31.7181   25.5724 C   0  0  0  0  0  0  0  0  0  0  0  0
  -18.3202  -30.5140   24.9477 C   0  0  0  0  0  0  0  0  0  0  0  0
  -22.7011  -15.9378   21.6678 C   0  0  0  0  0  0  0  0  0  0  0  0
  -22.0374  -15.0322   19.5286 C   0  0  0  0  0  0  0  0  0  0  0  0
  -19.6414  -32.5284   25.0598 C   0  0  0  0  0  0  0  0  0  0  0  0
  -19.0227  -30.1200   23.8094 C   0  0  0  0  0  0  0  0  0  0  0  0
  -22.6616  -23.9049   23.6634 C   0  0  0  0  0  0  0  0  0  0  0  0
  -29.4773  -18.4556   19.5144 C   0  0  0  0  0  0  0  0  0  0  0  0
  -21.5550  -16.7327   21.6869 C   0  0  0  0  0  0  0  0  0  0  0  0
  -20.8913  -15.8270   19.5476 C   0  0  0  0  0  0  0  0  0  0  0  0
  -23.2072  -22.6335   23.4844 C   0  0  0  0  0  0  0  0  0  0  0  0
  -20.5055  -19.6233   20.2844 C   0  0  0  0  0  0  0  0  0  0  0  0
  -28.7551  -19.6029   19.1864 C   0  0  0  0  0  0  0  0  0  0  0  0
  -20.6502  -20.9588   20.6600 C   0  0  0  0  0  0  0  0  0  0  0  0
  -23.9396  -23.2487   21.2634 C   0  0  0  0  0  0  0  0  0  0  0  0
  -28.5768  -18.5293   21.7551 C   0  0  0  0  0  0  0  0  0  0  0  0
  -19.1309  -20.6045   22.5048 C   0  0  0  0  0  0  0  0  0  0  0  0
  -22.9423  -15.0876   20.5886 C   0  0  0  0  0  0  0  0  0  0  0  0
  -24.2648  -12.9616   21.0774 C   0  0  0  0  0  0  0  0  0  0  0  0
  -20.3631  -32.1396   23.9203 C   0  0  0  0  0  0  0  0  0  0  0  0
  -22.7666  -24.8591   22.6477 C   0  0  0  0  0  0  0  0  0  0  0  0
  -20.0447  -30.9266   23.2803 C   0  0  0  0  0  0  0  0  0  0  0  0
  -23.4060  -24.5279   21.4417 C   0  0  0  0  0  0  0  0  0  0  0  0
  -29.3882  -17.9187   20.7988 C   0  0  0  0  0  0  0  0  0  0  0  0
  -20.6501  -16.6773   20.6268 C   0  0  0  0  0  0  0  0  0  0  0  0
  -23.8444  -22.3062   22.2873 C   0  0  0  0  0  0  0  0  0  0  0  0
  -19.6735  -18.7784   21.0189 C   0  0  0  0  0  0  0  0  0  0  0  0
  -27.8546  -19.6767   21.4271 C   0  0  0  0  0  0  0  0  0  0  0  0
  -19.9629  -21.4494   21.7702 C   0  0  0  0  0  0  0  0  0  0  0  0
  -27.9438  -20.2135   20.1428 C   0  0  0  0  0  0  0  0  0  0  0  0
  -18.9862  -19.2690   22.1292 C   0  0  0  0  0  0  0  0  0  0  0  0
  -24.1263  -14.2667   20.5681 C   0  0  0  0  0  0  0  0  0  0  0  0
  -25.5704  -12.6267   20.8132 C   0  0  0  0  0  0  0  0  0  0  0  0
  -23.2996  -12.1267   21.7308 C   0  0  0  0  0  0  0  0  0  0  0  0
  -22.0271  -28.3579   21.5127 C   0  0  0  0  0  0  0  0  0  0  0  0
  -24.8626  -27.6898   20.5514 C   0  0  0  0  0  0  0  0  0  0  0  0
  -28.0921  -26.7167   20.0409 C   0  0  0  0  0  0  0  0  0  0  0  0
  -30.4403  -15.7545   20.1660 C   0  0  0  0  0  0  0  0  0  0  0  0
  -21.4167  -33.0712   23.3755 C   0  0  0  0  0  0  0  0  0  0  0  0
  -22.1397  -26.2212   22.7731 C   0  0  0  0  0  0  0  0  0  0  0  0
  -23.4648  -25.5752   20.3635 C   0  0  0  0  0  0  0  0  0  0  0  0
  -22.3663  -32.4035   22.3841 C   0  0  0  0  0  0  0  0  0  0  0  0
  -29.1232  -13.5086   17.7444 C   0  0  0  0  0  0  0  0  0  0  0  0
  -21.5834  -31.5772   21.3687 C   0  0  0  0  0  0  0  0  0  0  0  0
  -27.6900  -13.3298   18.2441 C   0  0  0  0  0  0  0  0  0  0  0  0
  -29.6070  -14.9510   17.8974 C   0  0  0  0  0  0  0  0  0  0  0  0
  -28.0290  -15.3122   19.7692 C   0  0  0  0  0  0  0  0  0  0  0  0
  -20.8009  -30.4530   22.0580 C   0  0  1  0  0  0  0  0  0  0  0  0
  -22.9573  -27.3276   22.0828 C   0  0  1  0  0  0  0  0  0  0  0  0
  -27.5360  -13.8595   19.6807 C   0  0  1  0  0  0  0  0  0  0  0  0
  -30.2517  -27.5059   19.0356 C   0  0  0  0  0  0  0  0  0  0  0  0
  -23.7626  -27.1342   17.7612 C   0  0  0  0  0  0  0  0  0  0  0  0
  -26.1221  -27.0032   16.9343 C   0  0  0  0  0  0  0  0  0  0  0  0
  -25.2618  -29.1301   17.9136 C   0  0  0  0  0  0  0  0  0  0  0  0
  -30.7862  -16.6655   22.4520 C   0  0  0  0  0  0  0  0  0  0  0  0
  -29.4940  -26.5621   22.6427 C   0  0  0  0  0  0  0  0  0  0  0  0
  -24.8538  -20.4009   23.2914 C   0  0  0  0  0  0  0  0  0  1  0  0
  -26.0059  -19.4910   22.9116 C   0  0  0  0  0  0  0  0  0  0  0  0
  -25.7287  -27.1651   19.4343 C   0  0  1  0  0  0  0  0  0  0  0  0
  -29.4103  -27.4236   20.2998 C   0  0  2  0  0  0  0  0  0  0  0  0
  -25.2099  -27.5913   18.0320 C   0  0  0  0  0  0  0  0  0  0  0  0
  -25.2539  -14.7294   20.0218 N   0  0  0  0  0  0  0  0  0  0  0  0
  -26.1134  -13.7095   20.1864 N   0  0  0  0  0  0  0  0  0  0  0  0
  -23.7897  -26.8841   20.9517 N   0  0  0  0  0  0  0  0  0  0  0  0
  -29.4027  -15.4259   19.2732 N   0  0  0  0  0  0  0  0  0  0  0  0
  -26.2954  -11.5146   21.0582 N   0  0  0  0  0  0  0  0  0  0  0  0
  -22.0042  -12.6264   21.9219 N   0  0  0  0  0  0  0  0  0  0  0  0
  -21.6842  -29.3592   22.4011 N   0  0  0  0  0  0  0  0  0  0  0  0
  -27.0873  -27.6078   19.7288 N   0  0  0  0  0  0  0  0  0  0  0  0
  -30.1360  -16.7311   21.1386 N   0  0  0  0  0  0  0  0  0  0  0  0
  -30.1929  -26.6961   21.3387 N   0  3  0  0  0  0  0  0  0  0  0  0
  -23.5822  -10.9779   22.1479 O   0  0  0  0  0  0  0  0  0  0  0  0
  -21.6489  -28.2540   20.3518 O   0  0  0  0  0  0  0  0  0  0  0  0
  -25.1244  -28.7865   21.0534 O   0  0  0  0  0  0  0  0  0  0  0  0
  -27.9672  -25.4957   20.1052 O   0  0  0  0  0  0  0  0  0  0  0  0
  -31.5446  -15.1996   20.1151 O   0  0  0  0  0  0  0  0  0  0  0  0
  -19.5316  -17.4526   20.6452 O   0  0  0  0  0  0  0  0  0  0  0  0
  -24.3788  -21.0646   22.1209 O   0  0  0  0  0  0  0  0  0  1  0  0
  -27.0588  -20.2771   22.3669 O   0  0  0  0  0  0  0  0  0  0  0  0
  -20.1031  -22.7315   22.1317 F   0  0  0  0  0  0  0  0  0  0  0  0
  -27.2534  -21.3164   19.8217 F   0  0  0  0  0  0  0  0  0  0  0  0
  -18.1864  -18.4618   22.8395 F   0  0  0  0  0  0  0  0  0  0  0  0
  1  2  1  0  0  0  0
  1  5  2  0  0  0  0
  2  6  2  0  0  0  0
  3  9  2  0  0  0  0
  3 18  1  0  0  0  0
  4 10  1  0  0  0  0
  4 18  2  0  0  0  0
  5 20  1  0  0  0  0
  6 22  1  0  0  0  0
  7 11  2  0  0  0  0
  7 21  1  0  0  0  0
  8 13  2  0  0  0  0
  8 24  1  0  0  0  0
  9 25  1  0  0  0  0
 10 25  2  0  0  0  0
 11 26  1  0  0  0  0
 12 14  2  0  0  0  0
 12 27  1  0  0  0  0
 13 30  1  0  0  0  0
 14 29  1  0  0  0  0
 15 23  1  0  0  0  0
 15 26  2  0  0  0  0
 16 24  2  0  0  0  0
 16 28  1  0  0  0  0
 17 29  2  0  0  0  0
 17 31  1  0  0  0  0
 18 32  1  0  0  0  0
 19 32  1  0  0  0  0
 19 33  2  0  0  0  0
 19 34  1  0  0  0  0
 20 22  2  0  0  0  0
 20 39  1  0  0  0  0
 21 23  2  0  0  0  0
 21 40  1  0  0  0  0
 22 48  1  0  0  0  0
 23 41  1  0  0  0  0
 24 70  1  0  0  0  0
 25 77  1  0  0  0  0
 26 78  1  0  0  0  0
 27 31  2  0  0  0  0
 27 77  1  0  0  0  0
 28 30  2  0  0  0  0
 28 79  1  0  0  0  0
 29 80  1  0  0  0  0
 30 81  1  0  0  0  0
 31 82  1  0  0  0  0
 32 62  2  0  0  0  0
 33 63  1  0  0  0  0
 33 66  1  0  0  0  0
 34 67  1  0  0  0  0
 34 72  2  0  0  0  0
 35 49  1  0  0  0  0
 35 68  1  0  0  0  0
 35 73  2  0  0  0  0
 36 59  1  0  0  0  0
 36 64  1  0  0  0  0
 36 74  2  0  0  0  0
 37 60  1  0  0  0  0
 37 69  1  0  0  0  0
 37 75  2  0  0  0  0
 38 65  1  0  0  0  0
 38 70  1  0  0  0  0
 38 76  2  0  0  0  0
 39 42  1  0  0  0  0
 40 49  1  0  0  0  0
 41 64  1  0  0  0  0
 42 44  1  0  0  0  0
 43 45  1  0  0  0  0
 43 46  1  0  0  0  0
 44 48  1  0  0  0  0
 45 50  1  0  0  0  0
 46 65  1  0  0  0  0
 47 50  1  0  0  0  0
 47 65  1  0  0  0  0
 48 68  1  0  0  0  0
 49 64  1  0  0  0  0
 50 63  1  0  0  0  0
 51 60  1  0  0  0  0
 52 61  1  0  0  0  0
 53 61  1  0  0  0  0
 54 61  1  0  0  0  0
 55 70  1  0  0  0  0
 56 71  1  0  0  0  0
 57 58  1  0  0  0  0
 57 78  1  0  0  0  0
 58 79  1  0  0  0  0
 59 61  1  0  0  0  0
 59 69  1  0  0  0  0
 60 71  1  0  0  0  0
 62 63  1  0  0  0  0
M  CHG  1  71   1
M  ISO  4  38 100  57 101  70 100  78 101
M  END
> <Batch ID>
0006

> <Smiles>
CNC(C)C(=O)NC(C(=O)N1Cc2cc([101O:1][101CH2:1]COc3cc([100N:0](C)[100C:0](=O)N4CCCC(n5nc(-c6ccc(Oc7ccc(F)cc7F)cc6)c(C(N)=O)c5N)C4)ccc3F)ccc2CC1C(=O)NC1CCCc2ccccc21)C(C)(C)C

> <Shape>
0.228

> <Color>
0.091

> <Negative vol penalty>
0.000

$$$$

  -OEChem-04052315303D

102109  0     1  0  0  0  0  0999 V2000
  -23.3058  -30.8619   28.9860 C   0  0  0  0  0  0  0  0  0  0  0  0
  -24.2777  -31.8573   28.9734 C   0  0  0  0  0  0  0  0  0  0  0  0
  -25.5941  -10.3015   15.5499 C   0  0  0  0  0  0  0  0  0  0  0  0
  -26.5800   -8.9571   17.2985 C   0  0  0  0  0  0  0  0  0  0  0  0
  -23.2392  -29.9411   27.9411 C   0  0  0  0  0  0  0  0  0  0  0  0
  -25.1842  -31.9318   27.9165 C   0  0  0  0  0  0  0  0  0  0  0  0
  -24.4620  -32.1830   21.2216 C   0  0  0  0  0  0  0  0  0  0  0  0
  -26.5537  -11.2899   15.7687 C   0  0  0  0  0  0  0  0  0  0  0  0
  -27.5397   -9.9454   17.5173 C   0  0  0  0  0  0  0  0  0  0  0  0
  -23.3165  -31.3980   21.0972 C   0  0  0  0  0  0  0  0  0  0  0  0
  -27.7261  -12.9321   19.0908 C   0  0  0  0  0  0  0  0  0  0  0  0
  -28.0030  -13.2854   20.4114 C   0  0  0  0  0  0  0  0  0  0  0  0
  -22.4235  -32.3937   23.1048 C   0  0  0  0  0  0  0  0  0  0  0  0
  -30.3069  -12.6259   20.1048 C   0  0  0  0  0  0  0  0  0  0  0  0
  -25.6072   -9.1352   16.3148 C   0  0  0  0  0  0  0  0  0  0  0  0
  -24.3846   -7.4019   14.8975 C   0  0  0  0  0  0  0  0  0  0  0  0
  -24.1393  -30.0103   26.8661 C   0  0  0  0  0  0  0  0  0  0  0  0
  -24.6018  -33.0728   22.2964 C   0  0  0  0  0  0  0  0  0  0  0  0
  -25.1304  -31.0103   26.8570 C   0  0  0  0  0  0  0  0  0  0  0  0
  -23.5706  -33.1906   23.2392 C   0  0  0  0  0  0  0  0  0  0  0  0
  -27.5266  -11.1118   16.7524 C   0  0  0  0  0  0  0  0  0  0  0  0
  -22.2983  -31.5012   22.0404 C   0  0  0  0  0  0  0  0  0  0  0  0
  -28.7396  -12.4256   18.2771 C   0  0  0  0  0  0  0  0  0  0  0  0
  -29.2934  -13.1324   20.9184 C   0  0  0  0  0  0  0  0  0  0  0  0
  -30.0300  -12.2725   18.7841 C   0  0  0  0  0  0  0  0  0  0  0  0
  -24.6159   -8.1141   16.0896 C   0  0  0  0  0  0  0  0  0  0  0  0
  -23.3459   -6.5555   15.1992 C   0  0  0  0  0  0  0  0  0  0  0  0
  -25.0494   -7.4969   13.6307 C   0  0  0  0  0  0  0  0  0  0  0  0
  -26.6372  -33.3592   24.7211 C   0  0  0  0  0  0  0  0  0  0  0  0
  -24.9972  -36.1047   25.2643 C   0  0  0  0  0  0  0  0  0  0  0  0
  -26.4664  -14.8358   25.2412 C   0  0  0  0  0  0  0  0  0  0  0  0
  -25.2903  -10.1640   22.1350 C   0  0  0  0  0  0  0  0  0  0  0  0
  -20.9376  -28.4180   21.2827 C   0  0  0  0  0  0  0  0  0  0  0  0
  -26.4722  -38.6952   23.6027 C   0  0  0  0  0  0  0  0  0  0  0  0
  -22.7571   -7.6954   20.5568 C   0  0  0  0  0  0  0  0  0  0  0  0
  -24.0581  -28.9639   25.7829 C   0  0  0  0  0  0  0  0  0  0  0  0
  -25.8320  -33.9318   22.4016 C   0  0  0  0  0  0  0  0  0  0  0  0
  -23.6631  -34.1454   24.4003 C   0  0  0  0  0  0  0  0  0  0  0  0
  -24.8186  -29.3406   24.5140 C   0  0  0  0  0  0  0  0  0  0  0  0
  -19.7281   -6.7373   18.3927 C   0  0  0  0  0  0  0  0  0  0  0  0
  -26.2068  -29.8693   24.8607 C   0  0  0  0  0  0  0  0  0  0  0  0
  -20.5804   -6.8204   17.1325 C   0  0  0  0  0  0  0  0  0  0  0  0
  -20.4395   -7.4196   19.5577 C   0  0  0  0  0  0  0  0  0  0  0  0
  -22.3408   -5.9816   18.8127 C   0  0  0  0  0  0  0  0  0  0  0  0
  -26.1159  -31.1390   25.7158 C   0  0  1  0  0  0  0  0  0  0  0  0
  -26.0928  -34.4309   23.8195 C   0  0  1  0  0  0  0  0  0  0  0  0
  -21.9459   -6.1320   17.3290 C   0  0  2  0  0  0  0  0  0  0  0  0
  -25.5551  -38.2951   21.3013 C   0  0  0  0  0  0  0  0  0  0  0  0
  -28.2026  -36.4587   26.9582 C   0  0  0  0  0  0  0  0  0  0  0  0
  -28.5489  -35.8047   24.5665 C   0  0  0  0  0  0  0  0  0  0  0  0
  -26.9707  -34.5061   25.9968 C   0  0  0  0  0  0  0  0  0  0  0  0
  -28.8519  -39.5421   21.1053 C   0  0  0  0  0  0  0  0  0  0  0  0
  -27.7399  -14.3659   24.5664 C   0  0  0  0  0  0  0  0  0  0  0  0
  -24.5899   -8.8237   22.2934 C   0  0  0  0  0  0  0  0  0  0  0  0
  -21.1022  -29.8491   20.8174 C   0  0  0  0  0  0  0  0  0  1  0  0
  -27.5961  -12.9792   23.9418 C   0  0  0  0  0  0  0  0  0  0  0  0
  -27.9059  -12.9773   22.4421 C   0  0  0  0  0  0  0  0  0  0  0  0
  -20.2628  -19.9139   25.4352 C   0  0  0  0  0  0  0  0  0  0  0  0
  -19.6399  -21.2452   25.8596 C   0  0  0  0  0  0  0  0  0  0  0  0
  -20.3399  -18.8867   26.5690 C   0  0  0  0  0  0  0  0  0  0  0  0
  -20.6080  -22.4081   25.6303 C   0  0  0  0  0  0  0  0  0  0  0  0
  -21.7367  -18.3444   26.8917 C   0  0  0  0  0  0  0  0  0  0  0  0
  -20.0081  -23.4533   24.6884 C   0  0  0  0  0  0  0  0  0  0  0  0
  -21.8470  -16.8244   26.7497 C   0  0  0  0  0  0  0  0  0  0  0  0
  -20.8839  -23.6553   23.4507 C   0  0  0  0  0  0  0  0  0  0  0  0
  -22.9391  -16.3838   25.7686 C   0  0  0  0  0  0  0  0  0  0  0  0
  -21.3403  -25.1101   23.3237 C   0  0  0  0  0  0  0  0  0  0  0  0
  -26.7084  -12.4826   21.6298 C   0  0  0  0  0  0  0  0  0  0  0  0
  -24.0091  -15.4923   26.4073 C   0  0  0  0  0  0  0  0  0  0  0  0
  -20.8891  -25.7195   21.9930 C   0  0  0  0  0  0  0  0  0  0  0  0
  -25.1108   -7.7516   21.3466 C   0  0  0  0  0  0  0  0  0  0  0  0
  -27.0711  -11.2612   20.7935 C   0  0  0  0  0  0  0  0  0  0  0  0
  -24.1258  -14.1373   25.7141 C   0  0  0  0  0  0  0  0  0  0  0  0
  -22.0597  -26.2028   21.1432 C   0  0  0  0  0  0  0  0  0  0  0  0
  -26.3232  -36.8254   25.2263 C   0  0  1  0  0  0  0  0  0  0  0  0
  -26.6413  -38.9750   22.1203 C   0  0  2  0  0  0  0  0  0  0  0  0
  -27.5010  -35.9244   25.6936 C   0  0  0  0  0  0  0  0  0  0  0  0
  -23.7903   -7.7518   17.0751 N   0  0  0  0  0  0  0  0  0  0  0  0
  -23.0301   -6.8027   16.5028 N   0  0  0  0  0  0  0  0  0  0  0  0
  -24.8883  -34.9592   24.4632 N   0  0  0  0  0  0  0  0  0  0  0  0
  -21.8670   -7.0845   19.6514 N   0  0  0  0  0  0  0  0  0  0  0  0
  -22.6808   -5.6313   14.4739 N   0  0  0  0  0  0  0  0  0  0  0  0
  -26.1645   -6.6803   13.3985 N   0  0  0  0  0  0  0  0  0  0  0  0
  -25.7887  -32.2818   24.8904 N   0  0  0  0  0  0  0  0  0  0  0  0
  -25.4310  -13.9143   25.1553 N   0  0  0  0  0  0  0  0  0  0  0  0
  -26.2687  -10.1222   21.1467 N   0  0  0  0  0  0  0  0  0  0  0  0
  -21.9759  -27.6051   20.8418 N   0  0  0  0  0  0  0  0  0  0  0  0
  -26.4681  -37.3425   23.8698 N   0  0  0  0  0  0  0  0  0  0  0  0
  -24.0694   -7.2348   20.4884 N   0  0  0  0  0  0  0  0  0  0  0  0
  -27.9653  -38.4806   21.6475 N   0  3  0  0  0  0  0  0  0  0  0  0
  -24.6758   -8.2945   12.7375 O   0  0  0  0  0  0  0  0  0  0  0  0
  -27.7456  -33.4988   25.2246 O   0  0  0  0  0  0  0  0  0  0  0  0
  -24.0939  -36.5380   25.9839 O   0  0  0  0  0  0  0  0  0  0  0  0
  -26.3979  -15.9320   25.7930 O   0  0  0  0  0  0  0  0  0  0  0  0
  -25.0084  -11.1560   22.8016 O   0  0  0  0  0  0  0  0  0  0  0  0
  -19.9878  -28.0470   21.9670 O   0  0  0  0  0  0  0  0  0  0  0  0
  -26.3590  -39.5874   24.4403 O   0  0  0  0  0  0  0  0  0  0  0  0
  -22.4117   -8.5714   21.3554 O   0  0  0  0  0  0  0  0  0  0  0  0
  -28.4633  -12.0759   16.9660 O   0  0  0  0  0  0  0  0  0  0  0  0
  -21.1678  -30.7278   21.9205 O   0  0  0  0  0  0  0  0  0  1  0  0
  -29.5595  -13.4732   22.1862 F   0  0  0  0  0  0  0  0  0  0  0  0
  -31.0081  -11.7875   18.0069 F   0  0  0  0  0  0  0  0  0  0  0  0
  1  2  1  0  0  0  0
  1  5  2  0  0  0  0
  2  6  2  0  0  0  0
  3  8  2  0  0  0  0
  3 15  1  0  0  0  0
  4  9  1  0  0  0  0
  4 15  2  0  0  0  0
  5 17  1  0  0  0  0
  6 19  1  0  0  0  0
  7 10  2  0  0  0  0
  7 18  1  0  0  0  0
  8 21  1  0  0  0  0
  9 21  2  0  0  0  0
 10 22  1  0  0  0  0
 11 12  2  0  0  0  0
 11 23  1  0  0  0  0
 12 24  1  0  0  0  0
 13 20  1  0  0  0  0
 13 22  2  0  0  0  0
 14 24  2  0  0  0  0
 14 25  1  0  0  0  0
 15 26  1  0  0  0  0
 16 26  1  0  0  0  0
 16 27  2  0  0  0  0
 16 28  1  0  0  0  0
 17 19  2  0  0  0  0
 17 36  1  0  0  0  0
 18 20  2  0  0  0  0
 18 37  1  0  0  0  0
 19 45  1  0  0  0  0
 20 38  1  0  0  0  0
 21 99  1  0  0  0  0
 22100  1  0  0  0  0
 23 25  2  0  0  0  0
 23 99  1  0  0  0  0
 24101  1  0  0  0  0
 25102  1  0  0  0  0
 26 78  2  0  0  0  0
 27 79  1  0  0  0  0
 27 82  1  0  0  0  0
 28 83  1  0  0  0  0
 28 91  2  0  0  0  0
 29 46  1  0  0  0  0
 29 84  1  0  0  0  0
 29 92  2  0  0  0  0
 30 75  1  0  0  0  0
 30 80  1  0  0  0  0
 30 93  2  0  0  0  0
 31 53  1  0  0  0  0
 31 85  1  0  0  0  0
 31 94  2  0  0  0  0
 32 54  1  0  0  0  0
 32 86  1  0  0  0  0
 32 95  2  0  0  0  0
 33 55  1  0  0  0  0
 33 87  1  0  0  0  0
 33 96  2  0  0  0  0
 34 76  1  0  0  0  0
 34 88  1  0  0  0  0
 34 97  2  0  0  0  0
 35 81  1  0  0  0  0
 35 89  1  0  0  0  0
 35 98  2  0  0  0  0
 36 39  1  0  0  0  0
 37 46  1  0  0  0  0
 38 80  1  0  0  0  0
 39 41  1  0  0  0  0
 40 42  1  0  0  0  0
 40 43  1  0  0  0  0
 41 45  1  0  0  0  0
 42 47  1  0  0  0  0
 43 81  1  0  0  0  0
 44 47  1  0  0  0  0
 44 81  1  0  0  0  0
 45 84  1  0  0  0  0
 46 80  1  0  0  0  0
 47 79  1  0  0  0  0
 48 76  1  0  0  0  0
 49 77  1  0  0  0  0
 50 77  1  0  0  0  0
 51 77  1  0  0  0  0
 52 90  1  0  0  0  0
 53 56  1  0  0  0  0
 54 71  1  0  0  0  0
 55100  1  0  0  0  0
 56 57  1  0  0  0  0
 57 68  1  0  0  0  0
 58 59  1  0  0  0  0
 58 60  1  0  0  0  0
 59 61  1  0  0  0  0
 60 62  1  0  0  0  0
 61 63  1  0  0  0  0
 62 64  1  0  0  0  0
 63 65  1  0  0  0  0
 64 66  1  0  0  0  0
 65 67  1  0  0  0  0
 66 69  1  0  0  0  0
 67 70  1  0  0  0  0
 68 72  1  0  0  0  0
 69 73  1  0  0  0  0
 70 74  1  0  0  0  0
 71 89  1  0  0  0  0
 72 86  1  0  0  0  0
 73 85  1  0  0  0  0
 74 87  1  0  0  0  0
 75 77  1  0  0  0  0
 75 88  1  0  0  0  0
 76 90  1  0  0  0  0
 78 79  1  0  0  0  0
M  CHG  1  90   1
M  ISO  4  35 100  55 101  89 100 100 101
M  END
> <Batch ID>
0006

> <Smiles>
CNC(C)C(=O)NC(C(=O)N1Cc2cc([101O:1][101CH2:1]C(=O)NCCCCCCCCCCCCCCNC(=O)CCCCCNC(=O)CC[100NH:0][100C:0](=O)N3CCCC(n4nc(-c5ccc(Oc6ccc(F)cc6F)cc5)c(C(N)=O)c4N)C3)ccc2CC1C(=O)NC1CCCc2ccccc21)C(C)(C)C

> <Shape>
0.220

> <Color>
0.036

> <Negative vol penalty>
0.000

$$$$

  -OEChem-04052315303D

 81 89  0     1  0  0  0  0  0999 V2000
  -20.2839  -34.7522   21.8265 C   0  0  0  0  0  0  0  0  0  0  0  0
  -21.5197  -34.2352   21.4512 C   0  0  0  0  0  0  0  0  0  0  0  0
  -26.0219  -22.7170   17.5877 C   0  0  0  0  0  0  0  0  0  0  0  0
  -26.4309  -12.2361   20.7809 C   0  0  0  0  0  0  0  0  0  0  0  0
  -24.7691  -13.6634   19.7618 C   0  0  0  0  0  0  0  0  0  0  0  0
  -19.4932  -34.0662   22.7474 C   0  0  0  0  0  0  0  0  0  0  0  0
  -21.9660  -33.0322   21.9973 C   0  0  0  0  0  0  0  0  0  0  0  0
  -25.3247  -28.7415   19.2020 C   0  0  0  0  0  0  0  0  0  0  0  0
  -26.2981  -21.6776   18.4758 C   0  0  0  0  0  0  0  0  0  0  0  0
  -26.9659  -23.7216   17.3744 C   0  0  0  0  0  0  0  0  0  0  0  0
  -25.4186  -11.4380   21.3138 C   0  0  0  0  0  0  0  0  0  0  0  0
  -23.7569  -12.8653   20.2947 C   0  0  0  0  0  0  0  0  0  0  0  0
  -26.6900  -28.4597   19.2199 C   0  0  0  0  0  0  0  0  0  0  0  0
  -23.2780   -8.8176   22.6428 C   0  0  0  0  0  0  0  0  0  0  0  0
  -23.4223   -7.4339   22.5422 C   0  0  0  0  0  0  0  0  0  0  0  0
  -26.3184  -26.7974   20.9281 C   0  0  0  0  0  0  0  0  0  0  0  0
  -28.4623  -22.6471   18.9375 C   0  0  0  0  0  0  0  0  0  0  0  0
  -23.4834   -7.6153   20.1338 C   0  0  0  0  0  0  0  0  0  0  0  0
  -26.1061  -13.3488   20.0049 C   0  0  0  0  0  0  0  0  0  0  0  0
  -27.7860  -14.0226   18.2072 C   0  0  0  0  0  0  0  0  0  0  0  0
  -19.9257  -32.8494   23.2978 C   0  0  0  0  0  0  0  0  0  0  0  0
  -24.4460  -28.0598   20.0562 C   0  0  0  0  0  0  0  0  0  0  0  0
  -21.1808  -32.3300   22.9274 C   0  0  0  0  0  0  0  0  0  0  0  0
  -24.9420  -27.0706   20.9172 C   0  0  0  0  0  0  0  0  0  0  0  0
  -27.5183  -21.6426   19.1507 C   0  0  0  0  0  0  0  0  0  0  0  0
  -24.0816  -11.7526   21.0707 C   0  0  0  0  0  0  0  0  0  0  0  0
  -27.1874  -27.4896   20.0851 C   0  0  0  0  0  0  0  0  0  0  0  0
  -28.1861  -23.6866   18.0493 C   0  0  0  0  0  0  0  0  0  0  0  0
  -23.2362   -9.6002   21.4888 C   0  0  0  0  0  0  0  0  0  0  0  0
  -23.5251   -6.8328   21.2877 C   0  0  0  0  0  0  0  0  0  0  0  0
  -23.3389   -8.9990   20.2344 C   0  0  0  0  0  0  0  0  0  0  0  0
  -27.1513  -14.1740   19.4546 C   0  0  0  0  0  0  0  0  0  0  0  0
  -28.6968  -15.0495   18.1585 C   0  0  0  0  0  0  0  0  0  0  0  0
  -27.5714  -13.0414   17.1840 C   0  0  0  0  0  0  0  0  0  0  0  0
  -22.4982  -28.9156   22.4178 C   0  0  0  0  0  0  0  0  0  0  0  0
  -21.6049  -25.7999   22.2876 C   0  0  0  0  0  0  0  0  0  0  0  0
  -22.3957  -22.5927   21.4301 C   0  0  0  0  0  0  0  0  0  0  0  0
  -28.9596  -20.4016   20.8026 C   0  0  0  0  0  0  0  0  0  0  0  0
  -19.0570  -32.1679   24.3253 C   0  0  0  0  0  0  0  0  0  0  0  0
  -22.9723  -28.3566   20.0056 C   0  0  0  0  0  0  0  0  0  0  0  0
  -24.0377  -26.2961   21.8397 C   0  0  0  0  0  0  0  0  0  0  0  0
  -19.4370  -30.7106   24.5741 C   0  0  0  0  0  0  0  0  0  0  0  0
  -31.3884  -17.8059   21.0031 C   0  0  0  0  0  0  0  0  0  0  0  0
  -20.9465  -30.5745   24.7465 C   0  0  0  0  0  0  0  0  0  0  0  0
  -30.6370  -16.5674   20.5095 C   0  0  0  0  0  0  0  0  0  0  0  0
  -30.4866  -18.7272   21.8225 C   0  0  0  0  0  0  0  0  0  0  0  0
  -28.4820  -17.8777   20.6696 C   0  0  0  0  0  0  0  0  0  0  0  0
  -21.6886  -31.0154   23.4790 C   0  0  1  0  0  0  0  0  0  0  0  0
  -22.2394  -27.9635   21.2846 C   0  0  1  0  0  0  0  0  0  0  0  0
  -29.3322  -16.9515   19.7847 C   0  0  2  0  0  0  0  0  0  0  0  0
  -21.4790  -20.2572   21.4801 C   0  0  0  0  0  0  0  0  0  0  0  0
  -22.1896  -25.6371   25.2778 C   0  0  0  0  0  0  0  0  0  0  0  0
  -22.1828  -23.1419   25.0724 C   0  0  0  0  0  0  0  0  0  0  0  0
  -20.1168  -24.4399   24.5534 C   0  0  0  0  0  0  0  0  0  0  0  0
  -22.5022  -22.3636   18.4813 C   0  0  0  0  0  0  0  0  0  0  0  0
  -30.4184  -26.4363   18.8350 C   0  0  0  0  0  0  0  0  0  0  0  0
  -29.2392  -27.3951   18.8863 C   0  0  0  0  0  0  0  0  0  1  0  0
  -29.9755  -24.9845   18.9264 C   0  0  0  0  0  0  0  0  0  0  0  0
  -22.0700  -24.5258   22.9504 C   0  0  1  0  0  0  0  0  0  0  0  0
  -21.6209  -21.5341   20.6663 C   0  0  2  0  0  0  0  0  0  0  0  0
  -21.6573  -24.4520   24.4476 C   0  0  0  0  0  0  0  0  0  0  0  0
  -27.6194  -15.2150   20.1483 N   0  0  0  0  0  0  0  0  0  0  0  0
  -28.5579  -15.7270   19.3340 N   0  0  0  0  0  0  0  0  0  0  0  0
  -22.6055  -26.6270   21.7578 N   0  0  0  0  0  0  0  0  0  0  0  0
  -29.2723  -19.0521   21.0709 N   0  0  0  0  0  0  0  0  0  0  0  0
  -29.5949  -15.4300   17.2252 N   0  0  0  0  0  0  0  0  0  0  0  0
  -26.5968  -12.0569   17.3962 N   0  0  0  0  0  0  0  0  0  0  0  0
  -27.7986  -20.5863   20.0526 N   0  0  0  0  0  0  0  0  0  0  0  0
  -21.6207  -29.9819   22.4683 N   0  0  0  0  0  0  0  0  0  0  0  0
  -21.5571  -23.4305   22.1345 N   0  0  0  0  0  0  0  0  0  0  0  0
  -22.3159  -21.2033   19.3902 N   0  3  0  0  0  0  0  0  0  0  0  0
  -28.2361  -13.0281   16.1202 O   0  0  0  0  0  0  0  0  0  0  0  0
  -23.4244  -28.6981   23.1901 O   0  0  0  0  0  0  0  0  0  0  0  0
  -20.3978  -26.0486   22.2352 O   0  0  0  0  0  0  0  0  0  0  0  0
  -23.6223  -22.6666   21.4073 O   0  0  0  0  0  0  0  0  0  0  0  0
  -29.6841  -21.3240   21.1851 O   0  0  0  0  0  0  0  0  0  0  0  0
  -23.0936  -10.9739   21.5903 O   0  0  0  0  0  0  0  0  0  0  0  0
  -28.5197  -27.2131   20.1052 O   0  0  0  0  0  0  0  0  0  1  0  0
  -29.1137  -24.6737   17.8399 O   0  0  0  0  0  0  0  0  0  0  0  0
  -23.6653   -5.5042   21.1914 F   0  0  0  0  0  0  0  0  0  0  0  0
  -23.3007   -9.7458   19.1223 F   0  0  0  0  0  0  0  0  0  0  0  0
  1  2  1  0  0  0  0
  1  6  2  0  0  0  0
  2  7  2  0  0  0  0
  3  9  1  0  0  0  0
  3 10  2  0  0  0  0
  4 11  2  0  0  0  0
  4 19  1  0  0  0  0
  5 12  1  0  0  0  0
  5 19  2  0  0  0  0
  6 21  1  0  0  0  0
  7 23  1  0  0  0  0
  8 13  2  0  0  0  0
  8 22  1  0  0  0  0
  9 25  2  0  0  0  0
 10 28  1  0  0  0  0
 11 26  1  0  0  0  0
 12 26  2  0  0  0  0
 13 27  1  0  0  0  0
 14 15  2  0  0  0  0
 14 29  1  0  0  0  0
 15 30  1  0  0  0  0
 16 24  1  0  0  0  0
 16 27  2  0  0  0  0
 17 25  1  0  0  0  0
 17 28  2  0  0  0  0
 18 30  2  0  0  0  0
 18 31  1  0  0  0  0
 19 32  1  0  0  0  0
 20 32  1  0  0  0  0
 20 33  2  0  0  0  0
 20 34  1  0  0  0  0
 21 23  2  0  0  0  0
 21 39  1  0  0  0  0
 22 24  2  0  0  0  0
 22 40  1  0  0  0  0
 23 48  1  0  0  0  0
 24 41  1  0  0  0  0
 25 68  1  0  0  0  0
 26 77  1  0  0  0  0
 27 78  1  0  0  0  0
 28 79  1  0  0  0  0
 29 31  2  0  0  0  0
 29 77  1  0  0  0  0
 30 80  1  0  0  0  0
 31 81  1  0  0  0  0
 32 62  2  0  0  0  0
 33 63  1  0  0  0  0
 33 66  1  0  0  0  0
 34 67  1  0  0  0  0
 34 72  2  0  0  0  0
 35 49  1  0  0  0  0
 35 69  1  0  0  0  0
 35 73  2  0  0  0  0
 36 59  1  0  0  0  0
 36 64  1  0  0  0  0
 36 74  2  0  0  0  0
 37 60  1  0  0  0  0
 37 70  1  0  0  0  0
 37 75  2  0  0  0  0
 38 65  1  0  0  0  0
 38 68  1  0  0  0  0
 38 76  2  0  0  0  0
 39 42  1  0  0  0  0
 40 49  1  0  0  0  0
 41 64  1  0  0  0  0
 42 44  1  0  0  0  0
 43 45  1  0  0  0  0
 43 46  1  0  0  0  0
 44 48  1  0  0  0  0
 45 50  1  0  0  0  0
 46 65  1  0  0  0  0
 47 50  1  0  0  0  0
 47 65  1  0  0  0  0
 48 69  1  0  0  0  0
 49 64  1  0  0  0  0
 50 63  1  0  0  0  0
 51 60  1  0  0  0  0
 52 61  1  0  0  0  0
 53 61  1  0  0  0  0
 54 61  1  0  0  0  0
 55 71  1  0  0  0  0
 56 57  1  0  0  0  0
 56 58  1  0  0  0  0
 57 78  1  0  0  0  0
 58 79  1  0  0  0  0
 59 61  1  0  0  0  0
 59 70  1  0  0  0  0
 60 71  1  0  0  0  0
 62 63  1  0  0  0  0
M  CHG  1  71   1
M  ISO  4  38 100  57 101  68 100  78 101
M  END
> <Batch ID>
0006

> <Smiles>
CNC(C)C(=O)NC(C(=O)N1Cc2cc([101O:1][101CH2:1]CCOc3cccc([100NH:0][100C:0](=O)N4CCCC(n5nc(-c6ccc(Oc7ccc(F)cc7F)cc6)c(C(N)=O)c5N)C4)c3)ccc2CC1C(=O)NC1CCCc2ccccc21)C(C)(C)C

> <Shape>
0.241

> <Color>
0.090

> <Negative vol penalty>
0.000

$$$$

  -OEChem-04052315303D

 91 99  0     1  0  0  0  0  0999 V2000
  -23.2929  -30.0482   17.7828 C   0  0  0  0  0  0  0  0  0  0  0  0
  -23.7299  -29.0649   18.6646 C   0  0  0  0  0  0  0  0  0  0  0  0
  -23.0806   -9.8687   19.9317 C   0  0  0  0  0  0  0  0  0  0  0  0
  -23.8429   -9.8652   22.2243 C   0  0  0  0  0  0  0  0  0  0  0  0
  -24.1052  -31.1475   17.5081 C   0  0  0  0  0  0  0  0  0  0  0  0
  -24.9801  -29.1798   19.2713 C   0  0  0  0  0  0  0  0  0  0  0  0
  -26.5087  -27.3825   24.9228 C   0  0  0  0  0  0  0  0  0  0  0  0
  -22.3389   -8.7130   20.1765 C   0  0  0  0  0  0  0  0  0  0  0  0
  -23.1012   -8.7095   22.4691 C   0  0  0  0  0  0  0  0  0  0  0  0
  -27.1468  -26.2398   25.4032 C   0  0  0  0  0  0  0  0  0  0  0  0
  -19.8750   -7.9033   23.0709 C   0  0  0  0  0  0  0  0  0  0  0  0
  -19.1194   -7.8561   24.2424 C   0  0  0  0  0  0  0  0  0  0  0  0
  -29.2491  -27.4227   25.4071 C   0  0  0  0  0  0  0  0  0  0  0  0
  -29.8739  -17.4533   23.1607 C   0  0  0  0  0  0  0  0  0  0  0  0
  -32.0592  -16.6126   22.5653 C   0  0  0  0  0  0  0  0  0  0  0  0
  -31.8463  -18.3547   24.2257 C   0  0  0  0  0  0  0  0  0  0  0  0
  -20.3648   -5.9170   24.9676 C   0  0  0  0  0  0  0  0  0  0  0  0
  -23.8327  -10.4448   20.9555 C   0  0  0  0  0  0  0  0  0  0  0  0
  -24.1702  -12.9711   20.8481 C   0  0  0  0  0  0  0  0  0  0  0  0
  -25.3620  -31.2809   18.1192 C   0  0  0  0  0  0  0  0  0  0  0  0
  -27.2391  -28.5525   24.6701 C   0  0  0  0  0  0  0  0  0  0  0  0
  -25.8106  -30.2813   19.0035 C   0  0  0  0  0  0  0  0  0  0  0  0
  -28.6175  -28.5797   24.9259 C   0  0  0  0  0  0  0  0  0  0  0  0
  -30.6733  -16.5924   22.4088 C   0  0  0  0  0  0  0  0  0  0  0  0
  -22.3492   -8.1335   21.4452 C   0  0  0  0  0  0  0  0  0  0  0  0
  -28.5177  -26.2588   25.6427 C   0  0  0  0  0  0  0  0  0  0  0  0
  -20.8755   -6.9573   22.8477 C   0  0  0  0  0  0  0  0  0  0  0  0
  -30.4604  -18.3345   24.0691 C   0  0  0  0  0  0  0  0  0  0  0  0
  -19.3643   -6.8629   25.1908 C   0  0  0  0  0  0  0  0  0  0  0  0
  -21.1204   -5.9641   23.7961 C   0  0  0  0  0  0  0  0  0  0  0  0
  -32.6457  -17.4938   23.4738 C   0  0  0  0  0  0  0  0  0  0  0  0
  -24.5995  -11.6382   20.7031 C   0  0  0  0  0  0  0  0  0  0  0  0
  -25.2607  -13.7242   20.4875 C   0  0  0  0  0  0  0  0  0  0  0  0
  -22.8993  -13.4826   21.2710 C   0  0  0  0  0  0  0  0  0  0  0  0
  -27.8438  -30.3060   22.0887 C   0  0  0  0  0  0  0  0  0  0  0  0
  -29.2384  -32.2911   24.2420 C   0  0  0  0  0  0  0  0  0  0  0  0
  -30.7151  -32.6770   27.2944 C   0  0  0  0  0  0  0  0  0  0  0  0
  -30.7253  -14.7781   20.6618 C   0  0  0  0  0  0  0  0  0  0  0  0
  -26.2247  -32.4631   17.7548 C   0  0  0  0  0  0  0  0  0  0  0  0
  -26.5314  -29.7849   24.1773 C   0  0  0  0  0  0  0  0  0  0  0  0
  -29.4436  -29.8168   24.6902 C   0  0  0  0  0  0  0  0  0  0  0  0
  -27.3777  -32.6984   18.7271 C   0  0  0  0  0  0  0  0  0  0  0  0
  -29.6124  -12.3745   18.2824 C   0  0  0  0  0  0  0  0  0  0  0  0
  -28.0957  -31.3874   19.0311 C   0  0  0  0  0  0  0  0  0  0  0  0
  -28.1737  -12.0784   18.7120 C   0  0  0  0  0  0  0  0  0  0  0  0
  -30.5284  -12.5987   19.4842 C   0  0  0  0  0  0  0  0  0  0  0  0
  -28.6217  -13.3129   20.8712 C   0  0  0  0  0  0  0  0  0  0  0  0
  -27.1501  -30.3828   19.7005 C   0  0  1  0  0  0  0  0  0  0  0  0
  -27.4612  -30.7643   23.4676 C   0  0  1  0  0  0  0  0  0  0  0  0
  -27.6479  -13.1441   19.6935 C   0  0  2  0  0  0  0  0  0  0  0  0
  -38.7880  -17.8039   20.5489 C   0  0  0  0  0  0  0  0  0  0  0  0
  -31.7866  -34.4099   28.7594 C   0  0  0  0  0  0  0  0  0  0  0  0
  -31.7552  -32.1869   22.5201 C   0  0  0  0  0  0  0  0  0  0  0  0
  -33.0369  -33.1146   24.4605 C   0  0  0  0  0  0  0  0  0  0  0  0
  -31.2034  -34.4521   23.4251 C   0  0  0  0  0  0  0  0  0  0  0  0
  -34.3791  -20.0741   22.6472 C   0  0  0  0  0  0  0  0  0  0  0  0
  -28.6890  -32.3014   29.4188 C   0  0  0  0  0  0  0  0  0  0  0  0
  -37.4268  -17.6378   21.2064 C   0  0  0  0  0  0  0  0  0  0  0  0
  -36.3542  -18.4571   20.4850 C   0  0  0  0  0  0  0  0  0  0  0  0
  -29.6878  -22.8304   25.6891 C   0  0  0  0  0  0  0  0  0  0  0  0
  -29.1430  -21.4682   25.2742 C   0  0  0  0  0  0  0  0  0  0  0  0
  -34.9660  -18.2633   21.0860 C   0  0  0  0  0  0  0  0  0  0  0  0
  -28.5889  -23.8836   25.7383 C   0  0  0  0  0  0  0  0  0  1  0  0
  -30.2476  -20.4249   25.1830 C   0  0  0  0  0  0  0  0  0  0  0  0
  -30.6228  -32.4302   24.8276 C   0  0  1  0  0  0  0  0  0  0  0  0
  -30.4939  -33.6946   28.3990 C   0  0  2  0  0  0  0  0  0  0  0  0
  -31.6397  -33.0219   23.8111 C   0  0  0  0  0  0  0  0  0  0  0  0
  -25.8641  -11.5467   20.2830 N   0  0  0  0  0  0  0  0  0  0  0  0
  -26.2387  -12.8315   20.1609 N   0  0  0  0  0  0  0  0  0  0  0  0
  -28.7069  -30.9943   24.2021 N   0  0  0  0  0  0  0  0  0  0  0  0
  -29.9686  -13.6241   20.3675 N   0  0  0  0  0  0  0  0  0  0  0  0
  -25.4688  -15.0564   20.4211 N   0  0  0  0  0  0  0  0  0  0  0  0
  -21.8892  -12.5700   21.6047 N   0  0  0  0  0  0  0  0  0  0  0  0
  -30.0772  -15.6978   21.4857 N   0  0  0  0  0  0  0  0  0  0  0  0
  -26.9701  -30.7121   21.0982 N   0  0  0  0  0  0  0  0  0  0  0  0
  -30.4727  -33.2151   26.0482 N   0  0  0  0  0  0  0  0  0  0  0  0
  -34.8991  -18.6902   22.5069 N   0  0  2  0  0  0  0  0  0  0  0  0
  -29.9703  -33.0249   29.6230 N   0  3  0  0  0  0  0  0  0  0  0  0
  -22.6610  -14.7125   21.3349 O   0  0  0  0  0  0  0  0  0  0  0  0
  -28.8575  -29.6348   21.9347 O   0  0  0  0  0  0  0  0  0  0  0  0
  -28.6474  -33.2971   23.8414 O   0  0  0  0  0  0  0  0  0  0  0  0
  -31.0711  -31.5215   27.5148 O   0  0  0  0  0  0  0  0  0  0  0  0
  -31.8536  -14.9511   20.1939 O   0  0  0  0  0  0  0  0  0  0  0  0
  -34.6810  -18.0197   25.0067 O   0  0  0  0  0  0  0  0  0  0  0  0
  -34.9013  -16.2116   23.2844 O   0  0  0  0  0  0  0  0  0  0  0  0
  -21.6254   -7.0059   21.6845 O   0  0  0  0  0  0  0  0  0  0  0  0
  -29.1431  -25.1447   26.1110 O   0  0  0  0  0  0  0  0  0  1  0  0
  -29.6743  -19.1799   24.8082 O   0  0  0  0  0  0  0  0  0  0  0  0
  -18.6396   -6.8187   26.3164 F   0  0  0  0  0  0  0  0  0  0  0  0
  -22.0811   -5.0533   23.5878 F   0  0  0  0  0  0  0  0  0  0  0  0
  -34.3807  -17.5188   23.6698 S   0  0  0  0  0  0  0  0  0  0  0  0
  1  2  1  0  0  0  0
  1  5  2  0  0  0  0
  2  6  2  0  0  0  0
  3  8  2  0  0  0  0
  3 18  1  0  0  0  0
  4  9  1  0  0  0  0
  4 18  2  0  0  0  0
  5 20  1  0  0  0  0
  6 22  1  0  0  0  0
  7 10  2  0  0  0  0
  7 21  1  0  0  0  0
  8 25  1  0  0  0  0
  9 25  2  0  0  0  0
 10 26  1  0  0  0  0
 11 12  2  0  0  0  0
 11 27  1  0  0  0  0
 12 29  1  0  0  0  0
 13 23  1  0  0  0  0
 13 26  2  0  0  0  0
 14 24  1  0  0  0  0
 14 28  2  0  0  0  0
 15 24  2  0  0  0  0
 15 31  1  0  0  0  0
 16 28  1  0  0  0  0
 16 31  2  0  0  0  0
 17 29  2  0  0  0  0
 17 30  1  0  0  0  0
 18 32  1  0  0  0  0
 19 32  1  0  0  0  0
 19 33  2  0  0  0  0
 19 34  1  0  0  0  0
 20 22  2  0  0  0  0
 20 39  1  0  0  0  0
 21 23  2  0  0  0  0
 21 40  1  0  0  0  0
 22 48  1  0  0  0  0
 23 41  1  0  0  0  0
 24 74  1  0  0  0  0
 25 86  1  0  0  0  0
 26 87  1  0  0  0  0
 27 30  2  0  0  0  0
 27 86  1  0  0  0  0
 28 88  1  0  0  0  0
 29 89  1  0  0  0  0
 30 90  1  0  0  0  0
 31 91  1  0  0  0  0
 32 68  2  0  0  0  0
 33 69  1  0  0  0  0
 33 72  1  0  0  0  0
 34 73  1  0  0  0  0
 34 79  2  0  0  0  0
 35 49  1  0  0  0  0
 35 75  1  0  0  0  0
 35 80  2  0  0  0  0
 36 65  1  0  0  0  0
 36 70  1  0  0  0  0
 36 81  2  0  0  0  0
 37 66  1  0  0  0  0
 37 76  1  0  0  0  0
 37 82  2  0  0  0  0
 38 71  1  0  0  0  0
 38 74  1  0  0  0  0
 38 83  2  0  0  0  0
 39 42  1  0  0  0  0
 40 49  1  0  0  0  0
 41 70  1  0  0  0  0
 42 44  1  0  0  0  0
 43 45  1  0  0  0  0
 43 46  1  0  0  0  0
 44 48  1  0  0  0  0
 45 50  1  0  0  0  0
 46 71  1  0  0  0  0
 47 50  1  0  0  0  0
 47 71  1  0  0  0  0
 48 75  1  0  0  0  0
 49 70  1  0  0  0  0
 50 69  1  0  0  0  0
 51 58  1  0  0  0  0
 52 66  1  0  0  0  0
 53 67  1  0  0  0  0
 54 67  1  0  0  0  0
 55 67  1  0  0  0  0
 56 77  1  0  0  0  0
 57 78  1  0  0  0  0
 58 59  1  0  0  0  0
 59 62  1  0  0  0  0
 60 61  1  0  0  0  0
 60 63  1  0  0  0  0
 61 64  1  0  0  0  0
 62 77  1  0  0  0  0
 63 87  1  0  0  0  0
 64 88  1  0  0  0  0
 65 67  1  0  0  0  0
 65 76  1  0  0  0  0
 66 78  1  0  0  0  0
 68 69  1  0  0  0  0
 77 91  1  0  0  0  0
 84 91  2  0  0  0  0
 85 91  2  0  0  0  0
M  CHG  1  78   1
M  ISO  4  38 100  63 101  74 100  87 101
M  END
> <Batch ID>
0006

> <Smiles>
CCCCN(C)S(=O)(=O)c1cc([100NH:0][100C:0](=O)N2CCCC(n3nc(-c4ccc(Oc5ccc(F)cc5F)cc4)c(C(N)=O)c3N)C2)cc(OCCC[101CH2:1][101O:1]c2ccc3c(c2)CN(C(=O)C(NC(=O)C(C)NC)C(C)(C)C)C(C(=O)NC2CCCc4ccccc42)C3)c1

> <Shape>
0.217

> <Color>
0.184

> <Negative vol penalty>
0.000

$$$$

  -OEChem-04052315303D

 83 91  0     1  0  0  0  0  0999 V2000
  -33.9420  -35.0786   22.0619 C   0  0  0  0  0  0  0  0  0  0  0  0
  -33.9387  -33.6889   22.1252 C   0  0  0  0  0  0  0  0  0  0  0  0
  -23.0672   -9.8852   19.9335 C   0  0  0  0  0  0  0  0  0  0  0  0
  -23.8422   -9.8644   22.2218 C   0  0  0  0  0  0  0  0  0  0  0  0
  -32.8716  -35.8018   22.5865 C   0  0  0  0  0  0  0  0  0  0  0  0
  -32.8654  -33.0215   22.7142 C   0  0  0  0  0  0  0  0  0  0  0  0
  -30.5285  -27.6129   21.0432 C   0  0  0  0  0  0  0  0  0  0  0  0
  -22.3242   -8.7296   20.1746 C   0  0  0  0  0  0  0  0  0  0  0  0
  -23.0992   -8.7088   22.4629 C   0  0  0  0  0  0  0  0  0  0  0  0
  -30.7093  -26.3208   21.5348 C   0  0  0  0  0  0  0  0  0  0  0  0
  -19.3850   -7.9177   21.6358 C   0  0  0  0  0  0  0  0  0  0  0  0
  -18.0749   -7.8781   21.1587 C   0  0  0  0  0  0  0  0  0  0  0  0
  -28.7199  -26.5602   22.8781 C   0  0  0  0  0  0  0  0  0  0  0  0
  -29.7211  -19.2694   22.4141 C   0  0  0  0  0  0  0  0  0  0  0  0
  -31.1563  -17.6841   20.6226 C   0  0  0  0  0  0  0  0  0  0  0  0
  -18.6245   -5.9505   19.8097 C   0  0  0  0  0  0  0  0  0  0  0  0
  -23.8263  -10.4526   20.9571 C   0  0  0  0  0  0  0  0  0  0  0  0
  -24.1691  -12.9787   20.8649 C   0  0  0  0  0  0  0  0  0  0  0  0
  -31.7802  -35.1425   23.1737 C   0  0  0  0  0  0  0  0  0  0  0  0
  -29.4464  -28.3936   21.4743 C   0  0  0  0  0  0  0  0  0  0  0  0
  -31.7800  -33.7365   23.2485 C   0  0  0  0  0  0  0  0  0  0  0  0
  -28.5263  -27.8609   22.3885 C   0  0  0  0  0  0  0  0  0  0  0  0
  -29.5401  -17.8864   22.4070 C   0  0  0  0  0  0  0  0  0  0  0  0
  -31.3372  -19.0672   20.6297 C   0  0  0  0  0  0  0  0  0  0  0  0
  -30.6196  -19.8598   21.5254 C   0  0  0  0  0  0  0  0  0  0  0  0
  -30.2577  -17.0937   21.5113 C   0  0  0  0  0  0  0  0  0  0  0  0
  -22.3401   -8.1414   21.4393 C   0  0  0  0  0  0  0  0  0  0  0  0
  -29.8065  -25.7953   22.4546 C   0  0  0  0  0  0  0  0  0  0  0  0
  -20.3149   -6.9738   21.1998 C   0  0  0  0  0  0  0  0  0  0  0  0
  -17.6946   -6.8945   20.2456 C   0  0  0  0  0  0  0  0  0  0  0  0
  -19.9346   -5.9902   20.2868 C   0  0  0  0  0  0  0  0  0  0  0  0
  -24.5945  -11.6459   20.7085 C   0  0  0  0  0  0  0  0  0  0  0  0
  -25.2594  -13.7318   20.5034 C   0  0  0  0  0  0  0  0  0  0  0  0
  -22.9018  -13.4903   21.2984 C   0  0  0  0  0  0  0  0  0  0  0  0
  -29.1478  -31.1532   23.0233 C   0  0  0  0  0  0  0  0  0  0  0  0
  -25.9983  -30.7310   22.3714 C   0  0  0  0  0  0  0  0  0  0  0  0
  -30.1506  -22.1812   22.3769 C   0  0  0  0  0  0  0  0  0  0  0  0
  -23.4533  -28.5761   21.6461 C   0  0  0  0  0  0  0  0  0  0  0  0
  -30.7274  -14.7718   20.6544 C   0  0  0  0  0  0  0  0  0  0  0  0
  -30.6680  -35.9687   23.7696 C   0  0  0  0  0  0  0  0  0  0  0  0
  -29.2506  -29.7758   20.9142 C   0  0  0  0  0  0  0  0  0  0  0  0
  -27.3367  -28.6507   22.8678 C   0  0  0  0  0  0  0  0  0  0  0  0
  -29.3951  -35.1712   24.0412 C   0  0  0  0  0  0  0  0  0  0  0  0
  -29.5956  -12.3871   18.2650 C   0  0  0  0  0  0  0  0  0  0  0  0
  -29.7277  -33.8559   24.7383 C   0  0  0  0  0  0  0  0  0  0  0  0
  -28.1586  -12.0913   18.7005 C   0  0  0  0  0  0  0  0  0  0  0  0
  -30.5188  -12.6009   19.4632 C   0  0  0  0  0  0  0  0  0  0  0  0
  -28.6216  -13.3101   20.8655 C   0  0  0  0  0  0  0  0  0  0  0  0
  -30.6224  -32.9755   23.8574 C   0  0  1  0  0  0  0  0  0  0  0  0
  -28.4010  -30.6696   21.8124 C   0  0  1  0  0  0  0  0  0  0  0  0
  -27.6408  -13.1515   19.6922 C   0  0  2  0  0  0  0  0  0  0  0  0
  -28.5698  -17.2815   23.3689 C   0  0  0  0  0  0  0  0  0  0  0  0
  -32.3060  -19.6731   19.6669 C   0  0  0  0  0  0  0  0  0  0  0  0
  -20.9834  -28.5216   21.2055 C   0  0  0  0  0  0  0  0  0  0  0  0
  -25.4608  -31.0953   25.3527 C   0  0  0  0  0  0  0  0  0  0  0  0
  -23.1890  -30.1066   24.9929 C   0  0  0  0  0  0  0  0  0  0  0  0
  -23.8172  -32.2329   23.8497 C   0  0  0  0  0  0  0  0  0  0  0  0
  -23.8452  -27.4748   18.9272 C   0  0  0  0  0  0  0  0  0  0  0  0
  -30.6191  -23.5927   22.0754 C   0  0  0  0  0  0  0  0  0  1  0  0
  -24.8427  -30.0571   23.0710 C   0  0  1  0  0  0  0  0  0  0  0  0
  -22.3685  -28.6191   20.5851 C   0  0  2  0  0  0  0  0  0  0  0  0
  -24.3508  -30.8586   24.3093 C   0  0  0  0  0  0  0  0  0  0  0  0
  -25.8565  -11.5543   20.2807 N   0  0  0  0  0  0  0  0  0  0  0  0
  -26.2335  -12.8391   20.1652 N   0  0  0  0  0  0  0  0  0  0  0  0
  -27.1920  -29.9996   22.2957 N   0  0  0  0  0  0  0  0  0  0  0  0
  -29.9664  -13.6216   20.3565 N   0  0  0  0  0  0  0  0  0  0  0  0
  -25.4703  -15.0639   20.4449 N   0  0  0  0  0  0  0  0  0  0  0  0
  -21.8915  -12.5779   21.6315 N   0  0  0  0  0  0  0  0  0  0  0  0
  -30.7887  -21.2646   21.5483 N   0  0  0  0  0  0  0  0  0  0  0  0
  -30.0861  -15.6874   21.4881 N   0  0  0  0  0  0  0  0  0  0  0  0
  -29.8389  -32.3331   22.8240 N   0  0  0  0  0  0  0  0  0  0  0  0
  -23.8194  -29.8414   22.0538 N   0  0  0  0  0  0  0  0  0  0  0  0
  -22.5352  -27.4893   19.6277 N   0  3  0  0  0  0  0  0  0  0  0  0
  -22.6668  -14.7203   21.3719 O   0  0  0  0  0  0  0  0  0  0  0  0
  -29.0992  -30.5047   24.0619 O   0  0  0  0  0  0  0  0  0  0  0  0
  -25.8452  -31.8618   21.9029 O   0  0  0  0  0  0  0  0  0  0  0  0
  -29.3178  -21.9531   23.2481 O   0  0  0  0  0  0  0  0  0  0  0  0
  -23.9258  -27.5250   22.0734 O   0  0  0  0  0  0  0  0  0  0  0  0
  -31.8535  -14.9453   20.1814 O   0  0  0  0  0  0  0  0  0  0  0  0
  -21.6150   -7.0140   21.6750 O   0  0  0  0  0  0  0  0  0  0  0  0
  -29.9809  -24.5347   22.9365 O   0  0  0  0  0  0  0  0  0  1  0  0
  -16.4361   -6.8556   19.7887 F   0  0  0  0  0  0  0  0  0  0  0  0
  -20.8232   -5.0800   19.8652 F   0  0  0  0  0  0  0  0  0  0  0  0
  1  2  1  0  0  0  0
  1  5  2  0  0  0  0
  2  6  2  0  0  0  0
  3  8  2  0  0  0  0
  3 17  1  0  0  0  0
  4  9  1  0  0  0  0
  4 17  2  0  0  0  0
  5 19  1  0  0  0  0
  6 21  1  0  0  0  0
  7 10  2  0  0  0  0
  7 20  1  0  0  0  0
  8 27  1  0  0  0  0
  9 27  2  0  0  0  0
 10 28  1  0  0  0  0
 11 12  2  0  0  0  0
 11 29  1  0  0  0  0
 12 30  1  0  0  0  0
 13 22  1  0  0  0  0
 13 28  2  0  0  0  0
 14 23  2  0  0  0  0
 14 25  1  0  0  0  0
 15 24  1  0  0  0  0
 15 26  2  0  0  0  0
 16 30  2  0  0  0  0
 16 31  1  0  0  0  0
 17 32  1  0  0  0  0
 18 32  1  0  0  0  0
 18 33  2  0  0  0  0
 18 34  1  0  0  0  0
 19 21  2  0  0  0  0
 19 40  1  0  0  0  0
 20 22  2  0  0  0  0
 20 41  1  0  0  0  0
 21 49  1  0  0  0  0
 22 42  1  0  0  0  0
 23 26  1  0  0  0  0
 23 52  1  0  0  0  0
 24 25  2  0  0  0  0
 24 53  1  0  0  0  0
 25 69  1  0  0  0  0
 26 70  1  0  0  0  0
 27 80  1  0  0  0  0
 28 81  1  0  0  0  0
 29 31  2  0  0  0  0
 29 80  1  0  0  0  0
 30 82  1  0  0  0  0
 31 83  1  0  0  0  0
 32 63  2  0  0  0  0
 33 64  1  0  0  0  0
 33 67  1  0  0  0  0
 34 68  1  0  0  0  0
 34 74  2  0  0  0  0
 35 50  1  0  0  0  0
 35 71  1  0  0  0  0
 35 75  2  0  0  0  0
 36 60  1  0  0  0  0
 36 65  1  0  0  0  0
 36 76  2  0  0  0  0
 37 59  1  0  0  0  0
 37 69  1  0  0  0  0
 37 77  2  0  0  0  0
 38 61  1  0  0  0  0
 38 72  1  0  0  0  0
 38 78  2  0  0  0  0
 39 66  1  0  0  0  0
 39 70  1  0  0  0  0
 39 79  2  0  0  0  0
 40 43  1  0  0  0  0
 41 50  1  0  0  0  0
 42 65  1  0  0  0  0
 43 45  1  0  0  0  0
 44 46  1  0  0  0  0
 44 47  1  0  0  0  0
 45 49  1  0  0  0  0
 46 51  1  0  0  0  0
 47 66  1  0  0  0  0
 48 51  1  0  0  0  0
 48 66  1  0  0  0  0
 49 71  1  0  0  0  0
 50 65  1  0  0  0  0
 51 64  1  0  0  0  0
 54 61  1  0  0  0  0
 55 62  1  0  0  0  0
 56 62  1  0  0  0  0
 57 62  1  0  0  0  0
 58 73  1  0  0  0  0
 59 81  1  0  0  0  0
 60 62  1  0  0  0  0
 60 72  1  0  0  0  0
 61 73  1  0  0  0  0
 63 64  1  0  0  0  0
M  CHG  1  73   1
M  ISO  4  39 100  59 101  70 100  81 101
M  END
> <Batch ID>
0006

> <Smiles>
CNC(C)C(=O)NC(C(=O)N1Cc2cc([101O:1][101CH2:1]C(=O)Nc3cc(C)c([100NH:0][100C:0](=O)N4CCCC(n5nc(-c6ccc(Oc7ccc(F)cc7F)cc6)c(C(N)=O)c5N)C4)cc3C)ccc2CC1C(=O)NC1CCCc2ccccc21)C(C)(C)C

> <Shape>
0.269

> <Color>
0.192

> <Negative vol penalty>
0.000

$$$$

  -OEChem-04052315303D

 82 90  0     1  0  0  0  0  0999 V2000
  -25.5123  -37.7306   22.2187 C   0  0  0  0  0  0  0  0  0  0  0  0
  -26.2941  -36.6714   21.7691 C   0  0  0  0  0  0  0  0  0  0  0  0
  -26.4696  -11.6758   21.2428 C   0  0  0  0  0  0  0  0  0  0  0  0
  -25.3628  -13.3324   19.8761 C   0  0  0  0  0  0  0  0  0  0  0  0
  -24.5164  -37.5066   23.1685 C   0  0  0  0  0  0  0  0  0  0  0  0
  -26.0812  -35.3875   22.2699 C   0  0  0  0  0  0  0  0  0  0  0  0
  -26.6628  -30.1053   19.2258 C   0  0  0  0  0  0  0  0  0  0  0  0
  -25.2345  -11.1068   21.5533 C   0  0  0  0  0  0  0  0  0  0  0  0
  -24.1277  -12.7633   20.1866 C   0  0  0  0  0  0  0  0  0  0  0  0
  -27.6908  -29.1654   19.1661 C   0  0  0  0  0  0  0  0  0  0  0  0
  -22.4018   -8.9983   22.4165 C   0  0  0  0  0  0  0  0  0  0  0  0
  -22.2962   -7.6085   22.3630 C   0  0  0  0  0  0  0  0  0  0  0  0
  -26.5837  -27.8558   20.8627 C   0  0  0  0  0  0  0  0  0  0  0  0
  -27.8525  -22.7448   19.7738 C   0  0  0  0  0  0  0  0  0  0  0  0
  -30.1447  -22.8067   19.0129 C   0  0  0  0  0  0  0  0  0  0  0  0
  -22.8935   -7.6533   20.0224 C   0  0  0  0  0  0  0  0  0  0  0  0
  -26.5337  -12.7886   20.4042 C   0  0  0  0  0  0  0  0  0  0  0  0
  -28.6498  -13.0480   19.0033 C   0  0  0  0  0  0  0  0  0  0  0  0
  -24.2848  -36.2176   23.6739 C   0  0  0  0  0  0  0  0  0  0  0  0
  -25.5912  -29.9327   20.1137 C   0  0  0  0  0  0  0  0  0  0  0  0
  -25.0822  -35.1462   23.2282 C   0  0  0  0  0  0  0  0  0  0  0  0
  -25.5421  -28.7936   20.9299 C   0  0  0  0  0  0  0  0  0  0  0  0
  -28.0649  -21.4750   20.3105 C   0  0  0  0  0  0  0  0  0  0  0  0
  -30.3571  -21.5368   19.5496 C   0  0  0  0  0  0  0  0  0  0  0  0
  -29.3172  -20.8710   20.1984 C   0  0  0  0  0  0  0  0  0  0  0  0
  -24.0636  -11.6505   21.0252 C   0  0  0  0  0  0  0  0  0  0  0  0
  -27.6528  -28.0419   19.9866 C   0  0  0  0  0  0  0  0  0  0  0  0
  -22.7531   -9.7157   21.2729 C   0  0  0  0  0  0  0  0  0  0  0  0
  -28.8924  -23.4106   19.1249 C   0  0  0  0  0  0  0  0  0  0  0  0
  -22.5421   -6.9360   21.1660 C   0  0  0  0  0  0  0  0  0  0  0  0
  -22.9990   -9.0431   20.0759 C   0  0  0  0  0  0  0  0  0  0  0  0
  -27.8092  -13.3772   20.0835 C   0  0  0  0  0  0  0  0  0  0  0  0
  -29.7301  -13.8850   19.1415 C   0  0  0  0  0  0  0  0  0  0  0  0
  -28.4703  -12.0730   17.9676 C   0  0  0  0  0  0  0  0  0  0  0  0
  -24.4453  -31.5629   22.5902 C   0  0  0  0  0  0  0  0  0  0  0  0
  -22.0784  -29.3489   22.4540 C   0  0  0  0  0  0  0  0  0  0  0  0
  -21.0828  -26.2270   21.5003 C   0  0  0  0  0  0  0  0  0  0  0  0
  -30.4540  -19.2229   21.7275 C   0  0  0  0  0  0  0  0  0  0  0  0
  -23.2283  -36.0327   24.7343 C   0  0  0  0  0  0  0  0  0  0  0  0
  -24.4767  -30.9423   20.1469 C   0  0  0  0  0  0  0  0  0  0  0  0
  -24.4036  -28.5515   21.8857 C   0  0  0  0  0  0  0  0  0  0  0  0
  -22.8173  -34.5766   24.9373 C   0  0  0  0  0  0  0  0  0  0  0  0
  -32.2438  -16.2363   22.4712 C   0  0  0  0  0  0  0  0  0  0  0  0
  -24.0493  -33.6816   25.0266 C   0  0  0  0  0  0  0  0  0  0  0  0
  -31.3894  -15.1348   21.8397 C   0  0  0  0  0  0  0  0  0  0  0  0
  -31.3840  -17.3489   23.0683 C   0  0  0  0  0  0  0  0  0  0  0  0
  -29.5404  -16.8276   21.5197 C   0  0  0  0  0  0  0  0  0  0  0  0
  -24.8651  -33.7348   23.7292 C   0  0  1  0  0  0  0  0  0  0  0  0
  -23.6938  -30.9251   21.4561 C   0  0  1  0  0  0  0  0  0  0  0  0
  -30.3634  -15.7165   20.8475 C   0  0  2  0  0  0  0  0  0  0  0  0
  -26.9317  -20.7870   21.0004 C   0  0  0  0  0  0  0  0  0  0  0  0
  -31.7094  -20.9155   19.4122 C   0  0  0  0  0  0  0  0  0  0  0  0
  -19.1020  -24.6874   21.5587 C   0  0  0  0  0  0  0  0  0  0  0  0
  -22.6072  -28.7845   25.4056 C   0  0  0  0  0  0  0  0  0  0  0  0
  -21.3160  -26.6539   25.1577 C   0  0  0  0  0  0  0  0  0  0  0  0
  -20.1886  -28.8455   24.7721 C   0  0  0  0  0  0  0  0  0  0  0  0
  -20.9479  -26.1000   18.5465 C   0  0  0  0  0  0  0  0  0  0  0  0
  -29.3208  -26.9634   18.6787 C   0  0  0  0  0  0  0  0  0  1  0  0
  -29.8043  -25.5316   18.5541 C   0  0  0  0  0  0  0  0  0  0  0  0
  -21.8495  -27.9894   23.0690 C   0  0  1  0  0  0  0  0  0  0  0  0
  -19.8476  -25.7457   20.7607 C   0  0  2  0  0  0  0  0  0  0  0  0
  -21.5129  -28.0736   24.5846 C   0  0  0  0  0  0  0  0  0  0  0  0
  -28.3122  -14.3475   20.8513 N   0  0  0  0  0  0  0  0  0  0  0  0
  -29.4807  -14.6351   20.2529 N   0  0  0  0  0  0  0  0  0  0  0  0
  -23.3410  -29.5705   21.8860 N   0  0  0  0  0  0  0  0  0  0  0  0
  -30.4392  -17.8543   22.0700 N   0  0  0  0  0  0  0  0  0  0  0  0
  -30.8595  -14.0450   18.4195 N   0  0  0  0  0  0  0  0  0  0  0  0
  -27.3026  -11.2978   17.9750 N   0  0  0  0  0  0  0  0  0  0  0  0
  -29.5330  -19.5810   20.7435 N   0  0  0  0  0  0  0  0  0  0  0  0
  -24.2402  -32.9245   22.7058 N   0  0  0  0  0  0  0  0  0  0  0  0
  -20.8184  -27.3450   22.2628 N   0  0  0  0  0  0  0  0  0  0  0  0
  -20.2275  -25.1605   19.4439 N   0  3  0  0  0  0  0  0  0  0  0  0
  -29.3276  -11.8830   17.0719 O   0  0  0  0  0  0  0  0  0  0  0  0
  -25.1573  -30.8706   23.3082 O   0  0  0  0  0  0  0  0  0  0  0  0
  -21.1680  -30.1811   22.4704 O   0  0  0  0  0  0  0  0  0  0  0  0
  -22.1724  -25.6650   21.4134 O   0  0  0  0  0  0  0  0  0  0  0  0
  -31.2453  -20.0136   22.2477 O   0  0  0  0  0  0  0  0  0  0  0  0
  -22.8583  -11.0954   21.3279 O   0  0  0  0  0  0  0  0  0  0  0  0
  -28.6552  -27.1233   19.9308 O   0  0  0  0  0  0  0  0  0  1  0  0
  -28.6832  -24.6572   18.5963 O   0  0  0  0  0  0  0  0  0  0  0  0
  -22.4423   -5.6012   21.1151 F   0  0  0  0  0  0  0  0  0  0  0  0
  -23.3381   -9.7267   18.9743 F   0  0  0  0  0  0  0  0  0  0  0  0
  1  2  1  0  0  0  0
  1  5  2  0  0  0  0
  2  6  2  0  0  0  0
  3  8  2  0  0  0  0
  3 17  1  0  0  0  0
  4  9  1  0  0  0  0
  4 17  2  0  0  0  0
  5 19  1  0  0  0  0
  6 21  1  0  0  0  0
  7 10  2  0  0  0  0
  7 20  1  0  0  0  0
  8 26  1  0  0  0  0
  9 26  2  0  0  0  0
 10 27  1  0  0  0  0
 11 12  2  0  0  0  0
 11 28  1  0  0  0  0
 12 30  1  0  0  0  0
 13 22  1  0  0  0  0
 13 27  2  0  0  0  0
 14 23  2  0  0  0  0
 14 29  1  0  0  0  0
 15 24  1  0  0  0  0
 15 29  2  0  0  0  0
 16 30  2  0  0  0  0
 16 31  1  0  0  0  0
 17 32  1  0  0  0  0
 18 32  1  0  0  0  0
 18 33  2  0  0  0  0
 18 34  1  0  0  0  0
 19 21  2  0  0  0  0
 19 39  1  0  0  0  0
 20 22  2  0  0  0  0
 20 40  1  0  0  0  0
 21 48  1  0  0  0  0
 22 41  1  0  0  0  0
 23 25  1  0  0  0  0
 23 51  1  0  0  0  0
 24 25  2  0  0  0  0
 24 52  1  0  0  0  0
 25 69  1  0  0  0  0
 26 78  1  0  0  0  0
 27 79  1  0  0  0  0
 28 31  2  0  0  0  0
 28 78  1  0  0  0  0
 29 80  1  0  0  0  0
 30 81  1  0  0  0  0
 31 82  1  0  0  0  0
 32 63  2  0  0  0  0
 33 64  1  0  0  0  0
 33 67  1  0  0  0  0
 34 68  1  0  0  0  0
 34 73  2  0  0  0  0
 35 49  1  0  0  0  0
 35 70  1  0  0  0  0
 35 74  2  0  0  0  0
 36 60  1  0  0  0  0
 36 65  1  0  0  0  0
 36 75  2  0  0  0  0
 37 61  1  0  0  0  0
 37 71  1  0  0  0  0
 37 76  2  0  0  0  0
 38 66  1  0  0  0  0
 38 69  1  0  0  0  0
 38 77  2  0  0  0  0
 39 42  1  0  0  0  0
 40 49  1  0  0  0  0
 41 65  1  0  0  0  0
 42 44  1  0  0  0  0
 43 45  1  0  0  0  0
 43 46  1  0  0  0  0
 44 48  1  0  0  0  0
 45 50  1  0  0  0  0
 46 66  1  0  0  0  0
 47 50  1  0  0  0  0
 47 66  1  0  0  0  0
 48 70  1  0  0  0  0
 49 65  1  0  0  0  0
 50 64  1  0  0  0  0
 53 61  1  0  0  0  0
 54 62  1  0  0  0  0
 55 62  1  0  0  0  0
 56 62  1  0  0  0  0
 57 72  1  0  0  0  0
 58 59  1  0  0  0  0
 58 79  1  0  0  0  0
 59 80  1  0  0  0  0
 60 62  1  0  0  0  0
 60 71  1  0  0  0  0
 61 72  1  0  0  0  0
 63 64  1  0  0  0  0
M  CHG  1  72   1
M  ISO  4  38 100  58 101  69 100  79 101
M  END
> <Batch ID>
0006

> <Smiles>
CNC(C)C(=O)NC(C(=O)N1Cc2cc([101O:1][101CH2:1]COc3cc(C)c([100NH:0][100C:0](=O)N4CCCC(n5nc(-c6ccc(Oc7ccc(F)cc7F)cc6)c(C(N)=O)c5N)C4)c(C)c3)ccc2CC1C(=O)NC1CCCc2ccccc21)C(C)(C)C

> <Shape>
0.384

> <Color>
0.070

> <Negative vol penalty>
0.000

$$$$

  -OEChem-04052315303D

 86 94  0     1  0  0  0  0  0999 V2000
  -27.6903  -34.8424   23.5163 C   0  0  0  0  0  0  0  0  0  0  0  0
  -27.9148  -33.4872   23.2961 C   0  0  0  0  0  0  0  0  0  0  0  0
  -24.5780   -8.9608   21.3321 C   0  0  0  0  0  0  0  0  0  0  0  0
  -22.7435  -10.4387   20.7957 C   0  0  0  0  0  0  0  0  0  0  0  0
  -26.4272  -35.2839   23.9083 C   0  0  0  0  0  0  0  0  0  0  0  0
  -26.8765  -32.5726   23.4689 C   0  0  0  0  0  0  0  0  0  0  0  0
  -26.6222  -29.1893   19.7094 C   0  0  0  0  0  0  0  0  0  0  0  0
  -23.6847   -7.8965   21.4548 C   0  0  0  0  0  0  0  0  0  0  0  0
  -21.8503   -9.3744   20.9183 C   0  0  0  0  0  0  0  0  0  0  0  0
  -27.5405  -28.1405   19.7334 C   0  0  0  0  0  0  0  0  0  0  0  0
  -21.4917   -6.7379   23.7510 C   0  0  0  0  0  0  0  0  0  0  0  0
  -21.6389   -5.8928   24.8509 C   0  0  0  0  0  0  0  0  0  0  0  0
  -25.8496  -26.6893   20.6576 C   0  0  0  0  0  0  0  0  0  0  0  0
  -27.9949  -20.2980   18.9549 C   0  0  0  0  0  0  0  0  0  0  0  0
  -29.8681  -19.7596   20.3824 C   0  0  0  0  0  0  0  0  0  0  0  0
  -21.9920   -4.0207   23.3650 C   0  0  0  0  0  0  0  0  0  0  0  0
  -24.1074  -10.2319   21.0026 C   0  0  0  0  0  0  0  0  0  0  0  0
  -25.7037  -11.7464   19.7121 C   0  0  0  0  0  0  0  0  0  0  0  0
  -25.3704  -34.3753   24.0766 C   0  0  0  0  0  0  0  0  0  0  0  0
  -25.3116  -28.9985   20.1702 C   0  0  0  0  0  0  0  0  0  0  0  0
  -25.5985  -33.0022   23.8648 C   0  0  0  0  0  0  0  0  0  0  0  0
  -24.9159  -27.7365   20.6359 C   0  0  0  0  0  0  0  0  0  0  0  0
  -29.3397  -20.4509   19.2922 C   0  0  0  0  0  0  0  0  0  0  0  0
  -27.1785  -19.4540   19.7078 C   0  0  0  0  0  0  0  0  0  0  0  0
  -29.0518  -18.9156   21.1354 C   0  0  0  0  0  0  0  0  0  0  0  0
  -27.7070  -18.7628   20.7980 C   0  0  0  0  0  0  0  0  0  0  0  0
  -22.3209   -8.1033   21.2479 C   0  0  0  0  0  0  0  0  0  0  0  0
  -27.1551  -26.8911   20.2103 C   0  0  0  0  0  0  0  0  0  0  0  0
  -21.5946   -6.2245   22.4582 C   0  0  0  0  0  0  0  0  0  0  0  0
  -21.8891   -4.5342   24.6579 C   0  0  0  0  0  0  0  0  0  0  0  0
  -21.8448   -4.8659   22.2652 C   0  0  0  0  0  0  0  0  0  0  0  0
  -25.0295  -11.3318   20.8762 C   0  0  0  0  0  0  0  0  0  0  0  0
  -26.4533  -12.8245   20.1150 C   0  0  0  0  0  0  0  0  0  0  0  0
  -25.6566  -11.2055   18.3851 C   0  0  0  0  0  0  0  0  0  0  0  0
  -23.5539  -30.2384   22.5106 C   0  0  0  0  0  0  0  0  0  0  0  0
  -21.1979  -28.4724   21.1494 C   0  0  0  0  0  0  0  0  0  0  0  0
  -29.6893  -23.7303   19.0383 C   0  0  0  0  0  0  0  0  0  0  0  0
  -20.3311  -25.7930   19.2216 C   0  0  0  0  0  0  0  0  0  0  0  0
  -26.9971  -17.6040   22.9192 C   0  0  0  0  0  0  0  0  0  0  0  0
  -24.0348  -34.8944   24.5472 C   0  0  0  0  0  0  0  0  0  0  0  0
  -24.3255  -30.1329   20.1127 C   0  0  0  0  0  0  0  0  0  0  0  0
  -23.5150  -27.4744   21.1229 C   0  0  0  0  0  0  0  0  0  0  0  0
  -22.8909  -33.9040   24.3450 C   0  0  0  0  0  0  0  0  0  0  0  0
  -27.4621  -14.5868   24.7516 C   0  0  0  0  0  0  0  0  0  0  0  0
  -23.2982  -32.5134   24.8216 C   0  0  0  0  0  0  0  0  0  0  0  0
  -26.9262  -13.5051   23.8109 C   0  0  0  0  0  0  0  0  0  0  0  0
  -26.6405  -15.8717   24.6649 C   0  0  0  0  0  0  0  0  0  0  0  0
  -25.9340  -15.3276   22.3683 C   0  0  0  0  0  0  0  0  0  0  0  0
  -24.4911  -31.9821   24.0178 C   0  0  1  0  0  0  0  0  0  0  0  0
  -23.1629  -29.9638   21.0860 C   0  0  1  0  0  0  0  0  0  0  0  0
  -26.7687  -14.0365   22.3728 C   0  0  2  0  0  0  0  0  0  0  0  0
  -25.7416  -19.3112   19.3220 C   0  0  0  0  0  0  0  0  0  0  0  0
  -30.2556  -19.1385   23.3234 C   0  0  0  0  0  0  0  0  0  0  0  0
  -18.3274  -24.5829   18.3172 C   0  0  0  0  0  0  0  0  0  0  0  0
  -20.7015  -27.2448   23.8983 C   0  0  0  0  0  0  0  0  0  0  0  0
  -19.4027  -25.4238   22.7734 C   0  0  0  0  0  0  0  0  0  0  0  0
  -18.6288  -27.7895   22.6093 C   0  0  0  0  0  0  0  0  0  0  0  0
  -21.1477  -26.2940   16.4214 C   0  0  0  0  0  0  0  0  0  0  0  0
  -29.6469  -18.1880   22.2975 C   0  0  0  0  0  0  0  0  0  0  0  0
  -30.2183  -21.3596   18.4820 C   0  0  0  0  0  0  0  0  0  0  0  0
  -30.2173  -24.8856   19.8743 C   0  0  0  0  0  0  0  0  0  0  0  0
  -29.3660  -26.1406   19.7582 C   0  0  0  0  0  0  0  0  0  1  0  0
  -20.6809  -27.0647   21.3228 C   0  0  1  0  0  0  0  0  0  0  0  0
  -19.3682  -25.6604   18.0556 C   0  0  2  0  0  0  0  0  0  0  0  0
  -19.8805  -26.8858   22.6437 C   0  0  0  0  0  0  0  0  0  0  0  0
  -25.3248  -12.0849   21.9390 N   0  0  0  0  0  0  0  0  0  0  0  0
  -26.1930  -12.9836   21.4443 N   0  0  0  0  0  0  0  0  0  0  0  0
  -22.5892  -28.6170   21.0527 N   0  0  0  0  0  0  0  0  0  0  0  0
  -26.5375  -16.3179   23.2738 N   0  0  0  0  0  0  0  0  0  0  0  0
  -27.3033  -13.6423   19.4583 N   0  0  0  0  0  0  0  0  0  0  0  0
  -24.8343  -10.0963   18.1445 N   0  0  0  0  0  0  0  0  0  0  0  0
  -26.8779  -17.9052   21.5629 N   0  0  0  0  0  0  0  0  0  0  0  0
  -24.0562  -31.5083   22.7213 N   0  0  0  0  0  0  0  0  0  0  0  0
  -30.4880  -22.6032   19.1672 N   0  0  0  0  0  0  0  0  0  0  0  0
  -19.9197  -26.7579   20.1166 N   0  0  0  0  0  0  0  0  0  0  0  0
  -20.1075  -25.3074   16.8108 N   0  3  0  0  0  0  0  0  0  0  0  0
  -26.3364  -11.6812   17.4443 O   0  0  0  0  0  0  0  0  0  0  0  0
  -23.4092  -29.3634   23.3562 O   0  0  0  0  0  0  0  0  0  0  0  0
  -20.3964  -29.4085   21.0943 O   0  0  0  0  0  0  0  0  0  0  0  0
  -28.6798  -23.8079   18.3434 O   0  0  0  0  0  0  0  0  0  0  0  0
  -21.3448  -25.1064   19.3298 O   0  0  0  0  0  0  0  0  0  0  0  0
  -27.4873  -18.3705   23.7524 O   0  0  0  0  0  0  0  0  0  0  0  0
  -21.4490   -7.0650   21.3673 O   0  0  0  0  0  0  0  0  0  0  0  0
  -28.0496  -25.8658   20.2354 O   0  0  0  0  0  0  0  0  0  1  0  0
  -22.0319   -3.7230   25.7141 F   0  0  0  0  0  0  0  0  0  0  0  0
  -21.9458   -4.3670   21.0255 F   0  0  0  0  0  0  0  0  0  0  0  0
  1  2  1  0  0  0  0
  1  5  2  0  0  0  0
  2  6  2  0  0  0  0
  3  8  2  0  0  0  0
  3 17  1  0  0  0  0
  4  9  1  0  0  0  0
  4 17  2  0  0  0  0
  5 19  1  0  0  0  0
  6 21  1  0  0  0  0
  7 10  2  0  0  0  0
  7 20  1  0  0  0  0
  8 27  1  0  0  0  0
  9 27  2  0  0  0  0
 10 28  1  0  0  0  0
 11 12  2  0  0  0  0
 11 29  1  0  0  0  0
 12 30  1  0  0  0  0
 13 22  1  0  0  0  0
 13 28  2  0  0  0  0
 14 23  1  0  0  0  0
 14 24  2  0  0  0  0
 15 23  2  0  0  0  0
 15 25  1  0  0  0  0
 16 30  2  0  0  0  0
 16 31  1  0  0  0  0
 17 32  1  0  0  0  0
 18 32  1  0  0  0  0
 18 33  2  0  0  0  0
 18 34  1  0  0  0  0
 19 21  2  0  0  0  0
 19 40  1  0  0  0  0
 20 22  2  0  0  0  0
 20 41  1  0  0  0  0
 21 49  1  0  0  0  0
 22 42  1  0  0  0  0
 23 60  1  0  0  0  0
 24 26  1  0  0  0  0
 24 52  1  0  0  0  0
 25 26  2  0  0  0  0
 25 59  1  0  0  0  0
 26 72  1  0  0  0  0
 27 83  1  0  0  0  0
 28 84  1  0  0  0  0
 29 31  2  0  0  0  0
 29 83  1  0  0  0  0
 30 85  1  0  0  0  0
 31 86  1  0  0  0  0
 32 66  2  0  0  0  0
 33 67  1  0  0  0  0
 33 70  1  0  0  0  0
 34 71  1  0  0  0  0
 34 77  2  0  0  0  0
 35 50  1  0  0  0  0
 35 73  1  0  0  0  0
 35 78  2  0  0  0  0
 36 63  1  0  0  0  0
 36 68  1  0  0  0  0
 36 79  2  0  0  0  0
 37 61  1  0  0  0  0
 37 74  1  0  0  0  0
 37 80  2  0  0  0  0
 38 64  1  0  0  0  0
 38 75  1  0  0  0  0
 38 81  2  0  0  0  0
 39 69  1  0  0  0  0
 39 72  1  0  0  0  0
 39 82  2  0  0  0  0
 40 43  1  0  0  0  0
 41 50  1  0  0  0  0
 42 68  1  0  0  0  0
 43 45  1  0  0  0  0
 44 46  1  0  0  0  0
 44 47  1  0  0  0  0
 45 49  1  0  0  0  0
 46 51  1  0  0  0  0
 47 69  1  0  0  0  0
 48 51  1  0  0  0  0
 48 69  1  0  0  0  0
 49 73  1  0  0  0  0
 50 68  1  0  0  0  0
 51 67  1  0  0  0  0
 53 59  1  0  0  0  0
 54 64  1  0  0  0  0
 55 65  1  0  0  0  0
 56 65  1  0  0  0  0
 57 65  1  0  0  0  0
 58 76  1  0  0  0  0
 60 74  1  0  0  0  0
 61 62  1  0  0  0  0
 62 84  1  0  0  0  0
 63 65  1  0  0  0  0
 63 75  1  0  0  0  0
 64 76  1  0  0  0  0
 66 67  1  0  0  0  0
M  CHG  1  76   1
M  ISO  4  39 100  62 101  72 100  84 101
M  END
> <Batch ID>
0006

> <Smiles>
CCc1cc(CNC(=O)C[101CH2:1][101O:1]c2ccc3c(c2)CN(C(=O)C(NC(=O)C(C)NC)C(C)(C)C)C(C(=O)NC2CCCc4ccccc42)C3)cc(C)c1[100NH:0][100C:0](=O)N1CCCC(n2nc(-c3ccc(Oc4ccc(F)cc4F)cc3)c(C(N)=O)c2N)C1

> <Shape>
0.344

> <Color>
0.119

> <Negative vol penalty>
0.000

$$$$

  -OEChem-04052315303D

 89 97  0     1  0  0  0  0  0999 V2000
  -27.5262  -35.5442   15.1733 C   0  0  0  0  0  0  0  0  0  0  0  0
  -26.6504  -34.4665   15.0904 C   0  0  0  0  0  0  0  0  0  0  0  0
  -22.9419  -10.1458   20.2860 C   0  0  0  0  0  0  0  0  0  0  0  0
  -24.2685   -9.2735   22.1071 C   0  0  0  0  0  0  0  0  0  0  0  0
  -28.5292  -35.5530   16.1418 C   0  0  0  0  0  0  0  0  0  0  0  0
  -26.7778  -33.3963   15.9752 C   0  0  0  0  0  0  0  0  0  0  0  0
  -22.8388  -28.5209   19.4438 C   0  0  0  0  0  0  0  0  0  0  0  0
  -22.1793   -8.9780   20.2820 C   0  0  0  0  0  0  0  0  0  0  0  0
  -23.5058   -8.1056   22.1031 C   0  0  0  0  0  0  0  0  0  0  0  0
  -22.7636  -27.1437   19.6470 C   0  0  0  0  0  0  0  0  0  0  0  0
  -27.0951  -22.5946   21.1959 C   0  0  0  0  0  0  0  0  0  0  0  0
  -27.8087  -21.6395   21.9200 C   0  0  0  0  0  0  0  0  0  0  0  0
  -20.4830   -7.1027   23.2333 C   0  0  0  0  0  0  0  0  0  0  0  0
  -20.0561   -6.6051   24.4644 C   0  0  0  0  0  0  0  0  0  0  0  0
  -24.4841  -27.3041   21.3302 C   0  0  0  0  0  0  0  0  0  0  0  0
  -25.4219  -20.9368   20.6583 C   0  0  0  0  0  0  0  0  0  0  0  0
  -21.2503   -4.5468   24.0466 C   0  0  0  0  0  0  0  0  0  0  0  0
  -23.9866  -10.2936   21.1986 C   0  0  0  0  0  0  0  0  0  0  0  0
  -24.5310  -12.6722   21.9425 C   0  0  0  0  0  0  0  0  0  0  0  0
  -28.6629  -34.4869   17.0452 C   0  0  0  0  0  0  0  0  0  0  0  0
  -23.7464  -29.2999   20.1758 C   0  0  0  0  0  0  0  0  0  0  0  0
  -27.7844  -33.3902   16.9558 C   0  0  0  0  0  0  0  0  0  0  0  0
  -24.5671  -28.6914   21.1363 C   0  0  0  0  0  0  0  0  0  0  0  0
  -26.1355  -19.9817   21.3823 C   0  0  0  0  0  0  0  0  0  0  0  0
  -22.4613   -7.9578   21.1906 C   0  0  0  0  0  0  0  0  0  0  0  0
  -23.5883  -26.5346   20.5882 C   0  0  0  0  0  0  0  0  0  0  0  0
  -25.9016  -22.2432   20.5651 C   0  0  0  0  0  0  0  0  0  0  0  0
  -27.3289  -20.3331   22.0131 C   0  0  0  0  0  0  0  0  0  0  0  0
  -21.2935   -6.3224   22.4087 C   0  0  0  0  0  0  0  0  0  0  0  0
  -20.4398   -5.3271   24.8711 C   0  0  0  0  0  0  0  0  0  0  0  0
  -21.6772   -5.0444   22.8154 C   0  0  0  0  0  0  0  0  0  0  0  0
  -24.7750  -11.4996   21.2028 C   0  0  0  0  0  0  0  0  0  0  0  0
  -25.5592  -13.5154   21.5986 C   0  0  0  0  0  0  0  0  0  0  0  0
  -23.4698  -12.9724   22.8588 C   0  0  0  0  0  0  0  0  0  0  0  0
  -26.2380  -31.1299   19.4362 C   0  0  0  0  0  0  0  0  0  0  0  0
  -26.1517  -31.8508   22.5977 C   0  0  0  0  0  0  0  0  0  0  0  0
  -25.2262  -30.9380   25.7532 C   0  0  0  0  0  0  0  0  0  0  0  0
  -30.9761  -14.4403   20.6252 C   0  0  0  0  0  0  0  0  0  0  0  0
  -29.7921  -34.5193   18.0444 C   0  0  0  0  0  0  0  0  0  0  0  0
  -23.7965  -30.7881   19.9638 C   0  0  0  0  0  0  0  0  0  0  0  0
  -25.5441  -29.4859   21.9625 C   0  0  0  0  0  0  0  0  0  0  0  0
  -29.6247  -33.5193   19.1855 C   0  0  0  0  0  0  0  0  0  0  0  0
  -29.0297  -13.1524   17.9365 C   0  0  0  0  0  0  0  0  0  0  0  0
  -29.2225  -32.1518   18.6422 C   0  0  0  0  0  0  0  0  0  0  0  0
  -27.7324  -12.6989   18.6085 C   0  0  0  0  0  0  0  0  0  0  0  0
  -30.2443  -12.9013   18.8273 C   0  0  0  0  0  0  0  0  0  0  0  0
  -28.8492  -13.0191   20.8555 C   0  0  0  0  0  0  0  0  0  0  0  0
  -27.8750  -32.2222   17.9137 C   0  0  1  0  0  0  0  0  0  0  0  0
  -25.1197  -31.4096   20.4000 C   0  0  1  0  0  0  0  0  0  0  0  0
  -27.5903  -13.3032   20.0184 C   0  0  2  0  0  0  0  0  0  0  0  0
  -25.3254  -31.7145   28.1374 C   0  0  0  0  0  0  0  0  0  0  0  0
  -29.0950  -31.0578   22.7310 C   0  0  0  0  0  0  0  0  0  0  0  0
  -28.8775  -30.9361   25.2222 C   0  0  0  0  0  0  0  0  0  0  0  0
  -28.5051  -33.1030   24.0438 C   0  0  0  0  0  0  0  0  0  0  0  0
  -22.2758  -31.0173   25.9718 C   0  0  0  0  0  0  0  0  0  0  0  0
  -31.1677  -17.3775   22.1683 C   0  0  0  0  0  0  0  0  0  0  0  0
  -29.7369  -17.7002   22.6002 C   0  0  0  0  0  0  0  0  0  0  0  0
  -31.5713  -15.9458   22.5063 C   0  0  0  0  0  0  0  0  0  0  0  0
  -29.3712  -19.1461   22.2890 C   0  0  0  0  0  0  0  0  0  0  0  0
  -23.1402  -24.3867   19.6708 C   0  0  0  0  0  0  0  0  0  1  0  0
  -23.7885  -23.0220   19.8011 C   0  0  0  0  0  0  0  0  0  0  0  0
  -26.7751  -31.2702   23.8440 C   0  0  1  0  0  0  0  0  0  0  0  0
  -24.5106  -31.7008   26.8534 C   0  0  2  0  0  0  0  0  0  0  0  0
  -25.6072  -18.5881   21.4714 C   0  0  0  0  0  0  0  0  0  0  0  0
  -28.2962  -31.5763   23.9435 C   0  0  0  0  0  0  0  0  0  0  0  0
  -25.8721  -11.5863   20.4459 N   0  0  0  0  0  0  0  0  0  0  0  0
  -26.3266  -12.8236   20.7082 N   0  0  0  0  0  0  0  0  0  0  0  0
  -25.5603  -30.9369   21.7140 N   0  0  0  0  0  0  0  0  0  0  0  0
  -30.0463  -13.5013   20.1489 N   0  0  0  0  0  0  0  0  0  0  0  0
  -25.8728  -14.7736   21.9739 N   0  0  0  0  0  0  0  0  0  0  0  0
  -22.4963  -11.9929   23.0977 N   0  0  0  0  0  0  0  0  0  0  0  0
  -26.7867  -32.2631   18.8668 N   0  0  0  0  0  0  0  0  0  0  0  0
  -25.9897  -31.7736   24.9658 N   0  0  0  0  0  0  0  0  0  0  0  0
  -30.7102  -14.9648   21.8842 N   0  0  0  0  0  0  0  0  0  0  0  0
  -23.1890  -31.0755   27.1421 N   0  3  0  0  0  0  0  0  0  0  0  0
  -23.3783  -14.0825   23.4356 O   0  0  0  0  0  0  0  0  0  0  0  0
  -26.5788  -29.9717   19.2259 O   0  0  0  0  0  0  0  0  0  0  0  0
  -26.1818  -33.0708   22.4185 O   0  0  0  0  0  0  0  0  0  0  0  0
  -25.1215  -29.7219   25.6092 O   0  0  0  0  0  0  0  0  0  0  0  0
  -31.9667  -14.7896   19.9744 O   0  0  0  0  0  0  0  0  0  0  0  0
  -21.7172   -6.8181   21.1871 O   0  0  0  0  0  0  0  0  0  0  0  0
  -23.5174  -25.1904   20.7880 O   0  0  0  0  0  0  0  0  0  1  0  0
  -25.2009  -23.1818   19.8544 O   0  0  0  0  0  0  0  0  0  0  0  0
  -28.0391  -19.4123   22.7233 O   0  0  0  0  0  0  0  0  0  0  0  0
  -20.0310   -4.8500   26.0541 F   0  0  0  0  0  0  0  0  0  0  0  0
  -22.4567   -4.2906   22.0281 F   0  0  0  0  0  0  0  0  0  0  0  0
  -24.4318  -18.4060   20.8011 F   0  0  0  0  0  0  0  0  0  0  0  0
  -26.4578  -17.6491   20.9628 F   0  0  0  0  0  0  0  0  0  0  0  0
  -25.3607  -18.2029   22.7567 F   0  0  0  0  0  0  0  0  0  0  0  0
  1  2  1  0  0  0  0
  1  5  2  0  0  0  0
  2  6  2  0  0  0  0
  3  8  2  0  0  0  0
  3 18  1  0  0  0  0
  4  9  1  0  0  0  0
  4 18  2  0  0  0  0
  5 20  1  0  0  0  0
  6 22  1  0  0  0  0
  7 10  2  0  0  0  0
  7 21  1  0  0  0  0
  8 25  1  0  0  0  0
  9 25  2  0  0  0  0
 10 26  1  0  0  0  0
 11 12  2  0  0  0  0
 11 27  1  0  0  0  0
 12 28  1  0  0  0  0
 13 14  2  0  0  0  0
 13 29  1  0  0  0  0
 14 30  1  0  0  0  0
 15 23  1  0  0  0  0
 15 26  2  0  0  0  0
 16 24  1  0  0  0  0
 16 27  2  0  0  0  0
 17 30  2  0  0  0  0
 17 31  1  0  0  0  0
 18 32  1  0  0  0  0
 19 32  1  0  0  0  0
 19 33  2  0  0  0  0
 19 34  1  0  0  0  0
 20 22  2  0  0  0  0
 20 39  1  0  0  0  0
 21 23  2  0  0  0  0
 21 40  1  0  0  0  0
 22 48  1  0  0  0  0
 23 41  1  0  0  0  0
 24 28  2  0  0  0  0
 24 64  1  0  0  0  0
 25 81  1  0  0  0  0
 26 82  1  0  0  0  0
 27 83  1  0  0  0  0
 28 84  1  0  0  0  0
 29 31  2  0  0  0  0
 29 81  1  0  0  0  0
 30 85  1  0  0  0  0
 31 86  1  0  0  0  0
 32 66  2  0  0  0  0
 33 67  1  0  0  0  0
 33 70  1  0  0  0  0
 34 71  1  0  0  0  0
 34 76  2  0  0  0  0
 35 49  1  0  0  0  0
 35 72  1  0  0  0  0
 35 77  2  0  0  0  0
 36 62  1  0  0  0  0
 36 68  1  0  0  0  0
 36 78  2  0  0  0  0
 37 63  1  0  0  0  0
 37 73  1  0  0  0  0
 37 79  2  0  0  0  0
 38 69  1  0  0  0  0
 38 74  1  0  0  0  0
 38 80  2  0  0  0  0
 39 42  1  0  0  0  0
 40 49  1  0  0  0  0
 41 68  1  0  0  0  0
 42 44  1  0  0  0  0
 43 45  1  0  0  0  0
 43 46  1  0  0  0  0
 44 48  1  0  0  0  0
 45 50  1  0  0  0  0
 46 69  1  0  0  0  0
 47 50  1  0  0  0  0
 47 69  1  0  0  0  0
 48 72  1  0  0  0  0
 49 68  1  0  0  0  0
 50 67  1  0  0  0  0
 51 63  1  0  0  0  0
 52 65  1  0  0  0  0
 53 65  1  0  0  0  0
 54 65  1  0  0  0  0
 55 75  1  0  0  0  0
 56 57  1  0  0  0  0
 56 58  1  0  0  0  0
 57 59  1  0  0  0  0
 58 74  1  0  0  0  0
 59 84  1  0  0  0  0
 60 61  1  0  0  0  0
 60 82  1  0  0  0  0
 61 83  1  0  0  0  0
 62 65  1  0  0  0  0
 62 73  1  0  0  0  0
 63 75  1  0  0  0  0
 64 87  1  0  0  0  0
 64 88  1  0  0  0  0
 64 89  1  0  0  0  0
 66 67  1  0  0  0  0
M  CHG  1  75   1
M  ISO  4  38 100  60 101  74 100  82 101
M  END
> <Batch ID>
0006

> <Smiles>
CNC(C)C(=O)NC(C(=O)N1Cc2cc([101O:1][101CH2:1]COc3ccc(OCCCC[100NH:0][100C:0](=O)N4CCCC(n5nc(-c6ccc(Oc7ccc(F)cc7F)cc6)c(C(N)=O)c5N)C4)c(C(F)(F)F)c3)ccc2CC1C(=O)NC1CCCc2ccccc21)C(C)(C)C

> <Shape>
0.286

> <Color>
0.144

> <Negative vol penalty>
0.000

$$$$

  -OEChem-04052315303D

 82 89  0     1  0  0  0  0  0999 V2000
  -29.2357  -31.8545   26.0782 C   0  0  0  0  0  0  0  0  0  0  0  0
  -29.1386  -31.0076   24.9788 C   0  0  0  0  0  0  0  0  0  0  0  0
  -25.6254  -14.4215   19.3222 C   0  0  0  0  0  0  0  0  0  0  0  0
  -24.2743  -14.3981   21.3250 C   0  0  0  0  0  0  0  0  0  0  0  0
  -28.1515  -31.9997   26.9428 C   0  0  0  0  0  0  0  0  0  0  0  0
  -27.9575  -30.3044   24.7439 C   0  0  0  0  0  0  0  0  0  0  0  0
  -26.5422  -30.4521   19.8839 C   0  0  0  0  0  0  0  0  0  0  0  0
  -25.8309  -13.0474   19.4448 C   0  0  0  0  0  0  0  0  0  0  0  0
  -24.4797  -13.0239   21.4475 C   0  0  0  0  0  0  0  0  0  0  0  0
  -27.2123  -29.6077   18.9996 C   0  0  0  0  0  0  0  0  0  0  0  0
  -23.2667  -10.1921   20.0583 C   0  0  0  0  0  0  0  0  0  0  0  0
  -22.1600   -9.3969   20.3559 C   0  0  0  0  0  0  0  0  0  0  0  0
  -25.3737  -28.0496   19.1038 C   0  0  0  0  0  0  0  0  0  0  0  0
  -23.2410   -8.6515   22.3840 C   0  0  0  0  0  0  0  0  0  0  0  0
  -24.8471  -15.0969   20.2624 C   0  0  0  0  0  0  0  0  0  0  0  0
  -23.5944  -17.1624   19.4425 C   0  0  0  0  0  0  0  0  0  0  0  0
  -26.9533  -31.3054   26.7130 C   0  0  0  0  0  0  0  0  0  0  0  0
  -25.2856  -30.0959   20.3941 C   0  0  0  0  0  0  0  0  0  0  0  0
  -26.8568  -30.4394   25.6070 C   0  0  0  0  0  0  0  0  0  0  0  0
  -24.6886  -28.8924   19.9924 C   0  0  0  0  0  0  0  0  0  0  0  0
  -25.2580  -12.3485   20.5073 C   0  0  0  0  0  0  0  0  0  0  0  0
  -26.6293  -28.4049   18.6117 C   0  0  0  0  0  0  0  0  0  0  0  0
  -24.3605  -10.2170   20.9235 C   0  0  0  0  0  0  0  0  0  0  0  0
  -22.1471   -8.6266   21.5187 C   0  0  0  0  0  0  0  0  0  0  0  0
  -24.3476   -9.4467   22.0864 C   0  0  0  0  0  0  0  0  0  0  0  0
  -24.6350  -16.5165   20.1367 C   0  0  0  0  0  0  0  0  0  0  0  0
  -23.8396  -18.5015   19.6246 C   0  0  0  0  0  0  0  0  0  0  0  0
  -22.5037  -16.6019   18.6996 C   0  0  0  0  0  0  0  0  0  0  0  0
  -24.1241  -29.5198   23.2963 C   0  0  0  0  0  0  0  0  0  0  0  0
  -21.3010  -29.3506   21.7076 C   0  0  0  0  0  0  0  0  0  0  0  0
  -28.3663  -23.5545   21.3489 C   0  0  0  0  0  0  0  0  0  0  0  0
  -29.2649  -26.2526   17.3504 C   0  0  0  0  0  0  0  0  0  0  0  0
  -19.6600  -28.7975   18.7669 C   0  0  0  0  0  0  0  0  0  0  0  0
  -29.0386  -21.2849   20.8807 C   0  0  0  0  0  0  0  0  0  0  0  0
  -25.8247  -31.4581   27.7018 C   0  0  0  0  0  0  0  0  0  0  0  0
  -24.5640  -31.0301   21.3262 C   0  0  0  0  0  0  0  0  0  0  0  0
  -23.3323  -28.4732   20.4955 C   0  0  0  0  0  0  0  0  0  0  0  0
  -24.4804  -30.9652   27.1726 C   0  0  0  0  0  0  0  0  0  0  0  0
  -25.8252  -21.5690   22.7026 C   0  0  0  0  0  0  0  0  0  0  0  0
  -24.6360  -29.6012   26.5077 C   0  0  0  0  0  0  0  0  0  0  0  0
  -25.0890  -20.3228   22.2117 C   0  0  0  0  0  0  0  0  0  0  0  0
  -27.3300  -21.3342   22.7601 C   0  0  0  0  0  0  0  0  0  0  0  0
  -27.1915  -19.6344   20.9678 C   0  0  0  0  0  0  0  0  0  0  0  0
  -25.5840  -29.6787   25.3048 C   0  0  1  0  0  0  0  0  0  0  0  0
  -23.5166  -30.3271   22.1842 C   0  0  1  0  0  0  0  0  0  0  0  0
  -25.6682  -19.8286   20.8745 C   0  0  1  0  0  0  0  0  0  0  0  0
  -28.7372  -24.7448   22.2010 C   0  0  0  0  0  0  0  0  0  0  0  0
  -17.3514  -28.6912   17.7891 C   0  0  0  0  0  0  0  0  0  0  0  0
  -20.8859  -26.6138   22.9912 C   0  0  0  0  0  0  0  0  0  0  0  0
  -19.1045  -26.1638   21.2905 C   0  0  0  0  0  0  0  0  0  0  0  0
  -18.8382  -28.0469   22.9047 C   0  0  0  0  0  0  0  0  0  0  0  0
  -20.2248  -31.0195   16.8954 C   0  0  0  0  0  0  0  0  0  0  0  0
  -28.6996  -27.5932   17.7685 C   0  0  0  0  0  0  0  0  0  1  0  0
  -30.9004  -23.6883   18.7084 C   0  0  0  0  0  0  0  0  0  0  0  0
  -31.1559  -24.1028   20.1625 C   0  0  0  0  0  0  0  0  0  0  0  0
  -31.2468  -24.7956   17.7171 C   0  0  0  0  0  0  0  0  0  0  0  0
  -30.8002  -23.0008   21.1558 C   0  0  0  0  0  0  0  0  0  0  0  0
  -20.5206  -28.2512   21.0286 C   0  0  1  0  0  0  0  0  0  0  0  0
  -18.5590  -29.5730   18.0664 C   0  0  2  0  0  0  0  0  0  0  0  0
  -19.8637  -27.2756   22.0456 C   0  0  0  0  0  0  0  0  0  0  0  0
  -25.4785  -17.3747   20.7164 N   0  0  0  0  0  0  0  0  0  0  0  0
  -24.9683  -18.5735   20.3868 N   0  0  0  0  0  0  0  0  0  0  0  0
  -22.6694  -29.4177   21.4099 N   0  0  0  0  0  0  0  0  0  0  0  0
  -27.8436  -20.8442   21.4747 N   0  0  0  0  0  0  0  0  0  0  0  0
  -23.1977  -19.6126   19.2054 N   0  0  0  0  0  0  0  0  0  0  0  0
  -22.4011  -15.2068   18.6131 N   0  0  0  0  0  0  0  0  0  0  0  0
  -24.9068  -30.2572   24.1641 N   0  0  0  0  0  0  0  0  0  0  0  0
  -30.4946  -25.9984   17.9469 N   0  0  0  0  0  0  0  0  0  0  0  0
  -19.5733  -28.9130   20.1381 N   0  0  0  0  0  0  0  0  0  0  0  0
  -29.3833  -22.6290   21.0961 N   0  0  0  0  0  0  0  0  0  0  0  0
  -19.0524  -30.1159   16.7692 N   0  3  0  0  0  0  0  0  0  0  0  0
  -21.6548  -17.3173   18.1155 O   0  0  0  0  0  0  0  0  0  0  0  0
  -23.8982  -28.3172   23.3629 O   0  0  0  0  0  0  0  0  0  0  0  0
  -20.7165  -30.1259   22.4685 O   0  0  0  0  0  0  0  0  0  0  0  0
  -27.2190  -23.4575   20.9053 O   0  0  0  0  0  0  0  0  0  0  0  0
  -28.6842  -25.4999   16.5732 O   0  0  0  0  0  0  0  0  0  0  0  0
  -20.5097  -28.1506   18.1585 O   0  0  0  0  0  0  0  0  0  0  0  0
  -29.7263  -20.5607   20.1511 O   0  0  0  0  0  0  0  0  0  0  0  0
  -25.4581  -11.0075   20.6271 O   0  0  0  0  0  0  0  0  0  0  0  0
  -27.2883  -27.5700   17.7403 O   0  0  0  0  0  0  0  0  0  1  0  0
  -21.0837   -7.8642   21.8051 F   0  0  0  0  0  0  0  0  0  0  0  0
  -25.3951   -9.4674   22.9220 F   0  0  0  0  0  0  0  0  0  0  0  0
  1  2  1  0  0  0  0
  1  5  2  0  0  0  0
  2  6  2  0  0  0  0
  3  8  2  0  0  0  0
  3 15  1  0  0  0  0
  4  9  1  0  0  0  0
  4 15  2  0  0  0  0
  5 17  1  0  0  0  0
  6 19  1  0  0  0  0
  7 10  2  0  0  0  0
  7 18  1  0  0  0  0
  8 21  1  0  0  0  0
  9 21  2  0  0  0  0
 10 22  1  0  0  0  0
 11 12  2  0  0  0  0
 11 23  1  0  0  0  0
 12 24  1  0  0  0  0
 13 20  1  0  0  0  0
 13 22  2  0  0  0  0
 14 24  2  0  0  0  0
 14 25  1  0  0  0  0
 15 26  1  0  0  0  0
 16 26  1  0  0  0  0
 16 27  2  0  0  0  0
 16 28  1  0  0  0  0
 17 19  2  0  0  0  0
 17 35  1  0  0  0  0
 18 20  2  0  0  0  0
 18 36  1  0  0  0  0
 19 44  1  0  0  0  0
 20 37  1  0  0  0  0
 21 79  1  0  0  0  0
 22 80  1  0  0  0  0
 23 25  2  0  0  0  0
 23 79  1  0  0  0  0
 24 81  1  0  0  0  0
 25 82  1  0  0  0  0
 26 61  2  0  0  0  0
 27 62  1  0  0  0  0
 27 65  1  0  0  0  0
 28 66  1  0  0  0  0
 28 72  2  0  0  0  0
 29 45  1  0  0  0  0
 29 67  1  0  0  0  0
 29 73  2  0  0  0  0
 30 58  1  0  0  0  0
 30 63  1  0  0  0  0
 30 74  2  0  0  0  0
 31 47  1  0  0  0  0
 31 70  1  0  0  0  0
 31 75  2  0  0  0  0
 32 53  1  0  0  0  0
 32 68  1  0  0  0  0
 32 76  2  0  0  0  0
 33 59  1  0  0  0  0
 33 69  1  0  0  0  0
 33 77  2  0  0  0  0
 34 64  1  0  0  0  0
 34 70  1  0  0  0  0
 34 78  2  0  0  0  0
 35 38  1  0  0  0  0
 36 45  1  0  0  0  0
 37 63  1  0  0  0  0
 38 40  1  0  0  0  0
 39 41  1  0  0  0  0
 39 42  1  0  0  0  0
 40 44  1  0  0  0  0
 41 46  1  0  0  0  0
 42 64  1  0  0  0  0
 43 46  1  0  0  0  0
 43 64  1  0  0  0  0
 44 67  1  0  0  0  0
 45 63  1  0  0  0  0
 46 62  1  0  0  0  0
 48 59  1  0  0  0  0
 49 60  1  0  0  0  0
 50 60  1  0  0  0  0
 51 60  1  0  0  0  0
 52 71  1  0  0  0  0
 53 80  1  0  0  0  0
 54 55  1  0  0  0  0
 54 56  1  0  0  0  0
 55 57  1  0  0  0  0
 56 68  1  0  0  0  0
 57 70  1  0  0  0  0
 58 60  1  0  0  0  0
 58 69  1  0  0  0  0
 59 71  1  0  0  0  0
 61 62  1  0  0  0  0
M  CHG  1  71   1
M  ISO  4  34 100  53 101  70 100  80 101
M  END
> <Batch ID>
0006

> <Smiles>
CNC(C)C(=O)NC(C(=O)N1Cc2cc([101O:1][101CH2:1]C(=O)NCCCC[100N:0](C(C)=O)[100C:0](=O)N3CCCC(n4nc(-c5ccc(Oc6ccc(F)cc6F)cc5)c(C(N)=O)c4N)C3)ccc2CC1C(=O)NC1CCCc2ccccc21)C(C)(C)C

> <Shape>
0.282

> <Color>
0.077

> <Negative vol penalty>
0.000

$$$$

  -OEChem-04052315303D

 80 88  0     1  0  0  0  0  0999 V2000
  -22.2333  -26.3707   33.7578 C   0  0  0  0  0  0  0  0  0  0  0  0
  -23.2395  -26.1682   32.8186 C   0  0  0  0  0  0  0  0  0  0  0  0
  -32.3993  -18.4906   21.9838 C   0  0  0  0  0  0  0  0  0  0  0  0
  -23.0002   -9.8942   19.9808 C   0  0  0  0  0  0  0  0  0  0  0  0
  -23.7250   -9.9449   22.2849 C   0  0  0  0  0  0  0  0  0  0  0  0
  -21.7190  -25.2888   34.4710 C   0  0  0  0  0  0  0  0  0  0  0  0
  -23.7326  -24.8836   32.5929 C   0  0  0  0  0  0  0  0  0  0  0  0
  -25.6648  -22.5656   27.2637 C   0  0  0  0  0  0  0  0  0  0  0  0
  -31.8886  -17.2653   21.5559 C   0  0  0  0  0  0  0  0  0  0  0  0
  -31.6171  -19.3356   22.7712 C   0  0  0  0  0  0  0  0  0  0  0  0
  -22.2334   -8.7599   20.2469 C   0  0  0  0  0  0  0  0  0  0  0  0
  -22.9581   -8.8105   22.5511 C   0  0  0  0  0  0  0  0  0  0  0  0
  -26.9372  -22.4044   26.7173 C   0  0  0  0  0  0  0  0  0  0  0  0
  -23.2018   -5.4716   22.0789 C   0  0  0  0  0  0  0  0  0  0  0  0
  -23.7890   -4.4542   22.8311 C   0  0  0  0  0  0  0  0  0  0  0  0
  -26.9856  -20.1289   27.5164 C   0  0  0  0  0  0  0  0  0  0  0  0
  -29.8134  -17.7297   22.7025 C   0  0  0  0  0  0  0  0  0  0  0  0
  -22.0649   -4.6973   24.5060 C   0  0  0  0  0  0  0  0  0  0  0  0
  -23.7461  -10.4867   20.9998 C   0  0  0  0  0  0  0  0  0  0  0  0
  -24.1320  -13.0022   20.8240 C   0  0  0  0  0  0  0  0  0  0  0  0
  -22.1993  -23.9889   34.2470 C   0  0  0  0  0  0  0  0  0  0  0  0
  -25.0466  -21.5113   27.9512 C   0  0  0  0  0  0  0  0  0  0  0  0
  -23.2252  -23.7834   33.3047 C   0  0  0  0  0  0  0  0  0  0  0  0
  -25.7042  -20.2784   28.0685 C   0  0  0  0  0  0  0  0  0  0  0  0
  -30.5957  -16.8848   21.9152 C   0  0  0  0  0  0  0  0  0  0  0  0
  -22.2123   -8.2180   21.5320 C   0  0  0  0  0  0  0  0  0  0  0  0
  -27.5990  -21.1869   26.8460 C   0  0  0  0  0  0  0  0  0  0  0  0
  -30.3241  -18.9551   23.1305 C   0  0  0  0  0  0  0  0  0  0  0  0
  -22.0462   -6.1019   22.5404 C   0  0  0  0  0  0  0  0  0  0  0  0
  -23.2205   -4.0670   24.0446 C   0  0  0  0  0  0  0  0  0  0  0  0
  -21.4777   -5.7148   23.7539 C   0  0  0  0  0  0  0  0  0  0  0  0
  -24.5388  -11.6581   20.7254 C   0  0  0  0  0  0  0  0  0  0  0  0
  -25.2419  -13.7246   20.4599 C   0  0  0  0  0  0  0  0  0  0  0  0
  -22.8640  -13.5489   21.2104 C   0  0  0  0  0  0  0  0  0  0  0  0
  -24.0228  -21.0691   30.9278 C   0  0  0  0  0  0  0  0  0  0  0  0
  -22.8760  -18.2916   29.7062 C   0  0  0  0  0  0  0  0  0  0  0  0
  -23.0835  -15.8808   27.2996 C   0  0  0  0  0  0  0  0  0  0  0  0
  -30.7216  -14.6845   20.6949 C   0  0  0  0  0  0  0  0  0  0  0  0
  -21.6454  -22.8573   35.0761 C   0  0  0  0  0  0  0  0  0  0  0  0
  -23.6627  -21.6928   28.5118 C   0  0  0  0  0  0  0  0  0  0  0  0
  -25.0757  -19.1089   28.7795 C   0  0  0  0  0  0  0  0  0  0  0  0
  -21.9608  -21.4756   34.5090 C   0  0  0  0  0  0  0  0  0  0  0  0
  -29.6032  -12.2320   18.3686 C   0  0  0  0  0  0  0  0  0  0  0  0
  -23.4305  -21.3847   34.1109 C   0  0  0  0  0  0  0  0  0  0  0  0
  -28.1524  -11.9746   18.7824 C   0  0  0  0  0  0  0  0  0  0  0  0
  -30.5035  -12.4751   19.5785 C   0  0  0  0  0  0  0  0  0  0  0  0
  -28.5881  -13.2643   20.9118 C   0  0  0  0  0  0  0  0  0  0  0  0
  -23.7688  -22.4014   33.0139 C   0  0  1  0  0  0  0  0  0  0  0  0
  -23.3407  -20.7142   29.6370 C   0  0  1  0  0  0  0  0  0  0  0  0
  -27.6306  -13.0782   19.7234 C   0  0  2  0  0  0  0  0  0  0  0  0
  -22.0369  -13.7146   26.5858 C   0  0  0  0  0  0  0  0  0  0  0  0
  -24.3587  -16.8408   31.9437 C   0  0  0  0  0  0  0  0  0  0  0  0
  -24.0780  -14.7126   30.6552 C   0  0  0  0  0  0  0  0  0  0  0  0
  -22.0704  -15.9539   31.4624 C   0  0  0  0  0  0  0  0  0  0  0  0
  -22.2342  -17.0136   24.7006 C   0  0  0  0  0  0  0  0  0  0  0  0
  -29.1520  -21.7897   25.1487 C   0  0  0  0  0  0  0  0  0  1  0  0
  -30.1444  -21.0173   24.3014 C   0  0  0  0  0  0  0  0  0  0  0  0
  -23.4178  -16.8924   29.5400 C   0  0  1  0  0  0  0  0  0  0  0  0
  -22.0213  -15.2277   26.4338 C   0  0  2  0  0  0  0  0  0  0  0  0
  -23.4941  -16.1224   30.8885 C   0  0  0  0  0  0  0  0  0  0  0  0
  -25.8082  -11.5314   20.3294 N   0  0  0  0  0  0  0  0  0  0  0  0
  -26.2084  -12.8051   20.1760 N   0  0  0  0  0  0  0  0  0  0  0  0
  -23.7239  -19.3378   29.3159 N   0  0  0  0  0  0  0  0  0  0  0  0
  -29.9486  -13.5361   20.4218 N   0  0  0  0  0  0  0  0  0  0  0  0
  -25.4757  -15.0502   20.3579 N   0  0  0  0  0  0  0  0  0  0  0  0
  -21.8320  -12.6649   21.5536 N   0  0  0  0  0  0  0  0  0  0  0  0
  -30.0774  -15.6397   21.4804 N   0  0  0  0  0  0  0  0  0  0  0  0
  -23.2989  -21.9324   31.7279 N   0  0  0  0  0  0  0  0  0  0  0  0
  -22.5836  -16.2489   28.5308 N   0  0  0  0  0  0  0  0  0  0  0  0
  -22.2477  -15.5582   24.9984 N   0  3  0  0  0  0  0  0  0  0  0  0
  -22.6476  -14.7842   21.2342 O   0  0  0  0  0  0  0  0  0  0  0  0
  -25.1238  -20.5937   31.1800 O   0  0  0  0  0  0  0  0  0  0  0  0
  -21.7394  -18.4502   30.1587 O   0  0  0  0  0  0  0  0  0  0  0  0
  -24.2419  -16.0445   26.9228 O   0  0  0  0  0  0  0  0  0  0  0  0
  -31.8603  -14.8232   20.2411 O   0  0  0  0  0  0  0  0  0  0  0  0
  -21.4640   -7.1113   21.7921 O   0  0  0  0  0  0  0  0  0  0  0  0
  -28.8414  -21.0270   26.3142 O   0  0  0  0  0  0  0  0  0  1  0  0
  -29.5556  -19.7850   23.9037 O   0  0  0  0  0  0  0  0  0  0  0  0
  -23.7836   -3.0890   24.7660 F   0  0  0  0  0  0  0  0  0  0  0  0
  -20.3669   -6.3159   24.2017 F   0  0  0  0  0  0  0  0  0  0  0  0
  1  2  1  0  0  0  0
  1  6  2  0  0  0  0
  2  7  2  0  0  0  0
  3  9  1  0  0  0  0
  3 10  2  0  0  0  0
  4 11  2  0  0  0  0
  4 19  1  0  0  0  0
  5 12  1  0  0  0  0
  5 19  2  0  0  0  0
  6 21  1  0  0  0  0
  7 23  1  0  0  0  0
  8 13  2  0  0  0  0
  8 22  1  0  0  0  0
  9 25  2  0  0  0  0
 10 28  1  0  0  0  0
 11 26  1  0  0  0  0
 12 26  2  0  0  0  0
 13 27  1  0  0  0  0
 14 15  2  0  0  0  0
 14 29  1  0  0  0  0
 15 30  1  0  0  0  0
 16 24  1  0  0  0  0
 16 27  2  0  0  0  0
 17 25  1  0  0  0  0
 17 28  2  0  0  0  0
 18 30  2  0  0  0  0
 18 31  1  0  0  0  0
 19 32  1  0  0  0  0
 20 32  1  0  0  0  0
 20 33  2  0  0  0  0
 20 34  1  0  0  0  0
 21 23  2  0  0  0  0
 21 39  1  0  0  0  0
 22 24  2  0  0  0  0
 22 40  1  0  0  0  0
 23 48  1  0  0  0  0
 24 41  1  0  0  0  0
 25 67  1  0  0  0  0
 26 76  1  0  0  0  0
 27 77  1  0  0  0  0
 28 78  1  0  0  0  0
 29 31  2  0  0  0  0
 29 76  1  0  0  0  0
 30 79  1  0  0  0  0
 31 80  1  0  0  0  0
 32 61  2  0  0  0  0
 33 62  1  0  0  0  0
 33 65  1  0  0  0  0
 34 66  1  0  0  0  0
 34 71  2  0  0  0  0
 35 49  1  0  0  0  0
 35 68  1  0  0  0  0
 35 72  2  0  0  0  0
 36 58  1  0  0  0  0
 36 63  1  0  0  0  0
 36 73  2  0  0  0  0
 37 59  1  0  0  0  0
 37 69  1  0  0  0  0
 37 74  2  0  0  0  0
 38 64  1  0  0  0  0
 38 67  1  0  0  0  0
 38 75  2  0  0  0  0
 39 42  1  0  0  0  0
 40 49  1  0  0  0  0
 41 63  1  0  0  0  0
 42 44  1  0  0  0  0
 43 45  1  0  0  0  0
 43 46  1  0  0  0  0
 44 48  1  0  0  0  0
 45 50  1  0  0  0  0
 46 64  1  0  0  0  0
 47 50  1  0  0  0  0
 47 64  1  0  0  0  0
 48 68  1  0  0  0  0
 49 63  1  0  0  0  0
 50 62  1  0  0  0  0
 51 59  1  0  0  0  0
 52 60  1  0  0  0  0
 53 60  1  0  0  0  0
 54 60  1  0  0  0  0
 55 70  1  0  0  0  0
 56 57  1  0  0  0  0
 56 77  1  0  0  0  0
 57 78  1  0  0  0  0
 58 60  1  0  0  0  0
 58 69  1  0  0  0  0
 59 70  1  0  0  0  0
 61 62  1  0  0  0  0
M  CHG  1  70   1
M  ISO  4  38 100  56 101  67 100  77 101
M  END
> <Batch ID>
0006

> <Smiles>
CNC(C)C(=O)NC(C(=O)N1Cc2cc([101O:1][101CH2:1]COc3cccc([100NH:0][100C:0](=O)N4CCCC(n5nc(-c6ccc(Oc7ccc(F)cc7F)cc6)c(C(N)=O)c5N)C4)c3)ccc2CC1C(=O)NC1CCCc2ccccc21)C(C)(C)C

> <Shape>
0.177

> <Color>
0.202

> <Negative vol penalty>
0.000

$$$$

  -OEChem-04052315303D

 98106  0     1  0  0  0  0  0999 V2000
  -17.3267  -30.0275   24.3196 C   0  0  0  0  0  0  0  0  0  0  0  0
  -18.4993  -29.8354   25.0431 C   0  0  0  0  0  0  0  0  0  0  0  0
  -24.6063   -9.2203   20.3828 C   0  0  0  0  0  0  0  0  0  0  0  0
  -25.5449   -9.7233   22.5515 C   0  0  0  0  0  0  0  0  0  0  0  0
  -17.1413  -29.3660   23.1063 C   0  0  0  0  0  0  0  0  0  0  0  0
  -19.4868  -28.9808   24.5543 C   0  0  0  0  0  0  0  0  0  0  0  0
  -25.5464  -29.6298   25.1592 C   0  0  0  0  0  0  0  0  0  0  0  0
  -24.6202   -7.8603   20.6922 C   0  0  0  0  0  0  0  0  0  0  0  0
  -25.5588   -8.3632   22.8609 C   0  0  0  0  0  0  0  0  0  0  0  0
  -26.4665  -29.0668   26.0425 C   0  0  0  0  0  0  0  0  0  0  0  0
  -22.7533   -5.6978   22.5009 C   0  0  0  0  0  0  0  0  0  0  0  0
  -21.6151   -4.9518   22.1953 C   0  0  0  0  0  0  0  0  0  0  0  0
  -26.9942  -27.3755   24.4053 C   0  0  0  0  0  0  0  0  0  0  0  0
  -22.9315   -3.5371   20.7452 C   0  0  0  0  0  0  0  0  0  0  0  0
  -25.0687  -10.1518   21.3124 C   0  0  0  0  0  0  0  0  0  0  0  0
  -24.0130  -12.4727   21.2321 C   0  0  0  0  0  0  0  0  0  0  0  0
  -18.1312  -28.5104   22.5977 C   0  0  0  0  0  0  0  0  0  0  0  0
  -25.3350  -29.0625   23.8943 C   0  0  0  0  0  0  0  0  0  0  0  0
  -19.3139  -28.3062   23.3337 C   0  0  0  0  0  0  0  0  0  0  0  0
  -26.0727  -27.9347   23.5069 C   0  0  0  0  0  0  0  0  0  0  0  0
  -25.0965   -7.4317   21.9312 C   0  0  0  0  0  0  0  0  0  0  0  0
  -27.1885  -27.9378   25.6667 C   0  0  0  0  0  0  0  0  0  0  0  0
  -23.9807   -5.3635   21.9285 C   0  0  0  0  0  0  0  0  0  0  0  0
  -21.7041   -3.8714   21.3175 C   0  0  0  0  0  0  0  0  0  0  0  0
  -24.0698   -4.2832   21.0507 C   0  0  0  0  0  0  0  0  0  0  0  0
  -25.0550  -11.5568   20.9933 C   0  0  0  0  0  0  0  0  0  0  0  0
  -24.4888  -13.6676   20.7499 C   0  0  0  0  0  0  0  0  0  0  0  0
  -29.7620  -22.2557   20.1206 C   0  0  0  0  0  0  0  0  0  0  0  0
  -28.9098  -21.5082   20.8544 C   0  0  0  0  0  0  0  0  0  0  0  0
  -29.4723  -19.5457   19.8509 C   0  0  0  0  0  0  0  0  0  0  0  0
  -30.4630  -20.2400   18.9620 C   0  0  0  0  0  0  0  0  0  0  0  0
  -22.7297  -12.2623   21.8358 C   0  0  0  0  0  0  0  0  0  0  0  0
  -22.8485  -27.7496   22.4120 C   0  0  0  0  0  0  0  0  0  0  0  0
  -31.0302  -27.6337   26.5640 C   0  0  0  0  0  0  0  0  0  0  0  0
  -24.8771  -27.7053   19.8811 C   0  0  0  0  0  0  0  0  0  0  0  0
  -33.6014  -27.0804   24.6633 C   0  0  0  0  0  0  0  0  0  0  0  0
  -32.6811  -22.7787   19.1845 C   0  0  0  0  0  0  0  0  0  0  0  0
  -28.0963  -27.6938   18.7482 C   0  0  0  0  0  0  0  0  0  0  0  0
  -28.4752  -17.3896   20.3574 C   0  0  0  0  0  0  0  0  0  0  0  0
  -17.8655  -27.7806   21.3048 C   0  0  0  0  0  0  0  0  0  0  0  0
  -24.3583  -29.6976   22.9430 C   0  0  0  0  0  0  0  0  0  0  0  0
  -25.8975  -27.2995   22.1525 C   0  0  0  0  0  0  0  0  0  0  0  0
  -19.1203  -27.1826   20.6739 C   0  0  0  0  0  0  0  0  0  0  0  0
  -28.5727  -14.6976   17.9454 C   0  0  0  0  0  0  0  0  0  0  0  0
  -19.9477  -26.4481   21.7240 C   0  0  0  0  0  0  0  0  0  0  0  0
  -27.5687  -13.7128   18.5482 C   0  0  0  0  0  0  0  0  0  0  0  0
  -29.3911  -15.3866   19.0332 C   0  0  0  0  0  0  0  0  0  0  0  0
  -27.5748  -15.1018   20.6726 C   0  0  0  0  0  0  0  0  0  0  0  0
  -20.4189  -27.4064   22.8245 C   0  0  1  0  0  0  0  0  0  0  0  0
  -23.8503  -28.7329   21.8759 C   0  0  1  0  0  0  0  0  0  0  0  0
  -26.6998  -14.3868   19.6269 C   0  0  2  0  0  0  0  0  0  0  0  0
  -29.9200  -23.7505   20.2706 C   0  0  0  0  0  0  0  0  0  0  0  0
  -29.4387  -27.6162   16.6294 C   0  0  0  0  0  0  0  0  0  0  0  0
  -24.2827  -24.7243   19.6166 C   0  0  0  0  0  0  0  0  0  0  0  0
  -26.3079  -24.5209   18.1587 C   0  0  0  0  0  0  0  0  0  0  0  0
  -24.3999  -25.9612   17.4462 C   0  0  0  0  0  0  0  0  0  0  0  0
  -32.6656  -24.9652   25.7132 C   0  0  0  0  0  0  0  0  0  0  0  0
  -29.3410  -30.3208   19.3037 C   0  0  0  0  0  0  0  0  0  0  0  0
  -30.1177  -27.7311   27.7787 C   0  0  0  0  0  0  0  0  0  0  0  0
  -32.4379  -27.1455   26.8392 C   0  0  0  0  0  0  0  0  0  0  0  0
  -34.0915  -26.2249   23.5001 C   0  0  0  0  0  0  0  0  0  0  0  0
  -31.4818  -22.4030   18.3522 C   0  0  0  0  0  0  0  0  0  0  0  0
  -34.8262  -27.0154   22.4146 C   0  0  0  0  0  0  0  0  0  0  0  0
  -35.2335  -26.1379   21.2259 C   0  0  0  0  0  0  0  0  0  0  0  0
  -34.0061  -25.5188   20.5499 C   0  0  0  0  0  0  0  0  0  0  0  0
  -34.3792  -24.5912   19.3976 C   0  0  0  0  0  0  0  0  0  0  0  0
  -28.7333  -28.2654   27.4450 C   0  0  0  0  0  0  0  0  0  1  0  0
  -25.8902  -26.7256   19.3400 C   0  0  1  0  0  0  0  0  0  0  0  0
  -28.7886  -28.5115   17.6728 C   0  0  2  0  0  0  0  0  0  0  0  0
  -25.2223  -25.4936   18.6667 C   0  0  0  0  0  0  0  0  0  0  0  0
  -26.1130  -12.1213   20.4050 N   0  0  0  0  0  0  0  0  0  0  0  0
  -28.7519  -20.1525   20.7326 N   0  0  0  0  0  0  0  0  0  0  0  0
  -25.7382  -13.4048   20.2700 N   0  0  0  0  0  0  0  0  0  0  0  0
  -30.5459  -21.6120   19.1647 N   0  0  0  0  0  0  0  0  0  0  0  0
  -24.9262  -27.9535   21.2601 N   0  0  0  0  0  0  0  0  0  0  0  0
  -28.5022  -16.0269   20.0129 N   0  0  0  0  0  0  0  0  0  0  0  0
  -23.9563  -14.9068   20.6938 N   0  0  0  0  0  0  0  0  0  0  0  0
  -22.4017  -10.9728   22.2760 N   0  0  0  0  0  0  0  0  0  0  0  0
  -29.3761  -18.2029   19.6674 N   0  0  0  0  0  0  0  0  0  0  0  0
  -21.5412  -28.1944   22.3619 N   0  0  0  0  0  0  0  0  0  0  0  0
  -33.2299  -23.9913   18.7772 N   0  0  0  0  0  0  0  0  0  0  0  0
  -26.7644  -27.4889   18.4560 N   0  0  0  0  0  0  0  0  0  0  0  0
  -32.9229  -26.4030   25.6825 N   0  0  0  0  0  0  0  0  0  0  0  0
  -29.8442  -29.3731   18.2762 N   0  3  0  0  0  0  0  0  0  0  0  0
  -31.0926  -19.5615   18.1612 O   0  0  0  0  0  0  0  0  0  0  0  0
  -21.8920  -13.1870   21.9657 O   0  0  0  0  0  0  0  0  0  0  0  0
  -23.2331  -26.6669   22.8380 O   0  0  0  0  0  0  0  0  0  0  0  0
  -30.6695  -27.9813   25.4400 O   0  0  0  0  0  0  0  0  0  0  0  0
  -24.0764  -28.2364   19.1075 O   0  0  0  0  0  0  0  0  0  0  0  0
  -33.7988  -28.2981   24.6745 O   0  0  0  0  0  0  0  0  0  0  0  0
  -33.1065  -22.0885   20.1070 O   0  0  0  0  0  0  0  0  0  0  0  0
  -28.6796  -27.2754   19.7458 O   0  0  0  0  0  0  0  0  0  0  0  0
  -27.6930  -17.8509   21.1955 O   0  0  0  0  0  0  0  0  0  0  0  0
  -25.1100   -6.1047   22.2335 O   0  0  0  0  0  0  0  0  0  0  0  0
  -28.0930  -27.3820   26.5333 O   0  0  0  0  0  0  0  0  0  1  0  0
  -20.6113   -3.1542   21.0254 F   0  0  0  0  0  0  0  0  0  0  0  0
  -25.2464   -3.9565   20.4987 F   0  0  0  0  0  0  0  0  0  0  0  0
  -27.8834  -22.2043   22.0758 Cl  0  0  0  0  0  0  0  0  0  0  0  0
  1  2  1  0  0  0  0
  1  5  2  0  0  0  0
  2  6  2  0  0  0  0
  3  8  2  0  0  0  0
  3 15  1  0  0  0  0
  4  9  1  0  0  0  0
  4 15  2  0  0  0  0
  5 17  1  0  0  0  0
  6 19  1  0  0  0  0
  7 10  2  0  0  0  0
  7 18  1  0  0  0  0
  8 21  1  0  0  0  0
  9 21  2  0  0  0  0
 10 22  1  0  0  0  0
 11 12  2  0  0  0  0
 11 23  1  0  0  0  0
 12 24  1  0  0  0  0
 13 20  1  0  0  0  0
 13 22  2  0  0  0  0
 14 24  2  0  0  0  0
 14 25  1  0  0  0  0
 15 26  1  0  0  0  0
 16 26  1  0  0  0  0
 16 27  2  0  0  0  0
 16 32  1  0  0  0  0
 17 19  2  0  0  0  0
 17 40  1  0  0  0  0
 18 20  2  0  0  0  0
 18 41  1  0  0  0  0
 19 49  1  0  0  0  0
 20 42  1  0  0  0  0
 21 94  1  0  0  0  0
 22 95  1  0  0  0  0
 23 25  2  0  0  0  0
 23 94  1  0  0  0  0
 24 96  1  0  0  0  0
 25 97  1  0  0  0  0
 26 71  2  0  0  0  0
 27 73  1  0  0  0  0
 27 77  1  0  0  0  0
 28 29  2  0  0  0  0
 28 52  1  0  0  0  0
 28 74  1  0  0  0  0
 29 72  1  0  0  0  0
 29 98  1  0  0  0  0
 30 31  1  0  0  0  0
 30 72  2  0  0  0  0
 30 79  1  0  0  0  0
 31 74  1  0  0  0  0
 31 85  2  0  0  0  0
 32 78  1  0  0  0  0
 32 86  2  0  0  0  0
 33 50  1  0  0  0  0
 33 80  1  0  0  0  0
 33 87  2  0  0  0  0
 34 59  1  0  0  0  0
 34 60  1  0  0  0  0
 34 88  2  0  0  0  0
 35 68  1  0  0  0  0
 35 75  1  0  0  0  0
 35 89  2  0  0  0  0
 36 61  1  0  0  0  0
 36 83  1  0  0  0  0
 36 90  2  0  0  0  0
 37 62  1  0  0  0  0
 37 81  1  0  0  0  0
 37 91  2  0  0  0  0
 38 69  1  0  0  0  0
 38 82  1  0  0  0  0
 38 92  2  0  0  0  0
 39 76  1  0  0  0  0
 39 79  1  0  0  0  0
 39 93  2  0  0  0  0
 40 43  1  0  0  0  0
 41 50  1  0  0  0  0
 42 75  1  0  0  0  0
 43 45  1  0  0  0  0
 44 46  1  0  0  0  0
 44 47  1  0  0  0  0
 45 49  1  0  0  0  0
 46 51  1  0  0  0  0
 47 76  1  0  0  0  0
 48 51  1  0  0  0  0
 48 76  1  0  0  0  0
 49 80  1  0  0  0  0
 50 75  1  0  0  0  0
 51 73  1  0  0  0  0
 53 69  1  0  0  0  0
 54 70  1  0  0  0  0
 55 70  1  0  0  0  0
 56 70  1  0  0  0  0
 57 83  1  0  0  0  0
 58 84  1  0  0  0  0
 59 67  1  0  0  0  0
 60 83  1  0  0  0  0
 61 63  1  0  0  0  0
 62 74  1  0  0  0  0
 63 64  1  0  0  0  0
 64 65  1  0  0  0  0
 65 66  1  0  0  0  0
 66 81  1  0  0  0  0
 67 95  1  0  0  0  0
 68 70  1  0  0  0  0
 68 82  1  0  0  0  0
 69 84  1  0  0  0  0
 71 73  1  0  0  0  0
M  CHG  1  84   1
M  ISO  4  39 100  67 101  79 100  95 101
M  END
> <Batch ID>
0006

> <Smiles>
CNC(C)C(=O)NC(C(=O)N1Cc2cc([101O:1][101CH2:1]CC(=O)CN(C)C(=O)CCCCCNC(=O)Cn3c(C)c(Cl)nc([100NH:0][100C:0](=O)N4CCCC(n5nc(-c6ccc(Oc7ccc(F)cc7F)cc6)c(C(N)=O)c5N)C4)c3=O)ccc2CC1C(=O)NC1CCCc2ccccc21)C(C)(C)C

> <Shape>
0.266

> <Color>
0.085

> <Negative vol penalty>
0.000

$$$$

  -OEChem-04052315303D

 82 90  0     1  0  0  0  0  0999 V2000
  -17.7884  -32.9572   22.0745 C   0  0  0  0  0  0  0  0  0  0  0  0
  -19.0679  -33.0660   21.5393 C   0  0  0  0  0  0  0  0  0  0  0  0
  -23.0494  -13.0811   20.9633 C   0  0  0  0  0  0  0  0  0  0  0  0
  -23.3095  -14.7257   22.7139 C   0  0  0  0  0  0  0  0  0  0  0  0
  -17.5254  -32.0090   23.0622 C   0  0  0  0  0  0  0  0  0  0  0  0
  -20.0855  -32.2273   21.9923 C   0  0  0  0  0  0  0  0  0  0  0  0
  -25.9928  -28.8798   19.7086 C   0  0  0  0  0  0  0  0  0  0  0  0
  -30.7187  -21.5213   19.2402 C   0  0  0  0  0  0  0  0  0  0  0  0
  -22.3650  -12.2476   21.8479 C   0  0  0  0  0  0  0  0  0  0  0  0
  -22.6251  -13.8922   23.5986 C   0  0  0  0  0  0  0  0  0  0  0  0
  -27.3401  -28.7304   20.0343 C   0  0  0  0  0  0  0  0  0  0  0  0
  -31.0304  -22.8750   19.3659 C   0  0  0  0  0  0  0  0  0  0  0  0
  -19.2524  -12.0144   23.1479 C   0  0  0  0  0  0  0  0  0  0  0  0
  -18.0840  -11.4044   22.6914 C   0  0  0  0  0  0  0  0  0  0  0  0
  -26.7506  -27.0760   21.6880 C   0  0  0  0  0  0  0  0  0  0  0  0
  -28.3985  -22.0891   18.8780 C   0  0  0  0  0  0  0  0  0  0  0  0
  -19.0627   -9.2317   23.0901 C   0  0  0  0  0  0  0  0  0  0  0  0
  -23.5217  -14.3201   21.3963 C   0  0  0  0  0  0  0  0  0  0  0  0
  -23.6765  -16.1650   19.6413 C   0  0  0  0  0  0  0  0  0  0  0  0
  -18.5381  -31.1516   23.5207 C   0  0  0  0  0  0  0  0  0  0  0  0
  -25.0116  -28.1352   20.3788 C   0  0  0  0  0  0  0  0  0  0  0  0
  -19.8362  -31.2675   22.9881 C   0  0  0  0  0  0  0  0  0  0  0  0
  -25.3917  -27.2160   21.3671 C   0  0  0  0  0  0  0  0  0  0  0  0
  -29.4028  -21.1283   18.9962 C   0  0  0  0  0  0  0  0  0  0  0  0
  -22.1529  -12.6532   23.1656 C   0  0  0  0  0  0  0  0  0  0  0  0
  -27.7190  -27.8305   21.0261 C   0  0  0  0  0  0  0  0  0  0  0  0
  -20.3259  -11.2331   23.5754 C   0  0  0  0  0  0  0  0  0  0  0  0
  -30.0261  -23.8358   19.2478 C   0  0  0  0  0  0  0  0  0  0  0  0
  -17.9891  -10.0130   22.6625 C   0  0  0  0  0  0  0  0  0  0  0  0
  -28.7101  -23.4429   19.0038 C   0  0  0  0  0  0  0  0  0  0  0  0
  -20.2311   -9.8418   23.5465 C   0  0  0  0  0  0  0  0  0  0  0  0
  -24.2292  -15.1813   20.4831 C   0  0  0  0  0  0  0  0  0  0  0  0
  -24.7565  -16.6982   18.9811 C   0  0  0  0  0  0  0  0  0  0  0  0
  -22.3091  -16.5615   19.4714 C   0  0  0  0  0  0  0  0  0  0  0  0
  -22.5237  -28.8496   22.2236 C   0  0  0  0  0  0  0  0  0  0  0  0
  -21.9611  -25.6608   22.0310 C   0  0  0  0  0  0  0  0  0  0  0  0
  -23.2027  -22.5268   21.4987 C   0  0  0  0  0  0  0  0  0  0  0  0
  -29.9627  -18.6724   18.9586 C   0  0  0  0  0  0  0  0  0  0  0  0
  -18.2175  -30.1742   24.6236 C   0  0  0  0  0  0  0  0  0  0  0  0
  -23.5648  -28.2885   19.9972 C   0  0  0  0  0  0  0  0  0  0  0  0
  -24.3790  -26.3779   22.1023 C   0  0  0  0  0  0  0  0  0  0  0  0
  -19.2605  -29.0708   24.7819 C   0  0  0  0  0  0  0  0  0  0  0  0
  -29.5667  -15.1408   18.7393 C   0  0  0  0  0  0  0  0  0  0  0  0
  -20.6673  -29.6603   24.7690 C   0  0  0  0  0  0  0  0  0  0  0  0
  -28.0973  -14.9174   19.1042 C   0  0  0  0  0  0  0  0  0  0  0  0
  -30.1886  -16.2712   19.5572 C   0  0  0  0  0  0  0  0  0  0  0  0
  -27.9828  -17.3179   19.8864 C   0  0  0  0  0  0  0  0  0  0  0  0
  -20.9606  -30.3590   23.4358 C   0  0  1  0  0  0  0  0  0  0  0  0
  -22.6063  -27.8538   21.1015 C   0  0  1  0  0  0  0  0  0  0  0  0
  -27.2952  -16.2321   19.0426 C   0  0  2  0  0  0  0  0  0  0  0  0
  -22.5085  -20.1158   21.4447 C   0  0  0  0  0  0  0  0  0  0  0  0
  -21.8853  -25.6167   25.0810 C   0  0  0  0  0  0  0  0  0  0  0  0
  -22.1454  -23.1286   24.9821 C   0  0  0  0  0  0  0  0  0  0  0  0
  -20.1375  -24.2120   23.9736 C   0  0  0  0  0  0  0  0  0  0  0  0
  -23.9756  -22.2477   18.6556 C   0  0  0  0  0  0  0  0  0  0  0  0
  -31.2263  -27.0652   20.5521 C   0  0  0  0  0  0  0  0  0  0  0  0
  -29.9844  -27.9077   20.3065 C   0  0  0  0  0  0  0  0  0  1  0  0
  -30.9048  -25.5799   20.6049 C   0  0  0  0  0  0  0  0  0  0  0  0
  -22.3801  -24.4510   22.8310 C   0  0  1  0  0  0  0  0  0  0  0  0
  -22.7121  -21.3832   20.6292 C   0  0  2  0  0  0  0  0  0  0  0  0
  -21.6562  -24.3691   24.2046 C   0  0  0  0  0  0  0  0  0  0  0  0
  -25.5571  -15.0925   20.3698 N   0  0  0  0  0  0  0  0  0  0  0  0
  -25.8478  -16.0273   19.4491 N   0  0  0  0  0  0  0  0  0  0  0  0
  -22.9764  -26.5685   21.6976 N   0  0  0  0  0  0  0  0  0  0  0  0
  -29.3772  -17.4856   19.4479 N   0  0  0  0  0  0  0  0  0  0  0  0
  -24.8695  -17.6707   18.0517 N   0  0  0  0  0  0  0  0  0  0  0  0
  -21.3257  -15.9102   20.2283 N   0  0  0  0  0  0  0  0  0  0  0  0
  -29.0861  -19.7531   18.8684 N   0  0  0  0  0  0  0  0  0  0  0  0
  -21.2630  -29.3839   22.4100 N   0  0  0  0  0  0  0  0  0  0  0  0
  -22.1587  -23.2950   21.9691 N   0  0  0  0  0  0  0  0  0  0  0  0
  -23.6976  -21.0940   19.5493 N   0  3  0  0  0  0  0  0  0  0  0  0
  -21.9678  -17.4552   18.6600 O   0  0  0  0  0  0  0  0  0  0  0  0
  -23.5289  -29.1126   22.8733 O   0  0  0  0  0  0  0  0  0  0  0  0
  -20.7780  -25.7917   21.7075 O   0  0  0  0  0  0  0  0  0  0  0  0
  -24.3927  -22.7171   21.7399 O   0  0  0  0  0  0  0  0  0  0  0  0
  -31.1473  -18.7188   18.6172 O   0  0  0  0  0  0  0  0  0  0  0  0
  -21.4849  -11.8402   24.0290 O   0  0  0  0  0  0  0  0  0  0  0  0
  -29.0334  -27.6831   21.3464 O   0  0  0  0  0  0  0  0  0  1  0  0
  -30.3344  -25.1657   19.3709 O   0  0  0  0  0  0  0  0  0  0  0  0
  -16.8665   -9.4274   22.2256 F   0  0  0  0  0  0  0  0  0  0  0  0
  -27.7413  -24.3614   18.8881 F   0  0  0  0  0  0  0  0  0  0  0  0
  -21.2587   -9.0859   23.9571 F   0  0  0  0  0  0  0  0  0  0  0  0
  1  2  1  0  0  0  0
  1  5  2  0  0  0  0
  2  6  2  0  0  0  0
  3  9  2  0  0  0  0
  3 18  1  0  0  0  0
  4 10  1  0  0  0  0
  4 18  2  0  0  0  0
  5 20  1  0  0  0  0
  6 22  1  0  0  0  0
  7 11  2  0  0  0  0
  7 21  1  0  0  0  0
  8 12  2  0  0  0  0
  8 24  1  0  0  0  0
  9 25  1  0  0  0  0
 10 25  2  0  0  0  0
 11 26  1  0  0  0  0
 12 28  1  0  0  0  0
 13 14  2  0  0  0  0
 13 27  1  0  0  0  0
 14 29  1  0  0  0  0
 15 23  1  0  0  0  0
 15 26  2  0  0  0  0
 16 24  2  0  0  0  0
 16 30  1  0  0  0  0
 17 29  2  0  0  0  0
 17 31  1  0  0  0  0
 18 32  1  0  0  0  0
 19 32  1  0  0  0  0
 19 33  2  0  0  0  0
 19 34  1  0  0  0  0
 20 22  2  0  0  0  0
 20 39  1  0  0  0  0
 21 23  2  0  0  0  0
 21 40  1  0  0  0  0
 22 48  1  0  0  0  0
 23 41  1  0  0  0  0
 24 68  1  0  0  0  0
 25 77  1  0  0  0  0
 26 78  1  0  0  0  0
 27 31  2  0  0  0  0
 27 77  1  0  0  0  0
 28 30  2  0  0  0  0
 28 79  1  0  0  0  0
 29 80  1  0  0  0  0
 30 81  1  0  0  0  0
 31 82  1  0  0  0  0
 32 62  2  0  0  0  0
 33 63  1  0  0  0  0
 33 66  1  0  0  0  0
 34 67  1  0  0  0  0
 34 72  2  0  0  0  0
 35 49  1  0  0  0  0
 35 69  1  0  0  0  0
 35 73  2  0  0  0  0
 36 59  1  0  0  0  0
 36 64  1  0  0  0  0
 36 74  2  0  0  0  0
 37 60  1  0  0  0  0
 37 70  1  0  0  0  0
 37 75  2  0  0  0  0
 38 65  1  0  0  0  0
 38 68  1  0  0  0  0
 38 76  2  0  0  0  0
 39 42  1  0  0  0  0
 40 49  1  0  0  0  0
 41 64  1  0  0  0  0
 42 44  1  0  0  0  0
 43 45  1  0  0  0  0
 43 46  1  0  0  0  0
 44 48  1  0  0  0  0
 45 50  1  0  0  0  0
 46 65  1  0  0  0  0
 47 50  1  0  0  0  0
 47 65  1  0  0  0  0
 48 69  1  0  0  0  0
 49 64  1  0  0  0  0
 50 63  1  0  0  0  0
 51 60  1  0  0  0  0
 52 61  1  0  0  0  0
 53 61  1  0  0  0  0
 54 61  1  0  0  0  0
 55 71  1  0  0  0  0
 56 57  1  0  0  0  0
 56 58  1  0  0  0  0
 57 78  1  0  0  0  0
 58 79  1  0  0  0  0
 59 61  1  0  0  0  0
 59 70  1  0  0  0  0
 60 71  1  0  0  0  0
 62 63  1  0  0  0  0
M  CHG  1  71   1
M  ISO  4  38 100  57 101  68 100  78 101
M  END
> <Batch ID>
0006

> <Smiles>
CNC(C)C(=O)NC(C(=O)N1Cc2cc([101O:1][101CH2:1]CCOc3ccc([100NH:0][100C:0](=O)N4CCCC(n5nc(-c6ccc(Oc7ccc(F)cc7F)cc6)c(C(N)=O)c5N)C4)cc3F)ccc2CC1C(=O)NC1CCCc2ccccc21)C(C)(C)C

> <Shape>
0.201

> <Color>
0.083

> <Negative vol penalty>
0.000

$$$$

  -OEChem-04052315303D

 85 93  0     1  0  0  0  0  0999 V2000
  -28.7291  -10.8517   16.1046 C   0  0  0  0  0  0  0  0  0  0  0  0
  -27.9204  -11.9606   15.8777 C   0  0  0  0  0  0  0  0  0  0  0  0
  -21.9400  -29.0884   24.4314 C   0  0  0  0  0  0  0  0  0  0  0  0
  -22.3764  -29.1699   22.0566 C   0  0  0  0  0  0  0  0  0  0  0  0
  -29.4067  -10.7207   17.3161 C   0  0  0  0  0  0  0  0  0  0  0  0
  -27.7878  -12.9388   16.8626 C   0  0  0  0  0  0  0  0  0  0  0  0
  -28.1278  -17.6340   14.9958 C   0  0  0  0  0  0  0  0  0  0  0  0
  -20.3829  -18.6477   17.3084 C   0  0  0  0  0  0  0  0  0  0  0  0
  -18.5488  -20.2127   17.1534 C   0  0  0  0  0  0  0  0  0  0  0  0
  -20.8204  -19.2758   18.4744 C   0  0  0  0  0  0  0  0  0  0  0  0
  -18.9863  -20.8408   18.3195 C   0  0  0  0  0  0  0  0  0  0  0  0
  -22.5542  -30.3311   24.5869 C   0  0  0  0  0  0  0  0  0  0  0  0
  -22.9905  -30.4126   22.2120 C   0  0  0  0  0  0  0  0  0  0  0  0
  -27.0039  -18.1444   14.3477 C   0  0  0  0  0  0  0  0  0  0  0  0
  -25.9781  -31.6017   23.2566 C   0  0  0  0  0  0  0  0  0  0  0  0
  -27.1902  -31.8123   22.5993 C   0  0  0  0  0  0  0  0  0  0  0  0
  -26.4224  -19.3757   16.3390 C   0  0  0  0  0  0  0  0  0  0  0  0
  -26.2083  -33.6511   21.3779 C   0  0  0  0  0  0  0  0  0  0  0  0
  -21.8511  -28.5078   23.1663 C   0  0  0  0  0  0  0  0  0  0  0  0
  -19.8562  -26.9743   22.7463 C   0  0  0  0  0  0  0  0  0  0  0  0
  -29.2900  -11.7025   18.3126 C   0  0  0  0  0  0  0  0  0  0  0  0
  -28.4020  -17.9825   16.3261 C   0  0  0  0  0  0  0  0  0  0  0  0
  -28.4634  -12.8202   18.0891 C   0  0  0  0  0  0  0  0  0  0  0  0
  -27.5518  -18.8703   17.0008 C   0  0  0  0  0  0  0  0  0  0  0  0
  -19.2471  -19.1161   16.6478 C   0  0  0  0  0  0  0  0  0  0  0  0
  -20.1221  -20.3724   18.9800 C   0  0  0  0  0  0  0  0  0  0  0  0
  -23.0794  -30.9932   23.4772 C   0  0  0  0  0  0  0  0  0  0  0  0
  -26.1494  -19.0131   15.0203 C   0  0  0  0  0  0  0  0  0  0  0  0
  -24.8811  -32.4157   22.9746 C   0  0  0  0  0  0  0  0  0  0  0  0
  -27.3053  -32.8370   21.6600 C   0  0  0  0  0  0  0  0  0  0  0  0
  -24.9962  -33.4404   22.0352 C   0  0  0  0  0  0  0  0  0  0  0  0
  -21.2173  -27.2239   23.0051 C   0  0  0  0  0  0  0  0  0  0  0  0
  -19.7644  -25.6054   22.6816 C   0  0  0  0  0  0  0  0  0  0  0  0
  -18.7719  -27.8973   22.5791 C   0  0  0  0  0  0  0  0  0  0  0  0
  -28.6403  -16.3806   19.0612 C   0  0  0  0  0  0  0  0  0  0  0  0
  -29.5897  -19.2602   20.2139 C   0  0  0  0  0  0  0  0  0  0  0  0
  -19.3807  -19.0230   14.1277 C   0  0  0  0  0  0  0  0  0  0  0  0
  -29.5635  -22.6584   19.8993 C   0  0  0  0  0  0  0  0  0  0  0  0
  -21.6731  -20.6723   20.9423 C   0  0  0  0  0  0  0  0  0  0  0  0
  -30.0043  -11.4939   19.6245 C   0  0  0  0  0  0  0  0  0  0  0  0
  -29.6330  -17.4443   17.0023 C   0  0  0  0  0  0  0  0  0  0  0  0
  -27.8127  -19.2917   18.4231 C   0  0  0  0  0  0  0  0  0  0  0  0
  -30.1065  -12.7604   20.4705 C   0  0  0  0  0  0  0  0  0  0  0  0
  -23.1191  -22.0176   23.9048 C   0  0  0  0  0  0  0  0  0  0  0  0
  -28.7610  -13.4772   20.5233 C   0  0  0  0  0  0  0  0  0  0  0  0
  -22.6412  -23.4715   23.9135 C   0  0  0  0  0  0  0  0  0  0  0  0
  -23.4194  -21.5279   22.4893 C   0  0  0  0  0  0  0  0  0  0  0  0
  -21.8519  -23.1696   21.5318 C   0  0  0  0  0  0  0  0  0  0  0  0
  -28.3138  -13.9148   19.1233 C   0  0  1  0  0  0  0  0  0  0  0  0
  -29.5347  -17.4622   18.5246 C   0  0  1  0  0  0  0  0  0  0  0  0
  -21.4748  -23.6873   22.9294 C   0  0  2  0  0  0  0  0  0  0  0  0
  -30.3959  -24.7464   21.0150 C   0  0  0  0  0  0  0  0  0  0  0  0
  -27.4300  -18.9766   22.3505 C   0  0  0  0  0  0  0  0  0  0  0  0
  -27.6627  -21.4263   22.8118 C   0  0  0  0  0  0  0  0  0  0  0  0
  -29.6016  -19.9003   23.1784 C   0  0  0  0  0  0  0  0  0  0  0  0
  -31.1471  -23.4357   17.5230 C   0  0  0  0  0  0  0  0  0  0  0  0
  -18.7749  -18.4380   15.3891 C   0  0  0  0  0  0  0  0  0  0  0  0
  -22.2730  -18.1201   12.2489 C   0  0  0  0  0  0  0  0  0  0  0  0
  -22.9594  -18.9903   13.3022 C   0  0  0  0  0  0  0  0  0  0  0  0
  -20.7697  -18.3682   12.1753 C   0  0  0  0  0  0  0  0  0  0  0  0
  -24.4519  -18.6959   13.3851 C   0  0  0  0  0  0  0  0  0  1  0  0
  -28.8894  -20.4541   20.8166 C   0  0  1  0  0  0  0  0  0  0  0  0
  -30.6803  -23.6846   19.9641 C   0  0  2  0  0  0  0  0  0  0  0  0
  -28.3897  -20.1801   22.2632 C   0  0  0  0  0  0  0  0  0  0  0  0
  -21.9383  -26.1034   23.0986 N   0  0  0  0  0  0  0  0  0  0  0  0
  -21.0268  -25.1365   22.8976 N   0  0  0  0  0  0  0  0  0  0  0  0
  -29.0257  -18.7335   19.0433 N   0  0  0  0  0  0  0  0  0  0  0  0
  -22.2683  -21.7608   21.6143 N   0  0  0  0  0  0  0  0  0  0  0  0
  -18.7278  -24.7691   22.4617 N   0  0  0  0  0  0  0  0  0  0  0  0
  -19.0413  -29.2693   22.6764 N   0  0  0  0  0  0  0  0  0  0  0  0
  -20.5661  -21.0105   20.1646 N   0  0  0  0  0  0  0  0  0  0  0  0
  -29.0314  -15.1022   18.7116 N   0  0  0  0  0  0  0  0  0  0  0  0
  -20.1003  -18.0712   13.4120 N   0  0  0  0  0  0  0  0  0  0  0  0
  -29.8211  -21.5716   20.7079 N   0  0  0  0  0  0  0  0  0  0  0  0
  -30.8405  -24.3597   18.6452 N   0  3  0  0  0  0  0  0  0  0  0  0
  -17.5958  -27.5161   22.3666 O   0  0  0  0  0  0  0  0  0  0  0  0
  -27.6682  -16.6834   19.7432 O   0  0  0  0  0  0  0  0  0  0  0  0
  -30.6039  -18.8160   20.7575 O   0  0  0  0  0  0  0  0  0  0  0  0
  -19.2413  -20.1956   13.7894 O   0  0  0  0  0  0  0  0  0  0  0  0
  -28.5611  -22.8077   19.2041 O   0  0  0  0  0  0  0  0  0  0  0  0
  -22.0963  -19.5206   21.0704 O   0  0  0  0  0  0  0  0  0  0  0  0
  -23.6786  -32.2059   23.6286 O   0  0  0  0  0  0  0  0  0  0  0  0
  -25.0513  -19.5123   14.3903 O   0  0  0  0  0  0  0  0  0  1  0  0
  -28.4698  -33.0401   21.0299 F   0  0  0  0  0  0  0  0  0  0  0  0
  -23.9461  -34.2265   21.7609 F   0  0  0  0  0  0  0  0  0  0  0  0
  1  2  1  0  0  0  0
  1  5  2  0  0  0  0
  2  6  2  0  0  0  0
  3 12  2  0  0  0  0
  3 19  1  0  0  0  0
  4 13  1  0  0  0  0
  4 19  2  0  0  0  0
  5 21  1  0  0  0  0
  6 23  1  0  0  0  0
  7 14  2  0  0  0  0
  7 22  1  0  0  0  0
  8 10  2  0  0  0  0
  8 25  1  0  0  0  0
  9 11  1  0  0  0  0
  9 25  2  0  0  0  0
 10 26  1  0  0  0  0
 11 26  2  0  0  0  0
 12 27  1  0  0  0  0
 13 27  2  0  0  0  0
 14 28  1  0  0  0  0
 15 16  2  0  0  0  0
 15 29  1  0  0  0  0
 16 30  1  0  0  0  0
 17 24  1  0  0  0  0
 17 28  2  0  0  0  0
 18 30  2  0  0  0  0
 18 31  1  0  0  0  0
 19 32  1  0  0  0  0
 20 32  1  0  0  0  0
 20 33  2  0  0  0  0
 20 34  1  0  0  0  0
 21 23  2  0  0  0  0
 21 40  1  0  0  0  0
 22 24  2  0  0  0  0
 22 41  1  0  0  0  0
 23 49  1  0  0  0  0
 24 42  1  0  0  0  0
 25 57  1  0  0  0  0
 26 71  1  0  0  0  0
 27 82  1  0  0  0  0
 28 83  1  0  0  0  0
 29 31  2  0  0  0  0
 29 82  1  0  0  0  0
 30 84  1  0  0  0  0
 31 85  1  0  0  0  0
 32 65  2  0  0  0  0
 33 66  1  0  0  0  0
 33 69  1  0  0  0  0
 34 70  1  0  0  0  0
 34 76  2  0  0  0  0
 35 50  1  0  0  0  0
 35 72  1  0  0  0  0
 35 77  2  0  0  0  0
 36 62  1  0  0  0  0
 36 67  1  0  0  0  0
 36 78  2  0  0  0  0
 37 57  1  0  0  0  0
 37 73  1  0  0  0  0
 37 79  2  0  0  0  0
 38 63  1  0  0  0  0
 38 74  1  0  0  0  0
 38 80  2  0  0  0  0
 39 68  1  0  0  0  0
 39 71  1  0  0  0  0
 39 81  2  0  0  0  0
 40 43  1  0  0  0  0
 41 50  1  0  0  0  0
 42 67  1  0  0  0  0
 43 45  1  0  0  0  0
 44 46  1  0  0  0  0
 44 47  1  0  0  0  0
 45 49  1  0  0  0  0
 46 51  1  0  0  0  0
 47 68  1  0  0  0  0
 48 51  1  0  0  0  0
 48 68  1  0  0  0  0
 49 72  1  0  0  0  0
 50 67  1  0  0  0  0
 51 66  1  0  0  0  0
 52 63  1  0  0  0  0
 53 64  1  0  0  0  0
 54 64  1  0  0  0  0
 55 64  1  0  0  0  0
 56 75  1  0  0  0  0
 58 59  1  0  0  0  0
 58 60  1  0  0  0  0
 59 61  1  0  0  0  0
 60 73  1  0  0  0  0
 61 83  1  0  0  0  0
 62 64  1  0  0  0  0
 62 74  1  0  0  0  0
 63 75  1  0  0  0  0
 65 66  1  0  0  0  0
M  CHG  1  75   1
M  ISO  4  39 100  61 101  71 100  83 101
M  END
> <Batch ID>
0006

> <Smiles>
CNC(C)C(=O)NC(C(=O)N1Cc2cc([101O:1][101CH2:1]CCCNC(=O)Cc3ccc([100NH:0][100C:0](=O)N4CCCC(n5nc(-c6ccc(Oc7ccc(F)cc7F)cc6)c(C(N)=O)c5N)C4)cc3)ccc2CC1C(=O)NC1CCCc2ccccc21)C(C)(C)C

> <Shape>
0.213

> <Color>
0.052

> <Negative vol penalty>
0.000

$$$$

  -OEChem-04052315303D

 99108  0     1  0  0  0  0  0999 V2000
  -26.7350  -38.5508   25.2684 C   0  0  0  0  0  0  0  0  0  0  0  0
  -26.0745  -37.6604   26.1087 C   0  0  0  0  0  0  0  0  0  0  0  0
  -24.1426   -9.3837   19.9795 C   0  0  0  0  0  0  0  0  0  0  0  0
  -24.4050   -9.7744   22.3493 C   0  0  0  0  0  0  0  0  0  0  0  0
  -26.7697  -38.3158   23.8945 C   0  0  0  0  0  0  0  0  0  0  0  0
  -25.4473  -36.5349   25.5755 C   0  0  0  0  0  0  0  0  0  0  0  0
  -26.4343  -28.9770   27.2875 C   0  0  0  0  0  0  0  0  0  0  0  0
  -27.9535  -19.9216   24.1856 C   0  0  0  0  0  0  0  0  0  0  0  0
  -30.3583  -19.7135   24.0815 C   0  0  0  0  0  0  0  0  0  0  0  0
  -30.4718  -20.6102   27.6034 C   0  0  0  0  0  0  0  0  0  0  0  0
  -31.7183  -22.1482   26.2185 C   0  0  0  0  0  0  0  0  0  0  0  0
  -27.8223  -18.8429   23.3111 C   0  0  0  0  0  0  0  0  0  0  0  0
  -30.2271  -18.6347   23.2070 C   0  0  0  0  0  0  0  0  0  0  0  0
  -23.7116   -8.0833   20.2416 C   0  0  0  0  0  0  0  0  0  0  0  0
  -23.9739   -8.4740   22.6114 C   0  0  0  0  0  0  0  0  0  0  0  0
  -26.6334  -27.6001   27.3911 C   0  0  0  0  0  0  0  0  0  0  0  0
  -21.0380   -6.8066   22.7569 C   0  0  0  0  0  0  0  0  0  0  0  0
  -31.5582  -20.5124   28.4727 C   0  0  0  0  0  0  0  0  0  0  0  0
  -32.8047  -22.0505   27.0879 C   0  0  0  0  0  0  0  0  0  0  0  0
  -20.1067   -6.6280   23.7798 C   0  0  0  0  0  0  0  0  0  0  0  0
  -25.8732  -27.3081   25.1141 C   0  0  0  0  0  0  0  0  0  0  0  0
  -21.6643   -5.1977   24.9483 C   0  0  0  0  0  0  0  0  0  0  0  0
  -24.4894  -10.2292   21.0333 C   0  0  0  0  0  0  0  0  0  0  0  0
  -24.1382  -12.7284   20.6611 C   0  0  0  0  0  0  0  0  0  0  0  0
  -26.1509  -37.1818   23.3453 C   0  0  0  0  0  0  0  0  0  0  0  0
  -25.9679  -29.5270   26.0903 C   0  0  0  0  0  0  0  0  0  0  0  0
  -25.4726  -36.2852   24.1929 C   0  0  0  0  0  0  0  0  0  0  0  0
  -25.6837  -28.6879   25.0004 C   0  0  0  0  0  0  0  0  0  0  0  0
  -29.2215  -20.3570   24.5707 C   0  0  0  0  0  0  0  0  0  0  0  0
  -30.5518  -21.4280   26.4762 C   0  0  0  0  0  0  0  0  0  0  0  0
  -28.9590  -18.1994   22.8219 C   0  0  0  0  0  0  0  0  0  0  0  0
  -23.6272   -7.6284   21.5575 C   0  0  0  0  0  0  0  0  0  0  0  0
  -26.3533  -26.7677   26.3072 C   0  0  0  0  0  0  0  0  0  0  0  0
  -22.2825   -6.1807   22.8296 C   0  0  0  0  0  0  0  0  0  0  0  0
  -32.7246  -21.2326   28.2150 C   0  0  0  0  0  0  0  0  0  0  0  0
  -20.4198   -5.8236   24.8755 C   0  0  0  0  0  0  0  0  0  0  0  0
  -22.5957   -5.3763   23.9253 C   0  0  0  0  0  0  0  0  0  0  0  0
  -24.9353  -11.5725   20.7632 C   0  0  0  0  0  0  0  0  0  0  0  0
  -25.0306  -13.7385   20.3966 C   0  0  0  0  0  0  0  0  0  0  0  0
  -22.7182  -12.8759   20.7935 C   0  0  0  0  0  0  0  0  0  0  0  0
  -24.9979  -32.6208   24.2027 C   0  0  0  0  0  0  0  0  0  0  0  0
  -29.2893  -22.9081   24.8330 C   0  0  0  0  0  0  0  0  0  0  0  0
  -26.5425  -30.8316   22.2473 C   0  0  0  0  0  0  0  0  0  0  0  0
  -22.5571  -25.2269   23.5644 C   0  0  0  0  0  0  0  0  0  0  0  0
  -28.6469  -28.7625   20.5364 C   0  0  0  0  0  0  0  0  0  0  0  0
  -29.8511  -16.3545   21.3566 C   0  0  0  0  0  0  0  0  0  0  0  0
  -26.1747  -36.9949   21.8489 C   0  0  0  0  0  0  0  0  0  0  0  0
  -25.6804  -30.9975   25.9536 C   0  0  0  0  0  0  0  0  0  0  0  0
  -25.1509  -29.3199   23.7435 C   0  0  0  0  0  0  0  0  0  0  0  0
  -25.8055  -35.5816   21.4056 C   0  0  0  0  0  0  0  0  0  0  0  0
  -29.9337  -13.5601   19.1518 C   0  0  0  0  0  0  0  0  0  0  0  0
  -24.5596  -35.0994   22.1419 C   0  0  0  0  0  0  0  0  0  0  0  0
  -28.5751  -12.8889   19.3661 C   0  0  0  0  0  0  0  0  0  0  0  0
  -30.4955  -14.1314   20.4524 C   0  0  0  0  0  0  0  0  0  0  0  0
  -28.2299  -14.3581   21.3933 C   0  0  0  0  0  0  0  0  0  0  0  0
  -24.8015  -35.0400   23.6550 C   0  0  1  0  0  0  0  0  0  0  0  0
  -25.9840  -31.5436   24.5469 C   0  0  1  0  0  0  0  0  0  0  0  0
  -27.5938  -13.8244   20.0993 C   0  0  2  0  0  0  0  0  0  0  0  0
  -29.7689  -28.4994   18.3072 C   0  0  0  0  0  0  0  0  0  0  0  0
  -23.8995  -29.9179   21.0292 C   0  0  0  0  0  0  0  0  0  0  0  0
  -25.2059  -28.8062   19.2056 C   0  0  0  0  0  0  0  0  0  0  0  0
  -25.3372  -31.2796   19.5017 C   0  0  0  0  0  0  0  0  0  0  0  0
  -31.3438  -28.8838   21.7493 C   0  0  0  0  0  0  0  0  0  0  0  0
  -29.9160  -23.0169   23.4437 C   0  0  0  0  0  0  0  0  0  0  0  0
  -23.4596  -25.2428   22.3451 C   0  0  0  0  0  0  0  0  0  0  0  0
  -28.9066  -22.6654   22.3533 C   0  0  0  0  0  0  0  0  0  0  0  0
  -24.6022  -24.2295   22.4123 C   0  0  0  0  0  0  0  0  0  0  0  0
  -27.7057  -23.6111   22.3697 C   0  0  0  0  0  0  0  0  0  0  0  0
  -25.4987  -24.2848   21.1711 C   0  0  0  0  0  0  0  0  0  0  0  0
  -26.7036  -23.3394   21.2421 C   0  0  0  0  0  0  0  0  0  0  0  0
  -28.1731  -23.6825   26.7845 C   0  0  0  0  0  0  0  0  0  0  0  0
  -27.5927  -24.9907   27.2895 C   0  0  0  0  0  0  0  0  0  1  0  0
  -29.3648  -21.5359   25.5263 C   0  0  1  0  0  0  0  0  0  0  0  0
  -26.4726  -29.7683   21.1806 C   0  0  1  0  0  0  0  0  0  0  0  0
  -29.8955  -29.0458   19.7208 C   0  0  2  0  0  0  0  0  0  0  0  0
  -25.2335  -29.9364   20.2565 C   0  0  0  0  0  0  0  0  0  0  0  0
  -26.2340  -11.8237   20.5785 N   0  0  0  0  0  0  0  0  0  0  0  0
  -28.7414  -23.8917   25.4649 N   0  0  0  0  0  0  0  0  0  0  0  0
  -26.2599  -13.1491   20.3576 N   0  0  0  0  0  0  0  0  0  0  0  0
  -25.8865  -30.5608   23.4543 N   0  0  0  0  0  0  0  0  0  0  0  0
  -29.5128  -15.0111   21.0891 N   0  0  0  0  0  0  0  0  0  0  0  0
  -24.8757  -15.0644   20.1958 N   0  0  0  0  0  0  0  0  0  0  0  0
  -21.9506  -11.7353   21.0657 N   0  0  0  0  0  0  0  0  0  0  0  0
  -21.5377  -26.1505   23.4740 N   0  0  0  0  0  0  0  0  0  0  0  0
  -28.8261  -17.1033   21.9338 N   0  0  0  0  0  0  0  0  0  0  0  0
  -25.5693  -33.8623   23.9983 N   0  0  0  0  0  0  0  0  0  0  0  0
  -27.7511  -29.8092   20.4792 N   0  0  0  0  0  0  0  0  0  0  0  0
  -31.0862  -28.4194   20.3618 N   0  3  0  0  0  0  0  0  0  0  0  0
  -22.1453  -13.9835   20.6576 O   0  0  0  0  0  0  0  0  0  0  0  0
  -23.8059  -32.3468   24.1263 O   0  0  0  0  0  0  0  0  0  0  0  0
  -27.1564  -31.8773   22.0173 O   0  0  0  0  0  0  0  0  0  0  0  0
  -22.7007  -24.4627   24.5142 O   0  0  0  0  0  0  0  0  0  0  0  0
  -28.4812  -27.7158   21.1588 O   0  0  0  0  0  0  0  0  0  0  0  0
  -30.9589  -16.8146   21.0681 O   0  0  0  0  0  0  0  0  0  0  0  0
  -23.2064   -6.3596   21.8137 O   0  0  0  0  0  0  0  0  0  0  0  0
  -26.5557  -25.4155   26.4144 O   0  0  0  0  0  0  0  0  0  1  0  0
  -33.7670  -21.1409   29.0513 F   0  0  0  0  0  0  0  0  0  0  0  0
  -19.5259   -5.6534   25.8584 F   0  0  0  0  0  0  0  0  0  0  0  0
  -23.7900   -4.7734   24.0014 F   0  0  0  0  0  0  0  0  0  0  0  0
  1  2  1  0  0  0  0
  1  5  2  0  0  0  0
  2  6  2  0  0  0  0
  3 14  2  0  0  0  0
  3 23  1  0  0  0  0
  4 15  1  0  0  0  0
  4 23  2  0  0  0  0
  5 25  1  0  0  0  0
  6 27  1  0  0  0  0
  7 16  2  0  0  0  0
  7 26  1  0  0  0  0
  8 12  2  0  0  0  0
  8 29  1  0  0  0  0
  9 13  1  0  0  0  0
  9 29  2  0  0  0  0
 10 18  2  0  0  0  0
 10 30  1  0  0  0  0
 11 19  1  0  0  0  0
 11 30  2  0  0  0  0
 12 31  1  0  0  0  0
 13 31  2  0  0  0  0
 14 32  1  0  0  0  0
 15 32  2  0  0  0  0
 16 33  1  0  0  0  0
 17 20  2  0  0  0  0
 17 34  1  0  0  0  0
 18 35  1  0  0  0  0
 19 35  2  0  0  0  0
 20 36  1  0  0  0  0
 21 28  1  0  0  0  0
 21 33  2  0  0  0  0
 22 36  2  0  0  0  0
 22 37  1  0  0  0  0
 23 38  1  0  0  0  0
 24 38  1  0  0  0  0
 24 39  2  0  0  0  0
 24 40  1  0  0  0  0
 25 27  2  0  0  0  0
 25 47  1  0  0  0  0
 26 28  2  0  0  0  0
 26 48  1  0  0  0  0
 27 56  1  0  0  0  0
 28 49  1  0  0  0  0
 29 73  1  0  0  0  0
 30 73  1  0  0  0  0
 31 85  1  0  0  0  0
 32 95  1  0  0  0  0
 33 96  1  0  0  0  0
 34 37  2  0  0  0  0
 34 95  1  0  0  0  0
 35 97  1  0  0  0  0
 36 98  1  0  0  0  0
 37 99  1  0  0  0  0
 38 77  2  0  0  0  0
 39 79  1  0  0  0  0
 39 82  1  0  0  0  0
 40 83  1  0  0  0  0
 40 89  2  0  0  0  0
 41 57  1  0  0  0  0
 41 86  1  0  0  0  0
 41 90  2  0  0  0  0
 42 64  1  0  0  0  0
 42 73  1  0  0  0  0
 42 78  2  0  0  0  0
 43 74  1  0  0  0  0
 43 80  1  0  0  0  0
 43 91  2  0  0  0  0
 44 65  1  0  0  0  0
 44 84  1  0  0  0  0
 44 92  2  0  0  0  0
 45 75  1  0  0  0  0
 45 87  1  0  0  0  0
 45 93  2  0  0  0  0
 46 81  1  0  0  0  0
 46 85  1  0  0  0  0
 46 94  2  0  0  0  0
 47 50  1  0  0  0  0
 48 57  1  0  0  0  0
 49 80  1  0  0  0  0
 50 52  1  0  0  0  0
 51 53  1  0  0  0  0
 51 54  1  0  0  0  0
 52 56  1  0  0  0  0
 53 58  1  0  0  0  0
 54 81  1  0  0  0  0
 55 58  1  0  0  0  0
 55 81  1  0  0  0  0
 56 86  1  0  0  0  0
 57 80  1  0  0  0  0
 58 79  1  0  0  0  0
 59 75  1  0  0  0  0
 60 76  1  0  0  0  0
 61 76  1  0  0  0  0
 62 76  1  0  0  0  0
 63 88  1  0  0  0  0
 64 66  1  0  0  0  0
 65 67  1  0  0  0  0
 66 68  1  0  0  0  0
 67 69  1  0  0  0  0
 68 70  1  0  0  0  0
 69 70  1  0  0  0  0
 71 72  1  0  0  0  0
 71 78  1  0  0  0  0
 72 96  1  0  0  0  0
 74 76  1  0  0  0  0
 74 87  1  0  0  0  0
 75 88  1  0  0  0  0
 77 79  1  0  0  0  0
M  CHG  1  88   1
M  ISO  4  46 100  72 101  85 100  96 101
M  END
> <Batch ID>
0006

> <Smiles>
CNC(C)C(=O)NC(C(=O)N1Cc2cc([101O:1][101CH2:1]CNC(CCCCCCCC(N)=O)=C(c3ccc(F)cc3)c3ccc([100NH:0][100C:0](=O)N4CCCC(n5nc(-c6ccc(Oc7ccc(F)cc7F)cc6)c(C(N)=O)c5N)C4)cc3)ccc2CC1C(=O)NC1CCCc2ccccc21)C(C)(C)C

> <Shape>
0.305

> <Color>
0.140

> <Negative vol penalty>
0.000

$$$$

  -OEChem-04052315303D

 92100  0     1  0  0  0  0  0999 V2000
  -29.4239  -35.8818   25.7160 C   0  0  0  0  0  0  0  0  0  0  0  0
  -29.3504  -34.5033   25.8889 C   0  0  0  0  0  0  0  0  0  0  0  0
  -24.2767   -9.5265   21.4328 C   0  0  0  0  0  0  0  0  0  0  0  0
  -24.7405  -10.5920   23.5510 C   0  0  0  0  0  0  0  0  0  0  0  0
  -28.3016  -36.5904   25.2892 C   0  0  0  0  0  0  0  0  0  0  0  0
  -28.1542  -33.8328   25.6361 C   0  0  0  0  0  0  0  0  0  0  0  0
  -28.8367  -29.5777   22.9765 C   0  0  0  0  0  0  0  0  0  0  0  0
  -32.5676  -16.5084   22.6404 C   0  0  0  0  0  0  0  0  0  0  0  0
  -23.8939   -8.3638   22.1015 C   0  0  0  0  0  0  0  0  0  0  0  0
  -24.3577   -9.4293   24.2197 C   0  0  0  0  0  0  0  0  0  0  0  0
  -29.3070  -28.4627   23.6688 C   0  0  0  0  0  0  0  0  0  0  0  0
  -33.2729  -17.3258   23.5236 C   0  0  0  0  0  0  0  0  0  0  0  0
  -21.1836   -7.2308   23.7759 C   0  0  0  0  0  0  0  0  0  0  0  0
  -20.0141   -6.5970   23.3564 C   0  0  0  0  0  0  0  0  0  0  0  0
  -27.0598  -27.5928   23.7823 C   0  0  0  0  0  0  0  0  0  0  0  0
  -31.5787  -16.9673   25.2083 C   0  0  0  0  0  0  0  0  0  0  0  0
  -21.2781   -4.6024   22.8458 C   0  0  0  0  0  0  0  0  0  0  0  0
  -24.7001  -10.6406   22.1576 C   0  0  0  0  0  0  0  0  0  0  0  0
  -24.2727  -12.9240   21.1036 C   0  0  0  0  0  0  0  0  0  0  0  0
  -27.0937  -35.9270   25.0218 C   0  0  0  0  0  0  0  0  0  0  0  0
  -27.4706  -29.7142   22.6910 C   0  0  0  0  0  0  0  0  0  0  0  0
  -27.0143  -34.5334   25.2066 C   0  0  0  0  0  0  0  0  0  0  0  0
  -26.5751  -28.7093   23.0840 C   0  0  0  0  0  0  0  0  0  0  0  0
  -31.3678  -15.9204   23.0412 C   0  0  0  0  0  0  0  0  0  0  0  0
  -23.9344   -8.3151   23.4949 C   0  0  0  0  0  0  0  0  0  0  0  0
  -28.4181  -27.4714   24.0744 C   0  0  0  0  0  0  0  0  0  0  0  0
  -32.7784  -17.5552   24.8075 C   0  0  0  0  0  0  0  0  0  0  0  0
  -22.4005   -6.5504   23.7302 C   0  0  0  0  0  0  0  0  0  0  0  0
  -20.0613   -5.2828   22.8914 C   0  0  0  0  0  0  0  0  0  0  0  0
  -30.8734  -16.1499   24.3251 C   0  0  0  0  0  0  0  0  0  0  0  0
  -22.4477   -5.2362   23.2652 C   0  0  0  0  0  0  0  0  0  0  0  0
  -25.0962  -11.8418   21.4674 C   0  0  0  0  0  0  0  0  0  0  0  0
  -25.1199  -13.8044   20.4762 C   0  0  0  0  0  0  0  0  0  0  0  0
  -22.8676  -13.1163   21.3140 C   0  0  0  0  0  0  0  0  0  0  0  0
  -25.2140  -31.8115   23.4737 C   0  0  0  0  0  0  0  0  0  0  0  0
  -23.4272  -30.0763   21.3955 C   0  0  0  0  0  0  0  0  0  0  0  0
  -30.0171  -25.5933   26.7322 C   0  0  0  0  0  0  0  0  0  0  0  0
  -22.9077  -27.1032   19.8024 C   0  0  0  0  0  0  0  0  0  0  0  0
  -33.1152  -19.7125   25.6043 C   0  0  0  0  0  0  0  0  0  0  0  0
  -31.0073  -14.7620   20.8334 C   0  0  0  0  0  0  0  0  0  0  0  0
  -25.8940  -36.7419   24.6079 C   0  0  0  0  0  0  0  0  0  0  0  0
  -26.9829  -30.9101   21.9200 C   0  0  0  0  0  0  0  0  0  0  0  0
  -25.1018  -28.7985   22.7843 C   0  0  0  0  0  0  0  0  0  0  0  0
  -24.7698  -35.9062   24.0014 C   0  0  0  0  0  0  0  0  0  0  0  0
  -29.1592  -13.9282   17.9065 C   0  0  0  0  0  0  0  0  0  0  0  0
  -24.5037  -34.6700   24.8546 C   0  0  0  0  0  0  0  0  0  0  0  0
  -27.8303  -13.4027   18.4542 C   0  0  0  0  0  0  0  0  0  0  0  0
  -30.3376  -13.5191   18.7884 C   0  0  0  0  0  0  0  0  0  0  0  0
  -28.8685  -13.3353   20.7574 C   0  0  0  0  0  0  0  0  0  0  0  0
  -25.7415  -33.7671   24.9188 C   0  0  1  0  0  0  0  0  0  0  0  0
  -25.4994  -31.1945   22.1337 C   0  0  1  0  0  0  0  0  0  0  0  0
  -27.6449  -13.7768   19.9379 C   0  0  2  0  0  0  0  0  0  0  0  0
  -21.3452  -25.9770   18.1939 C   0  0  0  0  0  0  0  0  0  0  0  0
  -35.6659  -22.9498   26.8519 C   0  0  0  0  0  0  0  0  0  0  0  0
  -21.3580  -29.7782   23.6180 C   0  0  0  0  0  0  0  0  0  0  0  0
  -20.3240  -27.9108   22.3096 C   0  0  0  0  0  0  0  0  0  0  0  0
  -20.3978  -30.2122   21.3500 C   0  0  0  0  0  0  0  0  0  0  0  0
  -25.0720  -26.6535   17.8346 C   0  0  0  0  0  0  0  0  0  0  0  0
  -30.0288  -26.5633   25.5700 C   0  0  0  0  0  0  0  0  0  1  0  0
  -33.9378  -20.4925   26.5974 C   0  0  0  0  0  0  0  0  0  0  0  0
  -32.1578  -23.6589   28.3811 C   0  0  0  0  0  0  0  0  0  0  0  0
  -33.5287  -23.9400   27.7507 C   0  0  0  0  0  0  0  0  0  0  0  0
  -31.3762  -24.9331   28.7077 C   0  0  0  0  0  0  0  0  0  0  0  0
  -22.5319  -28.8659   21.5072 C   0  0  1  0  0  0  0  0  0  0  0  0
  -22.6303  -26.7757   18.3463 C   0  0  2  0  0  0  0  0  0  0  0  0
  -34.3006  -22.6498   27.4561 C   0  0  1  0  0  0  0  0  0  0  0  0
  -21.1804  -29.1908   22.2037 C   0  0  0  0  0  0  0  0  0  0  0  0
  -26.3689  -12.0164   21.1015 N   0  0  0  0  0  0  0  0  0  0  0  0
  -26.3514  -13.2186   20.5011 N   0  0  0  0  0  0  0  0  0  0  0  0
  -24.6728  -29.9900   22.0335 N   0  0  0  0  0  0  0  0  0  0  0  0
  -30.0933  -13.9094   20.1787 N   0  0  0  0  0  0  0  0  0  0  0  0
  -24.9242  -15.0146   19.9110 N   0  0  0  0  0  0  0  0  0  0  0  0
  -22.1475  -12.1124   21.9758 N   0  0  0  0  0  0  0  0  0  0  0  0
  -30.6537  -15.0906   22.1416 N   0  0  0  0  0  0  0  0  0  0  0  0
  -25.8748  -33.0046   23.6960 N   0  0  0  0  0  0  0  0  0  0  0  0
  -31.1399  -25.7385   27.5319 N   0  0  0  0  0  0  0  0  0  0  0  0
  -22.3950  -28.3334   20.1558 N   0  0  0  0  0  0  0  0  0  0  0  0
  -23.7505  -25.9777   17.7724 N   0  3  0  0  0  0  0  0  0  0  0  0
  -22.2651  -14.1406   20.9121 O   0  0  0  0  0  0  0  0  0  0  0  0
  -24.4495  -31.2478   24.2479 O   0  0  0  0  0  0  0  0  0  0  0  0
  -23.0388  -31.0592   20.7595 O   0  0  0  0  0  0  0  0  0  0  0  0
  -29.1092  -24.7871   26.9157 O   0  0  0  0  0  0  0  0  0  0  0  0
  -23.5150  -26.3421   20.5524 O   0  0  0  0  0  0  0  0  0  0  0  0
  -32.2728  -20.1915   24.8571 O   0  0  0  0  0  0  0  0  0  0  0  0
  -32.0144  -15.1924   20.2655 O   0  0  0  0  0  0  0  0  0  0  0  0
  -23.5607   -7.1808   24.1478 O   0  0  0  0  0  0  0  0  0  0  0  0
  -33.4854  -18.3729   25.6924 O   0  0  0  0  0  0  0  0  0  0  0  0
  -28.8744  -26.3823   24.7508 O   0  0  0  0  0  0  0  0  0  1  0  0
  -33.5545  -21.8582   26.5358 O   0  0  0  0  0  0  0  0  0  0  0  0
  -18.9378   -4.6737   22.4900 F   0  0  0  0  0  0  0  0  0  0  0  0
  -29.7210  -15.5903   24.7208 F   0  0  0  0  0  0  0  0  0  0  0  0
  -23.6136   -4.5771   23.2201 F   0  0  0  0  0  0  0  0  0  0  0  0
  1  2  1  0  0  0  0
  1  5  2  0  0  0  0
  2  6  2  0  0  0  0
  3  9  2  0  0  0  0
  3 18  1  0  0  0  0
  4 10  1  0  0  0  0
  4 18  2  0  0  0  0
  5 20  1  0  0  0  0
  6 22  1  0  0  0  0
  7 11  2  0  0  0  0
  7 21  1  0  0  0  0
  8 12  2  0  0  0  0
  8 24  1  0  0  0  0
  9 25  1  0  0  0  0
 10 25  2  0  0  0  0
 11 26  1  0  0  0  0
 12 27  1  0  0  0  0
 13 14  2  0  0  0  0
 13 28  1  0  0  0  0
 14 29  1  0  0  0  0
 15 23  1  0  0  0  0
 15 26  2  0  0  0  0
 16 27  2  0  0  0  0
 16 30  1  0  0  0  0
 17 29  2  0  0  0  0
 17 31  1  0  0  0  0
 18 32  1  0  0  0  0
 19 32  1  0  0  0  0
 19 33  2  0  0  0  0
 19 34  1  0  0  0  0
 20 22  2  0  0  0  0
 20 41  1  0  0  0  0
 21 23  2  0  0  0  0
 21 42  1  0  0  0  0
 22 50  1  0  0  0  0
 23 43  1  0  0  0  0
 24 30  2  0  0  0  0
 24 74  1  0  0  0  0
 25 86  1  0  0  0  0
 26 88  1  0  0  0  0
 27 87  1  0  0  0  0
 28 31  2  0  0  0  0
 28 86  1  0  0  0  0
 29 90  1  0  0  0  0
 30 91  1  0  0  0  0
 31 92  1  0  0  0  0
 32 68  2  0  0  0  0
 33 69  1  0  0  0  0
 33 72  1  0  0  0  0
 34 73  1  0  0  0  0
 34 79  2  0  0  0  0
 35 51  1  0  0  0  0
 35 75  1  0  0  0  0
 35 80  2  0  0  0  0
 36 64  1  0  0  0  0
 36 70  1  0  0  0  0
 36 81  2  0  0  0  0
 37 59  1  0  0  0  0
 37 76  1  0  0  0  0
 37 82  2  0  0  0  0
 38 65  1  0  0  0  0
 38 77  1  0  0  0  0
 38 83  2  0  0  0  0
 39 60  1  0  0  0  0
 39 84  2  0  0  0  0
 39 87  1  0  0  0  0
 40 71  1  0  0  0  0
 40 74  1  0  0  0  0
 40 85  2  0  0  0  0
 41 44  1  0  0  0  0
 42 51  1  0  0  0  0
 43 70  1  0  0  0  0
 44 46  1  0  0  0  0
 45 47  1  0  0  0  0
 45 48  1  0  0  0  0
 46 50  1  0  0  0  0
 47 52  1  0  0  0  0
 48 71  1  0  0  0  0
 49 52  1  0  0  0  0
 49 71  1  0  0  0  0
 50 75  1  0  0  0  0
 51 70  1  0  0  0  0
 52 69  1  0  0  0  0
 53 65  1  0  0  0  0
 54 66  1  0  0  0  0
 55 67  1  0  0  0  0
 56 67  1  0  0  0  0
 57 67  1  0  0  0  0
 58 78  1  0  0  0  0
 59 88  1  0  0  0  0
 60 89  1  0  0  0  0
 61 62  1  0  0  0  0
 61 63  1  0  0  0  0
 62 66  1  0  0  0  0
 63 76  1  0  0  0  0
 64 67  1  0  0  0  0
 64 77  1  0  0  0  0
 65 78  1  0  0  0  0
 66 89  1  0  0  0  0
 68 69  1  0  0  0  0
M  CHG  1  78   1
M  ISO  4  40 100  59 101  74 100  88 101
M  END
> <Batch ID>
0006

> <Smiles>
CNC(C)C(=O)NC(C(=O)N1Cc2cc([101O:1][101CH2:1]C(=O)NCCCC(C)OCC(=O)Oc3ccc([100NH:0][100C:0](=O)N4CCCC(n5nc(-c6ccc(Oc7ccc(F)cc7F)cc6)c(C(N)=O)c5N)C4)c(F)c3)ccc2CC1C(=O)NC1CCCc2ccccc21)C(C)(C)C

> <Shape>
0.286

> <Color>
0.118

> <Negative vol penalty>
0.000

$$$$

  -OEChem-04052315303D

 88 96  0     1  0  0  0  0  0999 V2000
  -17.6038  -29.6603   25.4916 C   0  0  0  0  0  0  0  0  0  0  0  0
  -18.6619  -29.1944   24.7178 C   0  0  0  0  0  0  0  0  0  0  0  0
  -23.3603   -9.5791   20.8383 C   0  0  0  0  0  0  0  0  0  0  0  0
  -23.9924  -10.3090   23.0529 C   0  0  0  0  0  0  0  0  0  0  0  0
  -17.6194  -30.9671   25.9773 C   0  0  0  0  0  0  0  0  0  0  0  0
  -19.7358  -30.0355   24.4283 C   0  0  0  0  0  0  0  0  0  0  0  0
  -24.2125  -27.7411   25.0103 C   0  0  0  0  0  0  0  0  0  0  0  0
  -22.7025   -8.4790   21.3885 C   0  0  0  0  0  0  0  0  0  0  0  0
  -23.3346   -9.2089   23.6032 C   0  0  0  0  0  0  0  0  0  0  0  0
  -24.6231  -26.8791   23.9943 C   0  0  0  0  0  0  0  0  0  0  0  0
  -19.7569   -7.8505   22.9252 C   0  0  0  0  0  0  0  0  0  0  0  0
  -18.4864   -7.5444   22.4377 C   0  0  0  0  0  0  0  0  0  0  0  0
  -26.0445  -28.6137   23.1054 C   0  0  0  0  0  0  0  0  0  0  0  0
  -29.9545  -20.2669   19.6286 C   0  0  0  0  0  0  0  0  0  0  0  0
  -30.7164  -17.9822   19.4372 C   0  0  0  0  0  0  0  0  0  0  0  0
  -19.2762   -5.3683   21.7461 C   0  0  0  0  0  0  0  0  0  0  0  0
  -24.0053  -10.4941   21.6704 C   0  0  0  0  0  0  0  0  0  0  0  0
  -24.1419  -12.9019   20.8389 C   0  0  0  0  0  0  0  0  0  0  0  0
  -18.6985  -31.8216   25.7017 C   0  0  0  0  0  0  0  0  0  0  0  0
  -24.7074  -29.0515   25.0753 C   0  0  0  0  0  0  0  0  0  0  0  0
  -19.7651  -31.3554   24.9097 C   0  0  0  0  0  0  0  0  0  0  0  0
  -25.6406  -29.4895   24.1247 C   0  0  0  0  0  0  0  0  0  0  0  0
  -30.7857  -19.3163   19.0360 C   0  0  0  0  0  0  0  0  0  0  0  0
  -28.9848  -18.5493   21.0238 C   0  0  0  0  0  0  0  0  0  0  0  0
  -29.0541  -19.8834   20.6225 C   0  0  0  0  0  0  0  0  0  0  0  0
  -29.8160  -17.5987   20.4311 C   0  0  0  0  0  0  0  0  0  0  0  0
  -22.6897   -8.2940   22.7710 C   0  0  0  0  0  0  0  0  0  0  0  0
  -25.5370  -27.3163   23.0400 C   0  0  0  0  0  0  0  0  0  0  0  0
  -20.7871   -6.9156   22.8231 C   0  0  0  0  0  0  0  0  0  0  0  0
  -18.2460   -6.3033   21.8482 C   0  0  0  0  0  0  0  0  0  0  0  0
  -20.5467   -5.6745   22.2336 C   0  0  0  0  0  0  0  0  0  0  0  0
  -24.6854  -11.6303   21.1026 C   0  0  0  0  0  0  0  0  0  0  0  0
  -25.1859  -13.6177   20.3059 C   0  0  0  0  0  0  0  0  0  0  0  0
  -22.8122  -13.3921   21.0564 C   0  0  0  0  0  0  0  0  0  0  0  0
  -23.4121  -31.9493   24.9065 C   0  0  0  0  0  0  0  0  0  0  0  0
  -26.4207  -32.9113   25.6448 C   0  0  0  0  0  0  0  0  0  0  0  0
  -28.1740  -22.2244   20.9184 C   0  0  0  0  0  0  0  0  0  0  0  0
  -29.7643  -32.2281   25.6388 C   0  0  0  0  0  0  0  0  0  0  0  0
  -30.5288  -15.1848   20.3241 C   0  0  0  0  0  0  0  0  0  0  0  0
  -18.6484  -33.2411   26.2090 C   0  0  0  0  0  0  0  0  0  0  0  0
  -24.2749  -29.9603   26.1931 C   0  0  0  0  0  0  0  0  0  0  0  0
  -26.2173  -30.8803   24.1619 C   0  0  0  0  0  0  0  0  0  0  0  0
  -19.9999  -33.9497   26.1703 C   0  0  0  0  0  0  0  0  0  0  0  0
  -29.7481  -12.1035   18.7200 C   0  0  0  0  0  0  0  0  0  0  0  0
  -20.6846  -33.7205   24.8267 C   0  0  0  0  0  0  0  0  0  0  0  0
  -28.3167  -11.8103   19.1752 C   0  0  0  0  0  0  0  0  0  0  0  0
  -30.5750  -12.7499   19.8300 C   0  0  0  0  0  0  0  0  0  0  0  0
  -28.5428  -13.6518   20.8911 C   0  0  0  0  0  0  0  0  0  0  0  0
  -20.9595  -32.2298   24.5948 C   0  0  1  0  0  0  0  0  0  0  0  0
  -24.4523  -31.4392   25.8633 C   0  0  1  0  0  0  0  0  0  0  0  0
  -27.6526  -13.0597   19.7864 C   0  0  2  0  0  0  0  0  0  0  0  0
  -28.0185  -18.1360   22.0906 C   0  0  0  0  0  0  0  0  0  0  0  0
  -31.9792  -33.2223   26.2736 C   0  0  0  0  0  0  0  0  0  0  0  0
  -32.7603  -20.7886   18.5075 C   0  0  0  0  0  0  0  0  0  0  0  0
  -31.0095  -20.3548   16.7517 C   0  0  0  0  0  0  0  0  0  0  0  0
  -32.6274  -18.5754   17.3822 C   0  0  0  0  0  0  0  0  0  0  0  0
  -26.3126  -34.7157   23.1866 C   0  0  0  0  0  0  0  0  0  0  0  0
  -28.8025  -34.9371   23.3258 C   0  0  0  0  0  0  0  0  0  0  0  0
  -27.3727  -35.7561   25.1986 C   0  0  0  0  0  0  0  0  0  0  0  0
  -30.3234  -30.0475   27.5601 C   0  0  0  0  0  0  0  0  0  0  0  0
  -27.1330  -22.9209   21.7839 C   0  0  0  0  0  0  0  0  0  0  0  0
  -27.0415  -24.4168   21.5031 C   0  0  0  0  0  0  0  0  0  0  0  0
  -25.9626  -25.0820   22.3453 C   0  0  0  0  0  0  0  0  0  1  0  0
  -27.6542  -33.2678   24.8508 C   0  0  1  0  0  0  0  0  0  0  0  0
  -30.8190  -32.3484   26.7240 C   0  0  2  0  0  0  0  0  0  0  0  0
  -31.7488  -19.7272   17.9739 C   0  0  0  0  0  0  0  0  0  0  0  0
  -27.5233  -34.6435   24.1384 C   0  0  0  0  0  0  0  0  0  0  0  0
  -25.9745  -11.5404   20.7648 N   0  0  0  0  0  0  0  0  0  0  0  0
  -26.2497  -12.7646   20.2833 N   0  0  0  0  0  0  0  0  0  0  0  0
  -25.7585  -31.7335   25.2706 N   0  0  0  0  0  0  0  0  0  0  0  0
  -29.8858  -13.9293   20.3580 N   0  0  0  0  0  0  0  0  0  0  0  0
  -25.2884  -14.8874   19.8589 N   0  0  0  0  0  0  0  0  0  0  0  0
  -21.8627  -12.5241   21.6126 N   0  0  0  0  0  0  0  0  0  0  0  0
  -28.2204  -20.8641   21.2105 N   0  0  0  0  0  0  0  0  0  0  0  0
  -29.7636  -16.2382   20.8236 N   0  0  0  0  0  0  0  0  0  0  0  0
  -22.1138  -31.8041   25.3569 N   0  0  0  0  0  0  0  0  0  0  0  0
  -28.7765  -33.1798   25.7788 N   0  0  0  0  0  0  0  0  0  0  0  0
  -31.3537  -31.0031   27.0781 N   0  3  0  0  0  0  0  0  0  0  0  0
  -22.4717  -14.5601   20.7508 O   0  0  0  0  0  0  0  0  0  0  0  0
  -23.7615  -32.4397   23.8392 O   0  0  0  0  0  0  0  0  0  0  0  0
  -26.0621  -33.6470   26.5678 O   0  0  0  0  0  0  0  0  0  0  0  0
  -28.8485  -22.8330   20.0945 O   0  0  0  0  0  0  0  0  0  0  0  0
  -29.8140  -31.3774   24.7530 O   0  0  0  0  0  0  0  0  0  0  0  0
  -31.6635  -15.3204   19.8592 O   0  0  0  0  0  0  0  0  0  0  0  0
  -22.0477   -7.2208   23.3083 O   0  0  0  0  0  0  0  0  0  0  0  0
  -25.9389  -26.4772   22.0469 O   0  0  0  0  0  0  0  0  0  1  0  0
  -17.0255   -6.0089   21.3814 F   0  0  0  0  0  0  0  0  0  0  0  0
  -21.5321   -4.7718   22.1338 F   0  0  0  0  0  0  0  0  0  0  0  0
  1  2  1  0  0  0  0
  1  5  2  0  0  0  0
  2  6  2  0  0  0  0
  3  8  2  0  0  0  0
  3 17  1  0  0  0  0
  4  9  1  0  0  0  0
  4 17  2  0  0  0  0
  5 19  1  0  0  0  0
  6 21  1  0  0  0  0
  7 10  2  0  0  0  0
  7 20  1  0  0  0  0
  8 27  1  0  0  0  0
  9 27  2  0  0  0  0
 10 28  1  0  0  0  0
 11 12  2  0  0  0  0
 11 29  1  0  0  0  0
 12 30  1  0  0  0  0
 13 22  1  0  0  0  0
 13 28  2  0  0  0  0
 14 23  2  0  0  0  0
 14 25  1  0  0  0  0
 15 23  1  0  0  0  0
 15 26  2  0  0  0  0
 16 30  2  0  0  0  0
 16 31  1  0  0  0  0
 17 32  1  0  0  0  0
 18 32  1  0  0  0  0
 18 33  2  0  0  0  0
 18 34  1  0  0  0  0
 19 21  2  0  0  0  0
 19 40  1  0  0  0  0
 20 22  2  0  0  0  0
 20 41  1  0  0  0  0
 21 49  1  0  0  0  0
 22 42  1  0  0  0  0
 23 66  1  0  0  0  0
 24 25  2  0  0  0  0
 24 26  1  0  0  0  0
 24 52  1  0  0  0  0
 25 74  1  0  0  0  0
 26 75  1  0  0  0  0
 27 85  1  0  0  0  0
 28 86  1  0  0  0  0
 29 31  2  0  0  0  0
 29 85  1  0  0  0  0
 30 87  1  0  0  0  0
 31 88  1  0  0  0  0
 32 68  2  0  0  0  0
 33 69  1  0  0  0  0
 33 72  1  0  0  0  0
 34 73  1  0  0  0  0
 34 79  2  0  0  0  0
 35 50  1  0  0  0  0
 35 76  1  0  0  0  0
 35 80  2  0  0  0  0
 36 64  1  0  0  0  0
 36 70  1  0  0  0  0
 36 81  2  0  0  0  0
 37 61  1  0  0  0  0
 37 74  1  0  0  0  0
 37 82  2  0  0  0  0
 38 65  1  0  0  0  0
 38 77  1  0  0  0  0
 38 83  2  0  0  0  0
 39 71  1  0  0  0  0
 39 75  1  0  0  0  0
 39 84  2  0  0  0  0
 40 43  1  0  0  0  0
 41 50  1  0  0  0  0
 42 70  1  0  0  0  0
 43 45  1  0  0  0  0
 44 46  1  0  0  0  0
 44 47  1  0  0  0  0
 45 49  1  0  0  0  0
 46 51  1  0  0  0  0
 47 71  1  0  0  0  0
 48 51  1  0  0  0  0
 48 71  1  0  0  0  0
 49 76  1  0  0  0  0
 50 70  1  0  0  0  0
 51 69  1  0  0  0  0
 53 65  1  0  0  0  0
 54 66  1  0  0  0  0
 55 66  1  0  0  0  0
 56 66  1  0  0  0  0
 57 67  1  0  0  0  0
 58 67  1  0  0  0  0
 59 67  1  0  0  0  0
 60 78  1  0  0  0  0
 61 62  1  0  0  0  0
 62 63  1  0  0  0  0
 63 86  1  0  0  0  0
 64 67  1  0  0  0  0
 64 77  1  0  0  0  0
 65 78  1  0  0  0  0
 68 69  1  0  0  0  0
M  CHG  1  78   1
M  ISO  4  39 100  63 101  75 100  86 101
M  END
> <Batch ID>
0006

> <Smiles>
CNC(C)C(=O)NC(C(=O)N1Cc2cc([101O:1][101CH2:1]CCC(=O)Nc3cc(C(C)(C)C)cc([100NH:0][100C:0](=O)N4CCCC(n5nc(-c6ccc(Oc7ccc(F)cc7F)cc6)c(C(N)=O)c5N)C4)c3C)ccc2CC1C(=O)NC1CCCc2ccccc21)C(C)(C)C

> <Shape>
0.286

> <Color>
0.163

> <Negative vol penalty>
0.000

$$$$

  -OEChem-04052315303D

105113  0     1  0  0  0  0  0999 V2000
  -22.5599  -33.7825   23.2249 C   0  0  0  0  0  0  0  0  0  0  0  0
  -23.5597  -32.8281   23.0675 C   0  0  0  0  0  0  0  0  0  0  0  0
  -28.0625  -11.5874   22.3652 C   0  0  0  0  0  0  0  0  0  0  0  0
  -26.9896  -12.0696   20.2548 C   0  0  0  0  0  0  0  0  0  0  0  0
  -21.2477  -33.3815   23.4726 C   0  0  0  0  0  0  0  0  0  0  0  0
  -23.2481  -31.4720   23.1587 C   0  0  0  0  0  0  0  0  0  0  0  0
  -25.4101  -28.7308   19.4904 C   0  0  0  0  0  0  0  0  0  0  0  0
  -27.1273  -22.5347   17.3242 C   0  0  0  0  0  0  0  0  0  0  0  0
  -27.5858  -21.7218   18.3608 C   0  0  0  0  0  0  0  0  0  0  0  0
  -27.1007  -10.6129   22.6315 C   0  0  0  0  0  0  0  0  0  0  0  0
  -26.0279  -11.0950   20.5211 C   0  0  0  0  0  0  0  0  0  0  0  0
  -26.7618  -28.4227   19.6383 C   0  0  0  0  0  0  0  0  0  0  0  0
  -23.0824   -8.9849   20.8063 C   0  0  0  0  0  0  0  0  0  0  0  0
  -21.7481   -9.3055   20.5566 C   0  0  0  0  0  0  0  0  0  0  0  0
  -26.1678  -26.2210   20.4248 C   0  0  0  0  0  0  0  0  0  0  0  0
  -26.9453  -19.7595   17.1054 C   0  0  0  0  0  0  0  0  0  0  0  0
  -21.8892  -11.1257   22.1390 C   0  0  0  0  0  0  0  0  0  0  0  0
  -28.0069  -12.3158   21.1769 C   0  0  0  0  0  0  0  0  0  0  0  0
  -30.2280  -13.1466   20.2366 C   0  0  0  0  0  0  0  0  0  0  0  0
  -20.9181  -32.0196   23.5572 C   0  0  0  0  0  0  0  0  0  0  0  0
  -24.4252  -27.7884   19.8195 C   0  0  0  0  0  0  0  0  0  0  0  0
  -21.9305  -31.0524   23.4090 C   0  0  0  0  0  0  0  0  0  0  0  0
  -24.8044  -26.5187   20.2778 C   0  0  0  0  0  0  0  0  0  0  0  0
  -26.5778  -21.9599   16.1781 C   0  0  0  0  0  0  0  0  0  0  0  0
  -27.4948  -20.3342   18.2514 C   0  0  0  0  0  0  0  0  0  0  0  0
  -26.4868  -20.5724   16.0687 C   0  0  0  0  0  0  0  0  0  0  0  0
  -26.0834  -10.3666   21.7094 C   0  0  0  0  0  0  0  0  0  0  0  0
  -27.1407  -27.1687   20.1083 C   0  0  0  0  0  0  0  0  0  0  0  0
  -23.8201   -9.7347   21.7225 C   0  0  0  0  0  0  0  0  0  0  0  0
  -21.1515  -10.3759   21.2229 C   0  0  0  0  0  0  0  0  0  0  0  0
  -23.2235  -10.8051   22.3888 C   0  0  0  0  0  0  0  0  0  0  0  0
  -28.9998  -13.3230   20.9015 C   0  0  0  0  0  0  0  0  0  0  0  0
  -30.7981  -14.3962   20.2313 C   0  0  0  0  0  0  0  0  0  0  0  0
  -30.8021  -11.9594   19.6740 C   0  0  0  0  0  0  0  0  0  0  0  0
  -22.0523  -27.6681   21.9310 C   0  0  0  0  0  0  0  0  0  0  0  0
  -21.3375  -24.9069   20.3859 C   0  0  0  0  0  0  0  0  0  0  0  0
  -25.7730  -18.6140   14.6607 C   0  0  0  0  0  0  0  0  0  0  0  0
  -25.4054  -18.6390   10.7901 C   0  0  0  0  0  0  0  0  0  0  0  0
  -22.4115  -22.3051   18.4561 C   0  0  0  0  0  0  0  0  0  0  0  0
  -28.5323  -19.9183   20.5091 C   0  0  0  0  0  0  0  0  0  0  0  0
  -19.4943  -31.6356   23.8735 C   0  0  0  0  0  0  0  0  0  0  0  0
  -22.9721  -28.1270   19.6290 C   0  0  0  0  0  0  0  0  0  0  0  0
  -23.7864  -25.4646   20.6257 C   0  0  0  0  0  0  0  0  0  0  0  0
  -19.1798  -30.1703   23.5831 C   0  0  0  0  0  0  0  0  0  0  0  0
  -30.9035  -18.4749   22.7387 C   0  0  0  0  0  0  0  0  0  0  0  0
  -20.2777  -29.2685   24.1382 C   0  0  0  0  0  0  0  0  0  0  0  0
  -30.8005  -16.9744   22.4558 C   0  0  0  0  0  0  0  0  0  0  0  0
  -29.5427  -19.1634   22.6502 C   0  0  0  0  0  0  0  0  0  0  0  0
  -28.7038  -17.4254   21.1189 C   0  0  0  0  0  0  0  0  0  0  0  0
  -21.6275  -29.5713   23.4764 C   0  0  1  0  0  0  0  0  0  0  0  0
  -22.0421  -27.2699   20.4822 C   0  0  1  0  0  0  0  0  0  0  0  0
  -30.0592  -16.7000   21.1326 C   0  0  2  0  0  0  0  0  0  0  0  0
  -26.0948  -22.8552   15.0835 C   0  0  0  0  0  0  0  0  0  0  0  0
  -22.2635  -20.2236   17.0623 C   0  0  0  0  0  0  0  0  0  0  0  0
  -21.3883  -23.5197   23.1030 C   0  0  0  0  0  0  0  0  0  0  0  0
  -21.5304  -21.3270   21.9029 C   0  0  0  0  0  0  0  0  0  0  0  0
  -19.5332  -22.7892   21.5933 C   0  0  0  0  0  0  0  0  0  0  0  0
  -21.9115  -23.8558   15.9854 C   0  0  0  0  0  0  0  0  0  0  0  0
  -33.1885  -24.2767   19.8521 C   0  0  0  0  0  0  0  0  0  0  0  0
  -25.1355  -18.3605   13.3041 C   0  0  0  0  0  0  0  0  0  0  0  0
  -25.9791  -18.9303   12.1681 C   0  0  0  0  0  0  0  0  0  0  0  0
  -30.6465  -19.8779    9.7492 C   0  0  0  0  0  0  0  0  0  0  0  0
  -31.3006  -19.6931   11.1200 C   0  0  0  0  0  0  0  0  0  0  0  0
  -30.9107  -18.7162    8.7864 C   0  0  0  0  0  0  0  0  0  0  0  0
  -30.9780  -20.8653   12.0495 C   0  0  0  0  0  0  0  0  0  0  0  0
  -30.3186  -18.8690    7.3815 C   0  0  0  0  0  0  0  0  0  0  0  0
  -31.6574  -20.7001   13.4100 C   0  0  0  0  0  0  0  0  0  0  0  0
  -28.7902  -18.9425    7.3123 C   0  0  0  0  0  0  0  0  0  0  0  0
  -31.3615  -21.8881   14.3271 C   0  0  0  0  0  0  0  0  0  0  0  0
  -28.0429  -17.7504    7.9189 C   0  0  0  0  0  0  0  0  0  0  0  0
  -32.0676  -21.7393   15.6768 C   0  0  0  0  0  0  0  0  0  0  0  0
  -26.5182  -17.7893    7.7884 C   0  0  0  0  0  0  0  0  0  0  0  0
  -31.8018  -22.9493   16.5769 C   0  0  0  0  0  0  0  0  0  0  0  0
  -30.2645  -25.4376   19.5657 C   0  0  0  0  0  0  0  0  0  0  0  0
  -25.8922  -19.0468    8.3795 C   0  0  0  0  0  0  0  0  0  0  0  0
  -32.4731  -22.8495   17.9411 C   0  0  0  0  0  0  0  0  0  0  0  0
  -30.7677  -24.0222   19.3258 C   0  0  0  0  0  0  0  0  0  0  0  0
  -28.8347  -25.4996   20.0888 C   0  0  0  0  0  0  0  0  0  1  0  0
  -21.7343  -23.4591   20.5452 C   0  0  1  0  0  0  0  0  0  0  0  0
  -21.8332  -21.6756   17.2017 C   0  0  2  0  0  0  0  0  0  0  0  0
  -21.0659  -22.7941   21.7815 C   0  0  0  0  0  0  0  0  0  0  0  0
  -28.8007  -14.5852   21.2906 N   0  0  0  0  0  0  0  0  0  0  0  0
  -29.9115  -15.2132   20.8688 N   0  0  0  0  0  0  0  0  0  0  0  0
  -22.3781  -25.8457   20.4284 N   0  0  0  0  0  0  0  0  0  0  0  0
  -28.9013  -18.8619   21.3685 N   0  0  0  0  0  0  0  0  0  0  0  0
  -31.9665  -14.8647   19.7436 N   0  0  0  0  0  0  0  0  0  0  0  0
  -30.0823  -10.7604   19.7668 N   0  0  0  0  0  0  0  0  0  0  0  0
  -25.9324  -19.9707   14.9142 N   0  0  0  0  0  0  0  0  0  0  0  0
  -27.9606  -19.5089   19.3048 N   0  0  0  0  0  0  0  0  0  0  0  0
  -21.6866  -28.9815   22.1561 N   0  0  0  0  0  0  0  0  0  0  0  0
  -26.1986  -19.1722    9.7783 N   0  0  0  0  0  0  0  0  0  0  0  0
  -21.4243  -22.8090   19.2764 N   0  0  0  0  0  0  0  0  0  0  0  0
  -22.2876  -22.4186   15.9924 N   0  3  0  0  0  0  0  0  0  0  0  0
  -32.1687  -24.0440   18.7633 N   0  3  1  0  0  0  0  0  0  0  0  0
  -31.9277  -11.9584   19.1202 O   0  0  0  0  0  0  0  0  0  0  0  0
  -22.3671  -26.8442   22.7818 O   0  0  0  0  0  0  0  0  0  0  0  0
  -20.1490  -25.1938   20.2223 O   0  0  0  0  0  0  0  0  0  0  0  0
  -26.0740  -17.6735   15.3902 O   0  0  0  0  0  0  0  0  0  0  0  0
  -24.3671  -18.0086   10.6110 O   0  0  0  0  0  0  0  0  0  0  0  0
  -23.6181  -22.3426   18.6871 O   0  0  0  0  0  0  0  0  0  0  0  0
  -28.7352  -21.0982   20.8068 O   0  0  0  0  0  0  0  0  0  0  0  0
  -25.1449   -9.4156   21.9688 O   0  0  0  0  0  0  0  0  0  0  0  0
  -28.4686  -26.8635   20.2552 O   0  0  0  0  0  0  0  0  0  1  0  0
  -19.8706  -10.6847   20.9818 F   0  0  0  0  0  0  0  0  0  0  0  0
  -23.9275  -11.5297   23.2692 F   0  0  0  0  0  0  0  0  0  0  0  0
  1  2  1  0  0  0  0
  1  5  2  0  0  0  0
  2  6  2  0  0  0  0
  3 10  2  0  0  0  0
  3 18  1  0  0  0  0
  4 11  1  0  0  0  0
  4 18  2  0  0  0  0
  5 20  1  0  0  0  0
  6 22  1  0  0  0  0
  7 12  2  0  0  0  0
  7 21  1  0  0  0  0
  8  9  2  0  0  0  0
  8 24  1  0  0  0  0
  9 25  1  0  0  0  0
 10 27  1  0  0  0  0
 11 27  2  0  0  0  0
 12 28  1  0  0  0  0
 13 14  2  0  0  0  0
 13 29  1  0  0  0  0
 14 30  1  0  0  0  0
 15 23  1  0  0  0  0
 15 28  2  0  0  0  0
 16 25  2  0  0  0  0
 16 26  1  0  0  0  0
 17 30  2  0  0  0  0
 17 31  1  0  0  0  0
 18 32  1  0  0  0  0
 19 32  1  0  0  0  0
 19 33  2  0  0  0  0
 19 34  1  0  0  0  0
 20 22  2  0  0  0  0
 20 41  1  0  0  0  0
 21 23  2  0  0  0  0
 21 42  1  0  0  0  0
 22 50  1  0  0  0  0
 23 43  1  0  0  0  0
 24 26  2  0  0  0  0
 24 53  1  0  0  0  0
 25 89  1  0  0  0  0
 26 88  1  0  0  0  0
 27102  1  0  0  0  0
 28103  1  0  0  0  0
 29 31  2  0  0  0  0
 29102  1  0  0  0  0
 30104  1  0  0  0  0
 31105  1  0  0  0  0
 32 82  2  0  0  0  0
 33 83  1  0  0  0  0
 33 86  1  0  0  0  0
 34 87  1  0  0  0  0
 34 95  2  0  0  0  0
 35 51  1  0  0  0  0
 35 90  1  0  0  0  0
 35 96  2  0  0  0  0
 36 79  1  0  0  0  0
 36 84  1  0  0  0  0
 36 97  2  0  0  0  0
 37 60  1  0  0  0  0
 37 88  1  0  0  0  0
 37 98  2  0  0  0  0
 38 61  1  0  0  0  0
 38 91  1  0  0  0  0
 38 99  2  0  0  0  0
 39 80  1  0  0  0  0
 39 92  1  0  0  0  0
 39100  2  0  0  0  0
 40 85  1  0  0  0  0
 40 89  1  0  0  0  0
 40101  2  0  0  0  0
 41 44  1  0  0  0  0
 42 51  1  0  0  0  0
 43 84  1  0  0  0  0
 44 46  1  0  0  0  0
 45 47  1  0  0  0  0
 45 48  1  0  0  0  0
 46 50  1  0  0  0  0
 47 52  1  0  0  0  0
 48 85  1  0  0  0  0
 49 52  1  0  0  0  0
 49 85  1  0  0  0  0
 50 90  1  0  0  0  0
 51 84  1  0  0  0  0
 52 83  1  0  0  0  0
 54 80  1  0  0  0  0
 55 81  1  0  0  0  0
 56 81  1  0  0  0  0
 57 81  1  0  0  0  0
 58 93  1  0  0  0  0
 59 94  1  0  0  0  0
 60 61  1  0  0  0  0
 62 63  1  0  0  0  0
 62 64  1  0  0  0  0
 63 65  1  0  0  0  0
 64 66  1  0  0  0  0
 65 67  1  0  0  0  0
 66 68  1  0  0  0  0
 67 69  1  0  0  0  0
 68 70  1  0  0  0  0
 69 71  1  0  0  0  0
 70 72  1  0  0  0  0
 71 73  1  0  0  0  0
 72 75  1  0  0  0  0
 73 76  1  0  0  0  0
 74 77  1  0  0  0  0
 74 78  1  0  0  0  0
 75 91  1  0  0  0  0
 76 94  1  0  0  0  0
 77 94  1  0  0  0  0
 78103  1  0  0  0  0
 79 81  1  0  0  0  0
 79 92  1  0  0  0  0
 80 93  1  0  0  0  0
 82 83  1  0  0  0  0
M  CHG  2  93   1  94   1
M  ISO  4  40 100  78 101  89 100 103 101
M  END
> <Batch ID>
0006

> <Smiles>
CNC(C)C(=O)NC(C(=O)N1Cc2cc([101O:1][101CH2:1]CCN(C)CCCCCCCCCCCCCCNC(=O)CCC(=O)Nc3cc([100NH:0][100C:0](=O)N4CCCC(n5nc(-c6ccc(Oc7ccc(F)cc7F)cc6)c(C(N)=O)c5N)C4)ccc3C)ccc2CC1C(=O)NC1CCCc2ccccc21)C(C)(C)C

> <Shape>
0.231

> <Color>
0.064

> <Negative vol penalty>
0.000

$$$$

  -OEChem-04052315303D

 88 96  0     1  0  0  0  0  0999 V2000
  -29.1815  -30.6016   27.0861 C   0  0  0  0  0  0  0  0  0  0  0  0
  -28.9329  -29.7452   26.0184 C   0  0  0  0  0  0  0  0  0  0  0  0
  -30.7509  -13.1976   18.6793 C   0  0  0  0  0  0  0  0  0  0  0  0
  -30.5176  -11.3159   20.1766 C   0  0  0  0  0  0  0  0  0  0  0  0
  -28.1258  -31.2769   27.6971 C   0  0  0  0  0  0  0  0  0  0  0  0
  -27.6280  -29.5627   25.5617 C   0  0  0  0  0  0  0  0  0  0  0  0
  -27.3004  -29.7025   20.5101 C   0  0  0  0  0  0  0  0  0  0  0  0
  -31.3000  -20.4329   19.8165 C   0  0  0  0  0  0  0  0  0  0  0  0
  -31.5016  -19.0531   19.8508 C   0  0  0  0  0  0  0  0  0  0  0  0
  -31.9430  -12.6620   18.1918 C   0  0  0  0  0  0  0  0  0  0  0  0
  -31.7097  -10.7803   19.6891 C   0  0  0  0  0  0  0  0  0  0  0  0
  -27.6959  -28.5608   19.8146 C   0  0  0  0  0  0  0  0  0  0  0  0
  -35.2339  -11.9689   16.8087 C   0  0  0  0  0  0  0  0  0  0  0  0
  -36.3186  -12.8319   16.6529 C   0  0  0  0  0  0  0  0  0  0  0  0
  -25.3845  -27.9122   19.5772 C   0  0  0  0  0  0  0  0  0  0  0  0
  -36.2592  -13.3330   19.0156 C   0  0  0  0  0  0  0  0  0  0  0  0
  -30.0382  -12.5246   19.6717 C   0  0  0  0  0  0  0  0  0  0  0  0
  -27.6386  -13.3595   19.4433 C   0  0  0  0  0  0  0  0  0  0  0  0
  -26.8085  -31.1100   27.2415 C   0  0  0  0  0  0  0  0  0  0  0  0
  -25.9424  -29.9525   20.7543 C   0  0  0  0  0  0  0  0  0  0  0  0
  -26.5535  -30.2353   26.1680 C   0  0  0  0  0  0  0  0  0  0  0  0
  -24.9743  -29.0592   20.2738 C   0  0  0  0  0  0  0  0  0  0  0  0
  -30.2201  -20.9971   20.4956 C   0  0  0  0  0  0  0  0  0  0  0  0
  -30.6233  -18.2375   20.5642 C   0  0  0  0  0  0  0  0  0  0  0  0
  -29.3417  -20.1814   21.2090 C   0  0  0  0  0  0  0  0  0  0  0  0
  -29.5433  -18.8016   21.2433 C   0  0  0  0  0  0  0  0  0  0  0  0
  -32.4224  -11.4533   18.6967 C   0  0  0  0  0  0  0  0  0  0  0  0
  -26.7381  -27.6639   19.3505 C   0  0  0  0  0  0  0  0  0  0  0  0
  -34.6618  -11.7880   18.0679 C   0  0  0  0  0  0  0  0  0  0  0  0
  -36.8313  -13.5139   17.7563 C   0  0  0  0  0  0  0  0  0  0  0  0
  -35.1745  -12.4700   19.1714 C   0  0  0  0  0  0  0  0  0  0  0  0
  -28.8071  -13.0777   20.1761 C   0  0  0  0  0  0  0  0  0  0  0  0
  -26.7642  -13.8669   20.3730 C   0  0  0  0  0  0  0  0  0  0  0  0
  -27.3678  -13.1788   18.0469 C   0  0  0  0  0  0  0  0  0  0  0  0
  -24.1491  -30.2459   23.3624 C   0  0  0  0  0  0  0  0  0  0  0  0
  -21.8533  -31.0576   21.2193 C   0  0  0  0  0  0  0  0  0  0  0  0
  -27.2605  -17.9038   21.6619 C   0  0  0  0  0  0  0  0  0  0  0  0
  -28.1946  -24.0125   19.7207 C   0  0  0  0  0  0  0  0  0  0  0  0
  -20.6862  -30.8805   18.0173 C   0  0  0  0  0  0  0  0  0  0  0  0
  -29.0911  -17.3807   23.1818 C   0  0  0  0  0  0  0  0  0  0  0  0
  -25.6944  -31.8249   27.9642 C   0  0  0  0  0  0  0  0  0  0  0  0
  -25.5307  -31.2024   21.4829 C   0  0  0  0  0  0  0  0  0  0  0  0
  -23.5024  -29.2921   20.4921 C   0  0  0  0  0  0  0  0  0  0  0  0
  -24.3860  -31.8648   27.1787 C   0  0  0  0  0  0  0  0  0  0  0  0
  -28.7843  -14.0631   24.6698 C   0  0  0  0  0  0  0  0  0  0  0  0
  -24.0654  -30.4881   26.6053 C   0  0  0  0  0  0  0  0  0  0  0  0
  -27.4321  -13.5658   24.1596 C   0  0  0  0  0  0  0  0  0  0  0  0
  -28.8024  -15.5733   24.8433 C   0  0  0  0  0  0  0  0  0  0  0  0
  -27.0530  -15.8465   23.1117 C   0  0  0  0  0  0  0  0  0  0  0  0
  -25.1548  -30.0303   25.6280 C   0  0  1  0  0  0  0  0  0  0  0  0
  -24.1497  -31.0940   22.1220 C   0  0  1  0  0  0  0  0  0  0  0  0
  -26.9170  -14.3214   22.9166 C   0  0  1  0  0  0  0  0  0  0  0  0
  -30.8655  -16.7627   20.5816 C   0  0  0  0  0  0  0  0  0  0  0  0
  -28.1842  -20.7935   21.9342 C   0  0  0  0  0  0  0  0  0  0  0  0
  -26.9547  -17.7465   20.1875 C   0  0  0  0  0  0  0  0  0  0  0  0
  -18.7650  -31.6112   16.5776 C   0  0  0  0  0  0  0  0  0  0  0  0
  -20.0971  -28.8998   22.4721 C   0  0  0  0  0  0  0  0  0  0  0  0
  -18.6276  -29.0192   20.4486 C   0  0  0  0  0  0  0  0  0  0  0  0
  -18.9003  -31.0225   21.9097 C   0  0  0  0  0  0  0  0  0  0  0  0
  -22.4623  -32.4420   16.2380 C   0  0  0  0  0  0  0  0  0  0  0  0
  -30.0266  -22.4850   20.4417 C   0  0  0  0  0  0  0  0  0  0  0  0
  -27.1311  -24.1423   18.6414 C   0  0  0  0  0  0  0  0  0  0  0  0
  -26.2854  -25.3977   18.7888 C   0  0  0  0  0  0  0  0  0  1  0  0
  -20.8158  -30.3007   20.4259 C   0  0  1  0  0  0  0  0  0  0  0  0
  -20.1614  -31.9495   17.0758 C   0  0  2  0  0  0  0  0  0  0  0  0
  -19.6379  -29.8049   21.3115 C   0  0  0  0  0  0  0  0  0  0  0  0
  -28.6890  -13.3810   21.4715 N   0  0  0  0  0  0  0  0  0  0  0  0
  -27.4360  -13.8588   21.5599 N   0  0  0  0  0  0  0  0  0  0  0  0
  -23.1503  -30.5251   21.2154 N   0  0  0  0  0  0  0  0  0  0  0  0
  -28.3682  -16.2540   23.6265 N   0  0  0  0  0  0  0  0  0  0  0  0
  -25.4939  -14.3148   20.2829 N   0  0  0  0  0  0  0  0  0  0  0  0
  -26.8244  -11.9579   17.6243 N   0  0  0  0  0  0  0  0  0  0  0  0
  -25.0017  -30.6962   24.3522 N   0  0  0  0  0  0  0  0  0  0  0  0
  -28.9467  -22.8582   19.5567 N   0  0  0  0  0  0  0  0  0  0  0  0
  -20.4134  -31.1817   19.3349 N   0  0  0  0  0  0  0  0  0  0  0  0
  -28.6314  -17.9525   21.9823 N   0  0  0  0  0  0  0  0  0  0  0  0
  -21.0609  -32.0873   15.8956 N   0  3  0  0  0  0  0  0  0  0  0  0
  -27.6160  -14.0673   17.1970 O   0  0  0  0  0  0  0  0  0  0  0  0
  -23.4275  -29.2570   23.4178 O   0  0  0  0  0  0  0  0  0  0  0  0
  -21.5266  -32.0874   21.8146 O   0  0  0  0  0  0  0  0  0  0  0  0
  -26.3280  -17.8912   22.4673 O   0  0  0  0  0  0  0  0  0  0  0  0
  -28.3501  -24.8386   20.6158 O   0  0  0  0  0  0  0  0  0  0  0  0
  -21.2755  -29.8767   17.6229 O   0  0  0  0  0  0  0  0  0  0  0  0
  -30.0818  -17.8339   23.7649 O   0  0  0  0  0  0  0  0  0  0  0  0
  -33.5855  -10.9302   18.2211 O   0  0  0  0  0  0  0  0  0  0  0  0
  -27.1213  -26.5484   18.6719 O   0  0  0  0  0  0  0  0  0  1  0  0
  -37.8739  -14.3414   17.6068 F   0  0  0  0  0  0  0  0  0  0  0  0
  -34.6298  -12.2994   20.3838 F   0  0  0  0  0  0  0  0  0  0  0  0
  1  2  1  0  0  0  0
  1  5  2  0  0  0  0
  2  6  2  0  0  0  0
  3 10  2  0  0  0  0
  3 17  1  0  0  0  0
  4 11  1  0  0  0  0
  4 17  2  0  0  0  0
  5 19  1  0  0  0  0
  6 21  1  0  0  0  0
  7 12  2  0  0  0  0
  7 20  1  0  0  0  0
  8  9  2  0  0  0  0
  8 23  1  0  0  0  0
  9 24  1  0  0  0  0
 10 27  1  0  0  0  0
 11 27  2  0  0  0  0
 12 28  1  0  0  0  0
 13 14  2  0  0  0  0
 13 29  1  0  0  0  0
 14 30  1  0  0  0  0
 15 22  1  0  0  0  0
 15 28  2  0  0  0  0
 16 30  2  0  0  0  0
 16 31  1  0  0  0  0
 17 32  1  0  0  0  0
 18 32  1  0  0  0  0
 18 33  2  0  0  0  0
 18 34  1  0  0  0  0
 19 21  2  0  0  0  0
 19 41  1  0  0  0  0
 20 22  2  0  0  0  0
 20 42  1  0  0  0  0
 21 50  1  0  0  0  0
 22 43  1  0  0  0  0
 23 25  2  0  0  0  0
 23 61  1  0  0  0  0
 24 26  2  0  0  0  0
 24 53  1  0  0  0  0
 25 26  1  0  0  0  0
 25 54  1  0  0  0  0
 26 76  1  0  0  0  0
 27 85  1  0  0  0  0
 28 86  1  0  0  0  0
 29 31  2  0  0  0  0
 29 85  1  0  0  0  0
 30 87  1  0  0  0  0
 31 88  1  0  0  0  0
 32 67  2  0  0  0  0
 33 68  1  0  0  0  0
 33 71  1  0  0  0  0
 34 72  1  0  0  0  0
 34 78  2  0  0  0  0
 35 51  1  0  0  0  0
 35 73  1  0  0  0  0
 35 79  2  0  0  0  0
 36 64  1  0  0  0  0
 36 69  1  0  0  0  0
 36 80  2  0  0  0  0
 37 55  1  0  0  0  0
 37 76  1  0  0  0  0
 37 81  2  0  0  0  0
 38 62  1  0  0  0  0
 38 74  1  0  0  0  0
 38 82  2  0  0  0  0
 39 65  1  0  0  0  0
 39 75  1  0  0  0  0
 39 83  2  0  0  0  0
 40 70  1  0  0  0  0
 40 76  1  0  0  0  0
 40 84  2  0  0  0  0
 41 44  1  0  0  0  0
 42 51  1  0  0  0  0
 43 69  1  0  0  0  0
 44 46  1  0  0  0  0
 45 47  1  0  0  0  0
 45 48  1  0  0  0  0
 46 50  1  0  0  0  0
 47 52  1  0  0  0  0
 48 70  1  0  0  0  0
 49 52  1  0  0  0  0
 49 70  1  0  0  0  0
 50 73  1  0  0  0  0
 51 69  1  0  0  0  0
 52 68  1  0  0  0  0
 56 65  1  0  0  0  0
 57 66  1  0  0  0  0
 58 66  1  0  0  0  0
 59 66  1  0  0  0  0
 60 77  1  0  0  0  0
 61 74  1  0  0  0  0
 62 63  1  0  0  0  0
 63 86  1  0  0  0  0
 64 66  1  0  0  0  0
 64 75  1  0  0  0  0
 65 77  1  0  0  0  0
 67 68  1  0  0  0  0
M  CHG  1  77   1
M  ISO  4  40 100  63 101  76 100  86 101
M  END
> <Batch ID>
0006

> <Smiles>
CNC(C)C(=O)NC(C(=O)N1Cc2cc([101O:1][101CH2:1]CC(=O)NCc3ccc(C)c([100N:0](C(C)=O)[100C:0](=O)N4CCCC(n5nc(-c6ccc(Oc7ccc(F)cc7F)cc6)c(C(N)=O)c5N)C4)c3C)ccc2CC1C(=O)NC1CCCc2ccccc21)C(C)(C)C

> <Shape>
0.249

> <Color>
0.066

> <Negative vol penalty>
0.000

$$$$

  -OEChem-04052315303D

 86 94  0     1  0  0  0  0  0999 V2000
  -17.7142  -30.9694   23.5552 C   0  0  0  0  0  0  0  0  0  0  0  0
  -19.1006  -31.0540   23.4779 C   0  0  0  0  0  0  0  0  0  0  0  0
  -24.5516  -13.7684   20.0085 C   0  0  0  0  0  0  0  0  0  0  0  0
  -26.4084  -13.8108   21.5536 C   0  0  0  0  0  0  0  0  0  0  0  0
  -17.0814  -29.7387   23.3857 C   0  0  0  0  0  0  0  0  0  0  0  0
  -19.8553  -29.9075   23.2321 C   0  0  0  0  0  0  0  0  0  0  0  0
  -25.0486  -29.5397   20.0073 C   0  0  0  0  0  0  0  0  0  0  0  0
  -24.5676  -12.3738   20.0275 C   0  0  0  0  0  0  0  0  0  0  0  0
  -26.4244  -12.4162   21.5728 C   0  0  0  0  0  0  0  0  0  0  0  0
  -26.3891  -29.5047   20.3887 C   0  0  0  0  0  0  0  0  0  0  0  0
  -23.5062   -9.8982   22.0715 C   0  0  0  0  0  0  0  0  0  0  0  0
  -22.2840   -9.2376   22.1952 C   0  0  0  0  0  0  0  0  0  0  0  0
  -29.2188  -24.0913   23.8789 C   0  0  0  0  0  0  0  0  0  0  0  0
  -26.3553  -27.0958   20.2649 C   0  0  0  0  0  0  0  0  0  0  0  0
  -30.1855  -23.7499   21.2843 C   0  0  0  0  0  0  0  0  0  0  0  0
  -22.6617   -8.1418   20.0753 C   0  0  0  0  0  0  0  0  0  0  0  0
  -25.4721  -14.4869   20.7715 C   0  0  0  0  0  0  0  0  0  0  0  0
  -30.3242  -24.8228   23.4446 C   0  0  0  0  0  0  0  0  0  0  0  0
  -24.7292  -16.7816   21.6025 C   0  0  0  0  0  0  0  0  0  0  0  0
  -17.8281  -28.5781   23.1281 C   0  0  0  0  0  0  0  0  0  0  0  0
  -24.3472  -28.3505   19.7619 C   0  0  0  0  0  0  0  0  0  0  0  0
  -19.2320  -28.6598   23.0603 C   0  0  0  0  0  0  0  0  0  0  0  0
  -25.0066  -27.1185   19.8780 C   0  0  0  0  0  0  0  0  0  0  0  0
  -29.0801  -23.0183   21.7186 C   0  0  0  0  0  0  0  0  0  0  0  0
  -25.5040  -11.6977   20.8097 C   0  0  0  0  0  0  0  0  0  0  0  0
  -27.0419  -28.2826   20.5204 C   0  0  0  0  0  0  0  0  0  0  0  0
  -24.3062   -9.6807   20.9497 C   0  0  0  0  0  0  0  0  0  0  0  0
  -21.8617   -8.3594   21.1972 C   0  0  0  0  0  0  0  0  0  0  0  0
  -28.5968  -23.1890   23.0159 C   0  0  0  0  0  0  0  0  0  0  0  0
  -30.8075  -24.6521   22.1473 C   0  0  0  0  0  0  0  0  0  0  0  0
  -23.8839   -8.8025   19.9516 C   0  0  0  0  0  0  0  0  0  0  0  0
  -25.4564  -15.9276   20.7518 C   0  0  0  0  0  0  0  0  0  0  0  0
  -25.0543  -18.0469   21.1784 C   0  0  0  0  0  0  0  0  0  0  0  0
  -30.9770  -25.7739   24.3581 C   0  0  0  0  0  0  0  0  0  0  0  0
  -23.8395  -16.4599   22.6797 C   0  0  0  0  0  0  0  0  0  0  0  0
  -21.8107  -26.9352   21.0531 C   0  0  0  0  0  0  0  0  0  0  0  0
  -22.2009  -24.8608   18.5900 C   0  0  0  0  0  0  0  0  0  0  0  0
  -24.2901  -23.4670   16.2792 C   0  0  0  0  0  0  0  0  0  0  0  0
  -28.8032  -21.8160   19.5222 C   0  0  0  0  0  0  0  0  0  0  0  0
  -17.1028  -27.2621   22.9988 C   0  0  0  0  0  0  0  0  0  0  0  0
  -22.9089  -28.4064   19.3253 C   0  0  0  0  0  0  0  0  0  0  0  0
  -24.3041  -25.8143   19.6063 C   0  0  0  0  0  0  0  0  0  0  0  0
  -17.9498  -26.1591   22.3695 C   0  0  0  0  0  0  0  0  0  0  0  0
  -27.5261  -19.6017   17.0438 C   0  0  0  0  0  0  0  0  0  0  0  0
  -19.3368  -26.1237   23.0033 C   0  0  0  0  0  0  0  0  0  0  0  0
  -26.8139  -18.5187   17.8575 C   0  0  0  0  0  0  0  0  0  0  0  0
  -28.7978  -20.0876   17.7368 C   0  0  0  0  0  0  0  0  0  0  0  0
  -27.9066  -19.4419   19.9409 C   0  0  0  0  0  0  0  0  0  0  0  0
  -20.0835  -27.4427   22.7707 C   0  0  1  0  0  0  0  0  0  0  0  0
  -22.1502  -27.1117   19.6001 C   0  0  1  0  0  0  0  0  0  0  0  0
  -26.5854  -18.9671   19.3143 C   0  0  2  0  0  0  0  0  0  0  0  0
  -24.3306  -21.7731   14.4282 C   0  0  0  0  0  0  0  0  0  0  0  0
  -22.2252  -22.6119   20.6519 C   0  0  0  0  0  0  0  0  0  0  0  0
  -23.1992  -21.1109   18.9007 C   0  0  0  0  0  0  0  0  0  0  0  0
  -20.9352  -22.1047   18.5703 C   0  0  0  0  0  0  0  0  0  0  0  0
  -31.1444  -28.0537   25.2792 C   0  0  0  0  0  0  0  0  0  0  0  0
  -25.0323  -25.5092   14.2698 C   0  0  0  0  0  0  0  0  0  0  0  0
  -29.9207  -28.7574   22.6339 C   0  0  0  0  0  0  0  0  0  0  0  0
  -29.4493  -27.6244   23.5353 C   0  0  0  0  0  0  0  0  0  0  0  0
  -28.8155  -29.2993   21.7355 C   0  0  0  0  0  0  0  0  0  1  0  0
  -22.9774  -23.5831   18.3810 C   0  0  1  0  0  0  0  0  0  0  0  0
  -24.1319  -23.2375   14.7870 C   0  0  2  0  0  0  0  0  0  0  0  0
  -22.3472  -22.3770   19.1331 C   0  0  0  0  0  0  0  0  0  0  0  0
  -26.1882  -16.5941   19.8549 N   0  0  0  0  0  0  0  0  0  0  0  0
  -25.9224  -17.8803   20.1397 N   0  0  0  0  0  0  0  0  0  0  0  0
  -22.8965  -25.9210   19.1883 N   0  0  0  0  0  0  0  0  0  0  0  0
  -28.5036  -20.5000   19.1110 N   0  0  0  0  0  0  0  0  0  0  0  0
  -24.6794  -19.2745   21.5963 N   0  0  0  0  0  0  0  0  0  0  0  0
  -23.6175  -15.1095   22.9824 N   0  0  0  0  0  0  0  0  0  0  0  0
  -28.4492  -22.1029   20.8402 N   0  0  0  0  0  0  0  0  0  0  0  0
  -20.6035  -27.4979   21.4212 N   0  0  0  0  0  0  0  0  0  0  0  0
  -23.0804  -23.3995   16.9374 N   0  0  0  0  0  0  0  0  0  0  0  0
  -30.5057  -27.1059   24.3597 N   0  0  0  0  0  0  0  0  0  0  0  0
  -25.1288  -24.0463   14.0300 N   0  3  0  0  0  0  0  0  0  0  0  0
  -31.8813  -25.3219   25.0595 O   0  0  0  0  0  0  0  0  0  0  0  0
  -23.2458  -17.3434   23.3434 O   0  0  0  0  0  0  0  0  0  0  0  0
  -22.5859  -26.3318   21.7857 O   0  0  0  0  0  0  0  0  0  0  0  0
  -21.0228  -24.9184   18.2289 O   0  0  0  0  0  0  0  0  0  0  0  0
  -25.3785  -23.6809   16.8086 O   0  0  0  0  0  0  0  0  0  0  0  0
  -29.3097  -22.6369   18.7530 O   0  0  0  0  0  0  0  0  0  0  0  0
  -25.5197  -10.3368   20.8287 O   0  0  0  0  0  0  0  0  0  0  0  0
  -28.3501  -28.2456   20.8933 O   0  0  0  0  0  0  0  0  0  1  0  0
  -20.6887   -7.7238   21.3168 F   0  0  0  0  0  0  0  0  0  0  0  0
  -27.5352  -22.4910   23.4442 F   0  0  0  0  0  0  0  0  0  0  0  0
  -31.8686  -25.3506   21.7183 F   0  0  0  0  0  0  0  0  0  0  0  0
  -24.6487   -8.5886   18.8722 F   0  0  0  0  0  0  0  0  0  0  0  0
  1  2  1  0  0  0  0
  1  5  2  0  0  0  0
  2  6  2  0  0  0  0
  3  8  2  0  0  0  0
  3 17  1  0  0  0  0
  4  9  1  0  0  0  0
  4 17  2  0  0  0  0
  5 20  1  0  0  0  0
  6 22  1  0  0  0  0
  7 10  2  0  0  0  0
  7 21  1  0  0  0  0
  8 25  1  0  0  0  0
  9 25  2  0  0  0  0
 10 26  1  0  0  0  0
 11 12  2  0  0  0  0
 11 27  1  0  0  0  0
 12 28  1  0  0  0  0
 13 18  1  0  0  0  0
 13 29  2  0  0  0  0
 14 23  1  0  0  0  0
 14 26  2  0  0  0  0
 15 24  2  0  0  0  0
 15 30  1  0  0  0  0
 16 28  2  0  0  0  0
 16 31  1  0  0  0  0
 17 32  1  0  0  0  0
 18 30  2  0  0  0  0
 18 34  1  0  0  0  0
 19 32  1  0  0  0  0
 19 33  2  0  0  0  0
 19 35  1  0  0  0  0
 20 22  2  0  0  0  0
 20 40  1  0  0  0  0
 21 23  2  0  0  0  0
 21 41  1  0  0  0  0
 22 49  1  0  0  0  0
 23 42  1  0  0  0  0
 24 29  1  0  0  0  0
 24 70  1  0  0  0  0
 25 81  1  0  0  0  0
 26 82  1  0  0  0  0
 27 31  2  0  0  0  0
 27 81  1  0  0  0  0
 28 83  1  0  0  0  0
 29 84  1  0  0  0  0
 30 85  1  0  0  0  0
 31 86  1  0  0  0  0
 32 64  2  0  0  0  0
 33 65  1  0  0  0  0
 33 68  1  0  0  0  0
 34 73  1  0  0  0  0
 34 75  2  0  0  0  0
 35 69  1  0  0  0  0
 35 76  2  0  0  0  0
 36 50  1  0  0  0  0
 36 71  1  0  0  0  0
 36 77  2  0  0  0  0
 37 61  1  0  0  0  0
 37 66  1  0  0  0  0
 37 78  2  0  0  0  0
 38 62  1  0  0  0  0
 38 72  1  0  0  0  0
 38 79  2  0  0  0  0
 39 67  1  0  0  0  0
 39 70  1  0  0  0  0
 39 80  2  0  0  0  0
 40 43  1  0  0  0  0
 41 50  1  0  0  0  0
 42 66  1  0  0  0  0
 43 45  1  0  0  0  0
 44 46  1  0  0  0  0
 44 47  1  0  0  0  0
 45 49  1  0  0  0  0
 46 51  1  0  0  0  0
 47 67  1  0  0  0  0
 48 51  1  0  0  0  0
 48 67  1  0  0  0  0
 49 71  1  0  0  0  0
 50 66  1  0  0  0  0
 51 65  1  0  0  0  0
 52 62  1  0  0  0  0
 53 63  1  0  0  0  0
 54 63  1  0  0  0  0
 55 63  1  0  0  0  0
 56 73  1  0  0  0  0
 57 74  1  0  0  0  0
 58 59  1  0  0  0  0
 58 60  1  0  0  0  0
 59 73  1  0  0  0  0
 60 82  1  0  0  0  0
 61 63  1  0  0  0  0
 61 72  1  0  0  0  0
 62 74  1  0  0  0  0
 64 65  1  0  0  0  0
M  CHG  1  74   1
M  ISO  4  39 100  60 101  70 100  82 101
M  END
> <Batch ID>
0006

> <Smiles>
CNC(C)C(=O)NC(C(=O)N1Cc2cc([101O:1][101CH2:1]CCN(C)C(=O)c3cc(F)c([100NH:0][100C:0](=O)N4CCCC(n5nc(-c6ccc(Oc7ccc(F)cc7F)cc6)c(C(N)=O)c5N)C4)cc3F)ccc2CC1C(=O)NC1CCCc2ccccc21)C(C)(C)C

> <Shape>
0.222

> <Color>
0.092

> <Negative vol penalty>
0.000

$$$$

  -OEChem-04052315303D

 85 93  0     1  0  0  0  0  0999 V2000
  -18.1709  -30.8328   19.4095 C   0  0  0  0  0  0  0  0  0  0  0  0
  -19.4799  -30.4988   19.0774 C   0  0  0  0  0  0  0  0  0  0  0  0
  -26.6171  -12.8842   21.7459 C   0  0  0  0  0  0  0  0  0  0  0  0
  -26.0390  -14.1566   19.7751 C   0  0  0  0  0  0  0  0  0  0  0  0
  -17.7761  -30.8551   20.7465 C   0  0  0  0  0  0  0  0  0  0  0  0
  -20.3953  -30.1878   20.0823 C   0  0  0  0  0  0  0  0  0  0  0  0
  -23.1636  -26.0909   18.9886 C   0  0  0  0  0  0  0  0  0  0  0  0
  -30.4513  -22.9555   20.1208 C   0  0  0  0  0  0  0  0  0  0  0  0
  -25.3353  -12.3345   21.7670 C   0  0  0  0  0  0  0  0  0  0  0  0
  -24.7572  -13.6068   19.7962 C   0  0  0  0  0  0  0  0  0  0  0  0
  -24.2169  -26.2554   18.0901 C   0  0  0  0  0  0  0  0  0  0  0  0
  -30.4604  -24.0806   19.2964 C   0  0  0  0  0  0  0  0  0  0  0  0
  -23.6420   -9.8999   20.1427 C   0  0  0  0  0  0  0  0  0  0  0  0
  -23.5292   -8.5264   20.3578 C   0  0  0  0  0  0  0  0  0  0  0  0
  -25.7675  -26.3552   19.9353 C   0  0  0  0  0  0  0  0  0  0  0  0
  -29.2640  -22.8463   17.5987 C   0  0  0  0  0  0  0  0  0  0  0  0
  -22.2170   -8.9450   22.3427 C   0  0  0  0  0  0  0  0  0  0  0  0
  -26.9689  -13.7953   20.7500 C   0  0  0  0  0  0  0  0  0  0  0  0
  -29.4259  -13.8543   20.0663 C   0  0  0  0  0  0  0  0  0  0  0  0
  -18.6846  -30.5348   21.7677 C   0  0  0  0  0  0  0  0  0  0  0  0
  -23.4035  -26.0681   20.3701 C   0  0  0  0  0  0  0  0  0  0  0  0
  -20.0127  -30.2071   21.4343 C   0  0  0  0  0  0  0  0  0  0  0  0
  -24.7159  -26.1877   20.8492 C   0  0  0  0  0  0  0  0  0  0  0  0
  -29.2550  -21.7211   18.4231 C   0  0  0  0  0  0  0  0  0  0  0  0
  -29.8487  -21.7757   19.6841 C   0  0  0  0  0  0  0  0  0  0  0  0
  -24.4054  -12.6958   20.7922 C   0  0  0  0  0  0  0  0  0  0  0  0
  -25.5187  -26.3905   18.5635 C   0  0  0  0  0  0  0  0  0  0  0  0
  -29.8668  -24.0260   18.0354 C   0  0  0  0  0  0  0  0  0  0  0  0
  -23.0424  -10.7960   21.0277 C   0  0  0  0  0  0  0  0  0  0  0  0
  -22.8167   -8.0489   21.4577 C   0  0  0  0  0  0  0  0  0  0  0  0
  -22.3298  -10.3185   22.1276 C   0  0  0  0  0  0  0  0  0  0  0  0
  -28.2926  -14.3640   20.7280 C   0  0  0  0  0  0  0  0  0  0  0  0
  -30.4240  -14.7533   20.3528 C   0  0  0  0  0  0  0  0  0  0  0  0
  -29.5640  -12.6739   19.2642 C   0  0  0  0  0  0  0  0  0  0  0  0
  -22.5090  -27.8688   22.8320 C   0  0  0  0  0  0  0  0  0  0  0  0
  -24.0136  -25.5711   24.5580 C   0  0  0  0  0  0  0  0  0  0  0  0
  -26.3561  -23.0913   24.6597 C   0  0  0  0  0  0  0  0  0  0  0  0
  -30.4037  -20.5476   21.8125 C   0  0  0  0  0  0  0  0  0  0  0  0
  -18.2241  -30.6186   23.2015 C   0  0  0  0  0  0  0  0  0  0  0  0
  -22.2597  -25.8631   21.3250 C   0  0  0  0  0  0  0  0  0  0  0  0
  -25.0290  -26.1495   22.3219 C   0  0  0  0  0  0  0  0  0  0  0  0
  -19.1558  -29.9117   24.1826 C   0  0  0  0  0  0  0  0  0  0  0  0
  -31.7984  -17.8782   23.7115 C   0  0  0  0  0  0  0  0  0  0  0  0
  -20.6084  -30.2826   23.9012 C   0  0  0  0  0  0  0  0  0  0  0  0
  -31.1654  -16.6273   23.0977 C   0  0  0  0  0  0  0  0  0  0  0  0
  -30.8178  -19.0489   23.7509 C   0  0  0  0  0  0  0  0  0  0  0  0
  -29.5517  -18.1211   21.8521 C   0  0  0  0  0  0  0  0  0  0  0  0
  -21.0282  -29.8396   22.4944 C   0  0  1  0  0  0  0  0  0  0  0  0
  -22.5581  -26.3703   22.7325 C   0  0  1  0  0  0  0  0  0  0  0  0
  -30.5214  -16.9341   21.7315 C   0  0  2  0  0  0  0  0  0  0  0  0
  -27.3859  -21.4170   26.2197 C   0  0  0  0  0  0  0  0  0  0  0  0
  -28.8426  -26.8374   15.9247 C   0  0  0  0  0  0  0  0  0  0  0  0
  -28.0176  -20.6697   16.4972 C   0  0  0  0  0  0  0  0  0  0  0  0
  -27.4300  -20.0410   18.8627 C   0  0  0  0  0  0  0  0  0  0  0  0
  -29.5381  -19.2225   17.8297 C   0  0  0  0  0  0  0  0  0  0  0  0
  -25.6377  -27.7961   25.8700 C   0  0  0  0  0  0  0  0  0  0  0  0
  -27.2478  -26.0538   26.6702 C   0  0  0  0  0  0  0  0  0  0  0  0
  -24.8738  -26.0007   27.4344 C   0  0  0  0  0  0  0  0  0  0  0  0
  -25.4468  -20.8143   23.0021 C   0  0  0  0  0  0  0  0  0  0  0  0
  -27.8228  -26.0466   18.0852 C   0  0  0  0  0  0  0  0  0  1  0  0
  -25.4238  -25.3565   25.0523 C   0  0  1  0  0  0  0  0  0  0  0  0
  -26.2961  -21.6701   25.1897 C   0  0  2  0  0  0  0  0  0  0  0  0
  -28.6034  -25.6473   16.8390 C   0  0  2  0  0  0  0  0  0  0  0  0
  -28.6022  -20.4711   17.9289 C   0  0  0  0  0  0  0  0  0  0  0  0
  -25.7900  -26.3045   26.2290 C   0  0  0  0  0  0  0  0  0  0  0  0
  -28.5463  -15.4986   21.3855 N   0  0  0  0  0  0  0  0  0  0  0  0
  -29.8504  -15.7093   21.1385 N   0  0  0  0  0  0  0  0  0  0  0  0
  -23.8759  -25.9533   23.2160 N   0  0  0  0  0  0  0  0  0  0  0  0
  -30.2508  -19.2839   22.4212 N   0  0  0  0  0  0  0  0  0  0  0  0
  -31.7276  -14.8113   20.0070 N   0  0  0  0  0  0  0  0  0  0  0  0
  -28.4381  -11.8619   19.0712 N   0  0  0  0  0  0  0  0  0  0  0  0
  -29.8517  -20.6430   20.5355 N   0  0  0  0  0  0  0  0  0  0  0  0
  -21.2932  -28.4170   22.4706 N   0  0  0  0  0  0  0  0  0  0  0  0
  -25.5327  -23.9373   25.3722 N   0  0  0  0  0  0  0  0  0  0  0  0
  -26.4663  -20.6944   24.0761 N   0  3  0  0  0  0  0  0  0  0  0  0
  -30.6574  -12.3402   18.7480 O   0  0  0  0  0  0  0  0  0  0  0  0
  -23.5002  -28.4820   23.2102 O   0  0  0  0  0  0  0  0  0  0  0  0
  -23.0687  -25.3987   25.3320 O   0  0  0  0  0  0  0  0  0  0  0  0
  -27.0656  -23.4191   23.7111 O   0  0  0  0  0  0  0  0  0  0  0  0
  -31.0054  -21.4684   22.3711 O   0  0  0  0  0  0  0  0  0  0  0  0
  -23.1546  -12.1594   20.8123 O   0  0  0  0  0  0  0  0  0  0  0  0
  -26.5485  -26.5519   17.6887 O   0  0  0  0  0  0  0  0  0  1  0  0
  -29.8752  -25.1298   17.2271 O   0  0  0  0  0  0  0  0  0  0  0  0
  -22.7072   -6.7298   21.6633 F   0  0  0  0  0  0  0  0  0  0  0  0
  -21.7506  -11.1745   22.9806 F   0  0  0  0  0  0  0  0  0  0  0  0
  1  2  1  0  0  0  0
  1  5  2  0  0  0  0
  2  6  2  0  0  0  0
  3  9  2  0  0  0  0
  3 18  1  0  0  0  0
  4 10  1  0  0  0  0
  4 18  2  0  0  0  0
  5 20  1  0  0  0  0
  6 22  1  0  0  0  0
  7 11  2  0  0  0  0
  7 21  1  0  0  0  0
  8 12  2  0  0  0  0
  8 25  1  0  0  0  0
  9 26  1  0  0  0  0
 10 26  2  0  0  0  0
 11 27  1  0  0  0  0
 12 28  1  0  0  0  0
 13 14  2  0  0  0  0
 13 29  1  0  0  0  0
 14 30  1  0  0  0  0
 15 23  1  0  0  0  0
 15 27  2  0  0  0  0
 16 24  1  0  0  0  0
 16 28  2  0  0  0  0
 17 30  2  0  0  0  0
 17 31  1  0  0  0  0
 18 32  1  0  0  0  0
 19 32  1  0  0  0  0
 19 33  2  0  0  0  0
 19 34  1  0  0  0  0
 20 22  2  0  0  0  0
 20 39  1  0  0  0  0
 21 23  2  0  0  0  0
 21 40  1  0  0  0  0
 22 48  1  0  0  0  0
 23 41  1  0  0  0  0
 24 25  2  0  0  0  0
 24 64  1  0  0  0  0
 25 72  1  0  0  0  0
 26 81  1  0  0  0  0
 27 82  1  0  0  0  0
 28 83  1  0  0  0  0
 29 31  2  0  0  0  0
 29 81  1  0  0  0  0
 30 84  1  0  0  0  0
 31 85  1  0  0  0  0
 32 66  2  0  0  0  0
 33 67  1  0  0  0  0
 33 70  1  0  0  0  0
 34 71  1  0  0  0  0
 34 76  2  0  0  0  0
 35 49  1  0  0  0  0
 35 73  1  0  0  0  0
 35 77  2  0  0  0  0
 36 61  1  0  0  0  0
 36 68  1  0  0  0  0
 36 78  2  0  0  0  0
 37 62  1  0  0  0  0
 37 74  1  0  0  0  0
 37 79  2  0  0  0  0
 38 69  1  0  0  0  0
 38 72  1  0  0  0  0
 38 80  2  0  0  0  0
 39 42  1  0  0  0  0
 40 49  1  0  0  0  0
 41 68  1  0  0  0  0
 42 44  1  0  0  0  0
 43 45  1  0  0  0  0
 43 46  1  0  0  0  0
 44 48  1  0  0  0  0
 45 50  1  0  0  0  0
 46 69  1  0  0  0  0
 47 50  1  0  0  0  0
 47 69  1  0  0  0  0
 48 73  1  0  0  0  0
 49 68  1  0  0  0  0
 50 67  1  0  0  0  0
 51 62  1  0  0  0  0
 52 63  1  0  0  0  0
 53 64  1  0  0  0  0
 54 64  1  0  0  0  0
 55 64  1  0  0  0  0
 56 65  1  0  0  0  0
 57 65  1  0  0  0  0
 58 65  1  0  0  0  0
 59 75  1  0  0  0  0
 60 63  1  0  0  0  0
 60 82  1  0  0  0  0
 61 65  1  0  0  0  0
 61 74  1  0  0  0  0
 62 75  1  0  0  0  0
 63 83  1  0  0  0  0
 66 67  1  0  0  0  0
M  CHG  1  75   1
M  ISO  4  38 100  60 101  72 100  82 101
M  END
> <Batch ID>
0006

> <Smiles>
CNC(C)C(=O)NC(C(=O)N1Cc2cc([101O:1][101CH2:1]C(C)Oc3ccc([100NH:0][100C:0](=O)N4CCCC(n5nc(-c6ccc(Oc7ccc(F)cc7F)cc6)c(C(N)=O)c5N)C4)c(C(C)(C)C)c3)ccc2CC1C(=O)NC1CCCc2ccccc21)C(C)(C)C

> <Shape>
0.245

> <Color>
0.072

> <Negative vol penalty>
0.000

$$$$

  -OEChem-04052315303D

 82 90  0     1  0  0  0  0  0999 V2000
  -40.4075  -30.9308   18.7464 C   0  0  0  0  0  0  0  0  0  0  0  0
  -40.0319  -29.5968   18.8682 C   0  0  0  0  0  0  0  0  0  0  0  0
  -23.1565   -9.8160   19.9147 C   0  0  0  0  0  0  0  0  0  0  0  0
  -23.8975   -9.8428   22.2142 C   0  0  0  0  0  0  0  0  0  0  0  0
  -39.6289  -31.9291   19.3306 C   0  0  0  0  0  0  0  0  0  0  0  0
  -38.8781  -29.2602   19.5752 C   0  0  0  0  0  0  0  0  0  0  0  0
  -35.0101  -24.6753   18.3411 C   0  0  0  0  0  0  0  0  0  0  0  0
  -22.4591   -8.6319   20.1533 C   0  0  0  0  0  0  0  0  0  0  0  0
  -23.2000   -8.6586   22.4527 C   0  0  0  0  0  0  0  0  0  0  0  0
  -34.8779  -23.3918   18.8692 C   0  0  0  0  0  0  0  0  0  0  0  0
  -20.0030   -7.7250   23.0255 C   0  0  0  0  0  0  0  0  0  0  0  0
  -19.2393   -7.6478   24.1901 C   0  0  0  0  0  0  0  0  0  0  0  0
  -33.1651  -24.1914   20.3679 C   0  0  0  0  0  0  0  0  0  0  0  0
  -29.2436  -18.0816   22.4334 C   0  0  0  0  0  0  0  0  0  0  0  0
  -30.8944  -17.9701   20.6729 C   0  0  0  0  0  0  0  0  0  0  0  0
  -20.5540   -5.7597   24.9273 C   0  0  0  0  0  0  0  0  0  0  0  0
  -23.8758  -10.4215   20.9452 C   0  0  0  0  0  0  0  0  0  0  0  0
  -24.1137  -12.9592   20.8399 C   0  0  0  0  0  0  0  0  0  0  0  0
  -38.4598  -31.6053   20.0369 C   0  0  0  0  0  0  0  0  0  0  0  0
  -34.2272  -25.7306   18.8308 C   0  0  0  0  0  0  0  0  0  0  0  0
  -38.0840  -30.2550   20.1706 C   0  0  0  0  0  0  0  0  0  0  0  0
  -33.2875  -25.4868   19.8426 C   0  0  0  0  0  0  0  0  0  0  0  0
  -29.3535  -19.4721   22.4484 C   0  0  0  0  0  0  0  0  0  0  0  0
  -30.2339  -20.1115   21.5756 C   0  0  0  0  0  0  0  0  0  0  0  0
  -30.0141  -17.3306   21.5457 C   0  0  0  0  0  0  0  0  0  0  0  0
  -22.4808   -8.0532   21.4222 C   0  0  0  0  0  0  0  0  0  0  0  0
  -33.9574  -23.1503   19.8848 C   0  0  0  0  0  0  0  0  0  0  0  0
  -21.0423   -6.8194   22.8117 C   0  0  0  0  0  0  0  0  0  0  0  0
  -31.0043  -19.3605   20.6878 C   0  0  0  0  0  0  0  0  0  0  0  0
  -19.5147   -6.6652   25.1410 C   0  0  0  0  0  0  0  0  0  0  0  0
  -21.3178   -5.8368   23.7626 C   0  0  0  0  0  0  0  0  0  0  0  0
  -24.5969  -11.6445   20.6993 C   0  0  0  0  0  0  0  0  0  0  0  0
  -25.1767  -13.7550   20.4890 C   0  0  0  0  0  0  0  0  0  0  0  0
  -22.8197  -13.4199   21.2510 C   0  0  0  0  0  0  0  0  0  0  0  0
  -34.8389  -28.4915   20.2823 C   0  0  0  0  0  0  0  0  0  0  0  0
  -31.6464  -28.9406   19.9230 C   0  0  0  0  0  0  0  0  0  0  0  0
  -28.5542  -27.5566   19.5113 C   0  0  0  0  0  0  0  0  0  0  0  0
  -30.5934  -15.0249   20.7125 C   0  0  0  0  0  0  0  0  0  0  0  0
  -37.6761  -32.7153   20.6913 C   0  0  0  0  0  0  0  0  0  0  0  0
  -34.3630  -27.1037   18.2320 C   0  0  0  0  0  0  0  0  0  0  0  0
  -32.4087  -26.5812   20.3890 C   0  0  0  0  0  0  0  0  0  0  0  0
  -36.2657  -32.3032   21.1051 C   0  0  0  0  0  0  0  0  0  0  0  0
  -29.5984  -12.5791   18.3239 C   0  0  0  0  0  0  0  0  0  0  0  0
  -36.2921  -30.9590   21.8256 C   0  0  0  0  0  0  0  0  0  0  0  0
  -28.1688  -12.2260   18.7405 C   0  0  0  0  0  0  0  0  0  0  0  0
  -30.4939  -12.8394   19.5339 C   0  0  0  0  0  0  0  0  0  0  0  0
  -28.5478  -13.4774   20.9033 C   0  0  0  0  0  0  0  0  0  0  0  0
  -36.8258  -29.8519   20.9086 C   0  0  1  0  0  0  0  0  0  0  0  0
  -33.8777  -28.2116   19.1618 C   0  0  1  0  0  0  0  0  0  0  0  0
  -27.5922  -13.2700   19.7169 C   0  0  2  0  0  0  0  0  0  0  0  0
  -28.5178  -20.2538   23.4085 C   0  0  0  0  0  0  0  0  0  0  0  0
  -30.3542  -21.6020   21.5857 C   0  0  0  0  0  0  0  0  0  0  0  0
  -26.1326  -28.1760   19.2881 C   0  0  0  0  0  0  0  0  0  0  0  0
  -31.5127  -29.4887   22.9216 C   0  0  0  0  0  0  0  0  0  0  0  0
  -29.0341  -29.1568   22.8011 C   0  0  0  0  0  0  0  0  0  0  0  0
  -30.1064  -31.0089   21.5195 C   0  0  0  0  0  0  0  0  0  0  0  0
  -28.3727  -26.3446   16.8175 C   0  0  0  0  0  0  0  0  0  0  0  0
  -34.1000  -20.8030   19.5299 C   0  0  0  0  0  0  0  0  0  1  0  0
  -33.2473  -19.6182   19.9405 C   0  0  0  0  0  0  0  0  0  0  0  0
  -30.4226  -28.6223   20.7475 C   0  0  1  0  0  0  0  0  0  0  0  0
  -27.4268  -27.8784   18.5470 C   0  0  2  0  0  0  0  0  0  0  0  0
  -30.2867  -29.5488   21.9887 C   0  0  0  0  0  0  0  0  0  0  0  0
  -25.8679  -11.6031   20.2907 N   0  0  0  0  0  0  0  0  0  0  0  0
  -26.1923  -12.9018   20.1715 N   0  0  0  0  0  0  0  0  0  0  0  0
  -32.5833  -27.9080   19.7754 N   0  0  0  0  0  0  0  0  0  0  0  0
  -29.8859  -13.8418   20.4117 N   0  0  0  0  0  0  0  0  0  0  0  0
  -25.3324  -15.0944   20.4239 N   0  0  0  0  0  0  0  0  0  0  0  0
  -21.8437  -12.4680   21.5759 N   0  0  0  0  0  0  0  0  0  0  0  0
  -29.9019  -15.9182   21.5300 N   0  0  0  0  0  0  0  0  0  0  0  0
  -35.8030  -29.4324   19.9746 N   0  0  0  0  0  0  0  0  0  0  0  0
  -29.2878  -28.6792   19.8324 N   0  0  0  0  0  0  0  0  0  0  0  0
  -27.1884  -26.7304   17.6272 N   0  3  0  0  0  0  0  0  0  0  0  0
  -22.5323  -14.6394   21.3123 O   0  0  0  0  0  0  0  0  0  0  0  0
  -34.7140  -27.8989   21.3476 O   0  0  0  0  0  0  0  0  0  0  0  0
  -31.7634  -30.0619   19.4222 O   0  0  0  0  0  0  0  0  0  0  0  0
  -28.7609  -26.4235   19.9401 O   0  0  0  0  0  0  0  0  0  0  0  0
  -31.7182  -15.2425   20.2547 O   0  0  0  0  0  0  0  0  0  0  0  0
  -21.8001   -6.8978   21.6554 O   0  0  0  0  0  0  0  0  0  0  0  0
  -33.8268  -21.8986   20.4025 O   0  0  0  0  0  0  0  0  0  1  0  0
  -31.8743  -19.9710   19.8232 O   0  0  0  0  0  0  0  0  0  0  0  0
  -18.7822   -6.5922   26.2600 F   0  0  0  0  0  0  0  0  0  0  0  0
  -22.3156   -4.9648   23.5634 F   0  0  0  0  0  0  0  0  0  0  0  0
  1  2  1  0  0  0  0
  1  5  2  0  0  0  0
  2  6  2  0  0  0  0
  3  8  2  0  0  0  0
  3 17  1  0  0  0  0
  4  9  1  0  0  0  0
  4 17  2  0  0  0  0
  5 19  1  0  0  0  0
  6 21  1  0  0  0  0
  7 10  2  0  0  0  0
  7 20  1  0  0  0  0
  8 26  1  0  0  0  0
  9 26  2  0  0  0  0
 10 27  1  0  0  0  0
 11 12  2  0  0  0  0
 11 28  1  0  0  0  0
 12 30  1  0  0  0  0
 13 22  1  0  0  0  0
 13 27  2  0  0  0  0
 14 23  2  0  0  0  0
 14 25  1  0  0  0  0
 15 25  2  0  0  0  0
 15 29  1  0  0  0  0
 16 30  2  0  0  0  0
 16 31  1  0  0  0  0
 17 32  1  0  0  0  0
 18 32  1  0  0  0  0
 18 33  2  0  0  0  0
 18 34  1  0  0  0  0
 19 21  2  0  0  0  0
 19 39  1  0  0  0  0
 20 22  2  0  0  0  0
 20 40  1  0  0  0  0
 21 48  1  0  0  0  0
 22 41  1  0  0  0  0
 23 24  1  0  0  0  0
 23 51  1  0  0  0  0
 24 29  2  0  0  0  0
 24 52  1  0  0  0  0
 25 69  1  0  0  0  0
 26 78  1  0  0  0  0
 27 79  1  0  0  0  0
 28 31  2  0  0  0  0
 28 78  1  0  0  0  0
 29 80  1  0  0  0  0
 30 81  1  0  0  0  0
 31 82  1  0  0  0  0
 32 63  2  0  0  0  0
 33 64  1  0  0  0  0
 33 67  1  0  0  0  0
 34 68  1  0  0  0  0
 34 73  2  0  0  0  0
 35 49  1  0  0  0  0
 35 70  1  0  0  0  0
 35 74  2  0  0  0  0
 36 60  1  0  0  0  0
 36 65  1  0  0  0  0
 36 75  2  0  0  0  0
 37 61  1  0  0  0  0
 37 71  1  0  0  0  0
 37 76  2  0  0  0  0
 38 66  1  0  0  0  0
 38 69  1  0  0  0  0
 38 77  2  0  0  0  0
 39 42  1  0  0  0  0
 40 49  1  0  0  0  0
 41 65  1  0  0  0  0
 42 44  1  0  0  0  0
 43 45  1  0  0  0  0
 43 46  1  0  0  0  0
 44 48  1  0  0  0  0
 45 50  1  0  0  0  0
 46 66  1  0  0  0  0
 47 50  1  0  0  0  0
 47 66  1  0  0  0  0
 48 70  1  0  0  0  0
 49 65  1  0  0  0  0
 50 64  1  0  0  0  0
 53 61  1  0  0  0  0
 54 62  1  0  0  0  0
 55 62  1  0  0  0  0
 56 62  1  0  0  0  0
 57 72  1  0  0  0  0
 58 59  1  0  0  0  0
 58 79  1  0  0  0  0
 59 80  1  0  0  0  0
 60 62  1  0  0  0  0
 60 71  1  0  0  0  0
 61 72  1  0  0  0  0
 63 64  1  0  0  0  0
M  CHG  1  72   1
M  ISO  4  38 100  58 101  69 100  79 101
M  END
> <Batch ID>
0006

> <Smiles>
CNC(C)C(=O)NC(C(=O)N1Cc2cc([101O:1][101CH2:1]COc3cc([100NH:0][100C:0](=O)N4CCCC(n5nc(-c6ccc(Oc7ccc(F)cc7F)cc6)c(C(N)=O)c5N)C4)cc(C)c3C)ccc2CC1C(=O)NC1CCCc2ccccc21)C(C)(C)C

> <Shape>
0.220

> <Color>
0.210

> <Negative vol penalty>
0.000

$$$$

  -OEChem-04052315303D

 81 89  0     1  0  0  0  0  0999 V2000
  -25.9363  -35.3720   23.5163 C   0  0  0  0  0  0  0  0  0  0  0  0
  -26.5036  -34.1307   23.2470 C   0  0  0  0  0  0  0  0  0  0  0  0
  -24.8367  -12.0672   21.5877 C   0  0  0  0  0  0  0  0  0  0  0  0
  -25.8716  -12.0511   19.4046 C   0  0  0  0  0  0  0  0  0  0  0  0
  -24.6252  -35.4514   23.9838 C   0  0  0  0  0  0  0  0  0  0  0  0
  -25.7604  -32.9677   23.4461 C   0  0  0  0  0  0  0  0  0  0  0  0
  -26.2126  -29.6924   19.6104 C   0  0  0  0  0  0  0  0  0  0  0  0
  -24.3449  -10.7813   21.3641 C   0  0  0  0  0  0  0  0  0  0  0  0
  -25.3798  -10.7651   19.1810 C   0  0  0  0  0  0  0  0  0  0  0  0
  -27.3786  -28.9297   19.5585 C   0  0  0  0  0  0  0  0  0  0  0  0
  -25.5239   -7.6135   21.4506 C   0  0  0  0  0  0  0  0  0  0  0  0
  -25.6498   -6.6829   22.4820 C   0  0  0  0  0  0  0  0  0  0  0  0
  -26.1941  -27.0640   20.5256 C   0  0  0  0  0  0  0  0  0  0  0  0
  -28.5262  -22.6747   18.4730 C   0  0  0  0  0  0  0  0  0  0  0  0
  -30.1767  -20.9302   18.7361 C   0  0  0  0  0  0  0  0  0  0  0  0
  -30.8790  -23.2079   18.3413 C   0  0  0  0  0  0  0  0  0  0  0  0
  -23.2480   -6.4287   22.5458 C   0  0  0  0  0  0  0  0  0  0  0  0
  -25.6000  -12.7022   20.6079 C   0  0  0  0  0  0  0  0  0  0  0  0
  -27.3412  -14.3805   21.4199 C   0  0  0  0  0  0  0  0  0  0  0  0
  -23.8623  -34.2894   24.1796 C   0  0  0  0  0  0  0  0  0  0  0  0
  -25.0294  -29.1492   20.1312 C   0  0  0  0  0  0  0  0  0  0  0  0
  -24.4383  -33.0315   23.9180 C   0  0  0  0  0  0  0  0  0  0  0  0
  -25.0138  -27.8210   20.5806 C   0  0  0  0  0  0  0  0  0  0  0  0
  -28.8423  -21.3340   18.6923 C   0  0  0  0  0  0  0  0  0  0  0  0
  -24.6164  -10.1302   20.1608 C   0  0  0  0  0  0  0  0  0  0  0  0
  -27.3702  -27.6163   20.0188 C   0  0  0  0  0  0  0  0  0  0  0  0
  -24.2601   -7.9518   20.9668 C   0  0  0  0  0  0  0  0  0  0  0  0
  -29.5446  -23.6117   18.2974 C   0  0  0  0  0  0  0  0  0  0  0  0
  -24.5119   -6.0905   23.0295 C   0  0  0  0  0  0  0  0  0  0  0  0
  -31.1951  -21.8672   18.5606 C   0  0  0  0  0  0  0  0  0  0  0  0
  -23.1222   -7.3594   21.5144 C   0  0  0  0  0  0  0  0  0  0  0  0
  -26.1079  -14.0308   20.8381 C   0  0  0  0  0  0  0  0  0  0  0  0
  -27.3475  -15.7540   21.4118 C   0  0  0  0  0  0  0  0  0  0  0  0
  -28.3876  -13.5391   21.9226 C   0  0  0  0  0  0  0  0  0  0  0  0
  -23.1379  -29.8375   22.5913 C   0  0  0  0  0  0  0  0  0  0  0  0
  -21.2697  -27.5204   21.3016 C   0  0  0  0  0  0  0  0  0  0  0  0
  -21.0470  -24.7329   19.3453 C   0  0  0  0  0  0  0  0  0  0  0  0
  -26.4335  -20.6140   18.8530 C   0  0  0  0  0  0  0  0  0  0  0  0
  -22.4651  -34.4227   24.7315 C   0  0  0  0  0  0  0  0  0  0  0  0
  -23.7734  -29.9764   20.1556 C   0  0  0  0  0  0  0  0  0  0  0  0
  -23.7643  -27.1844   21.1301 C   0  0  0  0  0  0  0  0  0  0  0  0
  -21.6194  -33.1635   24.5595 C   0  0  0  0  0  0  0  0  0  0  0  0
  -23.6429  -19.0592   20.4252 C   0  0  0  0  0  0  0  0  0  0  0  0
  -22.4112  -31.9278   24.9755 C   0  0  0  0  0  0  0  0  0  0  0  0
  -24.1369  -17.6411   20.7206 C   0  0  0  0  0  0  0  0  0  0  0  0
  -24.1855  -19.5836   19.0969 C   0  0  0  0  0  0  0  0  0  0  0  0
  -26.1385  -18.0891   19.2441 C   0  0  0  0  0  0  0  0  0  0  0  0
  -23.6558  -31.7488   24.0979 C   0  0  1  0  0  0  0  0  0  0  0  0
  -22.7555  -29.4870   21.1812 C   0  0  1  0  0  0  0  0  0  0  0  0
  -25.6705  -17.5427   20.6029 C   0  0  2  0  0  0  0  0  0  0  0  0
  -19.3941  -23.0398   18.5095 C   0  0  0  0  0  0  0  0  0  0  0  0
  -21.2764  -26.1673   24.0364 C   0  0  0  0  0  0  0  0  0  0  0  0
  -20.4529  -24.0790   22.9277 C   0  0  0  0  0  0  0  0  0  0  0  0
  -19.0644  -26.1506   22.8696 C   0  0  0  0  0  0  0  0  0  0  0  0
  -21.5404  -25.4734   16.5227 C   0  0  0  0  0  0  0  0  0  0  0  0
  -29.4309  -27.1616   18.9222 C   0  0  0  0  0  0  0  0  0  1  0  0
  -30.1710  -25.8923   18.5469 C   0  0  0  0  0  0  0  0  0  0  0  0
  -21.1602  -26.0232   21.4611 C   0  0  1  0  0  0  0  0  0  0  0  0
  -20.0910  -24.3615   18.2262 C   0  0  2  0  0  0  0  0  0  0  0  0
  -20.5127  -25.6173   22.8152 C   0  0  0  0  0  0  0  0  0  0  0  0
  -25.3833  -15.0962   20.4861 N   0  0  0  0  0  0  0  0  0  0  0  0
  -26.1636  -16.1288   20.8479 N   0  0  0  0  0  0  0  0  0  0  0  0
  -22.5634  -28.0360   21.1389 N   0  0  0  0  0  0  0  0  0  0  0  0
  -25.6446  -19.4626   19.0590 N   0  0  0  0  0  0  0  0  0  0  0  0
  -28.2502  -16.6655   21.8321 N   0  0  0  0  0  0  0  0  0  0  0  0
  -28.2187  -12.1494   21.8537 N   0  0  0  0  0  0  0  0  0  0  0  0
  -27.8084  -20.3814   18.8691 N   0  0  0  0  0  0  0  0  0  0  0  0
  -23.2919  -31.1928   22.8122 N   0  0  0  0  0  0  0  0  0  0  0  0
  -20.4427  -25.5390   20.2868 N   0  0  0  0  0  0  0  0  0  0  0  0
  -20.8268  -24.2377   16.9361 N   0  3  0  0  0  0  0  0  0  0  0  0
  -29.4340  -14.0058   22.4332 O   0  0  0  0  0  0  0  0  0  0  0  0
  -23.2811  -28.9445   23.4182 O   0  0  0  0  0  0  0  0  0  0  0  0
  -20.2446  -28.2064   21.3135 O   0  0  0  0  0  0  0  0  0  0  0  0
  -22.2122  -24.3436   19.3828 O   0  0  0  0  0  0  0  0  0  0  0  0
  -25.9275  -21.7291   18.7025 O   0  0  0  0  0  0  0  0  0  0  0  0
  -24.1369   -8.8753   19.9423 O   0  0  0  0  0  0  0  0  0  0  0  0
  -28.5070  -26.8699   19.9699 O   0  0  0  0  0  0  0  0  0  1  0  0
  -29.2340  -24.9286   18.0815 O   0  0  0  0  0  0  0  0  0  0  0  0
  -24.6330   -5.1957   24.0189 F   0  0  0  0  0  0  0  0  0  0  0  0
  -32.4766  -21.4792   18.6007 F   0  0  0  0  0  0  0  0  0  0  0  0
  -21.9054   -7.6795   21.0530 F   0  0  0  0  0  0  0  0  0  0  0  0
  1  2  1  0  0  0  0
  1  5  2  0  0  0  0
  2  6  2  0  0  0  0
  3  8  2  0  0  0  0
  3 18  1  0  0  0  0
  4  9  1  0  0  0  0
  4 18  2  0  0  0  0
  5 20  1  0  0  0  0
  6 22  1  0  0  0  0
  7 10  2  0  0  0  0
  7 21  1  0  0  0  0
  8 25  1  0  0  0  0
  9 25  2  0  0  0  0
 10 26  1  0  0  0  0
 11 12  2  0  0  0  0
 11 27  1  0  0  0  0
 12 29  1  0  0  0  0
 13 23  1  0  0  0  0
 13 26  2  0  0  0  0
 14 24  1  0  0  0  0
 14 28  2  0  0  0  0
 15 24  2  0  0  0  0
 15 30  1  0  0  0  0
 16 28  1  0  0  0  0
 16 30  2  0  0  0  0
 17 29  2  0  0  0  0
 17 31  1  0  0  0  0
 18 32  1  0  0  0  0
 19 32  1  0  0  0  0
 19 33  2  0  0  0  0
 19 34  1  0  0  0  0
 20 22  2  0  0  0  0
 20 39  1  0  0  0  0
 21 23  2  0  0  0  0
 21 40  1  0  0  0  0
 22 48  1  0  0  0  0
 23 41  1  0  0  0  0
 24 67  1  0  0  0  0
 25 76  1  0  0  0  0
 26 77  1  0  0  0  0
 27 31  2  0  0  0  0
 27 76  1  0  0  0  0
 28 78  1  0  0  0  0
 29 79  1  0  0  0  0
 30 80  1  0  0  0  0
 31 81  1  0  0  0  0
 32 61  2  0  0  0  0
 33 62  1  0  0  0  0
 33 65  1  0  0  0  0
 34 66  1  0  0  0  0
 34 71  2  0  0  0  0
 35 49  1  0  0  0  0
 35 68  1  0  0  0  0
 35 72  2  0  0  0  0
 36 58  1  0  0  0  0
 36 63  1  0  0  0  0
 36 73  2  0  0  0  0
 37 59  1  0  0  0  0
 37 69  1  0  0  0  0
 37 74  2  0  0  0  0
 38 64  1  0  0  0  0
 38 67  1  0  0  0  0
 38 75  2  0  0  0  0
 39 42  1  0  0  0  0
 40 49  1  0  0  0  0
 41 63  1  0  0  0  0
 42 44  1  0  0  0  0
 43 45  1  0  0  0  0
 43 46  1  0  0  0  0
 44 48  1  0  0  0  0
 45 50  1  0  0  0  0
 46 64  1  0  0  0  0
 47 50  1  0  0  0  0
 47 64  1  0  0  0  0
 48 68  1  0  0  0  0
 49 63  1  0  0  0  0
 50 62  1  0  0  0  0
 51 59  1  0  0  0  0
 52 60  1  0  0  0  0
 53 60  1  0  0  0  0
 54 60  1  0  0  0  0
 55 70  1  0  0  0  0
 56 57  1  0  0  0  0
 56 77  1  0  0  0  0
 57 78  1  0  0  0  0
 58 60  1  0  0  0  0
 58 69  1  0  0  0  0
 59 70  1  0  0  0  0
 61 62  1  0  0  0  0
M  CHG  1  70   1
M  ISO  4  38 100  56 101  67 100  77 101
M  END
> <Batch ID>
0006

> <Smiles>
CNC(C)C(=O)NC(C(=O)N1Cc2cc([101O:1][101CH2:1]COc3cc(F)cc([100NH:0][100C:0](=O)N4CCCC(n5nc(-c6ccc(Oc7ccc(F)cc7F)cc6)c(C(N)=O)c5N)C4)c3)ccc2CC1C(=O)NC1CCCc2ccccc21)C(C)(C)C

> <Shape>
0.268

> <Color>
0.081

> <Negative vol penalty>
0.000

$$$$

  -OEChem-04052315303D

 83 91  0     1  0  0  0  0  0999 V2000
  -20.6216  -21.3228   24.0530 C   0  0  0  0  0  0  0  0  0  0  0  0
  -22.0015  -21.3704   24.2235 C   0  0  0  0  0  0  0  0  0  0  0  0
  -25.1547  -14.7811   22.0123 C   0  0  0  0  0  0  0  0  0  0  0  0
  -26.8477  -14.8553   20.2902 C   0  0  0  0  0  0  0  0  0  0  0  0
  -20.0039  -22.1724   23.1362 C   0  0  0  0  0  0  0  0  0  0  0  0
  -22.7647  -22.2669   23.4764 C   0  0  0  0  0  0  0  0  0  0  0  0
  -28.6695  -26.2977   23.9256 C   0  0  0  0  0  0  0  0  0  0  0  0
  -25.0923  -13.3930   21.8911 C   0  0  0  0  0  0  0  0  0  0  0  0
  -26.7853  -13.4671   20.1691 C   0  0  0  0  0  0  0  0  0  0  0  0
  -29.8569  -26.5490   23.2394 C   0  0  0  0  0  0  0  0  0  0  0  0
  -23.6980  -11.1361   19.7966 C   0  0  0  0  0  0  0  0  0  0  0  0
  -22.4348  -10.5462   19.7540 C   0  0  0  0  0  0  0  0  0  0  0  0
  -28.6725  -28.0239   21.7424 C   0  0  0  0  0  0  0  0  0  0  0  0
  -27.4626  -25.0275   17.2747 C   0  0  0  0  0  0  0  0  0  0  0  0
  -29.6798  -25.9835   17.3590 C   0  0  0  0  0  0  0  0  0  0  0  0
  -22.9626   -9.2726   21.7381 C   0  0  0  0  0  0  0  0  0  0  0  0
  -26.0324  -15.5123   21.2118 C   0  0  0  0  0  0  0  0  0  0  0  0
  -26.9339  -17.6888   22.1905 C   0  0  0  0  0  0  0  0  0  0  0  0
  -20.7588  -23.0866   22.3845 C   0  0  0  0  0  0  0  0  0  0  0  0
  -27.4707  -26.9002   23.5180 C   0  0  0  0  0  0  0  0  0  0  0  0
  -22.1566  -23.1287   22.5477 C   0  0  0  0  0  0  0  0  0  0  0  0
  -27.4718  -27.7806   22.4267 C   0  0  0  0  0  0  0  0  0  0  0  0
  -28.4132  -25.9194   16.7782 C   0  0  0  0  0  0  0  0  0  0  0  0
  -29.0450  -24.2639   18.9330 C   0  0  0  0  0  0  0  0  0  0  0  0
  -27.7785  -24.1998   18.3521 C   0  0  0  0  0  0  0  0  0  0  0  0
  -25.9076  -12.7359   20.9696 C   0  0  0  0  0  0  0  0  0  0  0  0
  -29.8579  -27.4099   22.1459 C   0  0  0  0  0  0  0  0  0  0  0  0
  -24.5936  -10.7942   20.8099 C   0  0  0  0  0  0  0  0  0  0  0  0
  -29.9957  -25.1558   18.4364 C   0  0  0  0  0  0  0  0  0  0  0  0
  -22.0671   -9.6145   20.7247 C   0  0  0  0  0  0  0  0  0  0  0  0
  -24.2259   -9.8625   21.7806 C   0  0  0  0  0  0  0  0  0  0  0  0
  -26.0969  -16.9464   21.3360 C   0  0  0  0  0  0  0  0  0  0  0  0
  -26.6139  -18.9991   21.9312 C   0  0  0  0  0  0  0  0  0  0  0  0
  -27.9130  -17.2346   23.1343 C   0  0  0  0  0  0  0  0  0  0  0  0
  -24.6731  -25.8326   22.4514 C   0  0  0  0  0  0  0  0  0  0  0  0
  -23.8412  -28.9611   22.6591 C   0  0  0  0  0  0  0  0  0  0  0  0
  -24.8337  -32.2260   22.7041 C   0  0  0  0  0  0  0  0  0  0  0  0
  -25.4993  -23.1267   18.3642 C   0  0  0  0  0  0  0  0  0  0  0  0
  -20.0520  -23.9520   21.3714 C   0  0  0  0  0  0  0  0  0  0  0  0
  -26.2034  -26.6396   24.2852 C   0  0  0  0  0  0  0  0  0  0  0  0
  -26.2153  -28.4685   21.9614 C   0  0  0  0  0  0  0  0  0  0  0  0
  -20.8895  -25.1339   20.8900 C   0  0  0  0  0  0  0  0  0  0  0  0
  -22.7969  -20.9932   19.2711 C   0  0  0  0  0  0  0  0  0  0  0  0
  -22.3039  -24.6800   20.5434 C   0  0  0  0  0  0  0  0  0  0  0  0
  -23.4834  -19.8113   19.9595 C   0  0  0  0  0  0  0  0  0  0  0  0
  -23.6202  -21.5226   18.0982 C   0  0  0  0  0  0  0  0  0  0  0  0
  -25.7010  -20.6723   19.1063 C   0  0  0  0  0  0  0  0  0  0  0  0
  -23.0158  -24.1049   21.7738 C   0  0  1  0  0  0  0  0  0  0  0  0
  -24.9439  -26.9065   23.4668 C   0  0  1  0  0  0  0  0  0  0  0  0
  -24.9404  -20.1462   20.3345 C   0  0  2  0  0  0  0  0  0  0  0  0
  -28.0757  -26.8053   15.6268 C   0  0  0  0  0  0  0  0  0  0  0  0
  -29.3940  -23.3807   20.0892 C   0  0  0  0  0  0  0  0  0  0  0  0
  -23.9228  -34.5600   22.8463 C   0  0  0  0  0  0  0  0  0  0  0  0
  -22.9504  -28.7883   19.7459 C   0  0  0  0  0  0  0  0  0  0  0  0
  -22.9570  -31.2907   19.6681 C   0  0  0  0  0  0  0  0  0  0  0  0
  -21.4201  -30.0972   21.2289 C   0  0  0  0  0  0  0  0  0  0  0  0
  -26.3021  -32.7704   25.2153 C   0  0  0  0  0  0  0  0  0  0  0  0
  -32.7835  -26.6759   20.1571 C   0  0  0  0  0  0  0  0  0  0  0  0
  -31.9884  -26.6128   21.4517 C   0  0  0  0  0  0  0  0  0  1  0  0
  -31.8965  -26.4952   18.9353 C   0  0  0  0  0  0  0  0  0  0  0  0
  -23.8984  -30.1467   21.7263 C   0  0  1  0  0  0  0  0  0  0  0  0
  -24.4723  -33.3760   23.6267 C   0  0  2  0  0  0  0  0  0  0  0  0
  -22.8299  -30.0664   20.5996 C   0  0  0  0  0  0  0  0  0  0  0  0
  -25.3047  -17.7206   20.5898 N   0  0  0  0  0  0  0  0  0  0  0  0
  -25.6423  -18.9632   20.9746 N   0  0  0  0  0  0  0  0  0  0  0  0
  -25.0005  -28.1766   22.7403 N   0  0  0  0  0  0  0  0  0  0  0  0
  -24.9874  -21.8223   18.5293 N   0  0  0  0  0  0  0  0  0  0  0  0
  -27.0715  -20.1669   22.4304 N   0  0  0  0  0  0  0  0  0  0  0  0
  -28.1157  -15.8550   23.2752 N   0  0  0  0  0  0  0  0  0  0  0  0
  -26.7983  -23.3009   18.8407 N   0  0  0  0  0  0  0  0  0  0  0  0
  -23.4738  -25.1719   22.6375 N   0  0  0  0  0  0  0  0  0  0  0  0
  -23.7914  -31.3336   22.5678 N   0  0  0  0  0  0  0  0  0  0  0  0
  -25.6728  -33.8291   24.3846 N   0  3  0  0  0  0  0  0  0  0  0  0
  -28.5766  -18.0282   23.8438 O   0  0  0  0  0  0  0  0  0  0  0  0
  -25.4909  -25.6202   21.5639 O   0  0  0  0  0  0  0  0  0  0  0  0
  -22.8086  -28.7432   23.2976 O   0  0  0  0  0  0  0  0  0  0  0  0
  -25.9296  -32.1309   22.1559 O   0  0  0  0  0  0  0  0  0  0  0  0
  -24.8246  -24.0302   17.8637 O   0  0  0  0  0  0  0  0  0  0  0  0
  -25.8471  -11.3813   20.8513 O   0  0  0  0  0  0  0  0  0  0  0  0
  -31.0154  -27.6564   21.4739 O   0  0  0  0  0  0  0  0  0  1  0  0
  -31.2453  -25.2334   18.9943 O   0  0  0  0  0  0  0  0  0  0  0  0
  -20.8534   -9.0492   20.6846 F   0  0  0  0  0  0  0  0  0  0  0  0
  -25.0816   -9.5309   22.7572 F   0  0  0  0  0  0  0  0  0  0  0  0
  1  2  1  0  0  0  0
  1  5  2  0  0  0  0
  2  6  2  0  0  0  0
  3  8  2  0  0  0  0
  3 17  1  0  0  0  0
  4  9  1  0  0  0  0
  4 17  2  0  0  0  0
  5 19  1  0  0  0  0
  6 21  1  0  0  0  0
  7 10  2  0  0  0  0
  7 20  1  0  0  0  0
  8 26  1  0  0  0  0
  9 26  2  0  0  0  0
 10 27  1  0  0  0  0
 11 12  2  0  0  0  0
 11 28  1  0  0  0  0
 12 30  1  0  0  0  0
 13 22  1  0  0  0  0
 13 27  2  0  0  0  0
 14 23  1  0  0  0  0
 14 25  2  0  0  0  0
 15 23  2  0  0  0  0
 15 29  1  0  0  0  0
 16 30  2  0  0  0  0
 16 31  1  0  0  0  0
 17 32  1  0  0  0  0
 18 32  1  0  0  0  0
 18 33  2  0  0  0  0
 18 34  1  0  0  0  0
 19 21  2  0  0  0  0
 19 39  1  0  0  0  0
 20 22  2  0  0  0  0
 20 40  1  0  0  0  0
 21 48  1  0  0  0  0
 22 41  1  0  0  0  0
 23 51  1  0  0  0  0
 24 25  1  0  0  0  0
 24 29  2  0  0  0  0
 24 52  1  0  0  0  0
 25 70  1  0  0  0  0
 26 79  1  0  0  0  0
 27 80  1  0  0  0  0
 28 31  2  0  0  0  0
 28 79  1  0  0  0  0
 29 81  1  0  0  0  0
 30 82  1  0  0  0  0
 31 83  1  0  0  0  0
 32 64  2  0  0  0  0
 33 65  1  0  0  0  0
 33 68  1  0  0  0  0
 34 69  1  0  0  0  0
 34 74  2  0  0  0  0
 35 49  1  0  0  0  0
 35 71  1  0  0  0  0
 35 75  2  0  0  0  0
 36 61  1  0  0  0  0
 36 66  1  0  0  0  0
 36 76  2  0  0  0  0
 37 62  1  0  0  0  0
 37 72  1  0  0  0  0
 37 77  2  0  0  0  0
 38 67  1  0  0  0  0
 38 70  1  0  0  0  0
 38 78  2  0  0  0  0
 39 42  1  0  0  0  0
 40 49  1  0  0  0  0
 41 66  1  0  0  0  0
 42 44  1  0  0  0  0
 43 45  1  0  0  0  0
 43 46  1  0  0  0  0
 44 48  1  0  0  0  0
 45 50  1  0  0  0  0
 46 67  1  0  0  0  0
 47 50  1  0  0  0  0
 47 67  1  0  0  0  0
 48 71  1  0  0  0  0
 49 66  1  0  0  0  0
 50 65  1  0  0  0  0
 53 62  1  0  0  0  0
 54 63  1  0  0  0  0
 55 63  1  0  0  0  0
 56 63  1  0  0  0  0
 57 73  1  0  0  0  0
 58 59  1  0  0  0  0
 58 60  1  0  0  0  0
 59 80  1  0  0  0  0
 60 81  1  0  0  0  0
 61 63  1  0  0  0  0
 61 72  1  0  0  0  0
 62 73  1  0  0  0  0
 64 65  1  0  0  0  0
M  CHG  1  73   1
M  ISO  4  38 100  59 101  70 100  80 101
M  END
> <Batch ID>
0006

> <Smiles>
CNC(C)C(=O)NC(C(=O)N1Cc2cc([101O:1][101CH2:1]CCOc3cc(C)cc([100NH:0][100C:0](=O)N4CCCC(n5nc(-c6ccc(Oc7ccc(F)cc7F)cc6)c(C(N)=O)c5N)C4)c3C)ccc2CC1C(=O)NC1CCCc2ccccc21)C(C)(C)C

> <Shape>
0.199

> <Color>
0.068

> <Negative vol penalty>
0.000

$$$$

  -OEChem-04052315303D

102110  0     1  0  0  0  0  0999 V2000
  -30.8245  -15.3118   22.1037 C   0  0  0  0  0  0  0  0  0  0  0  0
  -29.6230  -15.7503   21.5565 C   0  0  0  0  0  0  0  0  0  0  0  0
  -24.8433   -9.2614   20.9403 C   0  0  0  0  0  0  0  0  0  0  0  0
  -22.6883  -10.1438   21.5838 C   0  0  0  0  0  0  0  0  0  0  0  0
  -31.6097  -16.1885   22.8513 C   0  0  0  0  0  0  0  0  0  0  0  0
  -29.2054  -17.0654   21.7575 C   0  0  0  0  0  0  0  0  0  0  0  0
  -26.1108  -20.5883   17.8181 C   0  0  0  0  0  0  0  0  0  0  0  0
  -23.6043  -19.8365   21.8005 C   0  0  0  0  0  0  0  0  0  0  0  0
  -24.3463  -20.3596   24.0395 C   0  0  0  0  0  0  0  0  0  0  0  0
  -24.3458   -7.9633   21.0539 C   0  0  0  0  0  0  0  0  0  0  0  0
  -22.1907   -8.8457   21.6973 C   0  0  0  0  0  0  0  0  0  0  0  0
  -24.7575  -20.9042   17.7054 C   0  0  0  0  0  0  0  0  0  0  0  0
  -20.4528   -5.7576   22.5061 C   0  0  0  0  0  0  0  0  0  0  0  0
  -19.6834   -5.4542   23.6292 C   0  0  0  0  0  0  0  0  0  0  0  0
  -22.9107  -21.0455   21.7479 C   0  0  0  0  0  0  0  0  0  0  0  0
  -23.6527  -21.5687   23.9868 C   0  0  0  0  0  0  0  0  0  0  0  0
  -25.1353  -22.9383   18.9460 C   0  0  0  0  0  0  0  0  0  0  0  0
  -21.5503   -6.0101   25.0584 C   0  0  0  0  0  0  0  0  0  0  0  0
  -24.0146  -10.3516   21.2053 C   0  0  0  0  0  0  0  0  0  0  0  0
  -24.5200  -12.5095   19.9421 C   0  0  0  0  0  0  0  0  0  0  0  0
  -31.2062  -17.5178   23.0534 C   0  0  0  0  0  0  0  0  0  0  0  0
  -26.9859  -21.4410   18.5061 C   0  0  0  0  0  0  0  0  0  0  0  0
  -29.9853  -17.9603   22.5096 C   0  0  0  0  0  0  0  0  0  0  0  0
  -26.4997  -22.6321   19.0638 C   0  0  0  0  0  0  0  0  0  0  0  0
  -24.3220  -19.4935   22.9464 C   0  0  0  0  0  0  0  0  0  0  0  0
  -23.0194   -7.7554   21.4324 C   0  0  0  0  0  0  0  0  0  0  0  0
  -24.2691  -22.0779   18.2719 C   0  0  0  0  0  0  0  0  0  0  0  0
  -21.7711   -6.1872   22.6591 C   0  0  0  0  0  0  0  0  0  0  0  0
  -20.2321   -5.5805   24.9054 C   0  0  0  0  0  0  0  0  0  0  0  0
  -22.3198   -6.3135   23.9353 C   0  0  0  0  0  0  0  0  0  0  0  0
  -22.9350  -21.9117   22.8410 C   0  0  0  0  0  0  0  0  0  0  0  0
  -24.5282  -11.6928   21.0887 C   0  0  0  0  0  0  0  0  0  0  0  0
  -25.1185  -13.6773   20.3480 C   0  0  0  0  0  0  0  0  0  0  0  0
  -24.0165  -12.2370   18.6276 C   0  0  0  0  0  0  0  0  0  0  0  0
  -28.8186  -21.1654   21.0885 C   0  0  0  0  0  0  0  0  0  0  0  0
  -29.8353  -24.1160   20.2040 C   0  0  0  0  0  0  0  0  0  0  0  0
  -22.6627  -29.0247   22.5257 C   0  0  0  0  0  0  0  0  0  0  0  0
  -18.1260  -25.6733   20.1011 C   0  0  0  0  0  0  0  0  0  0  0  0
  -29.1983  -27.0165   18.5223 C   0  0  0  0  0  0  0  0  0  0  0  0
  -25.7873  -17.7733   24.0600 C   0  0  0  0  0  0  0  0  0  0  0  0
  -32.0655  -18.4152   23.9084 C   0  0  0  0  0  0  0  0  0  0  0  0
  -28.4479  -21.0991   18.5957 C   0  0  0  0  0  0  0  0  0  0  0  0
  -27.4016  -23.5914   19.7951 C   0  0  0  0  0  0  0  0  0  0  0  0
  -31.7338  -19.8978   23.7600 C   0  0  0  0  0  0  0  0  0  0  0  0
  -27.6429  -14.7819   24.5941 C   0  0  0  0  0  0  0  0  0  0  0  0
  -30.2258  -20.1169   23.8276 C   0  0  0  0  0  0  0  0  0  0  0  0
  -26.9973  -13.7787   23.6354 C   0  0  0  0  0  0  0  0  0  0  0  0
  -26.6104  -15.7274   25.2053 C   0  0  0  0  0  0  0  0  0  0  0  0
  -25.1086  -15.4192   23.2770 C   0  0  0  0  0  0  0  0  0  0  0  0
  -29.5104  -19.3865   22.6847 C   0  0  1  0  0  0  0  0  0  0  0  0
  -29.1519  -21.7865   19.7616 C   0  0  1  0  0  0  0  0  0  0  0  0
  -26.1178  -14.4873   22.5866 C   0  0  2  0  0  0  0  0  0  0  0  0
  -30.2022  -29.2591   18.0124 C   0  0  0  0  0  0  0  0  0  0  0  0
  -29.1571  -25.0585   23.0257 C   0  0  0  0  0  0  0  0  0  0  0  0
  -29.2670  -27.4159   22.1896 C   0  0  0  0  0  0  0  0  0  0  0  0
  -31.2977  -25.9694   22.1079 C   0  0  0  0  0  0  0  0  0  0  0  0
  -29.2001  -26.4831   15.6112 C   0  0  0  0  0  0  0  0  0  0  0  0
  -23.0749  -28.3626   21.2213 C   0  0  0  0  0  0  0  0  0  0  0  0
  -17.3207  -24.7987   21.0486 C   0  0  0  0  0  0  0  0  0  0  0  0
  -16.9413  -25.4949   22.3548 C   0  0  0  0  0  0  0  0  0  0  0  0
  -23.6554  -26.9605   21.3998 C   0  0  0  0  0  0  0  0  0  0  0  0
  -18.1691  -25.8828   23.1859 C   0  0  0  0  0  0  0  0  0  0  0  0
  -17.7595  -26.6017   24.4730 C   0  0  0  0  0  0  0  0  0  0  0  0
  -18.9410  -26.9356   25.3888 C   0  0  0  0  0  0  0  0  0  0  0  0
  -20.0479  -27.7957   24.7695 C   0  0  0  0  0  0  0  0  0  0  0  0
  -19.5527  -29.1541   24.2632 C   0  0  0  0  0  0  0  0  0  0  0  0
  -20.6921  -25.4111   17.9879 C   0  0  0  0  0  0  0  0  0  0  0  0
  -21.0940  -23.9368   18.0381 C   0  0  0  0  0  0  0  0  0  0  0  0
  -22.6385  -25.9794   21.9884 C   0  0  0  0  0  0  0  0  0  0  0  0
  -20.6711  -29.9931   23.6517 C   0  0  0  0  0  0  0  0  0  0  0  0
  -19.1852  -25.6015   17.8466 C   0  0  0  0  0  0  0  0  0  0  0  0
  -22.6053  -23.7720   18.1384 C   0  0  0  0  0  0  0  0  0  1  0  0
  -23.2316  -24.5843   22.1179 C   0  0  0  0  0  0  0  0  0  0  0  0
  -29.3977  -25.5305   20.4987 C   0  0  1  0  0  0  0  0  0  0  0  0
  -30.0387  -27.8206   17.5468 C   0  0  2  0  0  0  0  0  0  0  0  0
  -29.7623  -25.9747   21.9434 C   0  0  0  0  0  0  0  0  0  0  0  0
  -25.0876  -12.2909   22.1438 N   0  0  0  0  0  0  0  0  0  0  0  0
  -25.4366  -13.4959   21.6618 N   0  0  0  0  0  0  0  0  0  0  0  0
  -28.8220  -23.2097   19.8614 N   0  0  0  0  0  0  0  0  0  0  0  0
  -25.8175  -16.3657   24.1524 N   0  0  0  0  0  0  0  0  0  0  0  0
  -25.3984  -14.8312   19.7058 N   0  0  0  0  0  0  0  0  0  0  0  0
  -23.4321  -10.9871   18.3818 N   0  0  0  0  0  0  0  0  0  0  0  0
  -25.0266  -18.2653   22.9999 N   0  0  0  0  0  0  0  0  0  0  0  0
  -29.6521  -20.1232   21.4471 N   0  0  0  0  0  0  0  0  0  0  0  0
  -21.3068  -29.3371   22.5429 N   0  0  0  0  0  0  0  0  0  0  0  0
  -18.4456  -24.9984   18.9319 N   0  0  0  0  0  0  0  0  0  0  0  0
  -29.9797  -26.3642   19.4524 N   0  0  0  0  0  0  0  0  0  0  0  0
  -29.4002  -27.8322   16.2002 N   0  3  0  0  0  0  0  0  0  0  0  0
  -24.0975  -13.0711   17.6941 O   0  0  0  0  0  0  0  0  0  0  0  0
  -27.8760  -21.6005   21.7395 O   0  0  0  0  0  0  0  0  0  0  0  0
  -31.0330  -23.8277   20.2683 O   0  0  0  0  0  0  0  0  0  0  0  0
  -23.4498  -29.2693   23.4360 O   0  0  0  0  0  0  0  0  0  0  0  0
  -18.4251  -26.8378   20.3510 O   0  0  0  0  0  0  0  0  0  0  0  0
  -27.9712  -26.9744   18.4671 O   0  0  0  0  0  0  0  0  0  0  0  0
  -26.4139  -18.4888   24.8457 O   0  0  0  0  0  0  0  0  0  0  0  0
  -20.9811  -23.2742   21.8112 O   0  0  0  0  0  0  0  0  0  0  0  0
  -21.7578  -23.8483   24.1378 O   0  0  0  0  0  0  0  0  0  0  0  0
  -22.5335   -6.4888   21.5431 O   0  0  0  0  0  0  0  0  0  0  0  0
  -22.9390  -22.3906   18.1633 O   0  0  0  0  0  0  0  0  0  1  0  0
  -19.4926   -5.2905   25.9839 F   0  0  0  0  0  0  0  0  0  0  0  0
  -23.5853   -6.7269   24.0886 F   0  0  0  0  0  0  0  0  0  0  0  0
  -22.0555  -23.4442   22.7743 S   0  0  0  0  0  0  0  0  0  0  0  0
  1  2  1  0  0  0  0
  1  5  2  0  0  0  0
  2  6  2  0  0  0  0
  3 10  2  0  0  0  0
  3 19  1  0  0  0  0
  4 11  1  0  0  0  0
  4 19  2  0  0  0  0
  5 21  1  0  0  0  0
  6 23  1  0  0  0  0
  7 12  2  0  0  0  0
  7 22  1  0  0  0  0
  8 15  2  0  0  0  0
  8 25  1  0  0  0  0
  9 16  1  0  0  0  0
  9 25  2  0  0  0  0
 10 26  1  0  0  0  0
 11 26  2  0  0  0  0
 12 27  1  0  0  0  0
 13 14  2  0  0  0  0
 13 28  1  0  0  0  0
 14 29  1  0  0  0  0
 15 31  1  0  0  0  0
 16 31  2  0  0  0  0
 17 24  1  0  0  0  0
 17 27  2  0  0  0  0
 18 29  2  0  0  0  0
 18 30  1  0  0  0  0
 19 32  1  0  0  0  0
 20 32  1  0  0  0  0
 20 33  2  0  0  0  0
 20 34  1  0  0  0  0
 21 23  2  0  0  0  0
 21 41  1  0  0  0  0
 22 24  2  0  0  0  0
 22 42  1  0  0  0  0
 23 50  1  0  0  0  0
 24 43  1  0  0  0  0
 25 83  1  0  0  0  0
 26 98  1  0  0  0  0
 27 99  1  0  0  0  0
 28 30  2  0  0  0  0
 28 98  1  0  0  0  0
 29100  1  0  0  0  0
 30101  1  0  0  0  0
 31102  1  0  0  0  0
 32 77  2  0  0  0  0
 33 78  1  0  0  0  0
 33 81  1  0  0  0  0
 34 82  1  0  0  0  0
 34 89  2  0  0  0  0
 35 51  1  0  0  0  0
 35 84  1  0  0  0  0
 35 90  2  0  0  0  0
 36 74  1  0  0  0  0
 36 79  1  0  0  0  0
 36 91  2  0  0  0  0
 37 58  1  0  0  0  0
 37 85  1  0  0  0  0
 37 92  2  0  0  0  0
 38 59  1  0  0  0  0
 38 86  1  0  0  0  0
 38 93  2  0  0  0  0
 39 75  1  0  0  0  0
 39 87  1  0  0  0  0
 39 94  2  0  0  0  0
 40 80  1  0  0  0  0
 40 83  1  0  0  0  0
 40 95  2  0  0  0  0
 41 44  1  0  0  0  0
 42 51  1  0  0  0  0
 43 79  1  0  0  0  0
 44 46  1  0  0  0  0
 45 47  1  0  0  0  0
 45 48  1  0  0  0  0
 46 50  1  0  0  0  0
 47 52  1  0  0  0  0
 48 80  1  0  0  0  0
 49 52  1  0  0  0  0
 49 80  1  0  0  0  0
 50 84  1  0  0  0  0
 51 79  1  0  0  0  0
 52 78  1  0  0  0  0
 53 75  1  0  0  0  0
 54 76  1  0  0  0  0
 55 76  1  0  0  0  0
 56 76  1  0  0  0  0
 57 88  1  0  0  0  0
 58 61  1  0  0  0  0
 59 60  1  0  0  0  0
 60 62  1  0  0  0  0
 61 69  1  0  0  0  0
 62 63  1  0  0  0  0
 63 64  1  0  0  0  0
 64 65  1  0  0  0  0
 65 66  1  0  0  0  0
 66 70  1  0  0  0  0
 67 68  1  0  0  0  0
 67 71  1  0  0  0  0
 68 72  1  0  0  0  0
 69 73  1  0  0  0  0
 70 85  1  0  0  0  0
 71 86  1  0  0  0  0
 72 99  1  0  0  0  0
 73102  1  0  0  0  0
 74 76  1  0  0  0  0
 74 87  1  0  0  0  0
 75 88  1  0  0  0  0
 77 78  1  0  0  0  0
 96102  2  0  0  0  0
 97102  2  0  0  0  0
M  CHG  1  88   1
M  ISO  4  40 100  72 101  83 100  99 101
M  END
> <Batch ID>
0006

> <Smiles>
CNC(C)C(=O)NC(C(=O)N1Cc2cc([101O:1][101CH2:1]CCCNC(=O)CCCCCCCCNC(=O)CCCCS(=O)(=O)c3ccc([100NH:0][100C:0](=O)N4CCCC(n5nc(-c6ccc(Oc7ccc(F)cc7F)cc6)c(C(N)=O)c5N)C4)cc3)ccc2CC1C(=O)NC1CCCc2ccccc21)C(C)(C)C

> <Shape>
0.217

> <Color>
0.099

> <Negative vol penalty>
0.000

$$$$

  -OEChem-04052315303D

 81 89  0     1  0  0  0  0  0999 V2000
  -28.5814  -33.2108   23.1140 C   0  0  0  0  0  0  0  0  0  0  0  0
  -28.5571  -31.9190   22.5982 C   0  0  0  0  0  0  0  0  0  0  0  0
  -24.4648  -10.0001   21.9503 C   0  0  0  0  0  0  0  0  0  0  0  0
  -24.6543  -11.3349   23.9552 C   0  0  0  0  0  0  0  0  0  0  0  0
  -27.5550  -33.6450   23.9519 C   0  0  0  0  0  0  0  0  0  0  0  0
  -27.5070  -31.0602   22.9210 C   0  0  0  0  0  0  0  0  0  0  0  0
  -25.7362  -28.5566   18.8910 C   0  0  0  0  0  0  0  0  0  0  0  0
  -29.5331  -20.0194   19.3879 C   0  0  0  0  0  0  0  0  0  0  0  0
  -24.0850   -8.8997   22.7188 C   0  0  0  0  0  0  0  0  0  0  0  0
  -24.2746  -10.2345   24.7237 C   0  0  0  0  0  0  0  0  0  0  0  0
  -26.4799  -27.4665   18.4413 C   0  0  0  0  0  0  0  0  0  0  0  0
  -29.5195  -21.3959   19.1629 C   0  0  0  0  0  0  0  0  0  0  0  0
  -21.2918   -7.7856   24.2646 C   0  0  0  0  0  0  0  0  0  0  0  0
  -20.2079   -7.0281   23.8209 C   0  0  0  0  0  0  0  0  0  0  0  0
  -24.9625  -25.9717   19.5737 C   0  0  0  0  0  0  0  0  0  0  0  0
  -27.9048  -21.6703   20.9391 C   0  0  0  0  0  0  0  0  0  0  0  0
  -21.6289   -5.0795   23.6768 C   0  0  0  0  0  0  0  0  0  0  0  0
  -24.7495  -11.2177   22.5685 C   0  0  0  0  0  0  0  0  0  0  0  0
  -24.2981  -13.3275   21.2075 C   0  0  0  0  0  0  0  0  0  0  0  0
  -26.4868  -32.7943   24.2773 C   0  0  0  0  0  0  0  0  0  0  0  0
  -24.6043  -28.3627   19.6958 C   0  0  0  0  0  0  0  0  0  0  0  0
  -26.4661  -31.4830   23.7651 C   0  0  0  0  0  0  0  0  0  0  0  0
  -24.2046  -27.0609   20.0301 C   0  0  0  0  0  0  0  0  0  0  0  0
  -27.9184  -20.2938   21.1640 C   0  0  0  0  0  0  0  0  0  0  0  0
  -28.7325  -19.4683   20.3885 C   0  0  0  0  0  0  0  0  0  0  0  0
  -23.9899   -9.0169   24.1055 C   0  0  0  0  0  0  0  0  0  0  0  0
  -26.0948  -26.1739   18.7850 C   0  0  0  0  0  0  0  0  0  0  0  0
  -28.7054  -22.2214   19.9385 C   0  0  0  0  0  0  0  0  0  0  0  0
  -22.5443   -7.1902   24.4143 C   0  0  0  0  0  0  0  0  0  0  0  0
  -20.3765   -5.6750   23.5270 C   0  0  0  0  0  0  0  0  0  0  0  0
  -22.7128   -5.8371   24.1204 C   0  0  0  0  0  0  0  0  0  0  0  0
  -25.1423  -12.3546   21.7752 C   0  0  0  0  0  0  0  0  0  0  0  0
  -25.1513  -14.1850   20.5569 C   0  0  0  0  0  0  0  0  0  0  0  0
  -22.8703  -13.4457   21.2633 C   0  0  0  0  0  0  0  0  0  0  0  0
  -23.7803  -29.2044   22.6481 C   0  0  0  0  0  0  0  0  0  0  0  0
  -20.9245  -27.9219   21.7987 C   0  0  0  0  0  0  0  0  0  0  0  0
  -19.1981  -25.7658   19.7942 C   0  0  0  0  0  0  0  0  0  0  0  0
  -29.8290  -17.2003   20.3823 C   0  0  0  0  0  0  0  0  0  0  0  0
  -25.4246  -33.2927   25.2249 C   0  0  0  0  0  0  0  0  0  0  0  0
  -23.7974  -29.5478   20.1506 C   0  0  0  0  0  0  0  0  0  0  0  0
  -22.9857  -26.7980   20.8749 C   0  0  0  0  0  0  0  0  0  0  0  0
  -24.1551  -32.4450   25.2171 C   0  0  0  0  0  0  0  0  0  0  0  0
  -30.0852  -13.7577   19.5102 C   0  0  0  0  0  0  0  0  0  0  0  0
  -24.5032  -30.9616   25.2885 C   0  0  0  0  0  0  0  0  0  0  0  0
  -28.7526  -13.1658   19.9751 C   0  0  0  0  0  0  0  0  0  0  0  0
  -30.5909  -14.8365   20.4664 C   0  0  0  0  0  0  0  0  0  0  0  0
  -28.2963  -15.3144   21.2250 C   0  0  0  0  0  0  0  0  0  0  0  0
  -25.3313  -30.5301   24.0722 C   0  0  1  0  0  0  0  0  0  0  0  0
  -22.9584  -29.2587   21.3915 C   0  0  1  0  0  0  0  0  0  0  0  0
  -27.7145  -14.2691   20.2593 C   0  0  2  0  0  0  0  0  0  0  0  0
  -27.0503  -19.7314   22.2425 C   0  0  0  0  0  0  0  0  0  0  0  0
  -16.8804  -24.9073   19.3599 C   0  0  0  0  0  0  0  0  0  0  0  0
  -21.1009  -26.1862   24.3018 C   0  0  0  0  0  0  0  0  0  0  0  0
  -19.3091  -24.7300   23.3338 C   0  0  0  0  0  0  0  0  0  0  0  0
  -18.8291  -27.1247   23.8412 C   0  0  0  0  0  0  0  0  0  0  0  0
  -19.2176  -26.7817   17.0146 C   0  0  0  0  0  0  0  0  0  0  0  0
  -28.2167  -25.3129   18.1430 C   0  0  0  0  0  0  0  0  0  1  0  0
  -28.9495  -24.0081   18.3880 C   0  0  0  0  0  0  0  0  0  0  0  0
  -20.3058  -26.5469   21.8721 C   0  0  1  0  0  0  0  0  0  0  0  0
  -17.9278  -25.9433   18.9824 C   0  0  2  0  0  0  0  0  0  0  0  0
  -19.9104  -26.1516   23.3229 C   0  0  0  0  0  0  0  0  0  0  0  0
  -26.4328  -12.5727   21.5086 N   0  0  0  0  0  0  0  0  0  0  0  0
  -26.4058  -13.6925   20.7661 N   0  0  0  0  0  0  0  0  0  0  0  0
  -22.2333  -27.9897   21.3004 N   0  0  0  0  0  0  0  0  0  0  0  0
  -29.5561  -15.8495   20.6852 N   0  0  0  0  0  0  0  0  0  0  0  0
  -24.9433  -15.3046   19.8320 N   0  0  0  0  0  0  0  0  0  0  0  0
  -22.1471  -12.4786   21.9746 N   0  0  0  0  0  0  0  0  0  0  0  0
  -28.7589  -18.0675   20.6001 N   0  0  0  0  0  0  0  0  0  0  0  0
  -24.4798  -30.3662   22.9135 N   0  0  0  0  0  0  0  0  0  0  0  0
  -19.1927  -26.5492   20.9290 N   0  0  0  0  0  0  0  0  0  0  0  0
  -18.2198  -25.8078   17.5273 N   0  3  0  0  0  0  0  0  0  0  0  0
  -22.2527  -14.3720   20.6852 O   0  0  0  0  0  0  0  0  0  0  0  0
  -23.7788  -28.1845   23.3275 O   0  0  0  0  0  0  0  0  0  0  0  0
  -20.2680  -28.9007   22.1630 O   0  0  0  0  0  0  0  0  0  0  0  0
  -20.1030  -25.0053   19.4576 O   0  0  0  0  0  0  0  0  0  0  0  0
  -30.9219  -17.5570   19.9351 O   0  0  0  0  0  0  0  0  0  0  0  0
  -23.6192   -7.9435   24.8557 O   0  0  0  0  0  0  0  0  0  0  0  0
  -26.8194  -25.1082   18.3480 O   0  0  0  0  0  0  0  0  0  1  0  0
  -28.6925  -23.5735   19.7179 O   0  0  0  0  0  0  0  0  0  0  0  0
  -19.3352   -4.9472   23.1024 F   0  0  0  0  0  0  0  0  0  0  0  0
  -23.9134   -5.2592   24.2635 F   0  0  0  0  0  0  0  0  0  0  0  0
  1  2  1  0  0  0  0
  1  5  2  0  0  0  0
  2  6  2  0  0  0  0
  3  9  2  0  0  0  0
  3 18  1  0  0  0  0
  4 10  1  0  0  0  0
  4 18  2  0  0  0  0
  5 20  1  0  0  0  0
  6 22  1  0  0  0  0
  7 11  2  0  0  0  0
  7 21  1  0  0  0  0
  8 12  2  0  0  0  0
  8 25  1  0  0  0  0
  9 26  1  0  0  0  0
 10 26  2  0  0  0  0
 11 27  1  0  0  0  0
 12 28  1  0  0  0  0
 13 14  2  0  0  0  0
 13 29  1  0  0  0  0
 14 30  1  0  0  0  0
 15 23  1  0  0  0  0
 15 27  2  0  0  0  0
 16 24  1  0  0  0  0
 16 28  2  0  0  0  0
 17 30  2  0  0  0  0
 17 31  1  0  0  0  0
 18 32  1  0  0  0  0
 19 32  1  0  0  0  0
 19 33  2  0  0  0  0
 19 34  1  0  0  0  0
 20 22  2  0  0  0  0
 20 39  1  0  0  0  0
 21 23  2  0  0  0  0
 21 40  1  0  0  0  0
 22 48  1  0  0  0  0
 23 41  1  0  0  0  0
 24 25  2  0  0  0  0
 24 51  1  0  0  0  0
 25 68  1  0  0  0  0
 26 77  1  0  0  0  0
 27 78  1  0  0  0  0
 28 79  1  0  0  0  0
 29 31  2  0  0  0  0
 29 77  1  0  0  0  0
 30 80  1  0  0  0  0
 31 81  1  0  0  0  0
 32 62  2  0  0  0  0
 33 63  1  0  0  0  0
 33 66  1  0  0  0  0
 34 67  1  0  0  0  0
 34 72  2  0  0  0  0
 35 49  1  0  0  0  0
 35 69  1  0  0  0  0
 35 73  2  0  0  0  0
 36 59  1  0  0  0  0
 36 64  1  0  0  0  0
 36 74  2  0  0  0  0
 37 60  1  0  0  0  0
 37 70  1  0  0  0  0
 37 75  2  0  0  0  0
 38 65  1  0  0  0  0
 38 68  1  0  0  0  0
 38 76  2  0  0  0  0
 39 42  1  0  0  0  0
 40 49  1  0  0  0  0
 41 64  1  0  0  0  0
 42 44  1  0  0  0  0
 43 45  1  0  0  0  0
 43 46  1  0  0  0  0
 44 48  1  0  0  0  0
 45 50  1  0  0  0  0
 46 65  1  0  0  0  0
 47 50  1  0  0  0  0
 47 65  1  0  0  0  0
 48 69  1  0  0  0  0
 49 64  1  0  0  0  0
 50 63  1  0  0  0  0
 52 60  1  0  0  0  0
 53 61  1  0  0  0  0
 54 61  1  0  0  0  0
 55 61  1  0  0  0  0
 56 71  1  0  0  0  0
 57 58  1  0  0  0  0
 57 78  1  0  0  0  0
 58 79  1  0  0  0  0
 59 61  1  0  0  0  0
 59 70  1  0  0  0  0
 60 71  1  0  0  0  0
 62 63  1  0  0  0  0
M  CHG  1  71   1
M  ISO  4  38 100  57 101  68 100  78 101
M  END
> <Batch ID>
0006

> <Smiles>
CNC(C)C(=O)NC(C(=O)N1Cc2cc([101O:1][101CH2:1]COc3ccc([100NH:0][100C:0](=O)N4CCCC(n5nc(-c6ccc(Oc7ccc(F)cc7F)cc6)c(C(N)=O)c5N)C4)c(C)c3)ccc2CC1C(=O)NC1CCCc2ccccc21)C(C)(C)C

> <Shape>
0.335

> <Color>
0.113

> <Negative vol penalty>
0.000

$$$$

  -OEChem-04052315303D

 84 92  0     1  0  0  0  0  0999 V2000
  -29.3660  -11.7963   20.1670 C   0  0  0  0  0  0  0  0  0  0  0  0
  -29.3147  -13.0803   19.6338 C   0  0  0  0  0  0  0  0  0  0  0  0
  -19.7653  -28.4504   23.7698 C   0  0  0  0  0  0  0  0  0  0  0  0
  -20.9055  -27.2562   22.0060 C   0  0  0  0  0  0  0  0  0  0  0  0
  -28.1893  -11.1552   20.5521 C   0  0  0  0  0  0  0  0  0  0  0  0
  -28.0866  -13.7235   19.4845 C   0  0  0  0  0  0  0  0  0  0  0  0
  -28.2167  -18.5431   21.0335 C   0  0  0  0  0  0  0  0  0  0  0  0
  -18.5490  -28.2557   23.1154 C   0  0  0  0  0  0  0  0  0  0  0  0
  -19.6891  -27.0614   21.3516 C   0  0  0  0  0  0  0  0  0  0  0  0
  -28.7999  -19.4727   20.1736 C   0  0  0  0  0  0  0  0  0  0  0  0
  -17.0169  -25.0106   21.6232 C   0  0  0  0  0  0  0  0  0  0  0  0
  -16.7515  -23.7383   21.1169 C   0  0  0  0  0  0  0  0  0  0  0  0
  -26.6075  -20.1563   19.4353 C   0  0  0  0  0  0  0  0  0  0  0  0
  -29.6366  -28.0108   19.3573 C   0  0  0  0  0  0  0  0  0  0  0  0
  -30.0089  -25.9288   18.1897 C   0  0  0  0  0  0  0  0  0  0  0  0
  -28.4939  -26.0051   20.0701 C   0  0  0  0  0  0  0  0  0  0  0  0
  -16.5722  -24.6613   18.8914 C   0  0  0  0  0  0  0  0  0  0  0  0
  -20.9436  -27.9507   23.2150 C   0  0  0  0  0  0  0  0  0  0  0  0
  -22.5514  -27.7146   25.1815 C   0  0  0  0  0  0  0  0  0  0  0  0
  -26.9470  -11.7947   20.4164 C   0  0  0  0  0  0  0  0  0  0  0  0
  -26.8224  -18.4053   21.0929 C   0  0  0  0  0  0  0  0  0  0  0  0
  -26.8920  -13.0898   19.8670 C   0  0  0  0  0  0  0  0  0  0  0  0
  -26.0089  -19.2260   20.2987 C   0  0  0  0  0  0  0  0  0  0  0  0
  -30.2657  -27.2914   18.3414 C   0  0  0  0  0  0  0  0  0  0  0  0
  -28.7507  -27.3677   20.2218 C   0  0  0  0  0  0  0  0  0  0  0  0
  -18.5109  -27.5612   21.9063 C   0  0  0  0  0  0  0  0  0  0  0  0
  -27.9954  -20.2775   19.3723 C   0  0  0  0  0  0  0  0  0  0  0  0
  -17.0598  -26.1083   20.7636 C   0  0  0  0  0  0  0  0  0  0  0  0
  -29.1230  -25.2856   19.0541 C   0  0  0  0  0  0  0  0  0  0  0  0
  -16.5292  -23.5636   19.7510 C   0  0  0  0  0  0  0  0  0  0  0  0
  -16.8375  -25.9336   19.3977 C   0  0  0  0  0  0  0  0  0  0  0  0
  -22.2004  -28.1521   23.8903 C   0  0  0  0  0  0  0  0  0  0  0  0
  -23.8412  -28.1540   25.3541 C   0  0  0  0  0  0  0  0  0  0  0  0
  -21.7804  -26.9770   26.1392 C   0  0  0  0  0  0  0  0  0  0  0  0
  -24.7729  -16.0533   20.4837 C   0  0  0  0  0  0  0  0  0  0  0  0
  -22.6103  -18.1513   21.6852 C   0  0  0  0  0  0  0  0  0  0  0  0
  -21.7730  -21.3951   22.3358 C   0  0  0  0  0  0  0  0  0  0  0  0
  -28.2551  -29.4550   21.5424 C   0  0  0  0  0  0  0  0  0  0  0  0
  -25.6977  -11.0432   20.8028 C   0  0  0  0  0  0  0  0  0  0  0  0
  -26.2080  -17.4164   22.0452 C   0  0  0  0  0  0  0  0  0  0  0  0
  -24.5063  -19.1313   20.3399 C   0  0  0  0  0  0  0  0  0  0  0  0
  -24.4718  -11.9393   20.9595 C   0  0  0  0  0  0  0  0  0  0  0  0
  -26.8290  -31.6321   23.9721 C   0  0  0  0  0  0  0  0  0  0  0  0
  -24.3614  -12.9034   19.7826 C   0  0  0  0  0  0  0  0  0  0  0  0
  -25.5151  -30.9438   24.3488 C   0  0  0  0  0  0  0  0  0  0  0  0
  -27.1490  -31.4696   22.4872 C   0  0  0  0  0  0  0  0  0  0  0  0
  -25.8219  -29.3971   22.3738 C   0  0  0  0  0  0  0  0  0  0  0  0
  -25.5812  -13.8301   19.7123 C   0  0  1  0  0  0  0  0  0  0  0  0
  -24.7943  -17.0031   21.6477 C   0  0  1  0  0  0  0  0  0  0  0  0
  -25.4900  -29.4781   23.8728 C   0  0  2  0  0  0  0  0  0  0  0  0
  -19.9247  -22.7993   23.2893 C   0  0  0  0  0  0  0  0  0  0  0  0
  -20.9967  -17.7614   19.1251 C   0  0  0  0  0  0  0  0  0  0  0  0
  -19.7177  -19.8360   19.6980 C   0  0  0  0  0  0  0  0  0  0  0  0
  -19.6282  -17.8587   21.2161 C   0  0  0  0  0  0  0  0  0  0  0  0
  -23.5218  -22.4487   24.4784 C   0  0  0  0  0  0  0  0  0  0  0  0
  -29.8127  -21.7460   18.9288 C   0  0  0  0  0  0  0  0  0  1  0  0
  -29.9238  -23.1525   18.3728 C   0  0  0  0  0  0  0  0  0  0  0  0
  -21.7419  -19.2414   21.1050 C   0  0  1  0  0  0  0  0  0  0  0  0
  -21.2222  -22.0625   23.5831 C   0  0  2  0  0  0  0  0  0  0  0  0
  -31.2131  -27.9787   17.4172 C   0  0  0  0  0  0  0  0  0  0  0  0
  -20.5495  -18.6750   20.2836 C   0  0  0  0  0  0  0  0  0  0  0  0
  -23.1875  -28.8184   23.2855 N   0  0  0  0  0  0  0  0  0  0  0  0
  -24.1714  -28.8029   24.2009 N   0  0  0  0  0  0  0  0  0  0  0  0
  -23.9533  -18.1449   21.2825 N   0  0  0  0  0  0  0  0  0  0  0  0
  -27.1110  -30.0551   22.1094 N   0  0  0  0  0  0  0  0  0  0  0  0
  -24.7137  -28.0448   26.3784 N   0  0  0  0  0  0  0  0  0  0  0  0
  -20.9980  -27.6894   27.0583 N   0  0  0  0  0  0  0  0  0  0  0  0
  -28.1116  -28.0982   21.2540 N   0  0  0  0  0  0  0  0  0  0  0  0
  -25.4741  -14.8824   20.7001 N   0  0  0  0  0  0  0  0  0  0  0  0
  -21.3471  -20.0884   22.2253 N   0  0  0  0  0  0  0  0  0  0  0  0
  -22.2066  -23.0419   24.1242 N   0  3  0  0  0  0  0  0  0  0  0  0
  -21.7980  -25.7237   26.1894 O   0  0  0  0  0  0  0  0  0  0  0  0
  -24.1640  -16.3593   19.4652 O   0  0  0  0  0  0  0  0  0  0  0  0
  -22.1169  -17.3397   22.4723 O   0  0  0  0  0  0  0  0  0  0  0  0
  -22.5048  -21.9761   21.5373 O   0  0  0  0  0  0  0  0  0  0  0  0
  -29.2954  -30.0908   21.3535 O   0  0  0  0  0  0  0  0  0  0  0  0
  -17.3241  -27.3707   21.2676 O   0  0  0  0  0  0  0  0  0  0  0  0
  -28.5621  -21.1852   18.5316 O   0  0  0  0  0  0  0  0  0  1  0  0
  -28.8711  -23.9471   18.9054 O   0  0  0  0  0  0  0  0  0  0  0  0
  -16.2759  -22.3415   19.2648 F   0  0  0  0  0  0  0  0  0  0  0  0
  -16.8786  -26.9842   18.5667 F   0  0  0  0  0  0  0  0  0  0  0  0
  -31.3683  -29.3097   17.6826 F   0  0  0  0  0  0  0  0  0  0  0  0
  -32.4767  -27.4607   17.4448 F   0  0  0  0  0  0  0  0  0  0  0  0
  -30.8176  -27.9095   16.1127 F   0  0  0  0  0  0  0  0  0  0  0  0
  1  2  1  0  0  0  0
  1  5  2  0  0  0  0
  2  6  2  0  0  0  0
  3  8  2  0  0  0  0
  3 18  1  0  0  0  0
  4  9  1  0  0  0  0
  4 18  2  0  0  0  0
  5 20  1  0  0  0  0
  6 22  1  0  0  0  0
  7 10  2  0  0  0  0
  7 21  1  0  0  0  0
  8 26  1  0  0  0  0
  9 26  2  0  0  0  0
 10 27  1  0  0  0  0
 11 12  2  0  0  0  0
 11 28  1  0  0  0  0
 12 30  1  0  0  0  0
 13 23  1  0  0  0  0
 13 27  2  0  0  0  0
 14 24  2  0  0  0  0
 14 25  1  0  0  0  0
 15 24  1  0  0  0  0
 15 29  2  0  0  0  0
 16 25  2  0  0  0  0
 16 29  1  0  0  0  0
 17 30  2  0  0  0  0
 17 31  1  0  0  0  0
 18 32  1  0  0  0  0
 19 32  1  0  0  0  0
 19 33  2  0  0  0  0
 19 34  1  0  0  0  0
 20 22  2  0  0  0  0
 20 39  1  0  0  0  0
 21 23  2  0  0  0  0
 21 40  1  0  0  0  0
 22 48  1  0  0  0  0
 23 41  1  0  0  0  0
 24 60  1  0  0  0  0
 25 68  1  0  0  0  0
 26 77  1  0  0  0  0
 27 78  1  0  0  0  0
 28 31  2  0  0  0  0
 28 77  1  0  0  0  0
 29 79  1  0  0  0  0
 30 80  1  0  0  0  0
 31 81  1  0  0  0  0
 32 62  2  0  0  0  0
 33 63  1  0  0  0  0
 33 66  1  0  0  0  0
 34 67  1  0  0  0  0
 34 72  2  0  0  0  0
 35 49  1  0  0  0  0
 35 69  1  0  0  0  0
 35 73  2  0  0  0  0
 36 58  1  0  0  0  0
 36 64  1  0  0  0  0
 36 74  2  0  0  0  0
 37 59  1  0  0  0  0
 37 70  1  0  0  0  0
 37 75  2  0  0  0  0
 38 65  1  0  0  0  0
 38 68  1  0  0  0  0
 38 76  2  0  0  0  0
 39 42  1  0  0  0  0
 40 49  1  0  0  0  0
 41 64  1  0  0  0  0
 42 44  1  0  0  0  0
 43 45  1  0  0  0  0
 43 46  1  0  0  0  0
 44 48  1  0  0  0  0
 45 50  1  0  0  0  0
 46 65  1  0  0  0  0
 47 50  1  0  0  0  0
 47 65  1  0  0  0  0
 48 69  1  0  0  0  0
 49 64  1  0  0  0  0
 50 63  1  0  0  0  0
 51 59  1  0  0  0  0
 52 61  1  0  0  0  0
 53 61  1  0  0  0  0
 54 61  1  0  0  0  0
 55 71  1  0  0  0  0
 56 57  1  0  0  0  0
 56 78  1  0  0  0  0
 57 79  1  0  0  0  0
 58 61  1  0  0  0  0
 58 70  1  0  0  0  0
 59 71  1  0  0  0  0
 60 82  1  0  0  0  0
 60 83  1  0  0  0  0
 60 84  1  0  0  0  0
 62 63  1  0  0  0  0
M  CHG  1  71   1
M  ISO  4  38 100  56 101  68 100  78 101
M  END
> <Batch ID>
0006

> <Smiles>
CNC(C)C(=O)NC(C(=O)N1Cc2cc([101O:1][101CH2:1]COc3cc([100NH:0][100C:0](=O)N4CCCC(n5nc(-c6ccc(Oc7ccc(F)cc7F)cc6)c(C(N)=O)c5N)C4)cc(C(F)(F)F)c3)ccc2CC1C(=O)NC1CCCc2ccccc21)C(C)(C)C

> <Shape>
0.228

> <Color>
0.082

> <Negative vol penalty>
0.000

$$$$

  -OEChem-04052315303D

 96104  0     1  0  0  0  0  0999 V2000
  -26.0235  -35.1302   23.7136 C   0  0  0  0  0  0  0  0  0  0  0  0
  -26.5707  -33.8873   23.4114 C   0  0  0  0  0  0  0  0  0  0  0  0
  -28.6500  -11.7028   19.3008 C   0  0  0  0  0  0  0  0  0  0  0  0
  -28.5562  -13.5080   20.9038 C   0  0  0  0  0  0  0  0  0  0  0  0
  -24.7120  -35.2188   24.1783 C   0  0  0  0  0  0  0  0  0  0  0  0
  -25.8069  -32.7322   23.5747 C   0  0  0  0  0  0  0  0  0  0  0  0
  -26.2195  -29.5593   19.6495 C   0  0  0  0  0  0  0  0  0  0  0  0
  -29.8242  -20.5792   18.7378 C   0  0  0  0  0  0  0  0  0  0  0  0
  -29.4338  -19.6791   19.7292 C   0  0  0  0  0  0  0  0  0  0  0  0
  -29.8626  -12.1946   18.8178 C   0  0  0  0  0  0  0  0  0  0  0  0
  -29.7689  -13.9999   20.4208 C   0  0  0  0  0  0  0  0  0  0  0  0
  -27.3725  -28.7785   19.5804 C   0  0  0  0  0  0  0  0  0  0  0  0
  -33.0546  -13.2817   20.7501 C   0  0  0  0  0  0  0  0  0  0  0  0
  -34.0137  -13.6695   21.6857 C   0  0  0  0  0  0  0  0  0  0  0  0
  -26.1521  -26.9068   20.4897 C   0  0  0  0  0  0  0  0  0  0  0  0
  -27.5231  -21.2548   18.4449 C   0  0  0  0  0  0  0  0  0  0  0  0
  -33.9797  -15.9133   20.7905 C   0  0  0  0  0  0  0  0  0  0  0  0
  -27.9968  -12.3595   20.3438 C   0  0  0  0  0  0  0  0  0  0  0  0
  -26.5572  -10.9205   21.8815 C   0  0  0  0  0  0  0  0  0  0  0  0
  -23.9285  -34.0650   24.3382 C   0  0  0  0  0  0  0  0  0  0  0  0
  -25.0250  -29.0220   20.1502 C   0  0  0  0  0  0  0  0  0  0  0  0
  -24.4841  -32.8053   24.0432 C   0  0  0  0  0  0  0  0  0  0  0  0
  -24.9848  -27.6821   20.5617 C   0  0  0  0  0  0  0  0  0  0  0  0
  -28.8688  -21.3671   18.0957 C   0  0  0  0  0  0  0  0  0  0  0  0
  -28.0881  -19.5668   20.0785 C   0  0  0  0  0  0  0  0  0  0  0  0
  -30.4220  -13.3432   19.3778 C   0  0  0  0  0  0  0  0  0  0  0  0
  -27.3397  -27.4529   20.0033 C   0  0  0  0  0  0  0  0  0  0  0  0
  -32.5581  -14.2097   19.8346 C   0  0  0  0  0  0  0  0  0  0  0  0
  -27.1327  -20.3546   19.4364 C   0  0  0  0  0  0  0  0  0  0  0  0
  -34.4762  -14.9853   21.7059 C   0  0  0  0  0  0  0  0  0  0  0  0
  -33.0206  -15.5254   19.8549 C   0  0  0  0  0  0  0  0  0  0  0  0
  -26.7439  -11.8522   20.8428 C   0  0  0  0  0  0  0  0  0  0  0  0
  -25.1945  -10.7727   21.9694 C   0  0  0  0  0  0  0  0  0  0  0  0
  -27.5287  -10.2486   22.6942 C   0  0  0  0  0  0  0  0  0  0  0  0
  -23.1350  -29.6729   22.6217 C   0  0  0  0  0  0  0  0  0  0  0  0
  -21.2330  -27.4257   21.2597 C   0  0  0  0  0  0  0  0  0  0  0  0
  -29.2129  -24.6534   17.9429 C   0  0  0  0  0  0  0  0  0  0  0  0
  -21.7931  -18.0925   21.2690 C   0  0  0  0  0  0  0  0  0  0  0  0
  -20.9711  -24.6988   19.2245 C   0  0  0  0  0  0  0  0  0  0  0  0
  -20.6047  -14.3225   20.4917 C   0  0  0  0  0  0  0  0  0  0  0  0
  -22.5314  -34.2067   24.8883 C   0  0  0  0  0  0  0  0  0  0  0  0
  -23.7832  -29.8696   20.1933 C   0  0  0  0  0  0  0  0  0  0  0  0
  -23.7223  -27.0518   21.0883 C   0  0  0  0  0  0  0  0  0  0  0  0
  -21.6652  -32.9676   24.6775 C   0  0  0  0  0  0  0  0  0  0  0  0
  -21.2223  -11.0198   19.3138 C   0  0  0  0  0  0  0  0  0  0  0  0
  -22.4339  -31.7072   25.0614 C   0  0  0  0  0  0  0  0  0  0  0  0
  -22.6906  -10.7745   19.6659 C   0  0  0  0  0  0  0  0  0  0  0  0
  -20.9770  -12.4671   18.8931 C   0  0  0  0  0  0  0  0  0  0  0  0
  -22.9142  -13.2350   20.2090 C   0  0  0  0  0  0  0  0  0  0  0  0
  -23.6790  -31.5317   24.1837 C   0  0  1  0  0  0  0  0  0  0  0  0
  -22.7527  -29.3691   21.2007 C   0  0  1  0  0  0  0  0  0  0  0  0
  -23.2003  -11.8032   20.6931 C   0  0  2  0  0  0  0  0  0  0  0  0
  -19.2931  -23.0587   18.3347 C   0  0  0  0  0  0  0  0  0  0  0  0
  -28.9273  -17.8356   21.7047 C   0  0  0  0  0  0  0  0  0  0  0  0
  -26.6922  -17.5322   20.5872 C   0  0  0  0  0  0  0  0  0  0  0  0
  -26.9802  -19.2229   22.3872 C   0  0  0  0  0  0  0  0  0  0  0  0
  -21.2049  -25.9959   23.9551 C   0  0  0  0  0  0  0  0  0  0  0  0
  -20.3507  -23.9542   22.7846 C   0  0  0  0  0  0  0  0  0  0  0  0
  -18.9980  -26.0502   22.7799 C   0  0  0  0  0  0  0  0  0  0  0  0
  -21.4891  -25.5102   16.4259 C   0  0  0  0  0  0  0  0  0  0  0  0
  -29.2897  -22.3364   17.0291 C   0  0  0  0  0  0  0  0  0  0  0  0
  -30.1355  -25.7272   18.4983 C   0  0  0  0  0  0  0  0  0  0  0  0
  -20.4015  -17.4971   21.4131 C   0  0  0  0  0  0  0  0  0  0  0  0
  -23.6009  -19.7279   19.0083 C   0  0  0  0  0  0  0  0  0  0  0  0
  -20.3859  -16.1617   22.1435 C   0  0  0  0  0  0  0  0  0  0  0  0
  -22.9499  -20.0850   20.3380 C   0  0  0  0  0  0  0  0  0  0  0  0
  -29.3970  -26.9940   18.9021 C   0  0  0  0  0  0  0  0  0  1  0  0
  -24.8669  -20.5312   18.7358 C   0  0  0  0  0  0  0  0  0  0  0  0
  -21.0973  -25.9267   21.3764 C   0  0  1  0  0  0  0  0  0  0  0  0
  -20.0137  -24.3756   18.0916 C   0  0  2  0  0  0  0  0  0  0  0  0
  -27.6884  -18.5970   21.1409 C   0  0  0  0  0  0  0  0  0  0  0  0
  -20.4372  -25.4939   22.7159 C   0  0  0  0  0  0  0  0  0  0  0  0
  -25.5920  -12.2670   20.3090 N   0  0  0  0  0  0  0  0  0  0  0  0
  -24.6683  -11.5927   21.0149 N   0  0  0  0  0  0  0  0  0  0  0  0
  -22.5360  -27.9233   21.1166 N   0  0  0  0  0  0  0  0  0  0  0  0
  -21.4819  -13.3918   19.9110 N   0  0  0  0  0  0  0  0  0  0  0  0
  -24.4070  -10.0226   22.7691 N   0  0  0  0  0  0  0  0  0  0  0  0
  -28.8863  -10.5162   22.4713 N   0  0  0  0  0  0  0  0  0  0  0  0
  -23.3112  -31.0186   22.8814 N   0  0  0  0  0  0  0  0  0  0  0  0
  -29.9179  -23.5132   17.5850 N   0  0  0  0  0  0  0  0  0  0  0  0
  -21.7670  -19.3107   20.5974 N   0  0  0  0  0  0  0  0  0  0  0  0
  -20.3767  -25.4882   20.1861 N   0  0  0  0  0  0  0  0  0  0  0  0
  -21.1628  -15.1570   21.4523 N   0  0  0  0  0  0  0  0  0  0  0  0
  -20.7528  -24.2757   16.8014 N   0  3  0  0  0  0  0  0  0  0  0  0
  -27.2032   -9.4228   23.5806 O   0  0  0  0  0  0  0  0  0  0  0  0
  -23.2594  -28.7546   23.4234 O   0  0  0  0  0  0  0  0  0  0  0  0
  -20.2198  -28.1286   21.2872 O   0  0  0  0  0  0  0  0  0  0  0  0
  -27.9985  -24.7993   17.8338 O   0  0  0  0  0  0  0  0  0  0  0  0
  -22.8065  -17.5538   21.7059 O   0  0  0  0  0  0  0  0  0  0  0  0
  -22.1293  -24.2886   19.2553 O   0  0  0  0  0  0  0  0  0  0  0  0
  -19.4111  -14.4001   20.1812 O   0  0  0  0  0  0  0  0  0  0  0  0
  -31.6054  -13.8233   18.9069 O   0  0  0  0  0  0  0  0  0  0  0  0
  -28.4638  -26.6887   19.9375 O   0  0  0  0  0  0  0  0  0  1  0  0
  -25.8143  -20.2582   19.7662 O   0  0  0  0  0  0  0  0  0  0  0  0
  -35.3961  -15.3580   22.6054 F   0  0  0  0  0  0  0  0  0  0  0  0
  -32.5465  -16.4217   18.9787 F   0  0  0  0  0  0  0  0  0  0  0  0
  1  2  1  0  0  0  0
  1  5  2  0  0  0  0
  2  6  2  0  0  0  0
  3 10  2  0  0  0  0
  3 18  1  0  0  0  0
  4 11  1  0  0  0  0
  4 18  2  0  0  0  0
  5 20  1  0  0  0  0
  6 22  1  0  0  0  0
  7 12  2  0  0  0  0
  7 21  1  0  0  0  0
  8  9  2  0  0  0  0
  8 24  1  0  0  0  0
  9 25  1  0  0  0  0
 10 26  1  0  0  0  0
 11 26  2  0  0  0  0
 12 27  1  0  0  0  0
 13 14  2  0  0  0  0
 13 28  1  0  0  0  0
 14 30  1  0  0  0  0
 15 23  1  0  0  0  0
 15 27  2  0  0  0  0
 16 24  2  0  0  0  0
 16 29  1  0  0  0  0
 17 30  2  0  0  0  0
 17 31  1  0  0  0  0
 18 32  1  0  0  0  0
 19 32  1  0  0  0  0
 19 33  2  0  0  0  0
 19 34  1  0  0  0  0
 20 22  2  0  0  0  0
 20 41  1  0  0  0  0
 21 23  2  0  0  0  0
 21 42  1  0  0  0  0
 22 50  1  0  0  0  0
 23 43  1  0  0  0  0
 24 61  1  0  0  0  0
 25 29  2  0  0  0  0
 25 71  1  0  0  0  0
 26 92  1  0  0  0  0
 27 93  1  0  0  0  0
 28 31  2  0  0  0  0
 28 92  1  0  0  0  0
 29 94  1  0  0  0  0
 30 95  1  0  0  0  0
 31 96  1  0  0  0  0
 32 73  2  0  0  0  0
 33 74  1  0  0  0  0
 33 77  1  0  0  0  0
 34 78  1  0  0  0  0
 34 85  2  0  0  0  0
 35 51  1  0  0  0  0
 35 79  1  0  0  0  0
 35 86  2  0  0  0  0
 36 69  1  0  0  0  0
 36 75  1  0  0  0  0
 36 87  2  0  0  0  0
 37 62  1  0  0  0  0
 37 80  1  0  0  0  0
 37 88  2  0  0  0  0
 38 63  1  0  0  0  0
 38 81  1  0  0  0  0
 38 89  2  0  0  0  0
 39 70  1  0  0  0  0
 39 82  1  0  0  0  0
 39 90  2  0  0  0  0
 40 76  1  0  0  0  0
 40 83  1  0  0  0  0
 40 91  2  0  0  0  0
 41 44  1  0  0  0  0
 42 51  1  0  0  0  0
 43 75  1  0  0  0  0
 44 46  1  0  0  0  0
 45 47  1  0  0  0  0
 45 48  1  0  0  0  0
 46 50  1  0  0  0  0
 47 52  1  0  0  0  0
 48 76  1  0  0  0  0
 49 52  1  0  0  0  0
 49 76  1  0  0  0  0
 50 79  1  0  0  0  0
 51 75  1  0  0  0  0
 52 74  1  0  0  0  0
 53 70  1  0  0  0  0
 54 71  1  0  0  0  0
 55 71  1  0  0  0  0
 56 71  1  0  0  0  0
 57 72  1  0  0  0  0
 58 72  1  0  0  0  0
 59 72  1  0  0  0  0
 60 84  1  0  0  0  0
 61 80  1  0  0  0  0
 62 67  1  0  0  0  0
 63 65  1  0  0  0  0
 64 66  1  0  0  0  0
 64 68  1  0  0  0  0
 65 83  1  0  0  0  0
 66 81  1  0  0  0  0
 67 93  1  0  0  0  0
 68 94  1  0  0  0  0
 69 72  1  0  0  0  0
 69 82  1  0  0  0  0
 70 84  1  0  0  0  0
 73 74  1  0  0  0  0
M  CHG  1  84   1
M  ISO  4  40 100  67 101  83 100  93 101
M  END
> <Batch ID>
0006

> <Smiles>
CNC(C)C(=O)NC(C(=O)N1Cc2cc([101O:1][101CH2:1]CC(=O)NCc3ccc(C(C)(C)C)c(OCCCNC(=O)CC[100NH:0][100C:0](=O)N4CCCC(n5nc(-c6ccc(Oc7ccc(F)cc7F)cc6)c(C(N)=O)c5N)C4)c3)ccc2CC1C(=O)NC1CCCc2ccccc21)C(C)(C)C

> <Shape>
0.280

> <Color>
0.085

> <Negative vol penalty>
0.000

$$$$
