
  -OEChem-04052315333D

 87 95  0     1  0  0  0  0  0999 V2000
  -30.2819  -25.6174   16.9972 C   0  0  0  0  0  0  0  0  0  0  0  0
  -28.8938  -25.7081   17.0179 C   0  0  0  0  0  0  0  0  0  0  0  0
  -24.1439  -10.0094   22.7492 C   0  0  0  0  0  0  0  0  0  0  0  0
  -22.0996  -11.2132   22.2921 C   0  0  0  0  0  0  0  0  0  0  0  0
  -31.0171  -25.9330   18.1391 C   0  0  0  0  0  0  0  0  0  0  0  0
  -28.2400  -26.1135   18.1810 C   0  0  0  0  0  0  0  0  0  0  0  0
  -23.1193  -29.4520   18.5526 C   0  0  0  0  0  0  0  0  0  0  0  0
  -21.7695  -19.3340   22.6196 C   0  0  0  0  0  0  0  0  0  0  0  0
  -23.4110   -9.0038   23.3792 C   0  0  0  0  0  0  0  0  0  0  0  0
  -21.3666  -10.2074   22.9221 C   0  0  0  0  0  0  0  0  0  0  0  0
  -21.7837  -29.1025   18.7473 C   0  0  0  0  0  0  0  0  0  0  0  0
  -20.7795  -20.2456   22.9862 C   0  0  0  0  0  0  0  0  0  0  0  0
  -21.5241   -6.3512   22.4647 C   0  0  0  0  0  0  0  0  0  0  0  0
  -21.8436   -5.0282   22.1597 C   0  0  0  0  0  0  0  0  0  0  0  0
  -22.0209  -29.5357   21.1085 C   0  0  0  0  0  0  0  0  0  0  0  0
  -23.3299  -20.4326   24.1012 C   0  0  0  0  0  0  0  0  0  0  0  0
  -22.3648   -4.6184   24.4829 C   0  0  0  0  0  0  0  0  0  0  0  0
  -23.4883  -11.1142   22.2056 C   0  0  0  0  0  0  0  0  0  0  0  0
  -24.5923  -12.2267   20.1929 C   0  0  0  0  0  0  0  0  0  0  0  0
  -30.3725  -26.3517   19.3137 C   0  0  0  0  0  0  0  0  0  0  0  0
  -23.9200  -29.8362   19.6378 C   0  0  0  0  0  0  0  0  0  0  0  0
  -28.9672  -26.4337   19.3400 C   0  0  0  0  0  0  0  0  0  0  0  0
  -23.3656  -29.8921   20.9245 C   0  0  0  0  0  0  0  0  0  0  0  0
  -23.0447  -19.4275   23.1771 C   0  0  0  0  0  0  0  0  0  0  0  0
  -22.0223   -9.1028   23.4657 C   0  0  0  0  0  0  0  0  0  0  0  0
  -21.2351  -29.1415   20.0258 C   0  0  0  0  0  0  0  0  0  0  0  0
  -21.6250   -6.8079   23.7788 C   0  0  0  0  0  0  0  0  0  0  0  0
  -21.0647  -21.2507   23.9104 C   0  0  0  0  0  0  0  0  0  0  0  0
  -22.2639   -4.1617   23.1688 C   0  0  0  0  0  0  0  0  0  0  0  0
  -22.3399  -21.3443   24.4678 C   0  0  0  0  0  0  0  0  0  0  0  0
  -22.0454   -5.9415   24.7879 C   0  0  0  0  0  0  0  0  0  0  0  0
  -24.2449  -12.1536   21.5552 C   0  0  0  0  0  0  0  0  0  0  0  0
  -25.3044  -13.3959   20.0824 C   0  0  0  0  0  0  0  0  0  0  0  0
  -24.2975  -11.3189   19.1230 C   0  0  0  0  0  0  0  0  0  0  0  0
  -26.5571  -28.6930   20.9952 C   0  0  0  0  0  0  0  0  0  0  0  0
  -26.3604  -31.4101   22.7563 C   0  0  0  0  0  0  0  0  0  0  0  0
  -18.4462  -27.2482   21.3314 C   0  0  0  0  0  0  0  0  0  0  0  0
  -24.4124  -33.9187   24.0048 C   0  0  0  0  0  0  0  0  0  0  0  0
  -25.3666  -18.4540   23.2631 C   0  0  0  0  0  0  0  0  0  0  0  0
  -31.2068  -26.6368   20.5374 C   0  0  0  0  0  0  0  0  0  0  0  0
  -25.3515  -30.2360   19.4071 C   0  0  0  0  0  0  0  0  0  0  0  0
  -24.1772  -30.3172   22.1199 C   0  0  0  0  0  0  0  0  0  0  0  0
  -30.4600  -27.4185   21.6152 C   0  0  0  0  0  0  0  0  0  0  0  0
  -28.1352  -16.3103   22.6176 C   0  0  0  0  0  0  0  0  0  0  0  0
  -29.0764  -26.8196   21.8470 C   0  0  0  0  0  0  0  0  0  0  0  0
  -27.4836  -15.0098   22.1421 C   0  0  0  0  0  0  0  0  0  0  0  0
  -27.3182  -16.9846   23.7183 C   0  0  0  0  0  0  0  0  0  0  0  0
  -25.2522  -15.9078   22.9176 C   0  0  0  0  0  0  0  0  0  0  0  0
  -28.2231  -26.8935   20.5750 C   0  0  1  0  0  0  0  0  0  0  0  0
  -26.2144  -30.1170   20.6596 C   0  0  1  0  0  0  0  0  0  0  0  0
  -26.0052  -15.2257   21.7637 C   0  0  2  0  0  0  0  0  0  0  0  0
  -24.5278  -35.9734   25.4409 C   0  0  0  0  0  0  0  0  0  0  0  0
  -26.5104  -29.6565   25.2488 C   0  0  0  0  0  0  0  0  0  0  0  0
  -25.6787  -31.6042   26.5842 C   0  0  0  0  0  0  0  0  0  0  0  0
  -27.8535  -31.7626   25.3726 C   0  0  0  0  0  0  0  0  0  0  0  0
  -23.5155  -35.6607   21.7866 C   0  0  0  0  0  0  0  0  0  0  0  0
  -19.5904  -28.2280   21.4806 C   0  0  0  0  0  0  0  0  0  1  0  0
  -17.5430  -24.2605   22.4917 C   0  0  0  0  0  0  0  0  0  0  0  0
  -18.5996  -23.8647   23.5235 C   0  0  0  0  0  0  0  0  0  0  0  0
  -17.0506  -25.6921   22.6791 C   0  0  0  0  0  0  0  0  0  0  0  0
  -19.1042  -22.4469   23.2925 C   0  0  0  0  0  0  0  0  0  0  0  0
  -25.6956  -31.7962   24.0555 C   0  0  1  0  0  0  0  0  0  0  0  0
  -24.6000  -35.4250   24.0243 C   0  0  2  0  0  0  0  0  0  0  0  0
  -26.4195  -31.1950   25.2932 C   0  0  0  0  0  0  0  0  0  0  0  0
  -24.6991  -13.1936   22.2596 N   0  0  0  0  0  0  0  0  0  0  0  0
  -25.3393  -13.9311   21.3364 N   0  0  0  0  0  0  0  0  0  0  0  0
  -25.5738  -30.6925   21.8440 N   0  0  0  0  0  0  0  0  0  0  0  0
  -25.9296  -17.1605   23.2873 N   0  0  0  0  0  0  0  0  0  0  0  0
  -25.8980  -14.0081   19.0358 N   0  0  0  0  0  0  0  0  0  0  0  0
  -23.5549  -10.1656   19.4109 N   0  0  0  0  0  0  0  0  0  0  0  0
  -24.0505  -18.5015   22.8047 N   0  0  0  0  0  0  0  0  0  0  0  0
  -27.7100  -28.2336   20.3877 N   0  0  0  0  0  0  0  0  0  0  0  0
  -18.1095  -26.6653   22.5430 N   0  0  0  0  0  0  0  0  0  0  0  0
  -25.6188  -33.2531   24.0575 N   0  0  0  0  0  0  0  0  0  0  0  0
  -23.5441  -36.0891   23.2088 N   0  3  0  0  0  0  0  0  0  0  0  0
  -24.6952  -11.5161   17.9498 O   0  0  0  0  0  0  0  0  0  0  0  0
  -25.8301  -28.0586   21.7507 O   0  0  0  0  0  0  0  0  0  0  0  0
  -27.5320  -31.7393   22.5553 O   0  0  0  0  0  0  0  0  0  0  0  0
  -17.9044  -27.0187   20.2535 O   0  0  0  0  0  0  0  0  0  0  0  0
  -23.3061  -33.3859   23.9521 O   0  0  0  0  0  0  0  0  0  0  0  0
  -26.0139  -19.4498   23.5968 O   0  0  0  0  0  0  0  0  0  0  0  0
  -21.3067   -8.1215   24.0802 O   0  0  0  0  0  0  0  0  0  0  0  0
  -19.9320  -28.8002   20.2188 O   0  0  0  0  0  0  0  0  0  1  0  0
  -20.0903  -22.1453   24.2701 O   0  0  0  0  0  0  0  0  0  0  0  0
  -22.5692   -2.8908   22.8760 F   0  0  0  0  0  0  0  0  0  0  0  0
  -22.6195  -22.3070   25.3571 F   0  0  0  0  0  0  0  0  0  0  0  0
  -22.1431   -6.3742   26.0525 F   0  0  0  0  0  0  0  0  0  0  0  0
  1  2  1  0  0  0  0
  1  5  2  0  0  0  0
  2  6  2  0  0  0  0
  3  9  2  0  0  0  0
  3 18  1  0  0  0  0
  4 10  1  0  0  0  0
  4 18  2  0  0  0  0
  5 20  1  0  0  0  0
  6 22  1  0  0  0  0
  7 11  2  0  0  0  0
  7 21  1  0  0  0  0
  8 12  2  0  0  0  0
  8 24  1  0  0  0  0
  9 25  1  0  0  0  0
 10 25  2  0  0  0  0
 11 26  1  0  0  0  0
 12 28  1  0  0  0  0
 13 14  2  0  0  0  0
 13 27  1  0  0  0  0
 14 29  1  0  0  0  0
 15 23  1  0  0  0  0
 15 26  2  0  0  0  0
 16 24  2  0  0  0  0
 16 30  1  0  0  0  0
 17 29  2  0  0  0  0
 17 31  1  0  0  0  0
 18 32  1  0  0  0  0
 19 32  1  0  0  0  0
 19 33  2  0  0  0  0
 19 34  1  0  0  0  0
 20 22  2  0  0  0  0
 20 40  1  0  0  0  0
 21 23  2  0  0  0  0
 21 41  1  0  0  0  0
 22 49  1  0  0  0  0
 23 42  1  0  0  0  0
 24 71  1  0  0  0  0
 25 82  1  0  0  0  0
 26 83  1  0  0  0  0
 27 31  2  0  0  0  0
 27 82  1  0  0  0  0
 28 30  2  0  0  0  0
 28 84  1  0  0  0  0
 29 85  1  0  0  0  0
 30 86  1  0  0  0  0
 31 87  1  0  0  0  0
 32 65  2  0  0  0  0
 33 66  1  0  0  0  0
 33 69  1  0  0  0  0
 34 70  1  0  0  0  0
 34 76  2  0  0  0  0
 35 50  1  0  0  0  0
 35 72  1  0  0  0  0
 35 77  2  0  0  0  0
 36 62  1  0  0  0  0
 36 67  1  0  0  0  0
 36 78  2  0  0  0  0
 37 57  1  0  0  0  0
 37 73  1  0  0  0  0
 37 79  2  0  0  0  0
 38 63  1  0  0  0  0
 38 74  1  0  0  0  0
 38 80  2  0  0  0  0
 39 68  1  0  0  0  0
 39 71  1  0  0  0  0
 39 81  2  0  0  0  0
 40 43  1  0  0  0  0
 41 50  1  0  0  0  0
 42 67  1  0  0  0  0
 43 45  1  0  0  0  0
 44 46  1  0  0  0  0
 44 47  1  0  0  0  0
 45 49  1  0  0  0  0
 46 51  1  0  0  0  0
 47 68  1  0  0  0  0
 48 51  1  0  0  0  0
 48 68  1  0  0  0  0
 49 72  1  0  0  0  0
 50 67  1  0  0  0  0
 51 66  1  0  0  0  0
 52 63  1  0  0  0  0
 53 64  1  0  0  0  0
 54 64  1  0  0  0  0
 55 64  1  0  0  0  0
 56 75  1  0  0  0  0
 57 83  1  0  0  0  0
 58 59  1  0  0  0  0
 58 60  1  0  0  0  0
 59 61  1  0  0  0  0
 60 73  1  0  0  0  0
 61 84  1  0  0  0  0
 62 64  1  0  0  0  0
 62 74  1  0  0  0  0
 63 75  1  0  0  0  0
 65 66  1  0  0  0  0
M  CHG  1  75   1
M  ISO  4  39 100  57 101  71 100  83 101
M  END
> <Batch ID>
0007

> <Smiles>
CNC(C)C(=O)NC(C(=O)N1Cc2cc([101O:1][101CH2:1]C(=O)NCCCCOc3ccc([100NH:0][100C:0](=O)N4CCCC(n5nc(-c6ccc(Oc7ccc(F)cc7F)cc6)c(C(N)=O)c5N)C4)cc3F)ccc2CC1C(=O)NC1CCCc2ccccc21)C(C)(C)C

> <Shape>
0.305

> <Color>
0.078

> <Negative vol penalty>
0.000

$$$$

  -OEChem-04052315333D

 85 93  0     1  0  0  0  0  0999 V2000
  -21.7062  -12.1090   19.5308 C   0  0  0  0  0  0  0  0  0  0  0  0
  -21.5560  -13.4914   19.5725 C   0  0  0  0  0  0  0  0  0  0  0  0
  -29.7749  -27.4225   17.9070 C   0  0  0  0  0  0  0  0  0  0  0  0
  -29.8091  -26.2905   20.0411 C   0  0  0  0  0  0  0  0  0  0  0  0
  -22.8591  -11.5184   20.0464 C   0  0  0  0  0  0  0  0  0  0  0  0
  -22.5582  -14.2840   20.1308 C   0  0  0  0  0  0  0  0  0  0  0  0
  -24.2502  -19.8884   18.3325 C   0  0  0  0  0  0  0  0  0  0  0  0
  -17.9554  -27.1215   22.2971 C   0  0  0  0  0  0  0  0  0  0  0  0
  -31.1521  -27.2372   17.7866 C   0  0  0  0  0  0  0  0  0  0  0  0
  -31.1863  -26.1052   19.9207 C   0  0  0  0  0  0  0  0  0  0  0  0
  -23.9352  -21.1608   18.8073 C   0  0  0  0  0  0  0  0  0  0  0  0
  -18.9763  -26.1780   22.4113 C   0  0  0  0  0  0  0  0  0  0  0  0
  -34.6012  -26.7438   16.7494 C   0  0  0  0  0  0  0  0  0  0  0  0
  -35.0915  -26.3056   15.5193 C   0  0  0  0  0  0  0  0  0  0  0  0
  -25.9613  -21.1672   20.1166 C   0  0  0  0  0  0  0  0  0  0  0  0
  -19.5820  -28.9008   22.4558 C   0  0  0  0  0  0  0  0  0  0  0  0
  -33.7557  -24.3007   15.7011 C   0  0  0  0  0  0  0  0  0  0  0  0
  -29.1034  -26.9492   19.0343 C   0  0  0  0  0  0  0  0  0  0  0  0
  -26.6640  -26.2740   18.7162 C   0  0  0  0  0  0  0  0  0  0  0  0
  -23.8803  -12.3048   20.6026 C   0  0  0  0  0  0  0  0  0  0  0  0
  -25.4196  -19.2402   18.7553 C   0  0  0  0  0  0  0  0  0  0  0  0
  -23.7253  -13.7032   20.6556 C   0  0  0  0  0  0  0  0  0  0  0  0
  -26.2901  -19.8876   19.6437 C   0  0  0  0  0  0  0  0  0  0  0  0
  -18.2582  -28.4829   22.3193 C   0  0  0  0  0  0  0  0  0  0  0  0
  -20.6029  -27.9573   22.5700 C   0  0  0  0  0  0  0  0  0  0  0  0
  -31.8579  -26.5785   18.7934 C   0  0  0  0  0  0  0  0  0  0  0  0
  -24.7894  -21.7992   19.7017 C   0  0  0  0  0  0  0  0  0  0  0  0
  -20.3001  -26.5959   22.5478 C   0  0  0  0  0  0  0  0  0  0  0  0
  -33.6882  -25.9604   17.4554 C   0  0  0  0  0  0  0  0  0  0  0  0
  -34.6687  -25.0840   14.9951 C   0  0  0  0  0  0  0  0  0  0  0  0
  -33.2654  -24.7389   16.9313 C   0  0  0  0  0  0  0  0  0  0  0  0
  -27.6808  -27.1409   19.1595 C   0  0  0  0  0  0  0  0  0  0  0  0
  -25.4965  -26.9048   19.0704 C   0  0  0  0  0  0  0  0  0  0  0  0
  -26.7657  -25.0115   18.0444 C   0  0  0  0  0  0  0  0  0  0  0  0
  -26.0496  -16.5583   20.3410 C   0  0  0  0  0  0  0  0  0  0  0  0
  -29.1211  -17.3159   19.6236 C   0  0  0  0  0  0  0  0  0  0  0  0
  -31.3979  -19.7269   18.8173 C   0  0  0  0  0  0  0  0  0  0  0  0
  -22.3997  -29.7141   22.7475 C   0  0  0  0  0  0  0  0  0  0  0  0
  -25.0874  -11.6176   21.1903 C   0  0  0  0  0  0  0  0  0  0  0  0
  -25.7585  -17.8787   18.2131 C   0  0  0  0  0  0  0  0  0  0  0  0
  -27.5681  -19.2432   20.1127 C   0  0  0  0  0  0  0  0  0  0  0  0
  -26.2681  -12.5561   21.4256 C   0  0  0  0  0  0  0  0  0  0  0  0
  -24.6738  -31.6036   20.7636 C   0  0  0  0  0  0  0  0  0  0  0  0
  -25.8030  -13.8384   22.1083 C   0  0  0  0  0  0  0  0  0  0  0  0
  -25.5752  -30.5397   20.1330 C   0  0  0  0  0  0  0  0  0  0  0  0
  -24.2821  -31.2393   22.1946 C   0  0  0  0  0  0  0  0  0  0  0  0
  -24.5924  -28.8408   21.7251 C   0  0  0  0  0  0  0  0  0  0  0  0
  -24.8012  -14.5986   21.2308 C   0  0  1  0  0  0  0  0  0  0  0  0
  -26.7173  -17.1005   19.1089 C   0  0  1  0  0  0  0  0  0  0  0  0
  -24.9603  -29.1321   20.2611 C   0  0  2  0  0  0  0  0  0  0  0  0
  -33.8385  -20.0473   18.3296 C   0  0  0  0  0  0  0  0  0  0  0  0
  -29.7462  -17.0657   22.5996 C   0  0  0  0  0  0  0  0  0  0  0  0
  -31.8875  -18.2939   22.1819 C   0  0  0  0  0  0  0  0  0  0  0  0
  -31.4804  -16.0914   21.0839 C   0  0  0  0  0  0  0  0  0  0  0  0
  -30.8399  -20.7301   16.0895 C   0  0  0  0  0  0  0  0  0  0  0  0
  -22.8908  -24.3426   21.4280 C   0  0  0  0  0  0  0  0  0  0  0  0
  -23.1001  -23.3713   20.2768 C   0  0  0  0  0  0  0  0  0  1  0  0
  -21.4315  -24.7435   21.5759 C   0  0  0  0  0  0  0  0  0  0  0  0
  -30.2062  -18.1260   20.2909 C   0  0  1  0  0  0  0  0  0  0  0  0
  -32.4626  -19.7859   17.7369 C   0  0  2  0  0  0  0  0  0  0  0  0
  -17.1660  -29.4910   22.1972 C   0  0  0  0  0  0  0  0  0  0  0  0
  -30.8051  -17.4058   21.5319 C   0  0  0  0  0  0  0  0  0  0  0  0
  -27.2013  -28.2388   19.7500 N   0  0  0  0  0  0  0  0  0  0  0  0
  -25.8704  -28.0661   19.6803 N   0  0  0  0  0  0  0  0  0  0  0  0
  -27.8522  -17.9089   19.5590 N   0  0  0  0  0  0  0  0  0  0  0  0
  -23.7030  -29.8948   22.2379 N   0  0  0  0  0  0  0  0  0  0  0  0
  -24.1968  -26.5740   18.9166 N   0  0  0  0  0  0  0  0  0  0  0  0
  -28.0419  -24.5088   17.7565 N   0  0  0  0  0  0  0  0  0  0  0  0
  -21.9428  -28.3972   22.7084 N   0  0  0  0  0  0  0  0  0  0  0  0
  -25.4907  -15.3057   20.1730 N   0  0  0  0  0  0  0  0  0  0  0  0
  -31.1818  -18.4361   19.2514 N   0  0  0  0  0  0  0  0  0  0  0  0
  -32.1550  -20.8733   16.7654 N   0  3  0  0  0  0  0  0  0  0  0  0
  -25.7547  -24.3565   17.6947 O   0  0  0  0  0  0  0  0  0  0  0  0
  -26.0433  -17.2262   21.3684 O   0  0  0  0  0  0  0  0  0  0  0  0
  -29.3910  -16.2010   19.1699 O   0  0  0  0  0  0  0  0  0  0  0  0
  -30.8187  -20.7263   19.2371 O   0  0  0  0  0  0  0  0  0  0  0  0
  -21.7275  -30.6622   23.1613 O   0  0  0  0  0  0  0  0  0  0  0  0
  -33.2017  -26.3973   18.6762 O   0  0  0  0  0  0  0  0  0  0  0  0
  -24.4840  -23.0410   20.1673 O   0  0  0  0  0  0  0  0  0  1  0  0
  -21.2884  -25.6527   22.6588 O   0  0  0  0  0  0  0  0  0  0  0  0
  -35.1385  -24.6641   13.8131 F   0  0  0  0  0  0  0  0  0  0  0  0
  -32.3875  -23.9825   17.6044 F   0  0  0  0  0  0  0  0  0  0  0  0
  -15.9229  -28.9389   22.0704 F   0  0  0  0  0  0  0  0  0  0  0  0
  -17.0745  -30.3308   23.2706 F   0  0  0  0  0  0  0  0  0  0  0  0
  -17.3188  -30.3019   21.1100 F   0  0  0  0  0  0  0  0  0  0  0  0
  1  2  1  0  0  0  0
  1  5  2  0  0  0  0
  2  6  2  0  0  0  0
  3  9  2  0  0  0  0
  3 18  1  0  0  0  0
  4 10  1  0  0  0  0
  4 18  2  0  0  0  0
  5 20  1  0  0  0  0
  6 22  1  0  0  0  0
  7 11  2  0  0  0  0
  7 21  1  0  0  0  0
  8 12  2  0  0  0  0
  8 24  1  0  0  0  0
  9 26  1  0  0  0  0
 10 26  2  0  0  0  0
 11 27  1  0  0  0  0
 12 28  1  0  0  0  0
 13 14  2  0  0  0  0
 13 29  1  0  0  0  0
 14 30  1  0  0  0  0
 15 23  1  0  0  0  0
 15 27  2  0  0  0  0
 16 24  2  0  0  0  0
 16 25  1  0  0  0  0
 17 30  2  0  0  0  0
 17 31  1  0  0  0  0
 18 32  1  0  0  0  0
 19 32  1  0  0  0  0
 19 33  2  0  0  0  0
 19 34  1  0  0  0  0
 20 22  2  0  0  0  0
 20 39  1  0  0  0  0
 21 23  2  0  0  0  0
 21 40  1  0  0  0  0
 22 48  1  0  0  0  0
 23 41  1  0  0  0  0
 24 61  1  0  0  0  0
 25 28  2  0  0  0  0
 25 69  1  0  0  0  0
 26 78  1  0  0  0  0
 27 79  1  0  0  0  0
 28 80  1  0  0  0  0
 29 31  2  0  0  0  0
 29 78  1  0  0  0  0
 30 81  1  0  0  0  0
 31 82  1  0  0  0  0
 32 63  2  0  0  0  0
 33 64  1  0  0  0  0
 33 67  1  0  0  0  0
 34 68  1  0  0  0  0
 34 73  2  0  0  0  0
 35 49  1  0  0  0  0
 35 70  1  0  0  0  0
 35 74  2  0  0  0  0
 36 59  1  0  0  0  0
 36 65  1  0  0  0  0
 36 75  2  0  0  0  0
 37 60  1  0  0  0  0
 37 71  1  0  0  0  0
 37 76  2  0  0  0  0
 38 66  1  0  0  0  0
 38 69  1  0  0  0  0
 38 77  2  0  0  0  0
 39 42  1  0  0  0  0
 40 49  1  0  0  0  0
 41 65  1  0  0  0  0
 42 44  1  0  0  0  0
 43 45  1  0  0  0  0
 43 46  1  0  0  0  0
 44 48  1  0  0  0  0
 45 50  1  0  0  0  0
 46 66  1  0  0  0  0
 47 50  1  0  0  0  0
 47 66  1  0  0  0  0
 48 70  1  0  0  0  0
 49 65  1  0  0  0  0
 50 64  1  0  0  0  0
 51 60  1  0  0  0  0
 52 62  1  0  0  0  0
 53 62  1  0  0  0  0
 54 62  1  0  0  0  0
 55 72  1  0  0  0  0
 56 57  1  0  0  0  0
 56 58  1  0  0  0  0
 57 79  1  0  0  0  0
 58 80  1  0  0  0  0
 59 62  1  0  0  0  0
 59 71  1  0  0  0  0
 60 72  1  0  0  0  0
 61 83  1  0  0  0  0
 61 84  1  0  0  0  0
 61 85  1  0  0  0  0
 63 64  1  0  0  0  0
M  CHG  1  72   1
M  ISO  4  38 100  57 101  69 100  79 101
M  END
> <Batch ID>
0007

> <Smiles>
CNC(C)C(=O)NC(C(=O)N1Cc2cc([101O:1][101CH2:1]CCOc3ccc(C(F)(F)F)cc3[100NH:0][100C:0](=O)N3CCCC(n4nc(-c5ccc(Oc6ccc(F)cc6F)cc5)c(C(N)=O)c4N)C3)ccc2CC1C(=O)NC1CCCc2ccccc21)C(C)(C)C

> <Shape>
0.256

> <Color>
0.077

> <Negative vol penalty>
0.000

$$$$

  -OEChem-04052315333D

 79 87  0     1  0  0  0  0  0999 V2000
  -30.3817  -24.2799   17.5455 C   0  0  0  0  0  0  0  0  0  0  0  0
  -29.0087  -24.2038   17.7566 C   0  0  0  0  0  0  0  0  0  0  0  0
  -27.2509  -17.1656   21.2377 C   0  0  0  0  0  0  0  0  0  0  0  0
  -27.2752  -17.0670   18.8239 C   0  0  0  0  0  0  0  0  0  0  0  0
  -31.1940  -24.9270   18.4757 C   0  0  0  0  0  0  0  0  0  0  0  0
  -28.4473  -24.7738   18.8987 C   0  0  0  0  0  0  0  0  0  0  0  0
  -22.9651  -27.4649   19.3558 C   0  0  0  0  0  0  0  0  0  0  0  0
  -18.8146  -23.9707   21.1497 C   0  0  0  0  0  0  0  0  0  0  0  0
  -20.0013  -23.1531   23.0889 C   0  0  0  0  0  0  0  0  0  0  0  0
  -19.0950  -22.7816   20.4767 C   0  0  0  0  0  0  0  0  0  0  0  0
  -20.2816  -21.9639   22.4160 C   0  0  0  0  0  0  0  0  0  0  0  0
  -28.6010  -17.5158   21.2371 C   0  0  0  0  0  0  0  0  0  0  0  0
  -28.6254  -17.4173   18.8232 C   0  0  0  0  0  0  0  0  0  0  0  0
  -21.7312  -27.0076   19.8164 C   0  0  0  0  0  0  0  0  0  0  0  0
  -31.9496  -18.7882   21.8558 C   0  0  0  0  0  0  0  0  0  0  0  0
  -32.3497  -19.8302   22.6923 C   0  0  0  0  0  0  0  0  0  0  0  0
  -22.1853  -27.9776   21.9779 C   0  0  0  0  0  0  0  0  0  0  0  0
  -30.8555  -21.3342   21.5338 C   0  0  0  0  0  0  0  0  0  0  0  0
  -26.5880  -16.9411   20.0311 C   0  0  0  0  0  0  0  0  0  0  0  0
  -24.6089  -15.4480   20.6324 C   0  0  0  0  0  0  0  0  0  0  0  0
  -30.6411  -25.5137   19.6250 C   0  0  0  0  0  0  0  0  0  0  0  0
  -23.8245  -28.1738   20.2075 C   0  0  0  0  0  0  0  0  0  0  0  0
  -29.2532  -25.4282   19.8458 C   0  0  0  0  0  0  0  0  0  0  0  0
  -23.4284  -28.4451   21.5250 C   0  0  0  0  0  0  0  0  0  0  0  0
  -19.2678  -24.1565   22.4558 C   0  0  0  0  0  0  0  0  0  0  0  0
  -19.8284  -21.7781   21.1099 C   0  0  0  0  0  0  0  0  0  0  0  0
  -29.2883  -17.6417   20.0299 C   0  0  0  0  0  0  0  0  0  0  0  0
  -21.3424  -27.2614   21.1284 C   0  0  0  0  0  0  0  0  0  0  0  0
  -31.0025  -19.0193   20.8581 C   0  0  0  0  0  0  0  0  0  0  0  0
  -31.8026  -21.1031   22.5314 C   0  0  0  0  0  0  0  0  0  0  0  0
  -30.4554  -20.2922   20.6972 C   0  0  0  0  0  0  0  0  0  0  0  0
  -25.1934  -16.5788   20.0311 C   0  0  0  0  0  0  0  0  0  0  0  0
  -23.2698  -15.5620   20.3489 C   0  0  0  0  0  0  0  0  0  0  0  0
  -25.2216  -14.3893   21.3803 C   0  0  0  0  0  0  0  0  0  0  0  0
  -26.7489  -27.6879   21.3544 C   0  0  0  0  0  0  0  0  0  0  0  0
  -26.3600  -30.6825   22.5389 C   0  0  0  0  0  0  0  0  0  0  0  0
  -24.2221  -33.1496   23.5337 C   0  0  0  0  0  0  0  0  0  0  0  0
  -19.7379  -20.2248   19.1287 C   0  0  0  0  0  0  0  0  0  0  0  0
  -31.5652  -26.1613   20.6256 C   0  0  0  0  0  0  0  0  0  0  0  0
  -25.1407  -28.6834   19.6875 C   0  0  0  0  0  0  0  0  0  0  0  0
  -24.3058  -29.2193   22.4733 C   0  0  0  0  0  0  0  0  0  0  0  0
  -30.8455  -27.0654   21.6232 C   0  0  0  0  0  0  0  0  0  0  0  0
  -20.2753  -17.3658   17.0757 C   0  0  0  0  0  0  0  0  0  0  0  0
  -29.6066  -26.3692   22.1773 C   0  0  0  0  0  0  0  0  0  0  0  0
  -21.5409  -16.7332   17.6592 C   0  0  0  0  0  0  0  0  0  0  0  0
  -20.3329  -18.8918   17.1176 C   0  0  0  0  0  0  0  0  0  0  0  0
  -21.8983  -18.8332   19.0191 C   0  0  0  0  0  0  0  0  0  0  0  0
  -28.6038  -26.0558   21.0602 C   0  0  1  0  0  0  0  0  0  0  0  0
  -26.1572  -28.9500   20.7934 C   0  0  1  0  0  0  0  0  0  0  0  0
  -21.8592  -17.2968   19.0580 C   0  0  2  0  0  0  0  0  0  0  0  0
  -24.1998  -35.4694   24.4906 C   0  0  0  0  0  0  0  0  0  0  0  0
  -27.0744  -29.5550   25.2827 C   0  0  0  0  0  0  0  0  0  0  0  0
  -26.1268  -31.6339   26.3065 C   0  0  0  0  0  0  0  0  0  0  0  0
  -28.0894  -31.7833   24.7740 C   0  0  0  0  0  0  0  0  0  0  0  0
  -22.8102  -34.2359   21.1704 C   0  0  0  0  0  0  0  0  0  0  0  0
  -18.9645  -25.4434   23.1839 C   0  0  0  0  0  0  0  0  0  0  0  0
  -20.0432  -26.4994   22.9690 C   0  0  0  0  0  0  0  0  0  1  0  0
  -25.8074  -31.2627   23.8183 C   0  0  1  0  0  0  0  0  0  0  0  0
  -24.1814  -34.6343   23.2197 C   0  0  2  0  0  0  0  0  0  0  0  0
  -26.7586  -31.0424   25.0283 C   0  0  0  0  0  0  0  0  0  0  0  0
  -24.2989  -17.3540   19.4122 N   0  0  0  0  0  0  0  0  0  0  0  0
  -23.1388  -16.7092   19.6230 N   0  0  0  0  0  0  0  0  0  0  0  0
  -25.5858  -29.6910   21.9198 N   0  0  0  0  0  0  0  0  0  0  0  0
  -20.6343  -19.3534   18.4745 N   0  0  0  0  0  0  0  0  0  0  0  0
  -22.2035  -14.7917   20.6521 N   0  0  0  0  0  0  0  0  0  0  0  0
  -25.6731  -13.2570   20.6886 N   0  0  0  0  0  0  0  0  0  0  0  0
  -20.1131  -20.5699   20.4266 N   0  0  0  0  0  0  0  0  0  0  0  0
  -27.8756  -27.2490   20.6854 N   0  0  0  0  0  0  0  0  0  0  0  0
  -25.5125  -32.6636   23.5373 N   0  0  0  0  0  0  0  0  0  0  0  0
  -22.9463  -34.9685   22.4556 N   0  3  0  0  0  0  0  0  0  0  0  0
  -25.3497  -14.4385   22.6272 O   0  0  0  0  0  0  0  0  0  0  0  0
  -26.2232  -27.1527   22.3233 O   0  0  0  0  0  0  0  0  0  0  0  0
  -27.4354  -31.0989   22.1010 O   0  0  0  0  0  0  0  0  0  0  0  0
  -23.2108  -32.4881   23.7573 O   0  0  0  0  0  0  0  0  0  0  0  0
  -18.6992  -20.6130   18.5880 O   0  0  0  0  0  0  0  0  0  0  0  0
  -30.6057  -17.9836   20.0288 O   0  0  0  0  0  0  0  0  0  0  0  0
  -20.1388  -26.8156   21.5807 O   0  0  0  0  0  0  0  0  0  1  0  0
  -32.1858  -22.1032   23.3359 F   0  0  0  0  0  0  0  0  0  0  0  0
  -29.5442  -20.5200   19.7413 F   0  0  0  0  0  0  0  0  0  0  0  0
  1  2  1  0  0  0  0
  1  5  2  0  0  0  0
  2  6  2  0  0  0  0
  3 12  2  0  0  0  0
  3 19  1  0  0  0  0
  4 13  1  0  0  0  0
  4 19  2  0  0  0  0
  5 21  1  0  0  0  0
  6 23  1  0  0  0  0
  7 14  2  0  0  0  0
  7 22  1  0  0  0  0
  8 10  2  0  0  0  0
  8 25  1  0  0  0  0
  9 11  1  0  0  0  0
  9 25  2  0  0  0  0
 10 26  1  0  0  0  0
 11 26  2  0  0  0  0
 12 27  1  0  0  0  0
 13 27  2  0  0  0  0
 14 28  1  0  0  0  0
 15 16  2  0  0  0  0
 15 29  1  0  0  0  0
 16 30  1  0  0  0  0
 17 24  1  0  0  0  0
 17 28  2  0  0  0  0
 18 30  2  0  0  0  0
 18 31  1  0  0  0  0
 19 32  1  0  0  0  0
 20 32  1  0  0  0  0
 20 33  2  0  0  0  0
 20 34  1  0  0  0  0
 21 23  2  0  0  0  0
 21 39  1  0  0  0  0
 22 24  2  0  0  0  0
 22 40  1  0  0  0  0
 23 48  1  0  0  0  0
 24 41  1  0  0  0  0
 25 56  1  0  0  0  0
 26 67  1  0  0  0  0
 27 76  1  0  0  0  0
 28 77  1  0  0  0  0
 29 31  2  0  0  0  0
 29 76  1  0  0  0  0
 30 78  1  0  0  0  0
 31 79  1  0  0  0  0
 32 61  2  0  0  0  0
 33 62  1  0  0  0  0
 33 65  1  0  0  0  0
 34 66  1  0  0  0  0
 34 71  2  0  0  0  0
 35 49  1  0  0  0  0
 35 68  1  0  0  0  0
 35 72  2  0  0  0  0
 36 58  1  0  0  0  0
 36 63  1  0  0  0  0
 36 73  2  0  0  0  0
 37 59  1  0  0  0  0
 37 69  1  0  0  0  0
 37 74  2  0  0  0  0
 38 64  1  0  0  0  0
 38 67  1  0  0  0  0
 38 75  2  0  0  0  0
 39 42  1  0  0  0  0
 40 49  1  0  0  0  0
 41 63  1  0  0  0  0
 42 44  1  0  0  0  0
 43 45  1  0  0  0  0
 43 46  1  0  0  0  0
 44 48  1  0  0  0  0
 45 50  1  0  0  0  0
 46 64  1  0  0  0  0
 47 50  1  0  0  0  0
 47 64  1  0  0  0  0
 48 68  1  0  0  0  0
 49 63  1  0  0  0  0
 50 62  1  0  0  0  0
 51 59  1  0  0  0  0
 52 60  1  0  0  0  0
 53 60  1  0  0  0  0
 54 60  1  0  0  0  0
 55 70  1  0  0  0  0
 56 57  1  0  0  0  0
 57 77  1  0  0  0  0
 58 60  1  0  0  0  0
 58 69  1  0  0  0  0
 59 70  1  0  0  0  0
 61 62  1  0  0  0  0
M  CHG  1  70   1
M  ISO  4  38 100  57 101  67 100  77 101
M  END
> <Batch ID>
0007

> <Smiles>
CNC(C)C(=O)NC(C(=O)N1Cc2cc([101O:1][101CH2:1]Cc3ccc([100NH:0][100C:0](=O)N4CCCC(n5nc(-c6ccc(Oc7ccc(F)cc7F)cc6)c(C(N)=O)c5N)C4)cc3)ccc2CC1C(=O)NC1CCCc2ccccc21)C(C)(C)C

> <Shape>
0.245

> <Color>
0.073

> <Negative vol penalty>
0.000

$$$$

  -OEChem-04052315333D

 81 89  0     1  0  0  0  0  0999 V2000
  -16.7159  -30.0567   23.3205 C   0  0  0  0  0  0  0  0  0  0  0  0
  -17.8070  -30.6343   22.6792 C   0  0  0  0  0  0  0  0  0  0  0  0
  -26.1251  -14.0511   21.8754 C   0  0  0  0  0  0  0  0  0  0  0  0
  -24.7859  -15.3695   20.3570 C   0  0  0  0  0  0  0  0  0  0  0  0
  -16.8979  -28.9372   24.1314 C   0  0  0  0  0  0  0  0  0  0  0  0
  -19.0809  -30.0934   22.8492 C   0  0  0  0  0  0  0  0  0  0  0  0
  -25.2462  -29.1168   19.3348 C   0  0  0  0  0  0  0  0  0  0  0  0
  -25.0942  -13.1167   21.9733 C   0  0  0  0  0  0  0  0  0  0  0  0
  -23.7550  -14.4349   20.4548 C   0  0  0  0  0  0  0  0  0  0  0  0
  -26.6144  -29.3443   19.4764 C   0  0  0  0  0  0  0  0  0  0  0  0
  -22.9549  -10.2006   22.3407 C   0  0  0  0  0  0  0  0  0  0  0  0
  -23.2940   -8.8500   22.2601 C   0  0  0  0  0  0  0  0  0  0  0  0
  -26.7971  -27.3611   20.8376 C   0  0  0  0  0  0  0  0  0  0  0  0
  -31.7097  -25.1695   18.0957 C   0  0  0  0  0  0  0  0  0  0  0  0
  -30.4983  -23.1018   18.2995 C   0  0  0  0  0  0  0  0  0  0  0  0
  -24.2032   -9.2101   20.0509 C   0  0  0  0  0  0  0  0  0  0  0  0
  -25.9709  -15.1776   21.0673 C   0  0  0  0  0  0  0  0  0  0  0  0
  -28.0931  -16.1488   20.0375 C   0  0  0  0  0  0  0  0  0  0  0  0
  -18.1733  -28.3765   24.3038 C   0  0  0  0  0  0  0  0  0  0  0  0
  -24.6402  -28.0140   19.9536 C   0  0  0  0  0  0  0  0  0  0  0  0
  -19.2803  -28.9662   23.6643 C   0  0  0  0  0  0  0  0  0  0  0  0
  -25.4215  -27.1205   20.7002 C   0  0  0  0  0  0  0  0  0  0  0  0
  -31.2377  -23.9914   17.5279 C   0  0  0  0  0  0  0  0  0  0  0  0
  -23.9092  -13.3085   21.2630 C   0  0  0  0  0  0  0  0  0  0  0  0
  -27.3896  -28.4680   20.2303 C   0  0  0  0  0  0  0  0  0  0  0  0
  -23.2398  -11.0560   21.2763 C   0  0  0  0  0  0  0  0  0  0  0  0
  -23.9182   -8.3548   21.1153 C   0  0  0  0  0  0  0  0  0  0  0  0
  -23.8640  -10.5607   20.1314 C   0  0  0  0  0  0  0  0  0  0  0  0
  -27.0352  -16.1436   20.9662 C   0  0  0  0  0  0  0  0  0  0  0  0
  -31.4175  -25.4095   19.4287 C   0  0  0  0  0  0  0  0  0  0  0  0
  -30.2605  -23.4343   19.6234 C   0  0  0  0  0  0  0  0  0  0  0  0
  -28.8264  -17.2650   20.3585 C   0  0  0  0  0  0  0  0  0  0  0  0
  -28.3867  -15.2272   18.9791 C   0  0  0  0  0  0  0  0  0  0  0  0
  -22.3849  -27.6402   22.1620 C   0  0  0  0  0  0  0  0  0  0  0  0
  -22.7316  -24.5001   21.4259 C   0  0  0  0  0  0  0  0  0  0  0  0
  -24.7120  -22.0200   20.1714 C   0  0  0  0  0  0  0  0  0  0  0  0
  -29.1494  -22.6484   21.7433 C   0  0  0  0  0  0  0  0  0  0  0  0
  -18.3277  -27.1945   25.2278 C   0  0  0  0  0  0  0  0  0  0  0  0
  -23.1679  -27.7678   19.7690 C   0  0  0  0  0  0  0  0  0  0  0  0
  -24.8228  -25.9104   21.3679 C   0  0  0  0  0  0  0  0  0  0  0  0
  -19.6533  -26.4570   25.0569 C   0  0  0  0  0  0  0  0  0  0  0  0
  -28.5740  -20.3271   24.3811 C   0  0  0  0  0  0  0  0  0  0  0  0
  -20.8122  -27.4474   25.0031 C   0  0  0  0  0  0  0  0  0  0  0  0
  -28.2094  -19.0322   23.6514 C   0  0  0  0  0  0  0  0  0  0  0  0
  -28.0163  -21.5570   23.6668 C   0  0  0  0  0  0  0  0  0  0  0  0
  -27.9948  -20.3616   21.5128 C   0  0  0  0  0  0  0  0  0  0  0  0
  -20.6741  -28.3935   23.8042 C   0  0  1  0  0  0  0  0  0  0  0  0
  -22.5651  -26.8982   20.8680 C   0  0  1  0  0  0  0  0  0  0  0  0
  -28.5897  -19.0999   22.1593 C   0  0  2  0  0  0  0  0  0  0  0  0
  -31.5233  -23.6830   16.0974 C   0  0  0  0  0  0  0  0  0  0  0  0
  -24.7349  -19.5491   19.7336 C   0  0  0  0  0  0  0  0  0  0  0  0
  -23.1664  -23.9795   24.4008 C   0  0  0  0  0  0  0  0  0  0  0  0
  -24.1056  -21.7378   23.8000 C   0  0  0  0  0  0  0  0  0  0  0  0
  -21.7365  -22.2854   23.2433 C   0  0  0  0  0  0  0  0  0  0  0  0
  -25.0613  -22.4217   17.2602 C   0  0  0  0  0  0  0  0  0  0  0  0
  -31.9138  -26.6766   20.0782 C   0  0  0  0  0  0  0  0  0  0  0  0
  -30.9365  -27.8489   19.9678 C   0  0  0  0  0  0  0  0  0  0  0  0
  -29.5579  -27.5417   20.5410 C   0  0  0  0  0  0  0  0  0  1  0  0
  -23.6019  -23.3739   21.9290 C   0  0  1  0  0  0  0  0  0  0  0  0
  -24.4338  -20.9243   19.1583 C   0  0  2  0  0  0  0  0  0  0  0  0
  -23.1638  -22.8679   23.3324 C   0  0  0  0  0  0  0  0  0  0  0  0
  -27.0881  -17.1745   21.8138 N   0  0  0  0  0  0  0  0  0  0  0  0
  -30.7025  -24.5693   20.2099 N   0  0  0  0  0  0  0  0  0  0  0  0
  -28.1881  -17.8379   21.4189 N   0  0  0  0  0  0  0  0  0  0  0  0
  -23.3778  -25.7164   21.1632 N   0  0  0  0  0  0  0  0  0  0  0  0
  -28.4206  -21.5559   22.2592 N   0  0  0  0  0  0  0  0  0  0  0  0
  -29.9484  -17.8023   19.8344 N   0  0  0  0  0  0  0  0  0  0  0  0
  -27.5299  -14.1348   18.7875 N   0  0  0  0  0  0  0  0  0  0  0  0
  -29.5066  -22.5210   20.4013 N   0  0  0  0  0  0  0  0  0  0  0  0
  -21.0717  -27.7245   22.5840 N   0  0  0  0  0  0  0  0  0  0  0  0
  -23.5828  -22.3485   20.8914 N   0  0  0  0  0  0  0  0  0  0  0  0
  -25.2724  -21.1187   17.9417 N   0  3  0  0  0  0  0  0  0  0  0  0
  -29.3887  -15.3592   18.2360 O   0  0  0  0  0  0  0  0  0  0  0  0
  -23.3647  -28.1009   22.7359 O   0  0  0  0  0  0  0  0  0  0  0  0
  -21.5241  -24.3058   21.2649 O   0  0  0  0  0  0  0  0  0  0  0  0
  -25.8210  -22.5306   20.3128 O   0  0  0  0  0  0  0  0  0  0  0  0
  -29.4590  -23.6126   22.4478 O   0  0  0  0  0  0  0  0  0  0  0  0
  -22.9031  -12.3967   21.3581 O   0  0  0  0  0  0  0  0  0  0  0  0
  -28.7252  -28.6880   20.3707 O   0  0  0  0  0  0  0  0  0  1  0  0
  -24.2453   -7.0581   21.0387 F   0  0  0  0  0  0  0  0  0  0  0  0
  -24.1413  -11.3778   19.1061 F   0  0  0  0  0  0  0  0  0  0  0  0
  1  2  1  0  0  0  0
  1  5  2  0  0  0  0
  2  6  2  0  0  0  0
  3  8  2  0  0  0  0
  3 17  1  0  0  0  0
  4  9  1  0  0  0  0
  4 17  2  0  0  0  0
  5 19  1  0  0  0  0
  6 21  1  0  0  0  0
  7 10  2  0  0  0  0
  7 20  1  0  0  0  0
  8 24  1  0  0  0  0
  9 24  2  0  0  0  0
 10 25  1  0  0  0  0
 11 12  2  0  0  0  0
 11 26  1  0  0  0  0
 12 27  1  0  0  0  0
 13 22  1  0  0  0  0
 13 25  2  0  0  0  0
 14 23  2  0  0  0  0
 14 30  1  0  0  0  0
 15 23  1  0  0  0  0
 15 31  2  0  0  0  0
 16 27  2  0  0  0  0
 16 28  1  0  0  0  0
 17 29  1  0  0  0  0
 18 29  1  0  0  0  0
 18 32  2  0  0  0  0
 18 33  1  0  0  0  0
 19 21  2  0  0  0  0
 19 38  1  0  0  0  0
 20 22  2  0  0  0  0
 20 39  1  0  0  0  0
 21 47  1  0  0  0  0
 22 40  1  0  0  0  0
 23 50  1  0  0  0  0
 24 78  1  0  0  0  0
 25 79  1  0  0  0  0
 26 28  2  0  0  0  0
 26 78  1  0  0  0  0
 27 80  1  0  0  0  0
 28 81  1  0  0  0  0
 29 62  2  0  0  0  0
 30 56  1  0  0  0  0
 30 63  2  0  0  0  0
 31 63  1  0  0  0  0
 31 69  1  0  0  0  0
 32 64  1  0  0  0  0
 32 67  1  0  0  0  0
 33 68  1  0  0  0  0
 33 73  2  0  0  0  0
 34 48  1  0  0  0  0
 34 70  1  0  0  0  0
 34 74  2  0  0  0  0
 35 59  1  0  0  0  0
 35 65  1  0  0  0  0
 35 75  2  0  0  0  0
 36 60  1  0  0  0  0
 36 71  1  0  0  0  0
 36 76  2  0  0  0  0
 37 66  1  0  0  0  0
 37 69  1  0  0  0  0
 37 77  2  0  0  0  0
 38 41  1  0  0  0  0
 39 48  1  0  0  0  0
 40 65  1  0  0  0  0
 41 43  1  0  0  0  0
 42 44  1  0  0  0  0
 42 45  1  0  0  0  0
 43 47  1  0  0  0  0
 44 49  1  0  0  0  0
 45 66  1  0  0  0  0
 46 49  1  0  0  0  0
 46 66  1  0  0  0  0
 47 70  1  0  0  0  0
 48 65  1  0  0  0  0
 49 64  1  0  0  0  0
 51 60  1  0  0  0  0
 52 61  1  0  0  0  0
 53 61  1  0  0  0  0
 54 61  1  0  0  0  0
 55 72  1  0  0  0  0
 56 57  1  0  0  0  0
 57 58  1  0  0  0  0
 58 79  1  0  0  0  0
 59 61  1  0  0  0  0
 59 71  1  0  0  0  0
 60 72  1  0  0  0  0
 62 64  1  0  0  0  0
M  CHG  1  72   1
M  ISO  4  37 100  58 101  69 100  79 101
M  END
> <Batch ID>
0007

> <Smiles>
CNC(C)C(=O)NC(C(=O)N1Cc2cc([101O:1][101CH2:1]CCc3cc(C)cc([100NH:0][100C:0](=O)N4CCCC(n5nc(-c6ccc(Oc7ccc(F)cc7F)cc6)c(C(N)=O)c5N)C4)n3)ccc2CC1C(=O)NC1CCCc2ccccc21)C(C)(C)C

> <Shape>
0.247

> <Color>
0.087

> <Negative vol penalty>
0.000

$$$$

  -OEChem-04052315333D

 84 91  0     1  0  0  0  0  0999 V2000
  -29.7927  -27.9202   18.6029 C   0  0  0  0  0  0  0  0  0  0  0  0
  -29.6870  -26.6528   19.1667 C   0  0  0  0  0  0  0  0  0  0  0  0
  -23.3354   -9.8233   19.8769 C   0  0  0  0  0  0  0  0  0  0  0  0
  -23.8235   -9.8804   22.2424 C   0  0  0  0  0  0  0  0  0  0  0  0
  -28.7319  -28.8189   18.7071 C   0  0  0  0  0  0  0  0  0  0  0  0
  -28.5208  -26.2837   19.8361 C   0  0  0  0  0  0  0  0  0  0  0  0
  -25.9755  -20.7159   20.0009 C   0  0  0  0  0  0  0  0  0  0  0  0
  -22.6401   -8.6265   20.0492 C   0  0  0  0  0  0  0  0  0  0  0  0
  -23.1281   -8.6835   22.4147 C   0  0  0  0  0  0  0  0  0  0  0  0
  -26.0205  -19.6916   20.9457 C   0  0  0  0  0  0  0  0  0  0  0  0
  -23.3782   -5.3504   20.4319 C   0  0  0  0  0  0  0  0  0  0  0  0
  -23.6162   -4.3258   19.5159 C   0  0  0  0  0  0  0  0  0  0  0  0
  -23.9386  -20.4718   21.8818 C   0  0  0  0  0  0  0  0  0  0  0  0
  -21.2826   -4.3427   18.8905 C   0  0  0  0  0  0  0  0  0  0  0  0
  -23.9271  -10.4503   20.9735 C   0  0  0  0  0  0  0  0  0  0  0  0
  -24.1244  -12.9916   20.8724 C   0  0  0  0  0  0  0  0  0  0  0  0
  -27.5483  -28.4573   19.3697 C   0  0  0  0  0  0  0  0  0  0  0  0
  -24.9155  -21.6340   19.9964 C   0  0  0  0  0  0  0  0  0  0  0  0
  -27.4436  -27.1789   19.9504 C   0  0  0  0  0  0  0  0  0  0  0  0
  -23.8812  -21.5053   20.9344 C   0  0  0  0  0  0  0  0  0  0  0  0
  -22.5364   -8.0566   21.3181 C   0  0  0  0  0  0  0  0  0  0  0  0
  -25.0034  -19.5712   21.8881 C   0  0  0  0  0  0  0  0  0  0  0  0
  -22.0923   -5.8711   20.5773 C   0  0  0  0  0  0  0  0  0  0  0  0
  -22.5685   -3.8219   18.7452 C   0  0  0  0  0  0  0  0  0  0  0  0
  -21.0446   -5.3673   19.8066 C   0  0  0  0  0  0  0  0  0  0  0  0
  -24.6460  -11.6863   20.7961 C   0  0  0  0  0  0  0  0  0  0  0  0
  -25.2030  -13.8071   20.6311 C   0  0  0  0  0  0  0  0  0  0  0  0
  -22.7847  -13.4280   21.1379 C   0  0  0  0  0  0  0  0  0  0  0  0
  -24.6696  -24.7783   20.3920 C   0  0  0  0  0  0  0  0  0  0  0  0
  -21.5709  -24.2437   19.5957 C   0  0  0  0  0  0  0  0  0  0  0  0
  -24.9504  -16.3619   24.7718 C   0  0  0  0  0  0  0  0  0  0  0  0
  -18.9588  -22.0537   19.4286 C   0  0  0  0  0  0  0  0  0  0  0  0
  -31.1603  -12.5346   21.2868 C   0  0  0  0  0  0  0  0  0  0  0  0
  -26.4467  -29.4794   19.4977 C   0  0  0  0  0  0  0  0  0  0  0  0
  -24.8680  -22.7172   18.9539 C   0  0  0  0  0  0  0  0  0  0  0  0
  -22.7108  -22.4529   20.9592 C   0  0  0  0  0  0  0  0  0  0  0  0
  -25.1019  -28.8785   19.8989 C   0  0  0  0  0  0  0  0  0  0  0  0
  -29.3947  -13.9113   18.3390 C   0  0  0  0  0  0  0  0  0  0  0  0
  -25.2776  -27.9037   21.0589 C   0  0  0  0  0  0  0  0  0  0  0  0
  -27.9397  -13.5384   18.6181 C   0  0  0  0  0  0  0  0  0  0  0  0
  -30.3661  -12.9268   18.9831 C   0  0  0  0  0  0  0  0  0  0  0  0
  -28.7009  -12.3691   20.7238 C   0  0  0  0  0  0  0  0  0  0  0  0
  -26.1853  -26.7329   20.6630 C   0  0  1  0  0  0  0  0  0  0  0  0
  -24.0044  -23.9054   19.3658 C   0  0  1  0  0  0  0  0  0  0  0  0
  -27.6970  -13.3674   20.1278 C   0  0  2  0  0  0  0  0  0  0  0  0
  -33.0753  -13.9814   23.5258 C   0  0  0  0  0  0  0  0  0  0  0  0
  -16.5416  -21.9174   18.7686 C   0  0  0  0  0  0  0  0  0  0  0  0
  -20.7909  -25.6993   22.1614 C   0  0  0  0  0  0  0  0  0  0  0  0
  -18.4980  -24.7189   21.9381 C   0  0  0  0  0  0  0  0  0  0  0  0
  -19.3740  -26.2524   20.1763 C   0  0  0  0  0  0  0  0  0  0  0  0
  -24.4104  -13.9278   24.5378 C   0  0  0  0  0  0  0  0  0  0  0  0
  -19.5191  -20.0150   17.3576 C   0  0  0  0  0  0  0  0  0  0  0  0
  -23.9421  -16.6025   23.6530 C   0  0  0  0  0  0  0  0  0  0  0  0
  -27.9879  -14.2998   24.5859 C   0  0  0  0  0  0  0  0  0  0  0  0
  -27.1539  -13.6946   25.7195 C   0  0  0  0  0  0  0  0  0  0  0  0
  -29.0773  -13.3284   24.1208 C   0  0  0  0  0  0  0  0  0  0  0  0
  -32.1079  -12.8152   23.5457 C   0  0  0  0  0  0  0  0  0  0  0  0
  -26.0670  -14.6431   26.2156 C   0  0  0  0  0  0  0  0  0  0  0  0
  -29.9645  -13.9231   23.0317 C   0  0  0  0  0  0  0  0  0  0  0  0
  -23.7952  -18.0738   23.2860 C   0  0  0  0  0  0  0  0  0  1  0  0
  -20.3124  -23.9120   20.3607 C   0  0  1  0  0  0  0  0  0  0  0  0
  -17.9807  -21.7358   18.3120 C   0  0  2  0  0  0  0  0  0  0  0  0
  -19.7667  -25.1288   21.1602 C   0  0  0  0  0  0  0  0  0  0  0  0
  -25.9542  -11.6687   20.5271 N   0  0  0  0  0  0  0  0  0  0  0  0
  -26.2637  -12.9731   20.4322 N   0  0  0  0  0  0  0  0  0  0  0  0
  -22.7128  -23.4991   19.9234 N   0  0  0  0  0  0  0  0  0  0  0  0
  -30.0857  -12.7503   20.4083 N   0  0  0  0  0  0  0  0  0  0  0  0
  -25.3380  -15.1489   20.5716 N   0  0  0  0  0  0  0  0  0  0  0  0
  -21.7985  -12.4581   21.3639 N   0  0  0  0  0  0  0  0  0  0  0  0
  -25.4564  -25.7791   19.8546 N   0  0  0  0  0  0  0  0  0  0  0  0
  -19.3734  -23.3680   19.3856 N   0  0  0  0  0  0  0  0  0  0  0  0
  -25.1347  -15.0299   25.1591 N   0  0  0  0  0  0  0  0  0  0  0  0
  -31.0164  -13.0048   22.6008 N   0  0  0  0  0  0  0  0  0  0  0  0
  -18.1550  -20.3278   17.8559 N   0  3  0  0  0  0  0  0  0  0  0  0
  -22.4681  -14.6416   21.1573 O   0  0  0  0  0  0  0  0  0  0  0  0
  -24.4818  -24.5609   21.5833 O   0  0  0  0  0  0  0  0  0  0  0  0
  -21.5400  -25.1259   18.7341 O   0  0  0  0  0  0  0  0  0  0  0  0
  -25.5542  -17.3070   25.2860 O   0  0  0  0  0  0  0  0  0  0  0  0
  -19.3163  -21.2204   20.2582 O   0  0  0  0  0  0  0  0  0  0  0  0
  -32.1933  -11.9631   20.9149 O   0  0  0  0  0  0  0  0  0  0  0  0
  -21.8577   -6.8889   21.4866 O   0  0  0  0  0  0  0  0  0  0  0  0
  -25.0452  -18.5727   22.8118 O   0  0  0  0  0  0  0  0  0  1  0  0
  -22.7976   -2.8390   17.8645 F   0  0  0  0  0  0  0  0  0  0  0  0
  -19.8074   -5.8643   19.9410 F   0  0  0  0  0  0  0  0  0  0  0  0
  1  2  1  0  0  0  0
  1  5  2  0  0  0  0
  2  6  2  0  0  0  0
  3  8  2  0  0  0  0
  3 15  1  0  0  0  0
  4  9  1  0  0  0  0
  4 15  2  0  0  0  0
  5 17  1  0  0  0  0
  6 19  1  0  0  0  0
  7 10  2  0  0  0  0
  7 18  1  0  0  0  0
  8 21  1  0  0  0  0
  9 21  2  0  0  0  0
 10 22  1  0  0  0  0
 11 12  2  0  0  0  0
 11 23  1  0  0  0  0
 12 24  1  0  0  0  0
 13 20  1  0  0  0  0
 13 22  2  0  0  0  0
 14 24  2  0  0  0  0
 14 25  1  0  0  0  0
 15 26  1  0  0  0  0
 16 26  1  0  0  0  0
 16 27  2  0  0  0  0
 16 28  1  0  0  0  0
 17 19  2  0  0  0  0
 17 34  1  0  0  0  0
 18 20  2  0  0  0  0
 18 35  1  0  0  0  0
 19 43  1  0  0  0  0
 20 36  1  0  0  0  0
 21 81  1  0  0  0  0
 22 82  1  0  0  0  0
 23 25  2  0  0  0  0
 23 81  1  0  0  0  0
 24 83  1  0  0  0  0
 25 84  1  0  0  0  0
 26 64  2  0  0  0  0
 27 65  1  0  0  0  0
 27 68  1  0  0  0  0
 28 69  1  0  0  0  0
 28 75  2  0  0  0  0
 29 44  1  0  0  0  0
 29 70  1  0  0  0  0
 29 76  2  0  0  0  0
 30 61  1  0  0  0  0
 30 66  1  0  0  0  0
 30 77  2  0  0  0  0
 31 53  1  0  0  0  0
 31 72  1  0  0  0  0
 31 78  2  0  0  0  0
 32 62  1  0  0  0  0
 32 71  1  0  0  0  0
 32 79  2  0  0  0  0
 33 67  1  0  0  0  0
 33 73  1  0  0  0  0
 33 80  2  0  0  0  0
 34 37  1  0  0  0  0
 35 44  1  0  0  0  0
 36 66  1  0  0  0  0
 37 39  1  0  0  0  0
 38 40  1  0  0  0  0
 38 41  1  0  0  0  0
 39 43  1  0  0  0  0
 40 45  1  0  0  0  0
 41 67  1  0  0  0  0
 42 45  1  0  0  0  0
 42 67  1  0  0  0  0
 43 70  1  0  0  0  0
 44 66  1  0  0  0  0
 45 65  1  0  0  0  0
 46 57  1  0  0  0  0
 47 62  1  0  0  0  0
 48 63  1  0  0  0  0
 49 63  1  0  0  0  0
 50 63  1  0  0  0  0
 51 72  1  0  0  0  0
 52 74  1  0  0  0  0
 53 60  1  0  0  0  0
 54 55  1  0  0  0  0
 54 56  1  0  0  0  0
 55 58  1  0  0  0  0
 56 59  1  0  0  0  0
 57 73  1  0  0  0  0
 58 72  1  0  0  0  0
 59 73  1  0  0  0  0
 60 82  1  0  0  0  0
 61 63  1  0  0  0  0
 61 71  1  0  0  0  0
 62 74  1  0  0  0  0
 64 65  1  0  0  0  0
M  CHG  1  74   1
M  ISO  4  33 100  60 101  73 100  82 101
M  END
> <Batch ID>
0007

> <Smiles>
CC[100N:0](CCCCCN(C)C(=O)C[101CH2:1][101O:1]c1ccc2c(c1)CN(C(=O)C(NC(=O)C(C)NC)C(C)(C)C)C(C(=O)NC1CCCc3ccccc31)C2)[100C:0](=O)N1CCCC(n2nc(-c3ccc(Oc4ccc(F)cc4F)cc3)c(C(N)=O)c2N)C1

> <Shape>
0.182

> <Color>
0.204

> <Negative vol penalty>
0.000

$$$$

  -OEChem-04052315333D

 89 97  0     1  0  0  0  0  0999 V2000
  -16.7531  -28.9840   24.0538 C   0  0  0  0  0  0  0  0  0  0  0  0
  -17.3332  -28.1605   23.0943 C   0  0  0  0  0  0  0  0  0  0  0  0
  -24.9703  -18.6037   23.6361 C   0  0  0  0  0  0  0  0  0  0  0  0
  -26.8408  -17.5176   24.7127 C   0  0  0  0  0  0  0  0  0  0  0  0
  -17.3306  -30.2172   24.3536 C   0  0  0  0  0  0  0  0  0  0  0  0
  -18.4906  -28.5701   22.4332 C   0  0  0  0  0  0  0  0  0  0  0  0
  -21.9482  -24.8847   22.1051 C   0  0  0  0  0  0  0  0  0  0  0  0
  -24.0908  -17.9251   24.4796 C   0  0  0  0  0  0  0  0  0  0  0  0
  -25.9612  -16.8391   25.5563 C   0  0  0  0  0  0  0  0  0  0  0  0
  -21.7466  -23.9074   21.1315 C   0  0  0  0  0  0  0  0  0  0  0  0
  -24.1902  -14.5485   27.7532 C   0  0  0  0  0  0  0  0  0  0  0  0
  -24.4106  -13.1867   27.9596 C   0  0  0  0  0  0  0  0  0  0  0  0
  -23.3347  -25.0188   19.6956 C   0  0  0  0  0  0  0  0  0  0  0  0
  -24.1426  -12.7846   25.5924 C   0  0  0  0  0  0  0  0  0  0  0  0
  -26.3454  -18.3999   23.7526 C   0  0  0  0  0  0  0  0  0  0  0  0
  -27.8527  -20.3542   23.1073 C   0  0  0  0  0  0  0  0  0  0  0  0
  -18.5011  -30.6379   23.7027 C   0  0  0  0  0  0  0  0  0  0  0  0
  -22.8379  -25.9443   21.8765 C   0  0  0  0  0  0  0  0  0  0  0  0
  -19.0835  -29.8106   22.7236 C   0  0  0  0  0  0  0  0  0  0  0  0
  -23.5477  -26.0070   20.6689 C   0  0  0  0  0  0  0  0  0  0  0  0
  -24.5862  -17.0428   25.4397 C   0  0  0  0  0  0  0  0  0  0  0  0
  -22.4378  -23.9759   19.9254 C   0  0  0  0  0  0  0  0  0  0  0  0
  -23.9460  -15.0283   26.4665 C   0  0  0  0  0  0  0  0  0  0  0  0
  -24.3867  -12.3048   26.8792 C   0  0  0  0  0  0  0  0  0  0  0  0
  -23.9222  -14.1464   25.3861 C   0  0  0  0  0  0  0  0  0  0  0  0
  -27.2544  -19.1001   22.8811 C   0  0  0  0  0  0  0  0  0  0  0  0
  -28.6232  -20.5733   21.9916 C   0  0  0  0  0  0  0  0  0  0  0  0
  -27.7235  -21.2417   24.2260 C   0  0  0  0  0  0  0  0  0  0  0  0
  -22.5619  -29.1057   21.6956 C   0  0  0  0  0  0  0  0  0  0  0  0
  -25.7975  -28.9866   21.4987 C   0  0  0  0  0  0  0  0  0  0  0  0
  -25.7110  -12.3821   21.4781 C   0  0  0  0  0  0  0  0  0  0  0  0
  -28.5875  -27.1887   20.7046 C   0  0  0  0  0  0  0  0  0  0  0  0
  -27.7811  -15.7567   19.4321 C   0  0  0  0  0  0  0  0  0  0  0  0
  -19.0621  -31.9999   24.0265 C   0  0  0  0  0  0  0  0  0  0  0  0
  -23.0642  -26.9759   22.9475 C   0  0  0  0  0  0  0  0  0  0  0  0
  -24.5293  -27.1128   20.3825 C   0  0  0  0  0  0  0  0  0  0  0  0
  -20.4989  -32.1959   23.5494 C   0  0  0  0  0  0  0  0  0  0  0  0
  -27.0886  -19.0582   18.2541 C   0  0  0  0  0  0  0  0  0  0  0  0
  -30.4094  -13.2608   19.5419 C   0  0  0  0  0  0  0  0  0  0  0  0
  -20.6554  -31.7084   22.1125 C   0  0  0  0  0  0  0  0  0  0  0  0
  -28.2819  -19.8926   18.7061 C   0  0  0  0  0  0  0  0  0  0  0  0
  -29.5728  -12.7773   20.7181 C   0  0  0  0  0  0  0  0  0  0  0  0
  -27.5304  -17.6538   17.8726 C   0  0  0  0  0  0  0  0  0  0  0  0
  -30.1188  -14.7534   19.5187 C   0  0  0  0  0  0  0  0  0  0  0  0
  -29.3854  -17.7341   19.5274 C   0  0  0  0  0  0  0  0  0  0  0  0
  -20.3530  -30.2090   22.0026 C   0  0  1  0  0  0  0  0  0  0  0  0
  -23.6089  -28.2928   22.4031 C   0  0  1  0  0  0  0  0  0  0  0  0
  -29.0791  -19.2183   19.8341 C   0  0  2  0  0  0  0  0  0  0  0  0
  -28.2999  -13.6222   20.6148 C   0  0  1  0  0  0  0  0  0  0  0  0
  -31.0297  -26.6496   20.4988 C   0  0  0  0  0  0  0  0  0  0  0  0
  -25.5789  -30.6511   18.9509 C   0  0  0  0  0  0  0  0  0  0  0  0
  -27.9346  -30.0009   18.4070 C   0  0  0  0  0  0  0  0  0  0  0  0
  -27.4500  -31.3134   20.4723 C   0  0  0  0  0  0  0  0  0  0  0  0
  -28.6768  -26.0181   23.4213 C   0  0  0  0  0  0  0  0  0  0  0  0
  -26.8352  -12.7045   22.4460 C   0  0  0  0  0  0  0  0  0  0  0  0
  -27.6796  -13.8857   21.9809 C   0  0  0  0  0  0  0  0  0  0  0  0
  -23.3454  -17.8690   19.5290 C   0  0  0  0  0  0  0  0  0  0  0  0
  -23.2889  -16.3969   19.1068 C   0  0  0  0  0  0  0  0  0  0  0  0
  -23.2816  -18.8452   18.3521 C   0  0  0  0  0  0  0  0  0  0  0  0
  -23.3246  -15.4246   20.2889 C   0  0  0  0  0  0  0  0  0  0  0  0
  -23.3107  -20.2976   18.8352 C   0  0  0  0  0  0  0  0  0  0  0  0
  -23.2645  -13.9510   19.8666 C   0  0  0  0  0  0  0  0  0  0  0  0
  -23.2772  -21.2756   17.6570 C   0  0  0  0  0  0  0  0  0  0  0  0
  -23.3420  -12.9475   21.0136 C   0  0  0  0  0  0  0  0  0  0  0  0
  -23.3386  -22.7288   18.1118 C   0  0  0  0  0  0  0  0  0  1  0  0
  -26.7966  -28.8731   20.3727 C   0  0  1  0  0  0  0  0  0  0  0  0
  -29.8889  -26.9655   21.4536 C   0  0  2  0  0  0  0  0  0  0  0  0
  -26.9202  -30.1897   19.5550 C   0  0  0  0  0  0  0  0  0  0  0  0
  -27.6138  -18.5604   21.7134 N   0  0  0  0  0  0  0  0  0  0  0  0
  -28.4462  -19.4799   21.1958 N   0  0  0  0  0  0  0  0  0  0  0  0
  -24.7112  -28.1011   21.4585 N   0  0  0  0  0  0  0  0  0  0  0  0
  -28.2501  -16.9919   18.9609 N   0  0  0  0  0  0  0  0  0  0  0  0
  -28.7202  -14.8553   19.9385 N   0  0  0  0  0  0  0  0  0  0  0  0
  -29.4279  -21.5927   21.6234 N   0  0  0  0  0  0  0  0  0  0  0  0
  -26.8909  -20.8619   25.2875 N   0  0  0  0  0  0  0  0  0  0  0  0
  -21.4743  -29.4307   22.4836 N   0  0  0  0  0  0  0  0  0  0  0  0
  -24.5532  -13.0807   21.7879 N   0  0  0  0  0  0  0  0  0  0  0  0
  -28.0462  -28.4268   20.9791 N   0  0  0  0  0  0  0  0  0  0  0  0
  -29.7483  -25.8308   22.4095 N   0  3  0  0  0  0  0  0  0  0  0  0
  -28.3156  -22.3464   24.2751 O   0  0  0  0  0  0  0  0  0  0  0  0
  -22.7292  -29.4165   20.5220 O   0  0  0  0  0  0  0  0  0  0  0  0
  -25.9782  -29.8250   22.3852 O   0  0  0  0  0  0  0  0  0  0  0  0
  -25.8316  -11.5976   20.5409 O   0  0  0  0  0  0  0  0  0  0  0  0
  -28.1018  -26.3503   19.9486 O   0  0  0  0  0  0  0  0  0  0  0  0
  -26.5778  -15.4673   19.3931 O   0  0  0  0  0  0  0  0  0  0  0  0
  -23.7282  -16.3807   26.2631 O   0  0  0  0  0  0  0  0  0  0  0  0
  -22.2409  -23.0164   18.9659 O   0  0  0  0  0  0  0  0  0  1  0  0
  -24.5999  -10.9973   27.0773 F   0  0  0  0  0  0  0  0  0  0  0  0
  -23.6892  -14.6017   24.1474 F   0  0  0  0  0  0  0  0  0  0  0  0
  1  2  1  0  0  0  0
  1  5  2  0  0  0  0
  2  6  2  0  0  0  0
  3  8  2  0  0  0  0
  3 15  1  0  0  0  0
  4  9  1  0  0  0  0
  4 15  2  0  0  0  0
  5 17  1  0  0  0  0
  6 19  1  0  0  0  0
  7 10  2  0  0  0  0
  7 18  1  0  0  0  0
  8 21  1  0  0  0  0
  9 21  2  0  0  0  0
 10 22  1  0  0  0  0
 11 12  2  0  0  0  0
 11 23  1  0  0  0  0
 12 24  1  0  0  0  0
 13 20  1  0  0  0  0
 13 22  2  0  0  0  0
 14 24  2  0  0  0  0
 14 25  1  0  0  0  0
 15 26  1  0  0  0  0
 16 26  1  0  0  0  0
 16 27  2  0  0  0  0
 16 28  1  0  0  0  0
 17 19  2  0  0  0  0
 17 34  1  0  0  0  0
 18 20  2  0  0  0  0
 18 35  1  0  0  0  0
 19 46  1  0  0  0  0
 20 36  1  0  0  0  0
 21 86  1  0  0  0  0
 22 87  1  0  0  0  0
 23 25  2  0  0  0  0
 23 86  1  0  0  0  0
 24 88  1  0  0  0  0
 25 89  1  0  0  0  0
 26 69  2  0  0  0  0
 27 70  1  0  0  0  0
 27 74  1  0  0  0  0
 28 75  1  0  0  0  0
 28 80  2  0  0  0  0
 29 47  1  0  0  0  0
 29 76  1  0  0  0  0
 29 81  2  0  0  0  0
 30 66  1  0  0  0  0
 30 71  1  0  0  0  0
 30 82  2  0  0  0  0
 31 55  1  0  0  0  0
 31 77  1  0  0  0  0
 31 83  2  0  0  0  0
 32 67  1  0  0  0  0
 32 78  1  0  0  0  0
 32 84  2  0  0  0  0
 33 72  1  0  0  0  0
 33 73  1  0  0  0  0
 33 85  2  0  0  0  0
 34 37  1  0  0  0  0
 35 47  1  0  0  0  0
 36 71  1  0  0  0  0
 37 40  1  0  0  0  0
 38 41  1  0  0  0  0
 38 43  1  0  0  0  0
 39 42  1  0  0  0  0
 39 44  1  0  0  0  0
 40 46  1  0  0  0  0
 41 48  1  0  0  0  0
 42 49  1  0  0  0  0
 43 72  1  0  0  0  0
 44 73  1  0  0  0  0
 45 48  1  0  0  0  0
 45 72  1  0  0  0  0
 46 76  1  0  0  0  0
 47 71  1  0  0  0  0
 48 70  1  0  0  0  0
 49 56  1  0  0  0  0
 49 73  1  0  0  0  0
 50 67  1  0  0  0  0
 51 68  1  0  0  0  0
 52 68  1  0  0  0  0
 53 68  1  0  0  0  0
 54 79  1  0  0  0  0
 55 56  1  0  0  0  0
 57 58  1  0  0  0  0
 57 59  1  0  0  0  0
 58 60  1  0  0  0  0
 59 61  1  0  0  0  0
 60 62  1  0  0  0  0
 61 63  1  0  0  0  0
 62 64  1  0  0  0  0
 63 65  1  0  0  0  0
 64 77  1  0  0  0  0
 65 87  1  0  0  0  0
 66 68  1  0  0  0  0
 66 78  1  0  0  0  0
 67 79  1  0  0  0  0
 69 70  1  0  0  0  0
M  CHG  1  79   1
M  ISO  4  33 100  65 101  73 100  87 101
M  END
> <Batch ID>
0007

> <Smiles>
CNC(C)C(=O)NC(C(=O)N1Cc2cc([101O:1][101CH2:1]CCCCCCCCNC(=O)CCC3CCC[100N:0]3[100C:0](=O)N3CCCC(n4nc(-c5ccc(Oc6ccc(F)cc6F)cc5)c(C(N)=O)c4N)C3)ccc2CC1C(=O)NC1CCCc2ccccc21)C(C)(C)C

> <Shape>
0.217

> <Color>
0.080

> <Negative vol penalty>
0.000

$$$$

  -OEChem-04052315333D

 83 92  0     1  0  0  0  0  0999 V2000
  -29.4456  -32.6845   20.1394 C   0  0  0  0  0  0  0  0  0  0  0  0
  -29.5947  -31.7144   21.1254 C   0  0  0  0  0  0  0  0  0  0  0  0
  -23.0701   -9.9211   19.9504 C   0  0  0  0  0  0  0  0  0  0  0  0
  -23.8232   -9.9305   22.2461 C   0  0  0  0  0  0  0  0  0  0  0  0
  -28.7569  -32.3833   18.9652 C   0  0  0  0  0  0  0  0  0  0  0  0
  -29.0542  -30.4427   20.9380 C   0  0  0  0  0  0  0  0  0  0  0  0
  -32.7444  -17.4600   23.4515 C   0  0  0  0  0  0  0  0  0  0  0  0
  -31.3942  -25.1256   22.8767 C   0  0  0  0  0  0  0  0  0  0  0  0
  -32.1206  -16.5870   22.5540 C   0  0  0  0  0  0  0  0  0  0  0  0
  -22.3155   -8.7754   20.2027 C   0  0  0  0  0  0  0  0  0  0  0  0
  -23.0685   -8.7849   22.4983 C   0  0  0  0  0  0  0  0  0  0  0  0
  -31.1163  -24.3271   23.9852 C   0  0  0  0  0  0  0  0  0  0  0  0
  -19.8318   -8.0175   23.0942 C   0  0  0  0  0  0  0  0  0  0  0  0
  -19.0710   -7.9887   24.2629 C   0  0  0  0  0  0  0  0  0  0  0  0
  -29.9223  -17.4618   23.1359 C   0  0  0  0  0  0  0  0  0  0  0  0
  -29.6413  -22.9773   22.6356 C   0  0  0  0  0  0  0  0  0  0  0  0
  -20.2933   -6.0435   25.0107 C   0  0  0  0  0  0  0  0  0  0  0  0
  -23.8240  -10.4986   20.9721 C   0  0  0  0  0  0  0  0  0  0  0  0
  -30.5629  -18.3134   24.0148 C   0  0  0  0  0  0  0  0  0  0  0  0
  -24.1881  -13.0202   20.8432 C   0  0  0  0  0  0  0  0  0  0  0  0
  -31.9486  -18.3236   24.1801 C   0  0  0  0  0  0  0  0  0  0  0  0
  -28.2160  -31.1044   18.7592 C   0  0  0  0  0  0  0  0  0  0  0  0
  -30.7884  -24.8621   21.6398 C   0  0  0  0  0  0  0  0  0  0  0  0
  -28.3564  -30.1245   19.7604 C   0  0  0  0  0  0  0  0  0  0  0  0
  -29.9152  -23.7724   21.5122 C   0  0  0  0  0  0  0  0  0  0  0  0
  -30.7221  -16.5882   22.3978 C   0  0  0  0  0  0  0  0  0  0  0  0
  -22.3147   -8.2073   21.4766 C   0  0  0  0  0  0  0  0  0  0  0  0
  -30.2375  -23.2545   23.8655 C   0  0  0  0  0  0  0  0  0  0  0  0
  -20.8233   -7.0592   22.8836 C   0  0  0  0  0  0  0  0  0  0  0  0
  -19.3017   -7.0018   25.2212 C   0  0  0  0  0  0  0  0  0  0  0  0
  -21.0541   -6.0722   23.8419 C   0  0  0  0  0  0  0  0  0  0  0  0
  -24.6042  -11.6818   20.7121 C   0  0  0  0  0  0  0  0  0  0  0  0
  -25.2878  -13.7588   20.4804 C   0  0  0  0  0  0  0  0  0  0  0  0
  -29.9840  -19.3246   24.9063 C   0  0  0  0  0  0  0  0  0  0  0  0
  -22.9209  -13.5487   21.2563 C   0  0  0  0  0  0  0  0  0  0  0  0
  -28.8226  -26.4593   19.7192 C   0  0  0  0  0  0  0  0  0  0  0  0
  -29.3511  -23.9494   17.7335 C   0  0  0  0  0  0  0  0  0  0  0  0
  -30.2505  -20.6766   17.3768 C   0  0  0  0  0  0  0  0  0  0  0  0
  -30.7623  -14.7576   20.6676 C   0  0  0  0  0  0  0  0  0  0  0  0
  -27.4389  -30.8400   17.4939 C   0  0  0  0  0  0  0  0  0  0  0  0
  -31.1193  -25.7167   20.4471 C   0  0  0  0  0  0  0  0  0  0  0  0
  -32.3450  -19.3448   25.1910 C   0  0  0  0  0  0  0  0  0  0  0  0
  -29.2544  -23.4349   20.2015 C   0  0  0  0  0  0  0  0  0  0  0  0
  -27.2201  -29.3557   17.2124 C   0  0  0  0  0  0  0  0  0  0  0  0
  -29.6341  -12.3442   18.3054 C   0  0  0  0  0  0  0  0  0  0  0  0
  -26.7516  -28.6366   18.4734 C   0  0  0  0  0  0  0  0  0  0  0  0
  -28.1907  -12.0668   18.7318 C   0  0  0  0  0  0  0  0  0  0  0  0
  -30.5476  -12.5698   19.5089 C   0  0  0  0  0  0  0  0  0  0  0  0
  -28.6428  -13.3163   20.8815 C   0  0  0  0  0  0  0  0  0  0  0  0
  -27.8058  -28.7261   19.5835 C   0  0  1  0  0  0  0  0  0  0  0  0
  -30.0486  -25.6678   19.3614 C   0  0  1  0  0  0  0  0  0  0  0  0
  -27.6721  -13.1468   19.7014 C   0  0  2  0  0  0  0  0  0  0  0  0
  -30.5532  -18.8955   15.6351 C   0  0  0  0  0  0  0  0  0  0  0  0
  -26.3234  -23.6203   17.5472 C   0  0  0  0  0  0  0  0  0  0  0  0
  -26.7000  -21.3282   16.6131 C   0  0  0  0  0  0  0  0  0  0  0  0
  -27.5397  -23.3284   15.3816 C   0  0  0  0  0  0  0  0  0  0  0  0
  -33.1233  -20.3731   18.0200 C   0  0  0  0  0  0  0  0  0  0  0  0
  -30.9055  -20.9580   26.5573 C   0  0  0  0  0  0  0  0  0  0  0  0
  -30.9935  -22.3353   25.9245 C   0  0  0  0  0  0  0  0  0  1  0  0
  -28.6978  -22.6069   17.5100 C   0  0  1  0  0  0  0  0  0  0  0  0
  -31.2292  -19.9978   16.4356 C   0  0  2  0  0  0  0  0  0  0  0  0
  -27.3260  -22.7282   16.7883 C   0  0  0  0  0  0  0  0  0  0  0  0
  -25.8694  -11.5733   20.2980 N   0  0  0  0  0  0  0  0  0  0  0  0
  -26.2578  -12.8531   20.1658 N   0  0  0  0  0  0  0  0  0  0  0  0
  -31.0547  -19.9108   25.5820 N   0  0  0  0  0  0  0  0  0  0  0  0
  -29.6051  -24.3038   19.0660 N   0  0  0  0  0  0  0  0  0  0  0  0
  -29.9949  -13.6089   20.3806 N   0  0  0  0  0  0  0  0  0  0  0  0
  -25.5100  -15.0881   20.4028 N   0  0  0  0  0  0  0  0  0  0  0  0
  -21.9001  -12.6497   21.5940 N   0  0  0  0  0  0  0  0  0  0  0  0
  -30.1205  -15.6915   21.4804 N   0  0  0  0  0  0  0  0  0  0  0  0
  -28.8788  -27.7864   19.3384 N   0  0  0  0  0  0  0  0  0  0  0  0
  -29.6762  -21.7899   16.8004 N   0  0  0  0  0  0  0  0  0  0  0  0
  -32.3555  -19.3970   17.2047 N   0  3  0  0  0  0  0  0  0  0  0  0
  -28.7921  -19.5570   24.9917 O   0  0  0  0  0  0  0  0  0  0  0  0
  -22.6951  -14.7815   21.3081 O   0  0  0  0  0  0  0  0  0  0  0  0
  -27.8938  -25.9066   20.2968 O   0  0  0  0  0  0  0  0  0  0  0  0
  -29.6325  -24.6543   16.7611 O   0  0  0  0  0  0  0  0  0  0  0  0
  -30.0159  -20.2589   18.5086 O   0  0  0  0  0  0  0  0  0  0  0  0
  -31.8942  -14.9147   20.2027 O   0  0  0  0  0  0  0  0  0  0  0  0
  -21.5783   -7.0895   21.7231 O   0  0  0  0  0  0  0  0  0  0  0  0
  -29.9639  -22.4739   24.9461 O   0  0  0  0  0  0  0  0  0  1  0  0
  -18.5721   -6.9752   26.3442 F   0  0  0  0  0  0  0  0  0  0  0  0
  -22.0060   -5.1497   23.6458 F   0  0  0  0  0  0  0  0  0  0  0  0
  1  2  1  0  0  0  0
  1  5  2  0  0  0  0
  2  6  2  0  0  0  0
  3 10  2  0  0  0  0
  3 18  1  0  0  0  0
  4 11  1  0  0  0  0
  4 18  2  0  0  0  0
  5 22  1  0  0  0  0
  6 24  1  0  0  0  0
  7  9  2  0  0  0  0
  7 21  1  0  0  0  0
  8 12  2  0  0  0  0
  8 23  1  0  0  0  0
  9 26  1  0  0  0  0
 10 27  1  0  0  0  0
 11 27  2  0  0  0  0
 12 28  1  0  0  0  0
 13 14  2  0  0  0  0
 13 29  1  0  0  0  0
 14 30  1  0  0  0  0
 15 19  1  0  0  0  0
 15 26  2  0  0  0  0
 16 25  1  0  0  0  0
 16 28  2  0  0  0  0
 17 30  2  0  0  0  0
 17 31  1  0  0  0  0
 18 32  1  0  0  0  0
 19 21  2  0  0  0  0
 19 34  1  0  0  0  0
 20 32  1  0  0  0  0
 20 33  2  0  0  0  0
 20 35  1  0  0  0  0
 21 42  1  0  0  0  0
 22 24  2  0  0  0  0
 22 40  1  0  0  0  0
 23 25  2  0  0  0  0
 23 41  1  0  0  0  0
 24 50  1  0  0  0  0
 25 43  1  0  0  0  0
 26 70  1  0  0  0  0
 27 80  1  0  0  0  0
 28 81  1  0  0  0  0
 29 31  2  0  0  0  0
 29 80  1  0  0  0  0
 30 82  1  0  0  0  0
 31 83  1  0  0  0  0
 32 63  2  0  0  0  0
 33 64  1  0  0  0  0
 33 68  1  0  0  0  0
 34 65  1  0  0  0  0
 34 74  2  0  0  0  0
 35 69  1  0  0  0  0
 35 75  2  0  0  0  0
 36 51  1  0  0  0  0
 36 71  1  0  0  0  0
 36 76  2  0  0  0  0
 37 60  1  0  0  0  0
 37 66  1  0  0  0  0
 37 77  2  0  0  0  0
 38 61  1  0  0  0  0
 38 72  1  0  0  0  0
 38 78  2  0  0  0  0
 39 67  1  0  0  0  0
 39 70  1  0  0  0  0
 39 79  2  0  0  0  0
 40 44  1  0  0  0  0
 41 51  1  0  0  0  0
 42 65  1  0  0  0  0
 43 66  1  0  0  0  0
 44 46  1  0  0  0  0
 45 47  1  0  0  0  0
 45 48  1  0  0  0  0
 46 50  1  0  0  0  0
 47 52  1  0  0  0  0
 48 67  1  0  0  0  0
 49 52  1  0  0  0  0
 49 67  1  0  0  0  0
 50 71  1  0  0  0  0
 51 66  1  0  0  0  0
 52 64  1  0  0  0  0
 53 61  1  0  0  0  0
 54 62  1  0  0  0  0
 55 62  1  0  0  0  0
 56 62  1  0  0  0  0
 57 73  1  0  0  0  0
 58 59  1  0  0  0  0
 58 65  1  0  0  0  0
 59 81  1  0  0  0  0
 60 62  1  0  0  0  0
 60 72  1  0  0  0  0
 61 73  1  0  0  0  0
 63 64  1  0  0  0  0
M  CHG  1  73   1
M  ISO  4  39 100  59 101  70 100  81 101
M  END
> <Batch ID>
0007

> <Smiles>
CNC(C)C(=O)NC(C(=O)N1Cc2cc([101O:1][101CH2:1]CN3Cc4ccc([100NH:0][100C:0](=O)N5CCCC(n6nc(-c7ccc(Oc8ccc(F)cc8F)cc7)c(C(N)=O)c6N)C5)cc4C3=O)ccc2CC1C(=O)NC1CCCc2ccccc21)C(C)(C)C

> <Shape>
0.242

> <Color>
0.202

> <Negative vol penalty>
0.000

$$$$

  -OEChem-04052315333D

 82 90  0     1  0  0  0  0  0999 V2000
  -24.6122  -34.0114   28.0639 C   0  0  0  0  0  0  0  0  0  0  0  0
  -25.4919  -33.1965   27.3586 C   0  0  0  0  0  0  0  0  0  0  0  0
  -24.2567   -9.1059   21.4812 C   0  0  0  0  0  0  0  0  0  0  0  0
  -24.7683  -10.3935   23.4604 C   0  0  0  0  0  0  0  0  0  0  0  0
  -23.2367  -33.8149   27.9481 C   0  0  0  0  0  0  0  0  0  0  0  0
  -24.9966  -32.1839   26.5377 C   0  0  0  0  0  0  0  0  0  0  0  0
  -27.3828  -30.2386   21.2437 C   0  0  0  0  0  0  0  0  0  0  0  0
  -30.2159  -18.8786   20.0778 C   0  0  0  0  0  0  0  0  0  0  0  0
  -23.9218   -8.0121   22.2793 C   0  0  0  0  0  0  0  0  0  0  0  0
  -24.4333   -9.2997   24.2585 C   0  0  0  0  0  0  0  0  0  0  0  0
  -28.1972  -29.1529   20.9246 C   0  0  0  0  0  0  0  0  0  0  0  0
  -30.3965  -20.2134   20.4399 C   0  0  0  0  0  0  0  0  0  0  0  0
  -21.2944   -7.0103   24.1570 C   0  0  0  0  0  0  0  0  0  0  0  0
  -20.1253   -6.3155   23.8470 C   0  0  0  0  0  0  0  0  0  0  0  0
  -26.2451  -27.8791   20.3032 C   0  0  0  0  0  0  0  0  0  0  0  0
  -28.0127  -20.4509   20.7535 C   0  0  0  0  0  0  0  0  0  0  0  0
  -21.4143   -4.3017   23.4998 C   0  0  0  0  0  0  0  0  0  0  0  0
  -24.6800  -10.2966   22.0717 C   0  0  0  0  0  0  0  0  0  0  0  0
  -24.1683  -12.4504   20.8040 C   0  0  0  0  0  0  0  0  0  0  0  0
  -22.7241  -32.8057   27.1179 C   0  0  0  0  0  0  0  0  0  0  0  0
  -25.9903  -30.1489   21.1050 C   0  0  0  0  0  0  0  0  0  0  0  0
  -23.6130  -31.9729   26.4117 C   0  0  0  0  0  0  0  0  0  0  0  0
  -25.4155  -28.9660   20.6188 C   0  0  0  0  0  0  0  0  0  0  0  0
  -28.9336  -18.3299   20.0534 C   0  0  0  0  0  0  0  0  0  0  0  0
  -24.0101   -8.1090   23.6679 C   0  0  0  0  0  0  0  0  0  0  0  0
  -27.6281  -27.9719   20.4571 C   0  0  0  0  0  0  0  0  0  0  0  0
  -29.2950  -20.9996   20.7778 C   0  0  0  0  0  0  0  0  0  0  0  0
  -22.5234   -6.3509   24.1383 C   0  0  0  0  0  0  0  0  0  0  0  0
  -20.1853   -4.9612   23.5185 C   0  0  0  0  0  0  0  0  0  0  0  0
  -27.8321  -19.1160   20.3913 C   0  0  0  0  0  0  0  0  0  0  0  0
  -22.5834   -4.9966   23.8098 C   0  0  0  0  0  0  0  0  0  0  0  0
  -25.0267  -11.4267   21.2478 C   0  0  0  0  0  0  0  0  0  0  0  0
  -24.9747  -13.2760   20.0594 C   0  0  0  0  0  0  0  0  0  0  0  0
  -22.7672  -12.6382   21.0434 C   0  0  0  0  0  0  0  0  0  0  0  0
  -23.5206  -30.3437   23.0966 C   0  0  0  0  0  0  0  0  0  0  0  0
  -21.7957  -30.1726   20.3547 C   0  0  0  0  0  0  0  0  0  0  0  0
  -21.6387  -29.2028   17.0865 C   0  0  0  0  0  0  0  0  0  0  0  0
  -29.7411  -16.0584   19.3221 C   0  0  0  0  0  0  0  0  0  0  0  0
  -21.2309  -32.6009   27.0614 C   0  0  0  0  0  0  0  0  0  0  0  0
  -25.1278  -31.3381   21.4281 C   0  0  0  0  0  0  0  0  0  0  0  0
  -23.9275  -28.8254   20.4328 C   0  0  0  0  0  0  0  0  0  0  0  0
  -20.7774  -31.7478   25.8795 C   0  0  0  0  0  0  0  0  0  0  0  0
  -29.7068  -12.6236   18.3850 C   0  0  0  0  0  0  0  0  0  0  0  0
  -21.6503  -30.5032   25.7534 C   0  0  0  0  0  0  0  0  0  0  0  0
  -28.4155  -12.0902   19.0097 C   0  0  0  0  0  0  0  0  0  0  0  0
  -30.3849  -13.6587   19.2809 C   0  0  0  0  0  0  0  0  0  0  0  0
  -28.2331  -14.2360   20.3323 C   0  0  0  0  0  0  0  0  0  0  0  0
  -23.1136  -30.8799   25.4919 C   0  0  1  0  0  0  0  0  0  0  0  0
  -23.6820  -30.9615   21.7365 C   0  0  1  0  0  0  0  0  0  0  0  0
  -27.4802  -13.2383   19.4372 C   0  0  2  0  0  0  0  0  0  0  0  0
  -20.0851  -29.1624   15.1161 C   0  0  0  0  0  0  0  0  0  0  0  0
  -20.2767  -27.8395   21.6034 C   0  0  0  0  0  0  0  0  0  0  0  0
  -19.4426  -27.2500   19.3175 C   0  0  0  0  0  0  0  0  0  0  0  0
  -18.8500  -29.4513   20.3303 C   0  0  0  0  0  0  0  0  0  0  0  0
  -23.4541  -30.8939   15.4731 C   0  0  0  0  0  0  0  0  0  0  0  0
  -28.9589  -24.6088   20.6297 C   0  0  0  0  0  0  0  0  0  0  0  0
  -27.8587  -25.6093   20.3123 C   0  0  0  0  0  0  0  0  0  1  0  0
  -28.4097  -23.2060   20.8371 C   0  0  0  0  0  0  0  0  0  0  0  0
  -21.2136  -29.0531   19.5260 C   0  0  1  0  0  0  0  0  0  0  0  0
  -21.1770  -29.9352   15.8395 C   0  0  2  0  0  0  0  0  0  0  0  0
  -19.9736  -28.4001   20.1995 C   0  0  0  0  0  0  0  0  0  0  0  0
  -26.2823  -11.5853   20.8207 N   0  0  0  0  0  0  0  0  0  0  0  0
  -26.2187  -12.7183   20.1006 N   0  0  0  0  0  0  0  0  0  0  0  0
  -23.1260  -30.0139   20.7684 N   0  0  0  0  0  0  0  0  0  0  0  0
  -29.4398  -14.7176   19.6419 N   0  0  0  0  0  0  0  0  0  0  0  0
  -24.7340  -14.4175   19.3799 N   0  0  0  0  0  0  0  0  0  0  0  0
  -22.0916  -11.6955   21.8304 N   0  0  0  0  0  0  0  0  0  0  0  0
  -28.7535  -16.9736   19.6850 N   0  0  0  0  0  0  0  0  0  0  0  0
  -23.2983  -31.2591   24.1075 N   0  0  0  0  0  0  0  0  0  0  0  0
  -20.9493  -29.6168   18.2066 N   0  0  0  0  0  0  0  0  0  0  0  0
  -22.3176  -30.1280   14.8999 N   0  3  0  0  0  0  0  0  0  0  0  0
  -22.1296  -13.6042   20.5598 O   0  0  0  0  0  0  0  0  0  0  0  0
  -23.5911  -29.1265   23.2195 O   0  0  0  0  0  0  0  0  0  0  0  0
  -21.0982  -31.1551   20.6191 O   0  0  0  0  0  0  0  0  0  0  0  0
  -22.5198  -28.3462   17.0680 O   0  0  0  0  0  0  0  0  0  0  0  0
  -30.7851  -16.3685   18.7427 O   0  0  0  0  0  0  0  0  0  0  0  0
  -23.6831   -7.0420   24.4471 O   0  0  0  0  0  0  0  0  0  0  0  0
  -28.4206  -26.9104   20.1455 O   0  0  0  0  0  0  0  0  0  1  0  0
  -29.4727  -22.3109   21.1348 O   0  0  0  0  0  0  0  0  0  0  0  0
  -19.0624   -4.2937   23.2223 F   0  0  0  0  0  0  0  0  0  0  0  0
  -26.5952  -18.5992   20.3709 F   0  0  0  0  0  0  0  0  0  0  0  0
  -23.7611   -4.3575   23.7913 F   0  0  0  0  0  0  0  0  0  0  0  0
  1  2  1  0  0  0  0
  1  5  2  0  0  0  0
  2  6  2  0  0  0  0
  3  9  2  0  0  0  0
  3 18  1  0  0  0  0
  4 10  1  0  0  0  0
  4 18  2  0  0  0  0
  5 20  1  0  0  0  0
  6 22  1  0  0  0  0
  7 11  2  0  0  0  0
  7 21  1  0  0  0  0
  8 12  2  0  0  0  0
  8 24  1  0  0  0  0
  9 25  1  0  0  0  0
 10 25  2  0  0  0  0
 11 26  1  0  0  0  0
 12 27  1  0  0  0  0
 13 14  2  0  0  0  0
 13 28  1  0  0  0  0
 14 29  1  0  0  0  0
 15 23  1  0  0  0  0
 15 26  2  0  0  0  0
 16 27  2  0  0  0  0
 16 30  1  0  0  0  0
 17 29  2  0  0  0  0
 17 31  1  0  0  0  0
 18 32  1  0  0  0  0
 19 32  1  0  0  0  0
 19 33  2  0  0  0  0
 19 34  1  0  0  0  0
 20 22  2  0  0  0  0
 20 39  1  0  0  0  0
 21 23  2  0  0  0  0
 21 40  1  0  0  0  0
 22 48  1  0  0  0  0
 23 41  1  0  0  0  0
 24 30  2  0  0  0  0
 24 68  1  0  0  0  0
 25 77  1  0  0  0  0
 26 78  1  0  0  0  0
 27 79  1  0  0  0  0
 28 31  2  0  0  0  0
 28 77  1  0  0  0  0
 29 80  1  0  0  0  0
 30 81  1  0  0  0  0
 31 82  1  0  0  0  0
 32 62  2  0  0  0  0
 33 63  1  0  0  0  0
 33 66  1  0  0  0  0
 34 67  1  0  0  0  0
 34 72  2  0  0  0  0
 35 49  1  0  0  0  0
 35 69  1  0  0  0  0
 35 73  2  0  0  0  0
 36 59  1  0  0  0  0
 36 64  1  0  0  0  0
 36 74  2  0  0  0  0
 37 60  1  0  0  0  0
 37 70  1  0  0  0  0
 37 75  2  0  0  0  0
 38 65  1  0  0  0  0
 38 68  1  0  0  0  0
 38 76  2  0  0  0  0
 39 42  1  0  0  0  0
 40 49  1  0  0  0  0
 41 64  1  0  0  0  0
 42 44  1  0  0  0  0
 43 45  1  0  0  0  0
 43 46  1  0  0  0  0
 44 48  1  0  0  0  0
 45 50  1  0  0  0  0
 46 65  1  0  0  0  0
 47 50  1  0  0  0  0
 47 65  1  0  0  0  0
 48 69  1  0  0  0  0
 49 64  1  0  0  0  0
 50 63  1  0  0  0  0
 51 60  1  0  0  0  0
 52 61  1  0  0  0  0
 53 61  1  0  0  0  0
 54 61  1  0  0  0  0
 55 71  1  0  0  0  0
 56 57  1  0  0  0  0
 56 58  1  0  0  0  0
 57 78  1  0  0  0  0
 58 79  1  0  0  0  0
 59 61  1  0  0  0  0
 59 70  1  0  0  0  0
 60 71  1  0  0  0  0
 62 63  1  0  0  0  0
M  CHG  1  71   1
M  ISO  4  38 100  57 101  68 100  78 101
M  END
> <Batch ID>
0007

> <Smiles>
CNC(C)C(=O)NC(C(=O)N1Cc2cc([101O:1][101CH2:1]CCOc3ccc([100NH:0][100C:0](=O)N4CCCC(n5nc(-c6ccc(Oc7ccc(F)cc7F)cc6)c(C(N)=O)c5N)C4)c(F)c3)ccc2CC1C(=O)NC1CCCc2ccccc21)C(C)(C)C

> <Shape>
0.303

> <Color>
0.145

> <Negative vol penalty>
0.000

$$$$

  -OEChem-04052315333D

101109  0     1  0  0  0  0  0999 V2000
  -32.5808  -29.8560   15.3922 C   0  0  0  0  0  0  0  0  0  0  0  0
  -31.8203  -28.7279   15.6824 C   0  0  0  0  0  0  0  0  0  0  0  0
  -26.6040  -11.9625   21.3877 C   0  0  0  0  0  0  0  0  0  0  0  0
  -25.8808  -13.5847   19.7498 C   0  0  0  0  0  0  0  0  0  0  0  0
  -32.7792  -30.8316   16.3684 C   0  0  0  0  0  0  0  0  0  0  0  0
  -31.2585  -28.5741   16.9494 C   0  0  0  0  0  0  0  0  0  0  0  0
  -25.8829  -25.9702   18.3015 C   0  0  0  0  0  0  0  0  0  0  0  0
  -25.3736  -11.3132   21.2879 C   0  0  0  0  0  0  0  0  0  0  0  0
  -24.6503  -12.9353   19.6500 C   0  0  0  0  0  0  0  0  0  0  0  0
  -25.5456  -24.6951   18.7533 C   0  0  0  0  0  0  0  0  0  0  0  0
  -21.1872  -11.9158   19.2290 C   0  0  0  0  0  0  0  0  0  0  0  0
  -20.0364  -12.7040   19.2276 C   0  0  0  0  0  0  0  0  0  0  0  0
  -25.5132  -25.5140   21.0221 C   0  0  0  0  0  0  0  0  0  0  0  0
  -30.4411  -22.3996   20.9881 C   0  0  0  0  0  0  0  0  0  0  0  0
  -20.6183  -13.5576   21.4116 C   0  0  0  0  0  0  0  0  0  0  0  0
  -26.8576  -13.0983   20.6187 C   0  0  0  0  0  0  0  0  0  0  0  0
  -29.2864  -13.5192   19.9617 C   0  0  0  0  0  0  0  0  0  0  0  0
  -32.2115  -30.6943   17.6449 C   0  0  0  0  0  0  0  0  0  0  0  0
  -26.0489  -27.0261   19.2092 C   0  0  0  0  0  0  0  0  0  0  0  0
  -31.4505  -29.5480   17.9439 C   0  0  0  0  0  0  0  0  0  0  0  0
  -25.8501  -26.8022   20.5791 C   0  0  0  0  0  0  0  0  0  0  0  0
  -30.4661  -22.3516   18.1988 C   0  0  0  0  0  0  0  0  0  0  0  0
  -30.5216  -21.1821   20.3122 C   0  0  0  0  0  0  0  0  0  0  0  0
  -24.3968  -11.7995   20.4191 C   0  0  0  0  0  0  0  0  0  0  0  0
  -25.3635  -24.4662   20.1140 C   0  0  0  0  0  0  0  0  0  0  0  0
  -22.0536  -11.9485   20.3217 C   0  0  0  0  0  0  0  0  0  0  0  0
  -19.7519  -13.5249   20.3188 C   0  0  0  0  0  0  0  0  0  0  0  0
  -30.3729  -23.5932   20.2693 C   0  0  0  0  0  0  0  0  0  0  0  0
  -21.7691  -12.7694   21.4130 C   0  0  0  0  0  0  0  0  0  0  0  0
  -30.5342  -21.1581   18.9176 C   0  0  0  0  0  0  0  0  0  0  0  0
  -30.3854  -23.5691   18.8747 C   0  0  0  0  0  0  0  0  0  0  0  0
  -28.1282  -13.7699   20.7217 C   0  0  0  0  0  0  0  0  0  0  0  0
  -30.2112  -14.4152   20.4394 C   0  0  0  0  0  0  0  0  0  0  0  0
  -29.5065  -12.5620   18.9171 C   0  0  0  0  0  0  0  0  0  0  0  0
  -28.4668  -28.9189   20.0306 C   0  0  0  0  0  0  0  0  0  0  0  0
  -26.1881  -30.4146   21.7892 C   0  0  0  0  0  0  0  0  0  0  0  0
  -28.2556  -21.5539   15.9151 C   0  0  0  0  0  0  0  0  0  0  0  0
  -24.4927  -20.8858   20.2382 C   0  0  0  0  0  0  0  0  0  0  0  0
  -23.1776  -30.2336   23.3863 C   0  0  0  0  0  0  0  0  0  0  0  0
  -30.5889  -19.8232   22.4324 C   0  0  0  0  0  0  0  0  0  0  0  0
  -32.4930  -31.7524   18.6822 C   0  0  0  0  0  0  0  0  0  0  0  0
  -26.3866  -28.4018   18.7034 C   0  0  0  0  0  0  0  0  0  0  0  0
  -25.9966  -27.9066   21.5926 C   0  0  0  0  0  0  0  0  0  0  0  0
  -31.5518  -31.6942   19.8826 C   0  0  0  0  0  0  0  0  0  0  0  0
  -30.7075  -17.0161   24.6195 C   0  0  0  0  0  0  0  0  0  0  0  0
  -31.4100  -30.2595   20.3807 C   0  0  0  0  0  0  0  0  0  0  0  0
  -30.1680  -15.8672   23.7644 C   0  0  0  0  0  0  0  0  0  0  0  0
  -29.9857  -18.3298   24.3248 C   0  0  0  0  0  0  0  0  0  0  0  0
  -29.4133  -17.5671   22.0533 C   0  0  0  0  0  0  0  0  0  0  0  0
  -30.8041  -29.3572   19.2989 C   0  0  1  0  0  0  0  0  0  0  0  0
  -27.0343  -29.2862   19.7644 C   0  0  1  0  0  0  0  0  0  0  0  0
  -30.1537  -16.2369   22.2681 C   0  0  2  0  0  0  0  0  0  0  0  0
  -21.5945  -31.6064   24.7672 C   0  0  0  0  0  0  0  0  0  0  0  0
  -28.0166  -30.0843   24.2094 C   0  0  0  0  0  0  0  0  0  0  0  0
  -26.0497  -30.5830   25.6760 C   0  0  0  0  0  0  0  0  0  0  0  0
  -26.8688  -32.3015   24.0640 C   0  0  0  0  0  0  0  0  0  0  0  0
  -21.0172  -29.9713   21.3805 C   0  0  0  0  0  0  0  0  0  0  0  0
  -30.4772  -22.3263   16.6977 C   0  0  0  0  0  0  0  0  0  0  0  0
  -26.9491  -22.0867   15.3505 C   0  0  0  0  0  0  0  0  0  0  0  0
  -24.8902  -22.1950   19.5906 C   0  0  0  0  0  0  0  0  0  1  0  0
  -26.2291  -21.0950   14.4375 C   0  0  0  0  0  0  0  0  0  0  0  0
  -27.0803  -20.6956   13.2278 C   0  0  0  0  0  0  0  0  0  0  0  0
  -26.3447  -19.7761   12.2464 C   0  0  0  0  0  0  0  0  0  0  0  0
  -25.9145  -18.4165   12.8089 C   0  0  0  0  0  0  0  0  0  0  0  0
  -27.0949  -17.5318   13.2165 C   0  0  0  0  0  0  0  0  0  0  0  0
  -26.6672  -16.1743   13.7848 C   0  0  0  0  0  0  0  0  0  0  0  0
  -25.7469  -16.2286   15.0097 C   0  0  0  0  0  0  0  0  0  0  0  0
  -26.4053  -16.8740   16.2314 C   0  0  0  0  0  0  0  0  0  0  0  0
  -25.4863  -16.9386   17.4550 C   0  0  0  0  0  0  0  0  0  0  0  0
  -26.1095  -17.5298   18.7234 C   0  0  0  0  0  0  0  0  0  0  0  0
  -25.1719  -17.6610   19.9262 C   0  0  0  0  0  0  0  0  0  0  0  0
  -23.9500  -18.5303   19.6526 C   0  0  0  0  0  0  0  0  0  0  0  0
  -25.6505  -30.2649   23.1919 C   0  0  1  0  0  0  0  0  0  0  0  0
  -21.9692  -31.1521   23.3650 C   0  0  2  0  0  0  0  0  0  0  0  0
  -26.6455  -30.7870   24.2667 C   0  0  0  0  0  0  0  0  0  0  0  0
  -28.2993  -14.7484   21.6146 N   0  0  0  0  0  0  0  0  0  0  0  0
  -29.5757  -15.1204   21.4187 N   0  0  0  0  0  0  0  0  0  0  0  0
  -26.3339  -29.2327   21.0492 N   0  0  0  0  0  0  0  0  0  0  0  0
  -30.0162  -18.6172   22.8890 N   0  0  0  0  0  0  0  0  0  0  0  0
  -31.4980  -14.6607   20.1133 N   0  0  0  0  0  0  0  0  0  0  0  0
  -28.4489  -11.7187   18.5500 N   0  0  0  0  0  0  0  0  0  0  0  0
  -30.5907  -19.9718   21.0458 N   0  0  0  0  0  0  0  0  0  0  0  0
  -29.3743  -29.5631   19.2115 N   0  0  0  0  0  0  0  0  0  0  0  0
  -29.1675  -22.5741   16.1435 N   0  0  0  0  0  0  0  0  0  0  0  0
  -24.3280  -19.8723   19.3015 N   0  0  0  0  0  0  0  0  0  0  0  0
  -24.3529  -30.9315   23.2051 N   0  0  0  0  0  0  0  0  0  0  0  0
  -20.7966  -30.4518   22.7689 N   0  3  0  0  0  0  0  0  0  0  0  0
  -30.6132  -12.4465   18.3381 O   0  0  0  0  0  0  0  0  0  0  0  0
  -28.7293  -28.1120   20.9147 O   0  0  0  0  0  0  0  0  0  0  0  0
  -26.4615  -31.5395   21.3632 O   0  0  0  0  0  0  0  0  0  0  0  0
  -28.4562  -20.3658   16.1520 O   0  0  0  0  0  0  0  0  0  0  0  0
  -24.3396  -20.7637   21.4505 O   0  0  0  0  0  0  0  0  0  0  0  0
  -23.0881  -29.0189   23.5513 O   0  0  0  0  0  0  0  0  0  0  0  0
  -31.0688  -20.6499   23.2122 O   0  0  0  0  0  0  0  0  0  0  0  0
  -23.1961  -11.1660   20.3213 O   0  0  0  0  0  0  0  0  0  0  0  0
  -25.0315  -23.2094   20.5623 O   0  0  0  0  0  0  0  0  0  1  0  0
  -18.6476  -14.2829   20.3166 F   0  0  0  0  0  0  0  0  0  0  0  0
  -30.2943  -24.7622   20.9184 F   0  0  0  0  0  0  0  0  0  0  0  0
  -22.5983  -12.8059   22.4651 F   0  0  0  0  0  0  0  0  0  0  0  0
  -30.6112  -19.9878   18.2659 F   0  0  0  0  0  0  0  0  0  0  0  0
  -30.3193  -24.7212   18.1929 F   0  0  0  0  0  0  0  0  0  0  0  0
  1  2  1  0  0  0  0
  1  5  2  0  0  0  0
  2  6  2  0  0  0  0
  3  8  2  0  0  0  0
  3 16  1  0  0  0  0
  4  9  1  0  0  0  0
  4 16  2  0  0  0  0
  5 18  1  0  0  0  0
  6 20  1  0  0  0  0
  7 10  2  0  0  0  0
  7 19  1  0  0  0  0
  8 24  1  0  0  0  0
  9 24  2  0  0  0  0
 10 25  1  0  0  0  0
 11 12  2  0  0  0  0
 11 26  1  0  0  0  0
 12 27  1  0  0  0  0
 13 21  1  0  0  0  0
 13 25  2  0  0  0  0
 14 23  2  0  0  0  0
 14 28  1  0  0  0  0
 15 27  2  0  0  0  0
 15 29  1  0  0  0  0
 16 32  1  0  0  0  0
 17 32  1  0  0  0  0
 17 33  2  0  0  0  0
 17 34  1  0  0  0  0
 18 20  2  0  0  0  0
 18 41  1  0  0  0  0
 19 21  2  0  0  0  0
 19 42  1  0  0  0  0
 20 50  1  0  0  0  0
 21 43  1  0  0  0  0
 22 30  2  0  0  0  0
 22 31  1  0  0  0  0
 22 58  1  0  0  0  0
 23 30  1  0  0  0  0
 23 82  1  0  0  0  0
 24 95  1  0  0  0  0
 25 96  1  0  0  0  0
 26 29  2  0  0  0  0
 26 95  1  0  0  0  0
 27 97  1  0  0  0  0
 28 31  2  0  0  0  0
 28 98  1  0  0  0  0
 29 99  1  0  0  0  0
 30100  1  0  0  0  0
 31101  1  0  0  0  0
 32 76  2  0  0  0  0
 33 77  1  0  0  0  0
 33 80  1  0  0  0  0
 34 81  1  0  0  0  0
 34 88  2  0  0  0  0
 35 51  1  0  0  0  0
 35 83  1  0  0  0  0
 35 89  2  0  0  0  0
 36 73  1  0  0  0  0
 36 78  1  0  0  0  0
 36 90  2  0  0  0  0
 37 59  1  0  0  0  0
 37 84  1  0  0  0  0
 37 91  2  0  0  0  0
 38 60  1  0  0  0  0
 38 85  1  0  0  0  0
 38 92  2  0  0  0  0
 39 74  1  0  0  0  0
 39 86  1  0  0  0  0
 39 93  2  0  0  0  0
 40 79  1  0  0  0  0
 40 82  1  0  0  0  0
 40 94  2  0  0  0  0
 41 44  1  0  0  0  0
 42 51  1  0  0  0  0
 43 78  1  0  0  0  0
 44 46  1  0  0  0  0
 45 47  1  0  0  0  0
 45 48  1  0  0  0  0
 46 50  1  0  0  0  0
 47 52  1  0  0  0  0
 48 79  1  0  0  0  0
 49 52  1  0  0  0  0
 49 79  1  0  0  0  0
 50 83  1  0  0  0  0
 51 78  1  0  0  0  0
 52 77  1  0  0  0  0
 53 74  1  0  0  0  0
 54 75  1  0  0  0  0
 55 75  1  0  0  0  0
 56 75  1  0  0  0  0
 57 87  1  0  0  0  0
 58 84  1  0  0  0  0
 59 61  1  0  0  0  0
 60 96  1  0  0  0  0
 61 62  1  0  0  0  0
 62 63  1  0  0  0  0
 63 64  1  0  0  0  0
 64 65  1  0  0  0  0
 65 66  1  0  0  0  0
 66 67  1  0  0  0  0
 67 68  1  0  0  0  0
 68 69  1  0  0  0  0
 69 70  1  0  0  0  0
 70 71  1  0  0  0  0
 71 72  1  0  0  0  0
 72 85  1  0  0  0  0
 73 75  1  0  0  0  0
 73 86  1  0  0  0  0
 74 87  1  0  0  0  0
 76 77  1  0  0  0  0
M  CHG  1  87   1
M  ISO  4  40 100  60 101  82 100  96 101
M  END
> <Batch ID>
0007

> <Smiles>
CNC(C)C(=O)NC(C(=O)N1Cc2cc([101O:1][101CH2:1]C(=O)NCCCCCCCCCCCCCC(=O)NCc3c(F)c(F)cc([100NH:0][100C:0](=O)N4CCCC(n5nc(-c6ccc(Oc7ccc(F)cc7F)cc6)c(C(N)=O)c5N)C4)c3F)ccc2CC1C(=O)NC1CCCc2ccccc21)C(C)(C)C

> <Shape>
0.258

> <Color>
0.076

> <Negative vol penalty>
0.000

$$$$

  -OEChem-04052315333D

 83 91  0     1  0  0  0  0  0999 V2000
  -22.3831  -28.8565   16.3861 C   0  0  0  0  0  0  0  0  0  0  0  0
  -23.1110  -28.3160   17.4414 C   0  0  0  0  0  0  0  0  0  0  0  0
  -23.0741   -9.8702   19.9402 C   0  0  0  0  0  0  0  0  0  0  0  0
  -23.8345   -9.8745   22.2334 C   0  0  0  0  0  0  0  0  0  0  0  0
  -21.4442  -28.0739   15.7154 C   0  0  0  0  0  0  0  0  0  0  0  0
  -22.8995  -26.9928   17.8272 C   0  0  0  0  0  0  0  0  0  0  0  0
  -27.0877  -23.0647   19.9567 C   0  0  0  0  0  0  0  0  0  0  0  0
  -22.3291   -8.7176   20.1893 C   0  0  0  0  0  0  0  0  0  0  0  0
  -23.0895   -8.7218   22.4826 C   0  0  0  0  0  0  0  0  0  0  0  0
  -27.4261  -22.6632   21.2482 C   0  0  0  0  0  0  0  0  0  0  0  0
  -19.8607   -7.9267   23.0852 C   0  0  0  0  0  0  0  0  0  0  0  0
  -19.1040   -7.8865   24.2562 C   0  0  0  0  0  0  0  0  0  0  0  0
  -25.9985  -20.7326   21.0156 C   0  0  0  0  0  0  0  0  0  0  0  0
  -31.8720  -17.3386   21.5636 C   0  0  0  0  0  0  0  0  0  0  0  0
  -31.5880  -19.3737   22.8343 C   0  0  0  0  0  0  0  0  0  0  0  0
  -29.8083  -17.7417   22.7534 C   0  0  0  0  0  0  0  0  0  0  0  0
  -20.3437   -5.9472   24.9907 C   0  0  0  0  0  0  0  0  0  0  0  0
  -23.8268  -10.4486   20.9622 C   0  0  0  0  0  0  0  0  0  0  0  0
  -24.1711  -12.9735   20.8443 C   0  0  0  0  0  0  0  0  0  0  0  0
  -21.2280  -26.7375   16.0869 C   0  0  0  0  0  0  0  0  0  0  0  0
  -26.1922  -22.3076   19.1876 C   0  0  0  0  0  0  0  0  0  0  0  0
  -21.9558  -26.1920   17.1616 C   0  0  0  0  0  0  0  0  0  0  0  0
  -25.6524  -21.1253   19.7136 C   0  0  0  0  0  0  0  0  0  0  0  0
  -32.3705  -18.5610   22.0141 C   0  0  0  0  0  0  0  0  0  0  0  0
  -30.5909  -16.9290   21.9332 C   0  0  0  0  0  0  0  0  0  0  0  0
  -30.3068  -18.9640   23.2040 C   0  0  0  0  0  0  0  0  0  0  0  0
  -22.3368   -8.1434   21.4605 C   0  0  0  0  0  0  0  0  0  0  0  0
  -26.8792  -21.4986   21.7790 C   0  0  0  0  0  0  0  0  0  0  0  0
  -20.8589   -6.9771   22.8668 C   0  0  0  0  0  0  0  0  0  0  0  0
  -19.3455   -6.8968   25.2090 C   0  0  0  0  0  0  0  0  0  0  0  0
  -21.1004   -5.9874   23.8196 C   0  0  0  0  0  0  0  0  0  0  0  0
  -24.5970  -11.6390   20.7053 C   0  0  0  0  0  0  0  0  0  0  0  0
  -25.2640  -13.7223   20.4814 C   0  0  0  0  0  0  0  0  0  0  0  0
  -22.9013  -13.4903   21.2640 C   0  0  0  0  0  0  0  0  0  0  0  0
  -23.3413  -22.8446   17.8885 C   0  0  0  0  0  0  0  0  0  0  0  0
  -23.8152  -19.9117   16.5863 C   0  0  0  0  0  0  0  0  0  0  0  0
  -25.6746  -17.3716   16.5538 C   0  0  0  0  0  0  0  0  0  0  0  0
  -30.7312  -14.7623   20.6557 C   0  0  0  0  0  0  0  0  0  0  0  0
  -20.1687  -25.9450   15.3627 C   0  0  0  0  0  0  0  0  0  0  0  0
  -25.8582  -22.7400   17.7862 C   0  0  0  0  0  0  0  0  0  0  0  0
  -24.7021  -20.2663   18.9215 C   0  0  0  0  0  0  0  0  0  0  0  0
  -20.2723  -24.4391   15.5907 C   0  0  0  0  0  0  0  0  0  0  0  0
  -29.6139  -12.3516   18.2856 C   0  0  0  0  0  0  0  0  0  0  0  0
  -20.4692  -24.1358   17.0726 C   0  0  0  0  0  0  0  0  0  0  0  0
  -28.1740  -12.0611   18.7153 C   0  0  0  0  0  0  0  0  0  0  0  0
  -30.5295  -12.5785   19.4872 C   0  0  0  0  0  0  0  0  0  0  0  0
  -28.6236  -13.3036   20.8696 C   0  0  0  0  0  0  0  0  0  0  0  0
  -21.7726  -24.7532   17.5936 C   0  0  1  0  0  0  0  0  0  0  0  0
  -24.5373  -22.1662   17.2827 C   0  0  1  0  0  0  0  0  0  0  0  0
  -27.6503  -13.1324   19.6918 C   0  0  2  0  0  0  0  0  0  0  0  0
  -26.8897  -15.1991   16.2358 C   0  0  0  0  0  0  0  0  0  0  0  0
  -21.1087  -19.1007   17.7384 C   0  0  0  0  0  0  0  0  0  0  0  0
  -21.7439  -16.7083   17.3627 C   0  0  0  0  0  0  0  0  0  0  0  0
  -21.5497  -18.2647   15.4230 C   0  0  0  0  0  0  0  0  0  0  0  0
  -30.0426  -21.0629   24.5021 C   0  0  0  0  0  0  0  0  0  0  0  0
  -27.1051  -18.3871   14.1702 C   0  0  0  0  0  0  0  0  0  0  0  0
  -33.7402  -18.9991   21.6188 C   0  0  0  0  0  0  0  0  0  0  0  0
  -28.1851  -19.3922   24.4185 C   0  0  0  0  0  0  0  0  0  0  0  0
  -27.1989  -19.7027   23.3049 C   0  0  0  0  0  0  0  0  0  1  0  0
  -23.5086  -18.4939   17.0047 C   0  0  1  0  0  0  0  0  0  0  0  0
  -26.3541  -16.4502   15.5570 C   0  0  2  0  0  0  0  0  0  0  0  0
  -21.9941  -18.1589   16.8981 C   0  0  0  0  0  0  0  0  0  0  0  0
  -25.8617  -11.5422   20.2867 N   0  0  0  0  0  0  0  0  0  0  0  0
  -26.2398  -12.8255   20.1593 N   0  0  0  0  0  0  0  0  0  0  0  0
  -24.4014  -20.7345   17.5585 N   0  0  0  0  0  0  0  0  0  0  0  0
  -29.9717  -13.6091   20.3657 N   0  0  0  0  0  0  0  0  0  0  0  0
  -25.4757  -15.0536   20.4095 N   0  0  0  0  0  0  0  0  0  0  0  0
  -21.8885  -12.5818   21.6007 N   0  0  0  0  0  0  0  0  0  0  0  0
  -30.0850  -15.6873   21.4751 N   0  0  0  0  0  0  0  0  0  0  0  0
  -22.9084  -23.9537   17.1872 N   0  0  0  0  0  0  0  0  0  0  0  0
  -24.3688  -17.6351   16.1979 N   0  0  0  0  0  0  0  0  0  0  0  0
  -29.5211  -19.7805   24.0282 N   0  0  3  0  0  0  0  0  0  0  0  0
  -27.4920  -17.1503   14.8966 N   0  3  0  0  0  0  0  0  0  0  0  0
  -22.6663  -14.7211   21.3224 O   0  0  0  0  0  0  0  0  0  0  0  0
  -22.8469  -22.3941   18.9153 O   0  0  0  0  0  0  0  0  0  0  0  0
  -23.5510  -20.2735   15.4370 O   0  0  0  0  0  0  0  0  0  0  0  0
  -26.2440  -17.8105   17.5507 O   0  0  0  0  0  0  0  0  0  0  0  0
  -31.8604  -14.9303   20.1880 O   0  0  0  0  0  0  0  0  0  0  0  0
  -34.7044  -18.2615   22.3600 O   0  0  0  0  0  0  0  0  0  0  0  0
  -21.6098   -7.0188   21.7040 O   0  0  0  0  0  0  0  0  0  0  0  0
  -27.2073  -21.1048   23.0396 O   0  0  0  0  0  0  0  0  0  1  0  0
  -18.6198   -6.8593   26.3342 F   0  0  0  0  0  0  0  0  0  0  0  0
  -22.0587   -5.0731   23.6159 F   0  0  0  0  0  0  0  0  0  0  0  0
  1  2  1  0  0  0  0
  1  5  2  0  0  0  0
  2  6  2  0  0  0  0
  3  8  2  0  0  0  0
  3 18  1  0  0  0  0
  4  9  1  0  0  0  0
  4 18  2  0  0  0  0
  5 20  1  0  0  0  0
  6 22  1  0  0  0  0
  7 10  2  0  0  0  0
  7 21  1  0  0  0  0
  8 27  1  0  0  0  0
  9 27  2  0  0  0  0
 10 28  1  0  0  0  0
 11 12  2  0  0  0  0
 11 29  1  0  0  0  0
 12 30  1  0  0  0  0
 13 23  1  0  0  0  0
 13 28  2  0  0  0  0
 14 24  1  0  0  0  0
 14 25  2  0  0  0  0
 15 24  2  0  0  0  0
 15 26  1  0  0  0  0
 16 25  1  0  0  0  0
 16 26  2  0  0  0  0
 17 30  2  0  0  0  0
 17 31  1  0  0  0  0
 18 32  1  0  0  0  0
 19 32  1  0  0  0  0
 19 33  2  0  0  0  0
 19 34  1  0  0  0  0
 20 22  2  0  0  0  0
 20 39  1  0  0  0  0
 21 23  2  0  0  0  0
 21 40  1  0  0  0  0
 22 48  1  0  0  0  0
 23 41  1  0  0  0  0
 24 57  1  0  0  0  0
 25 69  1  0  0  0  0
 26 72  1  0  0  0  0
 27 80  1  0  0  0  0
 28 81  1  0  0  0  0
 29 31  2  0  0  0  0
 29 80  1  0  0  0  0
 30 82  1  0  0  0  0
 31 83  1  0  0  0  0
 32 63  2  0  0  0  0
 33 64  1  0  0  0  0
 33 67  1  0  0  0  0
 34 68  1  0  0  0  0
 34 74  2  0  0  0  0
 35 49  1  0  0  0  0
 35 70  1  0  0  0  0
 35 75  2  0  0  0  0
 36 60  1  0  0  0  0
 36 65  1  0  0  0  0
 36 76  2  0  0  0  0
 37 61  1  0  0  0  0
 37 71  1  0  0  0  0
 37 77  2  0  0  0  0
 38 66  1  0  0  0  0
 38 69  1  0  0  0  0
 38 78  2  0  0  0  0
 39 42  1  0  0  0  0
 40 49  1  0  0  0  0
 41 65  1  0  0  0  0
 42 44  1  0  0  0  0
 43 45  1  0  0  0  0
 43 46  1  0  0  0  0
 44 48  1  0  0  0  0
 45 50  1  0  0  0  0
 46 66  1  0  0  0  0
 47 50  1  0  0  0  0
 47 66  1  0  0  0  0
 48 70  1  0  0  0  0
 49 65  1  0  0  0  0
 50 64  1  0  0  0  0
 51 61  1  0  0  0  0
 52 62  1  0  0  0  0
 53 62  1  0  0  0  0
 54 62  1  0  0  0  0
 55 72  1  0  0  0  0
 56 73  1  0  0  0  0
 57 79  1  0  0  0  0
 58 59  1  0  0  0  0
 58 72  1  0  0  0  0
 59 81  1  0  0  0  0
 60 62  1  0  0  0  0
 60 71  1  0  0  0  0
 61 73  1  0  0  0  0
 63 64  1  0  0  0  0
M  CHG  1  73   1
M  ISO  4  38 100  59 101  69 100  81 101
M  END
> <Batch ID>
0007

> <Smiles>
CNC(C)C(=O)NC(C(=O)N1Cc2cc([101O:1][101CH2:1]CN(C)c3cc(CO)cc([100NH:0][100C:0](=O)N4CCCC(n5nc(-c6ccc(Oc7ccc(F)cc7F)cc6)c(C(N)=O)c5N)C4)c3)ccc2CC1C(=O)NC1CCCc2ccccc21)C(C)(C)C

> <Shape>
0.181

> <Color>
0.192

> <Negative vol penalty>
0.000

$$$$

  -OEChem-04052315333D

 83 91  0     1  0  0  0  0  0999 V2000
  -17.9413  -25.3478   21.8668 C   0  0  0  0  0  0  0  0  0  0  0  0
  -19.2113  -24.8788   22.1869 C   0  0  0  0  0  0  0  0  0  0  0  0
  -23.8730   -9.9087   21.6754 C   0  0  0  0  0  0  0  0  0  0  0  0
  -24.4374  -11.0660   23.7197 C   0  0  0  0  0  0  0  0  0  0  0  0
  -17.7904  -26.6044   21.2819 C   0  0  0  0  0  0  0  0  0  0  0  0
  -20.3314  -25.6657   21.9213 C   0  0  0  0  0  0  0  0  0  0  0  0
  -25.4614  -26.0105   25.2485 C   0  0  0  0  0  0  0  0  0  0  0  0
  -31.3634  -20.1957   21.2975 C   0  0  0  0  0  0  0  0  0  0  0  0
  -31.0253  -18.9082   20.8809 C   0  0  0  0  0  0  0  0  0  0  0  0
  -23.3709   -8.8405   22.4186 C   0  0  0  0  0  0  0  0  0  0  0  0
  -23.9352   -9.9979   24.4630 C   0  0  0  0  0  0  0  0  0  0  0  0
  -26.7099  -25.4050   25.1128 C   0  0  0  0  0  0  0  0  0  0  0  0
  -20.5536   -8.1097   24.1396 C   0  0  0  0  0  0  0  0  0  0  0  0
  -19.3264   -7.5711   23.7530 C   0  0  0  0  0  0  0  0  0  0  0  0
  -27.5314  -27.3677   23.9761 C   0  0  0  0  0  0  0  0  0  0  0  0
  -29.0199  -20.7386   21.5220 C   0  0  0  0  0  0  0  0  0  0  0  0
  -20.3806   -5.4271   23.3938 C   0  0  0  0  0  0  0  0  0  0  0  0
  -24.4063  -11.0214   22.3259 C   0  0  0  0  0  0  0  0  0  0  0  0
  -24.2187  -13.2577   21.1127 C   0  0  0  0  0  0  0  0  0  0  0  0
  -18.9085  -27.4112   21.0178 C   0  0  0  0  0  0  0  0  0  0  0  0
  -25.2350  -27.2970   24.7385 C   0  0  0  0  0  0  0  0  0  0  0  0
  -20.1955  -26.9337   21.3311 C   0  0  0  0  0  0  0  0  0  0  0  0
  -26.2799  -27.9883   24.1089 C   0  0  0  0  0  0  0  0  0  0  0  0
  -28.6817  -19.4510   21.1054 C   0  0  0  0  0  0  0  0  0  0  0  0
  -30.3607  -21.1109   21.6181 C   0  0  0  0  0  0  0  0  0  0  0  0
  -29.6844  -18.5358   20.7848 C   0  0  0  0  0  0  0  0  0  0  0  0
  -23.4019   -8.8851   23.8124 C   0  0  0  0  0  0  0  0  0  0  0  0
  -27.7443  -26.0824   24.4739 C   0  0  0  0  0  0  0  0  0  0  0  0
  -21.6943   -7.3071   24.1533 C   0  0  0  0  0  0  0  0  0  0  0  0
  -19.2399   -6.2298   23.3801 C   0  0  0  0  0  0  0  0  0  0  0  0
  -21.6078   -5.9658   23.7804 C   0  0  0  0  0  0  0  0  0  0  0  0
  -24.9257  -12.1249   21.5586 C   0  0  0  0  0  0  0  0  0  0  0  0
  -25.1537  -14.0011   20.4348 C   0  0  0  0  0  0  0  0  0  0  0  0
  -22.8401  -13.6067   21.2952 C   0  0  0  0  0  0  0  0  0  0  0  0
  -23.3036  -28.5286   22.5348 C   0  0  0  0  0  0  0  0  0  0  0  0
  -24.5091  -31.3415   23.6104 C   0  0  0  0  0  0  0  0  0  0  0  0
  -29.8396  -23.4478   22.3999 C   0  0  0  0  0  0  0  0  0  0  0  0
  -27.0567  -32.9961   25.1656 C   0  0  0  0  0  0  0  0  0  0  0  0
  -30.2491  -16.2057   20.0114 C   0  0  0  0  0  0  0  0  0  0  0  0
  -18.6993  -28.7427   20.3411 C   0  0  0  0  0  0  0  0  0  0  0  0
  -23.8903  -27.9468   24.9167 C   0  0  0  0  0  0  0  0  0  0  0  0
  -26.0942  -29.3793   23.5619 C   0  0  0  0  0  0  0  0  0  0  0  0
  -19.9077  -29.6706   20.4359 C   0  0  0  0  0  0  0  0  0  0  0  0
  -29.8500  -12.8295   18.9536 C   0  0  0  0  0  0  0  0  0  0  0  0
  -21.1884  -28.9159   20.0939 C   0  0  0  0  0  0  0  0  0  0  0  0
  -28.4751  -12.4384   19.5004 C   0  0  0  0  0  0  0  0  0  0  0  0
  -30.6024  -13.7479   19.9150 C   0  0  0  0  0  0  0  0  0  0  0  0
  -28.4862  -14.5506   20.8879 C   0  0  0  0  0  0  0  0  0  0  0  0
  -21.4329  -27.7683   21.0811 C   0  0  1  0  0  0  0  0  0  0  0  0
  -23.6242  -29.0568   23.9044 C   0  0  1  0  0  0  0  0  0  0  0  0
  -27.6641  -13.6783   19.9252 C   0  0  2  0  0  0  0  0  0  0  0  0
  -27.2376  -19.0786   21.0135 C   0  0  0  0  0  0  0  0  0  0  0  0
  -27.7739  -35.2966   25.8659 C   0  0  0  0  0  0  0  0  0  0  0  0
  -25.2305  -31.9944   20.7184 C   0  0  0  0  0  0  0  0  0  0  0  0
  -26.7480  -33.7916   21.5759 C   0  0  0  0  0  0  0  0  0  0  0  0
  -24.2964  -33.9150   22.0197 C   0  0  0  0  0  0  0  0  0  0  0  0
  -27.1224  -32.2315   28.0239 C   0  0  0  0  0  0  0  0  0  0  0  0
  -30.6275  -24.6911   22.7966 C   0  0  0  0  0  0  0  0  0  0  0  0
  -29.7391  -25.8586   23.1986 C   0  0  0  0  0  0  0  0  0  1  0  0
  -25.6940  -32.2045   23.2496 C   0  0  1  0  0  0  0  0  0  0  0  0
  -27.0567  -34.0224   26.2840 C   0  0  2  0  0  0  0  0  0  0  0  0
  -25.4955  -32.9494   21.8994 C   0  0  0  0  0  0  0  0  0  0  0  0
  -26.2106  -12.1427   21.1944 N   0  0  0  0  0  0  0  0  0  0  0  0
  -26.3184  -13.2957   20.5124 N   0  0  0  0  0  0  0  0  0  0  0  0
  -24.7594  -29.9696   23.7551 N   0  0  0  0  0  0  0  0  0  0  0  0
  -29.7742  -14.9025   20.2700 N   0  0  0  0  0  0  0  0  0  0  0  0
  -25.0849  -15.1827   19.7856 N   0  0  0  0  0  0  0  0  0  0  0  0
  -22.0188  -12.7301   22.0173 N   0  0  0  0  0  0  0  0  0  0  0  0
  -30.7041  -22.4163   22.0434 N   0  0  0  0  0  0  0  0  0  0  0  0
  -29.3615  -17.2228   20.3613 N   0  0  0  0  0  0  0  0  0  0  0  0
  -21.9603  -28.2784   22.3285 N   0  0  0  0  0  0  0  0  0  0  0  0
  -25.9199  -33.0853   24.3904 N   0  0  0  0  0  0  0  0  0  0  0  0
  -27.7382  -33.4738   27.4905 N   0  3  0  0  0  0  0  0  0  0  0  0
  -22.3472  -14.6567   20.8176 O   0  0  0  0  0  0  0  0  0  0  0  0
  -24.2077  -28.3619   21.7246 O   0  0  0  0  0  0  0  0  0  0  0  0
  -23.4036  -31.8663   23.7652 O   0  0  0  0  0  0  0  0  0  0  0  0
  -28.6135  -23.4204   22.4124 O   0  0  0  0  0  0  0  0  0  0  0  0
  -27.9753  -32.1976   24.9942 O   0  0  0  0  0  0  0  0  0  0  0  0
  -31.3499  -16.4040   19.4909 O   0  0  0  0  0  0  0  0  0  0  0  0
  -22.9118   -7.8431   24.5381 O   0  0  0  0  0  0  0  0  0  0  0  0
  -28.9637  -25.4935   24.3395 O   0  0  0  0  0  0  0  0  0  1  0  0
  -18.0610   -5.7123   23.0104 F   0  0  0  0  0  0  0  0  0  0  0  0
  -22.7000   -5.1894   23.7926 F   0  0  0  0  0  0  0  0  0  0  0  0
  1  2  1  0  0  0  0
  1  5  2  0  0  0  0
  2  6  2  0  0  0  0
  3 10  2  0  0  0  0
  3 18  1  0  0  0  0
  4 11  1  0  0  0  0
  4 18  2  0  0  0  0
  5 20  1  0  0  0  0
  6 22  1  0  0  0  0
  7 12  2  0  0  0  0
  7 21  1  0  0  0  0
  8  9  2  0  0  0  0
  8 25  1  0  0  0  0
  9 26  1  0  0  0  0
 10 27  1  0  0  0  0
 11 27  2  0  0  0  0
 12 28  1  0  0  0  0
 13 14  2  0  0  0  0
 13 29  1  0  0  0  0
 14 30  1  0  0  0  0
 15 23  1  0  0  0  0
 15 28  2  0  0  0  0
 16 24  1  0  0  0  0
 16 25  2  0  0  0  0
 17 30  2  0  0  0  0
 17 31  1  0  0  0  0
 18 32  1  0  0  0  0
 19 32  1  0  0  0  0
 19 33  2  0  0  0  0
 19 34  1  0  0  0  0
 20 22  2  0  0  0  0
 20 40  1  0  0  0  0
 21 23  2  0  0  0  0
 21 41  1  0  0  0  0
 22 49  1  0  0  0  0
 23 42  1  0  0  0  0
 24 26  2  0  0  0  0
 24 52  1  0  0  0  0
 25 69  1  0  0  0  0
 26 70  1  0  0  0  0
 27 80  1  0  0  0  0
 28 81  1  0  0  0  0
 29 31  2  0  0  0  0
 29 80  1  0  0  0  0
 30 82  1  0  0  0  0
 31 83  1  0  0  0  0
 32 63  2  0  0  0  0
 33 64  1  0  0  0  0
 33 67  1  0  0  0  0
 34 68  1  0  0  0  0
 34 74  2  0  0  0  0
 35 50  1  0  0  0  0
 35 71  1  0  0  0  0
 35 75  2  0  0  0  0
 36 60  1  0  0  0  0
 36 65  1  0  0  0  0
 36 76  2  0  0  0  0
 37 58  1  0  0  0  0
 37 69  1  0  0  0  0
 37 77  2  0  0  0  0
 38 61  1  0  0  0  0
 38 72  1  0  0  0  0
 38 78  2  0  0  0  0
 39 66  1  0  0  0  0
 39 70  1  0  0  0  0
 39 79  2  0  0  0  0
 40 43  1  0  0  0  0
 41 50  1  0  0  0  0
 42 65  1  0  0  0  0
 43 45  1  0  0  0  0
 44 46  1  0  0  0  0
 44 47  1  0  0  0  0
 45 49  1  0  0  0  0
 46 51  1  0  0  0  0
 47 66  1  0  0  0  0
 48 51  1  0  0  0  0
 48 66  1  0  0  0  0
 49 71  1  0  0  0  0
 50 65  1  0  0  0  0
 51 64  1  0  0  0  0
 53 61  1  0  0  0  0
 54 62  1  0  0  0  0
 55 62  1  0  0  0  0
 56 62  1  0  0  0  0
 57 73  1  0  0  0  0
 58 59  1  0  0  0  0
 59 81  1  0  0  0  0
 60 62  1  0  0  0  0
 60 72  1  0  0  0  0
 61 73  1  0  0  0  0
 63 64  1  0  0  0  0
M  CHG  1  73   1
M  ISO  4  39 100  59 101  70 100  81 101
M  END
> <Batch ID>
0007

> <Smiles>
CNC(C)C(=O)NC(C(=O)N1Cc2cc([101O:1][101CH2:1]CC(=O)Nc3ccc([100NH:0][100C:0](=O)N4CCCC(n5nc(-c6ccc(Oc7ccc(F)cc7F)cc6)c(C(N)=O)c5N)C4)c(C)c3)ccc2CC1C(=O)NC1CCCc2ccccc21)C(C)(C)C

> <Shape>
0.286

> <Color>
0.136

> <Negative vol penalty>
0.000

$$$$

  -OEChem-04052315333D

 85 94  0     1  0  0  0  0  0999 V2000
  -26.6504  -37.1168   25.0950 C   0  0  0  0  0  0  0  0  0  0  0  0
  -27.5939  -36.2025   24.6377 C   0  0  0  0  0  0  0  0  0  0  0  0
  -22.7954  -10.2642   20.2325 C   0  0  0  0  0  0  0  0  0  0  0  0
  -24.5636   -9.2202   21.5055 C   0  0  0  0  0  0  0  0  0  0  0  0
  -25.4797  -36.6640   25.7021 C   0  0  0  0  0  0  0  0  0  0  0  0
  -27.3679  -34.8347   24.7883 C   0  0  0  0  0  0  0  0  0  0  0  0
  -27.2365  -29.1656   19.4151 C   0  0  0  0  0  0  0  0  0  0  0  0
  -28.0443  -20.2112   19.4275 C   0  0  0  0  0  0  0  0  0  0  0  0
  -28.3414  -18.8652   19.6408 C   0  0  0  0  0  0  0  0  0  0  0  0
  -21.8486   -9.7139   21.0963 C   0  0  0  0  0  0  0  0  0  0  0  0
  -23.6167   -8.6699   22.3694 C   0  0  0  0  0  0  0  0  0  0  0  0
  -27.0317  -28.1015   18.5366 C   0  0  0  0  0  0  0  0  0  0  0  0
  -21.4643   -6.0626   22.3719 C   0  0  0  0  0  0  0  0  0  0  0  0
  -21.6104   -4.7208   22.7237 C   0  0  0  0  0  0  0  0  0  0  0  0
  -25.5651  -27.0440   20.1424 C   0  0  0  0  0  0  0  0  0  0  0  0
  -25.7275  -19.6399   19.0493 C   0  0  0  0  0  0  0  0  0  0  0  0
  -21.7905   -5.3501   25.0494 C   0  0  0  0  0  0  0  0  0  0  0  0
  -24.1530  -10.0173   20.4371 C   0  0  0  0  0  0  0  0  0  0  0  0
  -25.2403  -10.3741   18.1572 C   0  0  0  0  0  0  0  0  0  0  0  0
  -25.2348  -35.2899   25.8514 C   0  0  0  0  0  0  0  0  0  0  0  0
  -26.5934  -29.1805   20.6559 C   0  0  0  0  0  0  0  0  0  0  0  0
  -26.1935  -34.3632   25.3991 C   0  0  0  0  0  0  0  0  0  0  0  0
  -25.7565  -28.1133   21.0215 C   0  0  0  0  0  0  0  0  0  0  0  0
  -26.7373  -20.5986   19.1318 C   0  0  0  0  0  0  0  0  0  0  0  0
  -27.3316  -17.9065   19.5582 C   0  0  0  0  0  0  0  0  0  0  0  0
  -22.2592   -8.9168   22.1648 C   0  0  0  0  0  0  0  0  0  0  0  0
  -26.1983  -27.0432   18.8995 C   0  0  0  0  0  0  0  0  0  0  0  0
  -21.4814   -7.0482   23.3588 C   0  0  0  0  0  0  0  0  0  0  0  0
  -26.0246  -18.2938   19.2625 C   0  0  0  0  0  0  0  0  0  0  0  0
  -21.7735   -4.3645   24.0624 C   0  0  0  0  0  0  0  0  0  0  0  0
  -21.6445   -6.6920   24.6975 C   0  0  0  0  0  0  0  0  0  0  0  0
  -25.1316  -10.5850   19.5448 C   0  0  0  0  0  0  0  0  0  0  0  0
  -26.3220  -11.1311   17.7786 C   0  0  0  0  0  0  0  0  0  0  0  0
  -24.4354   -9.5663   17.2881 C   0  0  0  0  0  0  0  0  0  0  0  0
  -25.9980  -30.9993   23.8829 C   0  0  0  0  0  0  0  0  0  0  0  0
  -23.3019  -29.8229   23.0126 C   0  0  0  0  0  0  0  0  0  0  0  0
  -20.4536  -28.7217   21.4922 C   0  0  0  0  0  0  0  0  0  0  0  0
  -28.9000  -16.0055   20.0806 C   0  0  0  0  0  0  0  0  0  0  0  0
  -23.9765  -34.8493   26.5567 C   0  0  0  0  0  0  0  0  0  0  0  0
  -26.8330  -30.2763   21.6587 C   0  0  0  0  0  0  0  0  0  0  0  0
  -25.1128  -28.1551   22.3805 C   0  0  0  0  0  0  0  0  0  0  0  0
  -23.6413  -33.3758   26.3406 C   0  0  0  0  0  0  0  0  0  0  0  0
  -30.4559  -12.8624   19.4662 C   0  0  0  0  0  0  0  0  0  0  0  0
  -24.8825  -32.5114   26.5383 C   0  0  0  0  0  0  0  0  0  0  0  0
  -29.2770  -11.9037   19.2843 C   0  0  0  0  0  0  0  0  0  0  0  0
  -25.5237  -23.7280   17.4791 C   0  0  0  0  0  0  0  0  0  0  0  0
  -26.9115  -24.3043   19.4763 C   0  0  0  0  0  0  0  0  0  0  0  0
  -30.1694  -13.9177   20.5330 C   0  0  0  0  0  0  0  0  0  0  0  0
  -25.3429  -22.3090   18.0109 C   0  0  0  0  0  0  0  0  0  0  0  0
  -26.7282  -22.8879   20.0126 C   0  0  0  0  0  0  0  0  0  0  0  0
  -27.7427  -13.7099   20.1622 C   0  0  0  0  0  0  0  0  0  0  0  0
  -25.9730  -32.8711   25.5220 C   0  0  1  0  0  0  0  0  0  0  0  0
  -25.5844  -30.6146   22.4928 C   0  0  1  0  0  0  0  0  0  0  0  0
  -27.9592  -12.6686   19.0520 C   0  0  2  0  0  0  0  0  0  0  0  0
  -25.7369  -24.7325   18.6042 C   0  0  0  0  0  0  0  0  0  1  0  0
  -17.9685  -28.5973   21.8183 C   0  0  0  0  0  0  0  0  0  0  0  0
  -23.6807  -27.5402   25.0001 C   0  0  0  0  0  0  0  0  0  0  0  0
  -21.3135  -26.8561   24.5571 C   0  0  0  0  0  0  0  0  0  0  0  0
  -21.7990  -29.0954   25.5432 C   0  0  0  0  0  0  0  0  0  0  0  0
  -19.9381  -30.3502   19.0753 C   0  0  0  0  0  0  0  0  0  0  0  0
  -24.7850  -16.7917   17.8976 C   0  0  0  0  0  0  0  0  0  0  0  0
  -22.3344  -28.6705   23.1091 C   0  0  1  0  0  0  0  0  0  0  0  0
  -19.1206  -29.4016   21.2364 C   0  0  2  0  0  0  0  0  0  0  0  0
  -22.3006  -28.0425   24.5310 C   0  0  0  0  0  0  0  0  0  0  0  0
  -26.0695  -11.4111   20.0159 N   0  0  0  0  0  0  0  0  0  0  0  0
  -26.7780  -11.7259   18.9181 N   0  0  0  0  0  0  0  0  0  0  0  0
  -26.4387  -21.9504   18.9184 N   0  0  0  0  0  0  0  0  0  0  0  0
  -24.6217  -29.5130   22.6622 N   0  0  0  0  0  0  0  0  0  0  0  0
  -28.9082  -14.6042   20.2451 N   0  0  0  0  0  0  0  0  0  0  0  0
  -26.9183  -11.3392   16.5854 N   0  0  0  0  0  0  0  0  0  0  0  0
  -23.3628   -8.8538   17.8415 N   0  0  0  0  0  0  0  0  0  0  0  0
  -27.6495  -16.5432   19.7778 N   0  0  0  0  0  0  0  0  0  0  0  0
  -25.6687  -32.2959   24.2293 N   0  0  0  0  0  0  0  0  0  0  0  0
  -21.0465  -29.1794   22.6499 N   0  0  0  0  0  0  0  0  0  0  0  0
  -18.8918  -29.5588   19.7722 N   0  3  0  0  0  0  0  0  0  0  0  0
  -24.6706   -9.4661   16.0600 O   0  0  0  0  0  0  0  0  0  0  0  0
  -26.5725  -30.1804   24.5907 O   0  0  0  0  0  0  0  0  0  0  0  0
  -22.9025  -30.9670   23.2466 O   0  0  0  0  0  0  0  0  0  0  0  0
  -20.9203  -27.8673   20.7421 O   0  0  0  0  0  0  0  0  0  0  0  0
  -29.9316  -16.6757   20.1727 O   0  0  0  0  0  0  0  0  0  0  0  0
  -21.3355   -8.3799   23.0080 O   0  0  0  0  0  0  0  0  0  0  0  0
  -25.9993  -26.0096   18.0353 O   0  0  0  0  0  0  0  0  0  1  0  0
  -25.0228  -17.3731   19.1776 O   0  0  0  0  0  0  0  0  0  0  0  0
  -21.9122   -3.0758   24.4003 F   0  0  0  0  0  0  0  0  0  0  0  0
  -21.6605   -7.6343   25.6502 F   0  0  0  0  0  0  0  0  0  0  0  0
  1  2  1  0  0  0  0
  1  5  2  0  0  0  0
  2  6  2  0  0  0  0
  3 10  2  0  0  0  0
  3 18  1  0  0  0  0
  4 11  1  0  0  0  0
  4 18  2  0  0  0  0
  5 20  1  0  0  0  0
  6 22  1  0  0  0  0
  7 12  2  0  0  0  0
  7 21  1  0  0  0  0
  8  9  2  0  0  0  0
  8 24  1  0  0  0  0
  9 25  1  0  0  0  0
 10 26  1  0  0  0  0
 11 26  2  0  0  0  0
 12 27  1  0  0  0  0
 13 14  2  0  0  0  0
 13 28  1  0  0  0  0
 14 30  1  0  0  0  0
 15 23  1  0  0  0  0
 15 27  2  0  0  0  0
 16 24  2  0  0  0  0
 16 29  1  0  0  0  0
 17 30  2  0  0  0  0
 17 31  1  0  0  0  0
 18 32  1  0  0  0  0
 19 32  1  0  0  0  0
 19 33  2  0  0  0  0
 19 34  1  0  0  0  0
 20 22  2  0  0  0  0
 20 39  1  0  0  0  0
 21 23  2  0  0  0  0
 21 40  1  0  0  0  0
 22 52  1  0  0  0  0
 23 41  1  0  0  0  0
 24 67  1  0  0  0  0
 25 29  2  0  0  0  0
 25 72  1  0  0  0  0
 26 81  1  0  0  0  0
 27 82  1  0  0  0  0
 28 31  2  0  0  0  0
 28 81  1  0  0  0  0
 29 83  1  0  0  0  0
 30 84  1  0  0  0  0
 31 85  1  0  0  0  0
 32 65  2  0  0  0  0
 33 66  1  0  0  0  0
 33 70  1  0  0  0  0
 34 71  1  0  0  0  0
 34 76  2  0  0  0  0
 35 53  1  0  0  0  0
 35 73  1  0  0  0  0
 35 77  2  0  0  0  0
 36 62  1  0  0  0  0
 36 68  1  0  0  0  0
 36 78  2  0  0  0  0
 37 63  1  0  0  0  0
 37 74  1  0  0  0  0
 37 79  2  0  0  0  0
 38 69  1  0  0  0  0
 38 72  1  0  0  0  0
 38 80  2  0  0  0  0
 39 42  1  0  0  0  0
 40 53  1  0  0  0  0
 41 68  1  0  0  0  0
 42 44  1  0  0  0  0
 43 45  1  0  0  0  0
 43 48  1  0  0  0  0
 44 52  1  0  0  0  0
 45 54  1  0  0  0  0
 46 49  1  0  0  0  0
 46 55  1  0  0  0  0
 47 50  1  0  0  0  0
 47 55  1  0  0  0  0
 48 69  1  0  0  0  0
 49 67  1  0  0  0  0
 50 67  1  0  0  0  0
 51 54  1  0  0  0  0
 51 69  1  0  0  0  0
 52 73  1  0  0  0  0
 53 68  1  0  0  0  0
 54 66  1  0  0  0  0
 55 82  1  0  0  0  0
 56 63  1  0  0  0  0
 57 64  1  0  0  0  0
 58 64  1  0  0  0  0
 59 64  1  0  0  0  0
 60 75  1  0  0  0  0
 61 83  1  0  0  0  0
 62 64  1  0  0  0  0
 62 74  1  0  0  0  0
 63 75  1  0  0  0  0
 65 66  1  0  0  0  0
M  CHG  1  75   1
M  ISO  4  38 100  55 101  72 100  82 101
M  END
> <Batch ID>
0007

> <Smiles>
CNC(C)C(=O)NC(C(=O)N1Cc2cc([101O:1][101CH:1]3CCN(c4ccc([100NH:0][100C:0](=O)N5CCCC(n6nc(-c7ccc(Oc8ccc(F)cc8F)cc7)c(C(N)=O)c6N)C5)c(OC)c4)CC3)ccc2CC1C(=O)NC1CCCc2ccccc21)C(C)(C)C

> <Shape>
0.307

> <Color>
0.104

> <Negative vol penalty>
0.000

$$$$

  -OEChem-04052315333D

 82 90  0     1  0  0  0  0  0999 V2000
  -28.4353  -32.7061   28.2182 C   0  0  0  0  0  0  0  0  0  0  0  0
  -28.3458  -31.6820   27.2809 C   0  0  0  0  0  0  0  0  0  0  0  0
  -24.6068   -8.6828   21.4336 C   0  0  0  0  0  0  0  0  0  0  0  0
  -23.1647  -10.6099   21.2236 C   0  0  0  0  0  0  0  0  0  0  0  0
  -27.3849  -33.6115   28.3622 C   0  0  0  0  0  0  0  0  0  0  0  0
  -27.2053  -31.5621   26.4876 C   0  0  0  0  0  0  0  0  0  0  0  0
  -28.3058  -30.6897   21.6222 C   0  0  0  0  0  0  0  0  0  0  0  0
  -26.1556  -18.0367   19.7879 C   0  0  0  0  0  0  0  0  0  0  0  0
  -28.3999  -18.4803   20.5646 C   0  0  0  0  0  0  0  0  0  0  0  0
  -23.7770   -8.1705   22.4309 C   0  0  0  0  0  0  0  0  0  0  0  0
  -22.3349  -10.0975   22.2208 C   0  0  0  0  0  0  0  0  0  0  0  0
  -28.6745  -29.3905   21.2758 C   0  0  0  0  0  0  0  0  0  0  0  0
  -25.7701  -19.3223   20.1677 C   0  0  0  0  0  0  0  0  0  0  0  0
  -28.0144  -19.7659   20.9444 C   0  0  0  0  0  0  0  0  0  0  0  0
  -20.8206   -6.5402   22.6173 C   0  0  0  0  0  0  0  0  0  0  0  0
  -20.4844   -5.1882   22.5496 C   0  0  0  0  0  0  0  0  0  0  0  0
  -26.4414  -28.9805   20.4607 C   0  0  0  0  0  0  0  0  0  0  0  0
  -21.5037   -4.8265   24.7100 C   0  0  0  0  0  0  0  0  0  0  0  0
  -24.3007   -9.9026   20.8300 C   0  0  0  0  0  0  0  0  0  0  0  0
  -25.0599  -10.2084   18.4139 C   0  0  0  0  0  0  0  0  0  0  0  0
  -26.2350  -33.5084   27.5636 C   0  0  0  0  0  0  0  0  0  0  0  0
  -26.9969  -31.1413   21.4000 C   0  0  0  0  0  0  0  0  0  0  0  0
  -26.1379  -32.4662   26.6220 C   0  0  0  0  0  0  0  0  0  0  0  0
  -26.0593  -30.2867   20.8028 C   0  0  0  0  0  0  0  0  0  0  0  0
  -27.4705  -17.6157   19.9865 C   0  0  0  0  0  0  0  0  0  0  0  0
  -22.6410   -8.8778   22.8245 C   0  0  0  0  0  0  0  0  0  0  0  0
  -26.6994  -20.1869   20.7459 C   0  0  0  0  0  0  0  0  0  0  0  0
  -27.7415  -28.5347   20.6976 C   0  0  0  0  0  0  0  0  0  0  0  0
  -21.4985   -7.0354   23.7313 C   0  0  0  0  0  0  0  0  0  0  0  0
  -20.8259   -4.3313   23.5960 C   0  0  0  0  0  0  0  0  0  0  0  0
  -21.8400   -6.1786   24.7777 C   0  0  0  0  0  0  0  0  0  0  0  0
  -25.1578  -10.4326   19.8002 C   0  0  0  0  0  0  0  0  0  0  0  0
  -26.0985  -10.9280   17.8755 C   0  0  0  0  0  0  0  0  0  0  0  0
  -24.1145   -9.4203   17.6785 C   0  0  0  0  0  0  0  0  0  0  0  0
  -24.6350  -32.1752   23.2590 C   0  0  0  0  0  0  0  0  0  0  0  0
  -23.1907  -32.7871   20.4197 C   0  0  0  0  0  0  0  0  0  0  0  0
  -22.9348  -32.0878   17.0892 C   0  0  0  0  0  0  0  0  0  0  0  0
  -29.1265  -15.7349   19.7276 C   0  0  0  0  0  0  0  0  0  0  0  0
  -25.1055  -34.4823   27.7882 C   0  0  0  0  0  0  0  0  0  0  0  0
  -26.6224  -32.5541   21.7548 C   0  0  0  0  0  0  0  0  0  0  0  0
  -24.6469  -30.7295   20.5247 C   0  0  0  0  0  0  0  0  0  0  0  0
  -24.0901  -34.5107   26.6487 C   0  0  0  0  0  0  0  0  0  0  0  0
  -30.4822  -12.5399   18.9334 C   0  0  0  0  0  0  0  0  0  0  0  0
  -23.7074  -33.0920   26.2391 C   0  0  0  0  0  0  0  0  0  0  0  0
  -29.2609  -11.6176   18.9334 C   0  0  0  0  0  0  0  0  0  0  0  0
  -30.3839  -13.6113   20.0179 C   0  0  0  0  0  0  0  0  0  0  0  0
  -27.9240  -13.4777   20.0009 C   0  0  0  0  0  0  0  0  0  0  0  0
  -24.9276  -32.3180   25.7258 C   0  0  1  0  0  0  0  0  0  0  0  0
  -25.1217  -32.7420   21.9554 C   0  0  1  0  0  0  0  0  0  0  0  0
  -27.9472  -12.4222   18.8833 C   0  0  2  0  0  0  0  0  0  0  0  0
  -21.6379  -32.7230   15.0369 C   0  0  0  0  0  0  0  0  0  0  0  0
  -20.8142  -31.1552   21.4192 C   0  0  0  0  0  0  0  0  0  0  0  0
  -19.9998  -31.0231   19.0554 C   0  0  0  0  0  0  0  0  0  0  0  0
  -20.2013  -33.2399   20.1813 C   0  0  0  0  0  0  0  0  0  0  0  0
  -25.3721  -33.0292   15.6991 C   0  0  0  0  0  0  0  0  0  0  0  0
  -26.6764  -23.8123   20.7993 C   0  0  0  0  0  0  0  0  0  0  0  0
  -27.7164  -24.9244   20.7195 C   0  0  0  0  0  0  0  0  0  0  0  0
  -27.3204  -22.4594   21.0714 C   0  0  0  0  0  0  0  0  0  0  0  0
  -27.0778  -26.2698   20.4050 C   0  0  0  0  0  0  0  0  0  1  0  0
  -22.2967  -32.0084   19.4852 C   0  0  1  0  0  0  0  0  0  0  0  0
  -22.8805  -32.9923   15.8712 C   0  0  2  0  0  0  0  0  0  0  0  0
  -20.8540  -31.8474   20.0422 C   0  0  0  0  0  0  0  0  0  0  0  0
  -26.1782  -11.2319   20.1225 N   0  0  0  0  0  0  0  0  0  0  0  0
  -26.7310  -11.5163   18.9310 N   0  0  0  0  0  0  0  0  0  0  0  0
  -24.3273  -32.1181   20.8953 N   0  0  0  0  0  0  0  0  0  0  0  0
  -29.1157  -14.3353   19.9056 N   0  0  0  0  0  0  0  0  0  0  0  0
  -26.5234  -11.1086   16.6069 N   0  0  0  0  0  0  0  0  0  0  0  0
  -23.1114   -8.7460   18.3881 N   0  0  0  0  0  0  0  0  0  0  0  0
  -27.8623  -16.3097   19.6008 N   0  0  0  0  0  0  0  0  0  0  0  0
  -25.2473  -32.7184   24.3723 N   0  0  0  0  0  0  0  0  0  0  0  0
  -22.3669  -32.6850   18.1946 N   0  0  0  0  0  0  0  0  0  0  0  0
  -24.0791  -32.7769   15.0123 N   0  3  0  0  0  0  0  0  0  0  0  0
  -24.1679   -9.3037   16.4307 O   0  0  0  0  0  0  0  0  0  0  0  0
  -23.7670  -31.3102   23.2552 O   0  0  0  0  0  0  0  0  0  0  0  0
  -22.8953  -33.9488   20.7110 O   0  0  0  0  0  0  0  0  0  0  0  0
  -23.4280  -30.9624   17.0617 O   0  0  0  0  0  0  0  0  0  0  0  0
  -30.1805  -16.3728   19.6632 O   0  0  0  0  0  0  0  0  0  0  0  0
  -21.8309   -8.3781   23.7974 O   0  0  0  0  0  0  0  0  0  0  0  0
  -26.3207  -21.4501   21.1190 O   0  0  0  0  0  0  0  0  0  0  0  0
  -28.0986  -27.2660   20.3592 O   0  0  0  0  0  0  0  0  0  1  0  0
  -20.5016   -3.0333   23.5315 F   0  0  0  0  0  0  0  0  0  0  0  0
  -22.4902   -6.6487   25.8510 F   0  0  0  0  0  0  0  0  0  0  0  0
  1  2  1  0  0  0  0
  1  5  2  0  0  0  0
  2  6  2  0  0  0  0
  3 10  2  0  0  0  0
  3 19  1  0  0  0  0
  4 11  1  0  0  0  0
  4 19  2  0  0  0  0
  5 21  1  0  0  0  0
  6 23  1  0  0  0  0
  7 12  2  0  0  0  0
  7 22  1  0  0  0  0
  8 13  2  0  0  0  0
  8 25  1  0  0  0  0
  9 14  1  0  0  0  0
  9 25  2  0  0  0  0
 10 26  1  0  0  0  0
 11 26  2  0  0  0  0
 12 28  1  0  0  0  0
 13 27  1  0  0  0  0
 14 27  2  0  0  0  0
 15 16  2  0  0  0  0
 15 29  1  0  0  0  0
 16 30  1  0  0  0  0
 17 24  1  0  0  0  0
 17 28  2  0  0  0  0
 18 30  2  0  0  0  0
 18 31  1  0  0  0  0
 19 32  1  0  0  0  0
 20 32  1  0  0  0  0
 20 33  2  0  0  0  0
 20 34  1  0  0  0  0
 21 23  2  0  0  0  0
 21 39  1  0  0  0  0
 22 24  2  0  0  0  0
 22 40  1  0  0  0  0
 23 48  1  0  0  0  0
 24 41  1  0  0  0  0
 25 69  1  0  0  0  0
 26 78  1  0  0  0  0
 27 79  1  0  0  0  0
 28 80  1  0  0  0  0
 29 31  2  0  0  0  0
 29 78  1  0  0  0  0
 30 81  1  0  0  0  0
 31 82  1  0  0  0  0
 32 63  2  0  0  0  0
 33 64  1  0  0  0  0
 33 67  1  0  0  0  0
 34 68  1  0  0  0  0
 34 73  2  0  0  0  0
 35 49  1  0  0  0  0
 35 70  1  0  0  0  0
 35 74  2  0  0  0  0
 36 60  1  0  0  0  0
 36 65  1  0  0  0  0
 36 75  2  0  0  0  0
 37 61  1  0  0  0  0
 37 71  1  0  0  0  0
 37 76  2  0  0  0  0
 38 66  1  0  0  0  0
 38 69  1  0  0  0  0
 38 77  2  0  0  0  0
 39 42  1  0  0  0  0
 40 49  1  0  0  0  0
 41 65  1  0  0  0  0
 42 44  1  0  0  0  0
 43 45  1  0  0  0  0
 43 46  1  0  0  0  0
 44 48  1  0  0  0  0
 45 50  1  0  0  0  0
 46 66  1  0  0  0  0
 47 50  1  0  0  0  0
 47 66  1  0  0  0  0
 48 70  1  0  0  0  0
 49 65  1  0  0  0  0
 50 64  1  0  0  0  0
 51 61  1  0  0  0  0
 52 62  1  0  0  0  0
 53 62  1  0  0  0  0
 54 62  1  0  0  0  0
 55 72  1  0  0  0  0
 56 57  1  0  0  0  0
 56 58  1  0  0  0  0
 57 59  1  0  0  0  0
 58 79  1  0  0  0  0
 59 80  1  0  0  0  0
 60 62  1  0  0  0  0
 60 71  1  0  0  0  0
 61 72  1  0  0  0  0
 63 64  1  0  0  0  0
M  CHG  1  72   1
M  ISO  4  38 100  59 101  69 100  80 101
M  END
> <Batch ID>
0007

> <Smiles>
CNC(C)C(=O)NC(C(=O)N1Cc2cc([101O:1][101CH2:1]CCCOc3ccc([100NH:0][100C:0](=O)N4CCCC(n5nc(-c6ccc(Oc7ccc(F)cc7F)cc6)c(C(N)=O)c5N)C4)cc3)ccc2CC1C(=O)NC1CCCc2ccccc21)C(C)(C)C

> <Shape>
0.243

> <Color>
0.082

> <Negative vol penalty>
0.000

$$$$

  -OEChem-04052315333D

 83 91  0     1  0  0  0  0  0999 V2000
  -28.2474  -33.1438   26.1787 C   0  0  0  0  0  0  0  0  0  0  0  0
  -28.3441  -31.9424   25.4838 C   0  0  0  0  0  0  0  0  0  0  0  0
  -22.9504  -11.5939   22.0274 C   0  0  0  0  0  0  0  0  0  0  0  0
  -22.5682  -13.6523   20.8216 C   0  0  0  0  0  0  0  0  0  0  0  0
  -26.9966  -33.6316   26.5547 C   0  0  0  0  0  0  0  0  0  0  0  0
  -27.1899  -31.2276   25.1654 C   0  0  0  0  0  0  0  0  0  0  0  0
  -27.2096  -29.5312   20.3940 C   0  0  0  0  0  0  0  0  0  0  0  0
  -30.8089  -18.0975   19.3674 C   0  0  0  0  0  0  0  0  0  0  0  0
  -21.8507  -11.8664   22.8412 C   0  0  0  0  0  0  0  0  0  0  0  0
  -21.4685  -13.9248   21.6353 C   0  0  0  0  0  0  0  0  0  0  0  0
  -27.9767  -28.3988   20.1240 C   0  0  0  0  0  0  0  0  0  0  0  0
  -30.9922  -19.4706   19.2043 C   0  0  0  0  0  0  0  0  0  0  0  0
  -18.2438  -12.9424   21.8733 C   0  0  0  0  0  0  0  0  0  0  0  0
  -17.0760  -13.3879   21.2542 C   0  0  0  0  0  0  0  0  0  0  0  0
  -25.9867  -27.0380   20.2086 C   0  0  0  0  0  0  0  0  0  0  0  0
  -28.7341  -18.2282   18.1364 C   0  0  0  0  0  0  0  0  0  0  0  0
  -17.1741  -15.4313   22.5395 C   0  0  0  0  0  0  0  0  0  0  0  0
  -23.3091  -12.4869   21.0177 C   0  0  0  0  0  0  0  0  0  0  0  0
  -24.4489  -11.4953   18.9621 C   0  0  0  0  0  0  0  0  0  0  0  0
  -25.8258  -32.9272   26.2323 C   0  0  0  0  0  0  0  0  0  0  0  0
  -25.8245  -29.4238   20.5844 C   0  0  0  0  0  0  0  0  0  0  0  0
  -25.9223  -31.7058   25.5386 C   0  0  0  0  0  0  0  0  0  0  0  0
  -25.2039  -28.1709   20.4783 C   0  0  0  0  0  0  0  0  0  0  0  0
  -29.6799  -17.4763   18.8334 C   0  0  0  0  0  0  0  0  0  0  0  0
  -21.1098  -13.0318   22.6451 C   0  0  0  0  0  0  0  0  0  0  0  0
  -27.3657  -27.1515   20.0341 C   0  0  0  0  0  0  0  0  0  0  0  0
  -18.8768  -13.7413   22.8256 C   0  0  0  0  0  0  0  0  0  0  0  0
  -30.0465  -20.2225   18.5073 C   0  0  0  0  0  0  0  0  0  0  0  0
  -16.5412  -14.6323   21.5873 C   0  0  0  0  0  0  0  0  0  0  0  0
  -18.3420  -14.9857   23.1586 C   0  0  0  0  0  0  0  0  0  0  0  0
  -28.9174  -19.6013   17.9733 C   0  0  0  0  0  0  0  0  0  0  0  0
  -24.4453  -12.2062   20.1772 C   0  0  0  0  0  0  0  0  0  0  0  0
  -25.7628  -11.5058   18.5620 C   0  0  0  0  0  0  0  0  0  0  0  0
  -23.3617  -10.8805   18.2580 C   0  0  0  0  0  0  0  0  0  0  0  0
  -23.8375  -30.0280   22.9908 C   0  0  0  0  0  0  0  0  0  0  0  0
  -21.5691  -29.3217   20.7822 C   0  0  0  0  0  0  0  0  0  0  0  0
  -20.7472  -27.7182   17.8840 C   0  0  0  0  0  0  0  0  0  0  0  0
  -30.3361  -15.1903   19.6640 C   0  0  0  0  0  0  0  0  0  0  0  0
  -24.4994  -33.4706   26.7013 C   0  0  0  0  0  0  0  0  0  0  0  0
  -25.0073  -30.6587   20.8484 C   0  0  0  0  0  0  0  0  0  0  0  0
  -23.7173  -28.0048   20.6544 C   0  0  0  0  0  0  0  0  0  0  0  0
  -23.3000  -32.8406   25.9978 C   0  0  0  0  0  0  0  0  0  0  0  0
  -30.2122  -11.6935   20.3232 C   0  0  0  0  0  0  0  0  0  0  0  0
  -23.4463  -31.3230   25.9492 C   0  0  0  0  0  0  0  0  0  0  0  0
  -28.7202  -11.3623   20.2439 C   0  0  0  0  0  0  0  0  0  0  0  0
  -30.4561  -13.0661   20.9479 C   0  0  0  0  0  0  0  0  0  0  0  0
  -28.2253  -13.8407   20.2458 C   0  0  0  0  0  0  0  0  0  0  0  0
  -24.6916  -30.9140   25.1533 C   0  0  1  0  0  0  0  0  0  0  0  0
  -23.6777  -30.3600   21.5341 C   0  0  1  0  0  0  0  0  0  0  0  0
  -27.9267  -12.4954   19.5641 C   0  0  2  0  0  0  0  0  0  0  0  0
  -18.8075  -27.2934   16.3495 C   0  0  0  0  0  0  0  0  0  0  0  0
  -20.4459  -27.2948   22.7672 C   0  0  0  0  0  0  0  0  0  0  0  0
  -19.1610  -26.2646   20.8814 C   0  0  0  0  0  0  0  0  0  0  0  0
  -18.7173  -28.6276   21.5464 C   0  0  0  0  0  0  0  0  0  0  0  0
  -22.1054  -29.0413   15.6117 C   0  0  0  0  0  0  0  0  0  0  0  0
  -29.9160  -24.6246   20.5204 C   0  0  0  0  0  0  0  0  0  0  0  0
  -29.8558  -23.7486   19.2739 C   0  0  0  0  0  0  0  0  0  0  0  0
  -29.4642  -26.0493   20.2281 C   0  0  0  0  0  0  0  0  0  1  0  0
  -30.3478  -22.3360   19.5553 C   0  0  0  0  0  0  0  0  0  0  0  0
  -20.8650  -28.0624   20.3380 C   0  0  1  0  0  0  0  0  0  0  0  0
  -19.9995  -28.1889   16.6495 C   0  0  2  0  0  0  0  0  0  0  0  0
  -19.8256  -27.5649   21.3818 C   0  0  0  0  0  0  0  0  0  0  0  0
  -25.6605  -12.6369   20.5262 N   0  0  0  0  0  0  0  0  0  0  0  0
  -26.4400  -12.1953   19.5244 N   0  0  0  0  0  0  0  0  0  0  0  0
  -22.9623  -29.2411   20.9172 N   0  0  0  0  0  0  0  0  0  0  0  0
  -29.6754  -14.0898   20.2498 N   0  0  0  0  0  0  0  0  0  0  0  0
  -26.3933  -10.9925   17.4844 N   0  0  0  0  0  0  0  0  0  0  0  0
  -22.0760  -10.9641   18.8096 N   0  0  0  0  0  0  0  0  0  0  0  0
  -29.4941  -16.0814   18.9995 N   0  0  0  0  0  0  0  0  0  0  0  0
  -24.4422  -31.0252   23.7321 N   0  0  0  0  0  0  0  0  0  0  0  0
  -20.3007  -28.3521   19.0242 N   0  0  0  0  0  0  0  0  0  0  0  0
  -20.9020  -28.1829   15.4636 N   0  3  0  0  0  0  0  0  0  0  0  0
  -23.5282  -10.2608   17.1801 O   0  0  0  0  0  0  0  0  0  0  0  0
  -23.4403  -28.9477   23.4114 O   0  0  0  0  0  0  0  0  0  0  0  0
  -20.9081  -30.3413   20.9946 O   0  0  0  0  0  0  0  0  0  0  0  0
  -21.6357  -26.8701   17.8416 O   0  0  0  0  0  0  0  0  0  0  0  0
  -31.5619  -15.3174   19.7224 O   0  0  0  0  0  0  0  0  0  0  0  0
  -20.0366  -13.2979   23.4388 O   0  0  0  0  0  0  0  0  0  0  0  0
  -28.1122  -26.0445   19.7714 O   0  0  0  0  0  0  0  0  0  1  0  0
  -30.2526  -21.5699   18.3623 O   0  0  0  0  0  0  0  0  0  0  0  0
  -15.4205  -15.0607   20.9915 F   0  0  0  0  0  0  0  0  0  0  0  0
  -18.9462  -15.7582   24.0719 F   0  0  0  0  0  0  0  0  0  0  0  0
  -27.7321  -20.5074   17.1071 Cl  0  0  0  0  0  0  0  0  0  0  0  0
  1  2  1  0  0  0  0
  1  5  2  0  0  0  0
  2  6  2  0  0  0  0
  3  9  2  0  0  0  0
  3 18  1  0  0  0  0
  4 10  1  0  0  0  0
  4 18  2  0  0  0  0
  5 20  1  0  0  0  0
  6 22  1  0  0  0  0
  7 11  2  0  0  0  0
  7 21  1  0  0  0  0
  8 12  2  0  0  0  0
  8 24  1  0  0  0  0
  9 25  1  0  0  0  0
 10 25  2  0  0  0  0
 11 26  1  0  0  0  0
 12 28  1  0  0  0  0
 13 14  2  0  0  0  0
 13 27  1  0  0  0  0
 14 29  1  0  0  0  0
 15 23  1  0  0  0  0
 15 26  2  0  0  0  0
 16 24  2  0  0  0  0
 16 31  1  0  0  0  0
 17 29  2  0  0  0  0
 17 30  1  0  0  0  0
 18 32  1  0  0  0  0
 19 32  1  0  0  0  0
 19 33  2  0  0  0  0
 19 34  1  0  0  0  0
 20 22  2  0  0  0  0
 20 39  1  0  0  0  0
 21 23  2  0  0  0  0
 21 40  1  0  0  0  0
 22 48  1  0  0  0  0
 23 41  1  0  0  0  0
 24 69  1  0  0  0  0
 25 78  1  0  0  0  0
 26 79  1  0  0  0  0
 27 30  2  0  0  0  0
 27 78  1  0  0  0  0
 28 31  2  0  0  0  0
 28 80  1  0  0  0  0
 29 81  1  0  0  0  0
 30 82  1  0  0  0  0
 31 83  1  0  0  0  0
 32 63  2  0  0  0  0
 33 64  1  0  0  0  0
 33 67  1  0  0  0  0
 34 68  1  0  0  0  0
 34 73  2  0  0  0  0
 35 49  1  0  0  0  0
 35 70  1  0  0  0  0
 35 74  2  0  0  0  0
 36 60  1  0  0  0  0
 36 65  1  0  0  0  0
 36 75  2  0  0  0  0
 37 61  1  0  0  0  0
 37 71  1  0  0  0  0
 37 76  2  0  0  0  0
 38 66  1  0  0  0  0
 38 69  1  0  0  0  0
 38 77  2  0  0  0  0
 39 42  1  0  0  0  0
 40 49  1  0  0  0  0
 41 65  1  0  0  0  0
 42 44  1  0  0  0  0
 43 45  1  0  0  0  0
 43 46  1  0  0  0  0
 44 48  1  0  0  0  0
 45 50  1  0  0  0  0
 46 66  1  0  0  0  0
 47 50  1  0  0  0  0
 47 66  1  0  0  0  0
 48 70  1  0  0  0  0
 49 65  1  0  0  0  0
 50 64  1  0  0  0  0
 51 61  1  0  0  0  0
 52 62  1  0  0  0  0
 53 62  1  0  0  0  0
 54 62  1  0  0  0  0
 55 72  1  0  0  0  0
 56 57  1  0  0  0  0
 56 58  1  0  0  0  0
 57 59  1  0  0  0  0
 58 79  1  0  0  0  0
 59 80  1  0  0  0  0
 60 62  1  0  0  0  0
 60 71  1  0  0  0  0
 61 72  1  0  0  0  0
 63 64  1  0  0  0  0
M  CHG  1  72   1
M  ISO  4  38 100  58 101  69 100  79 101
M  END
> <Batch ID>
0007

> <Smiles>
CNC(C)C(=O)NC(C(=O)N1Cc2cc([101O:1][101CH2:1]CCCOc3ccc([100NH:0][100C:0](=O)N4CCCC(n5nc(-c6ccc(Oc7ccc(F)cc7F)cc6)c(C(N)=O)c5N)C4)cc3Cl)ccc2CC1C(=O)NC1CCCc2ccccc21)C(C)(C)C

> <Shape>
0.298

> <Color>
0.088

> <Negative vol penalty>
0.000

$$$$

  -OEChem-04052315333D

 84 92  0     1  0  0  0  0  0999 V2000
  -25.9171  -37.3771   17.7985 C   0  0  0  0  0  0  0  0  0  0  0  0
  -26.6310  -36.1844   17.8551 C   0  0  0  0  0  0  0  0  0  0  0  0
  -24.5964  -10.4893   23.0488 C   0  0  0  0  0  0  0  0  0  0  0  0
  -24.5302  -12.2281   24.7249 C   0  0  0  0  0  0  0  0  0  0  0  0
  -24.9925  -37.6828   18.7963 C   0  0  0  0  0  0  0  0  0  0  0  0
  -26.4215  -35.2971   18.9102 C   0  0  0  0  0  0  0  0  0  0  0  0
  -26.6134  -29.1806   18.6702 C   0  0  0  0  0  0  0  0  0  0  0  0
  -29.6852  -20.5104   20.5071 C   0  0  0  0  0  0  0  0  0  0  0  0
  -24.2110   -9.5514   24.0065 C   0  0  0  0  0  0  0  0  0  0  0  0
  -24.1448  -11.2902   25.6827 C   0  0  0  0  0  0  0  0  0  0  0  0
  -27.6065  -28.2596   19.0009 C   0  0  0  0  0  0  0  0  0  0  0  0
  -29.6616  -21.9037   20.5682 C   0  0  0  0  0  0  0  0  0  0  0  0
  -21.3564   -8.5866   25.5406 C   0  0  0  0  0  0  0  0  0  0  0  0
  -20.3607   -7.6745   25.1908 C   0  0  0  0  0  0  0  0  0  0  0  0
  -26.5988  -27.9615   21.1722 C   0  0  0  0  0  0  0  0  0  0  0  0
  -27.2546  -21.8720   20.3622 C   0  0  0  0  0  0  0  0  0  0  0  0
  -21.8953   -5.8496   25.5809 C   0  0  0  0  0  0  0  0  0  0  0  0
  -24.7561  -11.8277   23.4080 C   0  0  0  0  0  0  0  0  0  0  0  0
  -24.3122  -13.5630   21.5915 C   0  0  0  0  0  0  0  0  0  0  0  0
  -24.7646  -36.7944   19.8591 C   0  0  0  0  0  0  0  0  0  0  0  0
  -25.6101  -29.5076   19.5937 C   0  0  0  0  0  0  0  0  0  0  0  0
  -25.4940  -35.5918   19.9239 C   0  0  0  0  0  0  0  0  0  0  0  0
  -25.5926  -28.8850   20.8499 C   0  0  0  0  0  0  0  0  0  0  0  0
  -27.2782  -20.4787   20.3010 C   0  0  0  0  0  0  0  0  0  0  0  0
  -28.4935  -19.7979   20.3734 C   0  0  0  0  0  0  0  0  0  0  0  0
  -23.9851   -9.9518   25.3235 C   0  0  0  0  0  0  0  0  0  0  0  0
  -27.6010  -27.6521   20.2530 C   0  0  0  0  0  0  0  0  0  0  0  0
  -28.4463  -22.5845   20.4958 C   0  0  0  0  0  0  0  0  0  0  0  0
  -22.6216   -8.1302   25.9105 C   0  0  0  0  0  0  0  0  0  0  0  0
  -20.6301   -6.3061   25.2110 C   0  0  0  0  0  0  0  0  0  0  0  0
  -22.8910   -6.7617   25.9307 C   0  0  0  0  0  0  0  0  0  0  0  0
  -25.1548  -12.7970   22.4192 C   0  0  0  0  0  0  0  0  0  0  0  0
  -25.1714  -14.3240   20.8371 C   0  0  0  0  0  0  0  0  0  0  0  0
  -22.8808  -13.5847   21.5118 C   0  0  0  0  0  0  0  0  0  0  0  0
  -24.7079  -32.1704   21.0767 C   0  0  0  0  0  0  0  0  0  0  0  0
  -22.2758  -30.2982   22.1265 C   0  0  0  0  0  0  0  0  0  0  0  0
  -21.1206  -27.1594   22.8047 C   0  0  0  0  0  0  0  0  0  0  0  0
  -29.6706  -17.5706   20.3683 C   0  0  0  0  0  0  0  0  0  0  0  0
  -23.7895  -37.1899   20.9395 C   0  0  0  0  0  0  0  0  0  0  0  0
  -24.5306  -30.4831   19.2119 C   0  0  0  0  0  0  0  0  0  0  0  0
  -24.5259  -29.1864   21.8696 C   0  0  0  0  0  0  0  0  0  0  0  0
  -23.3545  -36.0242   21.8239 C   0  0  0  0  0  0  0  0  0  0  0  0
  -30.1956  -14.0500   20.2856 C   0  0  0  0  0  0  0  0  0  0  0  0
  -24.5638  -35.1997   22.2534 C   0  0  0  0  0  0  0  0  0  0  0  0
  -28.8616  -13.4732   20.7652 C   0  0  0  0  0  0  0  0  0  0  0  0
  -30.5523  -15.3408   21.0206 C   0  0  0  0  0  0  0  0  0  0  0  0
  -28.1757  -15.7978   21.4811 C   0  0  0  0  0  0  0  0  0  0  0  0
  -25.2768  -34.5924   21.0393 C   0  0  1  0  0  0  0  0  0  0  0  0
  -23.8523  -31.1257   20.4178 C   0  0  1  0  0  0  0  0  0  0  0  0
  -27.7423  -14.5320   20.7238 C   0  0  2  0  0  0  0  0  0  0  0  0
  -19.1076  -25.9494   23.6885 C   0  0  0  0  0  0  0  0  0  0  0  0
  -23.0174  -31.1415   24.9635 C   0  0  0  0  0  0  0  0  0  0  0  0
  -21.6509  -29.2247   25.8159 C   0  0  0  0  0  0  0  0  0  0  0  0
  -20.5594  -31.0495   24.5115 C   0  0  0  0  0  0  0  0  0  0  0  0
  -20.7517  -25.6805   20.2679 C   0  0  0  0  0  0  0  0  0  0  0  0
  -29.1304  -25.9882   19.5125 C   0  0  0  0  0  0  0  0  0  1  0  0
  -29.5619  -24.6362   20.0469 C   0  0  0  0  0  0  0  0  0  0  0  0
  -22.0572  -29.3984   23.3187 C   0  0  1  0  0  0  0  0  0  0  0  0
  -19.8182  -26.4663   22.4473 C   0  0  2  0  0  0  0  0  0  0  0  0
  -25.9862  -19.7418   20.1575 C   0  0  0  0  0  0  0  0  0  0  0  0
  -21.8426  -30.1991   24.6341 C   0  0  0  0  0  0  0  0  0  0  0  0
  -26.4499  -13.0483   22.2103 N   0  0  0  0  0  0  0  0  0  0  0  0
  -26.4275  -13.9807   21.2427 N   0  0  0  0  0  0  0  0  0  0  0  0
  -23.4959  -30.1516   21.4515 N   0  0  0  0  0  0  0  0  0  0  0  0
  -29.4472  -16.2980   20.9353 N   0  0  0  0  0  0  0  0  0  0  0  0
  -24.9674  -15.2466   19.8730 N   0  0  0  0  0  0  0  0  0  0  0  0
  -22.1515  -12.7393   22.3590 N   0  0  0  0  0  0  0  0  0  0  0  0
  -28.5386  -18.3830   20.3110 N   0  0  0  0  0  0  0  0  0  0  0  0
  -24.5512  -33.4390   20.5518 N   0  0  0  0  0  0  0  0  0  0  0  0
  -20.9483  -28.5177   22.9676 N   0  0  0  0  0  0  0  0  0  0  0  0
  -20.0773  -25.3131   21.5395 N   0  3  0  0  0  0  0  0  0  0  0  0
  -22.2671  -14.3198   20.7015 O   0  0  0  0  0  0  0  0  0  0  0  0
  -25.4539  -31.8496   21.9945 O   0  0  0  0  0  0  0  0  0  0  0  0
  -21.3934  -31.0967   21.8017 O   0  0  0  0  0  0  0  0  0  0  0  0
  -22.1837  -26.5556   22.9308 O   0  0  0  0  0  0  0  0  0  0  0  0
  -30.7778  -17.9043   19.9386 O   0  0  0  0  0  0  0  0  0  0  0  0
  -23.6088   -9.0369   26.2583 O   0  0  0  0  0  0  0  0  0  0  0  0
  -28.5695  -26.7533   20.5785 O   0  0  0  0  0  0  0  0  0  1  0  0
  -28.4231  -23.9530   20.5565 O   0  0  0  0  0  0  0  0  0  0  0  0
  -19.6734   -5.4303   24.8765 F   0  0  0  0  0  0  0  0  0  0  0  0
  -24.1041   -6.3172   26.2863 F   0  0  0  0  0  0  0  0  0  0  0  0
  -24.8955  -20.5605   20.1018 F   0  0  0  0  0  0  0  0  0  0  0  0
  -25.9185  -18.9772   19.0291 F   0  0  0  0  0  0  0  0  0  0  0  0
  -25.7536  -18.8884   21.1956 F   0  0  0  0  0  0  0  0  0  0  0  0
  1  2  1  0  0  0  0
  1  5  2  0  0  0  0
  2  6  2  0  0  0  0
  3  9  2  0  0  0  0
  3 18  1  0  0  0  0
  4 10  1  0  0  0  0
  4 18  2  0  0  0  0
  5 20  1  0  0  0  0
  6 22  1  0  0  0  0
  7 11  2  0  0  0  0
  7 21  1  0  0  0  0
  8 12  2  0  0  0  0
  8 25  1  0  0  0  0
  9 26  1  0  0  0  0
 10 26  2  0  0  0  0
 11 27  1  0  0  0  0
 12 28  1  0  0  0  0
 13 14  2  0  0  0  0
 13 29  1  0  0  0  0
 14 30  1  0  0  0  0
 15 23  1  0  0  0  0
 15 27  2  0  0  0  0
 16 24  1  0  0  0  0
 16 28  2  0  0  0  0
 17 30  2  0  0  0  0
 17 31  1  0  0  0  0
 18 32  1  0  0  0  0
 19 32  1  0  0  0  0
 19 33  2  0  0  0  0
 19 34  1  0  0  0  0
 20 22  2  0  0  0  0
 20 39  1  0  0  0  0
 21 23  2  0  0  0  0
 21 40  1  0  0  0  0
 22 48  1  0  0  0  0
 23 41  1  0  0  0  0
 24 25  2  0  0  0  0
 24 60  1  0  0  0  0
 25 68  1  0  0  0  0
 26 77  1  0  0  0  0
 27 78  1  0  0  0  0
 28 79  1  0  0  0  0
 29 31  2  0  0  0  0
 29 77  1  0  0  0  0
 30 80  1  0  0  0  0
 31 81  1  0  0  0  0
 32 62  2  0  0  0  0
 33 63  1  0  0  0  0
 33 66  1  0  0  0  0
 34 67  1  0  0  0  0
 34 72  2  0  0  0  0
 35 49  1  0  0  0  0
 35 69  1  0  0  0  0
 35 73  2  0  0  0  0
 36 58  1  0  0  0  0
 36 64  1  0  0  0  0
 36 74  2  0  0  0  0
 37 59  1  0  0  0  0
 37 70  1  0  0  0  0
 37 75  2  0  0  0  0
 38 65  1  0  0  0  0
 38 68  1  0  0  0  0
 38 76  2  0  0  0  0
 39 42  1  0  0  0  0
 40 49  1  0  0  0  0
 41 64  1  0  0  0  0
 42 44  1  0  0  0  0
 43 45  1  0  0  0  0
 43 46  1  0  0  0  0
 44 48  1  0  0  0  0
 45 50  1  0  0  0  0
 46 65  1  0  0  0  0
 47 50  1  0  0  0  0
 47 65  1  0  0  0  0
 48 69  1  0  0  0  0
 49 64  1  0  0  0  0
 50 63  1  0  0  0  0
 51 59  1  0  0  0  0
 52 61  1  0  0  0  0
 53 61  1  0  0  0  0
 54 61  1  0  0  0  0
 55 71  1  0  0  0  0
 56 57  1  0  0  0  0
 56 78  1  0  0  0  0
 57 79  1  0  0  0  0
 58 61  1  0  0  0  0
 58 70  1  0  0  0  0
 59 71  1  0  0  0  0
 60 82  1  0  0  0  0
 60 83  1  0  0  0  0
 60 84  1  0  0  0  0
 62 63  1  0  0  0  0
M  CHG  1  71   1
M  ISO  4  38 100  56 101  68 100  78 101
M  END
> <Batch ID>
0007

> <Smiles>
CNC(C)C(=O)NC(C(=O)N1Cc2cc([101O:1][101CH2:1]COc3ccc([100NH:0][100C:0](=O)N4CCCC(n5nc(-c6ccc(Oc7ccc(F)cc7F)cc6)c(C(N)=O)c5N)C4)c(C(F)(F)F)c3)ccc2CC1C(=O)NC1CCCc2ccccc21)C(C)(C)C

> <Shape>
0.274

> <Color>
0.132

> <Negative vol penalty>
0.000

$$$$

  -OEChem-04052315333D

 81 89  0     1  0  0  0  0  0999 V2000
  -27.1711  -30.0565   18.2472 C   0  0  0  0  0  0  0  0  0  0  0  0
  -27.0950  -28.6906   18.5004 C   0  0  0  0  0  0  0  0  0  0  0  0
  -30.5958  -23.0971   20.3979 C   0  0  0  0  0  0  0  0  0  0  0  0
  -29.0068  -23.0097   18.5801 C   0  0  0  0  0  0  0  0  0  0  0  0
  -26.4069  -30.9474   18.9995 C   0  0  0  0  0  0  0  0  0  0  0  0
  -26.2553  -28.2150   19.5070 C   0  0  0  0  0  0  0  0  0  0  0  0
  -23.1140  -22.9578   19.5026 C   0  0  0  0  0  0  0  0  0  0  0  0
  -23.7410  -13.0238   22.5742 C   0  0  0  0  0  0  0  0  0  0  0  0
  -24.7233  -13.5878   21.7603 C   0  0  0  0  0  0  0  0  0  0  0  0
  -31.2305  -24.1808   19.7910 C   0  0  0  0  0  0  0  0  0  0  0  0
  -29.6415  -24.0934   17.9732 C   0  0  0  0  0  0  0  0  0  0  0  0
  -23.3674  -21.7133   20.0776 C   0  0  0  0  0  0  0  0  0  0  0  0
  -32.4148  -24.6362   16.1171 C   0  0  0  0  0  0  0  0  0  0  0  0
  -32.6611  -24.5584   14.7464 C   0  0  0  0  0  0  0  0  0  0  0  0
  -22.0011  -22.3171   21.9718 C   0  0  0  0  0  0  0  0  0  0  0  0
  -22.3146  -14.9326   22.1754 C   0  0  0  0  0  0  0  0  0  0  0  0
  -31.3087  -26.5287   14.3915 C   0  0  0  0  0  0  0  0  0  0  0  0
  -29.4839  -22.5116   19.7924 C   0  0  0  0  0  0  0  0  0  0  0  0
  -27.7675  -21.4361   21.3433 C   0  0  0  0  0  0  0  0  0  0  0  0
  -25.5502  -30.4817   20.0094 C   0  0  0  0  0  0  0  0  0  0  0  0
  -22.3098  -23.8971   20.1640 C   0  0  0  0  0  0  0  0  0  0  0  0
  -25.4799  -29.1007   20.2744 C   0  0  0  0  0  0  0  0  0  0  0  0
  -21.7370  -23.5719   21.4018 C   0  0  0  0  0  0  0  0  0  0  0  0
  -22.5366  -13.6962   22.7817 C   0  0  0  0  0  0  0  0  0  0  0  0
  -24.5014  -14.8242   21.1539 C   0  0  0  0  0  0  0  0  0  0  0  0
  -30.7534  -24.6790   18.5786 C   0  0  0  0  0  0  0  0  0  0  0  0
  -22.8133  -21.3938   21.3137 C   0  0  0  0  0  0  0  0  0  0  0  0
  -31.6154  -25.6602   16.6251 C   0  0  0  0  0  0  0  0  0  0  0  0
  -23.2970  -15.4966   21.3614 C   0  0  0  0  0  0  0  0  0  0  0  0
  -32.1081  -25.5046   13.8836 C   0  0  0  0  0  0  0  0  0  0  0  0
  -31.0623  -26.6064   15.7623 C   0  0  0  0  0  0  0  0  0  0  0  0
  -28.8281  -21.3918   20.4186 C   0  0  0  0  0  0  0  0  0  0  0  0
  -27.5084  -20.1185   21.6320 C   0  0  0  0  0  0  0  0  0  0  0  0
  -27.0782  -22.5672   21.8921 C   0  0  0  0  0  0  0  0  0  0  0  0
  -22.7667  -26.8217   21.3222 C   0  0  0  0  0  0  0  0  0  0  0  0
  -19.5687  -26.6907   21.8492 C   0  0  0  0  0  0  0  0  0  0  0  0
  -16.7900  -24.7718   22.3427 C   0  0  0  0  0  0  0  0  0  0  0  0
  -26.7574  -14.8382   20.0329 C   0  0  0  0  0  0  0  0  0  0  0  0
  -24.7792  -31.4868   20.8279 C   0  0  0  0  0  0  0  0  0  0  0  0
  -22.0243  -25.2250   19.5179 C   0  0  0  0  0  0  0  0  0  0  0  0
  -20.8501  -24.5373   22.1433 C   0  0  0  0  0  0  0  0  0  0  0  0
  -23.6323  -30.8715   21.6255 C   0  0  0  0  0  0  0  0  0  0  0  0
  -30.1138  -15.9264   20.5096 C   0  0  0  0  0  0  0  0  0  0  0  0
  -24.0983  -29.6086   22.3430 C   0  0  0  0  0  0  0  0  0  0  0  0
  -29.9913  -17.4490   20.6045 C   0  0  0  0  0  0  0  0  0  0  0  0
  -29.1314  -15.3404   19.4971 C   0  0  0  0  0  0  0  0  0  0  0  0
  -27.6071  -17.2536   19.7893 C   0  0  0  0  0  0  0  0  0  0  0  0
  -24.5621  -28.5442   21.3413 C   0  0  1  0  0  0  0  0  0  0  0  0
  -21.6096  -26.2995   20.5184 C   0  0  1  0  0  0  0  0  0  0  0  0
  -28.5319  -17.8831   20.8439 C   0  0  2  0  0  0  0  0  0  0  0  0
  -21.4865  -13.0929   23.6521 C   0  0  0  0  0  0  0  0  0  0  0  0
  -14.3259  -24.9499   22.7831 C   0  0  0  0  0  0  0  0  0  0  0  0
  -20.1436  -27.4283   24.7536 C   0  0  0  0  0  0  0  0  0  0  0  0
  -17.8287  -26.6696   25.3316 C   0  0  0  0  0  0  0  0  0  0  0  0
  -18.1577  -28.5777   23.7588 C   0  0  0  0  0  0  0  0  0  0  0  0
  -16.1212  -23.3505   19.8344 C   0  0  0  0  0  0  0  0  0  0  0  0
  -23.2867  -19.0858   20.9903 C   0  0  0  0  0  0  0  0  0  1  0  0
  -22.8091  -17.8063   21.6494 C   0  0  0  0  0  0  0  0  0  0  0  0
  -18.6908  -26.2297   22.9876 C   0  0  1  0  0  0  0  0  0  0  0  0
  -15.4064  -24.8239   21.7204 C   0  0  2  0  0  0  0  0  0  0  0  0
  -18.7234  -27.2086   24.1951 C   0  0  0  0  0  0  0  0  0  0  0  0
  -29.2162  -20.1448   20.1386 N   0  0  0  0  0  0  0  0  0  0  0  0
  -28.3952  -19.3934   20.8918 N   0  0  0  0  0  0  0  0  0  0  0  0
  -20.6059  -25.8253   21.4733 N   0  0  0  0  0  0  0  0  0  0  0  0
  -27.7689  -15.7912   19.7892 N   0  0  0  0  0  0  0  0  0  0  0  0
  -26.6109  -19.5211   22.4444 N   0  0  0  0  0  0  0  0  0  0  0  0
  -27.4715  -23.8501   21.4876 N   0  0  0  0  0  0  0  0  0  0  0  0
  -25.5099  -15.3851   20.3317 N   0  0  0  0  0  0  0  0  0  0  0  0
  -23.4224  -27.8881   20.7371 N   0  0  0  0  0  0  0  0  0  0  0  0
  -17.3623  -26.0239   22.4210 N   0  0  0  0  0  0  0  0  0  0  0  0
  -15.1468  -23.5871   20.9305 N   0  3  0  0  0  0  0  0  0  0  0  0
  -26.1521  -22.4444   22.7292 O   0  0  0  0  0  0  0  0  0  0  0  0
  -23.0432  -26.2970   22.3945 O   0  0  0  0  0  0  0  0  0  0  0  0
  -19.3382  -27.7752   21.3086 O   0  0  0  0  0  0  0  0  0  0  0  0
  -17.3095  -23.7256   22.7249 O   0  0  0  0  0  0  0  0  0  0  0  0
  -26.9876  -13.6265   20.0072 O   0  0  0  0  0  0  0  0  0  0  0  0
  -31.3724  -25.7365   17.9862 O   0  0  0  0  0  0  0  0  0  0  0  0
  -23.0595  -20.1800   21.8776 O   0  0  0  0  0  0  0  0  0  1  0  0
  -23.0593  -16.7121   20.7757 O   0  0  0  0  0  0  0  0  0  0  0  0
  -32.3460  -25.4307   12.5675 F   0  0  0  0  0  0  0  0  0  0  0  0
  -30.2945  -27.5932   16.2445 F   0  0  0  0  0  0  0  0  0  0  0  0
  1  2  1  0  0  0  0
  1  5  2  0  0  0  0
  2  6  2  0  0  0  0
  3 10  2  0  0  0  0
  3 18  1  0  0  0  0
  4 11  1  0  0  0  0
  4 18  2  0  0  0  0
  5 20  1  0  0  0  0
  6 22  1  0  0  0  0
  7 12  2  0  0  0  0
  7 21  1  0  0  0  0
  8  9  2  0  0  0  0
  8 24  1  0  0  0  0
  9 25  1  0  0  0  0
 10 26  1  0  0  0  0
 11 26  2  0  0  0  0
 12 27  1  0  0  0  0
 13 14  2  0  0  0  0
 13 28  1  0  0  0  0
 14 30  1  0  0  0  0
 15 23  1  0  0  0  0
 15 27  2  0  0  0  0
 16 24  2  0  0  0  0
 16 29  1  0  0  0  0
 17 30  2  0  0  0  0
 17 31  1  0  0  0  0
 18 32  1  0  0  0  0
 19 32  1  0  0  0  0
 19 33  2  0  0  0  0
 19 34  1  0  0  0  0
 20 22  2  0  0  0  0
 20 39  1  0  0  0  0
 21 23  2  0  0  0  0
 21 40  1  0  0  0  0
 22 48  1  0  0  0  0
 23 41  1  0  0  0  0
 24 51  1  0  0  0  0
 25 29  2  0  0  0  0
 25 68  1  0  0  0  0
 26 77  1  0  0  0  0
 27 78  1  0  0  0  0
 28 31  2  0  0  0  0
 28 77  1  0  0  0  0
 29 79  1  0  0  0  0
 30 80  1  0  0  0  0
 31 81  1  0  0  0  0
 32 62  2  0  0  0  0
 33 63  1  0  0  0  0
 33 66  1  0  0  0  0
 34 67  1  0  0  0  0
 34 72  2  0  0  0  0
 35 49  1  0  0  0  0
 35 69  1  0  0  0  0
 35 73  2  0  0  0  0
 36 59  1  0  0  0  0
 36 64  1  0  0  0  0
 36 74  2  0  0  0  0
 37 60  1  0  0  0  0
 37 70  1  0  0  0  0
 37 75  2  0  0  0  0
 38 65  1  0  0  0  0
 38 68  1  0  0  0  0
 38 76  2  0  0  0  0
 39 42  1  0  0  0  0
 40 49  1  0  0  0  0
 41 64  1  0  0  0  0
 42 44  1  0  0  0  0
 43 45  1  0  0  0  0
 43 46  1  0  0  0  0
 44 48  1  0  0  0  0
 45 50  1  0  0  0  0
 46 65  1  0  0  0  0
 47 50  1  0  0  0  0
 47 65  1  0  0  0  0
 48 69  1  0  0  0  0
 49 64  1  0  0  0  0
 50 63  1  0  0  0  0
 52 60  1  0  0  0  0
 53 61  1  0  0  0  0
 54 61  1  0  0  0  0
 55 61  1  0  0  0  0
 56 71  1  0  0  0  0
 57 58  1  0  0  0  0
 57 78  1  0  0  0  0
 58 79  1  0  0  0  0
 59 61  1  0  0  0  0
 59 70  1  0  0  0  0
 60 71  1  0  0  0  0
 62 63  1  0  0  0  0
M  CHG  1  71   1
M  ISO  4  38 100  57 101  68 100  78 101
M  END
> <Batch ID>
0007

> <Smiles>
CNC(C)C(=O)NC(C(=O)N1Cc2cc([101O:1][101CH2:1]COc3cc(C)ccc3[100NH:0][100C:0](=O)N3CCCC(n4nc(-c5ccc(Oc6ccc(F)cc6F)cc5)c(C(N)=O)c4N)C3)ccc2CC1C(=O)NC1CCCc2ccccc21)C(C)(C)C

> <Shape>
0.211

> <Color>
0.057

> <Negative vol penalty>
0.000

$$$$

  -OEChem-04052315333D

 82 90  0     1  0  0  0  0  0999 V2000
  -23.0234  -29.9630   30.3557 C   0  0  0  0  0  0  0  0  0  0  0  0
  -22.4183  -29.0044   29.5492 C   0  0  0  0  0  0  0  0  0  0  0  0
  -23.3239  -16.1414   22.0916 C   0  0  0  0  0  0  0  0  0  0  0  0
  -22.4551  -15.6411   19.8935 C   0  0  0  0  0  0  0  0  0  0  0  0
  -23.7304  -31.0152   29.7752 C   0  0  0  0  0  0  0  0  0  0  0  0
  -22.5190  -29.0981   28.1616 C   0  0  0  0  0  0  0  0  0  0  0  0
  -25.4488  -23.7776   24.2886 C   0  0  0  0  0  0  0  0  0  0  0  0
  -30.3848  -17.6889   19.9359 C   0  0  0  0  0  0  0  0  0  0  0  0
  -22.3393  -17.1151   22.2592 C   0  0  0  0  0  0  0  0  0  0  0  0
  -21.4704  -16.6148   20.0611 C   0  0  0  0  0  0  0  0  0  0  0  0
  -25.8038  -22.7141   23.4586 C   0  0  0  0  0  0  0  0  0  0  0  0
  -29.8712  -18.9764   19.7805 C   0  0  0  0  0  0  0  0  0  0  0  0
  -21.7885  -20.2973   21.2618 C   0  0  0  0  0  0  0  0  0  0  0  0
  -22.1790  -21.5293   21.7864 C   0  0  0  0  0  0  0  0  0  0  0  0
  -25.4868  -24.1134   21.5120 C   0  0  0  0  0  0  0  0  0  0  0  0
  -29.5682  -17.6375   22.2091 C   0  0  0  0  0  0  0  0  0  0  0  0
  -20.6681  -21.2165   23.6456 C   0  0  0  0  0  0  0  0  0  0  0  0
  -23.3818  -15.4044   20.9087 C   0  0  0  0  0  0  0  0  0  0  0  0
  -24.3148  -13.0362   21.0781 C   0  0  0  0  0  0  0  0  0  0  0  0
  -23.8479  -31.1164   28.3800 C   0  0  0  0  0  0  0  0  0  0  0  0
  -25.1260  -25.0190   23.7335 C   0  0  0  0  0  0  0  0  0  0  0  0
  -23.2271  -30.1533   27.5618 C   0  0  0  0  0  0  0  0  0  0  0  0
  -25.1426  -25.1859   22.3390 C   0  0  0  0  0  0  0  0  0  0  0  0
  -29.0546  -18.9250   22.0538 C   0  0  0  0  0  0  0  0  0  0  0  0
  -30.2332  -17.0194   21.1502 C   0  0  0  0  0  0  0  0  0  0  0  0
  -21.4125  -17.3518   21.2439 C   0  0  0  0  0  0  0  0  0  0  0  0
  -25.8225  -22.8815   22.0737 C   0  0  0  0  0  0  0  0  0  0  0  0
  -29.2061  -19.5945   20.8394 C   0  0  0  0  0  0  0  0  0  0  0  0
  -20.8376  -19.5249   21.9290 C   0  0  0  0  0  0  0  0  0  0  0  0
  -21.6189  -21.9889   22.9783 C   0  0  0  0  0  0  0  0  0  0  0  0
  -20.2775  -19.9845   23.1209 C   0  0  0  0  0  0  0  0  0  0  0  0
  -24.3990  -14.3989   20.7348 C   0  0  0  0  0  0  0  0  0  0  0  0
  -25.5323  -12.5147   20.7146 C   0  0  0  0  0  0  0  0  0  0  0  0
  -23.2327  -12.3070   21.6722 C   0  0  0  0  0  0  0  0  0  0  0  0
  -24.0996  -28.5771   24.3358 C   0  0  0  0  0  0  0  0  0  0  0  0
  -26.1730  -28.6183   22.0753 C   0  0  0  0  0  0  0  0  0  0  0  0
  -28.7878  -28.2736   19.9118 C   0  0  0  0  0  0  0  0  0  0  0  0
  -30.8650  -14.8017   20.2154 C   0  0  0  0  0  0  0  0  0  0  0  0
  -24.5824  -32.2978   27.7972 C   0  0  0  0  0  0  0  0  0  0  0  0
  -24.6782  -26.1751   24.5860 C   0  0  0  0  0  0  0  0  0  0  0  0
  -24.7543  -26.5294   21.7846 C   0  0  0  0  0  0  0  0  0  0  0  0
  -24.9584  -32.1172   26.3288 C   0  0  0  0  0  0  0  0  0  0  0  0
  -29.1067  -13.1418   17.6084 C   0  0  0  0  0  0  0  0  0  0  0  0
  -23.7703  -31.5829   25.5353 C   0  0  0  0  0  0  0  0  0  0  0  0
  -27.6778  -13.1542   18.1504 C   0  0  0  0  0  0  0  0  0  0  0  0
  -29.8444  -14.4469   17.9091 C   0  0  0  0  0  0  0  0  0  0  0  0
  -28.4043  -14.8399   19.8830 C   0  0  0  0  0  0  0  0  0  0  0  0
  -23.3348  -30.2069   26.0533 C   0  0  1  0  0  0  0  0  0  0  0  0
  -25.1437  -27.5392   24.0458 C   0  0  1  0  0  0  0  0  0  0  0  0
  -27.6574  -13.5181   19.6455 C   0  0  1  0  0  0  0  0  0  0  0  0
  -28.3455  -19.5715   23.1978 C   0  0  0  0  0  0  0  0  0  0  0  0
  -30.2975  -29.6100   18.4177 C   0  0  0  0  0  0  0  0  0  0  0  0
  -23.9169  -28.8843   20.0399 C   0  0  0  0  0  0  0  0  0  0  0  0
  -25.6474  -29.3252   18.2852 C   0  0  0  0  0  0  0  0  0  0  0  0
  -25.4053  -30.8864   20.2156 C   0  0  0  0  0  0  0  0  0  0  0  0
  -31.4260  -15.3442   22.5747 C   0  0  0  0  0  0  0  0  0  0  0  0
  -31.2001  -27.4423   21.4114 C   0  0  0  0  0  0  0  0  0  0  0  0
  -26.8038  -22.1622   20.0299 C   0  0  0  0  0  0  0  0  0  1  0  0
  -27.7398  -21.0339   19.6421 C   0  0  0  0  0  0  0  0  0  0  0  0
  -26.4240  -28.6027   20.5887 C   0  0  1  0  0  0  0  0  0  0  0  0
  -30.1098  -29.0119   19.8032 C   0  0  2  0  0  0  0  0  0  0  0  0
  -25.3492  -29.4008   19.7978 C   0  0  0  0  0  0  0  0  0  0  0  0
  -25.5770  -14.7228   20.1949 N   0  0  0  0  0  0  0  0  0  0  0  0
  -26.2442  -13.5562   20.1963 N   0  0  0  0  0  0  0  0  0  0  0  0
  -25.3617  -27.6000   22.5905 N   0  0  0  0  0  0  0  0  0  0  0  0
  -29.7632  -14.7737   19.3397 N   0  0  0  0  0  0  0  0  0  0  0  0
  -26.0527  -11.2714   20.7911 N   0  0  0  0  0  0  0  0  0  0  0  0
  -22.0528  -12.9969   21.9824 N   0  0  0  0  0  0  0  0  0  0  0  0
  -24.2327  -29.1786   25.5728 N   0  0  0  0  0  0  0  0  0  0  0  0
  -27.7871  -29.0870   20.3997 N   0  0  0  0  0  0  0  0  0  0  0  0
  -30.7650  -15.6864   21.3106 N   0  0  0  0  0  0  0  0  0  0  0  0
  -31.2447  -28.0844   20.0725 N   0  3  0  0  0  0  0  0  0  0  0  0
  -23.3158  -11.0835   21.9358 O   0  0  0  0  0  0  0  0  0  0  0  0
  -23.2370  -28.8167   23.4991 O   0  0  0  0  0  0  0  0  0  0  0  0
  -26.6766  -29.5111   22.7627 O   0  0  0  0  0  0  0  0  0  0  0  0
  -28.6553  -27.0943   19.5919 O   0  0  0  0  0  0  0  0  0  0  0  0
  -31.8507  -14.0736   20.0468 O   0  0  0  0  0  0  0  0  0  0  0  0
  -20.4515  -18.3017   21.4072 O   0  0  0  0  0  0  0  0  0  0  0  0
  -26.1744  -21.8403   21.2695 O   0  0  0  0  0  0  0  0  0  1  0  0
  -28.7078  -20.8593   20.6696 O   0  0  0  0  0  0  0  0  0  0  0  0
  -21.9952  -23.1713   23.4829 F   0  0  0  0  0  0  0  0  0  0  0  0
  -19.3645  -19.2464   23.7670 F   0  0  0  0  0  0  0  0  0  0  0  0
  1  2  1  0  0  0  0
  1  5  2  0  0  0  0
  2  6  2  0  0  0  0
  3  9  2  0  0  0  0
  3 18  1  0  0  0  0
  4 10  1  0  0  0  0
  4 18  2  0  0  0  0
  5 20  1  0  0  0  0
  6 22  1  0  0  0  0
  7 11  2  0  0  0  0
  7 21  1  0  0  0  0
  8 12  2  0  0  0  0
  8 25  1  0  0  0  0
  9 26  1  0  0  0  0
 10 26  2  0  0  0  0
 11 27  1  0  0  0  0
 12 28  1  0  0  0  0
 13 14  2  0  0  0  0
 13 29  1  0  0  0  0
 14 30  1  0  0  0  0
 15 23  1  0  0  0  0
 15 27  2  0  0  0  0
 16 24  1  0  0  0  0
 16 25  2  0  0  0  0
 17 30  2  0  0  0  0
 17 31  1  0  0  0  0
 18 32  1  0  0  0  0
 19 32  1  0  0  0  0
 19 33  2  0  0  0  0
 19 34  1  0  0  0  0
 20 22  2  0  0  0  0
 20 39  1  0  0  0  0
 21 23  2  0  0  0  0
 21 40  1  0  0  0  0
 22 48  1  0  0  0  0
 23 41  1  0  0  0  0
 24 28  2  0  0  0  0
 24 51  1  0  0  0  0
 25 71  1  0  0  0  0
 26 78  1  0  0  0  0
 27 79  1  0  0  0  0
 28 80  1  0  0  0  0
 29 31  2  0  0  0  0
 29 78  1  0  0  0  0
 30 81  1  0  0  0  0
 31 82  1  0  0  0  0
 32 63  2  0  0  0  0
 33 64  1  0  0  0  0
 33 67  1  0  0  0  0
 34 68  1  0  0  0  0
 34 73  2  0  0  0  0
 35 49  1  0  0  0  0
 35 69  1  0  0  0  0
 35 74  2  0  0  0  0
 36 60  1  0  0  0  0
 36 65  1  0  0  0  0
 36 75  2  0  0  0  0
 37 61  1  0  0  0  0
 37 70  1  0  0  0  0
 37 76  2  0  0  0  0
 38 66  1  0  0  0  0
 38 71  1  0  0  0  0
 38 77  2  0  0  0  0
 39 42  1  0  0  0  0
 40 49  1  0  0  0  0
 41 65  1  0  0  0  0
 42 44  1  0  0  0  0
 43 45  1  0  0  0  0
 43 46  1  0  0  0  0
 44 48  1  0  0  0  0
 45 50  1  0  0  0  0
 46 66  1  0  0  0  0
 47 50  1  0  0  0  0
 47 66  1  0  0  0  0
 48 69  1  0  0  0  0
 49 65  1  0  0  0  0
 50 64  1  0  0  0  0
 52 61  1  0  0  0  0
 53 62  1  0  0  0  0
 54 62  1  0  0  0  0
 55 62  1  0  0  0  0
 56 71  1  0  0  0  0
 57 72  1  0  0  0  0
 58 59  1  0  0  0  0
 58 79  1  0  0  0  0
 59 80  1  0  0  0  0
 60 62  1  0  0  0  0
 60 70  1  0  0  0  0
 61 72  1  0  0  0  0
 63 64  1  0  0  0  0
M  CHG  1  72   1
M  ISO  4  38 100  58 101  71 100  79 101
M  END
> <Batch ID>
0007

> <Smiles>
CNC(C)C(=O)NC(C(=O)N1Cc2cc([101O:1][101CH2:1]COc3ccc([100N:0](C)[100C:0](=O)N4CCCC(n5nc(-c6ccc(Oc7ccc(F)cc7F)cc6)c(C(N)=O)c5N)C4)cc3C)ccc2CC1C(=O)NC1CCCc2ccccc21)C(C)(C)C

> <Shape>
0.215

> <Color>
0.116

> <Negative vol penalty>
0.000

$$$$

  -OEChem-04052315333D

 94102  0     1  0  0  0  0  0999 V2000
  -32.5199  -24.6486   17.1955 C   0  0  0  0  0  0  0  0  0  0  0  0
  -31.3161  -25.0116   16.6001 C   0  0  0  0  0  0  0  0  0  0  0  0
  -26.7184  -15.4976   21.7924 C   0  0  0  0  0  0  0  0  0  0  0  0
  -26.2911  -15.4433   19.4151 C   0  0  0  0  0  0  0  0  0  0  0  0
  -32.5752  -24.4185   18.5696 C   0  0  0  0  0  0  0  0  0  0  0  0
  -30.1666  -25.1438   17.3783 C   0  0  0  0  0  0  0  0  0  0  0  0
  -24.1173  -28.9577   17.7987 C   0  0  0  0  0  0  0  0  0  0  0  0
  -26.2218  -14.1996   21.9114 C   0  0  0  0  0  0  0  0  0  0  0  0
  -25.7944  -14.1452   19.5341 C   0  0  0  0  0  0  0  0  0  0  0  0
  -22.7383  -28.7817   17.9042 C   0  0  0  0  0  0  0  0  0  0  0  0
  -24.0808  -10.9512   19.2671 C   0  0  0  0  0  0  0  0  0  0  0  0
  -22.8952  -10.6468   18.5983 C   0  0  0  0  0  0  0  0  0  0  0  0
  -22.9702  -28.4366   20.2804 C   0  0  0  0  0  0  0  0  0  0  0  0
  -21.7428  -12.3504   19.8658 C   0  0  0  0  0  0  0  0  0  0  0  0
  -26.7530  -16.1195   20.5443 C   0  0  0  0  0  0  0  0  0  0  0  0
  -28.5975  -17.8420   20.1724 C   0  0  0  0  0  0  0  0  0  0  0  0
  -31.4279  -24.5573   19.3665 C   0  0  0  0  0  0  0  0  0  0  0  0
  -24.9358  -28.8634   18.9334 C   0  0  0  0  0  0  0  0  0  0  0  0
  -30.2063  -24.9141   18.7641 C   0  0  0  0  0  0  0  0  0  0  0  0
  -24.3591  -28.6142   20.1870 C   0  0  0  0  0  0  0  0  0  0  0  0
  -25.7598  -13.5234   20.7822 C   0  0  0  0  0  0  0  0  0  0  0  0
  -22.1649  -28.5183   19.1447 C   0  0  0  0  0  0  0  0  0  0  0  0
  -24.0974  -11.9552   20.2353 C   0  0  0  0  0  0  0  0  0  0  0  0
  -21.7262  -11.3464   18.8976 C   0  0  0  0  0  0  0  0  0  0  0  0
  -22.9284  -12.6548   20.5346 C   0  0  0  0  0  0  0  0  0  0  0  0
  -27.2654  -17.4605   20.4208 C   0  0  0  0  0  0  0  0  0  0  0  0
  -28.5623  -19.2148   20.1465 C   0  0  0  0  0  0  0  0  0  0  0  0
  -20.3090  -22.6003   20.6875 C   0  0  0  0  0  0  0  0  0  0  0  0
  -20.2521  -21.5079   19.9281 C   0  0  0  0  0  0  0  0  0  0  0  0
  -19.3363  -23.6775   20.3677 C   0  0  0  0  0  0  0  0  0  0  0  0
  -18.4310  -22.4110   18.6153 C   0  0  0  0  0  0  0  0  0  0  0  0
  -29.7625  -17.0283   19.9820 C   0  0  0  0  0  0  0  0  0  0  0  0
  -27.3195  -26.9604   19.8279 C   0  0  0  0  0  0  0  0  0  0  0  0
  -27.4991  -29.0120   22.3341 C   0  0  0  0  0  0  0  0  0  0  0  0
  -21.6768  -19.8424   14.3103 C   0  0  0  0  0  0  0  0  0  0  0  0
  -25.9325  -31.3004   24.3230 C   0  0  0  0  0  0  0  0  0  0  0  0
  -25.1380  -23.5668   18.4588 C   0  0  0  0  0  0  0  0  0  0  0  0
  -31.5264  -24.2521   20.8402 C   0  0  0  0  0  0  0  0  0  0  0  0
  -26.4185  -29.0822   18.8070 C   0  0  0  0  0  0  0  0  0  0  0  0
  -25.1915  -28.5233   21.4389 C   0  0  0  0  0  0  0  0  0  0  0  0
  -30.3454  -24.7786   21.6515 C   0  0  0  0  0  0  0  0  0  0  0  0
  -25.4652  -22.6542   21.8847 C   0  0  0  0  0  0  0  0  0  0  0  0
  -29.0287  -24.4356   20.9618 C   0  0  0  0  0  0  0  0  0  0  0  0
  -26.0866  -21.2573   21.8334 C   0  0  0  0  0  0  0  0  0  0  0  0
  -24.4753  -22.8738   20.7429 C   0  0  0  0  0  0  0  0  0  0  0  0
  -25.6348  -21.2080   19.3449 C   0  0  0  0  0  0  0  0  0  0  0  0
  -28.9433  -25.0917   19.5785 C   0  0  1  0  0  0  0  0  0  0  0  0
  -27.2145  -28.4545   19.9471 C   0  0  1  0  0  0  0  0  0  0  0  0
  -26.6818  -20.9591   20.4441 C   0  0  2  0  0  0  0  0  0  0  0  0
  -26.3259  -32.7784   26.3125 C   0  0  0  0  0  0  0  0  0  0  0  0
  -27.2983  -26.5857   24.1734 C   0  0  0  0  0  0  0  0  0  0  0  0
  -26.7430  -28.1437   26.0529 C   0  0  0  0  0  0  0  0  0  0  0  0
  -28.9507  -28.3149   24.9042 C   0  0  0  0  0  0  0  0  0  0  0  0
  -25.3861  -33.7510   22.7562 C   0  0  0  0  0  0  0  0  0  0  0  0
  -21.7173  -18.7358   15.3512 C   0  0  0  0  0  0  0  0  0  0  0  0
  -20.5560  -18.7809   16.3440 C   0  0  0  0  0  0  0  0  0  0  0  0
  -24.5337  -22.6445   14.5755 C   0  0  0  0  0  0  0  0  0  0  0  0
  -20.5252  -20.0889   17.1445 C   0  0  0  0  0  0  0  0  0  0  0  0
  -23.3717  -22.6132   13.5776 C   0  0  0  0  0  0  0  0  0  0  0  0
  -24.6906  -24.0351   15.1987 C   0  0  0  0  0  0  0  0  0  0  0  0
  -19.0372  -26.8525   19.8458 C   0  0  0  0  0  0  0  0  0  0  0  0
  -19.3593  -20.1455   18.1269 C   0  0  0  0  0  0  0  0  0  0  0  0
  -23.1965  -21.2442   12.9279 C   0  0  0  0  0  0  0  0  0  0  0  0
  -25.8769  -24.1168   16.1543 C   0  0  0  0  0  0  0  0  0  0  0  0
  -18.4619  -25.8913   20.8790 C   0  0  0  0  0  0  0  0  0  0  0  0
  -20.3548  -27.4799   20.2855 C   0  0  0  0  0  0  0  0  0  1  0  0
  -26.8649  -29.0869   23.7020 C   0  0  1  0  0  0  0  0  0  0  0  0
  -26.3533  -32.6804   24.7951 C   0  0  2  0  0  0  0  0  0  0  0  0
  -27.4485  -28.0325   24.6844 C   0  0  0  0  0  0  0  0  0  0  0  0
  -26.4439  -18.5064   20.5441 N   0  0  0  0  0  0  0  0  0  0  0  0
  -18.4735  -23.5555   19.3932 N   0  0  0  0  0  0  0  0  0  0  0  0
  -27.2620  -19.5587   20.3726 N   0  0  0  0  0  0  0  0  0  0  0  0
  -19.3435  -21.3807   18.9029 N   0  0  0  0  0  0  0  0  0  0  0  0
  -26.6372  -28.7384   21.2626 N   0  0  0  0  0  0  0  0  0  0  0  0
  -25.1025  -22.5753   19.4531 N   0  0  0  0  0  0  0  0  0  0  0  0
  -29.5171  -20.1493   19.9528 N   0  0  0  0  0  0  0  0  0  0  0  0
  -29.6212  -15.6351   20.0400 N   0  0  0  0  0  0  0  0  0  0  0  0
  -19.3609  -24.7852   21.1037 N   0  0  0  0  0  0  0  0  0  0  0  0
  -28.6149  -26.4955   19.7044 N   0  0  0  0  0  0  0  0  0  0  0  0
  -22.9515  -20.1986   13.8943 N   0  0  0  0  0  0  0  0  0  0  0  0
  -27.0174  -30.4677   24.1476 N   0  0  0  0  0  0  0  0  0  0  0  0
  -25.7565  -23.2035   17.2688 N   0  0  0  0  0  0  0  0  0  0  0  0
  -25.4393  -33.7186   24.2405 N   0  3  0  0  0  0  0  0  0  0  0  0
  -17.6112  -22.3136   17.7004 O   0  0  0  0  0  0  0  0  0  0  0  0
  -30.8982  -17.5224   19.7832 O   0  0  0  0  0  0  0  0  0  0  0  0
  -26.3008  -26.2796   19.8481 O   0  0  0  0  0  0  0  0  0  0  0  0
  -28.7134  -29.1968   22.2196 O   0  0  0  0  0  0  0  0  0  0  0  0
  -20.6350  -20.3599   13.9168 O   0  0  0  0  0  0  0  0  0  0  0  0
  -24.7584  -30.9908   24.1328 O   0  0  0  0  0  0  0  0  0  0  0  0
  -24.6591  -24.6943   18.6216 O   0  0  0  0  0  0  0  0  0  0  0  0
  -25.2754  -12.2567   20.8979 O   0  0  0  0  0  0  0  0  0  0  0  0
  -20.8192  -28.3455   19.2504 O   0  0  0  0  0  0  0  0  0  1  0  0
  -20.5881  -11.0551   18.2541 F   0  0  0  0  0  0  0  0  0  0  0  0
  -22.9384  -13.6212   21.4630 F   0  0  0  0  0  0  0  0  0  0  0  0
  1  2  1  0  0  0  0
  1  5  2  0  0  0  0
  2  6  2  0  0  0  0
  3  8  2  0  0  0  0
  3 15  1  0  0  0  0
  4  9  1  0  0  0  0
  4 15  2  0  0  0  0
  5 17  1  0  0  0  0
  6 19  1  0  0  0  0
  7 10  2  0  0  0  0
  7 18  1  0  0  0  0
  8 21  1  0  0  0  0
  9 21  2  0  0  0  0
 10 22  1  0  0  0  0
 11 12  2  0  0  0  0
 11 23  1  0  0  0  0
 12 24  1  0  0  0  0
 13 20  1  0  0  0  0
 13 22  2  0  0  0  0
 14 24  2  0  0  0  0
 14 25  1  0  0  0  0
 15 26  1  0  0  0  0
 16 26  1  0  0  0  0
 16 27  2  0  0  0  0
 16 32  1  0  0  0  0
 17 19  2  0  0  0  0
 17 38  1  0  0  0  0
 18 20  2  0  0  0  0
 18 39  1  0  0  0  0
 19 47  1  0  0  0  0
 20 40  1  0  0  0  0
 21 91  1  0  0  0  0
 22 92  1  0  0  0  0
 23 25  2  0  0  0  0
 23 91  1  0  0  0  0
 24 93  1  0  0  0  0
 25 94  1  0  0  0  0
 26 70  2  0  0  0  0
 27 72  1  0  0  0  0
 27 76  1  0  0  0  0
 28 29  2  0  0  0  0
 28 30  1  0  0  0  0
 29 73  1  0  0  0  0
 30 71  2  0  0  0  0
 30 78  1  0  0  0  0
 31 71  1  0  0  0  0
 31 73  1  0  0  0  0
 31 84  2  0  0  0  0
 32 77  1  0  0  0  0
 32 85  2  0  0  0  0
 33 48  1  0  0  0  0
 33 79  1  0  0  0  0
 33 86  2  0  0  0  0
 34 67  1  0  0  0  0
 34 74  1  0  0  0  0
 34 87  2  0  0  0  0
 35 55  1  0  0  0  0
 35 80  1  0  0  0  0
 35 88  2  0  0  0  0
 36 68  1  0  0  0  0
 36 81  1  0  0  0  0
 36 89  2  0  0  0  0
 37 75  1  0  0  0  0
 37 82  1  0  0  0  0
 37 90  2  0  0  0  0
 38 41  1  0  0  0  0
 39 48  1  0  0  0  0
 40 74  1  0  0  0  0
 41 43  1  0  0  0  0
 42 44  1  0  0  0  0
 42 45  1  0  0  0  0
 43 47  1  0  0  0  0
 44 49  1  0  0  0  0
 45 75  1  0  0  0  0
 46 49  1  0  0  0  0
 46 75  1  0  0  0  0
 47 79  1  0  0  0  0
 48 74  1  0  0  0  0
 49 72  1  0  0  0  0
 50 68  1  0  0  0  0
 51 69  1  0  0  0  0
 52 69  1  0  0  0  0
 53 69  1  0  0  0  0
 54 83  1  0  0  0  0
 55 56  1  0  0  0  0
 56 58  1  0  0  0  0
 57 59  1  0  0  0  0
 57 60  1  0  0  0  0
 58 62  1  0  0  0  0
 59 63  1  0  0  0  0
 60 64  1  0  0  0  0
 61 65  1  0  0  0  0
 61 66  1  0  0  0  0
 62 73  1  0  0  0  0
 63 80  1  0  0  0  0
 64 82  1  0  0  0  0
 65 78  1  0  0  0  0
 66 92  1  0  0  0  0
 67 69  1  0  0  0  0
 67 81  1  0  0  0  0
 68 83  1  0  0  0  0
 70 72  1  0  0  0  0
M  CHG  1  83   1
M  ISO  4  37 100  66 101  82 100  92 101
M  END
> <Batch ID>
0007

> <Smiles>
CNC(C)C(=O)NC(C(=O)N1Cc2cc([101O:1][101CH2:1]CCNc3ccn(CCCCC(=O)NCCCCC[100NH:0][100C:0](=O)N4CCCC(n5nc(-c6ccc(Oc7ccc(F)cc7F)cc6)c(C(N)=O)c5N)C4)c(=O)n3)ccc2CC1C(=O)NC1CCCc2ccccc21)C(C)(C)C

> <Shape>
0.227

> <Color>
0.068

> <Negative vol penalty>
0.000

$$$$

  -OEChem-04052315333D

 87 95  0     1  0  0  0  0  0999 V2000
  -29.0313  -34.1681   26.2271 C   0  0  0  0  0  0  0  0  0  0  0  0
  -29.6357  -32.9230   26.3677 C   0  0  0  0  0  0  0  0  0  0  0  0
  -23.0769   -9.8659   19.9443 C   0  0  0  0  0  0  0  0  0  0  0  0
  -23.8296   -9.8836   22.2400 C   0  0  0  0  0  0  0  0  0  0  0  0
  -27.7446  -34.2613   25.6982 C   0  0  0  0  0  0  0  0  0  0  0  0
  -28.9534  -31.7702   25.9804 C   0  0  0  0  0  0  0  0  0  0  0  0
  -31.3739  -26.7097   23.5232 C   0  0  0  0  0  0  0  0  0  0  0  0
  -32.6646  -17.4830   23.4333 C   0  0  0  0  0  0  0  0  0  0  0  0
  -32.0644  -16.5991   22.5366 C   0  0  0  0  0  0  0  0  0  0  0  0
  -22.3310   -8.7148   20.1977 C   0  0  0  0  0  0  0  0  0  0  0  0
  -23.0836   -8.7325   22.4934 C   0  0  0  0  0  0  0  0  0  0  0  0
  -31.7348  -25.4803   24.0728 C   0  0  0  0  0  0  0  0  0  0  0  0
  -19.8527   -7.9412   23.0897 C   0  0  0  0  0  0  0  0  0  0  0  0
  -19.0920   -7.9079   24.2584 C   0  0  0  0  0  0  0  0  0  0  0  0
  -29.6043  -24.5645   23.4086 C   0  0  0  0  0  0  0  0  0  0  0  0
  -30.4915  -18.3558   24.0275 C   0  0  0  0  0  0  0  0  0  0  0  0
  -20.3290   -5.9728   25.0085 C   0  0  0  0  0  0  0  0  0  0  0  0
  -23.8262  -10.4503   20.9655 C   0  0  0  0  0  0  0  0  0  0  0  0
  -24.1712  -12.9744   20.8339 C   0  0  0  0  0  0  0  0  0  0  0  0
  -27.0499  -33.1100   25.2952 C   0  0  0  0  0  0  0  0  0  0  0  0
  -30.1189  -26.8790   22.9207 C   0  0  0  0  0  0  0  0  0  0  0  0
  -27.6557  -31.8480   25.4468 C   0  0  0  0  0  0  0  0  0  0  0  0
  -29.2308  -25.7963   22.8498 C   0  0  0  0  0  0  0  0  0  0  0  0
  -31.8782  -18.3614   24.1788 C   0  0  0  0  0  0  0  0  0  0  0  0
  -30.6778  -16.5936   22.3853 C   0  0  0  0  0  0  0  0  0  0  0  0
  -22.3343   -8.1481   21.4722 C   0  0  0  0  0  0  0  0  0  0  0  0
  -30.8489  -24.4083   24.0182 C   0  0  0  0  0  0  0  0  0  0  0  0
  -20.8515   -6.9902   22.8803 C   0  0  0  0  0  0  0  0  0  0  0  0
  -29.8913  -17.4719   23.1308 C   0  0  0  0  0  0  0  0  0  0  0  0
  -19.3302   -6.9238   25.2178 C   0  0  0  0  0  0  0  0  0  0  0  0
  -21.0896   -6.0061   23.8397 C   0  0  0  0  0  0  0  0  0  0  0  0
  -24.5974  -11.6390   20.7042 C   0  0  0  0  0  0  0  0  0  0  0  0
  -25.2653  -13.7209   20.4703 C   0  0  0  0  0  0  0  0  0  0  0  0
  -22.9000  -13.4937   21.2462 C   0  0  0  0  0  0  0  0  0  0  0  0
  -27.5871  -28.7148   23.4896 C   0  0  0  0  0  0  0  0  0  0  0  0
  -26.5223  -27.4369   20.7047 C   0  0  0  0  0  0  0  0  0  0  0  0
  -26.6488  -24.8696   18.4598 C   0  0  0  0  0  0  0  0  0  0  0  0
  -30.7320  -14.7615   20.6570 C   0  0  0  0  0  0  0  0  0  0  0  0
  -25.6427  -33.2568   24.7729 C   0  0  0  0  0  0  0  0  0  0  0  0
  -29.7552  -28.2040   22.3088 C   0  0  0  0  0  0  0  0  0  0  0  0
  -27.8796  -25.9206   22.1960 C   0  0  0  0  0  0  0  0  0  0  0  0
  -25.1333  -32.0192   24.0386 C   0  0  0  0  0  0  0  0  0  0  0  0
  -29.6225  -12.3370   18.2974 C   0  0  0  0  0  0  0  0  0  0  0  0
  -25.4450  -30.7580   24.8381 C   0  0  0  0  0  0  0  0  0  0  0  0
  -28.1812  -12.0492   18.7239 C   0  0  0  0  0  0  0  0  0  0  0  0
  -30.5340  -12.5709   19.5008 C   0  0  0  0  0  0  0  0  0  0  0  0
  -28.6235  -13.3043   20.8723 C   0  0  0  0  0  0  0  0  0  0  0  0
  -26.9574  -30.5768   25.0151 C   0  0  1  0  0  0  0  0  0  0  0  0
  -28.2491  -28.4076   22.1762 C   0  0  1  0  0  0  0  0  0  0  0  0
  -27.6542  -13.1262   19.6923 C   0  0  2  0  0  0  0  0  0  0  0  0
  -35.5973  -22.2981   28.2757 C   0  0  0  0  0  0  0  0  0  0  0  0
  -25.6352  -24.0888   16.3009 C   0  0  0  0  0  0  0  0  0  0  0  0
  -23.9844  -26.6264   22.1922 C   0  0  0  0  0  0  0  0  0  0  0  0
  -23.4597  -25.0672   20.3049 C   0  0  0  0  0  0  0  0  0  0  0  0
  -23.6025  -27.5226   19.8889 C   0  0  0  0  0  0  0  0  0  0  0  0
  -29.2695  -24.8968   17.0851 C   0  0  0  0  0  0  0  0  0  0  0  0
  -33.6172  -20.9201   23.5876 C   0  0  0  0  0  0  0  0  0  0  0  0
  -27.7931  -16.6188   23.8556 C   0  0  0  0  0  0  0  0  0  0  0  0
  -32.5241  -19.3120   25.1431 C   0  0  0  0  0  0  0  0  0  0  0  0
  -34.2326  -22.4967   27.6333 C   0  0  0  0  0  0  0  0  0  0  0  0
  -34.0462  -21.5764   26.4235 C   0  0  0  0  0  0  0  0  0  0  0  0
  -32.4885  -23.1164   25.1577 C   0  0  0  0  0  0  0  0  0  1  0  0
  -25.7212  -26.2144   20.3267 C   0  0  1  0  0  0  0  0  0  0  0  0
  -26.7759  -24.8596   16.9471 C   0  0  2  0  0  0  0  0  0  0  0  0
  -32.6774  -21.7222   25.7498 C   0  0  1  0  0  0  0  0  0  0  0  0
  -24.2166  -26.3555   20.6923 C   0  0  0  0  0  0  0  0  0  0  0  0
  -25.8635  -11.5397   20.2904 N   0  0  0  0  0  0  0  0  0  0  0  0
  -26.2422  -12.8222   20.1568 N   0  0  0  0  0  0  0  0  0  0  0  0
  -27.5676  -27.2381   21.6177 N   0  0  0  0  0  0  0  0  0  0  0  0
  -29.9734  -13.6067   20.3712 N   0  0  0  0  0  0  0  0  0  0  0  0
  -25.4774  -15.0518   20.3913 N   0  0  0  0  0  0  0  0  0  0  0  0
  -21.8860  -12.5873   21.5848 N   0  0  0  0  0  0  0  0  0  0  0  0
  -30.0831  -15.6913   21.4688 N   0  0  0  0  0  0  0  0  0  0  0  0
  -27.5502  -30.0608   23.7999 N   0  0  0  0  0  0  0  0  0  0  0  0
  -25.9724  -25.9844   18.9081 N   0  0  0  0  0  0  0  0  0  0  0  0
  -28.0616  -24.2258   16.5395 N   0  3  0  0  0  0  0  0  0  0  0  0
  -32.5576  -20.7306   24.6401 N   0  3  1  0  0  0  0  0  0  0  0  0
  -22.6649  -14.7248   21.2966 O   0  0  0  0  0  0  0  0  0  0  0  0
  -27.1413  -27.7985   24.1704 O   0  0  0  0  0  0  0  0  0  0  0  0
  -26.2358  -28.5267   20.2028 O   0  0  0  0  0  0  0  0  0  0  0  0
  -27.1007  -23.9758   19.1721 O   0  0  0  0  0  0  0  0  0  0  0  0
  -31.8628  -14.9267   20.1922 O   0  0  0  0  0  0  0  0  0  0  0  0
  -21.6064   -7.0250   21.7199 O   0  0  0  0  0  0  0  0  0  0  0  0
  -28.5348  -17.4829   22.9975 O   0  0  0  0  0  0  0  0  0  0  0  0
  -31.1984  -23.2075   24.5545 O   0  0  0  0  0  0  0  0  0  1  0  0
  -18.6006   -6.8929   26.3408 F   0  0  0  0  0  0  0  0  0  0  0  0
  -22.0486   -5.0906   23.6447 F   0  0  0  0  0  0  0  0  0  0  0  0
  1  2  1  0  0  0  0
  1  5  2  0  0  0  0
  2  6  2  0  0  0  0
  3 10  2  0  0  0  0
  3 18  1  0  0  0  0
  4 11  1  0  0  0  0
  4 18  2  0  0  0  0
  5 20  1  0  0  0  0
  6 22  1  0  0  0  0
  7 12  2  0  0  0  0
  7 21  1  0  0  0  0
  8  9  2  0  0  0  0
  8 24  1  0  0  0  0
  9 25  1  0  0  0  0
 10 26  1  0  0  0  0
 11 26  2  0  0  0  0
 12 27  1  0  0  0  0
 13 14  2  0  0  0  0
 13 28  1  0  0  0  0
 14 30  1  0  0  0  0
 15 23  1  0  0  0  0
 15 27  2  0  0  0  0
 16 24  2  0  0  0  0
 16 29  1  0  0  0  0
 17 30  2  0  0  0  0
 17 31  1  0  0  0  0
 18 32  1  0  0  0  0
 19 32  1  0  0  0  0
 19 33  2  0  0  0  0
 19 34  1  0  0  0  0
 20 22  2  0  0  0  0
 20 39  1  0  0  0  0
 21 23  2  0  0  0  0
 21 40  1  0  0  0  0
 22 48  1  0  0  0  0
 23 41  1  0  0  0  0
 24 59  1  0  0  0  0
 25 29  2  0  0  0  0
 25 73  1  0  0  0  0
 26 83  1  0  0  0  0
 27 85  1  0  0  0  0
 28 31  2  0  0  0  0
 28 83  1  0  0  0  0
 29 84  1  0  0  0  0
 30 86  1  0  0  0  0
 31 87  1  0  0  0  0
 32 67  2  0  0  0  0
 33 68  1  0  0  0  0
 33 71  1  0  0  0  0
 34 72  1  0  0  0  0
 34 78  2  0  0  0  0
 35 49  1  0  0  0  0
 35 74  1  0  0  0  0
 35 79  2  0  0  0  0
 36 63  1  0  0  0  0
 36 69  1  0  0  0  0
 36 80  2  0  0  0  0
 37 64  1  0  0  0  0
 37 75  1  0  0  0  0
 37 81  2  0  0  0  0
 38 70  1  0  0  0  0
 38 73  1  0  0  0  0
 38 82  2  0  0  0  0
 39 42  1  0  0  0  0
 40 49  1  0  0  0  0
 41 69  1  0  0  0  0
 42 44  1  0  0  0  0
 43 45  1  0  0  0  0
 43 46  1  0  0  0  0
 44 48  1  0  0  0  0
 45 50  1  0  0  0  0
 46 70  1  0  0  0  0
 47 50  1  0  0  0  0
 47 70  1  0  0  0  0
 48 74  1  0  0  0  0
 49 69  1  0  0  0  0
 50 68  1  0  0  0  0
 51 60  1  0  0  0  0
 52 64  1  0  0  0  0
 53 66  1  0  0  0  0
 54 66  1  0  0  0  0
 55 66  1  0  0  0  0
 56 76  1  0  0  0  0
 57 77  1  0  0  0  0
 58 84  1  0  0  0  0
 59 77  1  0  0  0  0
 60 61  1  0  0  0  0
 61 65  1  0  0  0  0
 62 65  1  0  0  0  0
 62 85  1  0  0  0  0
 63 66  1  0  0  0  0
 63 75  1  0  0  0  0
 64 76  1  0  0  0  0
 65 77  1  0  0  0  0
 67 68  1  0  0  0  0
M  CHG  2  76   1  77   1
M  ISO  4  38 100  62 101  73 100  85 101
M  END
> <Batch ID>
0007

> <Smiles>
CCCC(N(C)Cc1ccc([100NH:0][100C:0](=O)N2CCCC(n3nc(-c4ccc(Oc5ccc(F)cc5F)cc4)c(C(N)=O)c3N)C2)c(OC)c1)[101CH2:1][101O:1]c1ccc2c(c1)CN(C(=O)C(NC(=O)C(C)NC)C(C)(C)C)C(C(=O)NC1CCCc3ccccc31)C2

> <Shape>
0.283

> <Color>
0.184

> <Negative vol penalty>
0.000

$$$$

  -OEChem-04052315333D

 82 90  0     1  0  0  0  0  0999 V2000
  -25.3082  -37.8061   19.9633 C   0  0  0  0  0  0  0  0  0  0  0  0
  -25.9834  -36.6510   19.5822 C   0  0  0  0  0  0  0  0  0  0  0  0
  -29.5687  -19.2604   14.2743 C   0  0  0  0  0  0  0  0  0  0  0  0
  -26.1712  -11.6636   21.1217 C   0  0  0  0  0  0  0  0  0  0  0  0
  -25.9568  -12.1478   18.7645 C   0  0  0  0  0  0  0  0  0  0  0  0
  -24.6906  -37.8714   21.2116 C   0  0  0  0  0  0  0  0  0  0  0  0
  -26.0423  -35.5608   20.4498 C   0  0  0  0  0  0  0  0  0  0  0  0
  -26.0211  -29.6314   18.9177 C   0  0  0  0  0  0  0  0  0  0  0  0
  -29.8724  -18.3902   15.3212 C   0  0  0  0  0  0  0  0  0  0  0  0
  -29.6734  -20.6389   14.4604 C   0  0  0  0  0  0  0  0  0  0  0  0
  -24.8263  -11.2967   21.1687 C   0  0  0  0  0  0  0  0  0  0  0  0
  -24.6119  -11.7808   18.8114 C   0  0  0  0  0  0  0  0  0  0  0  0
  -27.0447  -28.6955   18.7764 C   0  0  0  0  0  0  0  0  0  0  0  0
  -22.9451   -8.6152   20.3299 C   0  0  0  0  0  0  0  0  0  0  0  0
  -22.6161   -7.4444   21.0129 C   0  0  0  0  0  0  0  0  0  0  0  0
  -26.6458  -27.9280   21.0283 C   0  0  0  0  0  0  0  0  0  0  0  0
  -30.3853  -20.2769   16.7406 C   0  0  0  0  0  0  0  0  0  0  0  0
  -21.2114   -8.7143   22.5132 C   0  0  0  0  0  0  0  0  0  0  0  0
  -26.7365  -12.0892   19.9196 C   0  0  0  0  0  0  0  0  0  0  0  0
  -29.2259  -11.6340   19.5987 C   0  0  0  0  0  0  0  0  0  0  0  0
  -24.7337  -36.7780   22.0910 C   0  0  0  0  0  0  0  0  0  0  0  0
  -25.3082  -29.7302   20.1213 C   0  0  0  0  0  0  0  0  0  0  0  0
  -25.4259  -35.6121   21.7115 C   0  0  0  0  0  0  0  0  0  0  0  0
  -25.6119  -28.8643   21.1815 C   0  0  0  0  0  0  0  0  0  0  0  0
  -30.2807  -18.8984   16.5544 C   0  0  0  0  0  0  0  0  0  0  0  0
  -24.0466  -11.3553   20.0136 C   0  0  0  0  0  0  0  0  0  0  0  0
  -27.3591  -27.8455   19.8327 C   0  0  0  0  0  0  0  0  0  0  0  0
  -30.0817  -21.1471   15.6936 C   0  0  0  0  0  0  0  0  0  0  0  0
  -22.4073   -9.8356   20.7386 C   0  0  0  0  0  0  0  0  0  0  0  0
  -21.7493   -7.4939   22.1045 C   0  0  0  0  0  0  0  0  0  0  0  0
  -21.5405   -9.8852   21.8303 C   0  0  0  0  0  0  0  0  0  0  0  0
  -28.1255  -12.4689   19.8705 C   0  0  0  0  0  0  0  0  0  0  0  0
  -30.3152  -12.4676   19.6700 C   0  0  0  0  0  0  0  0  0  0  0  0
  -29.2604  -10.2305   19.3078 C   0  0  0  0  0  0  0  0  0  0  0  0
  -24.8963  -32.0036   22.3043 C   0  0  0  0  0  0  0  0  0  0  0  0
  -22.7894  -29.8779   23.5552 C   0  0  0  0  0  0  0  0  0  0  0  0
  -21.7843  -26.6306   23.8569 C   0  0  0  0  0  0  0  0  0  0  0  0
  -31.0089  -18.3529   18.9035 C   0  0  0  0  0  0  0  0  0  0  0  0
  -24.0915  -36.9128   23.4489 C   0  0  0  0  0  0  0  0  0  0  0  0
  -24.1890  -30.7270   20.2486 C   0  0  0  0  0  0  0  0  0  0  0  0
  -24.8630  -28.9163   22.4872 C   0  0  0  0  0  0  0  0  0  0  0  0
  -23.8811  -35.5776   24.1584 C   0  0  0  0  0  0  0  0  0  0  0  0
  -31.8318  -16.4728   21.8130 C   0  0  0  0  0  0  0  0  0  0  0  0
  -25.1417  -34.7230   24.0726 C   0  0  0  0  0  0  0  0  0  0  0  0
  -31.0798  -15.1544   21.6174 C   0  0  0  0  0  0  0  0  0  0  0  0
  -31.0316  -17.6650   21.2913 C   0  0  0  0  0  0  0  0  0  0  0  0
  -29.8138  -16.2223   19.7086 C   0  0  0  0  0  0  0  0  0  0  0  0
  -25.4908  -34.3997   22.6148 C   0  0  1  0  0  0  0  0  0  0  0  0
  -23.8719  -31.0877   21.6966 C   0  0  1  0  0  0  0  0  0  0  0  0
  -30.6079  -14.9856   20.1599 C   0  0  2  0  0  0  0  0  0  0  0  0
  -20.0522  -25.2004   24.9759 C   0  0  0  0  0  0  0  0  0  0  0  0
  -24.2801  -30.1490   26.2036 C   0  0  0  0  0  0  0  0  0  0  0  0
  -23.1462  -28.0548   26.9762 C   0  0  0  0  0  0  0  0  0  0  0  0
  -21.7892  -30.0704   26.4119 C   0  0  0  0  0  0  0  0  0  0  0  0
  -20.7179  -25.6886   21.2618 C   0  0  0  0  0  0  0  0  0  0  0  0
  -29.1101  -24.9878   18.4780 C   0  0  0  0  0  0  0  0  0  0  0  0
  -29.3982  -24.4053   17.0987 C   0  0  0  0  0  0  0  0  0  0  0  0
  -28.5965  -26.4187   18.3874 C   0  0  0  0  0  0  0  0  0  1  0  0
  -29.9521  -22.9905   17.1905 C   0  0  0  0  0  0  0  0  0  0  0  0
  -22.8758  -28.7472   24.5516 C   0  0  1  0  0  0  0  0  0  0  0  0
  -20.4179  -25.9825   23.7240 C   0  0  2  0  0  0  0  0  0  0  0  0
  -23.0384  -29.2555   26.0120 C   0  0  0  0  0  0  0  0  0  0  0  0
  -28.4830  -13.7357   20.0977 N   0  0  0  0  0  0  0  0  0  0  0  0
  -29.8204  -13.7029   19.9688 N   0  0  0  0  0  0  0  0  0  0  0  0
  -23.7815  -29.9121   22.5651 N   0  0  0  0  0  0  0  0  0  0  0  0
  -30.6222  -17.4361   19.9039 N   0  0  0  0  0  0  0  0  0  0  0  0
  -31.6385  -12.2571   19.5056 N   0  0  0  0  0  0  0  0  0  0  0  0
  -28.0497   -9.5253   19.2738 N   0  0  0  0  0  0  0  0  0  0  0  0
  -30.5894  -18.0140   17.6175 N   0  0  0  0  0  0  0  0  0  0  0  0
  -24.6348  -33.3467   22.1117 N   0  0  0  0  0  0  0  0  0  0  0  0
  -21.6933  -27.9208   24.3348 N   0  0  0  0  0  0  0  0  0  0  0  0
  -20.3987  -25.0477   22.5635 N   0  3  0  0  0  0  0  0  0  0  0  0
  -30.3345   -9.6166   19.1007 O   0  0  0  0  0  0  0  0  0  0  0  0
  -25.8524  -31.5271   22.9048 O   0  0  0  0  0  0  0  0  0  0  0  0
  -21.8711  -30.6965   23.6474 O   0  0  0  0  0  0  0  0  0  0  0  0
  -22.8281  -26.0490   23.5693 O   0  0  0  0  0  0  0  0  0  0  0  0
  -31.6871  -19.3499   19.1642 O   0  0  0  0  0  0  0  0  0  0  0  0
  -22.7343  -10.9971   20.0590 O   0  0  0  0  0  0  0  0  0  0  0  0
  -28.3582  -26.9315   19.6976 O   0  0  0  0  0  0  0  0  0  1  0  0
  -30.1844  -22.5016   15.8767 O   0  0  0  0  0  0  0  0  0  0  0  0
  -21.4322   -6.3692   22.7593 F   0  0  0  0  0  0  0  0  0  0  0  0
  -21.0197  -11.0545   22.2268 F   0  0  0  0  0  0  0  0  0  0  0  0
  1  2  1  0  0  0  0
  1  6  2  0  0  0  0
  2  7  2  0  0  0  0
  3  9  1  0  0  0  0
  3 10  2  0  0  0  0
  4 11  2  0  0  0  0
  4 19  1  0  0  0  0
  5 12  1  0  0  0  0
  5 19  2  0  0  0  0
  6 21  1  0  0  0  0
  7 23  1  0  0  0  0
  8 13  2  0  0  0  0
  8 22  1  0  0  0  0
  9 25  2  0  0  0  0
 10 28  1  0  0  0  0
 11 26  1  0  0  0  0
 12 26  2  0  0  0  0
 13 27  1  0  0  0  0
 14 15  2  0  0  0  0
 14 29  1  0  0  0  0
 15 30  1  0  0  0  0
 16 24  1  0  0  0  0
 16 27  2  0  0  0  0
 17 25  1  0  0  0  0
 17 28  2  0  0  0  0
 18 30  2  0  0  0  0
 18 31  1  0  0  0  0
 19 32  1  0  0  0  0
 20 32  1  0  0  0  0
 20 33  2  0  0  0  0
 20 34  1  0  0  0  0
 21 23  2  0  0  0  0
 21 39  1  0  0  0  0
 22 24  2  0  0  0  0
 22 40  1  0  0  0  0
 23 48  1  0  0  0  0
 24 41  1  0  0  0  0
 25 69  1  0  0  0  0
 26 78  1  0  0  0  0
 27 79  1  0  0  0  0
 28 80  1  0  0  0  0
 29 31  2  0  0  0  0
 29 78  1  0  0  0  0
 30 81  1  0  0  0  0
 31 82  1  0  0  0  0
 32 63  2  0  0  0  0
 33 64  1  0  0  0  0
 33 67  1  0  0  0  0
 34 68  1  0  0  0  0
 34 73  2  0  0  0  0
 35 49  1  0  0  0  0
 35 70  1  0  0  0  0
 35 74  2  0  0  0  0
 36 60  1  0  0  0  0
 36 65  1  0  0  0  0
 36 75  2  0  0  0  0
 37 61  1  0  0  0  0
 37 71  1  0  0  0  0
 37 76  2  0  0  0  0
 38 66  1  0  0  0  0
 38 69  1  0  0  0  0
 38 77  2  0  0  0  0
 39 42  1  0  0  0  0
 40 49  1  0  0  0  0
 41 65  1  0  0  0  0
 42 44  1  0  0  0  0
 43 45  1  0  0  0  0
 43 46  1  0  0  0  0
 44 48  1  0  0  0  0
 45 50  1  0  0  0  0
 46 66  1  0  0  0  0
 47 50  1  0  0  0  0
 47 66  1  0  0  0  0
 48 70  1  0  0  0  0
 49 65  1  0  0  0  0
 50 64  1  0  0  0  0
 51 61  1  0  0  0  0
 52 62  1  0  0  0  0
 53 62  1  0  0  0  0
 54 62  1  0  0  0  0
 55 72  1  0  0  0  0
 56 57  1  0  0  0  0
 56 58  1  0  0  0  0
 57 59  1  0  0  0  0
 58 79  1  0  0  0  0
 59 80  1  0  0  0  0
 60 62  1  0  0  0  0
 60 71  1  0  0  0  0
 61 72  1  0  0  0  0
 63 64  1  0  0  0  0
M  CHG  1  72   1
M  ISO  4  38 100  58 101  69 100  79 101
M  END
> <Batch ID>
0007

> <Smiles>
CNC(C)C(=O)NC(C(=O)N1Cc2cc([101O:1][101CH2:1]CCCOc3cccc([100NH:0][100C:0](=O)N4CCCC(n5nc(-c6ccc(Oc7ccc(F)cc7F)cc6)c(C(N)=O)c5N)C4)c3)ccc2CC1C(=O)NC1CCCc2ccccc21)C(C)(C)C

> <Shape>
0.287

> <Color>
0.073

> <Negative vol penalty>
0.000

$$$$

  -OEChem-04052315333D

 92100  0     1  0  0  0  0  0999 V2000
  -21.5874  -34.0969   21.9585 C   0  0  0  0  0  0  0  0  0  0  0  0
  -21.7627  -33.1878   20.9201 C   0  0  0  0  0  0  0  0  0  0  0  0
  -28.4410  -11.2042   22.5709 C   0  0  0  0  0  0  0  0  0  0  0  0
  -27.6480  -11.3758   20.2952 C   0  0  0  0  0  0  0  0  0  0  0  0
  -22.6959  -34.5956   22.6415 C   0  0  0  0  0  0  0  0  0  0  0  0
  -23.0468  -32.7776   20.5634 C   0  0  0  0  0  0  0  0  0  0  0  0
  -23.3571  -27.7754   19.8377 C   0  0  0  0  0  0  0  0  0  0  0  0
  -26.2523  -21.0346   16.8038 C   0  0  0  0  0  0  0  0  0  0  0  0
  -26.5211  -19.0565   15.4429 C   0  0  0  0  0  0  0  0  0  0  0  0
  -27.1064  -20.4906   17.7632 C   0  0  0  0  0  0  0  0  0  0  0  0
  -27.3752  -18.5126   16.4022 C   0  0  0  0  0  0  0  0  0  0  0  0
  -27.4790  -10.2287   22.8326 C   0  0  0  0  0  0  0  0  0  0  0  0
  -26.6860  -10.4002   20.5569 C   0  0  0  0  0  0  0  0  0  0  0  0
  -22.8700  -27.2758   18.6307 C   0  0  0  0  0  0  0  0  0  0  0  0
  -23.7871   -8.2143   20.7253 C   0  0  0  0  0  0  0  0  0  0  0  0
  -22.4901   -8.4430   20.2659 C   0  0  0  0  0  0  0  0  0  0  0  0
  -25.1224  -27.1668   17.7738 C   0  0  0  0  0  0  0  0  0  0  0  0
  -22.3685  -10.4485   21.6078 C   0  0  0  0  0  0  0  0  0  0  0  0
  -28.5254  -11.7778   21.3022 C   0  0  0  0  0  0  0  0  0  0  0  0
  -30.8292  -12.5831   20.5593 C   0  0  0  0  0  0  0  0  0  0  0  0
  -23.9936  -34.1839   22.2993 C   0  0  0  0  0  0  0  0  0  0  0  0
  -24.7318  -27.9852   20.0183 C   0  0  0  0  0  0  0  0  0  0  0  0
  -24.1738  -33.2723   21.2416 C   0  0  0  0  0  0  0  0  0  0  0  0
  -25.6246  -27.6668   18.9850 C   0  0  0  0  0  0  0  0  0  0  0  0
  -25.9596  -20.3175   15.6437 C   0  0  0  0  0  0  0  0  0  0  0  0
  -27.6678  -19.2296   17.5624 C   0  0  0  0  0  0  0  0  0  0  0  0
  -26.6015   -9.8266   21.8256 C   0  0  0  0  0  0  0  0  0  0  0  0
  -23.7524  -26.9741   17.5975 C   0  0  0  0  0  0  0  0  0  0  0  0
  -24.3748   -9.1026   21.6260 C   0  0  0  0  0  0  0  0  0  0  0  0
  -21.7808   -9.5601   20.7071 C   0  0  0  0  0  0  0  0  0  0  0  0
  -23.6655  -10.2197   22.0672 C   0  0  0  0  0  0  0  0  0  0  0  0
  -29.5186  -12.7860   21.0315 C   0  0  0  0  0  0  0  0  0  0  0  0
  -31.3608  -13.8463   20.4684 C   0  0  0  0  0  0  0  0  0  0  0  0
  -31.5055  -11.3620   20.2320 C   0  0  0  0  0  0  0  0  0  0  0  0
  -26.5565  -30.5221   20.5995 C   0  0  0  0  0  0  0  0  0  0  0  0
  -23.3448  -23.2243   12.9558 C   0  0  0  0  0  0  0  0  0  0  0  0
  -28.8970  -28.2917   20.8635 C   0  0  0  0  0  0  0  0  0  0  0  0
  -30.0295  -25.1723   20.0675 C   0  0  0  0  0  0  0  0  0  0  0  0
  -24.4933  -20.1870   13.6181 C   0  0  0  0  0  0  0  0  0  0  0  0
  -28.9293  -19.2561   19.7428 C   0  0  0  0  0  0  0  0  0  0  0  0
  -25.1641  -34.7866   23.0352 C   0  0  0  0  0  0  0  0  0  0  0  0
  -25.2437  -28.4996   21.3357 C   0  0  0  0  0  0  0  0  0  0  0  0
  -27.1114  -27.8547   19.1356 C   0  0  0  0  0  0  0  0  0  0  0  0
  -26.4673  -34.0154   22.8424 C   0  0  0  0  0  0  0  0  0  0  0  0
  -31.0185  -18.2031   22.4268 C   0  0  0  0  0  0  0  0  0  0  0  0
  -26.6764  -33.6805   21.3690 C   0  0  0  0  0  0  0  0  0  0  0  0
  -30.9951  -16.6762   22.3268 C   0  0  0  0  0  0  0  0  0  0  0  0
  -29.6637  -18.8153   22.0755 C   0  0  0  0  0  0  0  0  0  0  0  0
  -29.0850  -16.8671   20.6830 C   0  0  0  0  0  0  0  0  0  0  0  0
  -25.5494  -32.7844   20.8416 C   0  0  1  0  0  0  0  0  0  0  0  0
  -26.6154  -29.1584   21.2276 C   0  0  1  0  0  0  0  0  0  0  0  0
  -30.4455  -16.2089   20.9647 C   0  0  2  0  0  0  0  0  0  0  0  0
  -31.5313  -23.1621   20.0990 C   0  0  0  0  0  0  0  0  0  0  0  0
  -30.4863  -29.8982   18.8133 C   0  0  0  0  0  0  0  0  0  0  0  0
  -31.9497  -27.8941   18.4806 C   0  0  0  0  0  0  0  0  0  0  0  0
  -31.8420  -29.0009   20.7136 C   0  0  0  0  0  0  0  0  0  0  0  0
  -25.2663  -21.1436   11.4442 C   0  0  0  0  0  0  0  0  0  0  0  0
  -28.6075  -24.0020   22.3842 C   0  0  0  0  0  0  0  0  0  0  0  0
  -22.1895  -24.2118   12.8692 C   0  0  0  0  0  0  0  0  0  0  0  0
  -23.0787  -21.8587   12.3560 C   0  0  0  0  0  0  0  0  0  0  0  0
  -22.1945  -25.2688   13.9731 C   0  0  0  0  0  0  0  0  0  0  0  0
  -22.1062  -24.6497   15.3738 C   0  0  0  0  0  0  0  0  0  0  0  0
  -23.5281  -18.3587   12.4166 C   0  0  0  0  0  0  0  0  0  0  0  0
  -23.2284  -16.8905   12.6516 C   0  0  0  0  0  0  0  0  0  0  0  0
  -22.0840  -25.7094   16.4692 C   0  0  0  0  0  0  0  0  0  1  0  0
  -29.8681  -27.6426   19.9070 C   0  0  1  0  0  0  0  0  0  0  0  0
  -30.6310  -24.0708   20.9215 C   0  0  2  0  0  0  0  0  0  0  0  0
  -31.0084  -28.6071   19.4748 C   0  0  0  0  0  0  0  0  0  0  0  0
  -29.2350  -14.0765   21.2271 N   0  0  0  0  0  0  0  0  0  0  0  0
  -24.1499  -18.9289   13.6014 N   0  0  0  0  0  0  0  0  0  0  0  0
  -30.3748  -14.6959   20.8761 N   0  0  0  0  0  0  0  0  0  0  0  0
  -27.5624  -28.3662   20.4403 N   0  0  0  0  0  0  0  0  0  0  0  0
  -29.2083  -18.3307   20.7707 N   0  0  0  0  0  0  0  0  0  0  0  0
  -32.5708  -14.3020   20.0803 N   0  0  0  0  0  0  0  0  0  0  0  0
  -30.8125  -10.1532   20.3831 N   0  0  0  0  0  0  0  0  0  0  0  0
  -25.0932  -20.8674   14.6730 N   0  0  0  0  0  0  0  0  0  0  0  0
  -28.5355  -18.6771   18.5369 N   0  0  0  0  0  0  0  0  0  0  0  0
  -25.7471  -31.4171   21.2728 N   0  0  0  0  0  0  0  0  0  0  0  0
  -30.3321  -26.4238   20.5609 N   0  0  0  0  0  0  0  0  0  0  0  0
  -24.2451  -21.0249   12.4965 N   0  0  0  0  0  0  0  0  0  0  0  0
  -24.4846  -16.1697   12.9739 N   0  3  0  0  0  0  0  0  0  0  0  0
  -29.5535  -23.2397   21.5292 N   0  3  0  0  0  0  0  0  0  0  0  0
  -32.6947  -11.3422   19.8334 O   0  0  0  0  0  0  0  0  0  0  0  0
  -27.1991  -30.7462   19.5804 O   0  0  0  0  0  0  0  0  0  0  0  0
  -24.4287  -23.5255   13.4538 O   0  0  0  0  0  0  0  0  0  0  0  0
  -29.3063  -28.7106   21.9492 O   0  0  0  0  0  0  0  0  0  0  0  0
  -29.3615  -24.9453   19.0612 O   0  0  0  0  0  0  0  0  0  0  0  0
  -29.0584  -20.4714   19.9112 O   0  0  0  0  0  0  0  0  0  0  0  0
  -25.6629   -8.8746   22.0805 O   0  0  0  0  0  0  0  0  0  0  0  0
  -23.2796  -26.4868   16.4181 O   0  0  0  0  0  0  0  0  0  1  0  0
  -20.5359   -9.7805   20.2646 F   0  0  0  0  0  0  0  0  0  0  0  0
  -24.2253  -11.0772   22.9315 F   0  0  0  0  0  0  0  0  0  0  0  0
  1  2  1  0  0  0  0
  1  5  2  0  0  0  0
  2  6  2  0  0  0  0
  3 12  2  0  0  0  0
  3 19  1  0  0  0  0
  4 13  1  0  0  0  0
  4 19  2  0  0  0  0
  5 21  1  0  0  0  0
  6 23  1  0  0  0  0
  7 14  2  0  0  0  0
  7 22  1  0  0  0  0
  8 10  2  0  0  0  0
  8 25  1  0  0  0  0
  9 11  1  0  0  0  0
  9 25  2  0  0  0  0
 10 26  1  0  0  0  0
 11 26  2  0  0  0  0
 12 27  1  0  0  0  0
 13 27  2  0  0  0  0
 14 28  1  0  0  0  0
 15 16  2  0  0  0  0
 15 29  1  0  0  0  0
 16 30  1  0  0  0  0
 17 24  1  0  0  0  0
 17 28  2  0  0  0  0
 18 30  2  0  0  0  0
 18 31  1  0  0  0  0
 19 32  1  0  0  0  0
 20 32  1  0  0  0  0
 20 33  2  0  0  0  0
 20 34  1  0  0  0  0
 21 23  2  0  0  0  0
 21 41  1  0  0  0  0
 22 24  2  0  0  0  0
 22 42  1  0  0  0  0
 23 50  1  0  0  0  0
 24 43  1  0  0  0  0
 25 76  1  0  0  0  0
 26 77  1  0  0  0  0
 27 89  1  0  0  0  0
 28 90  1  0  0  0  0
 29 31  2  0  0  0  0
 29 89  1  0  0  0  0
 30 91  1  0  0  0  0
 31 92  1  0  0  0  0
 32 69  2  0  0  0  0
 33 71  1  0  0  0  0
 33 74  1  0  0  0  0
 34 75  1  0  0  0  0
 34 83  2  0  0  0  0
 35 51  1  0  0  0  0
 35 78  1  0  0  0  0
 35 84  2  0  0  0  0
 36 59  1  0  0  0  0
 36 60  1  0  0  0  0
 36 85  2  0  0  0  0
 37 66  1  0  0  0  0
 37 72  1  0  0  0  0
 37 86  2  0  0  0  0
 38 67  1  0  0  0  0
 38 79  1  0  0  0  0
 38 87  2  0  0  0  0
 39 70  2  0  0  0  0
 39 76  1  0  0  0  0
 39 80  1  0  0  0  0
 40 73  1  0  0  0  0
 40 77  1  0  0  0  0
 40 88  2  0  0  0  0
 41 44  1  0  0  0  0
 42 51  1  0  0  0  0
 43 72  1  0  0  0  0
 44 46  1  0  0  0  0
 45 47  1  0  0  0  0
 45 48  1  0  0  0  0
 46 50  1  0  0  0  0
 47 52  1  0  0  0  0
 48 73  1  0  0  0  0
 49 52  1  0  0  0  0
 49 73  1  0  0  0  0
 50 78  1  0  0  0  0
 51 72  1  0  0  0  0
 52 71  1  0  0  0  0
 53 67  1  0  0  0  0
 54 68  1  0  0  0  0
 55 68  1  0  0  0  0
 56 68  1  0  0  0  0
 57 80  1  0  0  0  0
 58 82  1  0  0  0  0
 59 61  1  0  0  0  0
 60 80  1  0  0  0  0
 61 62  1  0  0  0  0
 62 65  1  0  0  0  0
 63 64  1  0  0  0  0
 63 70  1  0  0  0  0
 64 81  1  0  0  0  0
 65 90  1  0  0  0  0
 66 68  1  0  0  0  0
 66 79  1  0  0  0  0
 67 82  1  0  0  0  0
 69 71  1  0  0  0  0
M  CHG  2  81   1  82   1
M  ISO  4  40 100  65 101  77 100  90 101
M  END
> <Batch ID>
0007

> <Smiles>
CNC(C)C(=O)NC(C(=O)N1Cc2cc([101O:1][101CH2:1]CCCC(=O)CN(C)C(=NCCN)Nc3ccc([100NH:0][100C:0](=O)N4CCCC(n5nc(-c6ccc(Oc7ccc(F)cc7F)cc6)c(C(N)=O)c5N)C4)cc3)ccc2CC1C(=O)NC1CCCc2ccccc21)C(C)(C)C

> <Shape>
0.241

> <Color>
0.063

> <Negative vol penalty>
0.000

$$$$

  -OEChem-04052315333D

 91 99  0     1  0  0  0  0  0999 V2000
  -35.3218  -25.7518   20.4015 C   0  0  0  0  0  0  0  0  0  0  0  0
  -34.0150  -26.1224   20.1010 C   0  0  0  0  0  0  0  0  0  0  0  0
  -23.0778   -9.9005   19.9347 C   0  0  0  0  0  0  0  0  0  0  0  0
  -23.8465   -9.8799   22.2250 C   0  0  0  0  0  0  0  0  0  0  0  0
  -35.6297  -25.2489   21.6649 C   0  0  0  0  0  0  0  0  0  0  0  0
  -33.0150  -25.9893   21.0636 C   0  0  0  0  0  0  0  0  0  0  0  0
  -30.0118  -30.0587   21.3206 C   0  0  0  0  0  0  0  0  0  0  0  0
  -31.0055  -20.0823   18.9624 C   0  0  0  0  0  0  0  0  0  0  0  0
  -31.0509  -21.6153   20.8292 C   0  0  0  0  0  0  0  0  0  0  0  0
  -22.3210   -8.7544   20.1784 C   0  0  0  0  0  0  0  0  0  0  0  0
  -23.0898   -8.7338   22.4688 C   0  0  0  0  0  0  0  0  0  0  0  0
  -29.0351  -30.1925   20.3347 C   0  0  0  0  0  0  0  0  0  0  0  0
  -30.9120  -21.1589   18.0805 C   0  0  0  0  0  0  0  0  0  0  0  0
  -30.9575  -22.6919   19.9473 C   0  0  0  0  0  0  0  0  0  0  0  0
  -19.8546   -7.9700   23.0777 C   0  0  0  0  0  0  0  0  0  0  0  0
  -19.1017   -7.9298   24.2512 C   0  0  0  0  0  0  0  0  0  0  0  0
  -27.3807  -29.3334   21.8658 C   0  0  0  0  0  0  0  0  0  0  0  0
  -20.3225   -5.9717   24.9672 C   0  0  0  0  0  0  0  0  0  0  0  0
  -23.8406  -10.4632   20.9580 C   0  0  0  0  0  0  0  0  0  0  0  0
  -24.2124  -12.9850   20.8568 C   0  0  0  0  0  0  0  0  0  0  0  0
  -34.6347  -25.1187   22.6466 C   0  0  0  0  0  0  0  0  0  0  0  0
  -29.6819  -29.5502   22.5851 C   0  0  0  0  0  0  0  0  0  0  0  0
  -33.3095  -25.4830   22.3410 C   0  0  0  0  0  0  0  0  0  0  0  0
  -28.3546  -29.1966   22.8668 C   0  0  0  0  0  0  0  0  0  0  0  0
  -31.0749  -20.3104   20.3368 C   0  0  0  0  0  0  0  0  0  0  0  0
  -22.3270   -8.1711   21.4454 C   0  0  0  0  0  0  0  0  0  0  0  0
  -30.8880  -22.4638   18.5730 C   0  0  0  0  0  0  0  0  0  0  0  0
  -27.7199  -29.8271   20.6063 C   0  0  0  0  0  0  0  0  0  0  0  0
  -20.8414   -7.0111   22.8488 C   0  0  0  0  0  0  0  0  0  0  0  0
  -19.3357   -6.9307   25.1960 C   0  0  0  0  0  0  0  0  0  0  0  0
  -21.0754   -6.0119   23.7936 C   0  0  0  0  0  0  0  0  0  0  0  0
  -24.6230  -11.6468   20.7068 C   0  0  0  0  0  0  0  0  0  0  0  0
  -25.3121  -13.7242   20.4952 C   0  0  0  0  0  0  0  0  0  0  0  0
  -22.9498  -13.5126   21.2849 C   0  0  0  0  0  0  0  0  0  0  0  0
  -30.5529  -27.0032   24.2756 C   0  0  0  0  0  0  0  0  0  0  0  0
  -28.7647  -28.4107   26.5873 C   0  0  0  0  0  0  0  0  0  0  0  0
  -30.5988  -17.9380   20.9427 C   0  0  0  0  0  0  0  0  0  0  0  0
  -26.2341  -30.5552   27.3895 C   0  0  0  0  0  0  0  0  0  0  0  0
  -30.8084  -14.6756   20.6700 C   0  0  0  0  0  0  0  0  0  0  0  0
  -35.0064  -24.5258   23.9827 C   0  0  0  0  0  0  0  0  0  0  0  0
  -30.7419  -29.4372   23.6462 C   0  0  0  0  0  0  0  0  0  0  0  0
  -27.9447  -28.6646   24.2149 C   0  0  0  0  0  0  0  0  0  0  0  0
  -33.9608  -24.7673   25.0683 C   0  0  0  0  0  0  0  0  0  0  0  0
  -29.6329  -12.3242   18.2688 C   0  0  0  0  0  0  0  0  0  0  0  0
  -32.5629  -24.4593   24.5411 C   0  0  0  0  0  0  0  0  0  0  0  0
  -28.1937  -12.0444   18.7050 C   0  0  0  0  0  0  0  0  0  0  0  0
  -30.5573  -12.5244   19.4678 C   0  0  0  0  0  0  0  0  0  0  0  0
  -28.6698  -13.2671   20.8677 C   0  0  0  0  0  0  0  0  0  0  0  0
  -32.2018  -25.3767   23.3666 C   0  0  1  0  0  0  0  0  0  0  0  0
  -30.3934  -28.4254   24.7335 C   0  0  1  0  0  0  0  0  0  0  0  0
  -27.6891  -13.1137   19.6925 C   0  0  2  0  0  0  0  0  0  0  0  0
  -24.9778  -31.4705   29.3596 C   0  0  0  0  0  0  0  0  0  0  0  0
  -27.2378  -25.7804   26.8326 C   0  0  0  0  0  0  0  0  0  0  0  0
  -25.4481  -27.0156   28.0734 C   0  0  0  0  0  0  0  0  0  0  0  0
  -27.7562  -26.8928   29.0116 C   0  0  0  0  0  0  0  0  0  0  0  0
  -31.9817  -19.4025   22.4634 C   0  0  0  0  0  0  0  0  0  0  0  0
  -27.0682  -33.3286   26.7801 C   0  0  0  0  0  0  0  0  0  0  0  0
  -30.9049  -16.8152   21.9238 C   0  0  0  0  0  0  0  0  0  0  0  0
  -27.7485  -26.3931   16.6099 C   0  0  0  0  0  0  0  0  0  0  0  0
  -26.7755  -26.9272   17.6631 C   0  0  0  0  0  0  0  0  0  0  0  0
  -28.4078  -25.0917   17.0738 C   0  0  0  0  0  0  0  0  0  0  0  0
  -26.1529  -28.2757   17.2892 C   0  0  0  0  0  0  0  0  0  0  0  0
  -29.4116  -24.5777   16.0376 C   0  0  0  0  0  0  0  0  0  0  0  0
  -25.1263  -28.8304   18.2776 C   0  0  0  0  0  0  0  0  0  0  0  0
  -30.1004  -23.2956   16.4889 C   0  0  0  0  0  0  0  0  0  0  0  0
  -25.6767  -29.0334   19.6836 C   0  0  0  0  0  0  0  0  0  1  0  0
  -27.3130  -28.3559   26.9979 C   0  0  1  0  0  0  0  0  0  0  0  0
  -26.1485  -31.6751   28.4107 C   0  0  2  0  0  0  0  0  0  0  0  0
  -26.9465  -27.0194   27.7028 C   0  0  0  0  0  0  0  0  0  0  0  0
  -25.8850  -11.5391   20.2827 N   0  0  0  0  0  0  0  0  0  0  0  0
  -26.2768  -12.8191   20.1632 N   0  0  0  0  0  0  0  0  0  0  0  0
  -29.0186  -28.5666   25.2172 N   0  0  0  0  0  0  0  0  0  0  0  0
  -30.0226  -13.5523   20.3641 N   0  0  0  0  0  0  0  0  0  0  0  0
  -25.5382  -15.0535   20.4320 N   0  0  0  0  0  0  0  0  0  0  0  0
  -21.9283  -12.6130   21.6189 N   0  0  0  0  0  0  0  0  0  0  0  0
  -31.8287  -26.6899   23.8471 N   0  0  0  0  0  0  0  0  0  0  0  0
  -27.0731  -29.5446   27.8090 N   0  0  0  0  0  0  0  0  0  0  0  0
  -30.2237  -15.6048   21.5218 N   0  0  0  0  0  0  0  0  0  0  0  0
  -31.1683  -19.2336   21.2189 N   0  0  0  0  0  0  0  0  0  0  0  0
  -25.9751  -32.9877   27.7267 N   0  3  0  0  0  0  0  0  0  0  0  0
  -22.7286  -14.7455   21.3530 O   0  0  0  0  0  0  0  0  0  0  0  0
  -29.5902  -26.2459   24.3100 O   0  0  0  0  0  0  0  0  0  0  0  0
  -29.6412  -28.3256   27.4512 O   0  0  0  0  0  0  0  0  0  0  0  0
  -29.9148  -17.7031   19.9432 O   0  0  0  0  0  0  0  0  0  0  0  0
  -25.6154  -30.5732   26.3277 O   0  0  0  0  0  0  0  0  0  0  0  0
  -31.9446  -14.8411   20.2133 O   0  0  0  0  0  0  0  0  0  0  0  0
  -21.5885   -7.0528   21.6836 O   0  0  0  0  0  0  0  0  0  0  0  0
  -30.7962  -23.5221   17.7063 O   0  0  0  0  0  0  0  0  0  0  0  0
  -26.7647  -29.9561   19.6457 O   0  0  0  0  0  0  0  0  0  1  0  0
  -18.6137   -6.8930   26.3236 F   0  0  0  0  0  0  0  0  0  0  0  0
  -22.0228   -5.0886   23.5799 F   0  0  0  0  0  0  0  0  0  0  0  0
  1  2  1  0  0  0  0
  1  5  2  0  0  0  0
  2  6  2  0  0  0  0
  3 10  2  0  0  0  0
  3 19  1  0  0  0  0
  4 11  1  0  0  0  0
  4 19  2  0  0  0  0
  5 21  1  0  0  0  0
  6 23  1  0  0  0  0
  7 12  2  0  0  0  0
  7 22  1  0  0  0  0
  8 13  2  0  0  0  0
  8 25  1  0  0  0  0
  9 14  1  0  0  0  0
  9 25  2  0  0  0  0
 10 26  1  0  0  0  0
 11 26  2  0  0  0  0
 12 28  1  0  0  0  0
 13 27  1  0  0  0  0
 14 27  2  0  0  0  0
 15 16  2  0  0  0  0
 15 29  1  0  0  0  0
 16 30  1  0  0  0  0
 17 24  1  0  0  0  0
 17 28  2  0  0  0  0
 18 30  2  0  0  0  0
 18 31  1  0  0  0  0
 19 32  1  0  0  0  0
 20 32  1  0  0  0  0
 20 33  2  0  0  0  0
 20 34  1  0  0  0  0
 21 23  2  0  0  0  0
 21 40  1  0  0  0  0
 22 24  2  0  0  0  0
 22 41  1  0  0  0  0
 23 49  1  0  0  0  0
 24 42  1  0  0  0  0
 25 79  1  0  0  0  0
 26 87  1  0  0  0  0
 27 88  1  0  0  0  0
 28 89  1  0  0  0  0
 29 31  2  0  0  0  0
 29 87  1  0  0  0  0
 30 90  1  0  0  0  0
 31 91  1  0  0  0  0
 32 70  2  0  0  0  0
 33 71  1  0  0  0  0
 33 74  1  0  0  0  0
 34 75  1  0  0  0  0
 34 81  2  0  0  0  0
 35 50  1  0  0  0  0
 35 76  1  0  0  0  0
 35 82  2  0  0  0  0
 36 67  1  0  0  0  0
 36 72  1  0  0  0  0
 36 83  2  0  0  0  0
 37 58  1  0  0  0  0
 37 79  1  0  0  0  0
 37 84  2  0  0  0  0
 38 68  1  0  0  0  0
 38 77  1  0  0  0  0
 38 85  2  0  0  0  0
 39 73  1  0  0  0  0
 39 78  1  0  0  0  0
 39 86  2  0  0  0  0
 40 43  1  0  0  0  0
 41 50  1  0  0  0  0
 42 72  1  0  0  0  0
 43 45  1  0  0  0  0
 44 46  1  0  0  0  0
 44 47  1  0  0  0  0
 45 49  1  0  0  0  0
 46 51  1  0  0  0  0
 47 73  1  0  0  0  0
 48 51  1  0  0  0  0
 48 73  1  0  0  0  0
 49 76  1  0  0  0  0
 50 72  1  0  0  0  0
 51 71  1  0  0  0  0
 52 68  1  0  0  0  0
 53 69  1  0  0  0  0
 54 69  1  0  0  0  0
 55 69  1  0  0  0  0
 56 79  1  0  0  0  0
 57 80  1  0  0  0  0
 58 78  1  0  0  0  0
 59 60  1  0  0  0  0
 59 61  1  0  0  0  0
 60 62  1  0  0  0  0
 61 63  1  0  0  0  0
 62 64  1  0  0  0  0
 63 65  1  0  0  0  0
 64 66  1  0  0  0  0
 65 88  1  0  0  0  0
 66 89  1  0  0  0  0
 67 69  1  0  0  0  0
 67 77  1  0  0  0  0
 68 80  1  0  0  0  0
 70 71  1  0  0  0  0
M  CHG  1  80   1
M  ISO  4  39 100  66 101  78 100  89 101
M  END
> <Batch ID>
0007

> <Smiles>
CNC(C)C(=O)NC(C(=O)N1Cc2cc([101O:1][101CH2:1]CCCCCCCOc3ccc(N(C)C(=O)C[100NH:0][100C:0](=O)N4CCCC(n5nc(-c6ccc(Oc7ccc(F)cc7F)cc6)c(C(N)=O)c5N)C4)cc3)ccc2CC1C(=O)NC1CCCc2ccccc21)C(C)(C)C

> <Shape>
0.253

> <Color>
0.203

> <Negative vol penalty>
0.000

$$$$

  -OEChem-04052315333D

 88 96  0     1  0  0  0  0  0999 V2000
  -27.8605  -32.4025   27.1348 C   0  0  0  0  0  0  0  0  0  0  0  0
  -28.1240  -31.4997   26.1096 C   0  0  0  0  0  0  0  0  0  0  0  0
  -24.0140   -9.3092   20.8554 C   0  0  0  0  0  0  0  0  0  0  0  0
  -22.8405  -11.3995   21.1565 C   0  0  0  0  0  0  0  0  0  0  0  0
  -26.5724  -32.5042   27.6586 C   0  0  0  0  0  0  0  0  0  0  0  0
  -27.0997  -30.6972   25.6084 C   0  0  0  0  0  0  0  0  0  0  0  0
  -27.0809  -30.5058   20.5480 C   0  0  0  0  0  0  0  0  0  0  0  0
  -28.9633  -21.9494   19.3492 C   0  0  0  0  0  0  0  0  0  0  0  0
  -23.0263   -8.6493   21.5866 C   0  0  0  0  0  0  0  0  0  0  0  0
  -21.8527  -10.7396   21.8877 C   0  0  0  0  0  0  0  0  0  0  0  0
  -28.0201  -29.6749   19.9388 C   0  0  0  0  0  0  0  0  0  0  0  0
  -28.9216  -23.2696   19.7975 C   0  0  0  0  0  0  0  0  0  0  0  0
  -22.1944   -8.2305   24.8358 C   0  0  0  0  0  0  0  0  0  0  0  0
  -22.6082   -7.3145   25.8029 C   0  0  0  0  0  0  0  0  0  0  0  0
  -26.3237  -27.9861   19.6402 C   0  0  0  0  0  0  0  0  0  0  0  0
  -31.0782  -23.6803   18.7886 C   0  0  0  0  0  0  0  0  0  0  0  0
  -21.4148   -5.5583   24.6501 C   0  0  0  0  0  0  0  0  0  0  0  0
  -23.9211  -10.6843   20.6404 C   0  0  0  0  0  0  0  0  0  0  0  0
  -24.9687  -11.5825   18.4949 C   0  0  0  0  0  0  0  0  0  0  0  0
  -25.5296  -31.7093   27.1570 C   0  0  0  0  0  0  0  0  0  0  0  0
  -25.7563  -30.0781   20.7180 C   0  0  0  0  0  0  0  0  0  0  0  0
  -25.7967  -30.7873   26.1270 C   0  0  0  0  0  0  0  0  0  0  0  0
  -25.3689  -28.8145   20.2496 C   0  0  0  0  0  0  0  0  0  0  0  0
  -31.1199  -22.3601   18.3404 C   0  0  0  0  0  0  0  0  0  0  0  0
  -30.0625  -21.4946   18.6207 C   0  0  0  0  0  0  0  0  0  0  0  0
  -21.9456   -9.3645   22.1027 C   0  0  0  0  0  0  0  0  0  0  0  0
  -27.6423  -28.4137   19.4874 C   0  0  0  0  0  0  0  0  0  0  0  0
  -29.9790  -24.1351   19.5172 C   0  0  0  0  0  0  0  0  0  0  0  0
  -21.3908   -7.8104   23.7758 C   0  0  0  0  0  0  0  0  0  0  0  0
  -22.2184   -5.9784   25.7101 C   0  0  0  0  0  0  0  0  0  0  0  0
  -21.0010   -6.4744   23.6830 C   0  0  0  0  0  0  0  0  0  0  0  0
  -24.9414  -11.3666   19.8857 C   0  0  0  0  0  0  0  0  0  0  0  0
  -26.1372  -12.2708   18.2771 C   0  0  0  0  0  0  0  0  0  0  0  0
  -24.0224  -11.1955   17.4896 C   0  0  0  0  0  0  0  0  0  0  0  0
  -23.8733  -29.5516   23.2242 C   0  0  0  0  0  0  0  0  0  0  0  0
  -21.6171  -29.0902   20.9397 C   0  0  0  0  0  0  0  0  0  0  0  0
  -29.1171  -19.1723   18.3763 C   0  0  0  0  0  0  0  0  0  0  0  0
  -20.8927  -28.2740   17.7062 C   0  0  0  0  0  0  0  0  0  0  0  0
  -29.7427  -16.2993   19.6616 C   0  0  0  0  0  0  0  0  0  0  0  0
  -24.1641  -31.8210   27.7874 C   0  0  0  0  0  0  0  0  0  0  0  0
  -24.7488  -30.9968   21.3531 C   0  0  0  0  0  0  0  0  0  0  0  0
  -23.9546  -28.3161   20.3899 C   0  0  0  0  0  0  0  0  0  0  0  0
  -23.0519  -31.2013   26.9451 C   0  0  0  0  0  0  0  0  0  0  0  0
  -30.0436  -13.1836   21.3582 C   0  0  0  0  0  0  0  0  0  0  0  0
  -23.4689  -29.8236   26.4405 C   0  0  0  0  0  0  0  0  0  0  0  0
  -28.7431  -12.4541   21.0168 C   0  0  0  0  0  0  0  0  0  0  0  0
  -29.8190  -14.6834   21.5376 C   0  0  0  0  0  0  0  0  0  0  0  0
  -27.8432  -14.6185   20.0659 C   0  0  0  0  0  0  0  0  0  0  0  0
  -24.7066  -29.9172   25.5400 C   0  0  1  0  0  0  0  0  0  0  0  0
  -23.5497  -30.2562   21.9372 C   0  0  1  0  0  0  0  0  0  0  0  0
  -28.0290  -13.1114   19.8205 C   0  0  2  0  0  0  0  0  0  0  0  0
  -32.3101  -21.9006   17.5624 C   0  0  0  0  0  0  0  0  0  0  0  0
  -18.9566  -27.9438   16.1442 C   0  0  0  0  0  0  0  0  0  0  0  0
  -27.5448  -17.8709   16.1038 C   0  0  0  0  0  0  0  0  0  0  0  0
  -29.5439  -16.4348   15.6249 C   0  0  0  0  0  0  0  0  0  0  0  0
  -21.0308  -26.3931   22.2404 C   0  0  0  0  0  0  0  0  0  0  0  0
  -19.8216  -25.7272   20.1517 C   0  0  0  0  0  0  0  0  0  0  0  0
  -19.0035  -27.6582   21.5025 C   0  0  0  0  0  0  0  0  0  0  0  0
  -21.8170  -30.4422   15.9164 C   0  0  0  0  0  0  0  0  0  0  0  0
  -29.9152  -27.7368   19.3097 C   0  0  0  0  0  0  0  0  0  1  0  0
  -30.6147  -26.3993   19.1638 C   0  0  0  0  0  0  0  0  0  0  0  0
  -21.1243  -27.9030   20.1481 C   0  0  1  0  0  0  0  0  0  0  0  0
  -29.5289  -17.8453   17.7320 C   0  0  2  0  0  0  0  0  0  0  0  0
  -19.9836  -28.9283   16.6815 C   0  0  2  0  0  0  0  0  0  0  0  0
  -29.0633  -17.7415   16.2638 C   0  0  0  0  0  0  0  0  0  0  0  0
  -20.2722  -26.9287   21.0096 C   0  0  0  0  0  0  0  0  0  0  0  0
  -26.0079  -11.8763   20.5077 N   0  0  0  0  0  0  0  0  0  0  0  0
  -26.7163  -12.4193   19.5030 N   0  0  0  0  0  0  0  0  0  0  0  0
  -23.0077  -29.2486   21.0233 N   0  0  0  0  0  0  0  0  0  0  0  0
  -29.1395  -15.2457   20.3680 N   0  0  0  0  0  0  0  0  0  0  0  0
  -26.7155  -12.7574   17.1586 N   0  0  0  0  0  0  0  0  0  0  0  0
  -22.8758  -10.4938   17.8861 N   0  0  0  0  0  0  0  0  0  0  0  0
  -30.0867  -20.1684   18.1821 N   0  0  0  0  0  0  0  0  0  0  0  0
  -24.3381  -30.3873   24.2217 N   0  0  0  0  0  0  0  0  0  0  0  0
  -20.4223  -28.4470   18.9907 N   0  0  0  0  0  0  0  0  0  0  0  0
  -29.0349  -16.7694   18.5622 N   0  0  0  0  0  0  0  0  0  0  0  0
  -20.7832  -29.4458   15.5353 N   0  3  0  0  0  0  0  0  0  0  0  0
  -24.1968  -11.4497   16.2737 O   0  0  0  0  0  0  0  0  0  0  0  0
  -23.7118  -28.3396   23.3066 O   0  0  0  0  0  0  0  0  0  0  0  0
  -20.7983  -29.8531   21.4585 O   0  0  0  0  0  0  0  0  0  0  0  0
  -28.0406  -19.3049   18.9520 O   0  0  0  0  0  0  0  0  0  0  0  0
  -21.9157  -27.6666   17.3976 O   0  0  0  0  0  0  0  0  0  0  0  0
  -30.8340  -16.7815   19.9834 O   0  0  0  0  0  0  0  0  0  0  0  0
  -20.9815   -8.7209   22.8160 O   0  0  0  0  0  0  0  0  0  0  0  0
  -28.5573  -27.6005   18.8929 O   0  0  0  0  0  0  0  0  0  1  0  0
  -29.9377  -25.4320   19.9570 O   0  0  0  0  0  0  0  0  0  0  0  0
  -22.6170   -5.0986   26.6380 F   0  0  0  0  0  0  0  0  0  0  0  0
  -20.2300   -6.0647   22.6664 F   0  0  0  0  0  0  0  0  0  0  0  0
  1  2  1  0  0  0  0
  1  5  2  0  0  0  0
  2  6  2  0  0  0  0
  3  9  2  0  0  0  0
  3 18  1  0  0  0  0
  4 10  1  0  0  0  0
  4 18  2  0  0  0  0
  5 20  1  0  0  0  0
  6 22  1  0  0  0  0
  7 11  2  0  0  0  0
  7 21  1  0  0  0  0
  8 12  2  0  0  0  0
  8 25  1  0  0  0  0
  9 26  1  0  0  0  0
 10 26  2  0  0  0  0
 11 27  1  0  0  0  0
 12 28  1  0  0  0  0
 13 14  2  0  0  0  0
 13 29  1  0  0  0  0
 14 30  1  0  0  0  0
 15 23  1  0  0  0  0
 15 27  2  0  0  0  0
 16 24  1  0  0  0  0
 16 28  2  0  0  0  0
 17 30  2  0  0  0  0
 17 31  1  0  0  0  0
 18 32  1  0  0  0  0
 19 32  1  0  0  0  0
 19 33  2  0  0  0  0
 19 34  1  0  0  0  0
 20 22  2  0  0  0  0
 20 40  1  0  0  0  0
 21 23  2  0  0  0  0
 21 41  1  0  0  0  0
 22 49  1  0  0  0  0
 23 42  1  0  0  0  0
 24 25  2  0  0  0  0
 24 52  1  0  0  0  0
 25 73  1  0  0  0  0
 26 84  1  0  0  0  0
 27 85  1  0  0  0  0
 28 86  1  0  0  0  0
 29 31  2  0  0  0  0
 29 84  1  0  0  0  0
 30 87  1  0  0  0  0
 31 88  1  0  0  0  0
 32 67  2  0  0  0  0
 33 68  1  0  0  0  0
 33 71  1  0  0  0  0
 34 72  1  0  0  0  0
 34 78  2  0  0  0  0
 35 50  1  0  0  0  0
 35 74  1  0  0  0  0
 35 79  2  0  0  0  0
 36 62  1  0  0  0  0
 36 69  1  0  0  0  0
 36 80  2  0  0  0  0
 37 63  1  0  0  0  0
 37 73  1  0  0  0  0
 37 81  2  0  0  0  0
 38 64  1  0  0  0  0
 38 75  1  0  0  0  0
 38 82  2  0  0  0  0
 39 70  1  0  0  0  0
 39 76  1  0  0  0  0
 39 83  2  0  0  0  0
 40 43  1  0  0  0  0
 41 50  1  0  0  0  0
 42 69  1  0  0  0  0
 43 45  1  0  0  0  0
 44 46  1  0  0  0  0
 44 47  1  0  0  0  0
 45 49  1  0  0  0  0
 46 51  1  0  0  0  0
 47 70  1  0  0  0  0
 48 51  1  0  0  0  0
 48 70  1  0  0  0  0
 49 74  1  0  0  0  0
 50 69  1  0  0  0  0
 51 68  1  0  0  0  0
 53 64  1  0  0  0  0
 54 65  1  0  0  0  0
 55 65  1  0  0  0  0
 56 66  1  0  0  0  0
 57 66  1  0  0  0  0
 58 66  1  0  0  0  0
 59 77  1  0  0  0  0
 60 61  1  0  0  0  0
 60 85  1  0  0  0  0
 61 86  1  0  0  0  0
 62 66  1  0  0  0  0
 62 75  1  0  0  0  0
 63 65  1  0  0  0  0
 63 76  1  0  0  0  0
 64 77  1  0  0  0  0
 67 68  1  0  0  0  0
M  CHG  1  77   1
M  ISO  4  39 100  60 101  76 100  85 101
M  END
> <Batch ID>
0007

> <Smiles>
CNC(C)C(=O)NC(C(=O)N1Cc2cc([101O:1][101CH2:1]COc3ccc(NC(=O)C([100NH:0][100C:0](=O)N4CCCC(n5nc(-c6ccc(Oc7ccc(F)cc7F)cc6)c(C(N)=O)c5N)C4)C(C)C)c(C)c3)ccc2CC1C(=O)NC1CCCc2ccccc21)C(C)(C)C

> <Shape>
0.325

> <Color>
0.078

> <Negative vol penalty>
0.000

$$$$

  -OEChem-04052315333D

 76 83  0     1  0  0  0  0  0999 V2000
  -33.0392   -5.9105   28.4753 C   0  0  0  0  0  0  0  0  0  0  0  0
  -32.3001   -6.9593   27.9375 C   0  0  0  0  0  0  0  0  0  0  0  0
  -23.2263   -9.8325   19.9141 C   0  0  0  0  0  0  0  0  0  0  0  0
  -23.7982   -9.9276   22.2595 C   0  0  0  0  0  0  0  0  0  0  0  0
  -32.4003   -4.7291   28.8497 C   0  0  0  0  0  0  0  0  0  0  0  0
  -30.9218   -6.8269   27.7728 C   0  0  0  0  0  0  0  0  0  0  0  0
  -28.3791  -10.9286   29.3077 C   0  0  0  0  0  0  0  0  0  0  0  0
  -22.5036   -8.6607   20.1379 C   0  0  0  0  0  0  0  0  0  0  0  0
  -23.0754   -8.7558   22.4833 C   0  0  0  0  0  0  0  0  0  0  0  0
  -28.3686  -12.0287   28.4512 C   0  0  0  0  0  0  0  0  0  0  0  0
  -19.4761   -7.7987   21.3725 C   0  0  0  0  0  0  0  0  0  0  0  0
  -18.2149   -7.6931   20.7863 C   0  0  0  0  0  0  0  0  0  0  0  0
  -26.1672  -11.4049   27.6869 C   0  0  0  0  0  0  0  0  0  0  0  0
  -18.9438   -5.7366   19.5706 C   0  0  0  0  0  0  0  0  0  0  0  0
  -23.8737  -10.4660   20.9750 C   0  0  0  0  0  0  0  0  0  0  0  0
  -24.1398  -12.9976   20.8083 C   0  0  0  0  0  0  0  0  0  0  0  0
  -31.0120   -4.5858   28.6984 C   0  0  0  0  0  0  0  0  0  0  0  0
  -27.2865  -10.0508   29.3523 C   0  0  0  0  0  0  0  0  0  0  0  0
  -30.2639   -5.6421   28.1443 C   0  0  0  0  0  0  0  0  0  0  0  0
  -26.1653  -10.2959   28.5466 C   0  0  0  0  0  0  0  0  0  0  0  0
  -22.4281   -8.1224   21.4224 C   0  0  0  0  0  0  0  0  0  0  0  0
  -27.2637  -12.2654   27.6386 C   0  0  0  0  0  0  0  0  0  0  0  0
  -20.4712   -6.8733   21.0577 C   0  0  0  0  0  0  0  0  0  0  0  0
  -17.9487   -6.6621   19.8853 C   0  0  0  0  0  0  0  0  0  0  0  0
  -20.2050   -5.8423   20.1568 C   0  0  0  0  0  0  0  0  0  0  0  0
  -24.6210  -11.6761   20.7444 C   0  0  0  0  0  0  0  0  0  0  0  0
  -25.2321  -13.7755   20.5113 C   0  0  0  0  0  0  0  0  0  0  0  0
  -22.8232  -13.4789   21.1093 C   0  0  0  0  0  0  0  0  0  0  0  0
  -26.8629   -6.9629   28.7283 C   0  0  0  0  0  0  0  0  0  0  0  0
  -23.8922   -7.5334   29.8995 C   0  0  0  0  0  0  0  0  0  0  0  0
  -21.4107   -9.7898   30.5305 C   0  0  0  0  0  0  0  0  0  0  0  0
  -31.0492  -13.4662   21.5836 C   0  0  0  0  0  0  0  0  0  0  0  0
  -30.3726   -3.2724   29.0736 C   0  0  0  0  0  0  0  0  0  0  0  0
  -27.3022   -8.8837   30.3010 C   0  0  0  0  0  0  0  0  0  0  0  0
  -24.9585   -9.3950   28.5718 C   0  0  0  0  0  0  0  0  0  0  0  0
  -28.8547   -3.3520   29.2140 C   0  0  0  0  0  0  0  0  0  0  0  0
  -29.5447  -13.0291   18.2299 C   0  0  0  0  0  0  0  0  0  0  0  0
  -28.2480   -4.1028   28.0329 C   0  0  0  0  0  0  0  0  0  0  0  0
  -28.0923  -12.6876   18.5583 C   0  0  0  0  0  0  0  0  0  0  0  0
  -30.4949  -12.5950   19.3418 C   0  0  0  0  0  0  0  0  0  0  0  0
  -28.6819  -12.7857   21.0125 C   0  0  0  0  0  0  0  0  0  0  0  0
  -28.7634   -5.5458   27.9729 C   0  0  1  0  0  0  0  0  0  0  0  0
  -26.3488   -7.7662   29.8895 C   0  0  1  0  0  0  0  0  0  0  0  0
  -27.6935  -13.2517   19.9330 C   0  0  2  0  0  0  0  0  0  0  0  0
  -19.0852   -9.9519   31.4594 C   0  0  0  0  0  0  0  0  0  0  0  0
  -22.7821   -6.3332   27.3232 C   0  0  0  0  0  0  0  0  0  0  0  0
  -20.5709   -7.3693   27.8754 C   0  0  0  0  0  0  0  0  0  0  0  0
  -21.5605   -5.6597   29.3988 C   0  0  0  0  0  0  0  0  0  0  0  0
  -31.5813  -14.3604   23.8189 C   0  0  0  0  0  0  0  0  0  0  0  0
  -22.2756  -11.6210   32.6887 C   0  0  0  0  0  0  0  0  0  0  0  0
  -28.5758  -13.5889   24.2038 C   0  0  0  0  0  0  0  0  0  0  0  0
  -27.1466  -14.0477   24.4952 C   0  0  0  0  0  0  0  0  0  0  0  0
  -29.2280  -14.3872   23.0794 C   0  0  0  0  0  0  0  0  0  0  0  0
  -26.5029  -13.2099   25.5929 C   0  0  0  0  0  0  0  0  0  1  0  0
  -22.5755   -7.9734   29.3064 C   0  0  1  0  0  0  0  0  0  0  0  0
  -20.5711  -10.0434   31.7696 C   0  0  2  0  0  0  0  0  0  0  0  0
  -21.8956   -6.8500   28.4738 C   0  0  0  0  0  0  0  0  0  0  0  0
  -25.9179  -11.6142   20.4312 N   0  0  0  0  0  0  0  0  0  0  0  0
  -26.2610  -12.9065   20.2955 N   0  0  0  0  0  0  0  0  0  0  0  0
  -25.0245   -8.2636   29.5115 N   0  0  0  0  0  0  0  0  0  0  0  0
  -30.0683  -13.1091   20.6438 N   0  0  0  0  0  0  0  0  0  0  0  0
  -25.4033  -15.1111   20.4161 N   0  0  0  0  0  0  0  0  0  0  0  0
  -21.8183  -12.5436   21.3915 N   0  0  0  0  0  0  0  0  0  0  0  0
  -28.0877   -6.3652   28.9561 N   0  0  0  0  0  0  0  0  0  0  0  0
  -21.7696   -8.4631   30.4196 N   0  0  0  0  0  0  0  0  0  0  0  0
  -30.6022  -13.9657   22.8162 N   0  0  0  0  0  0  0  0  0  0  0  0
  -20.8541  -11.3999   32.3182 N   0  3  0  0  0  0  0  0  0  0  0  0
  -22.5423  -14.7014   21.1114 O   0  0  0  0  0  0  0  0  0  0  0  0
  -26.1969   -6.8896   27.7023 O   0  0  0  0  0  0  0  0  0  0  0  0
  -23.9142   -6.5816   30.6838 O   0  0  0  0  0  0  0  0  0  0  0  0
  -21.7145  -10.6789   29.7382 O   0  0  0  0  0  0  0  0  0  0  0  0
  -32.2558  -13.3544   21.3314 O   0  0  0  0  0  0  0  0  0  0  0  0
  -21.7227   -6.9791   21.6412 O   0  0  0  0  0  0  0  0  0  0  0  0
  -27.2511  -13.3380   26.8012 O   0  0  0  0  0  0  0  0  0  1  0  0
  -16.7370   -6.5599   19.3236 F   0  0  0  0  0  0  0  0  0  0  0  0
  -21.1567   -4.9496   19.8514 F   0  0  0  0  0  0  0  0  0  0  0  0
  1  2  1  0  0  0  0
  1  5  2  0  0  0  0
  2  6  2  0  0  0  0
  3  8  2  0  0  0  0
  3 15  1  0  0  0  0
  4  9  1  0  0  0  0
  4 15  2  0  0  0  0
  5 17  1  0  0  0  0
  6 19  1  0  0  0  0
  7 10  2  0  0  0  0
  7 18  1  0  0  0  0
  8 21  1  0  0  0  0
  9 21  2  0  0  0  0
 10 22  1  0  0  0  0
 11 12  2  0  0  0  0
 11 23  1  0  0  0  0
 12 24  1  0  0  0  0
 13 20  1  0  0  0  0
 13 22  2  0  0  0  0
 14 24  2  0  0  0  0
 14 25  1  0  0  0  0
 15 26  1  0  0  0  0
 16 26  1  0  0  0  0
 16 27  2  0  0  0  0
 16 28  1  0  0  0  0
 17 19  2  0  0  0  0
 17 33  1  0  0  0  0
 18 20  2  0  0  0  0
 18 34  1  0  0  0  0
 19 42  1  0  0  0  0
 20 35  1  0  0  0  0
 21 73  1  0  0  0  0
 22 74  1  0  0  0  0
 23 25  2  0  0  0  0
 23 73  1  0  0  0  0
 24 75  1  0  0  0  0
 25 76  1  0  0  0  0
 26 58  2  0  0  0  0
 27 59  1  0  0  0  0
 27 62  1  0  0  0  0
 28 63  1  0  0  0  0
 28 68  2  0  0  0  0
 29 43  1  0  0  0  0
 29 64  1  0  0  0  0
 29 69  2  0  0  0  0
 30 55  1  0  0  0  0
 30 60  1  0  0  0  0
 30 70  2  0  0  0  0
 31 56  1  0  0  0  0
 31 65  1  0  0  0  0
 31 71  2  0  0  0  0
 32 61  1  0  0  0  0
 32 66  1  0  0  0  0
 32 72  2  0  0  0  0
 33 36  1  0  0  0  0
 34 43  1  0  0  0  0
 35 60  1  0  0  0  0
 36 38  1  0  0  0  0
 37 39  1  0  0  0  0
 37 40  1  0  0  0  0
 38 42  1  0  0  0  0
 39 44  1  0  0  0  0
 40 61  1  0  0  0  0
 41 44  1  0  0  0  0
 41 61  1  0  0  0  0
 42 64  1  0  0  0  0
 43 60  1  0  0  0  0
 44 59  1  0  0  0  0
 45 56  1  0  0  0  0
 46 57  1  0  0  0  0
 47 57  1  0  0  0  0
 48 57  1  0  0  0  0
 49 66  1  0  0  0  0
 50 67  1  0  0  0  0
 51 52  1  0  0  0  0
 51 53  1  0  0  0  0
 52 54  1  0  0  0  0
 53 66  1  0  0  0  0
 54 74  1  0  0  0  0
 55 57  1  0  0  0  0
 55 65  1  0  0  0  0
 56 67  1  0  0  0  0
 58 59  1  0  0  0  0
M  CHG  1  67   1
M  ISO  4  32 100  54 101  66 100  74 101
M  END
> <Batch ID>
0007

> <Smiles>
CNC(C)C(=O)NC(C(=O)N1Cc2cc([101O:1][101CH2:1]CCC[100N:0](C)[100C:0](=O)N3CCCC(n4nc(-c5ccc(Oc6ccc(F)cc6F)cc5)c(C(N)=O)c4N)C3)ccc2CC1C(=O)NC1CCCc2ccccc21)C(C)(C)C

> <Shape>
0.129

> <Color>
0.190

> <Negative vol penalty>
0.000

$$$$

  -OEChem-04052315333D

 94103  0     1  0  0  0  0  0999 V2000
  -27.4469  -39.1252   22.5177 C   0  0  0  0  0  0  0  0  0  0  0  0
  -28.3612  -38.0825   22.6286 C   0  0  0  0  0  0  0  0  0  0  0  0
  -26.8411   -4.9725   17.0439 C   0  0  0  0  0  0  0  0  0  0  0  0
  -27.0206   -7.2761   16.3381 C   0  0  0  0  0  0  0  0  0  0  0  0
  -26.1939  -39.0190   23.1199 C   0  0  0  0  0  0  0  0  0  0  0  0
  -28.0234  -36.9334   23.3426 C   0  0  0  0  0  0  0  0  0  0  0  0
  -24.0400  -16.1102   21.4438 C   0  0  0  0  0  0  0  0  0  0  0  0
  -26.1200  -15.6826   20.2915 C   0  0  0  0  0  0  0  0  0  0  0  0
  -28.0761  -30.4575   20.1879 C   0  0  0  0  0  0  0  0  0  0  0  0
  -23.7019  -14.7614   21.3341 C   0  0  0  0  0  0  0  0  0  0  0  0
  -25.7819  -14.3338   20.1818 C   0  0  0  0  0  0  0  0  0  0  0  0
  -27.0851   -4.5527   15.7363 C   0  0  0  0  0  0  0  0  0  0  0  0
  -27.2646   -6.8563   15.0304 C   0  0  0  0  0  0  0  0  0  0  0  0
  -28.2660  -29.1597   19.7128 C   0  0  0  0  0  0  0  0  0  0  0  0
  -29.7553   -4.1888   13.6942 C   0  0  0  0  0  0  0  0  0  0  0  0
  -30.6628   -3.1463   13.5067 C   0  0  0  0  0  0  0  0  0  0  0  0
  -27.4494  -28.2629   21.8049 C   0  0  0  0  0  0  0  0  0  0  0  0
  -28.9292   -1.8246   12.4651 C   0  0  0  0  0  0  0  0  0  0  0  0
  -26.8089   -6.3341   17.3448 C   0  0  0  0  0  0  0  0  0  0  0  0
  -27.3195   -6.4716   19.8404 C   0  0  0  0  0  0  0  0  0  0  0  0
  -25.2490  -16.5708   20.9225 C   0  0  0  0  0  0  0  0  0  0  0  0
  -25.8370  -37.8640   23.8336 C   0  0  0  0  0  0  0  0  0  0  0  0
  -27.5571  -30.6631   21.4692 C   0  0  0  0  0  0  0  0  0  0  0  0
  -26.7650  -36.8122   23.9561 C   0  0  0  0  0  0  0  0  0  0  0  0
  -27.2453  -29.5605   22.2815 C   0  0  0  0  0  0  0  0  0  0  0  0
  -24.5728  -13.8732   20.7031 C   0  0  0  0  0  0  0  0  0  0  0  0
  -27.2969   -5.4947   14.7295 C   0  0  0  0  0  0  0  0  0  0  0  0
  -27.9536  -28.0651   20.5194 C   0  0  0  0  0  0  0  0  0  0  0  0
  -28.4347   -4.0492   13.2673 C   0  0  0  0  0  0  0  0  0  0  0  0
  -30.2498   -1.9642   12.8921 C   0  0  0  0  0  0  0  0  0  0  0  0
  -28.0217   -2.8671   12.6527 C   0  0  0  0  0  0  0  0  0  0  0  0
  -26.5564   -6.7684   18.6953 C   0  0  0  0  0  0  0  0  0  0  0  0
  -26.6672   -7.1145   20.8639 C   0  0  0  0  0  0  0  0  0  0  0  0
  -28.5116   -5.6851   19.9675 C   0  0  0  0  0  0  0  0  0  0  0  0
  -26.4726  -33.1309   24.0789 C   0  0  0  0  0  0  0  0  0  0  0  0
  -24.4334  -30.8394   24.1173 C   0  0  0  0  0  0  0  0  0  0  0  0
  -28.4861  -21.0207   20.2795 C   0  0  0  0  0  0  0  0  0  0  0  0
  -28.7126  -24.1203   18.9679 C   0  0  0  0  0  0  0  0  0  0  0  0
  -22.2122  -28.8153   23.1833 C   0  0  0  0  0  0  0  0  0  0  0  0
  -23.0701  -11.8821   21.0545 C   0  0  0  0  0  0  0  0  0  0  0  0
  -24.4885  -37.8146   24.5072 C   0  0  0  0  0  0  0  0  0  0  0  0
  -27.3938  -32.0435   22.0452 C   0  0  0  0  0  0  0  0  0  0  0  0
  -26.7219  -29.8296   23.6659 C   0  0  0  0  0  0  0  0  0  0  0  0
  -24.0698  -36.4087   24.9296 C   0  0  0  0  0  0  0  0  0  0  0  0
  -22.3066   -8.5921   22.1817 C   0  0  0  0  0  0  0  0  0  0  0  0
  -25.2205  -35.6983   25.6353 C   0  0  0  0  0  0  0  0  0  0  0  0
  -23.3829   -7.7249   21.5247 C   0  0  0  0  0  0  0  0  0  0  0  0
  -25.7551  -18.7203   19.6685 C   0  0  0  0  0  0  0  0  0  0  0  0
  -26.8875  -18.2568   21.8832 C   0  0  0  0  0  0  0  0  0  0  0  0
  -21.8530   -9.7257   21.2635 C   0  0  0  0  0  0  0  0  0  0  0  0
  -26.1240  -20.1955   19.8223 C   0  0  0  0  0  0  0  0  0  0  0  0
  -27.2274  -19.7426   21.9835 C   0  0  0  0  0  0  0  0  0  0  0  0
  -24.0109   -9.6977   20.0753 C   0  0  0  0  0  0  0  0  0  0  0  0
  -25.6155  -18.0337   21.0415 C   0  0  0  0  0  0  0  0  0  0  0  0
  -26.4264  -35.5394   24.7014 C   0  0  1  0  0  0  0  0  0  0  0  0
  -26.1670  -32.1720   22.9659 C   0  0  1  0  0  0  0  0  0  0  0  0
  -24.5460   -8.5814   20.9869 C   0  0  2  0  0  0  0  0  0  0  0  0
  -20.0501  -30.0849   23.2861 C   0  0  0  0  0  0  0  0  0  0  0  0
  -29.0991  -21.3527   16.4627 C   0  0  0  0  0  0  0  0  0  0  0  0
  -30.5714  -20.3573   18.2185 C   0  0  0  0  0  0  0  0  0  0  0  0
  -25.8188  -29.6763   26.5732 C   0  0  0  0  0  0  0  0  0  0  0  0
  -23.9069  -28.0768   26.8065 C   0  0  0  0  0  0  0  0  0  0  0  0
  -23.5058  -30.5323   26.9873 C   0  0  0  0  0  0  0  0  0  0  0  0
  -20.7038  -26.4076   24.0119 C   0  0  0  0  0  0  0  0  0  0  0  0
  -29.7457  -25.2013   19.2447 C   0  0  0  0  0  0  0  0  0  0  0  0
  -29.1866  -26.6083   19.0999 C   0  0  0  0  0  0  0  0  0  1  0  0
  -24.0206  -29.5236   24.7269 C   0  0  1  0  0  0  0  0  0  0  0  0
  -28.4955  -21.6387   18.9041 C   0  0  2  0  0  0  0  0  0  0  0  0
  -20.7003  -28.7255   23.0811 C   0  0  2  0  0  0  0  0  0  0  0  0
  -29.1251  -20.7102   17.8540 C   0  0  0  0  0  0  0  0  0  0  0  0
  -24.3281  -29.4534   26.2493 C   0  0  0  0  0  0  0  0  0  0  0  0
  -25.4999   -7.5396   18.9654 N   0  0  0  0  0  0  0  0  0  0  0  0
  -25.5945   -7.7329   20.2920 N   0  0  0  0  0  0  0  0  0  0  0  0
  -25.7425  -30.9269   23.6282 N   0  0  0  0  0  0  0  0  0  0  0  0
  -27.3243  -20.3464   20.6535 N   0  0  0  0  0  0  0  0  0  0  0  0
  -23.0075  -10.4963   20.7965 N   0  0  0  0  0  0  0  0  0  0  0  0
  -26.9122   -7.2054   22.1884 N   0  0  0  0  0  0  0  0  0  0  0  0
  -29.0491   -5.0955   18.8153 N   0  0  0  0  0  0  0  0  0  0  0  0
  -24.2298  -12.5029   20.5917 N   0  0  0  0  0  0  0  0  0  0  0  0
  -26.2063  -34.4517   23.7724 N   0  0  0  0  0  0  0  0  0  0  0  0
  -29.2551  -22.8510   19.1086 N   0  0  0  0  0  0  0  0  0  0  0  0
  -22.6120  -29.3430   24.3928 N   0  0  0  0  0  0  0  0  0  0  0  0
  -20.1663  -27.7891   24.1102 N   0  3  0  0  0  0  0  0  0  0  0  0
  -29.0740   -5.4969   21.0729 O   0  0  0  0  0  0  0  0  0  0  0  0
  -26.9159  -32.7048   25.1388 O   0  0  0  0  0  0  0  0  0  0  0  0
  -23.6212  -31.7679   24.0795 O   0  0  0  0  0  0  0  0  0  0  0  0
  -29.4829  -21.1334   20.9977 O   0  0  0  0  0  0  0  0  0  0  0  0
  -27.5491  -24.3636   18.6598 O   0  0  0  0  0  0  0  0  0  0  0  0
  -22.9636  -28.4501   22.2818 O   0  0  0  0  0  0  0  0  0  0  0  0
  -22.1743  -12.4693   21.6667 O   0  0  0  0  0  0  0  0  0  0  0  0
  -27.5352   -5.0854   13.4535 O   0  0  0  0  0  0  0  0  0  0  0  0
  -28.1372  -26.8008   20.0476 O   0  0  0  0  0  0  0  0  0  1  0  0
  -31.1217   -0.9637   12.7107 F   0  0  0  0  0  0  0  0  0  0  0  0
  -26.7546   -2.7276   12.2394 F   0  0  0  0  0  0  0  0  0  0  0  0
  1  2  1  0  0  0  0
  1  5  2  0  0  0  0
  2  6  2  0  0  0  0
  3 12  2  0  0  0  0
  3 19  1  0  0  0  0
  4 13  1  0  0  0  0
  4 19  2  0  0  0  0
  5 22  1  0  0  0  0
  6 24  1  0  0  0  0
  7 10  2  0  0  0  0
  7 21  1  0  0  0  0
  8 11  1  0  0  0  0
  8 21  2  0  0  0  0
  9 14  2  0  0  0  0
  9 23  1  0  0  0  0
 10 26  1  0  0  0  0
 11 26  2  0  0  0  0
 12 27  1  0  0  0  0
 13 27  2  0  0  0  0
 14 28  1  0  0  0  0
 15 16  2  0  0  0  0
 15 29  1  0  0  0  0
 16 30  1  0  0  0  0
 17 25  1  0  0  0  0
 17 28  2  0  0  0  0
 18 30  2  0  0  0  0
 18 31  1  0  0  0  0
 19 32  1  0  0  0  0
 20 32  1  0  0  0  0
 20 33  2  0  0  0  0
 20 34  1  0  0  0  0
 21 54  1  0  0  0  0
 22 24  2  0  0  0  0
 22 41  1  0  0  0  0
 23 25  2  0  0  0  0
 23 42  1  0  0  0  0
 24 55  1  0  0  0  0
 25 43  1  0  0  0  0
 26 79  1  0  0  0  0
 27 91  1  0  0  0  0
 28 92  1  0  0  0  0
 29 31  2  0  0  0  0
 29 91  1  0  0  0  0
 30 93  1  0  0  0  0
 31 94  1  0  0  0  0
 32 72  2  0  0  0  0
 33 73  1  0  0  0  0
 33 77  1  0  0  0  0
 34 78  1  0  0  0  0
 34 84  2  0  0  0  0
 35 56  1  0  0  0  0
 35 80  1  0  0  0  0
 35 85  2  0  0  0  0
 36 67  1  0  0  0  0
 36 74  1  0  0  0  0
 36 86  2  0  0  0  0
 37 68  1  0  0  0  0
 37 75  1  0  0  0  0
 37 87  2  0  0  0  0
 38 65  1  0  0  0  0
 38 81  1  0  0  0  0
 38 88  2  0  0  0  0
 39 69  1  0  0  0  0
 39 82  1  0  0  0  0
 39 89  2  0  0  0  0
 40 76  1  0  0  0  0
 40 79  1  0  0  0  0
 40 90  2  0  0  0  0
 41 44  1  0  0  0  0
 42 56  1  0  0  0  0
 43 74  1  0  0  0  0
 44 46  1  0  0  0  0
 45 47  1  0  0  0  0
 45 50  1  0  0  0  0
 46 55  1  0  0  0  0
 47 57  1  0  0  0  0
 48 51  1  0  0  0  0
 48 54  1  0  0  0  0
 49 52  1  0  0  0  0
 49 54  1  0  0  0  0
 50 76  1  0  0  0  0
 51 75  1  0  0  0  0
 52 75  1  0  0  0  0
 53 57  1  0  0  0  0
 53 76  1  0  0  0  0
 55 80  1  0  0  0  0
 56 74  1  0  0  0  0
 57 73  1  0  0  0  0
 58 69  1  0  0  0  0
 59 70  1  0  0  0  0
 60 70  1  0  0  0  0
 61 71  1  0  0  0  0
 62 71  1  0  0  0  0
 63 71  1  0  0  0  0
 64 83  1  0  0  0  0
 65 66  1  0  0  0  0
 66 92  1  0  0  0  0
 67 71  1  0  0  0  0
 67 82  1  0  0  0  0
 68 70  1  0  0  0  0
 68 81  1  0  0  0  0
 69 83  1  0  0  0  0
 72 73  1  0  0  0  0
M  CHG  1  83   1
M  ISO  4  40 100  66 101  79 100  92 101
M  END
> <Batch ID>
0007

> <Smiles>
CNC(C)C(=O)NC(C(=O)N1Cc2cc([101O:1][101CH2:1]CC(=O)NC(C(=O)N3CCC(c4ccc([100NH:0][100C:0](=O)N5CCCC(n6nc(-c7ccc(Oc8ccc(F)cc8F)cc7)c(C(N)=O)c6N)C5)cc4)CC3)C(C)C)ccc2CC1C(=O)NC1CCCc2ccccc21)C(C)(C)C

> <Shape>
0.262

> <Color>
0.065

> <Negative vol penalty>
0.000

$$$$

  -OEChem-04052315333D

 91100  0     1  0  0  0  0  0999 V2000
  -16.9335  -28.0154   22.9794 C   0  0  0  0  0  0  0  0  0  0  0  0
  -17.9739  -27.1886   23.3911 C   0  0  0  0  0  0  0  0  0  0  0  0
  -22.8637  -23.9593   24.8384 C   0  0  0  0  0  0  0  0  0  0  0  0
  -27.7302  -12.4949   18.8419 C   0  0  0  0  0  0  0  0  0  0  0  0
  -28.3001  -13.5490   20.9398 C   0  0  0  0  0  0  0  0  0  0  0  0
  -17.1982  -29.1107   22.1584 C   0  0  0  0  0  0  0  0  0  0  0  0
  -19.2795  -27.4561   22.9810 C   0  0  0  0  0  0  0  0  0  0  0  0
  -26.0583  -26.9294   25.2366 C   0  0  0  0  0  0  0  0  0  0  0  0
  -23.0270  -22.8714   23.9809 C   0  0  0  0  0  0  0  0  0  0  0  0
  -25.3740  -23.4703   20.8967 C   0  0  0  0  0  0  0  0  0  0  0  0
  -26.8955  -21.7899   21.7323 C   0  0  0  0  0  0  0  0  0  0  0  0
  -29.0129  -11.9522   18.7661 C   0  0  0  0  0  0  0  0  0  0  0  0
  -29.5828  -13.0063   20.8640 C   0  0  0  0  0  0  0  0  0  0  0  0
  -27.2928  -26.4255   24.8294 C   0  0  0  0  0  0  0  0  0  0  0  0
  -26.4500  -24.3244   20.6550 C   0  0  0  0  0  0  0  0  0  0  0  0
  -27.9716  -22.6439   21.4906 C   0  0  0  0  0  0  0  0  0  0  0  0
  -32.2529  -10.5840   17.8420 C   0  0  0  0  0  0  0  0  0  0  0  0
  -23.8018  -24.2039   25.8413 C   0  0  0  0  0  0  0  0  0  0  0  0
  -32.9185  -10.6574   16.6184 C   0  0  0  0  0  0  0  0  0  0  0  0
  -27.6420  -28.3916   23.4759 C   0  0  0  0  0  0  0  0  0  0  0  0
  -25.0665  -22.2725   25.1293 C   0  0  0  0  0  0  0  0  0  0  0  0
  -32.7803  -13.0684   16.6879 C   0  0  0  0  0  0  0  0  0  0  0  0
  -27.3738  -13.2934   19.9287 C   0  0  0  0  0  0  0  0  0  0  0  0
  -24.9146  -13.2756   20.6067 C   0  0  0  0  0  0  0  0  0  0  0  0
  -18.5090  -29.3973   21.7459 C   0  0  0  0  0  0  0  0  0  0  0  0
  -25.6007  -28.1652   24.7572 C   0  0  0  0  0  0  0  0  0  0  0  0
  -19.5618  -28.5555   22.1526 C   0  0  0  0  0  0  0  0  0  0  0  0
  -26.4025  -28.9101   23.8806 C   0  0  0  0  0  0  0  0  0  0  0  0
  -25.5968  -22.2031   21.4354 C   0  0  0  0  0  0  0  0  0  0  0  0
  -24.1284  -22.0280   24.1263 C   0  0  0  0  0  0  0  0  0  0  0  0
  -29.9392  -12.2079   19.7771 C   0  0  0  0  0  0  0  0  0  0  0  0
  -27.7488  -23.9112   20.9519 C   0  0  0  0  0  0  0  0  0  0  0  0
  -28.0836  -27.1553   23.9467 C   0  0  0  0  0  0  0  0  0  0  0  0
  -31.8509  -11.7528   18.4885 C   0  0  0  0  0  0  0  0  0  0  0  0
  -24.9032  -23.3605   25.9867 C   0  0  0  0  0  0  0  0  0  0  0  0
  -33.1823  -11.8996   16.0414 C   0  0  0  0  0  0  0  0  0  0  0  0
  -32.1147  -12.9950   17.9115 C   0  0  0  0  0  0  0  0  0  0  0  0
  -26.0491  -13.8547   20.0073 C   0  0  0  0  0  0  0  0  0  0  0  0
  -23.9159  -14.1989   20.4151 C   0  0  0  0  0  0  0  0  0  0  0  0
  -24.7759  -12.0157   21.2769 C   0  0  0  0  0  0  0  0  0  0  0  0
  -23.1059  -29.1181   23.0333 C   0  0  0  0  0  0  0  0  0  0  0  0
  -24.2580  -32.0728   23.7151 C   0  0  0  0  0  0  0  0  0  0  0  0
  -26.9292  -34.0120   24.5816 C   0  0  0  0  0  0  0  0  0  0  0  0
  -23.9512  -20.1248   19.5586 C   0  0  0  0  0  0  0  0  0  0  0  0
  -18.7397  -30.5652   20.8199 C   0  0  0  0  0  0  0  0  0  0  0  0
  -24.2786  -28.7071   25.2269 C   0  0  0  0  0  0  0  0  0  0  0  0
  -25.9660  -30.2515   23.3527 C   0  0  0  0  0  0  0  0  0  0  0  0
  -20.2016  -30.9964   20.7358 C   0  0  0  0  0  0  0  0  0  0  0  0
  -22.5422  -17.6596   17.4105 C   0  0  0  0  0  0  0  0  0  0  0  0
  -21.1068  -29.7822   20.5544 C   0  0  0  0  0  0  0  0  0  0  0  0
  -23.1789  -16.3526   17.8865 C   0  0  0  0  0  0  0  0  0  0  0  0
  -23.5227  -18.8275   17.4922 C   0  0  0  0  0  0  0  0  0  0  0  0
  -24.7868  -17.7111   19.2893 C   0  0  0  0  0  0  0  0  0  0  0  0
  -20.9948  -28.8272   21.7490 C   0  0  1  0  0  0  0  0  0  0  0  0
  -23.6831  -29.7389   24.2739 C   0  0  1  0  0  0  0  0  0  0  0  0
  -23.8193  -16.5152   19.2782 C   0  0  2  0  0  0  0  0  0  0  0  0
  -23.1578  -19.8390   23.4006 C   0  0  0  0  0  0  0  0  0  0  0  0
  -27.5698  -36.3969   25.0280 C   0  0  0  0  0  0  0  0  0  0  0  0
  -24.2278  -32.6395   20.7171 C   0  0  0  0  0  0  0  0  0  0  0  0
  -25.7269  -34.5989   21.1430 C   0  0  0  0  0  0  0  0  0  0  0  0
  -23.4435  -34.5367   22.1454 C   0  0  0  0  0  0  0  0  0  0  0  0
  -27.7245  -33.3989   27.3656 C   0  0  0  0  0  0  0  0  0  0  0  0
  -30.6505  -25.9541   21.6867 C   0  0  0  0  0  0  0  0  0  0  0  0
  -29.9348  -24.6178   21.5665 C   0  0  0  0  0  0  0  0  0  0  0  0
  -29.7420  -27.0376   22.2462 C   0  0  0  0  0  0  0  0  0  1  0  0
  -24.3058  -20.8400   23.1890 C   0  0  1  0  0  0  0  0  0  0  0  0
  -24.4466  -21.2896   21.6933 C   0  0  2  0  0  0  0  0  0  0  0  0
  -25.2414  -33.0137   23.0620 C   0  0  1  0  0  0  0  0  0  0  0  0
  -27.0912  -35.0890   25.6390 C   0  0  2  0  0  0  0  0  0  0  0  0
  -24.6675  -33.6711   21.7751 C   0  0  0  0  0  0  0  0  0  0  0  0
  -25.7957  -15.0530   19.4746 N   0  0  0  0  0  0  0  0  0  0  0  0
  -24.4905  -15.2344   19.7385 N   0  0  0  0  0  0  0  0  0  0  0  0
  -24.6625  -30.7358   23.8365 N   0  0  0  0  0  0  0  0  0  0  0  0
  -24.0931  -18.9276   18.8378 N   0  0  0  0  0  0  0  0  0  0  0  0
  -22.6111  -14.2178   20.7608 N   0  0  0  0  0  0  0  0  0  0  0  0
  -25.9024  -11.1890   21.3854 N   0  0  0  0  0  0  0  0  0  0  0  0
  -21.7505  -29.3345   22.8742 N   0  0  0  0  0  0  0  0  0  0  0  0
  -25.6409  -33.9662   24.0923 N   0  0  0  0  0  0  0  0  0  0  0  0
  -24.5156  -20.1330   20.8283 N   0  0  0  0  0  0  0  0  0  0  0  0
  -28.0812  -34.6607   26.6673 N   0  3  0  0  0  0  0  0  0  0  0  0
  -23.6813  -11.6271   21.7507 O   0  0  0  0  0  0  0  0  0  0  0  0
  -23.8366  -28.4905   22.2756 O   0  0  0  0  0  0  0  0  0  0  0  0
  -23.1739  -32.5094   24.1097 O   0  0  0  0  0  0  0  0  0  0  0  0
  -27.8541  -33.2864   24.2226 O   0  0  0  0  0  0  0  0  0  0  0  0
  -23.3602  -21.1113   19.1064 O   0  0  0  0  0  0  0  0  0  0  0  0
  -31.1909  -11.6783   19.7036 O   0  0  0  0  0  0  0  0  0  0  0  0
  -28.8061  -24.7501   20.7131 O   0  0  0  0  0  0  0  0  0  0  0  0
  -29.2887  -26.6655   23.5471 O   0  0  0  0  0  0  0  0  0  1  0  0
  -25.8039  -23.5950   26.9500 F   0  0  0  0  0  0  0  0  0  0  0  0
  -33.8228  -11.9700   14.8671 F   0  0  0  0  0  0  0  0  0  0  0  0
  -31.7320  -14.1214   18.5284 F   0  0  0  0  0  0  0  0  0  0  0  0
  1  2  1  0  0  0  0
  1  6  2  0  0  0  0
  2  7  2  0  0  0  0
  3  9  2  0  0  0  0
  3 18  1  0  0  0  0
  4 12  2  0  0  0  0
  4 23  1  0  0  0  0
  5 13  1  0  0  0  0
  5 23  2  0  0  0  0
  6 25  1  0  0  0  0
  7 27  1  0  0  0  0
  8 14  2  0  0  0  0
  8 26  1  0  0  0  0
  9 30  1  0  0  0  0
 10 15  2  0  0  0  0
 10 29  1  0  0  0  0
 11 16  1  0  0  0  0
 11 29  2  0  0  0  0
 12 31  1  0  0  0  0
 13 31  2  0  0  0  0
 14 33  1  0  0  0  0
 15 32  1  0  0  0  0
 16 32  2  0  0  0  0
 17 19  2  0  0  0  0
 17 34  1  0  0  0  0
 18 35  2  0  0  0  0
 19 36  1  0  0  0  0
 20 28  1  0  0  0  0
 20 33  2  0  0  0  0
 21 30  2  0  0  0  0
 21 35  1  0  0  0  0
 22 36  2  0  0  0  0
 22 37  1  0  0  0  0
 23 38  1  0  0  0  0
 24 38  1  0  0  0  0
 24 39  2  0  0  0  0
 24 40  1  0  0  0  0
 25 27  2  0  0  0  0
 25 45  1  0  0  0  0
 26 28  2  0  0  0  0
 26 46  1  0  0  0  0
 27 54  1  0  0  0  0
 28 47  1  0  0  0  0
 29 67  1  0  0  0  0
 30 66  1  0  0  0  0
 31 86  1  0  0  0  0
 32 87  1  0  0  0  0
 33 88  1  0  0  0  0
 34 37  2  0  0  0  0
 34 86  1  0  0  0  0
 35 89  1  0  0  0  0
 36 90  1  0  0  0  0
 37 91  1  0  0  0  0
 38 71  2  0  0  0  0
 39 72  1  0  0  0  0
 39 75  1  0  0  0  0
 40 76  1  0  0  0  0
 40 81  2  0  0  0  0
 41 55  1  0  0  0  0
 41 77  1  0  0  0  0
 41 82  2  0  0  0  0
 42 68  1  0  0  0  0
 42 73  1  0  0  0  0
 42 83  2  0  0  0  0
 43 69  1  0  0  0  0
 43 78  1  0  0  0  0
 43 84  2  0  0  0  0
 44 74  1  0  0  0  0
 44 79  1  0  0  0  0
 44 85  2  0  0  0  0
 45 48  1  0  0  0  0
 46 55  1  0  0  0  0
 47 73  1  0  0  0  0
 48 50  1  0  0  0  0
 49 51  1  0  0  0  0
 49 52  1  0  0  0  0
 50 54  1  0  0  0  0
 51 56  1  0  0  0  0
 52 74  1  0  0  0  0
 53 56  1  0  0  0  0
 53 74  1  0  0  0  0
 54 77  1  0  0  0  0
 55 73  1  0  0  0  0
 56 72  1  0  0  0  0
 57 66  1  0  0  0  0
 58 69  1  0  0  0  0
 59 70  1  0  0  0  0
 60 70  1  0  0  0  0
 61 70  1  0  0  0  0
 62 80  1  0  0  0  0
 63 64  1  0  0  0  0
 63 65  1  0  0  0  0
 64 87  1  0  0  0  0
 65 88  1  0  0  0  0
 66 67  1  0  0  0  0
 67 79  1  0  0  0  0
 68 70  1  0  0  0  0
 68 78  1  0  0  0  0
 69 80  1  0  0  0  0
 71 72  1  0  0  0  0
M  CHG  1  80   1
M  ISO  4  44 100  65 101  79 100  88 101
M  END
> <Batch ID>
0007

> <Smiles>
CNC(C)C(=O)NC(C(=O)N1Cc2cc([101O:1][101CH2:1]CCOc3ccc(C([100NH:0][100C:0](=O)N4CCCC(n5nc(-c6ccc(Oc7ccc(F)cc7F)cc6)c(C(N)=O)c5N)C4)C(C)c4cccc(F)c4)cc3)ccc2CC1C(=O)NC1CCCc2ccccc21)C(C)(C)C

> <Shape>
0.221

> <Color>
0.096

> <Negative vol penalty>
0.000

$$$$

  -OEChem-04052315333D

 80 88  0     1  0  0  0  0  0999 V2000
  -23.6037  -32.7327   26.6389 C   0  0  0  0  0  0  0  0  0  0  0  0
  -24.8776  -32.2842   26.3049 C   0  0  0  0  0  0  0  0  0  0  0  0
  -24.0384   -9.7255   21.7182 C   0  0  0  0  0  0  0  0  0  0  0  0
  -24.6425  -10.9968   23.6819 C   0  0  0  0  0  0  0  0  0  0  0  0
  -22.4822  -32.0179   26.2204 C   0  0  0  0  0  0  0  0  0  0  0  0
  -25.0306  -31.1199   25.5529 C   0  0  0  0  0  0  0  0  0  0  0  0
  -29.3094  -28.1866   20.6129 C   0  0  0  0  0  0  0  0  0  0  0  0
  -28.4287  -19.3882   20.5060 C   0  0  0  0  0  0  0  0  0  0  0  0
  -30.7877  -18.9562   20.2141 C   0  0  0  0  0  0  0  0  0  0  0  0
  -23.6100   -8.6752   22.5300 C   0  0  0  0  0  0  0  0  0  0  0  0
  -24.2141   -9.9465   24.4937 C   0  0  0  0  0  0  0  0  0  0  0  0
  -30.0416  -27.0241   20.3755 C   0  0  0  0  0  0  0  0  0  0  0  0
  -28.7132  -20.7096   20.8503 C   0  0  0  0  0  0  0  0  0  0  0  0
  -31.0723  -20.2777   20.5583 C   0  0  0  0  0  0  0  0  0  0  0  0
  -20.8982   -7.9212   24.4037 C   0  0  0  0  0  0  0  0  0  0  0  0
  -19.6779   -7.3201   24.0957 C   0  0  0  0  0  0  0  0  0  0  0  0
  -28.0298  -25.9145   19.6402 C   0  0  0  0  0  0  0  0  0  0  0  0
  -20.7990   -5.2023   23.7872 C   0  0  0  0  0  0  0  0  0  0  0  0
  -24.5547  -10.8863   22.2942 C   0  0  0  0  0  0  0  0  0  0  0  0
  -24.2291  -13.0552   20.9913 C   0  0  0  0  0  0  0  0  0  0  0  0
  -22.6213  -30.8496   25.4547 C   0  0  0  0  0  0  0  0  0  0  0  0
  -27.9277  -28.2185   20.3757 C   0  0  0  0  0  0  0  0  0  0  0  0
  -23.9099  -30.3881   25.1249 C   0  0  0  0  0  0  0  0  0  0  0  0
  -27.2828  -27.0794   19.8730 C   0  0  0  0  0  0  0  0  0  0  0  0
  -29.4659  -18.5115   20.1880 C   0  0  0  0  0  0  0  0  0  0  0  0
  -23.6979   -8.7857   23.9177 C   0  0  0  0  0  0  0  0  0  0  0  0
  -30.0350  -21.1544   20.8764 C   0  0  0  0  0  0  0  0  0  0  0  0
  -29.4013  -25.8869   19.8918 C   0  0  0  0  0  0  0  0  0  0  0  0
  -22.0690   -7.1629   24.4033 C   0  0  0  0  0  0  0  0  0  0  0  0
  -19.6282   -5.9606   23.7875 C   0  0  0  0  0  0  0  0  0  0  0  0
  -22.0194   -5.8035   24.0952 C   0  0  0  0  0  0  0  0  0  0  0  0
  -24.9979  -11.9714   21.4562 C   0  0  0  0  0  0  0  0  0  0  0  0
  -25.1050  -13.8005   20.2404 C   0  0  0  0  0  0  0  0  0  0  0  0
  -22.8468  -13.3610   21.2181 C   0  0  0  0  0  0  0  0  0  0  0  0
  -25.3524  -28.6868   22.1791 C   0  0  0  0  0  0  0  0  0  0  0  0
  -23.8160  -28.5983   19.3236 C   0  0  0  0  0  0  0  0  0  0  0  0
  -23.8009  -27.5601   16.0727 C   0  0  0  0  0  0  0  0  0  0  0  0
  -30.0881  -16.1705   19.4959 C   0  0  0  0  0  0  0  0  0  0  0  0
  -21.3810  -30.0848   25.0655 C   0  0  0  0  0  0  0  0  0  0  0  0
  -27.1569  -29.4884   20.6116 C   0  0  0  0  0  0  0  0  0  0  0  0
  -25.8050  -27.0680   19.5827 C   0  0  0  0  0  0  0  0  0  0  0  0
  -21.6176  -29.0659   23.9537 C   0  0  0  0  0  0  0  0  0  0  0  0
  -29.7771  -12.7363   18.6092 C   0  0  0  0  0  0  0  0  0  0  0  0
  -22.8728  -28.2471   24.2383 C   0  0  0  0  0  0  0  0  0  0  0  0
  -28.4427  -12.3203   19.2326 C   0  0  0  0  0  0  0  0  0  0  0  0
  -30.5327  -13.7256   19.4945 C   0  0  0  0  0  0  0  0  0  0  0  0
  -28.4296  -14.4937   20.5222 C   0  0  0  0  0  0  0  0  0  0  0  0
  -24.1161  -29.1431   24.2896 C   0  0  1  0  0  0  0  0  0  0  0  0
  -25.6647  -29.2513   20.8221 C   0  0  1  0  0  0  0  0  0  0  0  0
  -27.6025  -13.5476   19.6365 C   0  0  2  0  0  0  0  0  0  0  0  0
  -22.3923  -27.6068   13.9963 C   0  0  0  0  0  0  0  0  0  0  0  0
  -22.0062  -26.4448   20.5056 C   0  0  0  0  0  0  0  0  0  0  0  0
  -21.2844  -25.8720   18.1778 C   0  0  0  0  0  0  0  0  0  0  0  0
  -20.8257  -28.1437   19.1006 C   0  0  0  0  0  0  0  0  0  0  0  0
  -25.8720  -29.0381   14.5612 C   0  0  0  0  0  0  0  0  0  0  0  0
  -31.4746  -23.0311   20.6290 C   0  0  0  0  0  0  0  0  0  0  0  0
  -31.2605  -24.5247   20.4780 C   0  0  0  0  0  0  0  0  0  1  0  0
  -23.1936  -27.5139   18.4776 C   0  0  1  0  0  0  0  0  0  0  0  0
  -23.4968  -28.2975   14.7811 C   0  0  2  0  0  0  0  0  0  0  0  0
  -21.8550  -26.9929   19.0726 C   0  0  0  0  0  0  0  0  0  0  0  0
  -26.2647  -12.0199   21.0356 N   0  0  0  0  0  0  0  0  0  0  0  0
  -26.2986  -13.1431   20.2986 N   0  0  0  0  0  0  0  0  0  0  0  0
  -25.0938  -28.3320   19.8355 N   0  0  0  0  0  0  0  0  0  0  0  0
  -29.6758  -14.8640   19.8332 N   0  0  0  0  0  0  0  0  0  0  0  0
  -24.9629  -14.9473   19.5425 N   0  0  0  0  0  0  0  0  0  0  0  0
  -22.0914  -12.4891   22.0140 N   0  0  0  0  0  0  0  0  0  0  0  0
  -29.1770  -17.1691   19.8384 N   0  0  0  0  0  0  0  0  0  0  0  0
  -24.5408  -29.4954   22.9517 N   0  0  0  0  0  0  0  0  0  0  0  0
  -23.0753  -28.0638   17.1314 N   0  0  0  0  0  0  0  0  0  0  0  0
  -24.7133  -28.3622   13.9228 N   0  3  0  0  0  0  0  0  0  0  0  0
  -22.2936  -14.3687   20.7159 O   0  0  0  0  0  0  0  0  0  0  0  0
  -25.8125  -27.5975   22.5008 O   0  0  0  0  0  0  0  0  0  0  0  0
  -23.1943  -29.6461   19.5170 O   0  0  0  0  0  0  0  0  0  0  0  0
  -24.5992  -26.6277   16.1352 O   0  0  0  0  0  0  0  0  0  0  0  0
  -31.1575  -16.3850   18.9194 O   0  0  0  0  0  0  0  0  0  0  0  0
  -23.2797   -7.7611   24.7101 O   0  0  0  0  0  0  0  0  0  0  0  0
  -30.3146  -22.4523   21.2145 O   0  0  0  0  0  0  0  0  0  0  0  0
  -30.1134  -24.7508   19.6598 O   0  0  0  0  0  0  0  0  0  1  0  0
  -18.4560   -5.3831   23.4933 F   0  0  0  0  0  0  0  0  0  0  0  0
  -23.1406   -5.0696   24.0944 F   0  0  0  0  0  0  0  0  0  0  0  0
  1  2  1  0  0  0  0
  1  5  2  0  0  0  0
  2  6  2  0  0  0  0
  3 10  2  0  0  0  0
  3 19  1  0  0  0  0
  4 11  1  0  0  0  0
  4 19  2  0  0  0  0
  5 21  1  0  0  0  0
  6 23  1  0  0  0  0
  7 12  2  0  0  0  0
  7 22  1  0  0  0  0
  8 13  2  0  0  0  0
  8 25  1  0  0  0  0
  9 14  1  0  0  0  0
  9 25  2  0  0  0  0
 10 26  1  0  0  0  0
 11 26  2  0  0  0  0
 12 28  1  0  0  0  0
 13 27  1  0  0  0  0
 14 27  2  0  0  0  0
 15 16  2  0  0  0  0
 15 29  1  0  0  0  0
 16 30  1  0  0  0  0
 17 24  1  0  0  0  0
 17 28  2  0  0  0  0
 18 30  2  0  0  0  0
 18 31  1  0  0  0  0
 19 32  1  0  0  0  0
 20 32  1  0  0  0  0
 20 33  2  0  0  0  0
 20 34  1  0  0  0  0
 21 23  2  0  0  0  0
 21 39  1  0  0  0  0
 22 24  2  0  0  0  0
 22 40  1  0  0  0  0
 23 48  1  0  0  0  0
 24 41  1  0  0  0  0
 25 67  1  0  0  0  0
 26 76  1  0  0  0  0
 27 77  1  0  0  0  0
 28 78  1  0  0  0  0
 29 31  2  0  0  0  0
 29 76  1  0  0  0  0
 30 79  1  0  0  0  0
 31 80  1  0  0  0  0
 32 61  2  0  0  0  0
 33 62  1  0  0  0  0
 33 65  1  0  0  0  0
 34 66  1  0  0  0  0
 34 71  2  0  0  0  0
 35 49  1  0  0  0  0
 35 68  1  0  0  0  0
 35 72  2  0  0  0  0
 36 58  1  0  0  0  0
 36 63  1  0  0  0  0
 36 73  2  0  0  0  0
 37 59  1  0  0  0  0
 37 69  1  0  0  0  0
 37 74  2  0  0  0  0
 38 64  1  0  0  0  0
 38 67  1  0  0  0  0
 38 75  2  0  0  0  0
 39 42  1  0  0  0  0
 40 49  1  0  0  0  0
 41 63  1  0  0  0  0
 42 44  1  0  0  0  0
 43 45  1  0  0  0  0
 43 46  1  0  0  0  0
 44 48  1  0  0  0  0
 45 50  1  0  0  0  0
 46 64  1  0  0  0  0
 47 50  1  0  0  0  0
 47 64  1  0  0  0  0
 48 68  1  0  0  0  0
 49 63  1  0  0  0  0
 50 62  1  0  0  0  0
 51 59  1  0  0  0  0
 52 60  1  0  0  0  0
 53 60  1  0  0  0  0
 54 60  1  0  0  0  0
 55 70  1  0  0  0  0
 56 57  1  0  0  0  0
 56 77  1  0  0  0  0
 57 78  1  0  0  0  0
 58 60  1  0  0  0  0
 58 69  1  0  0  0  0
 59 70  1  0  0  0  0
 61 62  1  0  0  0  0
M  CHG  1  70   1
M  ISO  4  38 100  57 101  67 100  78 101
M  END
> <Batch ID>
0007

> <Smiles>
CNC(C)C(=O)NC(C(=O)N1Cc2cc([101O:1][101CH2:1]COc3ccc([100NH:0][100C:0](=O)N4CCCC(n5nc(-c6ccc(Oc7ccc(F)cc7F)cc6)c(C(N)=O)c5N)C4)cc3)ccc2CC1C(=O)NC1CCCc2ccccc21)C(C)(C)C

> <Shape>
0.290

> <Color>
0.124

> <Negative vol penalty>
0.000

$$$$

  -OEChem-04052315333D

 95103  0     1  0  0  0  0  0999 V2000
  -25.3781  -22.5070   18.2132 C   0  0  0  0  0  0  0  0  0  0  0  0
  -25.4690  -23.8775   18.4285 C   0  0  0  0  0  0  0  0  0  0  0  0
  -26.0029  -13.8355   21.2101 C   0  0  0  0  0  0  0  0  0  0  0  0
  -26.2514  -13.9426   18.8093 C   0  0  0  0  0  0  0  0  0  0  0  0
  -29.3606  -22.9087   13.7977 C   0  0  0  0  0  0  0  0  0  0  0  0
  -24.7758  -21.6933   19.1705 C   0  0  0  0  0  0  0  0  0  0  0  0
  -24.9683  -24.4332   19.6064 C   0  0  0  0  0  0  0  0  0  0  0  0
  -25.8674  -29.2072   20.3837 C   0  0  0  0  0  0  0  0  0  0  0  0
  -29.1546  -21.5296   13.8323 C   0  0  0  0  0  0  0  0  0  0  0  0
  -24.9197  -12.9697   21.0594 C   0  0  0  0  0  0  0  0  0  0  0  0
  -25.1682  -13.0768   18.6586 C   0  0  0  0  0  0  0  0  0  0  0  0
  -25.2372  -30.2201   19.6620 C   0  0  0  0  0  0  0  0  0  0  0  0
  -24.4249   -9.6883   20.4110 C   0  0  0  0  0  0  0  0  0  0  0  0
  -24.3756   -8.5625   21.2330 C   0  0  0  0  0  0  0  0  0  0  0  0
  -29.0440  -23.0161   16.1904 C   0  0  0  0  0  0  0  0  0  0  0  0
  -23.8017  -30.6633   21.5494 C   0  0  0  0  0  0  0  0  0  0  0  0
  -22.2673   -9.3172   22.1400 C   0  0  0  0  0  0  0  0  0  0  0  0
  -26.6688  -14.3219   20.0851 C   0  0  0  0  0  0  0  0  0  0  0  0
  -29.3054  -23.6520   14.9767 C   0  0  0  0  0  0  0  0  0  0  0  0
  -29.1453  -14.8664   20.3648 C   0  0  0  0  0  0  0  0  0  0  0  0
  -24.2567  -22.2418   20.3548 C   0  0  0  0  0  0  0  0  0  0  0  0
  -25.4614  -28.9070   21.6919 C   0  0  0  0  0  0  0  0  0  0  0  0
  -24.3783  -23.6255   20.5954 C   0  0  0  0  0  0  0  0  0  0  0  0
  -24.4300  -29.6479   22.2864 C   0  0  0  0  0  0  0  0  0  0  0  0
  -28.8931  -20.8938   15.0459 C   0  0  0  0  0  0  0  0  0  0  0  0
  -28.8378  -21.6370   16.2250 C   0  0  0  0  0  0  0  0  0  0  0  0
  -24.5023  -12.5904   19.7837 C   0  0  0  0  0  0  0  0  0  0  0  0
  -24.2023  -30.9464   20.2438 C   0  0  0  0  0  0  0  0  0  0  0  0
  -23.3955  -10.6287   20.4535 C   0  0  0  0  0  0  0  0  0  0  0  0
  -23.2968   -8.3769   22.0975 C   0  0  0  0  0  0  0  0  0  0  0  0
  -22.3166  -10.4430   21.3180 C   0  0  0  0  0  0  0  0  0  0  0  0
  -27.7875  -15.2167   20.2401 C   0  0  0  0  0  0  0  0  0  0  0  0
  -29.8001  -16.0678   20.4853 C   0  0  0  0  0  0  0  0  0  0  0  0
  -29.5259  -25.1207   14.9392 C   0  0  0  0  0  0  0  0  0  0  0  0
  -29.7597  -13.5710   20.3710 C   0  0  0  0  0  0  0  0  0  0  0  0
  -24.2391  -26.3494   23.1300 C   0  0  0  0  0  0  0  0  0  0  0  0
  -24.6220  -28.1505   25.8005 C   0  0  0  0  0  0  0  0  0  0  0  0
  -24.9099  -31.2574   27.1830 C   0  0  0  0  0  0  0  0  0  0  0  0
  -28.4925  -21.6248   18.7204 C   0  0  0  0  0  0  0  0  0  0  0  0
  -23.6220  -21.3140   21.3606 C   0  0  0  0  0  0  0  0  0  0  0  0
  -26.1693  -27.8293   22.4665 C   0  0  0  0  0  0  0  0  0  0  0  0
  -23.9703  -29.3784   23.6951 C   0  0  0  0  0  0  0  0  0  0  0  0
  -22.7317  -22.0423   22.3622 C   0  0  0  0  0  0  0  0  0  0  0  0
  -29.1493  -20.5470   22.0497 C   0  0  0  0  0  0  0  0  0  0  0  0
  -23.4745  -23.2340   22.9475 C   0  0  0  0  0  0  0  0  0  0  0  0
  -29.0041  -19.0254   21.9735 C   0  0  0  0  0  0  0  0  0  0  0  0
  -28.1382  -21.2588   21.1526 C   0  0  0  0  0  0  0  0  0  0  0  0
  -27.9833  -19.2921   19.6770 C   0  0  0  0  0  0  0  0  0  0  0  0
  -23.8135  -24.2563   21.8553 C   0  0  1  0  0  0  0  0  0  0  0  0
  -25.3300  -27.2650   23.6087 C   0  0  1  0  0  0  0  0  0  0  0  0
  -29.0234  -18.5299   20.5141 C   0  0  2  0  0  0  0  0  0  0  0  0
  -25.1737  -32.4124   29.3952 C   0  0  0  0  0  0  0  0  0  0  0  0
  -19.7448  -32.5498   17.5715 C   0  0  0  0  0  0  0  0  0  0  0  0
  -21.6768  -27.6419   26.4144 C   0  0  0  0  0  0  0  0  0  0  0  0
  -21.7613  -29.5386   28.0465 C   0  0  0  0  0  0  0  0  0  0  0  0
  -23.1916  -27.5258   28.4009 C   0  0  0  0  0  0  0  0  0  0  0  0
  -27.4969  -32.4514   26.3823 C   0  0  0  0  0  0  0  0  0  0  0  0
  -25.4077  -28.2888   14.9610 C   0  0  0  0  0  0  0  0  0  0  0  0
  -24.0153  -27.8733   15.4418 C   0  0  0  0  0  0  0  0  0  0  0  0
  -26.5058  -27.6096   15.7821 C   0  0  0  0  0  0  0  0  0  0  0  0
  -22.9198  -28.5237   14.5942 C   0  0  0  0  0  0  0  0  0  0  0  0
  -27.8980  -27.9958   15.2740 C   0  0  0  0  0  0  0  0  0  0  0  0
  -21.5070  -28.0861   14.9896 C   0  0  0  0  0  0  0  0  0  0  0  0
  -22.2539  -32.4478   17.6085 C   0  0  0  0  0  0  0  0  0  0  0  0
  -29.0157  -27.2885   16.0330 C   0  0  0  0  0  0  0  0  0  0  0  0
  -21.1701  -28.3984   16.4410 C   0  0  0  0  0  0  0  0  0  0  0  0
  -20.8501  -30.3122   18.0138 C   0  0  0  0  0  0  0  0  0  0  0  0
  -23.5261  -31.7862   18.1240 C   0  0  0  0  0  0  0  0  0  1  0  0
  -23.7702  -29.1470   26.5492 C   0  0  1  0  0  0  0  0  0  0  0  0
  -25.8930  -31.8240   28.1914 C   0  0  2  0  0  0  0  0  0  0  0  0
  -20.9596  -31.8348   18.1744 C   0  0  2  0  0  0  0  0  0  0  0  0
  -22.6071  -28.4674   27.3255 C   0  0  0  0  0  0  0  0  0  0  0  0
  -27.5900  -16.5371   20.2781 N   0  0  0  0  0  0  0  0  0  0  0  0
  -28.8323  -17.0272   20.4281 N   0  0  0  0  0  0  0  0  0  0  0  0
  -24.6893  -28.3105   24.4092 N   0  0  0  0  0  0  0  0  0  0  0  0
  -28.2168  -20.7408   19.7850 N   0  0  0  0  0  0  0  0  0  0  0  0
  -28.6889  -19.4957   15.0578 N   0  0  0  0  0  0  0  0  0  0  0  0
  -31.1034  -16.3865   20.6337 N   0  0  0  0  0  0  0  0  0  0  0  0
  -28.9400  -12.4421   20.2366 N   0  0  0  0  0  0  0  0  0  0  0  0
  -28.5753  -21.0132   17.4699 N   0  0  0  0  0  0  0  0  0  0  0  0
  -28.9159  -25.8578   15.9482 N   0  0  0  0  0  0  0  0  0  0  0  0
  -24.6934  -25.2627   22.4074 N   0  0  0  0  0  0  0  0  0  0  0  0
  -24.6829  -29.9133   27.3907 N   0  0  0  0  0  0  0  0  0  0  0  0
  -26.7166  -32.8968   27.5655 N   0  3  0  0  0  0  0  0  0  0  0  0
  -21.2179  -29.8679   16.6419 N   0  3  0  0  0  0  0  0  0  0  0  0
  -30.2000  -25.6032   14.0330 O   0  0  0  0  0  0  0  0  0  0  0  0
  -30.9971  -13.4183   20.5087 O   0  0  0  0  0  0  0  0  0  0  0  0
  -23.0717  -26.6087   23.3978 O   0  0  0  0  0  0  0  0  0  0  0  0
  -25.2118  -27.2672   26.4279 O   0  0  0  0  0  0  0  0  0  0  0  0
  -24.3921  -31.9397   26.3016 O   0  0  0  0  0  0  0  0  0  0  0  0
  -28.6708  -22.8310   18.9081 O   0  0  0  0  0  0  0  0  0  0  0  0
  -23.4455  -11.7454   19.6363 O   0  0  0  0  0  0  0  0  0  0  0  0
  -23.5808  -31.9420   19.5366 O   0  0  0  0  0  0  0  0  0  1  0  0
  -23.2488   -7.2950   22.8856 F   0  0  0  0  0  0  0  0  0  0  0  0
  -21.3241  -11.3423   21.3625 F   0  0  0  0  0  0  0  0  0  0  0  0
  1  2  1  0  0  0  0
  1  6  2  0  0  0  0
  2  7  2  0  0  0  0
  3 10  2  0  0  0  0
  3 18  1  0  0  0  0
  4 11  1  0  0  0  0
  4 18  2  0  0  0  0
  5  9  2  0  0  0  0
  5 19  1  0  0  0  0
  6 21  1  0  0  0  0
  7 23  1  0  0  0  0
  8 12  2  0  0  0  0
  8 22  1  0  0  0  0
  9 25  1  0  0  0  0
 10 27  1  0  0  0  0
 11 27  2  0  0  0  0
 12 28  1  0  0  0  0
 13 14  2  0  0  0  0
 13 29  1  0  0  0  0
 14 30  1  0  0  0  0
 15 19  2  0  0  0  0
 15 26  1  0  0  0  0
 16 24  1  0  0  0  0
 16 28  2  0  0  0  0
 17 30  2  0  0  0  0
 17 31  1  0  0  0  0
 18 32  1  0  0  0  0
 19 34  1  0  0  0  0
 20 32  1  0  0  0  0
 20 33  2  0  0  0  0
 20 35  1  0  0  0  0
 21 23  2  0  0  0  0
 21 40  1  0  0  0  0
 22 24  2  0  0  0  0
 22 41  1  0  0  0  0
 23 49  1  0  0  0  0
 24 42  1  0  0  0  0
 25 26  2  0  0  0  0
 25 77  1  0  0  0  0
 26 80  1  0  0  0  0
 27 92  1  0  0  0  0
 28 93  1  0  0  0  0
 29 31  2  0  0  0  0
 29 92  1  0  0  0  0
 30 94  1  0  0  0  0
 31 95  1  0  0  0  0
 32 73  2  0  0  0  0
 33 74  1  0  0  0  0
 33 78  1  0  0  0  0
 34 81  1  0  0  0  0
 34 86  2  0  0  0  0
 35 79  1  0  0  0  0
 35 87  2  0  0  0  0
 36 50  1  0  0  0  0
 36 82  1  0  0  0  0
 36 88  2  0  0  0  0
 37 69  1  0  0  0  0
 37 75  1  0  0  0  0
 37 89  2  0  0  0  0
 38 70  1  0  0  0  0
 38 83  1  0  0  0  0
 38 90  2  0  0  0  0
 39 76  1  0  0  0  0
 39 80  1  0  0  0  0
 39 91  2  0  0  0  0
 40 43  1  0  0  0  0
 41 50  1  0  0  0  0
 42 75  1  0  0  0  0
 43 45  1  0  0  0  0
 44 46  1  0  0  0  0
 44 47  1  0  0  0  0
 45 49  1  0  0  0  0
 46 51  1  0  0  0  0
 47 76  1  0  0  0  0
 48 51  1  0  0  0  0
 48 76  1  0  0  0  0
 49 82  1  0  0  0  0
 50 75  1  0  0  0  0
 51 74  1  0  0  0  0
 52 70  1  0  0  0  0
 53 71  1  0  0  0  0
 54 72  1  0  0  0  0
 55 72  1  0  0  0  0
 56 72  1  0  0  0  0
 57 84  1  0  0  0  0
 58 59  1  0  0  0  0
 58 60  1  0  0  0  0
 59 61  1  0  0  0  0
 60 62  1  0  0  0  0
 61 63  1  0  0  0  0
 62 65  1  0  0  0  0
 63 66  1  0  0  0  0
 64 68  1  0  0  0  0
 64 71  1  0  0  0  0
 65 81  1  0  0  0  0
 66 85  1  0  0  0  0
 67 71  1  0  0  0  0
 67 85  1  0  0  0  0
 68 93  1  0  0  0  0
 69 72  1  0  0  0  0
 69 83  1  0  0  0  0
 70 84  1  0  0  0  0
 73 74  1  0  0  0  0
M  CHG  2  84   1  85   1
M  ISO  4  39 100  68 101  80 100  93 101
M  END
> <Batch ID>
0007

> <Smiles>
CNC(C)C(=O)NC(C(=O)N1Cc2cc([101O:1][101CH2:1]CC(C)CNCCCCCCCCNC(=O)c3ccc(N)c([100NH:0][100C:0](=O)N4CCCC(n5nc(-c6ccc(Oc7ccc(F)cc7F)cc6)c(C(N)=O)c5N)C4)c3)ccc2CC1C(=O)NC1CCCc2ccccc21)C(C)(C)C

> <Shape>
0.195

> <Color>
0.053

> <Negative vol penalty>
0.000

$$$$

  -OEChem-04052315333D

 95103  0     1  0  0  0  0  0999 V2000
  -30.3213  -36.0517   21.1565 C   0  0  0  0  0  0  0  0  0  0  0  0
  -30.3362  -34.6607   21.1694 C   0  0  0  0  0  0  0  0  0  0  0  0
  -29.8949  -19.6751   20.3838 C   0  0  0  0  0  0  0  0  0  0  0  0
  -27.5000  -19.5899   20.0766 C   0  0  0  0  0  0  0  0  0  0  0  0
  -29.2247  -36.7408   21.6727 C   0  0  0  0  0  0  0  0  0  0  0  0
  -29.2548  -33.9578   21.6995 C   0  0  0  0  0  0  0  0  0  0  0  0
  -27.0502  -28.5832   19.7606 C   0  0  0  0  0  0  0  0  0  0  0  0
  -21.9077  -10.1232   19.5980 C   0  0  0  0  0  0  0  0  0  0  0  0
  -22.1174  -11.1276   20.5428 C   0  0  0  0  0  0  0  0  0  0  0  0
  -29.9218  -20.9507   19.8202 C   0  0  0  0  0  0  0  0  0  0  0  0
  -27.5269  -20.8656   19.5130 C   0  0  0  0  0  0  0  0  0  0  0  0
  -27.2342  -27.2766   20.2107 C   0  0  0  0  0  0  0  0  0  0  0  0
  -29.8197  -22.3094   16.7269 C   0  0  0  0  0  0  0  0  0  0  0  0
  -30.8116  -22.5798   15.7843 C   0  0  0  0  0  0  0  0  0  0  0  0
  -25.2006  -27.4400   21.4979 C   0  0  0  0  0  0  0  0  0  0  0  0
  -24.2460  -10.2016   18.9955 C   0  0  0  0  0  0  0  0  0  0  0  0
  -31.6615  -24.3535   17.1875 C   0  0  0  0  0  0  0  0  0  0  0  0
  -28.6840  -18.9947   20.5119 C   0  0  0  0  0  0  0  0  0  0  0  0
  -28.4926  -17.3509   22.4533 C   0  0  0  0  0  0  0  0  0  0  0  0
  -28.1251  -36.0459   22.2006 C   0  0  0  0  0  0  0  0  0  0  0  0
  -25.9439  -29.3331   20.1851 C   0  0  0  0  0  0  0  0  0  0  0  0
  -28.1430  -34.6383   22.2245 C   0  0  0  0  0  0  0  0  0  0  0  0
  -25.0035  -28.7551   21.0497 C   0  0  0  0  0  0  0  0  0  0  0  0
  -22.9720   -9.6601   18.8243 C   0  0  0  0  0  0  0  0  0  0  0  0
  -23.3914  -11.6691   20.7140 C   0  0  0  0  0  0  0  0  0  0  0  0
  -24.4558  -11.2061   19.9404 C   0  0  0  0  0  0  0  0  0  0  0  0
  -28.7378  -21.5460   19.3848 C   0  0  0  0  0  0  0  0  0  0  0  0
  -26.3109  -26.7058   21.0818 C   0  0  0  0  0  0  0  0  0  0  0  0
  -29.7486  -23.0611   17.8998 C   0  0  0  0  0  0  0  0  0  0  0  0
  -31.7325  -23.6018   16.0146 C   0  0  0  0  0  0  0  0  0  0  0  0
  -30.6695  -24.0831   18.1301 C   0  0  0  0  0  0  0  0  0  0  0  0
  -28.6556  -17.6767   21.0935 C   0  0  0  0  0  0  0  0  0  0  0  0
  -28.5364  -15.9785   22.4852 C   0  0  0  0  0  0  0  0  0  0  0  0
  -28.3171  -18.2118   23.5863 C   0  0  0  0  0  0  0  0  0  0  0  0
  -25.5569  -32.0300   21.8225 C   0  0  0  0  0  0  0  0  0  0  0  0
  -22.4358  -31.5898   21.0561 C   0  0  0  0  0  0  0  0  0  0  0  0
  -22.6218  -13.2463   22.5202 C   0  0  0  0  0  0  0  0  0  0  0  0
  -25.8741  -23.4903   22.8318 C   0  0  0  0  0  0  0  0  0  0  0  0
  -19.9463  -29.4289   20.1729 C   0  0  0  0  0  0  0  0  0  0  0  0
  -26.9101  -11.3758   19.3981 C   0  0  0  0  0  0  0  0  0  0  0  0
  -26.9830  -36.8349   22.7904 C   0  0  0  0  0  0  0  0  0  0  0  0
  -25.7456  -30.7321   19.6694 C   0  0  0  0  0  0  0  0  0  0  0  0
  -23.7882  -29.5108   21.5192 C   0  0  0  0  0  0  0  0  0  0  0  0
  -25.7139  -36.0110   22.9924 C   0  0  0  0  0  0  0  0  0  0  0  0
  -30.2954  -12.4769   19.4639 C   0  0  0  0  0  0  0  0  0  0  0  0
  -26.0437  -34.6755   23.6517 C   0  0  0  0  0  0  0  0  0  0  0  0
  -30.2035  -13.8983   20.0237 C   0  0  0  0  0  0  0  0  0  0  0  0
  -29.1146  -12.1492   18.5516 C   0  0  0  0  0  0  0  0  0  0  0  0
  -27.6986  -13.8051   19.7013 C   0  0  0  0  0  0  0  0  0  0  0  0
  -26.9781  -33.8400   22.7684 C   0  0  1  0  0  0  0  0  0  0  0  0
  -24.8555  -31.5810   20.5718 C   0  0  1  0  0  0  0  0  0  0  0  0
  -28.8323  -14.1588   20.6776 C   0  0  2  0  0  0  0  0  0  0  0  0
  -17.4925  -29.3576   19.6523 C   0  0  0  0  0  0  0  0  0  0  0  0
  -21.8001  -31.8375   24.0301 C   0  0  0  0  0  0  0  0  0  0  0  0
  -19.5553  -30.8323   23.5628 C   0  0  0  0  0  0  0  0  0  0  0  0
  -20.1880  -33.0072   22.5177 C   0  0  0  0  0  0  0  0  0  0  0  0
  -20.4390  -28.4333   17.4298 C   0  0  0  0  0  0  0  0  0  0  0  0
  -23.2471  -14.3167   23.4064 C   0  0  0  0  0  0  0  0  0  0  0  0
  -25.5169  -24.8993   22.4093 C   0  0  0  0  0  0  0  0  0  1  0  0
  -23.2150  -15.7190   22.7998 C   0  0  0  0  0  0  0  0  0  0  0  0
  -23.8573  -16.7653   23.7158 C   0  0  0  0  0  0  0  0  0  0  0  0
  -23.7802  -18.1634   23.0992 C   0  0  0  0  0  0  0  0  0  0  0  0
  -24.4506  -19.2051   23.9965 C   0  0  0  0  0  0  0  0  0  0  0  0
  -24.3446  -20.6071   23.3966 C   0  0  0  0  0  0  0  0  0  0  0  0
  -25.0454  -21.6394   24.2716 C   0  0  0  0  0  0  0  0  0  0  0  0
  -21.2688  -30.8753   21.6939 C   0  0  1  0  0  0  0  0  0  0  0  0
  -18.8947  -29.4963   19.0802 C   0  0  2  0  0  0  0  0  0  0  0  0
  -22.7478   -8.5849   17.8156 C   0  0  0  0  0  0  0  0  0  0  0  0
  -20.7269  -31.6243   22.9440 C   0  0  0  0  0  0  0  0  0  0  0  0
  -28.7929  -16.5981   20.3177 N   0  0  0  0  0  0  0  0  0  0  0  0
  -28.7164  -15.5812   21.1929 N   0  0  0  0  0  0  0  0  0  0  0  0
  -23.6419  -30.8776   20.9920 N   0  0  0  0  0  0  0  0  0  0  0  0
  -27.8496  -12.4164   19.2394 N   0  0  0  0  0  0  0  0  0  0  0  0
  -28.4383  -15.0849   23.4923 N   0  0  0  0  0  0  0  0  0  0  0  0
  -28.2956  -19.5973   23.3757 N   0  0  0  0  0  0  0  0  0  0  0  0
  -23.5794  -12.6880   21.6780 N   0  0  0  0  0  0  0  0  0  0  0  0
  -25.7591  -11.7396   20.0963 N   0  0  0  0  0  0  0  0  0  0  0  0
  -26.2367  -33.2255   21.6881 N   0  0  0  0  0  0  0  0  0  0  0  0
  -24.9413  -22.9609   23.7162 N   0  0  0  0  0  0  0  0  0  0  0  0
  -20.2811  -30.6833   20.6375 N   0  0  0  0  0  0  0  0  0  0  0  0
  -19.1077  -28.4045   18.0884 N   0  3  0  0  0  0  0  0  0  0  0  0
  -28.1997  -17.7663   24.7530 O   0  0  0  0  0  0  0  0  0  0  0  0
  -25.4853  -31.3433   22.8350 O   0  0  0  0  0  0  0  0  0  0  0  0
  -22.2810  -32.7348   20.6241 O   0  0  0  0  0  0  0  0  0  0  0  0
  -21.4357  -12.9447   22.6004 O   0  0  0  0  0  0  0  0  0  0  0  0
  -26.8768  -22.9090   22.4260 O   0  0  0  0  0  0  0  0  0  0  0  0
  -20.4204  -28.3694   20.5767 O   0  0  0  0  0  0  0  0  0  0  0  0
  -27.1235  -10.2381   18.9714 O   0  0  0  0  0  0  0  0  0  0  0  0
  -28.7637  -22.7909   18.8351 O   0  0  0  0  0  0  0  0  0  0  0  0
  -26.4903  -25.4176   21.5277 O   0  0  0  0  0  0  0  0  0  1  0  0
  -32.6859  -23.8604   15.1100 F   0  0  0  0  0  0  0  0  0  0  0  0
  -30.6069  -24.8079   19.2555 F   0  0  0  0  0  0  0  0  0  0  0  0
  -21.4545   -8.1491   17.7580 F   0  0  0  0  0  0  0  0  0  0  0  0
  -23.0539   -8.9607   16.5385 F   0  0  0  0  0  0  0  0  0  0  0  0
  -23.4986   -7.4713   18.0592 F   0  0  0  0  0  0  0  0  0  0  0  0
  1  2  1  0  0  0  0
  1  5  2  0  0  0  0
  2  6  2  0  0  0  0
  3 10  2  0  0  0  0
  3 18  1  0  0  0  0
  4 11  1  0  0  0  0
  4 18  2  0  0  0  0
  5 20  1  0  0  0  0
  6 22  1  0  0  0  0
  7 12  2  0  0  0  0
  7 21  1  0  0  0  0
  8  9  2  0  0  0  0
  8 24  1  0  0  0  0
  9 25  1  0  0  0  0
 10 27  1  0  0  0  0
 11 27  2  0  0  0  0
 12 28  1  0  0  0  0
 13 14  2  0  0  0  0
 13 29  1  0  0  0  0
 14 30  1  0  0  0  0
 15 23  1  0  0  0  0
 15 28  2  0  0  0  0
 16 24  2  0  0  0  0
 16 26  1  0  0  0  0
 17 30  2  0  0  0  0
 17 31  1  0  0  0  0
 18 32  1  0  0  0  0
 19 32  1  0  0  0  0
 19 33  2  0  0  0  0
 19 34  1  0  0  0  0
 20 22  2  0  0  0  0
 20 41  1  0  0  0  0
 21 23  2  0  0  0  0
 21 42  1  0  0  0  0
 22 50  1  0  0  0  0
 23 43  1  0  0  0  0
 24 68  1  0  0  0  0
 25 26  2  0  0  0  0
 25 76  1  0  0  0  0
 26 77  1  0  0  0  0
 27 89  1  0  0  0  0
 28 90  1  0  0  0  0
 29 31  2  0  0  0  0
 29 89  1  0  0  0  0
 30 91  1  0  0  0  0
 31 92  1  0  0  0  0
 32 70  2  0  0  0  0
 33 71  1  0  0  0  0
 33 74  1  0  0  0  0
 34 75  1  0  0  0  0
 34 82  2  0  0  0  0
 35 51  1  0  0  0  0
 35 78  1  0  0  0  0
 35 83  2  0  0  0  0
 36 66  1  0  0  0  0
 36 72  1  0  0  0  0
 36 84  2  0  0  0  0
 37 58  1  0  0  0  0
 37 76  1  0  0  0  0
 37 85  2  0  0  0  0
 38 59  1  0  0  0  0
 38 79  1  0  0  0  0
 38 86  2  0  0  0  0
 39 67  1  0  0  0  0
 39 80  1  0  0  0  0
 39 87  2  0  0  0  0
 40 73  1  0  0  0  0
 40 77  1  0  0  0  0
 40 88  2  0  0  0  0
 41 44  1  0  0  0  0
 42 51  1  0  0  0  0
 43 72  1  0  0  0  0
 44 46  1  0  0  0  0
 45 47  1  0  0  0  0
 45 48  1  0  0  0  0
 46 50  1  0  0  0  0
 47 52  1  0  0  0  0
 48 73  1  0  0  0  0
 49 52  1  0  0  0  0
 49 73  1  0  0  0  0
 50 78  1  0  0  0  0
 51 72  1  0  0  0  0
 52 71  1  0  0  0  0
 53 67  1  0  0  0  0
 54 69  1  0  0  0  0
 55 69  1  0  0  0  0
 56 69  1  0  0  0  0
 57 81  1  0  0  0  0
 58 60  1  0  0  0  0
 59 90  1  0  0  0  0
 60 61  1  0  0  0  0
 61 62  1  0  0  0  0
 62 63  1  0  0  0  0
 63 64  1  0  0  0  0
 64 65  1  0  0  0  0
 65 79  1  0  0  0  0
 66 69  1  0  0  0  0
 66 80  1  0  0  0  0
 67 81  1  0  0  0  0
 68 93  1  0  0  0  0
 68 94  1  0  0  0  0
 68 95  1  0  0  0  0
 70 71  1  0  0  0  0
M  CHG  1  81   1
M  ISO  4  40 100  59 101  77 100  90 101
M  END
> <Batch ID>
0007

> <Smiles>
CNC(C)C(=O)NC(C(=O)N1Cc2cc([101O:1][101CH2:1]C(=O)NCCCCCCCC(=O)Nc3ccc(C(F)(F)F)cc3[100NH:0][100C:0](=O)N3CCCC(n4nc(-c5ccc(Oc6ccc(F)cc6F)cc5)c(C(N)=O)c4N)C3)ccc2CC1C(=O)NC1CCCc2ccccc21)C(C)(C)C

> <Shape>
0.259

> <Color>
0.063

> <Negative vol penalty>
0.000

$$$$

  -OEChem-04052315333D

 82 90  0     1  0  0  0  0  0999 V2000
  -27.4889  -32.5961   27.6850 C   0  0  0  0  0  0  0  0  0  0  0  0
  -27.7032  -31.5470   26.7968 C   0  0  0  0  0  0  0  0  0  0  0  0
  -24.2715   -9.0390   21.4587 C   0  0  0  0  0  0  0  0  0  0  0  0
  -24.8126  -10.3196   23.4347 C   0  0  0  0  0  0  0  0  0  0  0  0
  -26.1962  -33.0708   27.9026 C   0  0  0  0  0  0  0  0  0  0  0  0
  -26.6245  -30.9712   26.1264 C   0  0  0  0  0  0  0  0  0  0  0  0
  -27.5693  -30.2235   21.2078 C   0  0  0  0  0  0  0  0  0  0  0  0
  -30.1758  -18.8156   19.9873 C   0  0  0  0  0  0  0  0  0  0  0  0
  -23.9553   -7.9401   22.2574 C   0  0  0  0  0  0  0  0  0  0  0  0
  -24.4963   -9.2206   24.2334 C   0  0  0  0  0  0  0  0  0  0  0  0
  -28.3567  -29.1234   20.8707 C   0  0  0  0  0  0  0  0  0  0  0  0
  -30.3881  -20.1469   20.3451 C   0  0  0  0  0  0  0  0  0  0  0  0
  -21.3656   -6.9183   24.1763 C   0  0  0  0  0  0  0  0  0  0  0  0
  -20.1942   -6.2200   23.8837 C   0  0  0  0  0  0  0  0  0  0  0  0
  -26.3684  -27.8833   20.2980 C   0  0  0  0  0  0  0  0  0  0  0  0
  -28.0167  -20.4260   20.7135 C   0  0  0  0  0  0  0  0  0  0  0  0
  -21.4853   -4.2134   23.5043 C   0  0  0  0  0  0  0  0  0  0  0  0
  -24.7002  -10.2288   22.0473 C   0  0  0  0  0  0  0  0  0  0  0  0
  -24.1572  -12.3862   20.7990 C   0  0  0  0  0  0  0  0  0  0  0  0
  -25.1023  -32.5070   27.2272 C   0  0  0  0  0  0  0  0  0  0  0  0
  -26.1725  -30.1580   21.1027 C   0  0  0  0  0  0  0  0  0  0  0  0
  -25.3158  -31.4380   26.3361 C   0  0  0  0  0  0  0  0  0  0  0  0
  -25.5657  -28.9848   20.6319 C   0  0  0  0  0  0  0  0  0  0  0  0
  -28.8839  -18.2894   19.9925 C   0  0  0  0  0  0  0  0  0  0  0  0
  -24.0677   -8.0309   23.6447 C   0  0  0  0  0  0  0  0  0  0  0  0
  -27.7561  -27.9522   20.4185 C   0  0  0  0  0  0  0  0  0  0  0  0
  -29.3085  -20.9521   20.7083 C   0  0  0  0  0  0  0  0  0  0  0  0
  -22.5969   -6.2643   24.1329 C   0  0  0  0  0  0  0  0  0  0  0  0
  -20.2540   -4.8675   23.5477 C   0  0  0  0  0  0  0  0  0  0  0  0
  -22.6567   -4.9118   23.7969 C   0  0  0  0  0  0  0  0  0  0  0  0
  -27.8044  -19.0946   20.3556 C   0  0  0  0  0  0  0  0  0  0  0  0
  -25.0276  -11.3641   21.2228 C   0  0  0  0  0  0  0  0  0  0  0  0
  -24.9469  -13.2188   20.0443 C   0  0  0  0  0  0  0  0  0  0  0  0
  -22.7597  -12.5669   21.0640 C   0  0  0  0  0  0  0  0  0  0  0  0
  -23.7551  -30.3976   23.1526 C   0  0  0  0  0  0  0  0  0  0  0  0
  -21.9622  -30.2542   20.4531 C   0  0  0  0  0  0  0  0  0  0  0  0
  -21.7099  -29.2843   17.1909 C   0  0  0  0  0  0  0  0  0  0  0  0
  -29.6878  -16.0248   19.2363 C   0  0  0  0  0  0  0  0  0  0  0  0
  -23.7177  -33.0224   27.5306 C   0  0  0  0  0  0  0  0  0  0  0  0
  -25.3389  -31.3623   21.4448 C   0  0  0  0  0  0  0  0  0  0  0  0
  -24.0714  -28.8701   20.4818 C   0  0  0  0  0  0  0  0  0  0  0  0
  -22.6730  -32.6061   26.4983 C   0  0  0  0  0  0  0  0  0  0  0  0
  -29.6514  -12.5943   18.2836 C   0  0  0  0  0  0  0  0  0  0  0  0
  -22.8019  -31.1203   26.1777 C   0  0  0  0  0  0  0  0  0  0  0  0
  -28.3736  -12.0526   18.9285 C   0  0  0  0  0  0  0  0  0  0  0  0
  -30.3408  -13.6281   19.1724 C   0  0  0  0  0  0  0  0  0  0  0  0
  -28.2055  -14.1913   20.2643 C   0  0  0  0  0  0  0  0  0  0  0  0
  -24.1743  -30.8037   25.5713 C   0  0  1  0  0  0  0  0  0  0  0  0
  -23.8945  -31.0112   21.7882 C   0  0  1  0  0  0  0  0  0  0  0  0
  -27.4411  -13.1946   19.3778 C   0  0  2  0  0  0  0  0  0  0  0  0
  -20.1090  -29.2693   15.2584 C   0  0  0  0  0  0  0  0  0  0  0  0
  -20.4332  -27.9490   21.7409 C   0  0  0  0  0  0  0  0  0  0  0  0
  -19.5343  -27.3721   19.4765 C   0  0  0  0  0  0  0  0  0  0  0  0
  -19.0046  -29.5843   20.5002 C   0  0  0  0  0  0  0  0  0  0  0  0
  -23.5153  -30.9421   15.5322 C   0  0  0  0  0  0  0  0  0  0  0  0
  -29.0319  -24.5665   20.5636 C   0  0  0  0  0  0  0  0  0  0  0  0
  -27.9420  -25.5858   20.2713 C   0  0  0  0  0  0  0  0  0  1  0  0
  -28.4635  -23.1737   20.7859 C   0  0  0  0  0  0  0  0  0  0  0  0
  -21.3409  -29.1442   19.6401 C   0  0  1  0  0  0  0  0  0  0  0  0
  -21.2313  -30.0236   15.9544 C   0  0  2  0  0  0  0  0  0  0  0  0
  -20.1063  -28.5136   20.3440 C   0  0  0  0  0  0  0  0  0  0  0  0
  -26.2747  -11.5301   20.7743 N   0  0  0  0  0  0  0  0  0  0  0  0
  -26.1937  -12.6661   20.0609 N   0  0  0  0  0  0  0  0  0  0  0  0
  -23.2990  -30.0726   20.8350 N   0  0  0  0  0  0  0  0  0  0  0  0
  -29.3979  -14.6813   19.5550 N   0  0  0  0  0  0  0  0  0  0  0  0
  -24.6895  -14.3623   19.3746 N   0  0  0  0  0  0  0  0  0  0  0  0
  -22.1021  -11.6177   21.8582 N   0  0  0  0  0  0  0  0  0  0  0  0
  -28.7029  -16.9341   19.6209 N   0  0  0  0  0  0  0  0  0  0  0  0
  -24.2154  -31.1992   24.1798 N   0  0  0  0  0  0  0  0  0  0  0  0
  -21.0549  -29.7113   18.3266 N   0  0  0  0  0  0  0  0  0  0  0  0
  -22.3522  -30.1956   14.9874 N   0  3  0  0  0  0  0  0  0  0  0  0
  -22.1097  -13.5324   20.5963 O   0  0  0  0  0  0  0  0  0  0  0  0
  -23.2647  -29.2802   23.2653 O   0  0  0  0  0  0  0  0  0  0  0  0
  -21.2884  -31.2489   20.7329 O   0  0  0  0  0  0  0  0  0  0  0  0
  -22.5753  -28.4125   17.1524 O   0  0  0  0  0  0  0  0  0  0  0  0
  -30.7202  -16.3421   18.6401 O   0  0  0  0  0  0  0  0  0  0  0  0
  -23.7589   -6.9588   24.4244 O   0  0  0  0  0  0  0  0  0  0  0  0
  -28.5223  -26.8767   20.0894 O   0  0  0  0  0  0  0  0  0  1  0  0
  -29.5175  -22.2605   21.0592 O   0  0  0  0  0  0  0  0  0  0  0  0
  -19.1289   -4.1966   23.2683 F   0  0  0  0  0  0  0  0  0  0  0  0
  -23.8366   -4.2778   23.7547 F   0  0  0  0  0  0  0  0  0  0  0  0
  -26.1889  -18.4829   20.3772 Cl  0  0  0  0  0  0  0  0  0  0  0  0
  1  2  1  0  0  0  0
  1  5  2  0  0  0  0
  2  6  2  0  0  0  0
  3  9  2  0  0  0  0
  3 18  1  0  0  0  0
  4 10  1  0  0  0  0
  4 18  2  0  0  0  0
  5 20  1  0  0  0  0
  6 22  1  0  0  0  0
  7 11  2  0  0  0  0
  7 21  1  0  0  0  0
  8 12  2  0  0  0  0
  8 24  1  0  0  0  0
  9 25  1  0  0  0  0
 10 25  2  0  0  0  0
 11 26  1  0  0  0  0
 12 27  1  0  0  0  0
 13 14  2  0  0  0  0
 13 28  1  0  0  0  0
 14 29  1  0  0  0  0
 15 23  1  0  0  0  0
 15 26  2  0  0  0  0
 16 27  2  0  0  0  0
 16 31  1  0  0  0  0
 17 29  2  0  0  0  0
 17 30  1  0  0  0  0
 18 32  1  0  0  0  0
 19 32  1  0  0  0  0
 19 33  2  0  0  0  0
 19 34  1  0  0  0  0
 20 22  2  0  0  0  0
 20 39  1  0  0  0  0
 21 23  2  0  0  0  0
 21 40  1  0  0  0  0
 22 48  1  0  0  0  0
 23 41  1  0  0  0  0
 24 31  2  0  0  0  0
 24 68  1  0  0  0  0
 25 77  1  0  0  0  0
 26 78  1  0  0  0  0
 27 79  1  0  0  0  0
 28 30  2  0  0  0  0
 28 77  1  0  0  0  0
 29 80  1  0  0  0  0
 30 81  1  0  0  0  0
 31 82  1  0  0  0  0
 32 62  2  0  0  0  0
 33 63  1  0  0  0  0
 33 66  1  0  0  0  0
 34 67  1  0  0  0  0
 34 72  2  0  0  0  0
 35 49  1  0  0  0  0
 35 69  1  0  0  0  0
 35 73  2  0  0  0  0
 36 59  1  0  0  0  0
 36 64  1  0  0  0  0
 36 74  2  0  0  0  0
 37 60  1  0  0  0  0
 37 70  1  0  0  0  0
 37 75  2  0  0  0  0
 38 65  1  0  0  0  0
 38 68  1  0  0  0  0
 38 76  2  0  0  0  0
 39 42  1  0  0  0  0
 40 49  1  0  0  0  0
 41 64  1  0  0  0  0
 42 44  1  0  0  0  0
 43 45  1  0  0  0  0
 43 46  1  0  0  0  0
 44 48  1  0  0  0  0
 45 50  1  0  0  0  0
 46 65  1  0  0  0  0
 47 50  1  0  0  0  0
 47 65  1  0  0  0  0
 48 69  1  0  0  0  0
 49 64  1  0  0  0  0
 50 63  1  0  0  0  0
 51 60  1  0  0  0  0
 52 61  1  0  0  0  0
 53 61  1  0  0  0  0
 54 61  1  0  0  0  0
 55 71  1  0  0  0  0
 56 57  1  0  0  0  0
 56 58  1  0  0  0  0
 57 78  1  0  0  0  0
 58 79  1  0  0  0  0
 59 61  1  0  0  0  0
 59 70  1  0  0  0  0
 60 71  1  0  0  0  0
 62 63  1  0  0  0  0
M  CHG  1  71   1
M  ISO  4  38 100  57 101  68 100  78 101
M  END
> <Batch ID>
0007

> <Smiles>
CNC(C)C(=O)NC(C(=O)N1Cc2cc([101O:1][101CH2:1]CCOc3ccc([100NH:0][100C:0](=O)N4CCCC(n5nc(-c6ccc(Oc7ccc(F)cc7F)cc6)c(C(N)=O)c5N)C4)c(Cl)c3)ccc2CC1C(=O)NC1CCCc2ccccc21)C(C)(C)C

> <Shape>
0.332

> <Color>
0.141

> <Negative vol penalty>
0.000

$$$$

  -OEChem-04052315333D

 82 90  0     1  0  0  0  0  0999 V2000
  -24.5381  -32.0498   29.0889 C   0  0  0  0  0  0  0  0  0  0  0  0
  -25.2960  -31.2010   28.2887 C   0  0  0  0  0  0  0  0  0  0  0  0
  -24.5931   -8.9874   21.5671 C   0  0  0  0  0  0  0  0  0  0  0  0
  -23.9124  -10.7040   23.1250 C   0  0  0  0  0  0  0  0  0  0  0  0
  -23.2195  -32.3406   28.7414 C   0  0  0  0  0  0  0  0  0  0  0  0
  -24.7355  -30.6417   27.1409 C   0  0  0  0  0  0  0  0  0  0  0  0
  -27.5943  -29.4318   21.8617 C   0  0  0  0  0  0  0  0  0  0  0  0
  -28.2880  -21.0361   19.7648 C   0  0  0  0  0  0  0  0  0  0  0  0
  -28.5347  -19.6632   19.7597 C   0  0  0  0  0  0  0  0  0  0  0  0
  -24.1596   -8.0063   22.4588 C   0  0  0  0  0  0  0  0  0  0  0  0
  -23.4788   -9.7229   24.0166 C   0  0  0  0  0  0  0  0  0  0  0  0
  -28.1342  -28.2594   21.3347 C   0  0  0  0  0  0  0  0  0  0  0  0
  -22.9012   -5.0572   24.1718 C   0  0  0  0  0  0  0  0  0  0  0  0
  -22.1543   -3.9976   23.6572 C   0  0  0  0  0  0  0  0  0  0  0  0
  -26.0932  -27.8786   20.1066 C   0  0  0  0  0  0  0  0  0  0  0  0
  -26.0111  -20.6295   19.0669 C   0  0  0  0  0  0  0  0  0  0  0  0
  -20.4769   -5.5552   22.8844 C   0  0  0  0  0  0  0  0  0  0  0  0
  -24.4696  -10.3363   21.9003 C   0  0  0  0  0  0  0  0  0  0  0  0
  -24.1638  -11.9715   19.9662 C   0  0  0  0  0  0  0  0  0  0  0  0
  -22.6456  -31.7923   27.5836 C   0  0  0  0  0  0  0  0  0  0  0  0
  -26.2934  -29.8313   21.5231 C   0  0  0  0  0  0  0  0  0  0  0  0
  -23.4076  -30.9244   26.7783 C   0  0  0  0  0  0  0  0  0  0  0  0
  -25.5400  -29.0578   20.6287 C   0  0  0  0  0  0  0  0  0  0  0  0
  -26.2578  -19.2566   19.0617 C   0  0  0  0  0  0  0  0  0  0  0  0
  -27.0262  -21.5192   19.4184 C   0  0  0  0  0  0  0  0  0  0  0  0
  -27.5196  -18.7735   19.4082 C   0  0  0  0  0  0  0  0  0  0  0  0
  -23.6024   -8.3740   23.6835 C   0  0  0  0  0  0  0  0  0  0  0  0
  -27.3826  -27.4811   20.4592 C   0  0  0  0  0  0  0  0  0  0  0  0
  -22.4359   -6.3659   24.0429 C   0  0  0  0  0  0  0  0  0  0  0  0
  -20.9422   -4.2466   23.0134 C   0  0  0  0  0  0  0  0  0  0  0  0
  -21.2238   -6.6149   23.3991 C   0  0  0  0  0  0  0  0  0  0  0  0
  -24.9178  -11.3503   20.9799 C   0  0  0  0  0  0  0  0  0  0  0  0
  -25.0385  -12.8526   19.3788 C   0  0  0  0  0  0  0  0  0  0  0  0
  -22.7952  -11.7701   19.5894 C   0  0  0  0  0  0  0  0  0  0  0  0
  -23.5981  -30.3002   23.1414 C   0  0  0  0  0  0  0  0  0  0  0  0
  -22.5265  -31.3870   20.2790 C   0  0  0  0  0  0  0  0  0  0  0  0
  -27.6645  -23.9309   19.7502 C   0  0  0  0  0  0  0  0  0  0  0  0
  -22.8241  -31.3739   16.8793 C   0  0  0  0  0  0  0  0  0  0  0  0
  -28.9931  -16.7562   19.7335 C   0  0  0  0  0  0  0  0  0  0  0  0
  -21.2015  -32.0983   27.2743 C   0  0  0  0  0  0  0  0  0  0  0  0
  -25.7354  -31.1126   22.0793 C   0  0  0  0  0  0  0  0  0  0  0  0
  -24.1461  -29.4535   20.2175 C   0  0  0  0  0  0  0  0  0  0  0  0
  -20.8013  -31.7621   25.8400 C   0  0  0  0  0  0  0  0  0  0  0  0
  -30.0481  -13.3595   19.8965 C   0  0  0  0  0  0  0  0  0  0  0  0
  -21.3117  -30.3774   25.4541 C   0  0  0  0  0  0  0  0  0  0  0  0
  -28.7454  -12.5851   20.1095 C   0  0  0  0  0  0  0  0  0  0  0  0
  -30.0425  -14.6941   20.6399 C   0  0  0  0  0  0  0  0  0  0  0  0
  -27.5812  -14.7789   20.5775 C   0  0  0  0  0  0  0  0  0  0  0  0
  -22.8429  -30.3179   25.5121 C   0  0  1  0  0  0  0  0  0  0  0  0
  -24.2104  -31.1548   22.0679 C   0  0  1  0  0  0  0  0  0  0  0  0
  -27.5138  -13.4569   19.7955 C   0  0  2  0  0  0  0  0  0  0  0  0
  -25.1515  -18.3263   18.6830 C   0  0  0  0  0  0  0  0  0  0  0  0
  -21.7817  -32.3309   14.8069 C   0  0  0  0  0  0  0  0  0  0  0  0
  -20.2014  -29.4295   20.5476 C   0  0  0  0  0  0  0  0  0  0  0  0
  -19.7540  -29.7337   18.1031 C   0  0  0  0  0  0  0  0  0  0  0  0
  -19.5731  -31.6792   19.6539 C   0  0  0  0  0  0  0  0  0  0  0  0
  -25.3330  -32.7418   16.1090 C   0  0  0  0  0  0  0  0  0  0  0  0
  -26.9925  -25.2862   19.6310 C   0  0  0  0  0  0  0  0  0  1  0  0
  -21.8573  -30.7599   19.0799 C   0  0  1  0  0  0  0  0  0  0  0  0
  -22.8584  -32.5045   15.8668 C   0  0  2  0  0  0  0  0  0  0  0  0
  -20.3720  -30.3918   19.3552 C   0  0  0  0  0  0  0  0  0  0  0  0
  -26.1747  -11.7986   21.0358 N   0  0  0  0  0  0  0  0  0  0  0  0
  -26.2173  -12.7109   20.0499 N   0  0  0  0  0  0  0  0  0  0  0  0
  -23.6423  -30.7114   20.7932 N   0  0  0  0  0  0  0  0  0  0  0  0
  -28.8492  -15.4676   20.2898 N   0  0  0  0  0  0  0  0  0  0  0  0
  -24.9065  -13.7270   18.3588 N   0  0  0  0  0  0  0  0  0  0  0  0
  -22.0391  -10.8263   20.2978 N   0  0  0  0  0  0  0  0  0  0  0  0
  -26.7753  -22.9119   19.4263 N   0  0  0  0  0  0  0  0  0  0  0  0
  -27.7897  -17.3825   19.4107 N   0  0  0  0  0  0  0  0  0  0  0  0
  -23.4179  -30.9532   24.3458 N   0  0  0  0  0  0  0  0  0  0  0  0
  -22.0469  -31.6913   17.9731 N   0  0  0  0  0  0  0  0  0  0  0  0
  -24.1838  -32.5511   15.1871 N   0  3  0  0  0  0  0  0  0  0  0  0
  -22.2633  -12.3964   18.6416 O   0  0  0  0  0  0  0  0  0  0  0  0
  -23.3090  -29.1352   22.8947 O   0  0  0  0  0  0  0  0  0  0  0  0
  -22.0801  -32.4413   20.7381 O   0  0  0  0  0  0  0  0  0  0  0  0
  -28.8377  -23.8233   20.0920 O   0  0  0  0  0  0  0  0  0  0  0  0
  -23.4237  -30.3138   16.7145 O   0  0  0  0  0  0  0  0  0  0  0  0
  -30.1029  -17.2555   19.5313 O   0  0  0  0  0  0  0  0  0  0  0  0
  -23.1790   -7.4169   24.5537 O   0  0  0  0  0  0  0  0  0  0  0  0
  -27.9070  -26.3360   19.9439 O   0  0  0  0  0  0  0  0  0  1  0  0
  -20.2258   -3.2290   22.5179 F   0  0  0  0  0  0  0  0  0  0  0  0
  -20.7723   -7.8701   23.2711 F   0  0  0  0  0  0  0  0  0  0  0  0
  1  2  1  0  0  0  0
  1  5  2  0  0  0  0
  2  6  2  0  0  0  0
  3 10  2  0  0  0  0
  3 18  1  0  0  0  0
  4 11  1  0  0  0  0
  4 18  2  0  0  0  0
  5 20  1  0  0  0  0
  6 22  1  0  0  0  0
  7 12  2  0  0  0  0
  7 21  1  0  0  0  0
  8  9  2  0  0  0  0
  8 25  1  0  0  0  0
  9 26  1  0  0  0  0
 10 27  1  0  0  0  0
 11 27  2  0  0  0  0
 12 28  1  0  0  0  0
 13 14  2  0  0  0  0
 13 29  1  0  0  0  0
 14 30  1  0  0  0  0
 15 23  1  0  0  0  0
 15 28  2  0  0  0  0
 16 24  1  0  0  0  0
 16 25  2  0  0  0  0
 17 30  2  0  0  0  0
 17 31  1  0  0  0  0
 18 32  1  0  0  0  0
 19 32  1  0  0  0  0
 19 33  2  0  0  0  0
 19 34  1  0  0  0  0
 20 22  2  0  0  0  0
 20 40  1  0  0  0  0
 21 23  2  0  0  0  0
 21 41  1  0  0  0  0
 22 49  1  0  0  0  0
 23 42  1  0  0  0  0
 24 26  2  0  0  0  0
 24 52  1  0  0  0  0
 25 68  1  0  0  0  0
 26 69  1  0  0  0  0
 27 79  1  0  0  0  0
 28 80  1  0  0  0  0
 29 31  2  0  0  0  0
 29 79  1  0  0  0  0
 30 81  1  0  0  0  0
 31 82  1  0  0  0  0
 32 62  2  0  0  0  0
 33 63  1  0  0  0  0
 33 66  1  0  0  0  0
 34 67  1  0  0  0  0
 34 73  2  0  0  0  0
 35 50  1  0  0  0  0
 35 70  1  0  0  0  0
 35 74  2  0  0  0  0
 36 59  1  0  0  0  0
 36 64  1  0  0  0  0
 36 75  2  0  0  0  0
 37 58  1  0  0  0  0
 37 68  1  0  0  0  0
 37 76  2  0  0  0  0
 38 60  1  0  0  0  0
 38 71  1  0  0  0  0
 38 77  2  0  0  0  0
 39 65  1  0  0  0  0
 39 69  1  0  0  0  0
 39 78  2  0  0  0  0
 40 43  1  0  0  0  0
 41 50  1  0  0  0  0
 42 64  1  0  0  0  0
 43 45  1  0  0  0  0
 44 46  1  0  0  0  0
 44 47  1  0  0  0  0
 45 49  1  0  0  0  0
 46 51  1  0  0  0  0
 47 65  1  0  0  0  0
 48 51  1  0  0  0  0
 48 65  1  0  0  0  0
 49 70  1  0  0  0  0
 50 64  1  0  0  0  0
 51 63  1  0  0  0  0
 53 60  1  0  0  0  0
 54 61  1  0  0  0  0
 55 61  1  0  0  0  0
 56 61  1  0  0  0  0
 57 72  1  0  0  0  0
 58 80  1  0  0  0  0
 59 61  1  0  0  0  0
 59 71  1  0  0  0  0
 60 72  1  0  0  0  0
 62 63  1  0  0  0  0
M  CHG  1  72   1
M  ISO  4  39 100  58 101  69 100  80 101
M  END
> <Batch ID>
0007

> <Smiles>
CNC(C)C(=O)NC(C(=O)N1Cc2cc([101O:1][101CH2:1]C(=O)Nc3ccc([100NH:0][100C:0](=O)N4CCCC(n5nc(-c6ccc(Oc7ccc(F)cc7F)cc6)c(C(N)=O)c5N)C4)c(C)c3)ccc2CC1C(=O)NC1CCCc2ccccc21)C(C)(C)C

> <Shape>
0.257

> <Color>
0.117

> <Negative vol penalty>
0.000

$$$$

  -OEChem-04052315333D

 89 98  0     1  0  0  0  0  0999 V2000
  -27.1982  -28.7041   18.3582 C   0  0  0  0  0  0  0  0  0  0  0  0
  -26.6719  -27.4752   18.7432 C   0  0  0  0  0  0  0  0  0  0  0  0
  -29.6885  -22.6601   21.6944 C   0  0  0  0  0  0  0  0  0  0  0  0
  -28.2357  -22.6115   19.7646 C   0  0  0  0  0  0  0  0  0  0  0  0
  -26.8155  -29.8657   19.0277 C   0  0  0  0  0  0  0  0  0  0  0  0
  -25.7633  -27.4071   19.7987 C   0  0  0  0  0  0  0  0  0  0  0  0
  -21.3341  -12.5819   21.4296 C   0  0  0  0  0  0  0  0  0  0  0  0
  -21.8063  -24.4202   18.7661 C   0  0  0  0  0  0  0  0  0  0  0  0
  -30.3311  -23.7872   21.1822 C   0  0  0  0  0  0  0  0  0  0  0  0
  -28.8783  -23.7386   19.2524 C   0  0  0  0  0  0  0  0  0  0  0  0
  -21.2843  -13.9745   21.4896 C   0  0  0  0  0  0  0  0  0  0  0  0
  -22.0064  -23.0436   18.8590 C   0  0  0  0  0  0  0  0  0  0  0  0
  -29.7455  -27.1111   20.9784 C   0  0  0  0  0  0  0  0  0  0  0  0
  -29.9973  -28.1675   21.8537 C   0  0  0  0  0  0  0  0  0  0  0  0
  -23.7161  -12.6838   21.0386 C   0  0  0  0  0  0  0  0  0  0  0  0
  -20.9657  -23.0452   21.0353 C   0  0  0  0  0  0  0  0  0  0  0  0
  -32.3666  -27.9511   21.4334 C   0  0  0  0  0  0  0  0  0  0  0  0
  -28.6408  -22.0722   20.9855 C   0  0  0  0  0  0  0  0  0  0  0  0
  -26.8527  -20.8808   22.3606 C   0  0  0  0  0  0  0  0  0  0  0  0
  -22.5500  -11.9365   21.2041 C   0  0  0  0  0  0  0  0  0  0  0  0
  -25.8944  -29.8129   20.0857 C   0  0  0  0  0  0  0  0  0  0  0  0
  -21.1933  -25.1226   19.8136 C   0  0  0  0  0  0  0  0  0  0  0  0
  -25.3689  -28.5688   20.4839 C   0  0  0  0  0  0  0  0  0  0  0  0
  -20.7568  -24.4303   20.9522 C   0  0  0  0  0  0  0  0  0  0  0  0
  -23.6663  -14.0765   21.0986 C   0  0  0  0  0  0  0  0  0  0  0  0
  -29.9260  -24.3265   19.9613 C   0  0  0  0  0  0  0  0  0  0  0  0
  -21.5887  -22.3563   19.9949 C   0  0  0  0  0  0  0  0  0  0  0  0
  -22.4504  -14.7218   21.3241 C   0  0  0  0  0  0  0  0  0  0  0  0
  -30.8043  -26.4746   20.3306 C   0  0  0  0  0  0  0  0  0  0  0  0
  -31.3078  -28.5876   22.0812 C   0  0  0  0  0  0  0  0  0  0  0  0
  -32.1148  -26.8946   20.5581 C   0  0  0  0  0  0  0  0  0  0  0  0
  -27.9770  -20.9076   21.5138 C   0  0  0  0  0  0  0  0  0  0  0  0
  -26.6144  -19.5448   22.5727 C   0  0  0  0  0  0  0  0  0  0  0  0
  -26.0918  -21.9664   22.9067 C   0  0  0  0  0  0  0  0  0  0  0  0
  -22.0879  -27.4608   21.7723 C   0  0  0  0  0  0  0  0  0  0  0  0
  -18.9888  -27.3243   22.7206 C   0  0  0  0  0  0  0  0  0  0  0  0
  -16.1198  -25.4962   22.9917 C   0  0  0  0  0  0  0  0  0  0  0  0
  -26.1410  -14.3237   20.6969 C   0  0  0  0  0  0  0  0  0  0  0  0
  -25.5470  -31.0893   20.8100 C   0  0  0  0  0  0  0  0  0  0  0  0
  -20.9607  -26.6032   19.6867 C   0  0  0  0  0  0  0  0  0  0  0  0
  -20.0752  -25.1346   22.0958 C   0  0  0  0  0  0  0  0  0  0  0  0
  -24.2935  -30.9775   21.6740 C   0  0  0  0  0  0  0  0  0  0  0  0
  -29.4202  -15.4812   21.4610 C   0  0  0  0  0  0  0  0  0  0  0  0
  -24.3309  -29.6996   22.5061 C   0  0  0  0  0  0  0  0  0  0  0  0
  -29.2446  -16.9939   21.6125 C   0  0  0  0  0  0  0  0  0  0  0  0
  -23.0999   -9.9883   19.7587 C   0  0  0  0  0  0  0  0  0  0  0  0
  -23.5130   -9.8955   22.2502 C   0  0  0  0  0  0  0  0  0  0  0  0
  -28.5304  -14.9148   20.3559 C   0  0  0  0  0  0  0  0  0  0  0  0
  -26.9313  -16.7701   20.6198 C   0  0  0  0  0  0  0  0  0  0  0  0
  -23.2435   -8.4734   19.6882 C   0  0  0  0  0  0  0  0  0  0  0  0
  -23.6531   -8.3813   22.1607 C   0  0  0  0  0  0  0  0  0  0  0  0
  -22.6022  -10.4475   21.1400 C   0  0  0  0  0  0  0  0  0  0  0  0
  -24.3619  -28.4571   21.6080 C   0  0  1  0  0  0  0  0  0  0  0  0
  -20.7895  -27.2988   21.0336 C   0  0  1  0  0  0  0  0  0  0  0  0
  -27.7593  -17.3764   21.7646 C   0  0  2  0  0  0  0  0  0  0  0  0
  -13.7643  -25.6420   23.8450 C   0  0  0  0  0  0  0  0  0  0  0  0
  -20.0079  -27.0130   25.5798 C   0  0  0  0  0  0  0  0  0  0  0  0
  -17.7237  -26.2239   26.2339 C   0  0  0  0  0  0  0  0  0  0  0  0
  -18.0347  -28.5299   25.3349 C   0  0  0  0  0  0  0  0  0  0  0  0
  -24.4405   -6.5292   20.6893 C   0  0  0  0  0  0  0  0  0  0  0  0
  -14.9911  -25.0363   20.2948 C   0  0  0  0  0  0  0  0  0  0  0  0
  -21.2523  -18.8646   19.1217 C   0  0  0  0  0  0  0  0  0  0  0  0
  -22.0969  -18.1213   20.1508 C   0  0  0  0  0  0  0  0  0  0  0  0
  -21.7822  -20.2700   18.8698 C   0  0  0  0  0  0  0  0  0  1  0  0
  -21.5430  -16.7322   20.4349 C   0  0  0  0  0  0  0  0  0  0  0  0
  -18.2248  -26.5534   23.7699 C   0  0  1  0  0  0  0  0  0  0  0  0
  -14.6791  -25.8252   22.6441 C   0  0  2  0  0  0  0  0  0  0  0  0
  -18.5123  -27.0668   25.2091 C   0  0  0  0  0  0  0  0  0  0  0  0
  -28.4221  -19.6857   21.2089 N   0  0  0  0  0  0  0  0  0  0  0  0
  -27.5733  -18.8786   21.8677 N   0  0  0  0  0  0  0  0  0  0  0  0
  -19.8762  -26.5836   21.9271 N   0  0  0  0  0  0  0  0  0  0  0  0
  -27.1375  -15.3142   20.5682 N   0  0  0  0  0  0  0  0  0  0  0  0
  -25.6803  -18.8868   23.2916 N   0  0  0  0  0  0  0  0  0  0  0  0
  -26.4733  -23.2767   22.5874 N   0  0  0  0  0  0  0  0  0  0  0  0
  -24.8592  -14.8219   20.9282 N   0  0  0  0  0  0  0  0  0  0  0  0
  -23.0426  -28.1816   21.0807 N   0  0  0  0  0  0  0  0  0  0  0  0
  -16.8199  -26.6182   23.3819 N   0  0  0  0  0  0  0  0  0  0  0  0
  -24.1626   -8.0039   20.7903 N   0  3  0  0  0  0  0  0  0  0  0  0
  -14.1963  -24.9406   21.5462 N   0  3  0  0  0  0  0  0  0  0  0  0
  -25.1130  -21.7803   23.6687 O   0  0  0  0  0  0  0  0  0  0  0  0
  -22.2137  -26.9694   22.8879 O   0  0  0  0  0  0  0  0  0  0  0  0
  -18.7997  -28.5377   22.6044 O   0  0  0  0  0  0  0  0  0  0  0  0
  -16.5771  -24.3573   22.9275 O   0  0  0  0  0  0  0  0  0  0  0  0
  -26.4095  -13.1212   20.6355 O   0  0  0  0  0  0  0  0  0  0  0  0
  -30.5527  -25.4264   19.4613 O   0  0  0  0  0  0  0  0  0  0  0  0
  -21.7833  -21.0127   20.0883 O   0  0  0  0  0  0  0  0  0  1  0  0
  -22.3800  -16.0894   21.3864 O   0  0  0  0  0  0  0  0  0  0  0  0
  -31.5493  -29.6031   22.9206 F   0  0  0  0  0  0  0  0  0  0  0  0
  -33.1360  -26.2878   19.9378 F   0  0  0  0  0  0  0  0  0  0  0  0
  1  2  1  0  0  0  0
  1  5  2  0  0  0  0
  2  6  2  0  0  0  0
  3  9  2  0  0  0  0
  3 18  1  0  0  0  0
  4 10  1  0  0  0  0
  4 18  2  0  0  0  0
  5 21  1  0  0  0  0
  6 23  1  0  0  0  0
  7 11  2  0  0  0  0
  7 20  1  0  0  0  0
  8 12  2  0  0  0  0
  8 22  1  0  0  0  0
  9 26  1  0  0  0  0
 10 26  2  0  0  0  0
 11 28  1  0  0  0  0
 12 27  1  0  0  0  0
 13 14  2  0  0  0  0
 13 29  1  0  0  0  0
 14 30  1  0  0  0  0
 15 20  2  0  0  0  0
 15 25  1  0  0  0  0
 16 24  1  0  0  0  0
 16 27  2  0  0  0  0
 17 30  2  0  0  0  0
 17 31  1  0  0  0  0
 18 32  1  0  0  0  0
 19 32  1  0  0  0  0
 19 33  2  0  0  0  0
 19 34  1  0  0  0  0
 20 52  1  0  0  0  0
 21 23  2  0  0  0  0
 21 39  1  0  0  0  0
 22 24  2  0  0  0  0
 22 40  1  0  0  0  0
 23 53  1  0  0  0  0
 24 41  1  0  0  0  0
 25 28  2  0  0  0  0
 25 75  1  0  0  0  0
 26 85  1  0  0  0  0
 27 86  1  0  0  0  0
 28 87  1  0  0  0  0
 29 31  2  0  0  0  0
 29 85  1  0  0  0  0
 30 88  1  0  0  0  0
 31 89  1  0  0  0  0
 32 69  2  0  0  0  0
 33 70  1  0  0  0  0
 33 73  1  0  0  0  0
 34 74  1  0  0  0  0
 34 80  2  0  0  0  0
 35 54  1  0  0  0  0
 35 76  1  0  0  0  0
 35 81  2  0  0  0  0
 36 66  1  0  0  0  0
 36 71  1  0  0  0  0
 36 82  2  0  0  0  0
 37 67  1  0  0  0  0
 37 77  1  0  0  0  0
 37 83  2  0  0  0  0
 38 72  1  0  0  0  0
 38 75  1  0  0  0  0
 38 84  2  0  0  0  0
 39 42  1  0  0  0  0
 40 54  1  0  0  0  0
 41 71  1  0  0  0  0
 42 44  1  0  0  0  0
 43 45  1  0  0  0  0
 43 48  1  0  0  0  0
 44 53  1  0  0  0  0
 45 55  1  0  0  0  0
 46 50  1  0  0  0  0
 46 52  1  0  0  0  0
 47 51  1  0  0  0  0
 47 52  1  0  0  0  0
 48 72  1  0  0  0  0
 49 55  1  0  0  0  0
 49 72  1  0  0  0  0
 50 78  1  0  0  0  0
 51 78  1  0  0  0  0
 53 76  1  0  0  0  0
 54 71  1  0  0  0  0
 55 70  1  0  0  0  0
 56 67  1  0  0  0  0
 57 68  1  0  0  0  0
 58 68  1  0  0  0  0
 59 68  1  0  0  0  0
 60 78  1  0  0  0  0
 61 79  1  0  0  0  0
 62 63  1  0  0  0  0
 62 64  1  0  0  0  0
 63 65  1  0  0  0  0
 64 86  1  0  0  0  0
 65 87  1  0  0  0  0
 66 68  1  0  0  0  0
 66 77  1  0  0  0  0
 67 79  1  0  0  0  0
 69 70  1  0  0  0  0
M  CHG  2  78   1  79   1
M  ISO  4  38 100  64 101  75 100  86 101
M  END
> <Batch ID>
0007

> <Smiles>
CNC(C)C(=O)NC(C(=O)N1Cc2cc([101O:1][101CH2:1]CCCOc3ccc(C4CCN(C)CC4)cc3[100NH:0][100C:0](=O)N3CCCC(n4nc(-c5ccc(Oc6ccc(F)cc6F)cc5)c(C(N)=O)c4N)C3)ccc2CC1C(=O)NC1CCCc2ccccc21)C(C)(C)C

> <Shape>
0.250

> <Color>
0.071

> <Negative vol penalty>
0.000

$$$$

  -OEChem-04052315333D

 82 90  0     1  0  0  0  0  0999 V2000
  -31.3400  -30.6649   23.0072 C   0  0  0  0  0  0  0  0  0  0  0  0
  -30.9159  -29.5719   23.7563 C   0  0  0  0  0  0  0  0  0  0  0  0
  -23.1968   -9.8390   19.9567 C   0  0  0  0  0  0  0  0  0  0  0  0
  -23.9072   -9.9249   22.2643 C   0  0  0  0  0  0  0  0  0  0  0  0
  -31.3019  -30.6110   21.6145 C   0  0  0  0  0  0  0  0  0  0  0  0
  -30.4525  -28.4248   23.1130 C   0  0  0  0  0  0  0  0  0  0  0  0
  -31.1591  -22.6286   24.9598 C   0  0  0  0  0  0  0  0  0  0  0  0
  -22.5075   -8.6537   20.2130 C   0  0  0  0  0  0  0  0  0  0  0  0
  -23.2179   -8.7397   22.5207 C   0  0  0  0  0  0  0  0  0  0  0  0
  -30.3161  -21.7519   25.6413 C   0  0  0  0  0  0  0  0  0  0  0  0
  -20.0226   -7.7880   23.0732 C   0  0  0  0  0  0  0  0  0  0  0  0
  -19.2444   -7.7298   24.2293 C   0  0  0  0  0  0  0  0  0  0  0  0
  -29.6109  -20.8044   23.5379 C   0  0  0  0  0  0  0  0  0  0  0  0
  -30.4652  -15.8472   24.2129 C   0  0  0  0  0  0  0  0  0  0  0  0
  -20.5672   -5.8717   25.0261 C   0  0  0  0  0  0  0  0  0  0  0  0
  -32.9706  -16.7333   23.5936 C   0  0  0  0  0  0  0  0  0  0  0  0
  -23.8967  -10.4746   20.9823 C   0  0  0  0  0  0  0  0  0  0  0  0
  -24.1120  -13.0114   20.8225 C   0  0  0  0  0  0  0  0  0  0  0  0
  -30.8468  -29.4591   20.9537 C   0  0  0  0  0  0  0  0  0  0  0  0
  -31.2263  -22.6071   23.5592 C   0  0  0  0  0  0  0  0  0  0  0  0
  -30.4070  -28.3560   21.7102 C   0  0  0  0  0  0  0  0  0  0  0  0
  -30.4575  -21.6801   22.8411 C   0  0  0  0  0  0  0  0  0  0  0  0
  -22.5180   -8.1041   21.4950 C   0  0  0  0  0  0  0  0  0  0  0  0
  -29.5396  -20.8416   24.9302 C   0  0  0  0  0  0  0  0  0  0  0  0
  -21.0731   -6.8881   22.8935 C   0  0  0  0  0  0  0  0  0  0  0  0
  -31.1196  -16.7083   25.0868 C   0  0  0  0  0  0  0  0  0  0  0  0
  -19.5167   -6.7717   25.2057 C   0  0  0  0  0  0  0  0  0  0  0  0
  -21.3454   -5.9299   23.8700 C   0  0  0  0  0  0  0  0  0  0  0  0
  -32.3964  -17.1644   24.7786 C   0  0  0  0  0  0  0  0  0  0  0  0
  -24.6094  -11.6986   20.7180 C   0  0  0  0  0  0  0  0  0  0  0  0
  -31.1258  -15.4752   23.0531 C   0  0  0  0  0  0  0  0  0  0  0  0
  -25.1719  -13.8095   20.4673 C   0  0  0  0  0  0  0  0  0  0  0  0
  -22.8084  -13.4687   21.2063 C   0  0  0  0  0  0  0  0  0  0  0  0
  -30.5798  -24.6938   21.2502 C   0  0  0  0  0  0  0  0  0  0  0  0
  -31.8459  -22.3907   19.3489 C   0  0  0  0  0  0  0  0  0  0  0  0
  -32.5770  -19.0886   18.8928 C   0  0  0  0  0  0  0  0  0  0  0  0
  -30.9200  -14.0950   20.9557 C   0  0  0  0  0  0  0  0  0  0  0  0
  -30.7796  -29.4652   19.4471 C   0  0  0  0  0  0  0  0  0  0  0  0
  -32.1607  -23.5413   22.8404 C   0  0  0  0  0  0  0  0  0  0  0  0
  -30.5084  -21.6029   21.3378 C   0  0  0  0  0  0  0  0  0  0  0  0
  -30.6269  -28.0736   18.8385 C   0  0  0  0  0  0  0  0  0  0  0  0
  -29.3523  -13.1177   17.9120 C   0  0  0  0  0  0  0  0  0  0  0  0
  -29.5488  -27.2844   19.5745 C   0  0  0  0  0  0  0  0  0  0  0  0
  -27.9204  -12.7802   18.3338 C   0  0  0  0  0  0  0  0  0  0  0  0
  -30.3692  -12.7016   18.9734 C   0  0  0  0  0  0  0  0  0  0  0  0
  -28.6673  -12.8715   20.7464 C   0  0  0  0  0  0  0  0  0  0  0  0
  -29.9210  -27.0847   21.0487 C   0  0  1  0  0  0  0  0  0  0  0  0
  -31.7650  -23.7803   21.3865 C   0  0  1  0  0  0  0  0  0  0  0  0
  -27.6018  -13.3307   19.7377 C   0  0  2  0  0  0  0  0  0  0  0  0
  -33.5334  -17.0458   17.7929 C   0  0  0  0  0  0  0  0  0  0  0  0
  -29.2904  -22.5327   17.6878 C   0  0  0  0  0  0  0  0  0  0  0  0
  -29.9206  -20.3393   16.6583 C   0  0  0  0  0  0  0  0  0  0  0  0
  -31.3938  -22.3286   16.3505 C   0  0  0  0  0  0  0  0  0  0  0  0
  -35.1689  -19.4106   20.2846 C   0  0  0  0  0  0  0  0  0  0  0  0
  -28.5727  -18.1925   27.2015 C   0  0  0  0  0  0  0  0  0  0  0  0
  -29.1155  -19.5809   26.9017 C   0  0  0  0  0  0  0  0  0  1  0  0
  -29.0676  -17.1599   26.2008 C   0  0  0  0  0  0  0  0  0  0  0  0
  -31.2976  -21.1949   18.6083 C   0  0  1  0  0  0  0  0  0  0  0  0
  -33.8434  -18.3920   18.4287 C   0  0  2  0  0  0  0  0  0  0  0  0
  -30.4730  -21.6014   17.3545 C   0  0  0  0  0  0  0  0  0  0  0  0
  -32.3661  -15.8975   22.7198 N   0  0  0  0  0  0  0  0  0  0  0  0
  -25.8859  -11.6605   20.3270 N   0  0  0  0  0  0  0  0  0  0  0  0
  -26.1996  -12.9592   20.1825 N   0  0  0  0  0  0  0  0  0  0  0  0
  -31.4327  -22.5414   20.6802 N   0  0  0  0  0  0  0  0  0  0  0  0
  -30.0052  -13.2632   20.2760 N   0  0  0  0  0  0  0  0  0  0  0  0
  -25.3157  -15.1485   20.3739 N   0  0  0  0  0  0  0  0  0  0  0  0
  -21.8372  -12.5148   21.5401 N   0  0  0  0  0  0  0  0  0  0  0  0
  -30.4512  -14.5967   22.1695 N   0  0  0  0  0  0  0  0  0  0  0  0
  -30.9077  -26.0345   21.1830 N   0  0  0  0  0  0  0  0  0  0  0  0
  -32.4401  -20.3349   18.3191 N   0  0  0  0  0  0  0  0  0  0  0  0
  -34.7627  -18.1674   19.5800 N   0  3  0  0  0  0  0  0  0  0  0  0
  -22.5086  -14.6864   21.2361 O   0  0  0  0  0  0  0  0  0  0  0  0
  -29.4516  -24.2175   21.2076 O   0  0  0  0  0  0  0  0  0  0  0  0
  -32.6182  -23.1587   18.7698 O   0  0  0  0  0  0  0  0  0  0  0  0
  -31.7862  -18.5766   19.6821 O   0  0  0  0  0  0  0  0  0  0  0  0
  -32.0265  -14.3659   20.4822 O   0  0  0  0  0  0  0  0  0  0  0  0
  -21.8453   -6.9477   21.7456 O   0  0  0  0  0  0  0  0  0  0  0  0
  -28.7155  -19.9852   25.5930 O   0  0  0  0  0  0  0  0  0  1  0  0
  -30.4865  -17.0910   26.2407 O   0  0  0  0  0  0  0  0  0  0  0  0
  -18.7702   -6.7168   26.3166 F   0  0  0  0  0  0  0  0  0  0  0  0
  -22.3540   -5.0634   23.7035 F   0  0  0  0  0  0  0  0  0  0  0  0
  -33.2565  -18.2309   25.8159 Cl  0  0  0  0  0  0  0  0  0  0  0  0
  1  2  1  0  0  0  0
  1  5  2  0  0  0  0
  2  6  2  0  0  0  0
  3  8  2  0  0  0  0
  3 17  1  0  0  0  0
  4  9  1  0  0  0  0
  4 17  2  0  0  0  0
  5 19  1  0  0  0  0
  6 21  1  0  0  0  0
  7 10  2  0  0  0  0
  7 20  1  0  0  0  0
  8 23  1  0  0  0  0
  9 23  2  0  0  0  0
 10 24  1  0  0  0  0
 11 12  2  0  0  0  0
 11 25  1  0  0  0  0
 12 27  1  0  0  0  0
 13 22  1  0  0  0  0
 13 24  2  0  0  0  0
 14 26  1  0  0  0  0
 14 31  2  0  0  0  0
 15 27  2  0  0  0  0
 15 28  1  0  0  0  0
 16 29  1  0  0  0  0
 16 61  2  0  0  0  0
 17 30  1  0  0  0  0
 18 30  1  0  0  0  0
 18 32  2  0  0  0  0
 18 33  1  0  0  0  0
 19 21  2  0  0  0  0
 19 38  1  0  0  0  0
 20 22  2  0  0  0  0
 20 39  1  0  0  0  0
 21 47  1  0  0  0  0
 22 40  1  0  0  0  0
 23 77  1  0  0  0  0
 24 78  1  0  0  0  0
 25 28  2  0  0  0  0
 25 77  1  0  0  0  0
 26 29  2  0  0  0  0
 26 79  1  0  0  0  0
 27 80  1  0  0  0  0
 28 81  1  0  0  0  0
 29 82  1  0  0  0  0
 30 62  2  0  0  0  0
 31 61  1  0  0  0  0
 31 68  1  0  0  0  0
 32 63  1  0  0  0  0
 32 66  1  0  0  0  0
 33 67  1  0  0  0  0
 33 72  2  0  0  0  0
 34 48  1  0  0  0  0
 34 69  1  0  0  0  0
 34 73  2  0  0  0  0
 35 58  1  0  0  0  0
 35 64  1  0  0  0  0
 35 74  2  0  0  0  0
 36 59  1  0  0  0  0
 36 70  1  0  0  0  0
 36 75  2  0  0  0  0
 37 65  1  0  0  0  0
 37 68  1  0  0  0  0
 37 76  2  0  0  0  0
 38 41  1  0  0  0  0
 39 48  1  0  0  0  0
 40 64  1  0  0  0  0
 41 43  1  0  0  0  0
 42 44  1  0  0  0  0
 42 45  1  0  0  0  0
 43 47  1  0  0  0  0
 44 49  1  0  0  0  0
 45 65  1  0  0  0  0
 46 49  1  0  0  0  0
 46 65  1  0  0  0  0
 47 69  1  0  0  0  0
 48 64  1  0  0  0  0
 49 63  1  0  0  0  0
 50 59  1  0  0  0  0
 51 60  1  0  0  0  0
 52 60  1  0  0  0  0
 53 60  1  0  0  0  0
 54 71  1  0  0  0  0
 55 56  1  0  0  0  0
 55 57  1  0  0  0  0
 56 78  1  0  0  0  0
 57 79  1  0  0  0  0
 58 60  1  0  0  0  0
 58 70  1  0  0  0  0
 59 71  1  0  0  0  0
 62 63  1  0  0  0  0
M  CHG  1  71   1
M  ISO  4  37 100  56 101  68 100  78 101
M  END
> <Batch ID>
0007

> <Smiles>
CNC(C)C(=O)NC(C(=O)N1Cc2cc([101O:1][101CH2:1]CCOc3cc([100NH:0][100C:0](=O)N4CCCC(n5nc(-c6ccc(Oc7ccc(F)cc7F)cc6)c(C(N)=O)c5N)C4)ncc3Cl)ccc2CC1C(=O)NC1CCCc2ccccc21)C(C)(C)C

> <Shape>
0.212

> <Color>
0.187

> <Negative vol penalty>
0.000

$$$$

  -OEChem-04052315333D

 79 86  0     1  0  0  0  0  0999 V2000
  -16.6184  -29.9946   23.5897 C   0  0  0  0  0  0  0  0  0  0  0  0
  -17.7162  -30.7010   24.0704 C   0  0  0  0  0  0  0  0  0  0  0  0
  -25.1033  -20.9558   19.2601 C   0  0  0  0  0  0  0  0  0  0  0  0
  -26.5874  -19.9110   20.8547 C   0  0  0  0  0  0  0  0  0  0  0  0
  -16.8017  -28.7542   22.9799 C   0  0  0  0  0  0  0  0  0  0  0  0
  -18.9979  -30.1670   23.9427 C   0  0  0  0  0  0  0  0  0  0  0  0
  -25.8068  -32.1663   22.9635 C   0  0  0  0  0  0  0  0  0  0  0  0
  -24.7267  -19.6989   18.7869 C   0  0  0  0  0  0  0  0  0  0  0  0
  -26.2108  -18.6540   20.3815 C   0  0  0  0  0  0  0  0  0  0  0  0
  -27.0719  -31.9905   23.5223 C   0  0  0  0  0  0  0  0  0  0  0  0
  -26.9256  -16.6701   17.7388 C   0  0  0  0  0  0  0  0  0  0  0  0
  -27.9349  -15.7353   17.5083 C   0  0  0  0  0  0  0  0  0  0  0  0
  -27.2760  -29.8756   22.3802 C   0  0  0  0  0  0  0  0  0  0  0  0
  -26.9227  -14.2454   19.1185 C   0  0  0  0  0  0  0  0  0  0  0  0
  -26.0336  -21.0619   20.2940 C   0  0  0  0  0  0  0  0  0  0  0  0
  -25.8214  -23.0925   21.8234 C   0  0  0  0  0  0  0  0  0  0  0  0
  -18.0873  -28.2091   22.8359 C   0  0  0  0  0  0  0  0  0  0  0  0
  -25.2613  -31.1913   22.1161 C   0  0  0  0  0  0  0  0  0  0  0  0
  -19.1985  -28.9176   23.3316 C   0  0  0  0  0  0  0  0  0  0  0  0
  -26.0048  -30.0425   21.8099 C   0  0  0  0  0  0  0  0  0  0  0  0
  -25.2805  -18.5480   19.3476 C   0  0  0  0  0  0  0  0  0  0  0  0
  -27.8055  -30.8437   23.2330 C   0  0  0  0  0  0  0  0  0  0  0  0
  -25.9149  -16.3926   18.6592 C   0  0  0  0  0  0  0  0  0  0  0  0
  -27.9335  -14.5230   18.1981 C   0  0  0  0  0  0  0  0  0  0  0  0
  -25.9134  -15.1802   19.3490 C   0  0  0  0  0  0  0  0  0  0  0  0
  -26.4234  -22.3600   20.7828 C   0  0  0  0  0  0  0  0  0  0  0  0
  -26.5569  -24.2500   21.8987 C   0  0  0  0  0  0  0  0  0  0  0  0
  -24.6978  -22.7565   22.6483 C   0  0  0  0  0  0  0  0  0  0  0  0
  -22.6981  -29.3140   22.2141 C   0  0  0  0  0  0  0  0  0  0  0  0
  -30.2611  -29.3206   25.0932 C   0  0  0  0  0  0  0  0  0  0  0  0
  -23.6423  -28.5254   19.2127 C   0  0  0  0  0  0  0  0  0  0  0  0
  -26.1742  -28.3106   16.9345 C   0  0  0  0  0  0  0  0  0  0  0  0
  -32.0049  -26.1277   21.3440 C   0  0  0  0  0  0  0  0  0  0  0  0
  -18.2311  -26.8435   22.2122 C   0  0  0  0  0  0  0  0  0  0  0  0
  -23.9064  -31.4083   21.5001 C   0  0  0  0  0  0  0  0  0  0  0  0
  -25.4726  -28.9754   20.8899 C   0  0  0  0  0  0  0  0  0  0  0  0
  -19.6587  -26.5184   21.7801 C   0  0  0  0  0  0  0  0  0  0  0  0
  -29.5624  -26.6752   18.8120 C   0  0  0  0  0  0  0  0  0  0  0  0
  -20.6463  -26.8804   22.8848 C   0  0  0  0  0  0  0  0  0  0  0  0
  -28.4480  -25.6863   19.1588 C   0  0  0  0  0  0  0  0  0  0  0  0
  -30.9439  -26.0944   19.1058 C   0  0  0  0  0  0  0  0  0  0  0  0
  -30.0084  -24.5974   20.8256 C   0  0  0  0  0  0  0  0  0  0  0  0
  -20.6070  -28.3828   23.1894 C   0  0  1  0  0  0  0  0  0  0  0  0
  -23.2356  -30.1109   21.0593 C   0  0  1  0  0  0  0  0  0  0  0  0
  -28.5944  -25.1591   20.5989 C   0  0  2  0  0  0  0  0  0  0  0  0
  -26.6473  -27.5922   14.5770 C   0  0  0  0  0  0  0  0  0  0  0  0
  -23.5591  -25.6038   20.0889 C   0  0  0  0  0  0  0  0  0  0  0  0
  -24.9185  -25.0309   18.0660 C   0  0  0  0  0  0  0  0  0  0  0  0
  -22.6495  -26.0325   17.7990 C   0  0  0  0  0  0  0  0  0  0  0  0
  -27.0228  -31.0356   16.1513 C   0  0  0  0  0  0  0  0  0  0  0  0
  -30.6360  -28.1527   25.9952 C   0  0  0  0  0  0  0  0  0  0  0  0
  -31.3318  -30.3410   24.7874 C   0  0  0  0  0  0  0  0  0  0  0  0
  -31.1557  -26.9540   25.2004 C   0  0  0  0  0  0  0  0  0  0  0  0
  -32.4482  -27.2587   24.4349 C   0  0  0  0  0  0  0  0  0  0  0  0
  -32.9509  -26.0590   23.6374 C   0  0  0  0  0  0  0  0  0  0  0  0
  -24.5542  -27.4788   18.6191 C   0  0  1  0  0  0  0  0  0  0  0  0
  -26.2646  -28.7510   15.4845 C   0  0  2  0  0  0  0  0  0  0  0  0
  -23.9298  -26.0556   18.6621 C   0  0  0  0  0  0  0  0  0  0  0  0
  -27.4613  -22.9988   20.2361 N   0  0  0  0  0  0  0  0  0  0  0  0
  -29.0899  -29.5073   24.5626 N   0  0  0  0  0  0  0  0  0  1  0  0
  -27.5171  -24.1448   20.9358 N   0  0  0  0  0  0  0  0  0  0  0  0
  -24.1404  -29.2306   20.3174 N   0  0  0  0  0  0  0  0  0  0  0  0
  -31.0170  -25.6140   20.4878 N   0  0  0  0  0  0  0  0  0  0  0  0
  -26.4693  -25.3375   22.6938 N   0  0  0  0  0  0  0  0  0  0  0  0
  -24.0579  -21.5276   22.4375 N   0  0  0  0  0  0  0  0  0  0  0  0
  -21.3300  -29.1227   22.1774 N   0  0  0  0  0  0  0  0  0  0  0  0
  -24.8902  -27.9436   17.2777 N   0  0  0  0  0  0  0  0  0  0  0  0
  -32.0002  -25.6234   22.6388 N   0  0  0  0  0  0  0  0  0  0  0  0
  -27.2868  -29.8247   15.3321 N   0  3  0  0  0  0  0  0  0  0  0  0
  -24.2638  -23.5306   23.5348 O   0  0  0  0  0  0  0  0  0  0  0  0
  -23.4677  -28.9019   23.0741 O   0  0  0  0  0  0  0  0  0  0  0  0
  -22.5319  -28.7153   18.7101 O   0  0  0  0  0  0  0  0  0  0  0  0
  -27.1462  -28.2904   17.6863 O   0  0  0  0  0  0  0  0  0  0  0  0
  -32.8266  -26.9771   20.9830 O   0  0  0  0  0  0  0  0  0  0  0  0
  -24.9131  -17.3213   18.8863 O   0  0  0  0  0  0  0  0  0  0  0  0
  -29.0404  -30.6693   23.7777 O   0  0  0  0  0  0  0  0  0  1  0  0
  -28.9019  -13.6248   17.9756 F   0  0  0  0  0  0  0  0  0  0  0  0
  -24.9444  -14.9074   20.2335 F   0  0  0  0  0  0  0  0  0  0  0  0
  -31.2713  -31.5798   26.0518 Cl  0  0  0  0  0  0  0  0  0  0  0  0
  1  2  1  0  0  0  0
  1  5  2  0  0  0  0
  2  6  2  0  0  0  0
  3  8  2  0  0  0  0
  3 15  1  0  0  0  0
  4  9  1  0  0  0  0
  4 15  2  0  0  0  0
  5 17  1  0  0  0  0
  6 19  1  0  0  0  0
  7 10  2  0  0  0  0
  7 18  1  0  0  0  0
  8 21  1  0  0  0  0
  9 21  2  0  0  0  0
 10 22  1  0  0  0  0
 11 12  2  0  0  0  0
 11 23  1  0  0  0  0
 12 24  1  0  0  0  0
 13 20  1  0  0  0  0
 13 22  2  0  0  0  0
 14 24  2  0  0  0  0
 14 25  1  0  0  0  0
 15 26  1  0  0  0  0
 16 26  1  0  0  0  0
 16 27  2  0  0  0  0
 16 28  1  0  0  0  0
 17 19  2  0  0  0  0
 17 34  1  0  0  0  0
 18 20  2  0  0  0  0
 18 35  1  0  0  0  0
 19 43  1  0  0  0  0
 20 36  1  0  0  0  0
 21 75  1  0  0  0  0
 22 76  1  0  0  0  0
 23 25  2  0  0  0  0
 23 75  1  0  0  0  0
 24 77  1  0  0  0  0
 25 78  1  0  0  0  0
 26 59  2  0  0  0  0
 27 61  1  0  0  0  0
 27 64  1  0  0  0  0
 28 65  1  0  0  0  0
 28 70  2  0  0  0  0
 29 44  1  0  0  0  0
 29 66  1  0  0  0  0
 29 71  2  0  0  0  0
 30 51  1  0  0  0  0
 30 52  1  0  0  0  0
 30 60  2  0  0  0  0
 31 56  1  0  0  0  0
 31 62  1  0  0  0  0
 31 72  2  0  0  0  0
 32 57  1  0  0  0  0
 32 67  1  0  0  0  0
 32 73  2  0  0  0  0
 33 63  1  0  0  0  0
 33 68  1  0  0  0  0
 33 74  2  0  0  0  0
 34 37  1  0  0  0  0
 35 44  1  0  0  0  0
 36 62  1  0  0  0  0
 37 39  1  0  0  0  0
 38 40  1  0  0  0  0
 38 41  1  0  0  0  0
 39 43  1  0  0  0  0
 40 45  1  0  0  0  0
 41 63  1  0  0  0  0
 42 45  1  0  0  0  0
 42 63  1  0  0  0  0
 43 66  1  0  0  0  0
 44 62  1  0  0  0  0
 45 61  1  0  0  0  0
 46 57  1  0  0  0  0
 47 58  1  0  0  0  0
 48 58  1  0  0  0  0
 49 58  1  0  0  0  0
 50 69  1  0  0  0  0
 51 53  1  0  0  0  0
 52 79  1  0  0  0  0
 53 54  1  0  0  0  0
 54 55  1  0  0  0  0
 55 68  1  0  0  0  0
 56 58  1  0  0  0  0
 56 67  1  0  0  0  0
 57 69  1  0  0  0  0
 59 61  1  0  0  0  0
 60 76  1  0  0  0  0
M  CHG  1  69   1
M  ISO  4  33 100  60 101  68 100  76 101
M  END
> <Batch ID>
0007

> <Smiles>
CNC(C)C(=O)NC(C(=O)N1Cc2cc([101O:1][101N:1]=C(CCl)CCCC[100NH:0][100C:0](=O)N3CCCC(n4nc(-c5ccc(Oc6ccc(F)cc6F)cc5)c(C(N)=O)c4N)C3)ccc2CC1C(=O)NC1CCCc2ccccc21)C(C)(C)C

> <Shape>
0.216

> <Color>
0.099

> <Negative vol penalty>
0.000

$$$$

  -OEChem-04052315333D

 83 91  0     1  0  0  0  0  0999 V2000
  -19.8509  -10.3608   21.7413 C   0  0  0  0  0  0  0  0  0  0  0  0
  -20.4592  -11.4661   22.3274 C   0  0  0  0  0  0  0  0  0  0  0  0
  -29.1232  -24.5510   19.2477 C   0  0  0  0  0  0  0  0  0  0  0  0
  -28.3964  -24.3961   21.5465 C   0  0  0  0  0  0  0  0  0  0  0  0
  -20.6306   -9.3805   21.1289 C   0  0  0  0  0  0  0  0  0  0  0  0
  -21.8478  -11.5913   22.3026 C   0  0  0  0  0  0  0  0  0  0  0  0
  -23.3553  -16.2641   21.0629 C   0  0  0  0  0  0  0  0  0  0  0  0
  -22.6824  -27.8440   23.8943 C   0  0  0  0  0  0  0  0  0  0  0  0
  -24.5466  -27.2012   25.2902 C   0  0  0  0  0  0  0  0  0  0  0  0
  -29.2869  -23.1665   19.2061 C   0  0  0  0  0  0  0  0  0  0  0  0
  -28.5601  -23.0115   21.5049 C   0  0  0  0  0  0  0  0  0  0  0  0
  -23.2926  -17.2384   22.0582 C   0  0  0  0  0  0  0  0  0  0  0  0
  -22.2032  -26.5346   23.9312 C   0  0  0  0  0  0  0  0  0  0  0  0
  -24.0674  -25.8917   25.3271 C   0  0  0  0  0  0  0  0  0  0  0  0
  -31.1085  -20.7974   21.6914 C   0  0  0  0  0  0  0  0  0  0  0  0
  -31.7499  -20.1880   22.7696 C   0  0  0  0  0  0  0  0  0  0  0  0
  -25.6582  -16.9791   22.4527 C   0  0  0  0  0  0  0  0  0  0  0  0
  -29.7746  -18.8640   23.1965 C   0  0  0  0  0  0  0  0  0  0  0  0
  -28.6780  -25.1659   20.4179 C   0  0  0  0  0  0  0  0  0  0  0  0
  -29.4982  -27.5757   20.2514 C   0  0  0  0  0  0  0  0  0  0  0  0
  -22.0289   -9.4985   21.0881 C   0  0  0  0  0  0  0  0  0  0  0  0
  -24.5699  -15.6312   20.7621 C   0  0  0  0  0  0  0  0  0  0  0  0
  -22.6470  -10.6110   21.6903 C   0  0  0  0  0  0  0  0  0  0  0  0
  -25.7342  -15.9990   21.4514 C   0  0  0  0  0  0  0  0  0  0  0  0
  -23.8542  -28.1773   24.5737 C   0  0  0  0  0  0  0  0  0  0  0  0
  -29.0054  -22.3967   20.3347 C   0  0  0  0  0  0  0  0  0  0  0  0
  -22.8957  -25.5585   24.6476 C   0  0  0  0  0  0  0  0  0  0  0  0
  -24.4435  -17.5940   22.7553 C   0  0  0  0  0  0  0  0  0  0  0  0
  -29.8000  -20.4402   21.3656 C   0  0  0  0  0  0  0  0  0  0  0  0
  -31.0830  -19.2213   23.5222 C   0  0  0  0  0  0  0  0  0  0  0  0
  -29.1331  -19.4735   22.1182 C   0  0  0  0  0  0  0  0  0  0  0  0
  -28.5092  -26.5961   20.4617 C   0  0  0  0  0  0  0  0  0  0  0  0
  -28.8361  -28.7697   20.4012 C   0  0  0  0  0  0  0  0  0  0  0  0
  -30.8907  -27.4202   19.9477 C   0  0  0  0  0  0  0  0  0  0  0  0
  -25.6307  -12.6374   20.8879 C   0  0  0  0  0  0  0  0  0  0  0  0
  -28.2453  -13.9159   19.4555 C   0  0  0  0  0  0  0  0  0  0  0  0
  -30.1589  -16.6763   18.8511 C   0  0  0  0  0  0  0  0  0  0  0  0
  -24.1185  -30.3660   23.4200 C   0  0  0  0  0  0  0  0  0  0  0  0
  -22.8328   -8.3898   20.4563 C   0  0  0  0  0  0  0  0  0  0  0  0
  -24.6261  -14.6013   19.6673 C   0  0  0  0  0  0  0  0  0  0  0  0
  -27.0668  -15.3640   21.1525 C   0  0  0  0  0  0  0  0  0  0  0  0
  -24.2742   -8.7840   20.1444 C   0  0  0  0  0  0  0  0  0  0  0  0
  -24.5191  -30.7543   19.9083 C   0  0  0  0  0  0  0  0  0  0  0  0
  -24.9019   -9.4990   21.3367 C   0  0  0  0  0  0  0  0  0  0  0  0
  -25.6880  -29.8099   19.6300 C   0  0  0  0  0  0  0  0  0  0  0  0
  -23.5524  -30.1790   20.9439 C   0  0  0  0  0  0  0  0  0  0  0  0
  -25.3718  -28.8230   21.9315 C   0  0  0  0  0  0  0  0  0  0  0  0
  -24.1489  -10.7947   21.6620 C   0  0  1  0  0  0  0  0  0  0  0  0
  -25.8155  -13.6548   19.7978 C   0  0  1  0  0  0  0  0  0  0  0  0
  -26.3905  -29.4006   20.9366 C   0  0  1  0  0  0  0  0  0  0  0  0
  -32.2552  -17.4016   17.6779 C   0  0  0  0  0  0  0  0  0  0  0  0
  -29.9193  -12.6708   21.6820 C   0  0  0  0  0  0  0  0  0  0  0  0
  -31.8020  -14.1808   21.0159 C   0  0  0  0  0  0  0  0  0  0  0  0
  -30.9247  -12.4961   19.3988 C   0  0  0  0  0  0  0  0  0  0  0  0
  -24.8895  -30.1157   25.7691 C   0  0  0  0  0  0  0  0  0  0  0  0
  -28.6707  -18.5361   17.0945 C   0  0  0  0  0  0  0  0  0  0  0  0
  -22.9059  -21.9806   24.1115 C   0  0  0  0  0  0  0  0  0  0  0  0
  -23.9055  -20.8374   24.2475 C   0  0  0  0  0  0  0  0  0  0  0  0
  -23.3921  -23.2389   24.8183 C   0  0  0  0  0  0  0  0  0  0  0  0
  -23.4010  -19.5669   23.5780 C   0  0  0  0  0  0  0  0  0  1  0  0
  -29.5334  -14.5366   19.9397 C   0  0  1  0  0  0  0  0  0  0  0  0
  -30.7480  -17.2321   17.5672 C   0  0  2  0  0  0  0  0  0  0  0  0
  -30.5195  -13.4818   20.5163 C   0  0  0  0  0  0  0  0  0  0  0  0
  -27.3101  -27.1223   20.7252 N   0  0  0  0  0  0  0  0  0  0  0  0
  -27.5414  -28.4454   20.6815 N   0  0  0  0  0  0  0  0  0  0  0  0
  -27.0691  -14.3578   20.0777 N   0  0  0  0  0  0  0  0  0  0  0  0
  -24.2730  -29.7655   22.1562 N   0  0  0  0  0  0  0  0  0  0  0  0
  -29.2410  -30.0549   20.3192 N   0  0  0  0  0  0  0  0  0  0  0  0
  -31.8016  -27.3418   21.0100 N   0  0  0  0  0  0  0  0  0  0  0  0
  -24.5140  -11.8392   20.7292 N   0  0  0  0  0  0  0  0  0  0  0  0
  -30.0656  -15.3010   18.8168 N   0  0  0  0  0  0  0  0  0  0  0  0
  -24.3504  -29.5329   24.5355 N   0  0  0  0  0  0  0  0  0  0  0  0
  -30.1475  -18.5597   17.2540 N   0  3  0  0  0  0  0  0  0  0  0  0
  -31.3166  -27.3692   18.7689 O   0  0  0  0  0  0  0  0  0  0  0  0
  -26.4422  -12.5798   21.8044 O   0  0  0  0  0  0  0  0  0  0  0  0
  -28.2807  -13.0753   18.5534 O   0  0  0  0  0  0  0  0  0  0  0  0
  -29.8192  -17.3904   19.7920 O   0  0  0  0  0  0  0  0  0  0  0  0
  -23.8220  -31.5606   23.5425 O   0  0  0  0  0  0  0  0  0  0  0  0
  -29.1648  -21.0456   20.2943 O   0  0  0  0  0  0  0  0  0  0  0  0
  -22.4249  -24.2719   24.6840 O   0  0  0  0  0  0  0  0  0  0  0  0
  -24.3850  -18.5442   23.7277 O   0  0  0  0  0  0  0  0  0  1  0  0
  -31.6997  -18.6350   24.5567 F   0  0  0  0  0  0  0  0  0  0  0  0
  -27.8765  -19.1253   21.8093 F   0  0  0  0  0  0  0  0  0  0  0  0
  1  2  1  0  0  0  0
  1  5  2  0  0  0  0
  2  6  2  0  0  0  0
  3 10  2  0  0  0  0
  3 19  1  0  0  0  0
  4 11  1  0  0  0  0
  4 19  2  0  0  0  0
  5 21  1  0  0  0  0
  6 23  1  0  0  0  0
  7 12  2  0  0  0  0
  7 22  1  0  0  0  0
  8 13  2  0  0  0  0
  8 25  1  0  0  0  0
  9 14  1  0  0  0  0
  9 25  2  0  0  0  0
 10 26  1  0  0  0  0
 11 26  2  0  0  0  0
 12 28  1  0  0  0  0
 13 27  1  0  0  0  0
 14 27  2  0  0  0  0
 15 16  2  0  0  0  0
 15 29  1  0  0  0  0
 16 30  1  0  0  0  0
 17 24  1  0  0  0  0
 17 28  2  0  0  0  0
 18 30  2  0  0  0  0
 18 31  1  0  0  0  0
 19 32  1  0  0  0  0
 20 32  1  0  0  0  0
 20 33  2  0  0  0  0
 20 34  1  0  0  0  0
 21 23  2  0  0  0  0
 21 39  1  0  0  0  0
 22 24  2  0  0  0  0
 22 40  1  0  0  0  0
 23 48  1  0  0  0  0
 24 41  1  0  0  0  0
 25 72  1  0  0  0  0
 26 79  1  0  0  0  0
 27 80  1  0  0  0  0
 28 81  1  0  0  0  0
 29 31  2  0  0  0  0
 29 79  1  0  0  0  0
 30 82  1  0  0  0  0
 31 83  1  0  0  0  0
 32 64  2  0  0  0  0
 33 65  1  0  0  0  0
 33 68  1  0  0  0  0
 34 69  1  0  0  0  0
 34 74  2  0  0  0  0
 35 49  1  0  0  0  0
 35 70  1  0  0  0  0
 35 75  2  0  0  0  0
 36 61  1  0  0  0  0
 36 66  1  0  0  0  0
 36 76  2  0  0  0  0
 37 62  1  0  0  0  0
 37 71  1  0  0  0  0
 37 77  2  0  0  0  0
 38 67  1  0  0  0  0
 38 72  1  0  0  0  0
 38 78  2  0  0  0  0
 39 42  1  0  0  0  0
 40 49  1  0  0  0  0
 41 66  1  0  0  0  0
 42 44  1  0  0  0  0
 43 45  1  0  0  0  0
 43 46  1  0  0  0  0
 44 48  1  0  0  0  0
 45 50  1  0  0  0  0
 46 67  1  0  0  0  0
 47 50  1  0  0  0  0
 47 67  1  0  0  0  0
 48 70  1  0  0  0  0
 49 66  1  0  0  0  0
 50 65  1  0  0  0  0
 51 62  1  0  0  0  0
 52 63  1  0  0  0  0
 53 63  1  0  0  0  0
 54 63  1  0  0  0  0
 55 72  1  0  0  0  0
 56 73  1  0  0  0  0
 57 58  1  0  0  0  0
 57 59  1  0  0  0  0
 58 60  1  0  0  0  0
 59 80  1  0  0  0  0
 60 81  1  0  0  0  0
 61 63  1  0  0  0  0
 61 71  1  0  0  0  0
 62 73  1  0  0  0  0
 64 65  1  0  0  0  0
M  CHG  1  73   1
M  ISO  4  38 100  60 101  72 100  81 101
M  END
> <Batch ID>
0007

> <Smiles>
CNC(C)C(=O)NC(C(=O)N1Cc2cc([101O:1][101CH2:1]CCCOc3ccc([100N:0](C)[100C:0](=O)N4CCCC(n5nc(-c6ccc(Oc7ccc(F)cc7F)cc6)c(C(N)=O)c5N)C4)cc3)ccc2CC1C(=O)NC1CCCc2ccccc21)C(C)(C)C

> <Shape>
0.270

> <Color>
0.075

> <Negative vol penalty>
0.000

$$$$

  -OEChem-04052315333D

 88 96  0     1  0  0  0  0  0999 V2000
  -28.4921  -17.1257   22.3152 C   0  0  0  0  0  0  0  0  0  0  0  0
  -28.9341  -15.9171   22.8436 C   0  0  0  0  0  0  0  0  0  0  0  0
  -23.1896   -9.8200   19.9317 C   0  0  0  0  0  0  0  0  0  0  0  0
  -23.5695   -9.9997   22.3108 C   0  0  0  0  0  0  0  0  0  0  0  0
  -28.0817  -18.1495   23.1680 C   0  0  0  0  0  0  0  0  0  0  0  0
  -28.9671  -15.7320   24.2253 C   0  0  0  0  0  0  0  0  0  0  0  0
  -27.1092  -11.2346   25.6278 C   0  0  0  0  0  0  0  0  0  0  0  0
  -32.6599  -12.1045   23.9595 C   0  0  0  0  0  0  0  0  0  0  0  0
  -22.4235   -8.6733   20.1406 C   0  0  0  0  0  0  0  0  0  0  0  0
  -22.8033   -8.8530   22.5198 C   0  0  0  0  0  0  0  0  0  0  0  0
  -27.9379  -10.1251   25.4667 C   0  0  0  0  0  0  0  0  0  0  0  0
  -33.3878  -11.7940   25.1082 C   0  0  0  0  0  0  0  0  0  0  0  0
  -21.2465   -5.7690   23.6489 C   0  0  0  0  0  0  0  0  0  0  0  0
  -21.7435   -4.8089   24.5303 C   0  0  0  0  0  0  0  0  0  0  0  0
  -28.4977  -10.2102   27.8116 C   0  0  0  0  0  0  0  0  0  0  0  0
  -30.7003  -12.5144   25.3121 C   0  0  0  0  0  0  0  0  0  0  0  0
  -23.7012   -4.5452   23.1393 C   0  0  0  0  0  0  0  0  0  0  0  0
  -23.7627  -10.4832   21.0168 C   0  0  0  0  0  0  0  0  0  0  0  0
  -24.1013  -12.9999   20.7734 C   0  0  0  0  0  0  0  0  0  0  0  0
  -28.1005  -17.9735   24.5606 C   0  0  0  0  0  0  0  0  0  0  0  0
  -26.9768  -11.8480   26.8819 C   0  0  0  0  0  0  0  0  0  0  0  0
  -28.5578  -16.7549   25.0976 C   0  0  0  0  0  0  0  0  0  0  0  0
  -27.6647  -11.3258   27.9865 C   0  0  0  0  0  0  0  0  0  0  0  0
  -31.3162  -12.4647   24.0615 C   0  0  0  0  0  0  0  0  0  0  0  0
  -31.4282  -12.2038   26.4607 C   0  0  0  0  0  0  0  0  0  0  0  0
  -22.2303   -8.1898   21.4347 C   0  0  0  0  0  0  0  0  0  0  0  0
  -28.6346   -9.6145   26.5580 C   0  0  0  0  0  0  0  0  0  0  0  0
  -32.7719  -11.8436   26.3587 C   0  0  0  0  0  0  0  0  0  0  0  0
  -21.9768   -6.1171   22.5126 C   0  0  0  0  0  0  0  0  0  0  0  0
  -22.9708   -4.1970   24.2755 C   0  0  0  0  0  0  0  0  0  0  0  0
  -23.2042   -5.5053   22.2578 C   0  0  0  0  0  0  0  0  0  0  0  0
  -24.5547  -11.6674   20.8015 C   0  0  0  0  0  0  0  0  0  0  0  0
  -25.2324  -13.7426   20.5376 C   0  0  0  0  0  0  0  0  0  0  0  0
  -22.7762  -13.5198   20.9453 C   0  0  0  0  0  0  0  0  0  0  0  0
  -27.6197  -14.7351   28.0460 C   0  0  0  0  0  0  0  0  0  0  0  0
  -26.1545  -13.5663   30.6935 C   0  0  0  0  0  0  0  0  0  0  0  0
  -33.9940   -7.3115   28.4378 C   0  0  0  0  0  0  0  0  0  0  0  0
  -25.2397  -10.8422   32.5344 C   0  0  0  0  0  0  0  0  0  0  0  0
  -31.0375  -12.7816   21.5779 C   0  0  0  0  0  0  0  0  0  0  0  0
  -27.6920  -19.1259   25.4436 C   0  0  0  0  0  0  0  0  0  0  0  0
  -26.0581  -13.0278   27.0447 C   0  0  0  0  0  0  0  0  0  0  0  0
  -27.5410  -11.9354   29.3583 C   0  0  0  0  0  0  0  0  0  0  0  0
  -27.4035  -18.7160   26.8854 C   0  0  0  0  0  0  0  0  0  0  0  0
  -29.5229  -13.4640   18.4286 C   0  0  0  0  0  0  0  0  0  0  0  0
  -28.5045  -17.8003   27.4106 C   0  0  0  0  0  0  0  0  0  0  0  0
  -28.0350  -13.2079   18.6788 C   0  0  0  0  0  0  0  0  0  0  0  0
  -30.4046  -12.4788   19.1940 C   0  0  0  0  0  0  0  0  0  0  0  0
  -28.6458  -12.1369   20.8850 C   0  0  0  0  0  0  0  0  0  0  0  0
  -28.5847  -16.5072   26.5902 C   0  0  1  0  0  0  0  0  0  0  0  0
  -26.3980  -13.8866   28.2589 C   0  0  1  0  0  0  0  0  0  0  0  0
  -27.7196  -13.1456   20.1862 C   0  0  2  0  0  0  0  0  0  0  0  0
  -24.0866  -10.2049   34.6702 C   0  0  0  0  0  0  0  0  0  0  0  0
  -28.6350  -14.3805   32.2729 C   0  0  0  0  0  0  0  0  0  0  0  0
  -27.8498  -12.9017   34.1343 C   0  0  0  0  0  0  0  0  0  0  0  0
  -26.4648  -14.8509   33.4234 C   0  0  0  0  0  0  0  0  0  0  0  0
  -23.1387   -9.3414   31.0880 C   0  0  0  0  0  0  0  0  0  0  0  0
  -34.7597   -8.4083   29.1589 C   0  0  0  0  0  0  0  0  0  0  0  0
  -34.1475   -9.7954   28.9911 C   0  0  0  0  0  0  0  0  0  0  0  0
  -30.9535   -6.8376   27.1849 C   0  0  0  0  0  0  0  0  0  0  0  0
  -31.7401   -6.2670   28.3572 C   0  0  0  0  0  0  0  0  0  0  0  0
  -34.0657  -10.2297   27.5324 C   0  0  0  0  0  0  0  0  0  0  0  0
  -30.1285   -8.0615   27.5641 C   0  0  0  0  0  0  0  0  0  1  0  0
  -26.6080  -12.8197   31.9248 C   0  0  1  0  0  0  0  0  0  0  0  0
  -23.9202  -10.4598   33.1802 C   0  0  2  0  0  0  0  0  0  0  0  0
  -27.3934  -13.7277   32.9127 C   0  0  0  0  0  0  0  0  0  0  0  0
  -25.8712  -11.5664   20.5995 N   0  0  0  0  0  0  0  0  0  0  0  0
  -26.2546  -12.8448   20.4421 N   0  0  0  0  0  0  0  0  0  0  0  0
  -26.6355  -13.0913   29.4652 N   0  0  0  0  0  0  0  0  0  0  0  0
  -30.0517  -12.4769   20.6154 N   0  0  0  0  0  0  0  0  0  0  0  0
  -30.7925  -12.2582   27.7202 N   0  0  0  0  0  0  0  0  0  0  0  0
  -25.4422  -15.0695   20.4046 N   0  0  0  0  0  0  0  0  0  0  0  0
  -21.7297  -12.6175   21.1798 N   0  0  0  0  0  0  0  0  0  0  0  0
  -30.5776  -12.7810   22.8943 N   0  0  0  0  0  0  0  0  0  0  0  0
  -27.5241  -15.5997   26.9723 N   0  0  0  0  0  0  0  0  0  0  0  0
  -32.6831   -7.2092   28.8932 N   0  0  0  0  0  0  0  0  0  0  0  0
  -25.4121  -12.2097   32.4958 N   0  0  0  0  0  0  0  0  0  0  0  0
  -23.3739   -9.2246   32.5502 N   0  3  0  0  0  0  0  0  0  0  0  0
  -22.5250  -14.7468   20.8761 O   0  0  0  0  0  0  0  0  0  0  0  0
  -28.5776  -14.6152   28.8008 O   0  0  0  0  0  0  0  0  0  0  0  0
  -25.3957  -14.5310   30.8166 O   0  0  0  0  0  0  0  0  0  0  0  0
  -34.4821   -6.6230   27.5459 O   0  0  0  0  0  0  0  0  0  0  0  0
  -26.0394  -10.0108   32.1103 O   0  0  0  0  0  0  0  0  0  0  0  0
  -32.1973  -13.0517   21.2558 O   0  0  0  0  0  0  0  0  0  0  0  0
  -21.4825   -7.0710   21.6389 O   0  0  0  0  0  0  0  0  0  0  0  0
  -29.4446   -8.5320   26.4034 O   0  0  0  0  0  0  0  0  0  1  0  0
  -33.5045  -11.5346   27.4750 O   0  0  0  0  0  0  0  0  0  0  0  0
  -23.4486   -3.2762   25.1229 F   0  0  0  0  0  0  0  0  0  0  0  0
  -23.9109   -5.8365   21.1685 F   0  0  0  0  0  0  0  0  0  0  0  0
  1  2  1  0  0  0  0
  1  5  2  0  0  0  0
  2  6  2  0  0  0  0
  3  9  2  0  0  0  0
  3 18  1  0  0  0  0
  4 10  1  0  0  0  0
  4 18  2  0  0  0  0
  5 20  1  0  0  0  0
  6 22  1  0  0  0  0
  7 11  2  0  0  0  0
  7 21  1  0  0  0  0
  8 12  2  0  0  0  0
  8 24  1  0  0  0  0
  9 26  1  0  0  0  0
 10 26  2  0  0  0  0
 11 27  1  0  0  0  0
 12 28  1  0  0  0  0
 13 14  2  0  0  0  0
 13 29  1  0  0  0  0
 14 30  1  0  0  0  0
 15 23  1  0  0  0  0
 15 27  2  0  0  0  0
 16 24  2  0  0  0  0
 16 25  1  0  0  0  0
 17 30  2  0  0  0  0
 17 31  1  0  0  0  0
 18 32  1  0  0  0  0
 19 32  1  0  0  0  0
 19 33  2  0  0  0  0
 19 34  1  0  0  0  0
 20 22  2  0  0  0  0
 20 40  1  0  0  0  0
 21 23  2  0  0  0  0
 21 41  1  0  0  0  0
 22 49  1  0  0  0  0
 23 42  1  0  0  0  0
 24 73  1  0  0  0  0
 25 28  2  0  0  0  0
 25 70  1  0  0  0  0
 26 84  1  0  0  0  0
 27 85  1  0  0  0  0
 28 86  1  0  0  0  0
 29 31  2  0  0  0  0
 29 84  1  0  0  0  0
 30 87  1  0  0  0  0
 31 88  1  0  0  0  0
 32 66  2  0  0  0  0
 33 67  1  0  0  0  0
 33 71  1  0  0  0  0
 34 72  1  0  0  0  0
 34 78  2  0  0  0  0
 35 50  1  0  0  0  0
 35 74  1  0  0  0  0
 35 79  2  0  0  0  0
 36 63  1  0  0  0  0
 36 68  1  0  0  0  0
 36 80  2  0  0  0  0
 37 57  1  0  0  0  0
 37 75  1  0  0  0  0
 37 81  2  0  0  0  0
 38 64  1  0  0  0  0
 38 76  1  0  0  0  0
 38 82  2  0  0  0  0
 39 69  1  0  0  0  0
 39 73  1  0  0  0  0
 39 83  2  0  0  0  0
 40 43  1  0  0  0  0
 41 50  1  0  0  0  0
 42 68  1  0  0  0  0
 43 45  1  0  0  0  0
 44 46  1  0  0  0  0
 44 47  1  0  0  0  0
 45 49  1  0  0  0  0
 46 51  1  0  0  0  0
 47 69  1  0  0  0  0
 48 51  1  0  0  0  0
 48 69  1  0  0  0  0
 49 74  1  0  0  0  0
 50 68  1  0  0  0  0
 51 67  1  0  0  0  0
 52 64  1  0  0  0  0
 53 65  1  0  0  0  0
 54 65  1  0  0  0  0
 55 65  1  0  0  0  0
 56 77  1  0  0  0  0
 57 58  1  0  0  0  0
 58 61  1  0  0  0  0
 59 60  1  0  0  0  0
 59 62  1  0  0  0  0
 60 75  1  0  0  0  0
 61 86  1  0  0  0  0
 62 85  1  0  0  0  0
 63 65  1  0  0  0  0
 63 76  1  0  0  0  0
 64 77  1  0  0  0  0
 66 67  1  0  0  0  0
M  CHG  1  77   1
M  ISO  4  39 100  62 101  73 100  85 101
M  END
> <Batch ID>
0007

> <Smiles>
CNC(C)C(=O)NC(C(=O)N1Cc2cc([101O:1][101CH2:1]CCNC(=O)CCCOc3ccc([100NH:0][100C:0](=O)N4CCCC(n5nc(-c6ccc(Oc7ccc(F)cc7F)cc6)c(C(N)=O)c5N)C4)cc3N)ccc2CC1C(=O)NC1CCCc2ccccc21)C(C)(C)C

> <Shape>
0.142

> <Color>
0.171

> <Negative vol penalty>
0.000

$$$$

  -OEChem-04052315333D

 93101  0     1  0  0  0  0  0999 V2000
  -31.5634  -24.1882   19.0359 C   0  0  0  0  0  0  0  0  0  0  0  0
  -30.2970  -24.1439   19.6101 C   0  0  0  0  0  0  0  0  0  0  0  0
  -28.3526  -14.3330   19.5700 C   0  0  0  0  0  0  0  0  0  0  0  0
  -26.2254  -15.3545   20.0885 C   0  0  0  0  0  0  0  0  0  0  0  0
  -32.4851  -25.1461   19.4563 C   0  0  0  0  0  0  0  0  0  0  0  0
  -29.9520  -25.0569   20.6060 C   0  0  0  0  0  0  0  0  0  0  0  0
  -25.3411  -27.0339   19.9163 C   0  0  0  0  0  0  0  0  0  0  0  0
  -27.7050  -24.0594   24.4643 C   0  0  0  0  0  0  0  0  0  0  0  0
  -27.8185  -13.0763   19.8547 C   0  0  0  0  0  0  0  0  0  0  0  0
  -25.6913  -14.0977   20.3731 C   0  0  0  0  0  0  0  0  0  0  0  0
  -24.2495  -26.2433   20.2729 C   0  0  0  0  0  0  0  0  0  0  0  0
  -26.8570  -25.0365   24.9855 C   0  0  0  0  0  0  0  0  0  0  0  0
  -24.5037  -11.4481   18.6441 C   0  0  0  0  0  0  0  0  0  0  0  0
  -23.2427  -11.1495   18.1281 C   0  0  0  0  0  0  0  0  0  0  0  0
  -24.0553  -27.4581   22.3479 C   0  0  0  0  0  0  0  0  0  0  0  0
  -25.8005  -22.9091   23.5224 C   0  0  0  0  0  0  0  0  0  0  0  0
  -22.4021  -10.8251   20.3698 C   0  0  0  0  0  0  0  0  0  0  0  0
  -27.5561  -15.4721   19.6870 C   0  0  0  0  0  0  0  0  0  0  0  0
  -28.1192  -17.4276   18.1486 C   0  0  0  0  0  0  0  0  0  0  0  0
  -32.1479  -26.0775   20.4511 C   0  0  0  0  0  0  0  0  0  0  0  0
  -25.8055  -28.0370   20.7791 C   0  0  0  0  0  0  0  0  0  0  0  0
  -30.8705  -26.0273   21.0411 C   0  0  0  0  0  0  0  0  0  0  0  0
  -25.1513  -28.2617   21.9988 C   0  0  0  0  0  0  0  0  0  0  0  0
  -27.1768  -22.9957   23.7327 C   0  0  0  0  0  0  0  0  0  0  0  0
  -26.4879  -12.9586   20.2562 C   0  0  0  0  0  0  0  0  0  0  0  0
  -23.6082  -26.4534   21.4902 C   0  0  0  0  0  0  0  0  0  0  0  0
  -24.7140  -11.4351   20.0230 C   0  0  0  0  0  0  0  0  0  0  0  0
  -25.4808  -24.9499   24.7753 C   0  0  0  0  0  0  0  0  0  0  0  0
  -22.1919  -10.8380   18.9909 C   0  0  0  0  0  0  0  0  0  0  0  0
  -24.9525  -23.8862   24.0437 C   0  0  0  0  0  0  0  0  0  0  0  0
  -23.6632  -11.1236   20.8858 C   0  0  0  0  0  0  0  0  0  0  0  0
  -28.1074  -16.7706   19.3936 C   0  0  0  0  0  0  0  0  0  0  0  0
  -28.7519  -18.6213   18.3963 C   0  0  0  0  0  0  0  0  0  0  0  0
  -27.6043  -16.9974   16.8816 C   0  0  0  0  0  0  0  0  0  0  0  0
  -28.5307  -28.5848   22.3208 C   0  0  0  0  0  0  0  0  0  0  0  0
  -27.0766  -31.3784   23.0980 C   0  0  0  0  0  0  0  0  0  0  0  0
  -19.6546  -26.3161   21.7177 C   0  0  0  0  0  0  0  0  0  0  0  0
  -24.1661  -33.1057   23.5361 C   0  0  0  0  0  0  0  0  0  0  0  0
  -29.4262  -21.9393   23.3199 C   0  0  0  0  0  0  0  0  0  0  0  0
  -33.1938  -27.0642   20.9062 C   0  0  0  0  0  0  0  0  0  0  0  0
  -26.9676  -28.8989   20.3679 C   0  0  0  0  0  0  0  0  0  0  0  0
  -25.5982  -29.3392   22.9516 C   0  0  0  0  0  0  0  0  0  0  0  0
  -32.6217  -28.2343   21.7024 C   0  0  0  0  0  0  0  0  0  0  0  0
  -32.0211  -20.5982   21.2839 C   0  0  0  0  0  0  0  0  0  0  0  0
  -31.6399  -27.7333   22.7568 C   0  0  0  0  0  0  0  0  0  0  0  0
  -31.3118  -19.5285   20.4505 C   0  0  0  0  0  0  0  0  0  0  0  0
  -31.4703  -20.6660   22.7072 C   0  0  0  0  0  0  0  0  0  0  0  0
  -29.3041  -19.7540   21.9688 C   0  0  0  0  0  0  0  0  0  0  0  0
  -30.4504  -27.0164   22.1066 C   0  0  1  0  0  0  0  0  0  0  0  0
  -27.6758  -29.5514   21.5511 C   0  0  1  0  0  0  0  0  0  0  0  0
  -29.7804  -19.6926   20.5083 C   0  0  2  0  0  0  0  0  0  0  0  0
  -23.2962  -35.3608   24.2108 C   0  0  0  0  0  0  0  0  0  0  0  0
  -27.6760  -30.7329   26.0193 C   0  0  0  0  0  0  0  0  0  0  0  0
  -25.9986  -32.4720   26.6752 C   0  0  0  0  0  0  0  0  0  0  0  0
  -28.0313  -33.1259   25.3855 C   0  0  0  0  0  0  0  0  0  0  0  0
  -18.3119  -24.9378   23.3238 C   0  0  0  0  0  0  0  0  0  0  0  0
  -22.8654  -33.5183   20.9099 C   0  0  0  0  0  0  0  0  0  0  0  0
  -20.2970  -25.0060   21.2736 C   0  0  0  0  0  0  0  0  0  0  0  0
  -19.8898  -27.8856   26.6288 C   0  0  0  0  0  0  0  0  0  0  0  0
  -21.3480  -28.0992   27.0451 C   0  0  0  0  0  0  0  0  0  0  0  0
  -19.7048  -27.7278   25.1173 C   0  0  0  0  0  0  0  0  0  0  0  0
  -22.2662  -26.9341   26.6680 C   0  0  0  0  0  0  0  0  0  0  0  0
  -18.2248  -27.5568   24.7574 C   0  0  0  0  0  0  0  0  0  0  0  0
  -23.7128  -27.2113   27.0911 C   0  0  0  0  0  0  0  0  0  0  0  0
  -17.9881  -27.3794   23.2565 C   0  0  0  0  0  0  0  0  0  0  0  0
  -21.7295  -25.1776   20.7841 C   0  0  0  0  0  0  0  0  0  1  0  0
  -24.6551  -26.0800   26.6980 C   0  0  0  0  0  0  0  0  0  0  0  0
  -26.1871  -31.8430   24.2257 C   0  0  1  0  0  0  0  0  0  0  0  0
  -23.7246  -34.4748   23.0514 C   0  0  2  0  0  0  0  0  0  0  0  0
  -26.9658  -32.0218   25.5596 C   0  0  0  0  0  0  0  0  0  0  0  0
  -28.6866  -17.4874   20.3604 N   0  0  0  0  0  0  0  0  0  0  0  0
  -29.0685  -18.6071   19.7229 N   0  0  0  0  0  0  0  0  0  0  0  0
  -26.7430  -30.1514   22.5072 N   0  0  0  0  0  0  0  0  0  0  0  0
  -30.0147  -20.8261   22.6833 N   0  0  0  0  0  0  0  0  0  0  0  0
  -29.0627  -19.6711   17.6066 N   0  0  0  0  0  0  0  0  0  0  0  0
  -26.9838  -15.7431   16.8036 N   0  0  0  0  0  0  0  0  0  0  0  0
  -28.0381  -22.0030   23.2031 N   0  0  0  0  0  0  0  0  0  0  0  0
  -29.5154  -27.9787   21.5642 N   0  0  0  0  0  0  0  0  0  0  0  0
  -25.5270  -33.0548   23.7522 N   0  0  0  0  0  0  0  0  0  0  0  0
  -18.6883  -26.2154   22.7275 N   0  0  0  0  0  0  0  0  0  0  0  0
  -22.5768  -34.3455   22.1096 N   0  3  0  0  0  0  0  0  0  0  0  0
  -27.7065  -17.6973   15.8456 O   0  0  0  0  0  0  0  0  0  0  0  0
  -28.3141  -28.4035   23.5132 O   0  0  0  0  0  0  0  0  0  0  0  0
  -28.0281  -32.0817   22.7492 O   0  0  0  0  0  0  0  0  0  0  0  0
  -19.9879  -27.3853   21.1999 O   0  0  0  0  0  0  0  0  0  0  0  0
  -23.3817  -32.1756   23.7096 O   0  0  0  0  0  0  0  0  0  0  0  0
  -30.1061  -22.7891   23.9009 O   0  0  0  0  0  0  0  0  0  0  0  0
  -25.9663  -11.7325   20.5338 O   0  0  0  0  0  0  0  0  0  0  0  0
  -22.5354  -25.6773   21.8435 O   0  0  0  0  0  0  0  0  0  1  0  0
  -24.6489  -25.9117   25.2878 O   0  0  0  0  0  0  0  0  0  0  0  0
  -20.9806  -10.5529   18.4952 F   0  0  0  0  0  0  0  0  0  0  0  0
  -23.6314  -23.7983   23.8374 F   0  0  0  0  0  0  0  0  0  0  0  0
  -23.8588  -11.1107   22.2115 F   0  0  0  0  0  0  0  0  0  0  0  0
  1  2  1  0  0  0  0
  1  5  2  0  0  0  0
  2  6  2  0  0  0  0
  3  9  2  0  0  0  0
  3 18  1  0  0  0  0
  4 10  1  0  0  0  0
  4 18  2  0  0  0  0
  5 20  1  0  0  0  0
  6 22  1  0  0  0  0
  7 11  2  0  0  0  0
  7 21  1  0  0  0  0
  8 12  2  0  0  0  0
  8 24  1  0  0  0  0
  9 25  1  0  0  0  0
 10 25  2  0  0  0  0
 11 26  1  0  0  0  0
 12 28  1  0  0  0  0
 13 14  2  0  0  0  0
 13 27  1  0  0  0  0
 14 29  1  0  0  0  0
 15 23  1  0  0  0  0
 15 26  2  0  0  0  0
 16 24  2  0  0  0  0
 16 30  1  0  0  0  0
 17 29  2  0  0  0  0
 17 31  1  0  0  0  0
 18 32  1  0  0  0  0
 19 32  1  0  0  0  0
 19 33  2  0  0  0  0
 19 34  1  0  0  0  0
 20 22  2  0  0  0  0
 20 40  1  0  0  0  0
 21 23  2  0  0  0  0
 21 41  1  0  0  0  0
 22 49  1  0  0  0  0
 23 42  1  0  0  0  0
 24 77  1  0  0  0  0
 25 88  1  0  0  0  0
 26 89  1  0  0  0  0
 27 31  2  0  0  0  0
 27 88  1  0  0  0  0
 28 30  2  0  0  0  0
 28 90  1  0  0  0  0
 29 91  1  0  0  0  0
 30 92  1  0  0  0  0
 31 93  1  0  0  0  0
 32 71  2  0  0  0  0
 33 72  1  0  0  0  0
 33 75  1  0  0  0  0
 34 76  1  0  0  0  0
 34 82  2  0  0  0  0
 35 50  1  0  0  0  0
 35 78  1  0  0  0  0
 35 83  2  0  0  0  0
 36 68  1  0  0  0  0
 36 73  1  0  0  0  0
 36 84  2  0  0  0  0
 37 58  1  0  0  0  0
 37 80  1  0  0  0  0
 37 85  2  0  0  0  0
 38 69  1  0  0  0  0
 38 79  1  0  0  0  0
 38 86  2  0  0  0  0
 39 74  1  0  0  0  0
 39 77  1  0  0  0  0
 39 87  2  0  0  0  0
 40 43  1  0  0  0  0
 41 50  1  0  0  0  0
 42 73  1  0  0  0  0
 43 45  1  0  0  0  0
 44 46  1  0  0  0  0
 44 47  1  0  0  0  0
 45 49  1  0  0  0  0
 46 51  1  0  0  0  0
 47 74  1  0  0  0  0
 48 51  1  0  0  0  0
 48 74  1  0  0  0  0
 49 78  1  0  0  0  0
 50 73  1  0  0  0  0
 51 72  1  0  0  0  0
 52 69  1  0  0  0  0
 53 70  1  0  0  0  0
 54 70  1  0  0  0  0
 55 70  1  0  0  0  0
 56 80  1  0  0  0  0
 57 81  1  0  0  0  0
 58 66  1  0  0  0  0
 59 60  1  0  0  0  0
 59 61  1  0  0  0  0
 60 62  1  0  0  0  0
 61 63  1  0  0  0  0
 62 64  1  0  0  0  0
 63 65  1  0  0  0  0
 64 67  1  0  0  0  0
 65 80  1  0  0  0  0
 66 89  1  0  0  0  0
 67 90  1  0  0  0  0
 68 70  1  0  0  0  0
 68 79  1  0  0  0  0
 69 81  1  0  0  0  0
 71 72  1  0  0  0  0
M  CHG  1  81   1
M  ISO  4  39 100  66 101  77 100  89 101
M  END
> <Batch ID>
0007

> <Smiles>
CNC(C)C(=O)NC(C(=O)N1Cc2cc([101O:1][101CH2:1]CC(=O)N(C)CCCCCCCCOc3ccc([100NH:0][100C:0](=O)N4CCCC(n5nc(-c6ccc(Oc7ccc(F)cc7F)cc6)c(C(N)=O)c5N)C4)cc3F)ccc2CC1C(=O)NC1CCCc2ccccc21)C(C)(C)C

> <Shape>
0.252

> <Color>
0.052

> <Negative vol penalty>
0.000

$$$$

  -OEChem-04052315333D

 87 95  0     1  0  0  0  0  0999 V2000
  -31.9556  -17.0994   23.1205 C   0  0  0  0  0  0  0  0  0  0  0  0
  -30.6907  -17.6559   23.2811 C   0  0  0  0  0  0  0  0  0  0  0  0
  -28.8218  -26.1679   19.6808 C   0  0  0  0  0  0  0  0  0  0  0  0
  -26.7594  -25.2872   18.7821 C   0  0  0  0  0  0  0  0  0  0  0  0
  -32.1775  -16.1524   22.1216 C   0  0  0  0  0  0  0  0  0  0  0  0
  -29.6472  -17.2664   22.4422 C   0  0  0  0  0  0  0  0  0  0  0  0
  -23.7322  -16.7223   23.9330 C   0  0  0  0  0  0  0  0  0  0  0  0
  -18.1906  -27.8440   24.0231 C   0  0  0  0  0  0  0  0  0  0  0  0
  -18.2812  -27.0818   21.7323 C   0  0  0  0  0  0  0  0  0  0  0  0
  -19.4235  -28.4761   23.8616 C   0  0  0  0  0  0  0  0  0  0  0  0
  -19.5141  -27.7140   21.5707 C   0  0  0  0  0  0  0  0  0  0  0  0
  -29.4157  -24.9128   19.5480 C   0  0  0  0  0  0  0  0  0  0  0  0
  -27.3532  -24.0321   18.6492 C   0  0  0  0  0  0  0  0  0  0  0  0
  -22.6389  -17.5695   23.7577 C   0  0  0  0  0  0  0  0  0  0  0  0
  -28.1231  -21.4161   20.6479 C   0  0  0  0  0  0  0  0  0  0  0  0
  -27.3920  -20.3054   21.0693 C   0  0  0  0  0  0  0  0  0  0  0  0
  -22.0518  -16.3845   21.7401 C   0  0  0  0  0  0  0  0  0  0  0  0
  -27.4835  -19.3966   18.8326 C   0  0  0  0  0  0  0  0  0  0  0  0
  -27.4937  -26.3551   19.2979 C   0  0  0  0  0  0  0  0  0  0  0  0
  -26.8538  -28.6854   18.4806 C   0  0  0  0  0  0  0  0  0  0  0  0
  -31.1338  -15.7440   21.2762 C   0  0  0  0  0  0  0  0  0  0  0  0
  -24.0002  -15.7050   23.0058 C   0  0  0  0  0  0  0  0  0  0  0  0
  -29.8557  -16.3140   21.4302 C   0  0  0  0  0  0  0  0  0  0  0  0
  -23.1477  -15.5241   21.9073 C   0  0  0  0  0  0  0  0  0  0  0  0
  -17.6195  -27.1468   22.9585 C   0  0  0  0  0  0  0  0  0  0  0  0
  -20.0852  -28.4111   22.6354 C   0  0  0  0  0  0  0  0  0  0  0  0
  -28.6814  -23.8449   19.0322 C   0  0  0  0  0  0  0  0  0  0  0  0
  -21.8002  -17.4025   22.6596 C   0  0  0  0  0  0  0  0  0  0  0  0
  -28.5342  -21.5171   19.3188 C   0  0  0  0  0  0  0  0  0  0  0  0
  -27.0723  -19.2957   20.1616 C   0  0  0  0  0  0  0  0  0  0  0  0
  -28.2145  -20.5074   18.4112 C   0  0  0  0  0  0  0  0  0  0  0  0
  -26.8795  -27.6512   19.4354 C   0  0  0  0  0  0  0  0  0  0  0  0
  -26.1546  -29.6983   19.0902 C   0  0  0  0  0  0  0  0  0  0  0  0
  -27.4119  -28.7266   17.1606 C   0  0  0  0  0  0  0  0  0  0  0  0
  -26.4104  -15.0358   21.0444 C   0  0  0  0  0  0  0  0  0  0  0  0
  -24.7104  -12.3253   20.5096 C   0  0  0  0  0  0  0  0  0  0  0  0
  -16.4067  -25.0311   23.6145 C   0  0  0  0  0  0  0  0  0  0  0  0
  -21.6836  -10.7494   20.5451 C   0  0  0  0  0  0  0  0  0  0  0  0
  -22.0426  -29.7865   23.4248 C   0  0  0  0  0  0  0  0  0  0  0  0
  -31.4333  -14.7521   20.1802 C   0  0  0  0  0  0  0  0  0  0  0  0
  -25.1682  -14.7826   23.2236 C   0  0  0  0  0  0  0  0  0  0  0  0
  -23.3802  -14.4343   20.8941 C   0  0  0  0  0  0  0  0  0  0  0  0
  -30.1839  -14.1170   19.5753 C   0  0  0  0  0  0  0  0  0  0  0  0
  -25.1694  -31.4896   23.4209 C   0  0  0  0  0  0  0  0  0  0  0  0
  -29.1355  -15.1833   19.2741 C   0  0  0  0  0  0  0  0  0  0  0  0
  -25.9583  -30.7967   22.3075 C   0  0  0  0  0  0  0  0  0  0  0  0
  -24.2941  -30.5043   24.1934 C   0  0  0  0  0  0  0  0  0  0  0  0
  -24.1891  -28.9928   22.2509 C   0  0  0  0  0  0  0  0  0  0  0  0
  -28.6923  -15.8989   20.5559 C   0  0  1  0  0  0  0  0  0  0  0  0
  -25.6426  -14.1062   21.9411 C   0  0  1  0  0  0  0  0  0  0  0  0
  -25.0362  -29.9557   21.4030 C   0  0  2  0  0  0  0  0  0  0  0  0
  -20.6032   -8.5466   20.0177 C   0  0  0  0  0  0  0  0  0  0  0  0
  -24.8636  -12.9662   17.5304 C   0  0  0  0  0  0  0  0  0  0  0  0
  -23.0166  -11.3190   17.1521 C   0  0  0  0  0  0  0  0  0  0  0  0
  -25.1946  -10.5529   18.0966 C   0  0  0  0  0  0  0  0  0  0  0  0
  -20.8034  -10.3786   23.3463 C   0  0  0  0  0  0  0  0  0  0  0  0
  -16.2886  -26.4644   23.1330 C   0  0  0  0  0  0  0  0  0  0  0  0
  -17.0633  -20.5380   22.5923 C   0  0  0  0  0  0  0  0  0  0  0  0
  -18.3307  -19.8735   22.0512 C   0  0  0  0  0  0  0  0  0  0  0  0
  -17.0802  -22.0476   22.3518 C   0  0  0  0  0  0  0  0  0  0  0  0
  -18.3251  -18.3657   22.3198 C   0  0  0  0  0  0  0  0  0  0  0  0
  -15.8353  -22.7143   22.9247 C   0  0  0  0  0  0  0  0  0  0  0  0
  -19.5938  -17.6862   21.8186 C   0  0  0  0  0  0  0  0  0  1  0  0
  -23.6286  -11.9157   19.5396 C   0  0  1  0  0  0  0  0  0  0  0  0
  -21.2570   -9.3997   21.0936 C   0  0  2  0  0  0  0  0  0  0  0  0
  -24.1723  -11.7103   18.0975 C   0  0  0  0  0  0  0  0  0  0  0  0
  -26.2471  -27.9773   20.5658 N   0  0  0  0  0  0  0  0  0  0  0  0
  -25.8175  -29.2278   20.3252 N   0  0  0  0  0  0  0  0  0  0  0  0
  -24.5388  -13.5621   21.1474 N   0  0  0  0  0  0  0  0  0  0  0  0
  -23.4447  -29.7463   23.2721 N   0  0  0  0  0  0  0  0  0  0  0  0
  -25.8016  -30.9367   18.6851 N   0  0  0  0  0  0  0  0  0  0  0  0
  -28.0991  -27.5993   16.6902 N   0  0  0  0  0  0  0  0  0  0  0  0
  -21.3375  -29.0534   22.4709 N   0  0  0  0  0  0  0  0  0  0  0  0
  -27.7675  -15.0727   21.3020 N   0  0  0  0  0  0  0  0  0  0  0  0
  -15.8492  -24.1352   22.7077 N   0  0  0  0  0  0  0  0  0  0  0  0
  -22.9927  -10.7342   20.1124 N   0  0  0  0  0  0  0  0  0  0  0  0
  -20.2838   -9.5776   22.2081 N   0  3  0  0  0  0  0  0  0  0  0  0
  -27.3186  -29.7394   16.4263 O   0  0  0  0  0  0  0  0  0  0  0  0
  -25.8157  -15.6713   20.1817 O   0  0  0  0  0  0  0  0  0  0  0  0
  -25.6688  -11.5723   20.6998 O   0  0  0  0  0  0  0  0  0  0  0  0
  -16.9365  -24.7141   24.6764 O   0  0  0  0  0  0  0  0  0  0  0  0
  -20.9296  -11.7190   20.5011 O   0  0  0  0  0  0  0  0  0  0  0  0
  -21.5058  -30.4464   24.3183 O   0  0  0  0  0  0  0  0  0  0  0  0
  -29.2606  -22.6201   18.9022 O   0  0  0  0  0  0  0  0  0  0  0  0
  -20.7327  -18.2285   22.4857 O   0  0  0  0  0  0  0  0  0  1  0  0
  -26.3716  -18.2284   20.5668 F   0  0  0  0  0  0  0  0  0  0  0  0
  -28.6077  -20.5983   17.1333 F   0  0  0  0  0  0  0  0  0  0  0  0
  1  2  1  0  0  0  0
  1  5  2  0  0  0  0
  2  6  2  0  0  0  0
  3 12  2  0  0  0  0
  3 19  1  0  0  0  0
  4 13  1  0  0  0  0
  4 19  2  0  0  0  0
  5 21  1  0  0  0  0
  6 23  1  0  0  0  0
  7 14  2  0  0  0  0
  7 22  1  0  0  0  0
  8 10  2  0  0  0  0
  8 25  1  0  0  0  0
  9 11  1  0  0  0  0
  9 25  2  0  0  0  0
 10 26  1  0  0  0  0
 11 26  2  0  0  0  0
 12 27  1  0  0  0  0
 13 27  2  0  0  0  0
 14 28  1  0  0  0  0
 15 16  2  0  0  0  0
 15 29  1  0  0  0  0
 16 30  1  0  0  0  0
 17 24  1  0  0  0  0
 17 28  2  0  0  0  0
 18 30  2  0  0  0  0
 18 31  1  0  0  0  0
 19 32  1  0  0  0  0
 20 32  1  0  0  0  0
 20 33  2  0  0  0  0
 20 34  1  0  0  0  0
 21 23  2  0  0  0  0
 21 40  1  0  0  0  0
 22 24  2  0  0  0  0
 22 41  1  0  0  0  0
 23 49  1  0  0  0  0
 24 42  1  0  0  0  0
 25 57  1  0  0  0  0
 26 73  1  0  0  0  0
 27 84  1  0  0  0  0
 28 85  1  0  0  0  0
 29 31  2  0  0  0  0
 29 84  1  0  0  0  0
 30 86  1  0  0  0  0
 31 87  1  0  0  0  0
 32 67  2  0  0  0  0
 33 68  1  0  0  0  0
 33 71  1  0  0  0  0
 34 72  1  0  0  0  0
 34 78  2  0  0  0  0
 35 50  1  0  0  0  0
 35 74  1  0  0  0  0
 35 79  2  0  0  0  0
 36 64  1  0  0  0  0
 36 69  1  0  0  0  0
 36 80  2  0  0  0  0
 37 57  1  0  0  0  0
 37 75  1  0  0  0  0
 37 81  2  0  0  0  0
 38 65  1  0  0  0  0
 38 76  1  0  0  0  0
 38 82  2  0  0  0  0
 39 70  1  0  0  0  0
 39 73  1  0  0  0  0
 39 83  2  0  0  0  0
 40 43  1  0  0  0  0
 41 50  1  0  0  0  0
 42 69  1  0  0  0  0
 43 45  1  0  0  0  0
 44 46  1  0  0  0  0
 44 47  1  0  0  0  0
 45 49  1  0  0  0  0
 46 51  1  0  0  0  0
 47 70  1  0  0  0  0
 48 51  1  0  0  0  0
 48 70  1  0  0  0  0
 49 74  1  0  0  0  0
 50 69  1  0  0  0  0
 51 68  1  0  0  0  0
 52 65  1  0  0  0  0
 53 66  1  0  0  0  0
 54 66  1  0  0  0  0
 55 66  1  0  0  0  0
 56 77  1  0  0  0  0
 58 59  1  0  0  0  0
 58 60  1  0  0  0  0
 59 61  1  0  0  0  0
 60 62  1  0  0  0  0
 61 63  1  0  0  0  0
 62 75  1  0  0  0  0
 63 85  1  0  0  0  0
 64 66  1  0  0  0  0
 64 76  1  0  0  0  0
 65 77  1  0  0  0  0
 67 68  1  0  0  0  0
M  CHG  1  77   1
M  ISO  4  39 100  63 101  73 100  85 101
M  END
> <Batch ID>
0007

> <Smiles>
CNC(C)C(=O)NC(C(=O)N1Cc2cc([101O:1][101CH2:1]CCCCCNC(=O)Cc3ccc([100NH:0][100C:0](=O)N4CCCC(n5nc(-c6ccc(Oc7ccc(F)cc7F)cc6)c(C(N)=O)c5N)C4)cc3)ccc2CC1C(=O)NC1CCCc2ccccc21)C(C)(C)C

> <Shape>
0.254

> <Color>
0.088

> <Negative vol penalty>
0.000

$$$$

  -OEChem-04052315333D

 91 99  0     1  0  0  0  0  0999 V2000
  -22.2227  -37.2276   23.2998 C   0  0  0  0  0  0  0  0  0  0  0  0
  -22.5240  -36.2221   22.3868 C   0  0  0  0  0  0  0  0  0  0  0  0
  -29.5345  -20.2170   19.9116 C   0  0  0  0  0  0  0  0  0  0  0  0
  -24.5583   -8.5168   20.5617 C   0  0  0  0  0  0  0  0  0  0  0  0
  -23.1116  -10.4495   20.6574 C   0  0  0  0  0  0  0  0  0  0  0  0
  -23.1360  -37.5549   24.3012 C   0  0  0  0  0  0  0  0  0  0  0  0
  -23.7393  -35.5440   22.4740 C   0  0  0  0  0  0  0  0  0  0  0  0
  -23.2107  -30.5348   21.9505 C   0  0  0  0  0  0  0  0  0  0  0  0
  -29.5507  -18.8986   20.3667 C   0  0  0  0  0  0  0  0  0  0  0  0
  -29.0469  -20.5092   18.6378 C   0  0  0  0  0  0  0  0  0  0  0  0
  -23.5003   -7.7047   20.9700 C   0  0  0  0  0  0  0  0  0  0  0  0
  -22.0536   -9.6373   21.0656 C   0  0  0  0  0  0  0  0  0  0  0  0
  -23.0382  -30.0445   20.6569 C   0  0  0  0  0  0  0  0  0  0  0  0
  -21.2722   -5.1754   22.3345 C   0  0  0  0  0  0  0  0  0  0  0  0
  -21.5264   -4.2248   23.3231 C   0  0  0  0  0  0  0  0  0  0  0  0
  -25.3707  -29.4335   20.5838 C   0  0  0  0  0  0  0  0  0  0  0  0
  -22.1738   -5.9837   24.8477 C   0  0  0  0  0  0  0  0  0  0  0  0
  -24.3640   -9.8893   20.4054 C   0  0  0  0  0  0  0  0  0  0  0  0
  -25.8131  -11.0613   18.6636 C   0  0  0  0  0  0  0  0  0  0  0  0
  -24.3590  -36.8738   24.4066 C   0  0  0  0  0  0  0  0  0  0  0  0
  -24.4691  -30.4880   22.5675 C   0  0  0  0  0  0  0  0  0  0  0  0
  -24.6704  -35.8633   23.4769 C   0  0  0  0  0  0  0  0  0  0  0  0
  -25.5560  -29.9216   21.8864 C   0  0  0  0  0  0  0  0  0  0  0  0
  -28.5918  -18.1645   18.2742 C   0  0  0  0  0  0  0  0  0  0  0  0
  -29.0794  -17.8723   19.5480 C   0  0  0  0  0  0  0  0  0  0  0  0
  -28.5756  -19.4829   17.8191 C   0  0  0  0  0  0  0  0  0  0  0  0
  -22.2480   -8.2649   21.2219 C   0  0  0  0  0  0  0  0  0  0  0  0
  -24.1189  -29.4964   19.9722 C   0  0  0  0  0  0  0  0  0  0  0  0
  -21.4689   -6.5301   22.6024 C   0  0  0  0  0  0  0  0  0  0  0  0
  -21.9772   -4.6289   24.5797 C   0  0  0  0  0  0  0  0  0  0  0  0
  -21.9196   -6.9342   23.8590 C   0  0  0  0  0  0  0  0  0  0  0  0
  -25.4566  -10.7288   19.9843 C   0  0  0  0  0  0  0  0  0  0  0  0
  -26.9100  -11.8767   18.7990 C   0  0  0  0  0  0  0  0  0  0  0  0
  -25.2068  -10.6683   17.4252 C   0  0  0  0  0  0  0  0  0  0  0  0
  -26.5033  -32.6616   23.6817 C   0  0  0  0  0  0  0  0  0  0  0  0
  -28.1188  -30.0483   24.7227 C   0  0  0  0  0  0  0  0  0  0  0  0
  -28.9450  -20.4431   15.5490 C   0  0  0  0  0  0  0  0  0  0  0  0
  -28.7667  -26.7154   24.3783 C   0  0  0  0  0  0  0  0  0  0  0  0
  -29.5636  -16.1008   21.2725 C   0  0  0  0  0  0  0  0  0  0  0  0
  -25.3346  -37.2950   25.4769 C   0  0  0  0  0  0  0  0  0  0  0  0
  -24.6327  -30.9967   23.9735 C   0  0  0  0  0  0  0  0  0  0  0  0
  -26.9230  -29.8293   22.5119 C   0  0  0  0  0  0  0  0  0  0  0  0
  -26.4401  -36.2732   25.7296 C   0  0  0  0  0  0  0  0  0  0  0  0
  -29.7629  -12.9148   22.8493 C   0  0  0  0  0  0  0  0  0  0  0  0
  -27.0305  -35.7880   24.4095 C   0  0  0  0  0  0  0  0  0  0  0  0
  -28.6897  -12.0894   22.1358 C   0  0  0  0  0  0  0  0  0  0  0  0
  -29.3293  -14.3675   23.0375 C   0  0  0  0  0  0  0  0  0  0  0  0
  -27.8154  -14.2221   21.0994 C   0  0  0  0  0  0  0  0  0  0  0  0
  -25.9677  -35.0880   23.5540 C   0  0  1  0  0  0  0  0  0  0  0  0
  -26.0737  -31.3667   24.3112 C   0  0  1  0  0  0  0  0  0  0  0  0
  -28.2332  -12.7675   20.8292 C   0  0  2  0  0  0  0  0  0  0  0  0
  -28.0866  -17.0625   17.3948 C   0  0  0  0  0  0  0  0  0  0  0  0
  -28.3859  -20.6064   14.1542 C   0  0  0  0  0  0  0  0  0  0  0  0
  -30.1606  -24.8689   25.3503 C   0  0  0  0  0  0  0  0  0  0  0  0
  -30.5746  -31.1483   23.2843 C   0  0  0  0  0  0  0  0  0  0  0  0
  -31.6150  -28.8788   23.4722 C   0  0  0  0  0  0  0  0  0  0  0  0
  -31.0390  -30.1595   25.5340 C   0  0  0  0  0  0  0  0  0  0  0  0
  -26.3719  -25.1642   25.1642 C   0  0  0  0  0  0  0  0  0  0  0  0
  -24.6828  -23.9858   17.2489 C   0  0  0  0  0  0  0  0  0  0  0  0
  -24.8442  -22.8597   16.2222 C   0  0  0  0  0  0  0  0  0  0  0  0
  -23.8086  -25.1414   16.7563 C   0  0  0  0  0  0  0  0  0  0  0  0
  -25.6961  -21.6932   16.7294 C   0  0  0  0  0  0  0  0  0  0  0  0
  -23.6583  -26.2198   17.8326 C   0  0  0  0  0  0  0  0  0  0  0  0
  -25.8548  -20.5641   15.7030 C   0  0  0  0  0  0  0  0  0  0  0  0
  -22.8085  -27.3909   17.3305 C   0  0  0  0  0  0  0  0  0  0  0  0
  -26.7339  -19.4012   16.1538 C   0  0  0  0  0  0  0  0  0  0  0  0
  -22.6717  -28.4932   18.3738 C   0  0  0  0  0  0  0  0  0  1  0  0
  -29.1845  -29.1495   24.1437 C   0  0  1  0  0  0  0  0  0  0  0  0
  -28.8222  -25.5897   25.3953 C   0  0  2  0  0  0  0  0  0  0  0  0
  -30.5781  -29.8374   24.0958 C   0  0  0  0  0  0  0  0  0  0  0  0
  -26.2619  -11.2873   20.8919 N   0  0  0  0  0  0  0  0  0  0  0  0
  -27.1353  -11.9788   20.1402 N   0  0  0  0  0  0  0  0  0  0  0  0
  -27.0338  -30.3460   23.8860 N   0  0  0  0  0  0  0  0  0  0  0  0
  -28.9148  -14.9456   21.7574 N   0  0  0  0  0  0  0  0  0  0  0  0
  -27.6942  -12.5091   17.9004 N   0  0  0  0  0  0  0  0  0  0  0  0
  -24.0868   -9.8268   17.4670 N   0  0  0  0  0  0  0  0  0  0  0  0
  -29.1067  -16.5403   20.0304 N   0  0  0  0  0  0  0  0  0  0  0  0
  -25.7282  -33.7471   24.0428 N   0  0  0  0  0  0  0  0  0  0  0  0
  -29.1518  -27.9198   24.9281 N   0  0  0  0  0  0  0  0  0  0  0  0
  -28.0700  -19.8135   16.4847 N   0  0  0  0  0  0  0  0  0  0  0  0
  -27.7441  -24.5963   25.1277 N   0  3  0  0  0  0  0  0  0  0  0  0
  -25.6553  -11.0386   16.3138 O   0  0  0  0  0  0  0  0  0  0  0  0
  -27.4676  -32.6752   22.9256 O   0  0  0  0  0  0  0  0  0  0  0  0
  -28.2408  -30.4650   25.8773 O   0  0  0  0  0  0  0  0  0  0  0  0
  -30.0999  -20.8243   15.7554 O   0  0  0  0  0  0  0  0  0  0  0  0
  -28.4202  -26.5428   23.2118 O   0  0  0  0  0  0  0  0  0  0  0  0
  -30.4773  -16.6434   21.8993 O   0  0  0  0  0  0  0  0  0  0  0  0
  -21.2153   -7.4726   21.6201 O   0  0  0  0  0  0  0  0  0  0  0  0
  -23.9522  -29.0141   18.6996 O   0  0  0  0  0  0  0  0  0  1  0  0
  -22.2197   -3.7161   25.5295 F   0  0  0  0  0  0  0  0  0  0  0  0
  -22.1093   -8.2343   24.1227 F   0  0  0  0  0  0  0  0  0  0  0  0
  1  2  1  0  0  0  0
  1  6  2  0  0  0  0
  2  7  2  0  0  0  0
  3  9  1  0  0  0  0
  3 10  2  0  0  0  0
  4 11  2  0  0  0  0
  4 18  1  0  0  0  0
  5 12  1  0  0  0  0
  5 18  2  0  0  0  0
  6 20  1  0  0  0  0
  7 22  1  0  0  0  0
  8 13  2  0  0  0  0
  8 21  1  0  0  0  0
  9 25  2  0  0  0  0
 10 26  1  0  0  0  0
 11 27  1  0  0  0  0
 12 27  2  0  0  0  0
 13 28  1  0  0  0  0
 14 15  2  0  0  0  0
 14 29  1  0  0  0  0
 15 30  1  0  0  0  0
 16 23  1  0  0  0  0
 16 28  2  0  0  0  0
 17 30  2  0  0  0  0
 17 31  1  0  0  0  0
 18 32  1  0  0  0  0
 19 32  1  0  0  0  0
 19 33  2  0  0  0  0
 19 34  1  0  0  0  0
 20 22  2  0  0  0  0
 20 40  1  0  0  0  0
 21 23  2  0  0  0  0
 21 41  1  0  0  0  0
 22 49  1  0  0  0  0
 23 42  1  0  0  0  0
 24 25  1  0  0  0  0
 24 26  2  0  0  0  0
 24 52  1  0  0  0  0
 25 77  1  0  0  0  0
 26 80  1  0  0  0  0
 27 88  1  0  0  0  0
 28 89  1  0  0  0  0
 29 31  2  0  0  0  0
 29 88  1  0  0  0  0
 30 90  1  0  0  0  0
 31 91  1  0  0  0  0
 32 71  2  0  0  0  0
 33 72  1  0  0  0  0
 33 75  1  0  0  0  0
 34 76  1  0  0  0  0
 34 82  2  0  0  0  0
 35 50  1  0  0  0  0
 35 78  1  0  0  0  0
 35 83  2  0  0  0  0
 36 68  1  0  0  0  0
 36 73  1  0  0  0  0
 36 84  2  0  0  0  0
 37 53  1  0  0  0  0
 37 80  1  0  0  0  0
 37 85  2  0  0  0  0
 38 69  1  0  0  0  0
 38 79  1  0  0  0  0
 38 86  2  0  0  0  0
 39 74  1  0  0  0  0
 39 77  1  0  0  0  0
 39 87  2  0  0  0  0
 40 43  1  0  0  0  0
 41 50  1  0  0  0  0
 42 73  1  0  0  0  0
 43 45  1  0  0  0  0
 44 46  1  0  0  0  0
 44 47  1  0  0  0  0
 45 49  1  0  0  0  0
 46 51  1  0  0  0  0
 47 74  1  0  0  0  0
 48 51  1  0  0  0  0
 48 74  1  0  0  0  0
 49 78  1  0  0  0  0
 50 73  1  0  0  0  0
 51 72  1  0  0  0  0
 54 69  1  0  0  0  0
 55 70  1  0  0  0  0
 56 70  1  0  0  0  0
 57 70  1  0  0  0  0
 58 81  1  0  0  0  0
 59 60  1  0  0  0  0
 59 61  1  0  0  0  0
 60 62  1  0  0  0  0
 61 63  1  0  0  0  0
 62 64  1  0  0  0  0
 63 65  1  0  0  0  0
 64 66  1  0  0  0  0
 65 67  1  0  0  0  0
 66 80  1  0  0  0  0
 67 89  1  0  0  0  0
 68 70  1  0  0  0  0
 68 79  1  0  0  0  0
 69 81  1  0  0  0  0
 71 72  1  0  0  0  0
M  CHG  1  81   1
M  ISO  4  39 100  67 101  77 100  89 101
M  END
> <Batch ID>
0007

> <Smiles>
CNC(C)C(=O)NC(C(=O)N1Cc2cc([101O:1][101CH2:1]CCCCCCCCN(C(C)=O)c3cccc([100NH:0][100C:0](=O)N4CCCC(n5nc(-c6ccc(Oc7ccc(F)cc7F)cc6)c(C(N)=O)c5N)C4)c3C)ccc2CC1C(=O)NC1CCCc2ccccc21)C(C)(C)C

> <Shape>
0.299

> <Color>
0.093

> <Negative vol penalty>
0.000

$$$$

  -OEChem-04052315333D

 86 94  0     1  0  0  0  0  0999 V2000
  -33.8372  -24.2659   22.3887 C   0  0  0  0  0  0  0  0  0  0  0  0
  -33.0560  -23.7955   23.4394 C   0  0  0  0  0  0  0  0  0  0  0  0
  -25.2600  -30.3636   19.6615 C   0  0  0  0  0  0  0  0  0  0  0  0
  -24.5039  -29.4277   21.7566 C   0  0  0  0  0  0  0  0  0  0  0  0
  -33.3924  -24.1274   21.0746 C   0  0  0  0  0  0  0  0  0  0  0  0
  -31.8290  -23.1874   23.1766 C   0  0  0  0  0  0  0  0  0  0  0  0
  -27.4936  -18.0573   25.6671 C   0  0  0  0  0  0  0  0  0  0  0  0
  -25.3256  -31.6268   20.2494 C   0  0  0  0  0  0  0  0  0  0  0  0
  -24.5695  -30.6909   22.3445 C   0  0  0  0  0  0  0  0  0  0  0  0
  -26.1684  -17.8607   26.0532 C   0  0  0  0  0  0  0  0  0  0  0  0
  -24.8831  -33.6062   24.4941 C   0  0  0  0  0  0  0  0  0  0  0  0
  -25.4674  -33.7051   25.7568 C   0  0  0  0  0  0  0  0  0  0  0  0
  -25.5383  -17.6050   23.7387 C   0  0  0  0  0  0  0  0  0  0  0  0
  -18.8471  -21.3076   20.3499 C   0  0  0  0  0  0  0  0  0  0  0  0
  -18.9094  -19.9706   22.3612 C   0  0  0  0  0  0  0  0  0  0  0  0
  -27.5369  -32.8312   24.8676 C   0  0  0  0  0  0  0  0  0  0  0  0
  -24.8491  -29.2640   20.4151 C   0  0  0  0  0  0  0  0  0  0  0  0
  -25.8048  -26.9950   19.7474 C   0  0  0  0  0  0  0  0  0  0  0  0
  -32.1638  -23.5086   20.7949 C   0  0  0  0  0  0  0  0  0  0  0  0
  -27.8498  -18.0401   24.3109 C   0  0  0  0  0  0  0  0  0  0  0  0
  -31.3668  -23.0418   21.8575 C   0  0  0  0  0  0  0  0  0  0  0  0
  -26.8691  -17.7992   23.3382 C   0  0  0  0  0  0  0  0  0  0  0  0
  -18.2238  -20.4295   21.2365 C   0  0  0  0  0  0  0  0  0  0  0  0
  -20.8417  -21.2677   21.7126 C   0  0  0  0  0  0  0  0  0  0  0  0
  -20.1561  -21.7266   20.5879 C   0  0  0  0  0  0  0  0  0  0  0  0
  -20.2184  -20.3897   22.5993 C   0  0  0  0  0  0  0  0  0  0  0  0
  -24.9803  -31.7904   21.5909 C   0  0  0  0  0  0  0  0  0  0  0  0
  -25.1901  -17.6374   25.0888 C   0  0  0  0  0  0  0  0  0  0  0  0
  -25.6257  -33.1197   23.4181 C   0  0  0  0  0  0  0  0  0  0  0  0
  -26.7943  -33.3176   25.9436 C   0  0  0  0  0  0  0  0  0  0  0  0
  -26.9526  -32.7323   23.6049 C   0  0  0  0  0  0  0  0  0  0  0  0
  -24.7807  -27.9590   19.8082 C   0  0  0  0  0  0  0  0  0  0  0  0
  -25.2423  -25.9386   19.0734 C   0  0  0  0  0  0  0  0  0  0  0  0
  -27.1446  -27.0495   20.2548 C   0  0  0  0  0  0  0  0  0  0  0  0
  -29.1057  -20.1523   22.2946 C   0  0  0  0  0  0  0  0  0  0  0  0
  -29.1542  -17.6128   20.2769 C   0  0  0  0  0  0  0  0  0  0  0  0
  -27.8709  -14.5692   19.4188 C   0  0  0  0  0  0  0  0  0  0  0  0
  -20.2127  -23.1548   18.5134 C   0  0  0  0  0  0  0  0  0  0  0  0
  -31.7032  -23.4242   19.3612 C   0  0  0  0  0  0  0  0  0  0  0  0
  -29.2881  -18.2274   23.9125 C   0  0  0  0  0  0  0  0  0  0  0  0
  -27.2030  -17.7509   21.8703 C   0  0  0  0  0  0  0  0  0  0  0  0
  -30.5637  -22.4317   19.1450 C   0  0  0  0  0  0  0  0  0  0  0  0
  -21.3852  -25.4095   16.0196 C   0  0  0  0  0  0  0  0  0  0  0  0
  -29.4847  -22.6181   20.2070 C   0  0  0  0  0  0  0  0  0  0  0  0
  -22.4807  -26.2034   16.7349 C   0  0  0  0  0  0  0  0  0  0  0  0
  -20.2181  -25.0874   16.9513 C   0  0  0  0  0  0  0  0  0  0  0  0
  -21.6871  -25.2219   18.9244 C   0  0  0  0  0  0  0  0  0  0  0  0
  -30.0414  -22.3541   21.6113 C   0  0  1  0  0  0  0  0  0  0  0  0
  -29.4521  -18.7009   22.4716 C   0  0  1  0  0  0  0  0  0  0  0  0
  -22.9131  -25.5139   18.0438 C   0  0  2  0  0  0  0  0  0  0  0  0
  -22.2465  -21.7178   21.9694 C   0  0  0  0  0  0  0  0  0  0  0  0
  -28.0864  -12.7544   17.6991 C   0  0  0  0  0  0  0  0  0  0  0  0
  -27.6359  -19.3379   18.2697 C   0  0  0  0  0  0  0  0  0  0  0  0
  -27.0598  -17.2489   17.0157 C   0  0  0  0  0  0  0  0  0  0  0  0
  -29.4460  -17.9281   17.2746 C   0  0  0  0  0  0  0  0  0  0  0  0
  -28.6436  -12.5686   21.4583 C   0  0  0  0  0  0  0  0  0  0  0  0
  -21.6385  -18.2503   25.3333 C   0  0  0  0  0  0  0  0  0  0  0  0
  -20.4992  -18.7329   24.4437 C   0  0  0  0  0  0  0  0  0  0  0  0
  -22.8858  -17.8655   24.5463 C   0  0  0  0  0  0  0  0  0  1  0  0
  -28.1904  -17.0251   19.2746 C   0  0  1  0  0  0  0  0  0  0  0  0
  -28.5444  -13.2571   19.0594 C   0  0  2  0  0  0  0  0  0  0  0  0
  -16.8233  -19.9829   20.9830 C   0  0  0  0  0  0  0  0  0  0  0  0
  -28.0761  -17.8878   17.9861 C   0  0  0  0  0  0  0  0  0  0  0  0
  -23.6531  -27.5513   19.2196 N   0  0  0  0  0  0  0  0  0  0  0  0
  -23.9654  -26.3194   18.7825 N   0  0  0  0  0  0  0  0  0  0  0  0
  -28.6222  -17.9460   21.5306 N   0  0  0  0  0  0  0  0  0  0  0  0
  -20.7030  -24.4319   18.1679 N   0  0  0  0  0  0  0  0  0  0  0  0
  -25.7205  -24.7304   18.7071 N   0  0  0  0  0  0  0  0  0  0  0  0
  -27.5597  -28.2100   20.9221 N   0  0  0  0  0  0  0  0  0  0  0  0
  -20.7703  -22.6175   19.6731 N   0  0  0  0  0  0  0  0  0  0  0  0
  -20.8833  -19.9220   23.7220 N   0  0  0  0  0  0  0  0  0  0  0  0
  -30.1567  -20.9314   21.8501 N   0  0  0  0  0  0  0  0  0  0  0  0
  -28.6317  -15.6547   19.0390 N   0  0  0  0  0  0  0  0  0  0  0  0
  -28.2263  -12.2158   20.0768 N   0  3  0  0  0  0  0  0  0  0  0  0
  -27.9552  -26.1037   20.1060 O   0  0  0  0  0  0  0  0  0  0  0  0
  -27.9685  -20.5364   22.5416 O   0  0  0  0  0  0  0  0  0  0  0  0
  -30.3372  -17.7639   19.9615 O   0  0  0  0  0  0  0  0  0  0  0  0
  -26.7775  -14.6256   19.9771 O   0  0  0  0  0  0  0  0  0  0  0  0
  -19.3809  -22.5685   17.8161 O   0  0  0  0  0  0  0  0  0  0  0  0
  -25.0444  -33.0228   22.1650 O   0  0  0  0  0  0  0  0  0  0  0  0
  -23.8958  -17.4458   25.4629 O   0  0  0  0  0  0  0  0  0  1  0  0
  -27.3558  -33.4141   27.1558 F   0  0  0  0  0  0  0  0  0  0  0  0
  -27.6713  -32.2653   22.5748 F   0  0  0  0  0  0  0  0  0  0  0  0
  -16.2769  -20.5123   19.8487 F   0  0  0  0  0  0  0  0  0  0  0  0
  -16.6984  -18.6302   20.8408 F   0  0  0  0  0  0  0  0  0  0  0  0
  -15.9722  -20.3251   21.9936 F   0  0  0  0  0  0  0  0  0  0  0  0
  1  2  1  0  0  0  0
  1  5  2  0  0  0  0
  2  6  2  0  0  0  0
  3  8  2  0  0  0  0
  3 17  1  0  0  0  0
  4  9  1  0  0  0  0
  4 17  2  0  0  0  0
  5 19  1  0  0  0  0
  6 21  1  0  0  0  0
  7 10  2  0  0  0  0
  7 20  1  0  0  0  0
  8 27  1  0  0  0  0
  9 27  2  0  0  0  0
 10 28  1  0  0  0  0
 11 12  2  0  0  0  0
 11 29  1  0  0  0  0
 12 30  1  0  0  0  0
 13 22  1  0  0  0  0
 13 28  2  0  0  0  0
 14 23  1  0  0  0  0
 14 25  2  0  0  0  0
 15 23  2  0  0  0  0
 15 26  1  0  0  0  0
 16 30  2  0  0  0  0
 16 31  1  0  0  0  0
 17 32  1  0  0  0  0
 18 32  1  0  0  0  0
 18 33  2  0  0  0  0
 18 34  1  0  0  0  0
 19 21  2  0  0  0  0
 19 39  1  0  0  0  0
 20 22  2  0  0  0  0
 20 40  1  0  0  0  0
 21 48  1  0  0  0  0
 22 41  1  0  0  0  0
 23 62  1  0  0  0  0
 24 25  1  0  0  0  0
 24 26  2  0  0  0  0
 24 51  1  0  0  0  0
 25 70  1  0  0  0  0
 26 71  1  0  0  0  0
 27 80  1  0  0  0  0
 28 81  1  0  0  0  0
 29 31  2  0  0  0  0
 29 80  1  0  0  0  0
 30 82  1  0  0  0  0
 31 83  1  0  0  0  0
 32 64  2  0  0  0  0
 33 65  1  0  0  0  0
 33 68  1  0  0  0  0
 34 69  1  0  0  0  0
 34 75  2  0  0  0  0
 35 49  1  0  0  0  0
 35 72  1  0  0  0  0
 35 76  2  0  0  0  0
 36 60  1  0  0  0  0
 36 66  1  0  0  0  0
 36 77  2  0  0  0  0
 37 61  1  0  0  0  0
 37 73  1  0  0  0  0
 37 78  2  0  0  0  0
 38 67  1  0  0  0  0
 38 70  1  0  0  0  0
 38 79  2  0  0  0  0
 39 42  1  0  0  0  0
 40 49  1  0  0  0  0
 41 66  1  0  0  0  0
 42 44  1  0  0  0  0
 43 45  1  0  0  0  0
 43 46  1  0  0  0  0
 44 48  1  0  0  0  0
 45 50  1  0  0  0  0
 46 67  1  0  0  0  0
 47 50  1  0  0  0  0
 47 67  1  0  0  0  0
 48 72  1  0  0  0  0
 49 66  1  0  0  0  0
 50 65  1  0  0  0  0
 52 61  1  0  0  0  0
 53 63  1  0  0  0  0
 54 63  1  0  0  0  0
 55 63  1  0  0  0  0
 56 74  1  0  0  0  0
 57 58  1  0  0  0  0
 57 59  1  0  0  0  0
 58 71  1  0  0  0  0
 59 81  1  0  0  0  0
 60 63  1  0  0  0  0
 60 73  1  0  0  0  0
 61 74  1  0  0  0  0
 62 84  1  0  0  0  0
 62 85  1  0  0  0  0
 62 86  1  0  0  0  0
 64 65  1  0  0  0  0
M  CHG  1  74   1
M  ISO  4  38 100  59 101  70 100  81 101
M  END
> <Batch ID>
0007

> <Smiles>
CNC(C)C(=O)NC(C(=O)N1Cc2cc([101O:1][101CH2:1]CCNc3cc(C(F)(F)F)cc([100NH:0][100C:0](=O)N4CCCC(n5nc(-c6ccc(Oc7ccc(F)cc7F)cc6)c(C(N)=O)c5N)C4)c3C)ccc2CC1C(=O)NC1CCCc2ccccc21)C(C)(C)C

> <Shape>
0.193

> <Color>
0.047

> <Negative vol penalty>
0.000

$$$$

  -OEChem-04052315333D

 83 91  0     1  0  0  0  0  0999 V2000
  -21.5283  -29.4813   24.8443 C   0  0  0  0  0  0  0  0  0  0  0  0
  -22.0280  -28.2028   25.0702 C   0  0  0  0  0  0  0  0  0  0  0  0
  -27.5549  -23.5066   20.7414 C   0  0  0  0  0  0  0  0  0  0  0  0
  -28.8511  -23.4521   18.7033 C   0  0  0  0  0  0  0  0  0  0  0  0
  -20.5165  -29.6773   23.9052 C   0  0  0  0  0  0  0  0  0  0  0  0
  -21.5153  -27.1192   24.3579 C   0  0  0  0  0  0  0  0  0  0  0  0
  -24.5935  -22.1820   22.4462 C   0  0  0  0  0  0  0  0  0  0  0  0
  -26.8609  -24.6210   20.2702 C   0  0  0  0  0  0  0  0  0  0  0  0
  -28.1571  -24.5665   18.2321 C   0  0  0  0  0  0  0  0  0  0  0  0
  -24.7199  -20.8953   22.9679 C   0  0  0  0  0  0  0  0  0  0  0  0
  -24.6572  -12.8237   21.7467 C   0  0  0  0  0  0  0  0  0  0  0  0
  -24.5602  -14.1734   22.0846 C   0  0  0  0  0  0  0  0  0  0  0  0
  -27.3890  -27.9475   19.9878 C   0  0  0  0  0  0  0  0  0  0  0  0
  -27.1946  -29.0098   20.8705 C   0  0  0  0  0  0  0  0  0  0  0  0
  -22.9562  -20.1365   21.5075 C   0  0  0  0  0  0  0  0  0  0  0  0
  -26.5692  -13.3102   20.3522 C   0  0  0  0  0  0  0  0  0  0  0  0
  -24.8022  -28.7637   20.6397 C   0  0  0  0  0  0  0  0  0  0  0  0
  -28.5501  -22.9221   19.9580 C   0  0  0  0  0  0  0  0  0  0  0  0
  -30.0525  -21.6891   21.6102 C   0  0  0  0  0  0  0  0  0  0  0  0
  -19.9979  -28.5969   23.1741 C   0  0  0  0  0  0  0  0  0  0  0  0
  -23.6385  -22.4585   21.4573 C   0  0  0  0  0  0  0  0  0  0  0  0
  -20.4947  -27.3006   23.4092 C   0  0  0  0  0  0  0  0  0  0  0  0
  -22.8215  -21.4270   20.9730 C   0  0  0  0  0  0  0  0  0  0  0  0
  -26.4722  -14.6601   20.6901 C   0  0  0  0  0  0  0  0  0  0  0  0
  -27.1620  -25.1509   19.0156 C   0  0  0  0  0  0  0  0  0  0  0  0
  -23.8992  -19.8729   22.5006 C   0  0  0  0  0  0  0  0  0  0  0  0
  -25.6618  -12.3920   20.8805 C   0  0  0  0  0  0  0  0  0  0  0  0
  -25.4676  -15.0917   21.5563 C   0  0  0  0  0  0  0  0  0  0  0  0
  -26.2901  -27.2933   19.4310 C   0  0  0  0  0  0  0  0  0  0  0  0
  -25.9012  -29.4179   21.1965 C   0  0  0  0  0  0  0  0  0  0  0  0
  -24.9967  -27.7013   19.7570 C   0  0  0  0  0  0  0  0  0  0  0  0
  -29.2677  -21.7713   20.4444 C   0  0  0  0  0  0  0  0  0  0  0  0
  -30.5131  -20.3952   21.6235 C   0  0  0  0  0  0  0  0  0  0  0  0
  -30.3395  -22.6926   22.5932 C   0  0  0  0  0  0  0  0  0  0  0  0
  -21.0924  -24.3516   21.2647 C   0  0  0  0  0  0  0  0  0  0  0  0
  -21.0771  -23.3647   18.1747 C   0  0  0  0  0  0  0  0  0  0  0  0
  -21.9664  -20.9946   15.8858 C   0  0  0  0  0  0  0  0  0  0  0  0
  -28.4517  -15.3038   19.2712 C   0  0  0  0  0  0  0  0  0  0  0  0
  -18.8718  -28.8510   22.2036 C   0  0  0  0  0  0  0  0  0  0  0  0
  -23.5330  -23.8458   20.8858 C   0  0  0  0  0  0  0  0  0  0  0  0
  -21.7944  -21.6672   19.8980 C   0  0  0  0  0  0  0  0  0  0  0  0
  -18.6436  -27.7047   21.2217 C   0  0  0  0  0  0  0  0  0  0  0  0
  -31.6332  -16.7885   18.6788 C   0  0  0  0  0  0  0  0  0  0  0  0
  -18.6343  -26.3673   21.9553 C   0  0  0  0  0  0  0  0  0  0  0  0
  -31.4609  -18.2255   19.1761 C   0  0  0  0  0  0  0  0  0  0  0  0
  -30.3644  -16.2643   18.0086 C   0  0  0  0  0  0  0  0  0  0  0  0
  -28.9696  -17.8229   19.3102 C   0  0  0  0  0  0  0  0  0  0  0  0
  -19.9816  -26.1035   22.6386 C   0  0  1  0  0  0  0  0  0  0  0  0
  -22.1760  -24.1278   20.2482 C   0  0  1  0  0  0  0  0  0  0  0  0
  -30.2001  -18.3720   20.0504 C   0  0  2  0  0  0  0  0  0  0  0  0
  -26.1037   -8.8472   21.3566 C   0  0  0  0  0  0  0  0  0  0  0  0
  -21.7813  -20.4470   13.4439 C   0  0  0  0  0  0  0  0  0  0  0  0
  -18.1660  -22.5459   18.5814 C   0  0  0  0  0  0  0  0  0  0  0  0
  -18.3313  -21.1783   16.4909 C   0  0  0  0  0  0  0  0  0  0  0  0
  -18.6423  -23.6513   16.3892 C   0  0  0  0  0  0  0  0  0  0  0  0
  -24.9054  -21.0204   15.5385 C   0  0  0  0  0  0  0  0  0  0  0  0
  -25.3151  -10.1286   21.5229 C   0  0  0  0  0  0  0  0  0  0  0  0
  -25.3125  -18.2228   23.4679 C   0  0  0  0  0  0  0  0  0  1  0  0
  -25.4688  -16.7257   23.2843 C   0  0  0  0  0  0  0  0  0  0  0  0
  -20.4494  -22.2162   17.4223 C   0  0  1  0  0  0  0  0  0  0  0  0
  -22.6252  -21.1077   14.5228 C   0  0  2  0  0  0  0  0  0  0  0  0
  -18.9152  -22.3935   17.2426 C   0  0  0  0  0  0  0  0  0  0  0  0
  -29.2297  -20.6212   19.7662 N   0  0  0  0  0  0  0  0  0  0  0  0
  -29.9966  -19.8041   20.5081 N   0  0  0  0  0  0  0  0  0  0  0  0
  -21.7251  -23.0419   19.3754 N   0  0  0  0  0  0  0  0  0  0  0  0
  -29.2123  -16.4318   18.8970 N   0  0  0  0  0  0  0  0  0  0  0  0
  -31.3056  -19.7168   22.4803 N   0  0  0  0  0  0  0  0  0  0  0  0
  -29.4813  -22.8137   23.6946 N   0  0  0  0  0  0  0  0  0  0  0  0
  -27.4007  -15.5810   20.1448 N   0  0  0  0  0  0  0  0  0  0  0  0
  -20.9631  -25.6666   21.6689 N   0  0  0  0  0  0  0  0  0  0  0  0
  -21.1878  -22.0967   16.1698 N   0  0  0  0  0  0  0  0  0  0  0  0
  -23.9641  -20.4535   14.5388 N   0  3  0  0  0  0  0  0  0  0  0  0
  -31.3184  -23.4701   22.4892 O   0  0  0  0  0  0  0  0  0  0  0  0
  -20.4221  -23.4017   21.6524 O   0  0  0  0  0  0  0  0  0  0  0  0
  -21.0016  -24.5050   17.7105 O   0  0  0  0  0  0  0  0  0  0  0  0
  -22.1236  -20.0240   16.6232 O   0  0  0  0  0  0  0  0  0  0  0  0
  -28.7300  -14.1711   18.8693 O   0  0  0  0  0  0  0  0  0  0  0  0
  -26.4848  -26.2382   18.5554 O   0  0  0  0  0  0  0  0  0  0  0  0
  -24.0200  -18.6162   23.0086 O   0  0  0  0  0  0  0  0  0  1  0  0
  -25.7557  -11.0749   20.5502 O   0  0  0  0  0  0  0  0  0  0  0  0
  -25.3550  -16.4128   21.9014 O   0  0  0  0  0  0  0  0  0  0  0  0
  -25.7146  -30.4371   22.0454 F   0  0  0  0  0  0  0  0  0  0  0  0
  -23.9370  -27.0759   19.2262 F   0  0  0  0  0  0  0  0  0  0  0  0
  1  2  1  0  0  0  0
  1  5  2  0  0  0  0
  2  6  2  0  0  0  0
  3  8  2  0  0  0  0
  3 18  1  0  0  0  0
  4  9  1  0  0  0  0
  4 18  2  0  0  0  0
  5 20  1  0  0  0  0
  6 22  1  0  0  0  0
  7 10  2  0  0  0  0
  7 21  1  0  0  0  0
  8 25  1  0  0  0  0
  9 25  2  0  0  0  0
 10 26  1  0  0  0  0
 11 12  2  0  0  0  0
 11 27  1  0  0  0  0
 12 28  1  0  0  0  0
 13 14  2  0  0  0  0
 13 29  1  0  0  0  0
 14 30  1  0  0  0  0
 15 23  1  0  0  0  0
 15 26  2  0  0  0  0
 16 24  1  0  0  0  0
 16 27  2  0  0  0  0
 17 30  2  0  0  0  0
 17 31  1  0  0  0  0
 18 32  1  0  0  0  0
 19 32  1  0  0  0  0
 19 33  2  0  0  0  0
 19 34  1  0  0  0  0
 20 22  2  0  0  0  0
 20 39  1  0  0  0  0
 21 23  2  0  0  0  0
 21 40  1  0  0  0  0
 22 48  1  0  0  0  0
 23 41  1  0  0  0  0
 24 28  2  0  0  0  0
 24 69  1  0  0  0  0
 25 78  1  0  0  0  0
 26 79  1  0  0  0  0
 27 80  1  0  0  0  0
 28 81  1  0  0  0  0
 29 31  2  0  0  0  0
 29 78  1  0  0  0  0
 30 82  1  0  0  0  0
 31 83  1  0  0  0  0
 32 63  2  0  0  0  0
 33 64  1  0  0  0  0
 33 67  1  0  0  0  0
 34 68  1  0  0  0  0
 34 73  2  0  0  0  0
 35 49  1  0  0  0  0
 35 70  1  0  0  0  0
 35 74  2  0  0  0  0
 36 60  1  0  0  0  0
 36 65  1  0  0  0  0
 36 75  2  0  0  0  0
 37 61  1  0  0  0  0
 37 71  1  0  0  0  0
 37 76  2  0  0  0  0
 38 66  1  0  0  0  0
 38 69  1  0  0  0  0
 38 77  2  0  0  0  0
 39 42  1  0  0  0  0
 40 49  1  0  0  0  0
 41 65  1  0  0  0  0
 42 44  1  0  0  0  0
 43 45  1  0  0  0  0
 43 46  1  0  0  0  0
 44 48  1  0  0  0  0
 45 50  1  0  0  0  0
 46 66  1  0  0  0  0
 47 50  1  0  0  0  0
 47 66  1  0  0  0  0
 48 70  1  0  0  0  0
 49 65  1  0  0  0  0
 50 64  1  0  0  0  0
 51 57  1  0  0  0  0
 52 61  1  0  0  0  0
 53 62  1  0  0  0  0
 54 62  1  0  0  0  0
 55 62  1  0  0  0  0
 56 72  1  0  0  0  0
 57 80  1  0  0  0  0
 58 59  1  0  0  0  0
 58 79  1  0  0  0  0
 59 81  1  0  0  0  0
 60 62  1  0  0  0  0
 60 71  1  0  0  0  0
 61 72  1  0  0  0  0
 63 64  1  0  0  0  0
M  CHG  1  72   1
M  ISO  4  38 100  58 101  69 100  79 101
M  END
> <Batch ID>
0007

> <Smiles>
CCOc1ccc(OC[101CH2:1][101O:1]c2ccc3c(c2)CN(C(=O)C(NC(=O)C(C)NC)C(C)(C)C)C(C(=O)NC2CCCc4ccccc42)C3)c([100NH:0][100C:0](=O)N2CCCC(n3nc(-c4ccc(Oc5ccc(F)cc5F)cc4)c(C(N)=O)c3N)C2)c1

> <Shape>
0.200

> <Color>
0.072

> <Negative vol penalty>
0.000

$$$$

  -OEChem-04052315333D

 84 92  0     1  0  0  0  0  0999 V2000
  -27.0718  -18.5748   20.3809 C   0  0  0  0  0  0  0  0  0  0  0  0
  -27.8526  -18.3059   21.5004 C   0  0  0  0  0  0  0  0  0  0  0  0
  -23.1491   -9.8470   19.9478 C   0  0  0  0  0  0  0  0  0  0  0  0
  -23.5795  -10.0003   22.3203 C   0  0  0  0  0  0  0  0  0  0  0  0
  -27.4674  -19.5595   19.4767 C   0  0  0  0  0  0  0  0  0  0  0  0
  -29.0303  -19.0208   21.7157 C   0  0  0  0  0  0  0  0  0  0  0  0
  -29.5270  -20.5452   26.5193 C   0  0  0  0  0  0  0  0  0  0  0  0
  -32.7219  -15.1015   24.6806 C   0  0  0  0  0  0  0  0  0  0  0  0
  -32.2038  -14.3425   23.6313 C   0  0  0  0  0  0  0  0  0  0  0  0
  -22.3753   -8.7065   20.1619 C   0  0  0  0  0  0  0  0  0  0  0  0
  -22.8055   -8.8598   22.5343 C   0  0  0  0  0  0  0  0  0  0  0  0
  -29.9431  -19.5937   27.4495 C   0  0  0  0  0  0  0  0  0  0  0  0
  -23.1653   -5.5118   22.2300 C   0  0  0  0  0  0  0  0  0  0  0  0
  -23.6718   -4.5368   23.0893 C   0  0  0  0  0  0  0  0  0  0  0  0
  -32.1888  -20.4665   27.3287 C   0  0  0  0  0  0  0  0  0  0  0  0
  -31.1189  -14.1081   26.1908 C   0  0  0  0  0  0  0  0  0  0  0  0
  -21.7480   -4.8037   24.5262 C   0  0  0  0  0  0  0  0  0  0  0  0
  -23.7513  -10.4940   21.0270 C   0  0  0  0  0  0  0  0  0  0  0  0
  -24.1116  -13.0092   20.8001 C   0  0  0  0  0  0  0  0  0  0  0  0
  -28.6456  -20.2936   19.6860 C   0  0  0  0  0  0  0  0  0  0  0  0
  -30.4425  -21.4591   25.9778 C   0  0  0  0  0  0  0  0  0  0  0  0
  -29.4428  -20.0153   20.8127 C   0  0  0  0  0  0  0  0  0  0  0  0
  -31.7812  -21.4303   26.3938 C   0  0  0  0  0  0  0  0  0  0  0  0
  -32.1794  -14.9843   25.9604 C   0  0  0  0  0  0  0  0  0  0  0  0
  -31.1432  -13.4663   23.8617 C   0  0  0  0  0  0  0  0  0  0  0  0
  -22.2034   -8.2129   21.4551 C   0  0  0  0  0  0  0  0  0  0  0  0
  -31.2748  -19.5524   27.8522 C   0  0  0  0  0  0  0  0  0  0  0  0
  -21.9501   -6.1328   22.5188 C   0  0  0  0  0  0  0  0  0  0  0  0
  -30.6007  -13.3491   25.1414 C   0  0  0  0  0  0  0  0  0  0  0  0
  -22.9632   -4.1827   24.2374 C   0  0  0  0  0  0  0  0  0  0  0  0
  -21.2415   -5.7787   23.6669 C   0  0  0  0  0  0  0  0  0  0  0  0
  -24.5513  -11.6719   20.8065 C   0  0  0  0  0  0  0  0  0  0  0  0
  -25.2454  -13.7422   20.5479 C   0  0  0  0  0  0  0  0  0  0  0  0
  -22.7959  -13.5412   21.0039 C   0  0  0  0  0  0  0  0  0  0  0  0
  -31.5287  -22.0816   23.0561 C   0  0  0  0  0  0  0  0  0  0  0  0
  -33.0041  -24.5521   24.5534 C   0  0  0  0  0  0  0  0  0  0  0  0
  -32.2880  -15.7635   28.3531 C   0  0  0  0  0  0  0  0  0  0  0  0
  -34.2429  -25.8595   27.4522 C   0  0  0  0  0  0  0  0  0  0  0  0
  -31.0600  -12.7109   21.4599 C   0  0  0  0  0  0  0  0  0  0  0  0
  -29.0569  -21.3156   18.6560 C   0  0  0  0  0  0  0  0  0  0  0  0
  -29.9722  -22.4965   24.9954 C   0  0  0  0  0  0  0  0  0  0  0  0
  -32.7993  -22.4022   25.8577 C   0  0  0  0  0  0  0  0  0  0  0  0
  -30.1244  -22.2866   19.1538 C   0  0  0  0  0  0  0  0  0  0  0  0
  -29.4888  -13.4389   18.3488 C   0  0  0  0  0  0  0  0  0  0  0  0
  -31.2442  -21.5313   19.8626 C   0  0  0  0  0  0  0  0  0  0  0  0
  -28.0036  -13.1959   18.6272 C   0  0  0  0  0  0  0  0  0  0  0  0
  -30.3753  -12.4373   19.0868 C   0  0  0  0  0  0  0  0  0  0  0  0
  -28.6480  -12.0979   20.8103 C   0  0  0  0  0  0  0  0  0  0  0  0
  -30.7142  -20.7866   21.0938 C   0  0  1  0  0  0  0  0  0  0  0  0
  -31.0966  -23.0468   24.1234 C   0  0  1  0  0  0  0  0  0  0  0  0
  -27.7184  -13.1227   20.1401 C   0  0  2  0  0  0  0  0  0  0  0  0
  -35.4242  -27.8812   28.3547 C   0  0  0  0  0  0  0  0  0  0  0  0
  -35.6214  -23.5631   23.3361 C   0  0  0  0  0  0  0  0  0  0  0  0
  -36.8479  -24.9894   24.9883 C   0  0  0  0  0  0  0  0  0  0  0  0
  -35.3329  -26.0472   23.3125 C   0  0  0  0  0  0  0  0  0  0  0  0
  -32.0018  -26.4981   29.2767 C   0  0  0  0  0  0  0  0  0  0  0  0
  -28.2465  -13.0274   25.2407 C   0  0  0  0  0  0  0  0  0  0  0  0
  -33.1259  -16.7414   29.1689 C   0  0  0  0  0  0  0  0  0  0  0  0
  -33.0342  -18.1732   28.6636 C   0  0  0  0  0  0  0  0  0  1  0  0
  -34.3359  -24.7460   25.2373 C   0  0  1  0  0  0  0  0  0  0  0  0
  -34.0772  -27.2258   28.0926 C   0  0  2  0  0  0  0  0  0  0  0  0
  -35.5160  -24.8167   24.2274 C   0  0  0  0  0  0  0  0  0  0  0  0
  -25.8622  -11.5590   20.5766 N   0  0  0  0  0  0  0  0  0  0  0  0
  -26.2559  -12.8348   20.4232 N   0  0  0  0  0  0  0  0  0  0  0  0
  -32.2920  -23.3936   24.8948 N   0  0  0  0  0  0  0  0  0  0  0  0
  -30.0516  -12.4257   20.5151 N   0  0  0  0  0  0  0  0  0  0  0  0
  -25.4666  -15.0681   20.4229 N   0  0  0  0  0  0  0  0  0  0  0  0
  -21.7448  -12.6477   21.2515 N   0  0  0  0  0  0  0  0  0  0  0  0
  -32.7048  -15.7551   27.0246 N   0  0  0  0  0  0  0  0  0  0  0  0
  -30.6271  -12.7027   22.7854 N   0  0  0  0  0  0  0  0  0  0  0  0
  -30.5162  -21.7057   22.1940 N   0  0  0  0  0  0  0  0  0  0  0  0
  -34.1954  -25.9314   26.0760 N   0  0  0  0  0  0  0  0  0  0  0  0
  -33.3528  -27.1056   29.3895 N   0  3  0  0  0  0  0  0  0  0  0  0
  -22.5563  -14.7714   20.9512 O   0  0  0  0  0  0  0  0  0  0  0  0
  -32.6948  -21.7067   23.0166 O   0  0  0  0  0  0  0  0  0  0  0  0
  -32.6070  -25.4009   23.7513 O   0  0  0  0  0  0  0  0  0  0  0  0
  -31.3838  -15.1030   28.8536 O   0  0  0  0  0  0  0  0  0  0  0  0
  -34.4025  -24.8318   28.1071 O   0  0  0  0  0  0  0  0  0  0  0  0
  -32.2159  -12.9720   21.1165 O   0  0  0  0  0  0  0  0  0  0  0  0
  -21.4482   -7.1001   21.6644 O   0  0  0  0  0  0  0  0  0  0  0  0
  -29.5631  -12.5001   25.3878 O   0  0  0  0  0  0  0  0  0  0  0  0
  -31.6837  -18.6242   28.7595 O   0  0  0  0  0  0  0  0  0  1  0  0
  -23.4490   -3.2453   25.0616 F   0  0  0  0  0  0  0  0  0  0  0  0
  -20.0729   -6.3710   23.9490 F   0  0  0  0  0  0  0  0  0  0  0  0
  1  2  1  0  0  0  0
  1  5  2  0  0  0  0
  2  6  2  0  0  0  0
  3 10  2  0  0  0  0
  3 18  1  0  0  0  0
  4 11  1  0  0  0  0
  4 18  2  0  0  0  0
  5 20  1  0  0  0  0
  6 22  1  0  0  0  0
  7 12  2  0  0  0  0
  7 21  1  0  0  0  0
  8  9  2  0  0  0  0
  8 24  1  0  0  0  0
  9 25  1  0  0  0  0
 10 26  1  0  0  0  0
 11 26  2  0  0  0  0
 12 27  1  0  0  0  0
 13 14  2  0  0  0  0
 13 28  1  0  0  0  0
 14 30  1  0  0  0  0
 15 23  1  0  0  0  0
 15 27  2  0  0  0  0
 16 24  2  0  0  0  0
 16 29  1  0  0  0  0
 17 30  2  0  0  0  0
 17 31  1  0  0  0  0
 18 32  1  0  0  0  0
 19 32  1  0  0  0  0
 19 33  2  0  0  0  0
 19 34  1  0  0  0  0
 20 22  2  0  0  0  0
 20 40  1  0  0  0  0
 21 23  2  0  0  0  0
 21 41  1  0  0  0  0
 22 49  1  0  0  0  0
 23 42  1  0  0  0  0
 24 69  1  0  0  0  0
 25 29  2  0  0  0  0
 25 70  1  0  0  0  0
 26 80  1  0  0  0  0
 27 82  1  0  0  0  0
 28 31  2  0  0  0  0
 28 80  1  0  0  0  0
 29 81  1  0  0  0  0
 30 83  1  0  0  0  0
 31 84  1  0  0  0  0
 32 63  2  0  0  0  0
 33 64  1  0  0  0  0
 33 67  1  0  0  0  0
 34 68  1  0  0  0  0
 34 74  2  0  0  0  0
 35 50  1  0  0  0  0
 35 71  1  0  0  0  0
 35 75  2  0  0  0  0
 36 60  1  0  0  0  0
 36 65  1  0  0  0  0
 36 76  2  0  0  0  0
 37 58  1  0  0  0  0
 37 69  1  0  0  0  0
 37 77  2  0  0  0  0
 38 61  1  0  0  0  0
 38 72  1  0  0  0  0
 38 78  2  0  0  0  0
 39 66  1  0  0  0  0
 39 70  1  0  0  0  0
 39 79  2  0  0  0  0
 40 43  1  0  0  0  0
 41 50  1  0  0  0  0
 42 65  1  0  0  0  0
 43 45  1  0  0  0  0
 44 46  1  0  0  0  0
 44 47  1  0  0  0  0
 45 49  1  0  0  0  0
 46 51  1  0  0  0  0
 47 66  1  0  0  0  0
 48 51  1  0  0  0  0
 48 66  1  0  0  0  0
 49 71  1  0  0  0  0
 50 65  1  0  0  0  0
 51 64  1  0  0  0  0
 52 61  1  0  0  0  0
 53 62  1  0  0  0  0
 54 62  1  0  0  0  0
 55 62  1  0  0  0  0
 56 73  1  0  0  0  0
 57 81  1  0  0  0  0
 58 59  1  0  0  0  0
 59 82  1  0  0  0  0
 60 62  1  0  0  0  0
 60 72  1  0  0  0  0
 61 73  1  0  0  0  0
 63 64  1  0  0  0  0
M  CHG  1  73   1
M  ISO  4  39 100  59 101  70 100  82 101
M  END
> <Batch ID>
0007

> <Smiles>
CNC(C)C(=O)NC(C(=O)N1Cc2cc([101O:1][101CH2:1]CC(=O)Nc3ccc([100NH:0][100C:0](=O)N4CCCC(n5nc(-c6ccc(Oc7ccc(F)cc7F)cc6)c(C(N)=O)c5N)C4)c(OC)c3)ccc2CC1C(=O)NC1CCCc2ccccc21)C(C)(C)C

> <Shape>
0.184

> <Color>
0.178

> <Negative vol penalty>
0.000

$$$$

  -OEChem-04052315333D

 91 99  0     1  0  0  0  0  0999 V2000
  -20.3308  -26.6144   21.7538 C   0  0  0  0  0  0  0  0  0  0  0  0
  -21.4361  -26.8794   22.5561 C   0  0  0  0  0  0  0  0  0  0  0  0
  -23.0021   -9.8927   19.9809 C   0  0  0  0  0  0  0  0  0  0  0  0
  -23.7247   -9.9466   22.2856 C   0  0  0  0  0  0  0  0  0  0  0  0
  -20.4637  -25.7926   20.6354 C   0  0  0  0  0  0  0  0  0  0  0  0
  -22.6747  -26.3218   22.2410 C   0  0  0  0  0  0  0  0  0  0  0  0
  -28.1789  -28.8788   23.0603 C   0  0  0  0  0  0  0  0  0  0  0  0
  -22.2360   -8.7580   20.2475 C   0  0  0  0  0  0  0  0  0  0  0  0
  -22.9585   -8.8118   22.5523 C   0  0  0  0  0  0  0  0  0  0  0  0
  -29.1412  -28.7340   24.0588 C   0  0  0  0  0  0  0  0  0  0  0  0
  -23.2055   -5.4726   22.0842 C   0  0  0  0  0  0  0  0  0  0  0  0
  -23.7929   -4.4566   22.8380 C   0  0  0  0  0  0  0  0  0  0  0  0
  -30.2987  -27.1117   22.6996 C   0  0  0  0  0  0  0  0  0  0  0  0
  -31.1895  -17.6082   20.5724 C   0  0  0  0  0  0  0  0  0  0  0  0
  -29.7269  -19.2535   22.2860 C   0  0  0  0  0  0  0  0  0  0  0  0
  -22.0669   -4.7001   24.5110 C   0  0  0  0  0  0  0  0  0  0  0  0
  -23.7465  -10.4870   20.9999 C   0  0  0  0  0  0  0  0  0  0  0  0
  -24.1304  -13.0026   20.8217 C   0  0  0  0  0  0  0  0  0  0  0  0
  -21.7066  -25.2324   20.3010 C   0  0  0  0  0  0  0  0  0  0  0  0
  -28.2635  -28.1318   21.8766 C   0  0  0  0  0  0  0  0  0  0  0  0
  -22.8240  -25.4906   21.1178 C   0  0  0  0  0  0  0  0  0  0  0  0
  -29.3376  -27.2507   21.6866 C   0  0  0  0  0  0  0  0  0  0  0  0
  -30.2657  -17.0496   21.4556 C   0  0  0  0  0  0  0  0  0  0  0  0
  -30.6508  -19.8121   21.4028 C   0  0  0  0  0  0  0  0  0  0  0  0
  -22.2142   -8.2176   21.5332 C   0  0  0  0  0  0  0  0  0  0  0  0
  -30.1997  -27.8483   23.8797 C   0  0  0  0  0  0  0  0  0  0  0  0
  -22.0489   -6.1025   22.5438 C   0  0  0  0  0  0  0  0  0  0  0  0
  -23.2236   -4.0703   24.0514 C   0  0  0  0  0  0  0  0  0  0  0  0
  -29.5344  -17.8722   22.3124 C   0  0  0  0  0  0  0  0  0  0  0  0
  -31.3821  -18.9894   20.5460 C   0  0  0  0  0  0  0  0  0  0  0  0
  -21.4796   -5.7162   23.7572 C   0  0  0  0  0  0  0  0  0  0  0  0
  -24.5385  -11.6588   20.7250 C   0  0  0  0  0  0  0  0  0  0  0  0
  -25.2401  -13.7256   20.4578 C   0  0  0  0  0  0  0  0  0  0  0  0
  -22.8616  -13.5486   21.2062 C   0  0  0  0  0  0  0  0  0  0  0  0
  -26.4313  -25.9521   20.4639 C   0  0  0  0  0  0  0  0  0  0  0  0
  -28.6011  -26.2456   18.0706 C   0  0  0  0  0  0  0  0  0  0  0  0
  -31.7645  -27.0997   17.1166 C   0  0  0  0  0  0  0  0  0  0  0  0
  -30.7187  -14.6904   20.6970 C   0  0  0  0  0  0  0  0  0  0  0  0
  -32.3385  -25.0321   25.9516 C   0  0  0  0  0  0  0  0  0  0  0  0
  -21.7910  -24.3120   19.1091 C   0  0  0  0  0  0  0  0  0  0  0  0
  -27.2321  -28.3192   20.7980 C   0  0  0  0  0  0  0  0  0  0  0  0
  -29.4852  -26.4405   20.4255 C   0  0  0  0  0  0  0  0  0  0  0  0
  -23.2194  -24.0629   18.6318 C   0  0  0  0  0  0  0  0  0  0  0  0
  -29.6046  -12.2344   18.3723 C   0  0  0  0  0  0  0  0  0  0  0  0
  -24.1299  -23.7468   19.8141 C   0  0  0  0  0  0  0  0  0  0  0  0
  -28.1537  -11.9763   18.7851 C   0  0  0  0  0  0  0  0  0  0  0  0
  -30.5036  -12.4797   19.5829 C   0  0  0  0  0  0  0  0  0  0  0  0
  -28.5862  -13.2687   20.9134 C   0  0  0  0  0  0  0  0  0  0  0  0
  -24.1897  -24.9243   20.7947 C   0  0  1  0  0  0  0  0  0  0  0  0
  -27.1362  -27.1282   19.8494 C   0  0  1  0  0  0  0  0  0  0  0  0
  -27.6300  -13.0805   19.7243 C   0  0  2  0  0  0  0  0  0  0  0  0
  -33.2554  -27.1970   15.1003 C   0  0  0  0  0  0  0  0  0  0  0  0
  -28.9553  -23.2173   18.1894 C   0  0  0  0  0  0  0  0  0  0  0  0
  -31.0721  -23.4834   16.8791 C   0  0  0  0  0  0  0  0  0  0  0  0
  -28.8929  -24.1704   15.8781 C   0  0  0  0  0  0  0  0  0  0  0  0
  -31.8016  -21.8009   20.4642 C   0  0  0  0  0  0  0  0  0  0  0  0
  -32.1077  -30.0286   17.3677 C   0  0  0  0  0  0  0  0  0  0  0  0
  -32.1368  -22.6627   23.6133 C   0  0  0  0  0  0  0  0  0  0  0  0
  -30.6930  -22.1497   23.6472 C   0  0  0  0  0  0  0  0  0  0  0  0
  -32.7547  -22.7612   25.0047 C   0  0  0  0  0  0  0  0  0  0  0  0
  -30.0787  -22.0719   22.2550 C   0  0  0  0  0  0  0  0  0  0  0  0
  -31.5874  -27.0915   27.1342 C   0  0  0  0  0  0  0  0  0  0  0  0
  -30.7176  -27.9134   26.1999 C   0  0  0  0  0  0  0  0  0  1  0  0
  -29.9064  -25.5717   17.7223 C   0  0  1  0  0  0  0  0  0  0  0  0
  -32.2744  -27.9615   15.9756 C   0  0  2  0  0  0  0  0  0  0  0  0
  -29.7031  -24.1244   17.1919 C   0  0  0  0  0  0  0  0  0  0  0  0
  -25.8083  -11.5327   20.3303 N   0  0  0  0  0  0  0  0  0  0  0  0
  -26.2076  -12.8066   20.1759 N   0  0  0  0  0  0  0  0  0  0  0  0
  -28.4478  -26.6543   19.4029 N   0  0  0  0  0  0  0  0  0  0  0  0
  -29.9469  -13.5411   20.4245 N   0  0  0  0  0  0  0  0  0  0  0  0
  -25.4728  -15.0513   20.3546 N   0  0  0  0  0  0  0  0  0  0  0  0
  -21.8300  -12.6642   21.5495 N   0  0  0  0  0  0  0  0  0  0  0  0
  -30.0729  -15.6460   21.4808 N   0  0  0  0  0  0  0  0  0  0  0  0
  -25.0610  -25.9618   20.2860 N   0  0  0  0  0  0  0  0  0  0  0  0
  -30.5879  -26.4605   16.7875 N   0  0  0  0  0  0  0  0  0  0  0  0
  -32.0373  -23.6757   25.8627 N   0  0  0  0  0  0  0  0  0  0  0  0
  -31.4944  -25.6837   26.8516 N   0  0  0  0  0  0  0  0  0  0  0  0
  -30.8416  -21.1944   21.3787 N   0  0  3  0  0  0  0  0  0  0  0  0
  -32.9634  -29.1710   16.5078 N   0  3  0  0  0  0  0  0  0  0  0  0
  -22.6441  -14.7838   21.2285 O   0  0  0  0  0  0  0  0  0  0  0  0
  -27.0825  -25.0983   21.0542 O   0  0  0  0  0  0  0  0  0  0  0  0
  -27.7519  -26.4098   17.1911 O   0  0  0  0  0  0  0  0  0  0  0  0
  -32.3532  -27.0004   18.1908 O   0  0  0  0  0  0  0  0  0  0  0  0
  -31.8577  -14.8296   20.2441 O   0  0  0  0  0  0  0  0  0  0  0  0
  -33.2339  -25.5894   25.3180 O   0  0  0  0  0  0  0  0  0  0  0  0
  -21.4666   -7.1105   21.7938 O   0  0  0  0  0  0  0  0  0  0  0  0
  -31.1399  -27.7046   24.8529 O   0  0  0  0  0  0  0  0  0  1  0  0
  -23.7869   -3.0935   24.7745 F   0  0  0  0  0  0  0  0  0  0  0  0
  -28.6455  -17.3460   23.1670 F   0  0  0  0  0  0  0  0  0  0  0  0
  -32.2730  -19.5163   19.6937 F   0  0  0  0  0  0  0  0  0  0  0  0
  -20.3678   -6.3168   24.2033 F   0  0  0  0  0  0  0  0  0  0  0  0
  1  2  1  0  0  0  0
  1  5  2  0  0  0  0
  2  6  2  0  0  0  0
  3  8  2  0  0  0  0
  3 17  1  0  0  0  0
  4  9  1  0  0  0  0
  4 17  2  0  0  0  0
  5 19  1  0  0  0  0
  6 21  1  0  0  0  0
  7 10  2  0  0  0  0
  7 20  1  0  0  0  0
  8 25  1  0  0  0  0
  9 25  2  0  0  0  0
 10 26  1  0  0  0  0
 11 12  2  0  0  0  0
 11 27  1  0  0  0  0
 12 28  1  0  0  0  0
 13 22  1  0  0  0  0
 13 26  2  0  0  0  0
 14 23  2  0  0  0  0
 14 30  1  0  0  0  0
 15 24  1  0  0  0  0
 15 29  2  0  0  0  0
 16 28  2  0  0  0  0
 16 31  1  0  0  0  0
 17 32  1  0  0  0  0
 18 32  1  0  0  0  0
 18 33  2  0  0  0  0
 18 34  1  0  0  0  0
 19 21  2  0  0  0  0
 19 40  1  0  0  0  0
 20 22  2  0  0  0  0
 20 41  1  0  0  0  0
 21 49  1  0  0  0  0
 22 42  1  0  0  0  0
 23 29  1  0  0  0  0
 23 73  1  0  0  0  0
 24 30  2  0  0  0  0
 24 78  1  0  0  0  0
 25 86  1  0  0  0  0
 26 87  1  0  0  0  0
 27 31  2  0  0  0  0
 27 86  1  0  0  0  0
 28 88  1  0  0  0  0
 29 89  1  0  0  0  0
 30 90  1  0  0  0  0
 31 91  1  0  0  0  0
 32 67  2  0  0  0  0
 33 68  1  0  0  0  0
 33 71  1  0  0  0  0
 34 72  1  0  0  0  0
 34 80  2  0  0  0  0
 35 50  1  0  0  0  0
 35 74  1  0  0  0  0
 35 81  2  0  0  0  0
 36 64  1  0  0  0  0
 36 69  1  0  0  0  0
 36 82  2  0  0  0  0
 37 65  1  0  0  0  0
 37 75  1  0  0  0  0
 37 83  2  0  0  0  0
 38 70  1  0  0  0  0
 38 73  1  0  0  0  0
 38 84  2  0  0  0  0
 39 76  1  0  0  0  0
 39 77  1  0  0  0  0
 39 85  2  0  0  0  0
 40 43  1  0  0  0  0
 41 50  1  0  0  0  0
 42 69  1  0  0  0  0
 43 45  1  0  0  0  0
 44 46  1  0  0  0  0
 44 47  1  0  0  0  0
 45 49  1  0  0  0  0
 46 51  1  0  0  0  0
 47 70  1  0  0  0  0
 48 51  1  0  0  0  0
 48 70  1  0  0  0  0
 49 74  1  0  0  0  0
 50 69  1  0  0  0  0
 51 68  1  0  0  0  0
 52 65  1  0  0  0  0
 53 66  1  0  0  0  0
 54 66  1  0  0  0  0
 55 66  1  0  0  0  0
 56 78  1  0  0  0  0
 57 79  1  0  0  0  0
 58 59  1  0  0  0  0
 58 60  1  0  0  0  0
 59 61  1  0  0  0  0
 60 76  1  0  0  0  0
 61 78  1  0  0  0  0
 62 63  1  0  0  0  0
 62 77  1  0  0  0  0
 63 87  1  0  0  0  0
 64 66  1  0  0  0  0
 64 75  1  0  0  0  0
 65 79  1  0  0  0  0
 67 68  1  0  0  0  0
M  CHG  1  79   1
M  ISO  4  38 100  63 101  73 100  87 101
M  END
> <Batch ID>
0007

> <Smiles>
CNC(C)C(=O)NC(C(=O)N1Cc2cc([101O:1][101CH2:1]CNC(=O)NCCCCN(C)c3cc(F)c([100NH:0][100C:0](=O)N4CCCC(n5nc(-c6ccc(Oc7ccc(F)cc7F)cc6)c(C(N)=O)c5N)C4)cc3F)ccc2CC1C(=O)NC1CCCc2ccccc21)C(C)(C)C

> <Shape>
0.287

> <Color>
0.194

> <Negative vol penalty>
0.000

$$$$

  -OEChem-04052315333D

 84 92  0     1  0  0  0  0  0999 V2000
  -28.0766  -30.7518   27.7624 C   0  0  0  0  0  0  0  0  0  0  0  0
  -27.9376  -29.7983   26.7589 C   0  0  0  0  0  0  0  0  0  0  0  0
  -24.3422   -9.3796   21.2522 C   0  0  0  0  0  0  0  0  0  0  0  0
  -25.0272  -10.2872   23.3839 C   0  0  0  0  0  0  0  0  0  0  0  0
  -27.0225  -31.6175   28.0506 C   0  0  0  0  0  0  0  0  0  0  0  0
  -26.7438  -29.7093   26.0438 C   0  0  0  0  0  0  0  0  0  0  0  0
  -27.4963  -29.2289   21.0590 C   0  0  0  0  0  0  0  0  0  0  0  0
  -30.1073  -19.4326   20.0193 C   0  0  0  0  0  0  0  0  0  0  0  0
  -30.1617  -20.8253   20.0748 C   0  0  0  0  0  0  0  0  0  0  0  0
  -24.0233   -8.1701   21.8696 C   0  0  0  0  0  0  0  0  0  0  0  0
  -24.7082   -9.0777   24.0013 C   0  0  0  0  0  0  0  0  0  0  0  0
  -27.8633  -27.9687   20.5890 C   0  0  0  0  0  0  0  0  0  0  0  0
  -21.4926   -6.9124   23.7261 C   0  0  0  0  0  0  0  0  0  0  0  0
  -20.2825   -6.3091   23.3838 C   0  0  0  0  0  0  0  0  0  0  0  0
  -25.5842  -27.5650   19.9096 C   0  0  0  0  0  0  0  0  0  0  0  0
  -28.0129  -19.4664   21.2232 C   0  0  0  0  0  0  0  0  0  0  0  0
  -21.4758   -4.3597   22.6009 C   0  0  0  0  0  0  0  0  0  0  0  0
  -24.8442  -10.4381   22.0094 C   0  0  0  0  0  0  0  0  0  0  0  0
  -24.3242  -12.7921   21.1752 C   0  0  0  0  0  0  0  0  0  0  0  0
  -25.8186  -31.5455   27.3322 C   0  0  0  0  0  0  0  0  0  0  0  0
  -26.1660  -29.6630   20.9676 C   0  0  0  0  0  0  0  0  0  0  0  0
  -25.6721  -30.5741   26.3236 C   0  0  0  0  0  0  0  0  0  0  0  0
  -25.2034  -28.8322   20.3768 C   0  0  0  0  0  0  0  0  0  0  0  0
  -29.0329  -18.7531   20.5935 C   0  0  0  0  0  0  0  0  0  0  0  0
  -29.1418  -21.5385   20.7045 C   0  0  0  0  0  0  0  0  0  0  0  0
  -24.2063   -8.0192   23.2441 C   0  0  0  0  0  0  0  0  0  0  0  0
  -26.9066  -27.1353   20.0168 C   0  0  0  0  0  0  0  0  0  0  0  0
  -22.6944   -6.2393   23.5058 C   0  0  0  0  0  0  0  0  0  0  0  0
  -28.0673  -20.8591   21.2787 C   0  0  0  0  0  0  0  0  0  0  0  0
  -20.2741   -5.0327   22.8212 C   0  0  0  0  0  0  0  0  0  0  0  0
  -22.6860   -4.9630   22.9433 C   0  0  0  0  0  0  0  0  0  0  0  0
  -25.1744  -11.6875   21.3721 C   0  0  0  0  0  0  0  0  0  0  0  0
  -25.1077  -13.7177   20.5303 C   0  0  0  0  0  0  0  0  0  0  0  0
  -22.9492  -12.9660   21.5425 C   0  0  0  0  0  0  0  0  0  0  0  0
  -23.9292  -30.4968   23.0664 C   0  0  0  0  0  0  0  0  0  0  0  0
  -22.2663  -31.2820   20.3943 C   0  0  0  0  0  0  0  0  0  0  0  0
  -28.1813  -23.7419   20.1600 C   0  0  0  0  0  0  0  0  0  0  0  0
  -21.7772  -30.8262   17.0477 C   0  0  0  0  0  0  0  0  0  0  0  0
  -29.9077  -16.4795   19.9518 C   0  0  0  0  0  0  0  0  0  0  0  0
  -24.6903  -32.4715   27.7117 C   0  0  0  0  0  0  0  0  0  0  0  0
  -25.7916  -31.0359   21.4549 C   0  0  0  0  0  0  0  0  0  0  0  0
  -23.7658  -29.2592   20.2366 C   0  0  0  0  0  0  0  0  0  0  0  0
  -23.5926  -32.5594   26.6545 C   0  0  0  0  0  0  0  0  0  0  0  0
  -29.6937  -13.2648   18.4363 C   0  0  0  0  0  0  0  0  0  0  0  0
  -23.2081  -31.1660   26.1671 C   0  0  0  0  0  0  0  0  0  0  0  0
  -28.4289  -12.6587   19.0487 C   0  0  0  0  0  0  0  0  0  0  0  0
  -30.4646  -14.1107   19.4481 C   0  0  0  0  0  0  0  0  0  0  0  0
  -28.4080  -14.5419   20.7341 C   0  0  0  0  0  0  0  0  0  0  0  0
  -24.4015  -30.4629   25.5091 C   0  0  1  0  0  0  0  0  0  0  0  0
  -24.3067  -31.1709   21.7777 C   0  0  1  0  0  0  0  0  0  0  0  0
  -27.5638  -13.7342   19.7347 C   0  0  2  0  0  0  0  0  0  0  0  0
  -20.3193  -31.5798   15.1493 C   0  0  0  0  0  0  0  0  0  0  0  0
  -20.0027  -29.5216   21.4369 C   0  0  0  0  0  0  0  0  0  0  0  0
  -19.0176  -29.5454   19.1353 C   0  0  0  0  0  0  0  0  0  0  0  0
  -19.2593  -31.6768   20.4088 C   0  0  0  0  0  0  0  0  0  0  0  0
  -30.3593  -23.6194   21.4240 C   0  0  0  0  0  0  0  0  0  0  0  0
  -24.0857  -31.9288   15.5597 C   0  0  0  0  0  0  0  0  0  0  0  0
  -27.2154  -21.7884   23.2952 C   0  0  0  0  0  0  0  0  0  0  0  0
  -28.3470  -25.2536   20.2179 C   0  0  0  0  0  0  0  0  0  1  0  0
  -21.3206  -30.5529   19.4707 C   0  0  1  0  0  0  0  0  0  0  0  0
  -21.6151  -31.8171   15.9092 C   0  0  2  0  0  0  0  0  0  0  0  0
  -19.9267  -30.3151   20.1172 C   0  0  0  0  0  0  0  0  0  0  0  0
  -26.4037  -11.8908   20.8910 N   0  0  0  0  0  0  0  0  0  0  0  0
  -26.3317  -13.1338   20.3854 N   0  0  0  0  0  0  0  0  0  0  0  0
  -23.4479  -30.6079   20.7338 N   0  0  0  0  0  0  0  0  0  0  0  0
  -29.5824  -15.1104   20.0541 N   0  0  0  0  0  0  0  0  0  0  0  0
  -24.8620  -14.9659   20.0786 N   0  0  0  0  0  0  0  0  0  0  0  0
  -22.2951  -11.9148   22.1994 N   0  0  0  0  0  0  0  0  0  0  0  0
  -28.9783  -17.3383   20.5376 N   0  0  0  0  0  0  0  0  0  0  0  0
  -24.6120  -30.9707   24.1703 N   0  0  0  0  0  0  0  0  0  0  0  0
  -21.2816  -31.3252   18.2336 N   0  0  0  0  0  0  0  0  0  0  0  0
  -29.2132  -22.9849   20.7547 N   0  0  0  0  0  0  0  0  0  0  0  0
  -22.7505  -31.6961   14.9515 N   0  3  0  0  0  0  0  0  0  0  0  0
  -22.3147  -14.0159   21.2808 O   0  0  0  0  0  0  0  0  0  0  0  0
  -23.0803  -29.6131   23.0599 O   0  0  0  0  0  0  0  0  0  0  0  0
  -21.9710  -32.4111   20.7938 O   0  0  0  0  0  0  0  0  0  0  0  0
  -27.1953  -23.2745   19.5846 O   0  0  0  0  0  0  0  0  0  0  0  0
  -22.2887  -29.7186   16.8989 O   0  0  0  0  0  0  0  0  0  0  0  0
  -30.9214  -16.8634   19.3626 O   0  0  0  0  0  0  0  0  0  0  0  0
  -23.8949   -6.8393   23.8470 O   0  0  0  0  0  0  0  0  0  0  0  0
  -27.0610  -21.5368   21.9003 O   0  0  0  0  0  0  0  0  0  0  0  0
  -27.2621  -25.9045   19.5579 O   0  0  0  0  0  0  0  0  0  1  0  0
  -19.1118   -4.4529   22.4939 F   0  0  0  0  0  0  0  0  0  0  0  0
  -23.8372   -4.3110   22.7303 F   0  0  0  0  0  0  0  0  0  0  0  0
  1  2  1  0  0  0  0
  1  5  2  0  0  0  0
  2  6  2  0  0  0  0
  3 10  2  0  0  0  0
  3 18  1  0  0  0  0
  4 11  1  0  0  0  0
  4 18  2  0  0  0  0
  5 20  1  0  0  0  0
  6 22  1  0  0  0  0
  7 12  2  0  0  0  0
  7 21  1  0  0  0  0
  8  9  2  0  0  0  0
  8 24  1  0  0  0  0
  9 25  1  0  0  0  0
 10 26  1  0  0  0  0
 11 26  2  0  0  0  0
 12 27  1  0  0  0  0
 13 14  2  0  0  0  0
 13 28  1  0  0  0  0
 14 30  1  0  0  0  0
 15 23  1  0  0  0  0
 15 27  2  0  0  0  0
 16 24  2  0  0  0  0
 16 29  1  0  0  0  0
 17 30  2  0  0  0  0
 17 31  1  0  0  0  0
 18 32  1  0  0  0  0
 19 32  1  0  0  0  0
 19 33  2  0  0  0  0
 19 34  1  0  0  0  0
 20 22  2  0  0  0  0
 20 40  1  0  0  0  0
 21 23  2  0  0  0  0
 21 41  1  0  0  0  0
 22 49  1  0  0  0  0
 23 42  1  0  0  0  0
 24 69  1  0  0  0  0
 25 29  2  0  0  0  0
 25 72  1  0  0  0  0
 26 80  1  0  0  0  0
 27 82  1  0  0  0  0
 28 31  2  0  0  0  0
 28 80  1  0  0  0  0
 29 81  1  0  0  0  0
 30 83  1  0  0  0  0
 31 84  1  0  0  0  0
 32 63  2  0  0  0  0
 33 64  1  0  0  0  0
 33 67  1  0  0  0  0
 34 68  1  0  0  0  0
 34 74  2  0  0  0  0
 35 50  1  0  0  0  0
 35 70  1  0  0  0  0
 35 75  2  0  0  0  0
 36 60  1  0  0  0  0
 36 65  1  0  0  0  0
 36 76  2  0  0  0  0
 37 59  1  0  0  0  0
 37 72  1  0  0  0  0
 37 77  2  0  0  0  0
 38 61  1  0  0  0  0
 38 71  1  0  0  0  0
 38 78  2  0  0  0  0
 39 66  1  0  0  0  0
 39 69  1  0  0  0  0
 39 79  2  0  0  0  0
 40 43  1  0  0  0  0
 41 50  1  0  0  0  0
 42 65  1  0  0  0  0
 43 45  1  0  0  0  0
 44 46  1  0  0  0  0
 44 47  1  0  0  0  0
 45 49  1  0  0  0  0
 46 51  1  0  0  0  0
 47 66  1  0  0  0  0
 48 51  1  0  0  0  0
 48 66  1  0  0  0  0
 49 70  1  0  0  0  0
 50 65  1  0  0  0  0
 51 64  1  0  0  0  0
 52 61  1  0  0  0  0
 53 62  1  0  0  0  0
 54 62  1  0  0  0  0
 55 62  1  0  0  0  0
 56 72  1  0  0  0  0
 57 73  1  0  0  0  0
 58 81  1  0  0  0  0
 59 82  1  0  0  0  0
 60 62  1  0  0  0  0
 60 71  1  0  0  0  0
 61 73  1  0  0  0  0
 63 64  1  0  0  0  0
M  CHG  1  73   1
M  ISO  4  39 100  59 101  69 100  82 101
M  END
> <Batch ID>
0007

> <Smiles>
CNC(C)C(=O)NC(C(=O)N1Cc2cc([101O:1][101CH2:1]C(=O)N(C)c3ccc([100NH:0][100C:0](=O)N4CCCC(n5nc(-c6ccc(Oc7ccc(F)cc7F)cc6)c(C(N)=O)c5N)C4)cc3OC)ccc2CC1C(=O)NC1CCCc2ccccc21)C(C)(C)C

> <Shape>
0.325

> <Color>
0.149

> <Negative vol penalty>
0.000

$$$$

  -OEChem-04052315333D

 87 95  0     1  0  0  0  0  0999 V2000
  -30.8081  -23.0222   18.4986 C   0  0  0  0  0  0  0  0  0  0  0  0
  -30.0214  -22.7576   19.6151 C   0  0  0  0  0  0  0  0  0  0  0  0
  -28.0838  -19.4633   18.3789 C   0  0  0  0  0  0  0  0  0  0  0  0
  -26.0824  -19.1255   19.6894 C   0  0  0  0  0  0  0  0  0  0  0  0
  -30.9435  -24.3308   18.0369 C   0  0  0  0  0  0  0  0  0  0  0  0
  -29.3706  -23.8017   20.2713 C   0  0  0  0  0  0  0  0  0  0  0  0
  -24.5670  -22.6811   21.4181 C   0  0  0  0  0  0  0  0  0  0  0  0
  -23.4995  -14.6814   23.0630 C   0  0  0  0  0  0  0  0  0  0  0  0
  -27.4504  -20.4877   17.6755 C   0  0  0  0  0  0  0  0  0  0  0  0
  -25.4489  -20.1500   18.9860 C   0  0  0  0  0  0  0  0  0  0  0  0
  -24.3513  -21.8608   22.5246 C   0  0  0  0  0  0  0  0  0  0  0  0
  -23.7597  -15.8080   23.8431 C   0  0  0  0  0  0  0  0  0  0  0  0
  -23.1849  -22.4340   17.2926 C   0  0  0  0  0  0  0  0  0  0  0  0
  -21.8800  -22.2089   16.8543 C   0  0  0  0  0  0  0  0  0  0  0  0
  -23.8273  -23.8036   23.8551 C   0  0  0  0  0  0  0  0  0  0  0  0
  -21.4463  -15.8614   24.5376 C   0  0  0  0  0  0  0  0  0  0  0  0
  -22.6447  -20.3289   15.5434 C   0  0  0  0  0  0  0  0  0  0  0  0
  -27.3998  -18.7821   19.3859 C   0  0  0  0  0  0  0  0  0  0  0  0
  -28.8074  -17.8436   21.2952 C   0  0  0  0  0  0  0  0  0  0  0  0
  -30.2862  -25.3902   18.6821 C   0  0  0  0  0  0  0  0  0  0  0  0
  -24.4249  -24.0721   21.5247 C   0  0  0  0  0  0  0  0  0  0  0  0
  -29.4984  -25.1259   19.8187 C   0  0  0  0  0  0  0  0  0  0  0  0
  -24.0393  -24.6391   22.7478 C   0  0  0  0  0  0  0  0  0  0  0  0
  -22.2126  -14.1449   23.0200 C   0  0  0  0  0  0  0  0  0  0  0  0
  -26.1329  -20.8311   17.9791 C   0  0  0  0  0  0  0  0  0  0  0  0
  -23.9842  -22.4223   23.7440 C   0  0  0  0  0  0  0  0  0  0  0  0
  -22.7331  -16.3980   24.5804 C   0  0  0  0  0  0  0  0  0  0  0  0
  -24.2197  -21.6066   16.8563 C   0  0  0  0  0  0  0  0  0  0  0  0
  -21.6099  -21.1564   15.9797 C   0  0  0  0  0  0  0  0  0  0  0  0
  -21.1861  -14.7348   23.7574 C   0  0  0  0  0  0  0  0  0  0  0  0
  -23.9496  -20.5541   15.9818 C   0  0  0  0  0  0  0  0  0  0  0  0
  -28.0534  -17.7234   20.1125 C   0  0  0  0  0  0  0  0  0  0  0  0
  -29.2084  -16.5609   21.5787 C   0  0  0  0  0  0  0  0  0  0  0  0
  -29.1174  -19.0104   22.0686 C   0  0  0  0  0  0  0  0  0  0  0  0
  -26.3706  -26.5598   21.1654 C   0  0  0  0  0  0  0  0  0  0  0  0
  -23.6397  -28.2600   21.5823 C   0  0  0  0  0  0  0  0  0  0  0  0
  -20.4678  -28.3854   22.8353 C   0  0  0  0  0  0  0  0  0  0  0  0
  -26.9685  -11.1862   20.1834 C   0  0  0  0  0  0  0  0  0  0  0  0
  -30.5008  -26.7942   18.1746 C   0  0  0  0  0  0  0  0  0  0  0  0
  -24.6352  -24.9409   20.3150 C   0  0  0  0  0  0  0  0  0  0  0  0
  -23.8537  -26.1250   22.9096 C   0  0  0  0  0  0  0  0  0  0  0  0
  -29.4768  -27.7958   18.7024 C   0  0  0  0  0  0  0  0  0  0  0  0
  -30.2335  -12.4013   19.4485 C   0  0  0  0  0  0  0  0  0  0  0  0
  -29.2906  -27.6262   20.2069 C   0  0  0  0  0  0  0  0  0  0  0  0
  -30.1130  -13.9139   19.6421 C   0  0  0  0  0  0  0  0  0  0  0  0
  -28.9614  -11.8059   18.8490 C   0  0  0  0  0  0  0  0  0  0  0  0
  -27.6017  -13.6414   19.7741 C   0  0  0  0  0  0  0  0  0  0  0  0
  -28.7567  -26.2285   20.5427 C   0  0  1  0  0  0  0  0  0  0  0  0
  -24.9630  -26.3883   20.6685 C   0  0  1  0  0  0  0  0  0  0  0  0
  -28.8394  -14.2789   20.4281 C   0  0  2  0  0  0  0  0  0  0  0  0
  -18.4954  -29.9214   23.0539 C   0  0  0  0  0  0  0  0  0  0  0  0
  -25.0750  -29.7831   23.8028 C   0  0  0  0  0  0  0  0  0  0  0  0
  -22.8425  -30.5952   24.5933 C   0  0  0  0  0  0  0  0  0  0  0  0
  -23.6534  -31.2033   22.3139 C   0  0  0  0  0  0  0  0  0  0  0  0
  -20.6195  -12.4385   22.1771 C   0  0  0  0  0  0  0  0  0  0  0  0
  -18.7279  -26.5607   21.2853 C   0  0  0  0  0  0  0  0  0  0  0  0
  -23.8438  -11.4500   22.3148 C   0  0  0  0  0  0  0  0  0  0  0  0
  -22.4668  -19.8205   25.7539 C   0  0  0  0  0  0  0  0  0  0  0  0
  -24.9509  -10.7242   21.5527 C   0  0  0  0  0  0  0  0  0  0  0  0
  -23.0109  -12.3957   21.4505 C   0  0  0  0  0  0  0  0  0  0  0  0
  -23.2973  -20.3024   24.5748 C   0  0  0  0  0  0  0  0  0  1  0  0
  -21.9171  -18.4208   25.5283 C   0  0  0  0  0  0  0  0  0  0  0  0
  -22.9073  -28.8315   22.7723 C   0  0  1  0  0  0  0  0  0  0  0  0
  -19.1575  -28.8381   22.2166 C   0  0  2  0  0  0  0  0  0  0  0  0
  -23.6249  -30.0754   23.3683 C   0  0  0  0  0  0  0  0  0  0  0  0
  -27.9786  -16.4638   19.6745 N   0  0  0  0  0  0  0  0  0  0  0  0
  -28.6908  -15.7808   20.5869 N   0  0  0  0  0  0  0  0  0  0  0  0
  -24.0770  -26.9330   21.6993 N   0  0  0  0  0  0  0  0  0  0  0  0
  -27.7907  -12.1883   19.6422 N   0  0  0  0  0  0  0  0  0  0  0  0
  -29.9499  -16.0355   22.5770 N   0  0  0  0  0  0  0  0  0  0  0  0
  -28.6255  -20.2492   21.6354 N   0  0  0  0  0  0  0  0  0  0  0  0
  -27.3380  -26.1499   20.2678 N   0  0  0  0  0  0  0  0  0  0  0  0
  -21.5414  -29.0857   22.3273 N   0  0  0  0  0  0  0  0  0  0  0  0
  -25.8839  -11.6347   20.9272 N   0  0  0  0  0  0  0  0  0  0  0  0
  -21.9522  -13.0057   22.2303 N   0  0  3  0  0  0  0  0  0  0  0  0
  -18.2144  -27.6899   22.1027 N   0  3  0  0  0  0  0  0  0  0  0  0
  -29.8238  -18.9584   23.1039 O   0  0  0  0  0  0  0  0  0  0  0  0
  -26.5648  -27.0307   22.2800 O   0  0  0  0  0  0  0  0  0  0  0  0
  -23.8110  -28.9626   20.5831 O   0  0  0  0  0  0  0  0  0  0  0  0
  -20.5320  -27.5015   23.6869 O   0  0  0  0  0  0  0  0  0  0  0  0
  -27.1880   -9.9811   20.0206 O   0  0  0  0  0  0  0  0  0  0  0  0
  -25.5146  -21.8309   17.2930 O   0  0  0  0  0  0  0  0  0  0  0  0
  -23.7736  -21.6239   24.8258 O   0  0  0  0  0  0  0  0  0  1  0  0
  -22.9887  -17.5051   25.3471 O   0  0  0  0  0  0  0  0  0  0  0  0
  -20.3565  -20.9394   15.5601 F   0  0  0  0  0  0  0  0  0  0  0  0
  -19.9456  -14.2273   23.7236 F   0  0  0  0  0  0  0  0  0  0  0  0
  -24.9394  -19.7552   15.5601 F   0  0  0  0  0  0  0  0  0  0  0  0
  1  2  1  0  0  0  0
  1  5  2  0  0  0  0
  2  6  2  0  0  0  0
  3  9  2  0  0  0  0
  3 18  1  0  0  0  0
  4 10  1  0  0  0  0
  4 18  2  0  0  0  0
  5 20  1  0  0  0  0
  6 22  1  0  0  0  0
  7 11  2  0  0  0  0
  7 21  1  0  0  0  0
  8 12  2  0  0  0  0
  8 24  1  0  0  0  0
  9 25  1  0  0  0  0
 10 25  2  0  0  0  0
 11 26  1  0  0  0  0
 12 27  1  0  0  0  0
 13 14  2  0  0  0  0
 13 28  1  0  0  0  0
 14 29  1  0  0  0  0
 15 23  1  0  0  0  0
 15 26  2  0  0  0  0
 16 27  2  0  0  0  0
 16 30  1  0  0  0  0
 17 29  2  0  0  0  0
 17 31  1  0  0  0  0
 18 32  1  0  0  0  0
 19 32  1  0  0  0  0
 19 33  2  0  0  0  0
 19 34  1  0  0  0  0
 20 22  2  0  0  0  0
 20 39  1  0  0  0  0
 21 23  2  0  0  0  0
 21 40  1  0  0  0  0
 22 48  1  0  0  0  0
 23 41  1  0  0  0  0
 24 30  2  0  0  0  0
 24 75  1  0  0  0  0
 25 82  1  0  0  0  0
 26 83  1  0  0  0  0
 27 84  1  0  0  0  0
 28 31  2  0  0  0  0
 28 82  1  0  0  0  0
 29 85  1  0  0  0  0
 30 86  1  0  0  0  0
 31 87  1  0  0  0  0
 32 66  2  0  0  0  0
 33 67  1  0  0  0  0
 33 70  1  0  0  0  0
 34 71  1  0  0  0  0
 34 77  2  0  0  0  0
 35 49  1  0  0  0  0
 35 72  1  0  0  0  0
 35 78  2  0  0  0  0
 36 63  1  0  0  0  0
 36 68  1  0  0  0  0
 36 79  2  0  0  0  0
 37 64  1  0  0  0  0
 37 73  1  0  0  0  0
 37 80  2  0  0  0  0
 38 69  1  0  0  0  0
 38 74  1  0  0  0  0
 38 81  2  0  0  0  0
 39 42  1  0  0  0  0
 40 49  1  0  0  0  0
 41 68  1  0  0  0  0
 42 44  1  0  0  0  0
 43 45  1  0  0  0  0
 43 46  1  0  0  0  0
 44 48  1  0  0  0  0
 45 50  1  0  0  0  0
 46 69  1  0  0  0  0
 47 50  1  0  0  0  0
 47 69  1  0  0  0  0
 48 72  1  0  0  0  0
 49 68  1  0  0  0  0
 50 67  1  0  0  0  0
 51 64  1  0  0  0  0
 52 65  1  0  0  0  0
 53 65  1  0  0  0  0
 54 65  1  0  0  0  0
 55 75  1  0  0  0  0
 56 76  1  0  0  0  0
 57 59  1  0  0  0  0
 57 60  1  0  0  0  0
 58 61  1  0  0  0  0
 58 62  1  0  0  0  0
 59 74  1  0  0  0  0
 60 75  1  0  0  0  0
 61 83  1  0  0  0  0
 62 84  1  0  0  0  0
 63 65  1  0  0  0  0
 63 73  1  0  0  0  0
 64 76  1  0  0  0  0
 66 67  1  0  0  0  0
M  CHG  1  76   1
M  ISO  4  38 100  61 101  74 100  83 101
M  END
> <Batch ID>
0007

> <Smiles>
CNC(C)C(=O)NC(C(=O)N1Cc2cc([101O:1][101CH2:1]CCOc3ccc(N(C)CCC[100NH:0][100C:0](=O)N4CCCC(n5nc(-c6ccc(Oc7ccc(F)cc7F)cc6)c(C(N)=O)c5N)C4)c(F)c3)ccc2CC1C(=O)NC1CCCc2ccccc21)C(C)(C)C

> <Shape>
0.246

> <Color>
0.035

> <Negative vol penalty>
0.000

$$$$

  -OEChem-04052315333D

 92101  0     1  0  0  0  0  0999 V2000
  -33.0443  -28.2571   17.1573 C   0  0  0  0  0  0  0  0  0  0  0  0
  -32.0053  -27.7154   17.9073 C   0  0  0  0  0  0  0  0  0  0  0  0
  -23.3973  -15.6653   22.7068 C   0  0  0  0  0  0  0  0  0  0  0  0
  -22.5123  -15.6646   20.4587 C   0  0  0  0  0  0  0  0  0  0  0  0
  -33.6248  -29.4647   17.5428 C   0  0  0  0  0  0  0  0  0  0  0  0
  -31.5469  -28.3805   19.0440 C   0  0  0  0  0  0  0  0  0  0  0  0
  -26.4916  -28.5391   19.2961 C   0  0  0  0  0  0  0  0  0  0  0  0
  -29.3230  -17.3393   20.7365 C   0  0  0  0  0  0  0  0  0  0  0  0
  -28.3375  -18.3156   20.8815 C   0  0  0  0  0  0  0  0  0  0  0  0
  -22.4723  -16.6438   23.0707 C   0  0  0  0  0  0  0  0  0  0  0  0
  -21.5872  -16.6431   20.8226 C   0  0  0  0  0  0  0  0  0  0  0  0
  -25.8386  -27.3820   19.7186 C   0  0  0  0  0  0  0  0  0  0  0  0
  -19.1927  -16.7934   23.8802 C   0  0  0  0  0  0  0  0  0  0  0  0
  -18.5112  -16.6249   25.0854 C   0  0  0  0  0  0  0  0  0  0  0  0
  -25.6092  -28.3252   21.9270 C   0  0  0  0  0  0  0  0  0  0  0  0
  -29.0160  -16.6869   23.0424 C   0  0  0  0  0  0  0  0  0  0  0  0
  -19.4218  -18.7124   25.8920 C   0  0  0  0  0  0  0  0  0  0  0  0
  -23.4173  -15.1757   21.4008 C   0  0  0  0  0  0  0  0  0  0  0  0
  -24.2048  -12.7692   21.0906 C   0  0  0  0  0  0  0  0  0  0  0  0
  -33.1669  -30.1498   18.6793 C   0  0  0  0  0  0  0  0  0  0  0  0
  -26.7184  -29.5953   20.1902 C   0  0  0  0  0  0  0  0  0  0  0  0
  -32.1228  -29.5977   19.4458 C   0  0  0  0  0  0  0  0  0  0  0  0
  -26.2631  -29.4957   21.5126 C   0  0  0  0  0  0  0  0  0  0  0  0
  -28.0304  -17.6633   23.1874 C   0  0  0  0  0  0  0  0  0  0  0  0
  -29.6622  -16.5248   21.8169 C   0  0  0  0  0  0  0  0  0  0  0  0
  -27.6912  -18.4777   22.1069 C   0  0  0  0  0  0  0  0  0  0  0  0
  -21.5672  -17.1327   22.1286 C   0  0  0  0  0  0  0  0  0  0  0  0
  -25.3998  -27.2738   21.0350 C   0  0  0  0  0  0  0  0  0  0  0  0
  -19.9889  -17.9213   23.6808 C   0  0  0  0  0  0  0  0  0  0  0  0
  -18.6257  -17.5844   26.0914 C   0  0  0  0  0  0  0  0  0  0  0  0
  -20.1034  -18.8807   24.6868 C   0  0  0  0  0  0  0  0  0  0  0  0
  -24.3730  -14.1653   21.0242 C   0  0  0  0  0  0  0  0  0  0  0  0
  -25.3907  -12.2578   20.6230 C   0  0  0  0  0  0  0  0  0  0  0  0
  -23.0773  -12.0030   21.5352 C   0  0  0  0  0  0  0  0  0  0  0  0
  -29.3033  -31.0320   21.3554 C   0  0  0  0  0  0  0  0  0  0  0  0
  -27.1190  -33.0406   22.6654 C   0  0  0  0  0  0  0  0  0  0  0  0
  -24.9260  -23.7488   21.7406 C   0  0  0  0  0  0  0  0  0  0  0  0
  -26.2435  -20.3547   21.2540 C   0  0  0  0  0  0  0  0  0  0  0  0
  -23.9177  -33.5385   23.7381 C   0  0  0  0  0  0  0  0  0  0  0  0
  -30.9085  -14.8815   20.4236 C   0  0  0  0  0  0  0  0  0  0  0  0
  -33.8573  -31.4283   19.0834 C   0  0  0  0  0  0  0  0  0  0  0  0
  -27.4006  -30.8475   19.7117 C   0  0  0  0  0  0  0  0  0  0  0  0
  -26.4638  -30.6094   22.5065 C   0  0  0  0  0  0  0  0  0  0  0  0
  -33.0627  -32.2583   20.0885 C   0  0  0  0  0  0  0  0  0  0  0  0
  -29.0229  -13.2752   17.6897 C   0  0  0  0  0  0  0  0  0  0  0  0
  -21.8431  -20.5246   20.2377 C   0  0  0  0  0  0  0  0  0  0  0  0
  -32.5353  -31.3731   21.2132 C   0  0  0  0  0  0  0  0  0  0  0  0
  -27.5914  -13.2653   18.2234 C   0  0  0  0  0  0  0  0  0  0  0  0
  -23.3576  -20.5276   20.1476 C   0  0  0  0  0  0  0  0  0  0  0  0
  -29.8241  -14.4522   18.2381 C   0  0  0  0  0  0  0  0  0  0  0  0
  -28.3989  -14.5221   20.2614 C   0  0  0  0  0  0  0  0  0  0  0  0
  -21.5561  -21.6081   21.2580 C   0  0  0  0  0  0  0  0  0  0  0  0
  -31.5814  -30.3018   20.6710 C   0  0  1  0  0  0  0  0  0  0  0  0
  -28.0344  -31.6519   20.8425 C   0  0  1  0  0  0  0  0  0  0  0  0
  -27.5786  -13.3236   19.7607 C   0  0  1  0  0  0  0  0  0  0  0  0
  -23.7804  -20.6586   21.6034 C   0  0  1  0  0  0  0  0  0  0  0  0
  -27.3530  -17.8136   24.5108 C   0  0  0  0  0  0  0  0  0  0  0  0
  -22.4415  -35.2702   24.7960 C   0  0  0  0  0  0  0  0  0  0  0  0
  -28.4347  -32.5085   25.3665 C   0  0  0  0  0  0  0  0  0  0  0  0
  -26.3990  -33.4632   26.4677 C   0  0  0  0  0  0  0  0  0  0  0  0
  -27.7915  -34.8927   24.9710 C   0  0  0  0  0  0  0  0  0  0  0  0
  -31.6413  -15.3179   22.7565 C   0  0  0  0  0  0  0  0  0  0  0  0
  -22.0966  -33.5787   21.4055 C   0  0  0  0  0  0  0  0  0  0  0  0
  -25.1197  -24.9233   20.8054 C   0  0  0  0  0  0  0  0  0  1  0  0
  -26.3457  -33.0810   23.9613 C   0  0  1  0  0  0  0  0  0  0  0  0
  -25.1515  -21.2726   21.8002 C   0  0  2  0  0  0  0  0  0  0  0  0
  -22.9365  -34.6698   23.4894 C   0  0  2  0  0  0  0  0  0  0  0  0
  -27.2405  -33.4644   25.1737 C   0  0  0  0  0  0  0  0  0  0  0  0
  -25.5714  -14.5183   20.5518 N   0  0  0  0  0  0  0  0  0  0  0  0
  -26.1670  -13.3367   20.3172 N   0  0  0  0  0  0  0  0  0  0  0  0
  -27.1417  -31.8109   21.9923 N   0  0  0  0  0  0  0  0  0  0  0  0
  -29.7580  -14.5111   19.6988 N   0  0  0  0  0  0  0  0  0  0  0  0
  -25.8347  -10.9951   20.4478 N   0  0  0  0  0  0  0  0  0  0  0  0
  -21.9395  -12.6875   21.9837 N   0  0  0  0  0  0  0  0  0  0  0  0
  -26.6929  -19.4729   22.2334 N   0  0  0  0  0  0  0  0  0  0  0  0
  -30.2824  -30.8760   20.3928 N   0  0  0  0  0  0  0  0  0  0  0  0
  -25.2223  -33.9847   23.7383 N   0  0  0  0  0  0  0  0  0  0  0  0
  -25.2492  -22.5479   21.1285 N   0  0  0  0  0  0  0  0  0  0  0  0
  -30.6804  -15.5123   21.6658 N   0  0  0  0  0  0  0  0  0  0  0  0
  -22.7219  -21.5471   22.2045 N   0  3  0  0  0  0  0  0  0  0  0  0
  -21.7579  -34.1743   22.7236 N   0  3  0  0  0  0  0  0  0  0  0  0
  -23.0850  -10.7488   21.5501 O   0  0  0  0  0  0  0  0  0  0  0  0
  -29.3885  -30.7197   22.5373 O   0  0  0  0  0  0  0  0  0  0  0  0
  -27.6761  -34.0644   22.2615 O   0  0  0  0  0  0  0  0  0  0  0  0
  -24.5281  -23.8773   22.8952 O   0  0  0  0  0  0  0  0  0  0  0  0
  -26.6067  -20.4076   20.0823 O   0  0  0  0  0  0  0  0  0  0  0  0
  -23.5621  -32.3758   23.9180 O   0  0  0  0  0  0  0  0  0  0  0  0
  -32.0478  -14.6403   20.0071 O   0  0  0  0  0  0  0  0  0  0  0  0
  -20.6643  -18.0874   22.4834 O   0  0  0  0  0  0  0  0  0  0  0  0
  -24.7627  -26.1453   21.4502 O   0  0  0  0  0  0  0  0  0  1  0  0
  -17.9699  -17.4233   27.2482 F   0  0  0  0  0  0  0  0  0  0  0  0
  -20.8658  -19.9670   24.5006 F   0  0  0  0  0  0  0  0  0  0  0  0
  1  2  1  0  0  0  0
  1  5  2  0  0  0  0
  2  6  2  0  0  0  0
  3 10  2  0  0  0  0
  3 18  1  0  0  0  0
  4 11  1  0  0  0  0
  4 18  2  0  0  0  0
  5 20  1  0  0  0  0
  6 22  1  0  0  0  0
  7 12  2  0  0  0  0
  7 21  1  0  0  0  0
  8  9  2  0  0  0  0
  8 25  1  0  0  0  0
  9 26  1  0  0  0  0
 10 27  1  0  0  0  0
 11 27  2  0  0  0  0
 12 28  1  0  0  0  0
 13 14  2  0  0  0  0
 13 29  1  0  0  0  0
 14 30  1  0  0  0  0
 15 23  1  0  0  0  0
 15 28  2  0  0  0  0
 16 24  1  0  0  0  0
 16 25  2  0  0  0  0
 17 30  2  0  0  0  0
 17 31  1  0  0  0  0
 18 32  1  0  0  0  0
 19 32  1  0  0  0  0
 19 33  2  0  0  0  0
 19 34  1  0  0  0  0
 20 22  2  0  0  0  0
 20 41  1  0  0  0  0
 21 23  2  0  0  0  0
 21 42  1  0  0  0  0
 22 53  1  0  0  0  0
 23 43  1  0  0  0  0
 24 26  2  0  0  0  0
 24 57  1  0  0  0  0
 25 79  1  0  0  0  0
 26 75  1  0  0  0  0
 27 89  1  0  0  0  0
 28 90  1  0  0  0  0
 29 31  2  0  0  0  0
 29 89  1  0  0  0  0
 30 91  1  0  0  0  0
 31 92  1  0  0  0  0
 32 69  2  0  0  0  0
 33 70  1  0  0  0  0
 33 73  1  0  0  0  0
 34 74  1  0  0  0  0
 34 82  2  0  0  0  0
 35 54  1  0  0  0  0
 35 76  1  0  0  0  0
 35 83  2  0  0  0  0
 36 65  1  0  0  0  0
 36 71  1  0  0  0  0
 36 84  2  0  0  0  0
 37 64  1  0  0  0  0
 37 78  1  0  0  0  0
 37 85  2  0  0  0  0
 38 66  1  0  0  0  0
 38 75  1  0  0  0  0
 38 86  2  0  0  0  0
 39 67  1  0  0  0  0
 39 77  1  0  0  0  0
 39 87  2  0  0  0  0
 40 72  1  0  0  0  0
 40 79  1  0  0  0  0
 40 88  2  0  0  0  0
 41 44  1  0  0  0  0
 42 54  1  0  0  0  0
 43 71  1  0  0  0  0
 44 47  1  0  0  0  0
 45 48  1  0  0  0  0
 45 50  1  0  0  0  0
 46 49  1  0  0  0  0
 46 52  1  0  0  0  0
 47 53  1  0  0  0  0
 48 55  1  0  0  0  0
 49 56  1  0  0  0  0
 50 72  1  0  0  0  0
 51 55  1  0  0  0  0
 51 72  1  0  0  0  0
 52 80  1  0  0  0  0
 53 76  1  0  0  0  0
 54 71  1  0  0  0  0
 55 70  1  0  0  0  0
 56 66  1  0  0  0  0
 56 80  1  0  0  0  0
 58 67  1  0  0  0  0
 59 68  1  0  0  0  0
 60 68  1  0  0  0  0
 61 68  1  0  0  0  0
 62 79  1  0  0  0  0
 63 81  1  0  0  0  0
 64 90  1  0  0  0  0
 65 68  1  0  0  0  0
 65 77  1  0  0  0  0
 66 78  1  0  0  0  0
 67 81  1  0  0  0  0
 69 70  1  0  0  0  0
M  CHG  2  80   1  81   1
M  ISO  4  40 100  64 101  79 100  90 101
M  END
> <Batch ID>
0007

> <Smiles>
CNC(C)C(=O)NC(C(=O)N1Cc2cc([101O:1][101CH2:1]C(=O)NC(C(=O)Nc3ccc([100N:0](C)[100C:0](=O)N4CCCC(n5nc(-c6ccc(Oc7ccc(F)cc7F)cc6)c(C(N)=O)c5N)C4)cc3C)C3CCCN3)ccc2CC1C(=O)NC1CCCc2ccccc21)C(C)(C)C

> <Shape>
0.200

> <Color>
0.119

> <Negative vol penalty>
0.000

$$$$

  -OEChem-04052315333D

 81 89  0     1  0  0  0  0  0999 V2000
  -16.6897  -29.4611   23.1319 C   0  0  0  0  0  0  0  0  0  0  0  0
  -17.6537  -29.5874   22.1369 C   0  0  0  0  0  0  0  0  0  0  0  0
  -26.5850  -12.6865   21.9931 C   0  0  0  0  0  0  0  0  0  0  0  0
  -25.7693  -14.3575   20.4506 C   0  0  0  0  0  0  0  0  0  0  0  0
  -17.0736  -29.1677   24.4398 C   0  0  0  0  0  0  0  0  0  0  0  0
  -19.0025  -29.4214   22.4495 C   0  0  0  0  0  0  0  0  0  0  0  0
  -25.1332  -27.0212   19.6262 C   0  0  0  0  0  0  0  0  0  0  0  0
  -28.8220  -22.0323   20.5317 C   0  0  0  0  0  0  0  0  0  0  0  0
  -30.6671  -22.6487   21.9643 C   0  0  0  0  0  0  0  0  0  0  0  0
  -25.3403  -12.0575   21.9700 C   0  0  0  0  0  0  0  0  0  0  0  0
  -24.5245  -13.7284   20.4274 C   0  0  0  0  0  0  0  0  0  0  0  0
  -26.4510  -27.4234   19.4131 C   0  0  0  0  0  0  0  0  0  0  0  0
  -29.1192  -23.1028   19.6883 C   0  0  0  0  0  0  0  0  0  0  0  0
  -30.9644  -23.7192   21.1209 C   0  0  0  0  0  0  0  0  0  0  0  0
  -22.4870   -9.8060   22.0365 C   0  0  0  0  0  0  0  0  0  0  0  0
  -22.4646   -8.4169   21.9129 C   0  0  0  0  0  0  0  0  0  0  0  0
  -26.9909  -26.8404   21.6907 C   0  0  0  0  0  0  0  0  0  0  0  0
  -23.6152   -8.5868   19.7952 C   0  0  0  0  0  0  0  0  0  0  0  0
  -26.7995  -13.8366   21.2335 C   0  0  0  0  0  0  0  0  0  0  0  0
  -29.1797  -14.2381   20.4083 C   0  0  0  0  0  0  0  0  0  0  0  0
  -18.4270  -28.9886   24.7666 C   0  0  0  0  0  0  0  0  0  0  0  0
  -24.7311  -26.5350   20.8786 C   0  0  0  0  0  0  0  0  0  0  0  0
  -19.4050  -29.1267   23.7632 C   0  0  0  0  0  0  0  0  0  0  0  0
  -25.6680  -26.4303   21.9165 C   0  0  0  0  0  0  0  0  0  0  0  0
  -29.5959  -21.8053   21.6698 C   0  0  0  0  0  0  0  0  0  0  0  0
  -24.3101  -12.5784   21.1871 C   0  0  0  0  0  0  0  0  0  0  0  0
  -30.1904  -23.9462   19.9829 C   0  0  0  0  0  0  0  0  0  0  0  0
  -27.3794  -27.3357   20.4462 C   0  0  0  0  0  0  0  0  0  0  0  0
  -23.0734  -10.5856   21.0395 C   0  0  0  0  0  0  0  0  0  0  0  0
  -23.0288   -7.8072   20.7923 C   0  0  0  0  0  0  0  0  0  0  0  0
  -23.6375   -9.9760   19.9189 C   0  0  0  0  0  0  0  0  0  0  0  0
  -28.0849  -14.4872   21.2574 C   0  0  0  0  0  0  0  0  0  0  0  0
  -30.1515  -15.1091   20.8365 C   0  0  0  0  0  0  0  0  0  0  0  0
  -29.3069  -13.3031   19.3288 C   0  0  0  0  0  0  0  0  0  0  0  0
  -22.6340  -27.4660   23.0784 C   0  0  0  0  0  0  0  0  0  0  0  0
  -23.4563  -24.6625   24.4878 C   0  0  0  0  0  0  0  0  0  0  0  0
  -25.7688  -22.1825   24.8734 C   0  0  0  0  0  0  0  0  0  0  0  0
  -29.9615  -20.3528   23.6953 C   0  0  0  0  0  0  0  0  0  0  0  0
  -18.7973  -28.7192   26.2036 C   0  0  0  0  0  0  0  0  0  0  0  0
  -23.3122  -26.0803   21.0845 C   0  0  0  0  0  0  0  0  0  0  0  0
  -25.2918  -25.8963   23.2735 C   0  0  0  0  0  0  0  0  0  0  0  0
  -20.2180  -28.1885   26.3773 C   0  0  0  0  0  0  0  0  0  0  0  0
  -31.6554  -17.4075   24.7596 C   0  0  0  0  0  0  0  0  0  0  0  0
  -21.2010  -29.0149   25.5542 C   0  0  0  0  0  0  0  0  0  0  0  0
  -31.0359  -16.3026   23.9007 C   0  0  0  0  0  0  0  0  0  0  0  0
  -30.6229  -18.4591   25.1620 C   0  0  0  0  0  0  0  0  0  0  0  0
  -29.2429  -17.9355   23.1896 C   0  0  0  0  0  0  0  0  0  0  0  0
  -20.8762  -28.9294   24.0580 C   0  0  1  0  0  0  0  0  0  0  0  0
  -22.8907  -26.0828   22.5507 C   0  0  1  0  0  0  0  0  0  0  0  0
  -30.2581  -16.8873   22.7054 C   0  0  2  0  0  0  0  0  0  0  0  0
  -26.7383  -20.0040   25.6554 C   0  0  0  0  0  0  0  0  0  0  0  0
  -24.0606  -26.2563   27.0185 C   0  0  0  0  0  0  0  0  0  0  0  0
  -25.3278  -24.2761   27.8794 C   0  0  0  0  0  0  0  0  0  0  0  0
  -22.8855  -24.0837   27.4097 C   0  0  0  0  0  0  0  0  0  0  0  0
  -24.6824  -20.7270   22.5367 C   0  0  0  0  0  0  0  0  0  0  0  0
  -30.6908  -27.3904   18.9728 C   0  0  0  0  0  0  0  0  0  0  0  0
  -31.0716  -26.1434   19.7552 C   0  0  0  0  0  0  0  0  0  0  0  0
  -29.1843  -27.5901   18.9186 C   0  0  0  0  0  0  0  0  0  1  0  0
  -24.5109  -24.2332   25.4790 C   0  0  1  0  0  0  0  0  0  0  0  0
  -25.6386  -20.6703   24.8434 C   0  0  2  0  0  0  0  0  0  0  0  0
  -24.2031  -24.7242   26.9218 C   0  0  0  0  0  0  0  0  0  0  0  0
  -28.3369  -15.4416   22.1572 N   0  0  0  0  0  0  0  0  0  0  0  0
  -29.6013  -15.7998   21.8759 N   0  0  0  0  0  0  0  0  0  0  0  0
  -23.8910  -25.4702   23.4273 N   0  0  0  0  0  0  0  0  0  0  0  0
  -29.9288  -18.9709   23.9784 N   0  0  0  0  0  0  0  0  0  0  0  0
  -31.4146  -15.3439   20.4217 N   0  0  0  0  0  0  0  0  0  0  0  0
  -28.2117  -12.4841   19.0219 N   0  0  0  0  0  0  0  0  0  0  0  0
  -29.2941  -20.7179   22.5266 N   0  0  0  0  0  0  0  0  0  0  0  0
  -21.3380  -27.6713   23.5117 N   0  0  0  0  0  0  0  0  0  0  0  0
  -24.6244  -22.7842   25.3524 N   0  0  0  0  0  0  0  0  0  0  0  0
  -25.7210  -20.1710   23.4417 N   0  3  0  0  0  0  0  0  0  0  0  0
  -30.3659  -13.1856   18.6670 O   0  0  0  0  0  0  0  0  0  0  0  0
  -23.5446  -28.2859   23.0928 O   0  0  0  0  0  0  0  0  0  0  0  0
  -22.2912  -24.2890   24.6446 O   0  0  0  0  0  0  0  0  0  0  0  0
  -26.7855  -22.7708   24.5118 O   0  0  0  0  0  0  0  0  0  0  0  0
  -30.5621  -21.1498   24.4207 O   0  0  0  0  0  0  0  0  0  0  0  0
  -23.0954  -11.9646   21.1640 O   0  0  0  0  0  0  0  0  0  0  0  0
  -30.4825  -24.9982   19.1542 O   0  0  0  0  0  0  0  0  0  0  0  0
  -28.6662  -27.7281   20.2411 O   0  0  0  0  0  0  0  0  0  1  0  0
  -23.0086   -6.4731   20.6744 F   0  0  0  0  0  0  0  0  0  0  0  0
  -24.2034  -10.7197   18.9583 F   0  0  0  0  0  0  0  0  0  0  0  0
  1  2  1  0  0  0  0
  1  5  2  0  0  0  0
  2  6  2  0  0  0  0
  3 10  2  0  0  0  0
  3 19  1  0  0  0  0
  4 11  1  0  0  0  0
  4 19  2  0  0  0  0
  5 21  1  0  0  0  0
  6 23  1  0  0  0  0
  7 12  2  0  0  0  0
  7 22  1  0  0  0  0
  8 13  2  0  0  0  0
  8 25  1  0  0  0  0
  9 14  1  0  0  0  0
  9 25  2  0  0  0  0
 10 26  1  0  0  0  0
 11 26  2  0  0  0  0
 12 28  1  0  0  0  0
 13 27  1  0  0  0  0
 14 27  2  0  0  0  0
 15 16  2  0  0  0  0
 15 29  1  0  0  0  0
 16 30  1  0  0  0  0
 17 24  1  0  0  0  0
 17 28  2  0  0  0  0
 18 30  2  0  0  0  0
 18 31  1  0  0  0  0
 19 32  1  0  0  0  0
 20 32  1  0  0  0  0
 20 33  2  0  0  0  0
 20 34  1  0  0  0  0
 21 23  2  0  0  0  0
 21 39  1  0  0  0  0
 22 24  2  0  0  0  0
 22 40  1  0  0  0  0
 23 48  1  0  0  0  0
 24 41  1  0  0  0  0
 25 68  1  0  0  0  0
 26 77  1  0  0  0  0
 27 78  1  0  0  0  0
 28 79  1  0  0  0  0
 29 31  2  0  0  0  0
 29 77  1  0  0  0  0
 30 80  1  0  0  0  0
 31 81  1  0  0  0  0
 32 62  2  0  0  0  0
 33 63  1  0  0  0  0
 33 66  1  0  0  0  0
 34 67  1  0  0  0  0
 34 72  2  0  0  0  0
 35 49  1  0  0  0  0
 35 69  1  0  0  0  0
 35 73  2  0  0  0  0
 36 59  1  0  0  0  0
 36 64  1  0  0  0  0
 36 74  2  0  0  0  0
 37 60  1  0  0  0  0
 37 70  1  0  0  0  0
 37 75  2  0  0  0  0
 38 65  1  0  0  0  0
 38 68  1  0  0  0  0
 38 76  2  0  0  0  0
 39 42  1  0  0  0  0
 40 49  1  0  0  0  0
 41 64  1  0  0  0  0
 42 44  1  0  0  0  0
 43 45  1  0  0  0  0
 43 46  1  0  0  0  0
 44 48  1  0  0  0  0
 45 50  1  0  0  0  0
 46 65  1  0  0  0  0
 47 50  1  0  0  0  0
 47 65  1  0  0  0  0
 48 69  1  0  0  0  0
 49 64  1  0  0  0  0
 50 63  1  0  0  0  0
 51 60  1  0  0  0  0
 52 61  1  0  0  0  0
 53 61  1  0  0  0  0
 54 61  1  0  0  0  0
 55 71  1  0  0  0  0
 56 57  1  0  0  0  0
 56 58  1  0  0  0  0
 57 78  1  0  0  0  0
 58 79  1  0  0  0  0
 59 61  1  0  0  0  0
 59 70  1  0  0  0  0
 60 71  1  0  0  0  0
 62 63  1  0  0  0  0
M  CHG  1  71   1
M  ISO  4  38 100  58 101  68 100  79 101
M  END
> <Batch ID>
0007

> <Smiles>
CNC(C)C(=O)NC(C(=O)N1Cc2cc([101O:1][101CH2:1]CCOc3ccc([100NH:0][100C:0](=O)N4CCCC(n5nc(-c6ccc(Oc7ccc(F)cc7F)cc6)c(C(N)=O)c5N)C4)cc3)ccc2CC1C(=O)NC1CCCc2ccccc21)C(C)(C)C

> <Shape>
0.239

> <Color>
0.096

> <Negative vol penalty>
0.000

$$$$

  -OEChem-04052315333D

 91 99  0     1  0  0  0  0  0999 V2000
  -30.0091  -25.2943   17.3724 C   0  0  0  0  0  0  0  0  0  0  0  0
  -28.8891  -25.2167   18.1940 C   0  0  0  0  0  0  0  0  0  0  0  0
  -24.6589   -8.6455   21.0237 C   0  0  0  0  0  0  0  0  0  0  0  0
  -22.8091   -9.9054   20.1138 C   0  0  0  0  0  0  0  0  0  0  0  0
  -31.0253  -26.2030   17.6651 C   0  0  0  0  0  0  0  0  0  0  0  0
  -28.7851  -26.0471   19.3094 C   0  0  0  0  0  0  0  0  0  0  0  0
  -24.1904  -28.1279   19.7608 C   0  0  0  0  0  0  0  0  0  0  0  0
  -22.3187  -19.8155   23.1258 C   0  0  0  0  0  0  0  0  0  0  0  0
  -23.3765  -18.9210   22.9634 C   0  0  0  0  0  0  0  0  0  0  0  0
  -23.7920   -7.5986   21.3367 C   0  0  0  0  0  0  0  0  0  0  0  0
  -21.9421   -8.8585   20.4268 C   0  0  0  0  0  0  0  0  0  0  0  0
  -23.1746  -27.3229   20.2744 C   0  0  0  0  0  0  0  0  0  0  0  0
  -21.5309   -6.8720   23.7417 C   0  0  0  0  0  0  0  0  0  0  0  0
  -21.6521   -6.2858   25.0015 C   0  0  0  0  0  0  0  0  0  0  0  0
  -23.4512  -28.3620   22.4338 C   0  0  0  0  0  0  0  0  0  0  0  0
  -21.2289  -18.8798   21.1832 C   0  0  0  0  0  0  0  0  0  0  0  0
  -22.1260   -4.1556   23.9648 C   0  0  0  0  0  0  0  0  0  0  0  0
  -24.1675   -9.7989   20.4123 C   0  0  0  0  0  0  0  0  0  0  0  0
  -25.7768  -11.0641   18.8901 C   0  0  0  0  0  0  0  0  0  0  0  0
  -30.9292  -27.0517   18.7791 C   0  0  0  0  0  0  0  0  0  0  0  0
  -24.8528  -29.0499   20.5840 C   0  0  0  0  0  0  0  0  0  0  0  0
  -29.8016  -26.9671   19.6180 C   0  0  0  0  0  0  0  0  0  0  0  0
  -24.4733  -29.1793   21.9276 C   0  0  0  0  0  0  0  0  0  0  0  0
  -21.2448  -19.7949   22.2358 C   0  0  0  0  0  0  0  0  0  0  0  0
  -23.3606  -18.0059   21.9107 C   0  0  0  0  0  0  0  0  0  0  0  0
  -22.4336   -7.7050   21.0382 C   0  0  0  0  0  0  0  0  0  0  0  0
  -22.8068  -27.4378   21.6118 C   0  0  0  0  0  0  0  0  0  0  0  0
  -21.7072   -6.1000   22.5933 C   0  0  0  0  0  0  0  0  0  0  0  0
  -22.2868  -17.9853   21.0206 C   0  0  0  0  0  0  0  0  0  0  0  0
  -21.9497   -4.9277   25.1131 C   0  0  0  0  0  0  0  0  0  0  0  0
  -22.0048   -4.7418   22.7049 C   0  0  0  0  0  0  0  0  0  0  0  0
  -25.0625  -10.8809   20.0892 C   0  0  0  0  0  0  0  0  0  0  0  0
  -26.4760  -12.2306   19.0817 C   0  0  0  0  0  0  0  0  0  0  0  0
  -25.8056  -10.2524   17.7086 C   0  0  0  0  0  0  0  0  0  0  0  0
  -27.8537  -29.4353   21.5587 C   0  0  0  0  0  0  0  0  0  0  0  0
  -26.6740  -32.1706   22.8427 C   0  0  0  0  0  0  0  0  0  0  0  0
  -23.9692  -33.8887   24.0170 C   0  0  0  0  0  0  0  0  0  0  0  0
  -25.5778  -17.0035   22.5629 C   0  0  0  0  0  0  0  0  0  0  0  0
  -32.0749  -27.9847   19.0818 C   0  0  0  0  0  0  0  0  0  0  0  0
  -25.9283  -29.9297   20.0080 C   0  0  0  0  0  0  0  0  0  0  0  0
  -25.1394  -30.1680   22.8480 C   0  0  0  0  0  0  0  0  0  0  0  0
  -31.7148  -29.0907   20.0705 C   0  0  0  0  0  0  0  0  0  0  0  0
  -28.4442  -14.8914   22.5430 C   0  0  0  0  0  0  0  0  0  0  0  0
  -30.9597  -28.5145   21.2641 C   0  0  0  0  0  0  0  0  0  0  0  0
  -27.9691  -13.6425   21.7970 C   0  0  0  0  0  0  0  0  0  0  0  0
  -27.3426  -15.4800   23.4227 C   0  0  0  0  0  0  0  0  0  0  0  0
  -25.5982  -14.4966   21.9878 C   0  0  0  0  0  0  0  0  0  0  0  0
  -29.6409  -27.8683   20.8230 C   0  0  1  0  0  0  0  0  0  0  0  0
  -26.8855  -30.4727   21.0645 C   0  0  1  0  0  0  0  0  0  0  0  0
  -26.6533  -13.9054   21.0386 C   0  0  2  0  0  0  0  0  0  0  0  0
  -17.7264  -17.8861   24.7948 C   0  0  0  0  0  0  0  0  0  0  0  0
  -23.3238  -36.0893   25.0359 C   0  0  0  0  0  0  0  0  0  0  0  0
  -22.5839  -14.4511   18.7929 C   0  0  0  0  0  0  0  0  0  0  0  0
  -20.0814  -14.3250   18.6529 C   0  0  0  0  0  0  0  0  0  0  0  0
  -27.8490  -31.2762   25.5128 C   0  0  0  0  0  0  0  0  0  0  0  0
  -26.3955  -32.9735   26.6417 C   0  0  0  0  0  0  0  0  0  0  0  0
  -28.1334  -33.7096   25.0107 C   0  0  0  0  0  0  0  0  0  0  0  0
  -22.1632  -34.5345   21.7630 C   0  0  0  0  0  0  0  0  0  0  0  0
  -18.2702  -19.1576   24.1621 C   0  0  0  0  0  0  0  0  0  0  0  0
  -18.3471  -19.0349   22.6386 C   0  0  0  0  0  0  0  0  0  0  0  0
  -20.9031  -22.9934   21.9732 C   0  0  0  0  0  0  0  0  0  0  0  0
  -21.0830  -24.3947   22.5587 C   0  0  0  0  0  0  0  0  0  0  0  0
  -18.8329  -20.3172   21.9712 C   0  0  0  0  0  0  0  0  0  0  0  0
  -20.3782  -21.9920   22.9987 C   0  0  0  0  0  0  0  0  0  0  0  0
  -21.6449  -25.3645   21.5266 C   0  0  0  0  0  0  0  0  0  1  0  0
  -21.1564  -16.1860   19.9527 C   0  0  0  0  0  0  0  0  0  0  0  0
  -26.0522  -32.5495   24.1651 C   0  0  1  0  0  0  0  0  0  0  0  0
  -23.4760  -35.2985   23.7458 C   0  0  2  0  0  0  0  0  0  0  0  0
  -21.2859  -15.2598   18.7403 C   0  0  0  0  0  0  0  0  0  0  0  0
  -27.0961  -32.6071   25.3160 C   0  0  0  0  0  0  0  0  0  0  0  0
  -25.2874  -11.8532   20.9770 N   0  0  0  0  0  0  0  0  0  0  0  0
  -26.1509  -12.6585   20.3353 N   0  0  0  0  0  0  0  0  0  0  0  0
  -26.1896  -31.0013   22.2395 N   0  0  0  0  0  0  0  0  0  0  0  0
  -26.1284  -15.7064   22.6359 N   0  0  0  0  0  0  0  0  0  0  0  0
  -27.3311  -12.9219   18.2985 N   0  0  0  0  0  0  0  0  0  0  0  0
  -25.0274   -9.0871   17.6793 N   0  0  0  0  0  0  0  0  0  0  0  0
  -24.4425  -17.1035   21.7594 N   0  0  0  0  0  0  0  0  0  0  0  0
  -28.6416  -28.8833   20.5667 N   0  0  0  0  0  0  0  0  0  0  0  0
  -25.3432  -33.8042   23.9382 N   0  0  0  0  0  0  0  0  0  0  0  0
  -20.1812  -20.6935   22.3995 N   0  0  3  0  0  0  0  0  0  0  0  0
  -22.1543  -35.2617   23.0584 N   0  3  0  0  0  0  0  0  0  0  0  0
  -26.5137  -10.5428   16.7147 O   0  0  0  0  0  0  0  0  0  0  0  0
  -27.8846  -29.1574   22.7518 O   0  0  0  0  0  0  0  0  0  0  0  0
  -27.5520  -32.8897   22.3591 O   0  0  0  0  0  0  0  0  0  0  0  0
  -23.2115  -32.9564   24.2766 O   0  0  0  0  0  0  0  0  0  0  0  0
  -26.0925  -17.9607   23.1465 O   0  0  0  0  0  0  0  0  0  0  0  0
  -21.5873   -6.6836   21.3433 O   0  0  0  0  0  0  0  0  0  0  0  0
  -21.8160  -26.6528   22.1159 O   0  0  0  0  0  0  0  0  0  1  0  0
  -22.2512  -17.0989   19.9856 O   0  0  0  0  0  0  0  0  0  0  0  0
  -22.0675   -4.3652   26.3231 F   0  0  0  0  0  0  0  0  0  0  0  0
  -22.1765   -3.9953   21.6054 F   0  0  0  0  0  0  0  0  0  0  0  0
  1  2  1  0  0  0  0
  1  5  2  0  0  0  0
  2  6  2  0  0  0  0
  3 10  2  0  0  0  0
  3 18  1  0  0  0  0
  4 11  1  0  0  0  0
  4 18  2  0  0  0  0
  5 20  1  0  0  0  0
  6 22  1  0  0  0  0
  7 12  2  0  0  0  0
  7 21  1  0  0  0  0
  8  9  2  0  0  0  0
  8 24  1  0  0  0  0
  9 25  1  0  0  0  0
 10 26  1  0  0  0  0
 11 26  2  0  0  0  0
 12 27  1  0  0  0  0
 13 14  2  0  0  0  0
 13 28  1  0  0  0  0
 14 30  1  0  0  0  0
 15 23  1  0  0  0  0
 15 27  2  0  0  0  0
 16 24  2  0  0  0  0
 16 29  1  0  0  0  0
 17 30  2  0  0  0  0
 17 31  1  0  0  0  0
 18 32  1  0  0  0  0
 19 32  1  0  0  0  0
 19 33  2  0  0  0  0
 19 34  1  0  0  0  0
 20 22  2  0  0  0  0
 20 39  1  0  0  0  0
 21 23  2  0  0  0  0
 21 40  1  0  0  0  0
 22 48  1  0  0  0  0
 23 41  1  0  0  0  0
 24 80  1  0  0  0  0
 25 29  2  0  0  0  0
 25 77  1  0  0  0  0
 26 87  1  0  0  0  0
 27 88  1  0  0  0  0
 28 31  2  0  0  0  0
 28 87  1  0  0  0  0
 29 89  1  0  0  0  0
 30 90  1  0  0  0  0
 31 91  1  0  0  0  0
 32 71  2  0  0  0  0
 33 72  1  0  0  0  0
 33 75  1  0  0  0  0
 34 76  1  0  0  0  0
 34 82  2  0  0  0  0
 35 49  1  0  0  0  0
 35 78  1  0  0  0  0
 35 83  2  0  0  0  0
 36 67  1  0  0  0  0
 36 73  1  0  0  0  0
 36 84  2  0  0  0  0
 37 68  1  0  0  0  0
 37 79  1  0  0  0  0
 37 85  2  0  0  0  0
 38 74  1  0  0  0  0
 38 77  1  0  0  0  0
 38 86  2  0  0  0  0
 39 42  1  0  0  0  0
 40 49  1  0  0  0  0
 41 73  1  0  0  0  0
 42 44  1  0  0  0  0
 43 45  1  0  0  0  0
 43 46  1  0  0  0  0
 44 48  1  0  0  0  0
 45 50  1  0  0  0  0
 46 74  1  0  0  0  0
 47 50  1  0  0  0  0
 47 74  1  0  0  0  0
 48 78  1  0  0  0  0
 49 73  1  0  0  0  0
 50 72  1  0  0  0  0
 51 59  1  0  0  0  0
 52 68  1  0  0  0  0
 53 69  1  0  0  0  0
 54 69  1  0  0  0  0
 55 70  1  0  0  0  0
 56 70  1  0  0  0  0
 57 70  1  0  0  0  0
 58 81  1  0  0  0  0
 59 60  1  0  0  0  0
 60 63  1  0  0  0  0
 61 62  1  0  0  0  0
 61 64  1  0  0  0  0
 62 65  1  0  0  0  0
 63 80  1  0  0  0  0
 64 80  1  0  0  0  0
 65 88  1  0  0  0  0
 66 69  1  0  0  0  0
 66 89  1  0  0  0  0
 67 70  1  0  0  0  0
 67 79  1  0  0  0  0
 68 81  1  0  0  0  0
 71 72  1  0  0  0  0
M  CHG  1  81   1
M  ISO  4  38 100  65 101  77 100  88 101
M  END
> <Batch ID>
0007

> <Smiles>
CCCCN(CCC[101CH2:1][101O:1]c1ccc2c(c1)CN(C(=O)C(NC(=O)C(C)NC)C(C)(C)C)C(C(=O)NC1CCCc3ccccc31)C2)c1ccc([100NH:0][100C:0](=O)N2CCCC(n3nc(-c4ccc(Oc5ccc(F)cc5F)cc4)c(C(N)=O)c3N)C2)c(OCC(C)C)c1

> <Shape>
0.274

> <Color>
0.094

> <Negative vol penalty>
0.000

$$$$

  -OEChem-04052315333D

 86 94  0     1  0  0  0  0  0999 V2000
  -30.4523  -25.1748   17.4395 C   0  0  0  0  0  0  0  0  0  0  0  0
  -29.0774  -25.0741   17.6270 C   0  0  0  0  0  0  0  0  0  0  0  0
  -24.8549  -12.5803   19.7846 C   0  0  0  0  0  0  0  0  0  0  0  0
  -25.5306  -13.1120   22.0424 C   0  0  0  0  0  0  0  0  0  0  0  0
  -31.2444  -25.7837   18.4120 C   0  0  0  0  0  0  0  0  0  0  0  0
  -28.4941  -25.5811   18.7876 C   0  0  0  0  0  0  0  0  0  0  0  0
  -22.9766  -28.1891   19.2982 C   0  0  0  0  0  0  0  0  0  0  0  0
  -25.0151  -23.7083   22.8111 C   0  0  0  0  0  0  0  0  0  0  0  0
  -25.3661  -11.2912   19.9352 C   0  0  0  0  0  0  0  0  0  0  0  0
  -26.0417  -11.8229   22.1930 C   0  0  0  0  0  0  0  0  0  0  0  0
  -21.7416  -27.6968   19.7181 C   0  0  0  0  0  0  0  0  0  0  0  0
  -24.7449  -24.6697   23.7849 C   0  0  0  0  0  0  0  0  0  0  0  0
  -24.4144   -8.3877   21.3831 C   0  0  0  0  0  0  0  0  0  0  0  0
  -23.6318   -7.3236   20.9351 C   0  0  0  0  0  0  0  0  0  0  0  0
  -22.1551  -28.5637   21.9309 C   0  0  0  0  0  0  0  0  0  0  0  0
  -23.1077  -22.4230   23.5507 C   0  0  0  0  0  0  0  0  0  0  0  0
  -25.3843   -6.6805   19.4014 C   0  0  0  0  0  0  0  0  0  0  0  0
  -24.9373  -13.4907   20.8382 C   0  0  0  0  0  0  0  0  0  0  0  0
  -23.1029  -15.2584   20.9718 C   0  0  0  0  0  0  0  0  0  0  0  0
  -30.6693  -26.3071   19.5807 C   0  0  0  0  0  0  0  0  0  0  0  0
  -23.8162  -28.8640   20.1959 C   0  0  0  0  0  0  0  0  0  0  0  0
  -29.2796  -26.1964   19.7772 C   0  0  0  0  0  0  0  0  0  0  0  0
  -23.3991  -29.0658   21.5193 C   0  0  0  0  0  0  0  0  0  0  0  0
  -22.8376  -23.3843   24.5247 C   0  0  0  0  0  0  0  0  0  0  0  0
  -24.1964  -22.5850   22.6939 C   0  0  0  0  0  0  0  0  0  0  0  0
  -25.9594  -10.9125   21.1394 C   0  0  0  0  0  0  0  0  0  0  0  0
  -21.3319  -27.8815   21.0353 C   0  0  0  0  0  0  0  0  0  0  0  0
  -23.6563  -24.5077   24.6418 C   0  0  0  0  0  0  0  0  0  0  0  0
  -25.6820   -8.5982   20.8403 C   0  0  0  0  0  0  0  0  0  0  0  0
  -24.1167   -6.4699   19.9442 C   0  0  0  0  0  0  0  0  0  0  0  0
  -26.1669   -7.7446   19.8494 C   0  0  0  0  0  0  0  0  0  0  0  0
  -24.4100  -14.8226   20.6830 C   0  0  0  0  0  0  0  0  0  0  0  0
  -23.1090  -16.5951   20.6561 C   0  0  0  0  0  0  0  0  0  0  0  0
  -21.9833  -14.5209   21.4800 C   0  0  0  0  0  0  0  0  0  0  0  0
  -26.7298  -28.3526   21.3591 C   0  0  0  0  0  0  0  0  0  0  0  0
  -26.2914  -31.2810   22.6839 C   0  0  0  0  0  0  0  0  0  0  0  0
  -20.3286  -23.5085   24.7830 C   0  0  0  0  0  0  0  0  0  0  0  0
  -24.1128  -33.6736   23.7682 C   0  0  0  0  0  0  0  0  0  0  0  0
  -25.5107  -21.6171   20.7750 C   0  0  0  0  0  0  0  0  0  0  0  0
  -31.5723  -26.9142   20.6251 C   0  0  0  0  0  0  0  0  0  0  0  0
  -25.1337  -29.4124   19.7205 C   0  0  0  0  0  0  0  0  0  0  0  0
  -24.2546  -29.8014   22.5171 C   0  0  0  0  0  0  0  0  0  0  0  0
  -30.8290  -27.7604   21.6555 C   0  0  0  0  0  0  0  0  0  0  0  0
  -26.5473  -19.3844   18.2025 C   0  0  0  0  0  0  0  0  0  0  0  0
  -29.5904  -27.0248   22.1569 C   0  0  0  0  0  0  0  0  0  0  0  0
  -25.9761  -18.0344   18.6423 C   0  0  0  0  0  0  0  0  0  0  0  0
  -27.0256  -20.2130   19.3935 C   0  0  0  0  0  0  0  0  0  0  0  0
  -25.4616  -19.0485   20.8992 C   0  0  0  0  0  0  0  0  0  0  0  0
  -28.6066  -26.7565   21.0116 C   0  0  1  0  0  0  0  0  0  0  0  0
  -26.1319  -29.6346   20.8526 C   0  0  1  0  0  0  0  0  0  0  0  0
  -24.9072  -18.2052   19.7394 C   0  0  2  0  0  0  0  0  0  0  0  0
  -24.0515  -35.9429   24.8376 C   0  0  0  0  0  0  0  0  0  0  0  0
  -26.9805  -30.0269   25.3788 C   0  0  0  0  0  0  0  0  0  0  0  0
  -25.9958  -32.0428   26.4900 C   0  0  0  0  0  0  0  0  0  0  0  0
  -27.9775  -32.2881   24.9949 C   0  0  0  0  0  0  0  0  0  0  0  0
  -22.7214  -34.8604   21.4412 C   0  0  0  0  0  0  0  0  0  0  0  0
  -24.2943  -26.5715   25.6363 C   0  0  0  0  0  0  0  0  0  0  0  0
  -21.6582  -23.1933   25.4411 C   0  0  0  0  0  0  0  0  0  0  0  0
  -18.9737  -25.9106   22.9329 C   0  0  0  0  0  0  0  0  0  0  0  0
  -18.7923  -25.4142   24.3610 C   0  0  0  0  0  0  0  0  0  0  0  0
  -20.0162  -27.0161   22.8174 C   0  0  0  0  0  0  0  0  0  1  0  0
  -25.7148  -31.7915   23.9823 C   0  0  1  0  0  0  0  0  0  0  0  0
  -24.0598  -35.1714   23.5271 C   0  0  2  0  0  0  0  0  0  0  0  0
  -26.6516  -31.5217   25.1934 C   0  0  0  0  0  0  0  0  0  0  0  0
  -25.1897  -15.8029   20.2194 N   0  0  0  0  0  0  0  0  0  0  0  0
  -24.3702  -16.8680   20.2143 N   0  0  0  0  0  0  0  0  0  0  0  0
  -25.5369  -30.3132   22.0057 N   0  0  0  0  0  0  0  0  0  0  0  0
  -25.9593  -20.3360   20.3899 N   0  0  0  0  0  0  0  0  0  0  0  0
  -22.1586  -17.5519   20.7159 N   0  0  0  0  0  0  0  0  0  0  0  0
  -22.1498  -13.1559   21.7509 N   0  0  0  0  0  0  0  0  0  0  0  0
  -24.4711  -21.6087   21.7044 N   0  0  0  0  0  0  0  0  0  0  0  0
  -27.8704  -27.9590   20.6856 N   0  0  0  0  0  0  0  0  0  0  0  0
  -19.9998  -24.8555   24.9031 N   0  0  0  0  0  0  0  0  0  0  0  0
  -25.4083  -33.2014   23.7663 N   0  0  0  0  0  0  0  0  0  0  0  0
  -22.8317  -35.5300   22.7628 N   0  3  0  0  0  0  0  0  0  0  0  0
  -20.8637  -15.0528   21.6724 O   0  0  0  0  0  0  0  0  0  0  0  0
  -26.1968  -27.7649   22.2930 O   0  0  0  0  0  0  0  0  0  0  0  0
  -27.3680  -31.7297   22.2824 O   0  0  0  0  0  0  0  0  0  0  0  0
  -19.6380  -22.6677   24.2129 O   0  0  0  0  0  0  0  0  0  0  0  0
  -23.1058  -32.9913   23.9445 O   0  0  0  0  0  0  0  0  0  0  0  0
  -25.9934  -22.6455   20.2939 O   0  0  0  0  0  0  0  0  0  0  0  0
  -26.4581   -9.6546   21.2867 O   0  0  0  0  0  0  0  0  0  0  0  0
  -23.4067  -25.4563   25.5874 O   0  0  0  0  0  0  0  0  0  0  0  0
  -20.1273  -27.4014   21.4479 O   0  0  0  0  0  0  0  0  0  1  0  0
  -23.3657   -5.4472   19.5151 F   0  0  0  0  0  0  0  0  0  0  0  0
  -27.3844   -7.9412   19.3250 F   0  0  0  0  0  0  0  0  0  0  0  0
  1  2  1  0  0  0  0
  1  5  2  0  0  0  0
  2  6  2  0  0  0  0
  3  9  2  0  0  0  0
  3 18  1  0  0  0  0
  4 10  1  0  0  0  0
  4 18  2  0  0  0  0
  5 20  1  0  0  0  0
  6 22  1  0  0  0  0
  7 11  2  0  0  0  0
  7 21  1  0  0  0  0
  8 12  2  0  0  0  0
  8 25  1  0  0  0  0
  9 26  1  0  0  0  0
 10 26  2  0  0  0  0
 11 27  1  0  0  0  0
 12 28  1  0  0  0  0
 13 14  2  0  0  0  0
 13 29  1  0  0  0  0
 14 30  1  0  0  0  0
 15 23  1  0  0  0  0
 15 27  2  0  0  0  0
 16 24  1  0  0  0  0
 16 25  2  0  0  0  0
 17 30  2  0  0  0  0
 17 31  1  0  0  0  0
 18 32  1  0  0  0  0
 19 32  1  0  0  0  0
 19 33  2  0  0  0  0
 19 34  1  0  0  0  0
 20 22  2  0  0  0  0
 20 40  1  0  0  0  0
 21 23  2  0  0  0  0
 21 41  1  0  0  0  0
 22 49  1  0  0  0  0
 23 42  1  0  0  0  0
 24 28  2  0  0  0  0
 24 58  1  0  0  0  0
 25 71  1  0  0  0  0
 26 82  1  0  0  0  0
 27 84  1  0  0  0  0
 28 83  1  0  0  0  0
 29 31  2  0  0  0  0
 29 82  1  0  0  0  0
 30 85  1  0  0  0  0
 31 86  1  0  0  0  0
 32 65  2  0  0  0  0
 33 66  1  0  0  0  0
 33 69  1  0  0  0  0
 34 70  1  0  0  0  0
 34 76  2  0  0  0  0
 35 50  1  0  0  0  0
 35 72  1  0  0  0  0
 35 77  2  0  0  0  0
 36 62  1  0  0  0  0
 36 67  1  0  0  0  0
 36 78  2  0  0  0  0
 37 58  1  0  0  0  0
 37 73  1  0  0  0  0
 37 79  2  0  0  0  0
 38 63  1  0  0  0  0
 38 74  1  0  0  0  0
 38 80  2  0  0  0  0
 39 68  1  0  0  0  0
 39 71  1  0  0  0  0
 39 81  2  0  0  0  0
 40 43  1  0  0  0  0
 41 50  1  0  0  0  0
 42 67  1  0  0  0  0
 43 45  1  0  0  0  0
 44 46  1  0  0  0  0
 44 47  1  0  0  0  0
 45 49  1  0  0  0  0
 46 51  1  0  0  0  0
 47 68  1  0  0  0  0
 48 51  1  0  0  0  0
 48 68  1  0  0  0  0
 49 72  1  0  0  0  0
 50 67  1  0  0  0  0
 51 66  1  0  0  0  0
 52 63  1  0  0  0  0
 53 64  1  0  0  0  0
 54 64  1  0  0  0  0
 55 64  1  0  0  0  0
 56 75  1  0  0  0  0
 57 83  1  0  0  0  0
 59 60  1  0  0  0  0
 59 61  1  0  0  0  0
 60 73  1  0  0  0  0
 61 84  1  0  0  0  0
 62 64  1  0  0  0  0
 62 74  1  0  0  0  0
 63 75  1  0  0  0  0
 65 66  1  0  0  0  0
M  CHG  1  75   1
M  ISO  4  39 100  61 101  71 100  84 101
M  END
> <Batch ID>
0007

> <Smiles>
CNC(C)C(=O)NC(C(=O)N1Cc2cc([101O:1][101CH2:1]CCNC(=O)Cc3cc([100NH:0][100C:0](=O)N4CCCC(n5nc(-c6ccc(Oc7ccc(F)cc7F)cc6)c(C(N)=O)c5N)C4)ccc3OC)ccc2CC1C(=O)NC1CCCc2ccccc21)C(C)(C)C

> <Shape>
0.255

> <Color>
0.090

> <Negative vol penalty>
0.000

$$$$

  -OEChem-04052315333D

 86 94  0     1  0  0  0  0  0999 V2000
  -31.7994  -29.3292   33.9101 C   0  0  0  0  0  0  0  0  0  0  0  0
  -31.8457  -28.8358   32.6102 C   0  0  0  0  0  0  0  0  0  0  0  0
  -23.1382   -9.8835   21.5849 C   0  0  0  0  0  0  0  0  0  0  0  0
  -23.7690  -10.9935   23.6360 C   0  0  0  0  0  0  0  0  0  0  0  0
  -30.6323  -29.9242   34.3875 C   0  0  0  0  0  0  0  0  0  0  0  0
  -30.7245  -28.9362   31.7872 C   0  0  0  0  0  0  0  0  0  0  0  0
  -31.8800  -30.5053   27.1130 C   0  0  0  0  0  0  0  0  0  0  0  0
  -22.4140   -8.9425   22.3168 C   0  0  0  0  0  0  0  0  0  0  0  0
  -23.0447  -10.0525   24.3679 C   0  0  0  0  0  0  0  0  0  0  0  0
  -32.4261  -29.5636   26.2420 C   0  0  0  0  0  0  0  0  0  0  0  0
  -23.0613   -6.1728   24.1426 C   0  0  0  0  0  0  0  0  0  0  0  0
  -23.2088   -4.8298   23.7958 C   0  0  0  0  0  0  0  0  0  0  0  0
  -30.2647  -29.2728   25.2109 C   0  0  0  0  0  0  0  0  0  0  0  0
  -30.0844  -19.6578   21.5307 C   0  0  0  0  0  0  0  0  0  0  0  0
  -31.7784  -17.4905   21.0659 C   0  0  0  0  0  0  0  0  0  0  0  0
  -20.8438   -4.6926   23.3212 C   0  0  0  0  0  0  0  0  0  0  0  0
  -23.8158  -10.9089   22.2445 C   0  0  0  0  0  0  0  0  0  0  0  0
  -24.0935  -13.1029   20.9729 C   0  0  0  0  0  0  0  0  0  0  0  0
  -29.4994  -30.0406   33.5668 C   0  0  0  0  0  0  0  0  0  0  0  0
  -30.5175  -30.8304   27.0466 C   0  0  0  0  0  0  0  0  0  0  0  0
  -29.5408  -29.5321   32.2545 C   0  0  0  0  0  0  0  0  0  0  0  0
  -29.7043  -30.2209   26.0805 C   0  0  0  0  0  0  0  0  0  0  0  0
  -29.5548  -18.4338   21.1221 C   0  0  0  0  0  0  0  0  0  0  0  0
  -31.4610  -19.7982   21.7069 C   0  0  0  0  0  0  0  0  0  0  0  0
  -30.4018  -17.3502   20.8897 C   0  0  0  0  0  0  0  0  0  0  0  0
  -22.3672   -9.0271   23.7083 C   0  0  0  0  0  0  0  0  0  0  0  0
  -31.6178  -28.9450   25.2927 C   0  0  0  0  0  0  0  0  0  0  0  0
  -21.8050   -6.7756   24.0788 C   0  0  0  0  0  0  0  0  0  0  0  0
  -32.3080  -18.7145   21.4745 C   0  0  0  0  0  0  0  0  0  0  0  0
  -22.1001   -4.0897   23.3850 C   0  0  0  0  0  0  0  0  0  0  0  0
  -20.6963   -6.0356   23.6681 C   0  0  0  0  0  0  0  0  0  0  0  0
  -24.5646  -11.8809   21.4891 C   0  0  0  0  0  0  0  0  0  0  0  0
  -25.1829  -13.6519   20.3418 C   0  0  0  0  0  0  0  0  0  0  0  0
  -22.7878  -13.6894   21.0565 C   0  0  0  0  0  0  0  0  0  0  0  0
  -28.0546  -30.5918   29.0418 C   0  0  0  0  0  0  0  0  0  0  0  0
  -26.5039  -32.2202   26.7039 C   0  0  0  0  0  0  0  0  0  0  0  0
  -26.3106  -33.0702   23.4043 C   0  0  0  0  0  0  0  0  0  0  0  0
  -30.5997  -14.9335   20.2064 C   0  0  0  0  0  0  0  0  0  0  0  0
  -28.2453  -30.6491   34.1426 C   0  0  0  0  0  0  0  0  0  0  0  0
  -29.9495  -31.8680   27.9757 C   0  0  0  0  0  0  0  0  0  0  0  0
  -28.2399  -30.5498   25.9547 C   0  0  0  0  0  0  0  0  0  0  0  0
  -27.2227  -31.0531   33.0837 C   0  0  0  0  0  0  0  0  0  0  0  0
  -29.6862  -11.6430   19.1990 C   0  0  0  0  0  0  0  0  0  0  0  0
  -27.0414  -29.9347   32.0624 C   0  0  0  0  0  0  0  0  0  0  0  0
  -28.2336  -11.5120   19.6625 C   0  0  0  0  0  0  0  0  0  0  0  0
  -30.5264  -12.4497   20.1874 C   0  0  0  0  0  0  0  0  0  0  0  0
  -28.5262  -13.6356   21.0011 C   0  0  0  0  0  0  0  0  0  0  0  0
  -28.3533  -29.6447   31.3232 C   0  0  1  0  0  0  0  0  0  0  0  0
  -28.4399  -31.7444   28.1582 C   0  0  1  0  0  0  0  0  0  0  0  0
  -27.6255  -12.8861   20.0058 C   0  0  2  0  0  0  0  0  0  0  0  0
  -28.0768  -18.3125   20.9386 C   0  0  0  0  0  0  0  0  0  0  0  0
  -24.9120  -34.3840   21.7873 C   0  0  0  0  0  0  0  0  0  0  0  0
  -24.3967  -30.0138   26.7376 C   0  0  0  0  0  0  0  0  0  0  0  0
  -23.5813  -30.8547   24.5249 C   0  0  0  0  0  0  0  0  0  0  0  0
  -23.4779  -32.3308   26.5331 C   0  0  0  0  0  0  0  0  0  0  0  0
  -28.5719  -34.8512   22.7161 C   0  0  0  0  0  0  0  0  0  0  0  0
  -34.4146  -19.2401   20.5042 C   0  0  0  0  0  0  0  0  0  0  0  0
  -31.1952  -24.5894   23.2065 C   0  0  0  0  0  0  0  0  0  0  0  0
  -32.0210  -23.3440   22.8696 C   0  0  0  0  0  0  0  0  0  0  0  0
  -32.0882  -25.7332   23.6838 C   0  0  0  0  0  0  0  0  0  0  0  0
  -31.1613  -22.1828   22.3774 C   0  0  0  0  0  0  0  0  0  0  0  0
  -31.2805  -26.9896   23.9818 C   0  0  0  0  0  0  0  0  0  1  0  0
  -25.7191  -31.8354   25.4731 C   0  0  1  0  0  0  0  0  0  0  0  0
  -26.1133  -34.4105   22.7193 C   0  0  2  0  0  0  0  0  0  0  0  0
  -24.3209  -31.2508   25.8206 C   0  0  0  0  0  0  0  0  0  0  0  0
  -25.8530  -11.6657   21.2099 N   0  0  0  0  0  0  0  0  0  0  0  0
  -26.2006  -12.7599   20.5114 N   0  0  0  0  0  0  0  0  0  0  0  0
  -27.7300  -31.5660   26.8899 N   0  0  0  0  0  0  0  0  0  0  0  0
  -29.8911  -13.7404   20.4617 N   0  0  0  0  0  0  0  0  0  0  0  0
  -25.3599  -14.8057   19.6638 N   0  0  0  0  0  0  0  0  0  0  0  0
  -21.7844  -12.9912   21.7420 N   0  0  0  0  0  0  0  0  0  0  0  0
  -29.8824  -16.0989   20.4748 N   0  0  0  0  0  0  0  0  0  0  0  0
  -31.9739  -21.0193   22.1156 N   0  0  0  0  0  0  0  0  0  0  0  0
  -28.5965  -30.6507   30.3116 N   0  0  0  0  0  0  0  0  0  0  0  0
  -25.6766  -33.0238   24.6279 N   0  0  0  0  0  0  0  0  0  0  0  0
  -27.3201  -34.7666   21.9206 N   0  3  0  0  0  0  0  0  0  0  0  0
  -22.5146  -14.7921   20.5245 O   0  0  0  0  0  0  0  0  0  0  0  0
  -27.3189  -29.7148   28.6045 O   0  0  0  0  0  0  0  0  0  0  0  0
  -26.0494  -33.0751   27.4682 O   0  0  0  0  0  0  0  0  0  0  0  0
  -26.9590  -32.1547   22.9024 O   0  0  0  0  0  0  0  0  0  0  0  0
  -31.7479  -14.9225   19.7554 O   0  0  0  0  0  0  0  0  0  0  0  0
  -21.6603   -8.1092   24.4227 O   0  0  0  0  0  0  0  0  0  0  0  0
  -33.6557  -18.8314   21.6401 O   0  0  0  0  0  0  0  0  0  0  0  0
  -32.1482  -28.0250   24.4418 O   0  0  0  0  0  0  0  0  0  1  0  0
  -22.2422   -2.8005   23.0505 F   0  0  0  0  0  0  0  0  0  0  0  0
  -19.4871   -6.6096   23.6037 F   0  0  0  0  0  0  0  0  0  0  0  0
  1  2  1  0  0  0  0
  1  5  2  0  0  0  0
  2  6  2  0  0  0  0
  3  8  2  0  0  0  0
  3 17  1  0  0  0  0
  4  9  1  0  0  0  0
  4 17  2  0  0  0  0
  5 19  1  0  0  0  0
  6 21  1  0  0  0  0
  7 10  2  0  0  0  0
  7 20  1  0  0  0  0
  8 26  1  0  0  0  0
  9 26  2  0  0  0  0
 10 27  1  0  0  0  0
 11 12  2  0  0  0  0
 11 28  1  0  0  0  0
 12 30  1  0  0  0  0
 13 22  1  0  0  0  0
 13 27  2  0  0  0  0
 14 23  2  0  0  0  0
 14 24  1  0  0  0  0
 15 25  2  0  0  0  0
 15 29  1  0  0  0  0
 16 30  2  0  0  0  0
 16 31  1  0  0  0  0
 17 32  1  0  0  0  0
 18 32  1  0  0  0  0
 18 33  2  0  0  0  0
 18 34  1  0  0  0  0
 19 21  2  0  0  0  0
 19 39  1  0  0  0  0
 20 22  2  0  0  0  0
 20 40  1  0  0  0  0
 21 48  1  0  0  0  0
 22 41  1  0  0  0  0
 23 25  1  0  0  0  0
 23 51  1  0  0  0  0
 24 29  2  0  0  0  0
 24 73  1  0  0  0  0
 25 72  1  0  0  0  0
 26 82  1  0  0  0  0
 27 84  1  0  0  0  0
 28 31  2  0  0  0  0
 28 82  1  0  0  0  0
 29 83  1  0  0  0  0
 30 85  1  0  0  0  0
 31 86  1  0  0  0  0
 32 66  2  0  0  0  0
 33 67  1  0  0  0  0
 33 70  1  0  0  0  0
 34 71  1  0  0  0  0
 34 77  2  0  0  0  0
 35 49  1  0  0  0  0
 35 74  1  0  0  0  0
 35 78  2  0  0  0  0
 36 63  1  0  0  0  0
 36 68  1  0  0  0  0
 36 79  2  0  0  0  0
 37 64  1  0  0  0  0
 37 75  1  0  0  0  0
 37 80  2  0  0  0  0
 38 69  1  0  0  0  0
 38 72  1  0  0  0  0
 38 81  2  0  0  0  0
 39 42  1  0  0  0  0
 40 49  1  0  0  0  0
 41 68  1  0  0  0  0
 42 44  1  0  0  0  0
 43 45  1  0  0  0  0
 43 46  1  0  0  0  0
 44 48  1  0  0  0  0
 45 50  1  0  0  0  0
 46 69  1  0  0  0  0
 47 50  1  0  0  0  0
 47 69  1  0  0  0  0
 48 74  1  0  0  0  0
 49 68  1  0  0  0  0
 50 67  1  0  0  0  0
 52 64  1  0  0  0  0
 53 65  1  0  0  0  0
 54 65  1  0  0  0  0
 55 65  1  0  0  0  0
 56 76  1  0  0  0  0
 57 83  1  0  0  0  0
 58 59  1  0  0  0  0
 58 60  1  0  0  0  0
 59 61  1  0  0  0  0
 60 62  1  0  0  0  0
 61 73  1  0  0  0  0
 62 84  1  0  0  0  0
 63 65  1  0  0  0  0
 63 75  1  0  0  0  0
 64 76  1  0  0  0  0
 66 67  1  0  0  0  0
M  CHG  1  76   1
M  ISO  4  38 100  62 101  72 100  84 101
M  END
> <Batch ID>
0007

> <Smiles>
CNC(C)C(=O)NC(C(=O)N1Cc2cc([101O:1][101CH2:1]CCCCNc3cc(C)c([100NH:0][100C:0](=O)N4CCCC(n5nc(-c6ccc(Oc7ccc(F)cc7F)cc6)c(C(N)=O)c5N)C4)cc3OC)ccc2CC1C(=O)NC1CCCc2ccccc21)C(C)(C)C

> <Shape>
0.227

> <Color>
0.149

> <Negative vol penalty>
0.000

$$$$

  -OEChem-04052315333D

 81 88  0     1  0  0  0  0  0999 V2000
  -18.0103  -24.4996   22.5383 C   0  0  0  0  0  0  0  0  0  0  0  0
  -19.3846  -24.2913   22.4811 C   0  0  0  0  0  0  0  0  0  0  0  0
  -26.6698  -12.1877   20.3380 C   0  0  0  0  0  0  0  0  0  0  0  0
  -25.3093  -14.0946   20.9297 C   0  0  0  0  0  0  0  0  0  0  0  0
  -17.5067  -25.7952   22.6474 C   0  0  0  0  0  0  0  0  0  0  0  0
  -20.2562  -25.3785   22.5319 C   0  0  0  0  0  0  0  0  0  0  0  0
  -24.1639  -24.5917   25.6553 C   0  0  0  0  0  0  0  0  0  0  0  0
  -25.7475  -11.3395   20.9508 C   0  0  0  0  0  0  0  0  0  0  0  0
  -24.3870  -13.2464   21.5424 C   0  0  0  0  0  0  0  0  0  0  0  0
  -25.2031  -23.7898   25.1855 C   0  0  0  0  0  0  0  0  0  0  0  0
  -22.7368   -9.9869   20.2169 C   0  0  0  0  0  0  0  0  0  0  0  0
  -22.3654   -8.8299   19.5321 C   0  0  0  0  0  0  0  0  0  0  0  0
  -26.4881  -25.7659   24.6729 C   0  0  0  0  0  0  0  0  0  0  0  0
  -23.1972   -7.4827   21.3570 C   0  0  0  0  0  0  0  0  0  0  0  0
  -26.4508  -13.5653   20.3275 C   0  0  0  0  0  0  0  0  0  0  0  0
  -27.4097  -14.8635   18.3520 C   0  0  0  0  0  0  0  0  0  0  0  0
  -18.3729  -26.8982   22.7093 C   0  0  0  0  0  0  0  0  0  0  0  0
  -24.2748  -25.9893   25.6273 C   0  0  0  0  0  0  0  0  0  0  0  0
  -19.7637  -26.6902   22.6406 C   0  0  0  0  0  0  0  0  0  0  0  0
  -25.4500  -26.5832   25.1454 C   0  0  0  0  0  0  0  0  0  0  0  0
  -24.6061  -11.8688   21.5530 C   0  0  0  0  0  0  0  0  0  0  0  0
  -26.3643  -24.3769   24.6915 C   0  0  0  0  0  0  0  0  0  0  0  0
  -23.3384   -9.8918   21.4718 C   0  0  0  0  0  0  0  0  0  0  0  0
  -22.5956   -7.5778   20.1021 C   0  0  0  0  0  0  0  0  0  0  0  0
  -23.5686   -8.6397   22.0419 C   0  0  0  0  0  0  0  0  0  0  0  0
  -27.4034  -14.4420   19.6952 C   0  0  0  0  0  0  0  0  0  0  0  0
  -28.5098  -15.6800   18.2535 C   0  0  0  0  0  0  0  0  0  0  0  0
  -26.5023  -14.5455   17.2885 C   0  0  0  0  0  0  0  0  0  0  0  0
  -22.6863  -28.3372   24.1894 C   0  0  0  0  0  0  0  0  0  0  0  0
  -24.6213  -30.2212   25.9863 C   0  0  0  0  0  0  0  0  0  0  0  0
  -27.5541  -30.5656   27.6970 C   0  0  0  0  0  0  0  0  0  0  0  0
  -30.8957  -22.7817   19.3573 C   0  0  0  0  0  0  0  0  0  0  0  0
  -31.7309  -19.7697   20.2648 C   0  0  0  0  0  0  0  0  0  0  0  0
  -17.7805  -28.2834   22.7795 C   0  0  0  0  0  0  0  0  0  0  0  0
  -23.1556  -26.8398   26.1626 C   0  0  0  0  0  0  0  0  0  0  0  0
  -25.6269  -28.0786   25.1125 C   0  0  0  0  0  0  0  0  0  0  0  0
  -18.7825  -29.3536   23.2048 C   0  0  0  0  0  0  0  0  0  0  0  0
  -32.3181  -16.4771   21.4859 C   0  0  0  0  0  0  0  0  0  0  0  0
  -20.0884  -29.1995   22.4317 C   0  0  0  0  0  0  0  0  0  0  0  0
  -31.0899  -15.6911   21.0236 C   0  0  0  0  0  0  0  0  0  0  0  0
  -31.9568  -17.9070   21.8821 C   0  0  0  0  0  0  0  0  0  0  0  0
  -29.9942  -17.8817   20.3916 C   0  0  0  0  0  0  0  0  0  0  0  0
  -20.7421  -27.8421   22.7178 C   0  0  1  0  0  0  0  0  0  0  0  0
  -23.1690  -28.2618   25.6103 C   0  0  1  0  0  0  0  0  0  0  0  0
  -30.3175  -16.4509   19.9284 C   0  0  2  0  0  0  0  0  0  0  0  0
  -28.8733  -32.2335   29.0294 C   0  0  0  0  0  0  0  0  0  0  0  0
  -29.4067  -21.7149   16.9371 C   0  0  0  0  0  0  0  0  0  0  0  0
  -31.4670  -20.4264   16.3124 C   0  0  0  0  0  0  0  0  0  0  0  0
  -25.4190  -31.6456   23.4086 C   0  0  0  0  0  0  0  0  0  0  0  0
  -27.3798  -32.6102   24.6306 C   0  0  0  0  0  0  0  0  0  0  0  0
  -25.0606  -33.1577   25.3681 C   0  0  0  0  0  0  0  0  0  0  0  0
  -27.4845  -28.8622   30.1162 C   0  0  0  0  0  0  0  0  0  0  0  0
  -28.7490  -23.0132   22.3325 C   0  0  0  0  0  0  0  0  0  0  0  0
  -28.1962  -24.1378   23.1939 C   0  0  0  0  0  0  0  0  0  1  0  0
  -29.6122  -23.5386   21.1963 C   0  0  0  0  0  0  0  0  0  0  0  0
  -25.9836  -30.8434   25.7968 C   0  0  1  0  0  0  0  0  0  0  0  0
  -27.8540  -31.1062   29.0835 C   0  0  2  0  0  0  0  0  0  0  0  0
  -31.3743  -21.5590   18.5824 C   0  0  2  0  0  0  0  0  0  0  0  0
  -30.9268  -21.6202   17.1057 C   0  0  0  0  0  0  0  0  0  0  0  0
  -25.9570  -32.0360   24.7997 C   0  0  0  0  0  0  0  0  0  0  0  0
  -28.4190  -14.9487   20.3994 N   0  0  0  0  0  0  0  0  0  0  0  0
  -29.0738  -15.6970   19.4953 N   0  0  0  0  0  0  0  0  0  0  0  0
  -24.5019  -28.8675   25.6411 N   0  0  0  0  0  0  0  0  0  0  0  0
  -31.2275  -18.5724   20.7998 N   0  0  0  0  0  0  0  0  0  0  0  0
  -29.0401  -16.3778   17.2268 N   0  0  0  0  0  0  0  0  0  0  0  0
  -25.4253  -13.6913   17.5621 N   0  0  0  0  0  0  0  0  0  0  0  0
  -21.4024  -27.8605   24.0054 N   0  0  0  0  0  0  0  0  0  0  0  0
  -26.4631  -31.1900   27.1304 N   0  0  0  0  0  0  0  0  0  0  0  0
  -30.9820  -20.3313   19.2379 N   0  0  0  0  0  0  0  0  0  0  0  0
  -28.3947  -30.0252   29.9552 N   0  3  0  0  0  0  0  0  0  0  0  0
  -26.6516  -14.9922   16.1259 O   0  0  0  0  0  0  0  0  0  0  0  0
  -23.4234  -28.7954   23.3243 O   0  0  0  0  0  0  0  0  0  0  0  0
  -23.6989  -30.9089   26.4311 O   0  0  0  0  0  0  0  0  0  0  0  0
  -28.2232  -29.6807   27.1680 O   0  0  0  0  0  0  0  0  0  0  0  0
  -31.2046  -23.9269   19.0439 O   0  0  0  0  0  0  0  0  0  0  0  0
  -32.7734  -20.2960   20.6684 O   0  0  0  0  0  0  0  0  0  0  0  0
  -23.7057  -11.0415   22.1508 O   0  0  0  0  0  0  0  0  0  0  0  0
  -27.3799  -23.5965   24.2317 O   0  0  0  0  0  0  0  0  0  1  0  0
  -30.1002  -22.4532   20.4194 O   0  0  0  0  0  0  0  0  0  0  0  0
  -22.2376   -6.4668   19.4450 F   0  0  0  0  0  0  0  0  0  0  0  0
  -24.1451   -8.5421   23.2477 F   0  0  0  0  0  0  0  0  0  0  0  0
  1  2  1  0  0  0  0
  1  5  2  0  0  0  0
  2  6  2  0  0  0  0
  3  8  2  0  0  0  0
  3 15  1  0  0  0  0
  4  9  1  0  0  0  0
  4 15  2  0  0  0  0
  5 17  1  0  0  0  0
  6 19  1  0  0  0  0
  7 10  2  0  0  0  0
  7 18  1  0  0  0  0
  8 21  1  0  0  0  0
  9 21  2  0  0  0  0
 10 22  1  0  0  0  0
 11 12  2  0  0  0  0
 11 23  1  0  0  0  0
 12 24  1  0  0  0  0
 13 20  1  0  0  0  0
 13 22  2  0  0  0  0
 14 24  2  0  0  0  0
 14 25  1  0  0  0  0
 15 26  1  0  0  0  0
 16 26  1  0  0  0  0
 16 27  2  0  0  0  0
 16 28  1  0  0  0  0
 17 19  2  0  0  0  0
 17 34  1  0  0  0  0
 18 20  2  0  0  0  0
 18 35  1  0  0  0  0
 19 43  1  0  0  0  0
 20 36  1  0  0  0  0
 21 77  1  0  0  0  0
 22 78  1  0  0  0  0
 23 25  2  0  0  0  0
 23 77  1  0  0  0  0
 24 80  1  0  0  0  0
 25 81  1  0  0  0  0
 26 61  2  0  0  0  0
 27 62  1  0  0  0  0
 27 65  1  0  0  0  0
 28 66  1  0  0  0  0
 28 71  2  0  0  0  0
 29 44  1  0  0  0  0
 29 67  1  0  0  0  0
 29 72  2  0  0  0  0
 30 56  1  0  0  0  0
 30 63  1  0  0  0  0
 30 73  2  0  0  0  0
 31 57  1  0  0  0  0
 31 68  1  0  0  0  0
 31 74  2  0  0  0  0
 32 58  1  0  0  0  0
 32 75  2  0  0  0  0
 32 79  1  0  0  0  0
 33 64  1  0  0  0  0
 33 69  1  0  0  0  0
 33 76  2  0  0  0  0
 34 37  1  0  0  0  0
 35 44  1  0  0  0  0
 36 63  1  0  0  0  0
 37 39  1  0  0  0  0
 38 40  1  0  0  0  0
 38 41  1  0  0  0  0
 39 43  1  0  0  0  0
 40 45  1  0  0  0  0
 41 64  1  0  0  0  0
 42 45  1  0  0  0  0
 42 64  1  0  0  0  0
 43 67  1  0  0  0  0
 44 63  1  0  0  0  0
 45 62  1  0  0  0  0
 46 57  1  0  0  0  0
 47 59  1  0  0  0  0
 48 59  1  0  0  0  0
 49 60  1  0  0  0  0
 50 60  1  0  0  0  0
 51 60  1  0  0  0  0
 52 70  1  0  0  0  0
 53 54  1  0  0  0  0
 53 55  1  0  0  0  0
 54 78  1  0  0  0  0
 55 79  1  0  0  0  0
 56 60  1  0  0  0  0
 56 68  1  0  0  0  0
 57 70  1  0  0  0  0
 58 59  1  0  0  0  0
 58 69  1  0  0  0  0
 61 62  1  0  0  0  0
M  CHG  1  70   1
M  ISO  4  33 100  54 101  69 100  78 101
M  END
> <Batch ID>
0007

> <Smiles>
CNC(C)C(=O)NC(C(=O)N1Cc2cc([101O:1][101CH2:1]CCOC(=O)C([100NH:0][100C:0](=O)N3CCCC(n4nc(-c5ccc(Oc6ccc(F)cc6F)cc5)c(C(N)=O)c4N)C3)C(C)C)ccc2CC1C(=O)NC1CCCc2ccccc21)C(C)(C)C

> <Shape>
0.244

> <Color>
0.070

> <Negative vol penalty>
0.000

$$$$

  -OEChem-04052315333D

 86 94  0     1  0  0  0  0  0999 V2000
  -17.5377  -24.6386   22.0998 C   0  0  0  0  0  0  0  0  0  0  0  0
  -18.8591  -24.2037   22.0852 C   0  0  0  0  0  0  0  0  0  0  0  0
  -27.7528  -17.4607   20.3419 C   0  0  0  0  0  0  0  0  0  0  0  0
  -26.2664  -18.2455   18.6064 C   0  0  0  0  0  0  0  0  0  0  0  0
  -17.2528  -25.9938   22.2615 C   0  0  0  0  0  0  0  0  0  0  0  0
  -19.8964  -25.1240   22.2313 C   0  0  0  0  0  0  0  0  0  0  0  0
  -23.4623  -23.5360   25.4575 C   0  0  0  0  0  0  0  0  0  0  0  0
  -32.5179  -22.5159   21.2199 C   0  0  0  0  0  0  0  0  0  0  0  0
  -32.5241  -23.6499   20.4078 C   0  0  0  0  0  0  0  0  0  0  0  0
  -26.8041  -16.5131   20.7260 C   0  0  0  0  0  0  0  0  0  0  0  0
  -25.3176  -17.2979   18.9905 C   0  0  0  0  0  0  0  0  0  0  0  0
  -24.3745  -22.5937   24.9848 C   0  0  0  0  0  0  0  0  0  0  0  0
  -25.7277  -13.4911   19.6575 C   0  0  0  0  0  0  0  0  0  0  0  0
  -26.1718  -12.1919   19.9033 C   0  0  0  0  0  0  0  0  0  0  0  0
  -25.9947  -24.3464   24.6351 C   0  0  0  0  0  0  0  0  0  0  0  0
  -30.4639  -23.2639   22.2487 C   0  0  0  0  0  0  0  0  0  0  0  0
  -25.3637  -12.3454   22.1750 C   0  0  0  0  0  0  0  0  0  0  0  0
  -27.4839  -18.3270   19.2821 C   0  0  0  0  0  0  0  0  0  0  0  0
  -29.7742  -19.0631   18.4333 C   0  0  0  0  0  0  0  0  0  0  0  0
  -18.2869  -26.9299   22.4193 C   0  0  0  0  0  0  0  0  0  0  0  0
  -23.8062  -24.8944   25.5124 C   0  0  0  0  0  0  0  0  0  0  0  0
  -19.6251  -26.4932   22.3939 C   0  0  0  0  0  0  0  0  0  0  0  0
  -25.0859  -25.3037   25.1113 C   0  0  0  0  0  0  0  0  0  0  0  0
  -31.4877  -22.3228   22.1403 C   0  0  0  0  0  0  0  0  0  0  0  0
  -31.5003  -24.5910   20.5162 C   0  0  0  0  0  0  0  0  0  0  0  0
  -30.4701  -24.3980   21.4367 C   0  0  0  0  0  0  0  0  0  0  0  0
  -25.5865  -16.4317   20.0503 C   0  0  0  0  0  0  0  0  0  0  0  0
  -25.6400  -22.9991   24.5708 C   0  0  0  0  0  0  0  0  0  0  0  0
  -25.1016  -14.2175   20.6705 C   0  0  0  0  0  0  0  0  0  0  0  0
  -25.9898  -11.6190   21.1620 C   0  0  0  0  0  0  0  0  0  0  0  0
  -24.9196  -13.6446   21.9292 C   0  0  0  0  0  0  0  0  0  0  0  0
  -28.4634  -19.3064   18.8853 C   0  0  0  0  0  0  0  0  0  0  0  0
  -30.2898  -20.3120   18.1868 C   0  0  0  0  0  0  0  0  0  0  0  0
  -30.4640  -17.8193   18.2523 C   0  0  0  0  0  0  0  0  0  0  0  0
  -22.7032  -27.5445   24.1469 C   0  0  0  0  0  0  0  0  0  0  0  0
  -24.8364  -28.9840   26.1217 C   0  0  0  0  0  0  0  0  0  0  0  0
  -28.3231  -20.0237   22.9947 C   0  0  0  0  0  0  0  0  0  0  0  0
  -27.6994  -28.7435   27.9635 C   0  0  0  0  0  0  0  0  0  0  0  0
  -28.5358  -25.6976   20.5091 C   0  0  0  0  0  0  0  0  0  0  0  0
  -17.9313  -28.3903   22.5437 C   0  0  0  0  0  0  0  0  0  0  0  0
  -22.8201  -25.8949   26.0499 C   0  0  0  0  0  0  0  0  0  0  0  0
  -25.5113  -26.7473   25.1694 C   0  0  0  0  0  0  0  0  0  0  0  0
  -19.0761  -29.2535   23.0676 C   0  0  0  0  0  0  0  0  0  0  0  0
  -28.9972  -24.7480   16.9625 C   0  0  0  0  0  0  0  0  0  0  0  0
  -20.3738  -28.9185   22.3392 C   0  0  0  0  0  0  0  0  0  0  0  0
  -28.9387  -23.2223   17.0094 C   0  0  0  0  0  0  0  0  0  0  0  0
  -28.1764  -25.3809   18.0820 C   0  0  0  0  0  0  0  0  0  0  0  0
  -28.4960  -23.3683   19.4922 C   0  0  0  0  0  0  0  0  0  0  0  0
  -20.7771  -27.4578   22.5742 C   0  0  1  0  0  0  0  0  0  0  0  0
  -23.0974  -27.3194   25.5793 C   0  0  1  0  0  0  0  0  0  0  0  0
  -29.3478  -22.7063   18.3988 C   0  0  1  0  0  0  0  0  0  0  0  0
  -29.2124  -30.0973   29.4384 C   0  0  0  0  0  0  0  0  0  0  0  0
  -25.9844  -30.3767   23.6615 C   0  0  0  0  0  0  0  0  0  0  0  0
  -28.0173  -30.9349   25.0122 C   0  0  0  0  0  0  0  0  0  0  0  0
  -25.7890  -31.8304   25.6871 C   0  0  0  0  0  0  0  0  0  0  0  0
  -29.3745  -26.1955   22.7630 C   0  0  0  0  0  0  0  0  0  0  0  0
  -27.2295  -26.9607   30.2786 C   0  0  0  0  0  0  0  0  0  0  0  0
  -31.4813  -21.0958   23.0186 C   0  0  0  0  0  0  0  0  0  0  0  0
  -26.9838  -20.4406   22.4072 C   0  0  0  0  0  0  0  0  0  0  0  0
  -30.7387  -19.9184   22.3916 C   0  0  0  0  0  0  0  0  0  0  0  0
  -25.9995  -20.9276   23.4593 C   0  0  0  0  0  0  0  0  0  1  0  0
  -26.2910  -29.3752   26.0214 C   0  0  1  0  0  0  0  0  0  0  0  0
  -28.0179  -29.1574   29.3889 C   0  0  2  0  0  0  0  0  0  0  0  0
  -26.5121  -30.6023   25.0925 C   0  0  0  0  0  0  0  0  0  0  0  0
  -28.1648  -20.6077   18.9248 N   0  0  0  0  0  0  0  0  0  0  0  0
  -29.2954  -21.1932   18.4945 N   0  0  0  0  0  0  0  0  0  0  0  0
  -24.5095  -27.6885   25.6966 N   0  0  0  0  0  0  0  0  0  0  0  0
  -28.5350  -24.8365   19.3925 N   0  0  0  0  0  0  0  0  0  0  0  0
  -31.5265  -25.7320   19.6833 N   0  0  0  0  0  0  0  0  0  0  0  0
  -31.4924  -20.7314   17.7392 N   0  0  0  0  0  0  0  0  0  0  0  0
  -30.3746  -17.1805   17.0080 N   0  0  0  0  0  0  0  0  0  0  0  0
  -21.3682  -27.3015   23.8860 N   0  0  0  0  0  0  0  0  0  0  0  0
  -29.3587  -20.2282   22.0942 N   0  0  0  0  0  0  0  0  0  0  0  0
  -26.7566  -29.5703   27.3901 N   0  0  0  0  0  0  0  0  0  0  0  0
  -29.4002  -25.3567   21.5668 N   0  0  0  0  0  0  0  0  0  0  0  0
  -28.3278  -27.9593   30.2192 N   0  3  0  0  0  0  0  0  0  0  0  0
  -31.1263  -17.2818   19.1721 O   0  0  0  0  0  0  0  0  0  0  0  0
  -23.5475  -27.9128   23.3387 O   0  0  0  0  0  0  0  0  0  0  0  0
  -24.0214  -29.7955   26.5676 O   0  0  0  0  0  0  0  0  0  0  0  0
  -28.4487  -19.5658   24.1271 O   0  0  0  0  0  0  0  0  0  0  0  0
  -28.2362  -27.7850   27.4125 O   0  0  0  0  0  0  0  0  0  0  0  0
  -27.7781  -26.6727   20.5839 O   0  0  0  0  0  0  0  0  0  0  0  0
  -24.6606  -15.5069   20.4247 O   0  0  0  0  0  0  0  0  0  0  0  0
  -26.5321  -22.0815   24.1083 O   0  0  0  0  0  0  0  0  0  1  0  0
  -26.4149  -10.3708   21.3975 F   0  0  0  0  0  0  0  0  0  0  0  0
  -24.3177  -14.3372   22.9059 F   0  0  0  0  0  0  0  0  0  0  0  0
  1  2  1  0  0  0  0
  1  5  2  0  0  0  0
  2  6  2  0  0  0  0
  3 10  2  0  0  0  0
  3 18  1  0  0  0  0
  4 11  1  0  0  0  0
  4 18  2  0  0  0  0
  5 20  1  0  0  0  0
  6 22  1  0  0  0  0
  7 12  2  0  0  0  0
  7 21  1  0  0  0  0
  8  9  2  0  0  0  0
  8 24  1  0  0  0  0
  9 25  1  0  0  0  0
 10 27  1  0  0  0  0
 11 27  2  0  0  0  0
 12 28  1  0  0  0  0
 13 14  2  0  0  0  0
 13 29  1  0  0  0  0
 14 30  1  0  0  0  0
 15 23  1  0  0  0  0
 15 28  2  0  0  0  0
 16 24  2  0  0  0  0
 16 26  1  0  0  0  0
 17 30  2  0  0  0  0
 17 31  1  0  0  0  0
 18 32  1  0  0  0  0
 19 32  1  0  0  0  0
 19 33  2  0  0  0  0
 19 34  1  0  0  0  0
 20 22  2  0  0  0  0
 20 40  1  0  0  0  0
 21 23  2  0  0  0  0
 21 41  1  0  0  0  0
 22 49  1  0  0  0  0
 23 42  1  0  0  0  0
 24 58  1  0  0  0  0
 25 26  2  0  0  0  0
 25 69  1  0  0  0  0
 26 75  1  0  0  0  0
 27 83  1  0  0  0  0
 28 84  1  0  0  0  0
 29 31  2  0  0  0  0
 29 83  1  0  0  0  0
 30 85  1  0  0  0  0
 31 86  1  0  0  0  0
 32 65  2  0  0  0  0
 33 66  1  0  0  0  0
 33 70  1  0  0  0  0
 34 71  1  0  0  0  0
 34 77  2  0  0  0  0
 35 50  1  0  0  0  0
 35 72  1  0  0  0  0
 35 78  2  0  0  0  0
 36 62  1  0  0  0  0
 36 67  1  0  0  0  0
 36 79  2  0  0  0  0
 37 59  1  0  0  0  0
 37 73  1  0  0  0  0
 37 80  2  0  0  0  0
 38 63  1  0  0  0  0
 38 74  1  0  0  0  0
 38 81  2  0  0  0  0
 39 68  1  0  0  0  0
 39 75  1  0  0  0  0
 39 82  2  0  0  0  0
 40 43  1  0  0  0  0
 41 50  1  0  0  0  0
 42 67  1  0  0  0  0
 43 45  1  0  0  0  0
 44 46  1  0  0  0  0
 44 47  1  0  0  0  0
 45 49  1  0  0  0  0
 46 51  1  0  0  0  0
 47 68  1  0  0  0  0
 48 51  1  0  0  0  0
 48 68  1  0  0  0  0
 49 72  1  0  0  0  0
 50 67  1  0  0  0  0
 51 66  1  0  0  0  0
 52 63  1  0  0  0  0
 53 64  1  0  0  0  0
 54 64  1  0  0  0  0
 55 64  1  0  0  0  0
 56 75  1  0  0  0  0
 57 76  1  0  0  0  0
 58 60  1  0  0  0  0
 59 61  1  0  0  0  0
 60 73  1  0  0  0  0
 61 84  1  0  0  0  0
 62 64  1  0  0  0  0
 62 74  1  0  0  0  0
 63 76  1  0  0  0  0
 65 66  1  0  0  0  0
M  CHG  1  76   1
M  ISO  4  39 100  61 101  75 100  84 101
M  END
> <Batch ID>
0007

> <Smiles>
CNC(C)C(=O)NC(C(=O)N1Cc2cc([101O:1][101CH2:1]CC(=O)NCCc3ccc(N)c([100N:0](C)[100C:0](=O)N4CCCC(n5nc(-c6ccc(Oc7ccc(F)cc7F)cc6)c(C(N)=O)c5N)C4)c3)ccc2CC1C(=O)NC1CCCc2ccccc21)C(C)(C)C

> <Shape>
0.207

> <Color>
0.087

> <Negative vol penalty>
0.000

$$$$

  -OEChem-04052315333D

 84 92  0     1  0  0  0  0  0999 V2000
  -33.2410  -28.6115   31.9210 C   0  0  0  0  0  0  0  0  0  0  0  0
  -32.4499  -27.6232   31.3439 C   0  0  0  0  0  0  0  0  0  0  0  0
  -23.0753   -9.8686   19.9404 C   0  0  0  0  0  0  0  0  0  0  0  0
  -23.8348   -9.8748   22.2339 C   0  0  0  0  0  0  0  0  0  0  0  0
  -34.6289  -28.5487   31.8036 C   0  0  0  0  0  0  0  0  0  0  0  0
  -33.0463  -26.5722   30.6481 C   0  0  0  0  0  0  0  0  0  0  0  0
  -31.1139  -20.7669   30.3831 C   0  0  0  0  0  0  0  0  0  0  0  0
  -22.3309   -8.7157   20.1900 C   0  0  0  0  0  0  0  0  0  0  0  0
  -23.0905   -8.7219   22.4835 C   0  0  0  0  0  0  0  0  0  0  0  0
  -30.3749  -20.0669   29.4304 C   0  0  0  0  0  0  0  0  0  0  0  0
  -19.8619   -7.9251   23.0854 C   0  0  0  0  0  0  0  0  0  0  0  0
  -19.1048   -7.8851   24.2561 C   0  0  0  0  0  0  0  0  0  0  0  0
  -32.4222  -19.2386   28.4599 C   0  0  0  0  0  0  0  0  0  0  0  0
  -32.0662  -16.5894   22.5358 C   0  0  0  0  0  0  0  0  0  0  0  0
  -20.3454   -5.9471   24.9923 C   0  0  0  0  0  0  0  0  0  0  0  0
  -23.8273  -10.4482   20.9623 C   0  0  0  0  0  0  0  0  0  0  0  0
  -24.1700  -12.9732   20.8429 C   0  0  0  0  0  0  0  0  0  0  0  0
  -35.2430  -27.4912   31.1143 C   0  0  0  0  0  0  0  0  0  0  0  0
  -32.5152  -20.7167   30.3747 C   0  0  0  0  0  0  0  0  0  0  0  0
  -34.4436  -26.4960   30.5203 C   0  0  0  0  0  0  0  0  0  0  0  0
  -33.1765  -19.9369   29.4151 C   0  0  0  0  0  0  0  0  0  0  0  0
  -29.8999  -17.4646   23.1502 C   0  0  0  0  0  0  0  0  0  0  0  0
  -30.6787  -16.5889   22.3937 C   0  0  0  0  0  0  0  0  0  0  0  0
  -30.5086  -18.3408   24.0488 C   0  0  0  0  0  0  0  0  0  0  0  0
  -22.3385   -8.1423   21.4615 C   0  0  0  0  0  0  0  0  0  0  0  0
  -31.0291  -19.3049   28.4668 C   0  0  0  0  0  0  0  0  0  0  0  0
  -20.8608   -6.9760   22.8680 C   0  0  0  0  0  0  0  0  0  0  0  0
  -19.3465   -6.8962   25.2096 C   0  0  0  0  0  0  0  0  0  0  0  0
  -32.6751  -17.4655   23.4345 C   0  0  0  0  0  0  0  0  0  0  0  0
  -21.1025   -5.9870   23.8215 C   0  0  0  0  0  0  0  0  0  0  0  0
  -31.8962  -18.3412   24.1909 C   0  0  0  0  0  0  0  0  0  0  0  0
  -24.5968  -11.6388   20.7050 C   0  0  0  0  0  0  0  0  0  0  0  0
  -25.2625  -13.7224   20.4800 C   0  0  0  0  0  0  0  0  0  0  0  0
  -22.8997  -13.4894   21.2618 C   0  0  0  0  0  0  0  0  0  0  0  0
  -34.8343  -22.8584   30.0021 C   0  0  0  0  0  0  0  0  0  0  0  0
  -36.7447  -20.3404   30.7316 C   0  0  0  0  0  0  0  0  0  0  0  0
  -37.1656  -16.9551   30.8272 C   0  0  0  0  0  0  0  0  0  0  0  0
  -30.7290  -14.7660   20.6557 C   0  0  0  0  0  0  0  0  0  0  0  0
  -36.7446  -27.4915   30.9734 C   0  0  0  0  0  0  0  0  0  0  0  0
  -33.2970  -21.4562   31.4256 C   0  0  0  0  0  0  0  0  0  0  0  0
  -34.6786  -19.8336   29.3754 C   0  0  0  0  0  0  0  0  0  0  0  0
  -37.3159  -26.1438   30.5401 C   0  0  0  0  0  0  0  0  0  0  0  0
  -29.6141  -12.3531   18.2867 C   0  0  0  0  0  0  0  0  0  0  0  0
  -36.5132  -25.5733   29.3753 C   0  0  0  0  0  0  0  0  0  0  0  0
  -28.1743  -12.0620   18.7160 C   0  0  0  0  0  0  0  0  0  0  0  0
  -30.5291  -12.5813   19.4886 C   0  0  0  0  0  0  0  0  0  0  0  0
  -28.6222  -13.3061   20.8697 C   0  0  0  0  0  0  0  0  0  0  0  0
  -35.0545  -25.3267   29.7788 C   0  0  1  0  0  0  0  0  0  0  0  0
  -34.7352  -21.7459   31.0071 C   0  0  1  0  0  0  0  0  0  0  0  0
  -27.6495  -13.1335   19.6917 C   0  0  2  0  0  0  0  0  0  0  0  0
  -28.4103  -17.4658   22.9962 C   0  0  0  0  0  0  0  0  0  0  0  0
  -38.8476  -15.1956   31.4375 C   0  0  0  0  0  0  0  0  0  0  0  0
  -38.2855  -20.9260   28.1639 C   0  0  0  0  0  0  0  0  0  0  0  0
  -39.2974  -18.6423   28.3327 C   0  0  0  0  0  0  0  0  0  0  0  0
  -39.7163  -20.3258   30.1252 C   0  0  0  0  0  0  0  0  0  0  0  0
  -29.9492  -20.6709   24.6952 C   0  0  0  0  0  0  0  0  0  0  0  0
  -35.3842  -15.8030   32.8907 C   0  0  0  0  0  0  0  0  0  0  0  0
  -28.7272  -18.7503   25.7278 C   0  0  0  0  0  0  0  0  0  0  0  0
  -29.0532  -19.1755   27.1497 C   0  0  0  0  0  0  0  0  0  1  0  0
  -37.4332  -19.2559   29.9388 C   0  0  1  0  0  0  0  0  0  0  0  0
  -37.6744  -16.0338   31.9212 C   0  0  2  0  0  0  0  0  0  0  0  0
  -38.6549  -19.7908   29.1394 C   0  0  0  0  0  0  0  0  0  0  0  0
  -25.8617  -11.5426   20.2869 N   0  0  0  0  0  0  0  0  0  0  0  0
  -26.2391  -12.8261   20.1589 N   0  0  0  0  0  0  0  0  0  0  0  0
  -35.3988  -20.5800   30.4202 N   0  0  0  0  0  0  0  0  0  0  0  0
  -29.9704  -13.6121   20.3661 N   0  0  0  0  0  0  0  0  0  0  0  0
  -25.4734  -15.0538   20.4073 N   0  0  0  0  0  0  0  0  0  0  0  0
  -21.8874  -12.5805   21.5987 N   0  0  0  0  0  0  0  0  0  0  0  0
  -30.0819  -15.6911   21.4742 N   0  0  0  0  0  0  0  0  0  0  0  0
  -34.9451  -24.1160   30.5640 N   0  0  0  0  0  0  0  0  0  0  0  0
  -37.7582  -18.1986   30.8901 N   0  0  0  0  0  0  0  0  0  0  0  0
  -29.7417  -19.2276   24.8162 N   0  0  3  0  0  0  0  0  0  0  0  0
  -36.5914  -15.1128   32.3681 N   0  3  0  0  0  0  0  0  0  0  0  0
  -22.6638  -14.7201   21.3194 O   0  0  0  0  0  0  0  0  0  0  0  0
  -34.8134  -22.5953   28.8054 O   0  0  0  0  0  0  0  0  0  0  0  0
  -37.3758  -20.9477   31.6003 O   0  0  0  0  0  0  0  0  0  0  0  0
  -36.3291  -16.6054   29.9975 O   0  0  0  0  0  0  0  0  0  0  0  0
  -31.8582  -14.9344   20.1883 O   0  0  0  0  0  0  0  0  0  0  0  0
  -21.6121   -7.0174   21.7055 O   0  0  0  0  0  0  0  0  0  0  0  0
  -30.3103  -18.6211   27.5354 O   0  0  0  0  0  0  0  0  0  1  0  0
  -18.6204   -6.8589   26.3346 F   0  0  0  0  0  0  0  0  0  0  0  0
  -34.0075  -17.4649   23.5719 F   0  0  0  0  0  0  0  0  0  0  0  0
  -22.0615   -5.0732   23.6188 F   0  0  0  0  0  0  0  0  0  0  0  0
  -32.4930  -19.1781   25.0516 F   0  0  0  0  0  0  0  0  0  0  0  0
  1  2  1  0  0  0  0
  1  5  2  0  0  0  0
  2  6  2  0  0  0  0
  3  8  2  0  0  0  0
  3 16  1  0  0  0  0
  4  9  1  0  0  0  0
  4 16  2  0  0  0  0
  5 18  1  0  0  0  0
  6 20  1  0  0  0  0
  7 10  2  0  0  0  0
  7 19  1  0  0  0  0
  8 25  1  0  0  0  0
  9 25  2  0  0  0  0
 10 26  1  0  0  0  0
 11 12  2  0  0  0  0
 11 27  1  0  0  0  0
 12 28  1  0  0  0  0
 13 21  1  0  0  0  0
 13 26  2  0  0  0  0
 14 23  1  0  0  0  0
 14 29  2  0  0  0  0
 15 28  2  0  0  0  0
 15 30  1  0  0  0  0
 16 32  1  0  0  0  0
 17 32  1  0  0  0  0
 17 33  2  0  0  0  0
 17 34  1  0  0  0  0
 18 20  2  0  0  0  0
 18 39  1  0  0  0  0
 19 21  2  0  0  0  0
 19 40  1  0  0  0  0
 20 48  1  0  0  0  0
 21 41  1  0  0  0  0
 22 23  2  0  0  0  0
 22 24  1  0  0  0  0
 22 51  1  0  0  0  0
 23 69  1  0  0  0  0
 24 31  2  0  0  0  0
 24 72  1  0  0  0  0
 25 79  1  0  0  0  0
 26 80  1  0  0  0  0
 27 30  2  0  0  0  0
 27 79  1  0  0  0  0
 28 81  1  0  0  0  0
 29 31  1  0  0  0  0
 29 82  1  0  0  0  0
 30 83  1  0  0  0  0
 31 84  1  0  0  0  0
 32 63  2  0  0  0  0
 33 64  1  0  0  0  0
 33 67  1  0  0  0  0
 34 68  1  0  0  0  0
 34 74  2  0  0  0  0
 35 49  1  0  0  0  0
 35 70  1  0  0  0  0
 35 75  2  0  0  0  0
 36 60  1  0  0  0  0
 36 65  1  0  0  0  0
 36 76  2  0  0  0  0
 37 61  1  0  0  0  0
 37 71  1  0  0  0  0
 37 77  2  0  0  0  0
 38 66  1  0  0  0  0
 38 69  1  0  0  0  0
 38 78  2  0  0  0  0
 39 42  1  0  0  0  0
 40 49  1  0  0  0  0
 41 65  1  0  0  0  0
 42 44  1  0  0  0  0
 43 45  1  0  0  0  0
 43 46  1  0  0  0  0
 44 48  1  0  0  0  0
 45 50  1  0  0  0  0
 46 66  1  0  0  0  0
 47 50  1  0  0  0  0
 47 66  1  0  0  0  0
 48 70  1  0  0  0  0
 49 65  1  0  0  0  0
 50 64  1  0  0  0  0
 52 61  1  0  0  0  0
 53 62  1  0  0  0  0
 54 62  1  0  0  0  0
 55 62  1  0  0  0  0
 56 72  1  0  0  0  0
 57 73  1  0  0  0  0
 58 59  1  0  0  0  0
 58 72  1  0  0  0  0
 59 80  1  0  0  0  0
 60 62  1  0  0  0  0
 60 71  1  0  0  0  0
 61 73  1  0  0  0  0
 63 64  1  0  0  0  0
M  CHG  1  73   1
M  ISO  4  38 100  59 101  69 100  80 101
M  END
> <Batch ID>
0007

> <Smiles>
CNC(C)C(=O)NC(C(=O)N1Cc2cc([101O:1][101CH2:1]CN(C)c3c(C)c([100NH:0][100C:0](=O)N4CCCC(n5nc(-c6ccc(Oc7ccc(F)cc7F)cc6)c(C(N)=O)c5N)C4)cc(F)c3F)ccc2CC1C(=O)NC1CCCc2ccccc21)C(C)(C)C

> <Shape>
0.167

> <Color>
0.200

> <Negative vol penalty>
0.000

$$$$

  -OEChem-04052315333D

 86 94  0     1  0  0  0  0  0999 V2000
  -35.3246  -34.8808   21.9945 C   0  0  0  0  0  0  0  0  0  0  0  0
  -34.8405  -33.6237   21.6472 C   0  0  0  0  0  0  0  0  0  0  0  0
  -22.9654   -9.9711   20.0345 C   0  0  0  0  0  0  0  0  0  0  0  0
  -23.6841  -10.0749   22.3388 C   0  0  0  0  0  0  0  0  0  0  0  0
  -34.6129  -35.6775   22.8905 C   0  0  0  0  0  0  0  0  0  0  0  0
  -33.6449  -33.1620   22.1965 C   0  0  0  0  0  0  0  0  0  0  0  0
  -29.4576  -29.6296   19.4590 C   0  0  0  0  0  0  0  0  0  0  0  0
  -31.2898  -17.5386   20.4316 C   0  0  0  0  0  0  0  0  0  0  0  0
  -22.1789   -8.8577   20.3299 C   0  0  0  0  0  0  0  0  0  0  0  0
  -22.8975   -8.9615   22.6342 C   0  0  0  0  0  0  0  0  0  0  0  0
  -29.2090  -28.2586   19.5097 C   0  0  0  0  0  0  0  0  0  0  0  0
  -31.5167  -18.9127   20.3536 C   0  0  0  0  0  0  0  0  0  0  0  0
  -23.0867   -5.6069   22.2574 C   0  0  0  0  0  0  0  0  0  0  0  0
  -23.6545   -4.6016   23.0400 C   0  0  0  0  0  0  0  0  0  0  0  0
  -27.5259  -28.6323   21.1969 C   0  0  0  0  0  0  0  0  0  0  0  0
  -29.8659  -19.2832   22.0782 C   0  0  0  0  0  0  0  0  0  0  0  0
  -21.9297   -4.9207   24.7015 C   0  0  0  0  0  0  0  0  0  0  0  0
  -23.7181  -10.5797   21.0389 C   0  0  0  0  0  0  0  0  0  0  0  0
  -24.1465  -13.0825   20.7936 C   0  0  0  0  0  0  0  0  0  0  0  0
  -33.4030  -35.2293   23.4436 C   0  0  0  0  0  0  0  0  0  0  0  0
  -28.7486  -30.5126   20.2861 C   0  0  0  0  0  0  0  0  0  0  0  0
  -32.9170  -33.9528   23.1018 C   0  0  0  0  0  0  0  0  0  0  0  0
  -27.7655  -30.0143   21.1529 C   0  0  0  0  0  0  0  0  0  0  0  0
  -29.6389  -17.9091   22.1562 C   0  0  0  0  0  0  0  0  0  0  0  0
  -30.3509  -17.0368   21.3329 C   0  0  0  0  0  0  0  0  0  0  0  0
  -22.1449   -8.3529   21.6298 C   0  0  0  0  0  0  0  0  0  0  0  0
  -28.2451  -27.7595   20.3808 C   0  0  0  0  0  0  0  0  0  0  0  0
  -30.8048  -19.7850   21.1769 C   0  0  0  0  0  0  0  0  0  0  0  0
  -21.9404   -6.2692   22.6969 C   0  0  0  0  0  0  0  0  0  0  0  0
  -23.0760   -4.2584   24.2620 C   0  0  0  0  0  0  0  0  0  0  0  0
  -21.3619   -5.9261   23.9189 C   0  0  0  0  0  0  0  0  0  0  0  0
  -24.5312  -11.7296   20.7343 C   0  0  0  0  0  0  0  0  0  0  0  0
  -25.2695  -13.7757   20.4130 C   0  0  0  0  0  0  0  0  0  0  0  0
  -22.8868  -13.6609   21.1599 C   0  0  0  0  0  0  0  0  0  0  0  0
  -29.5395  -32.5397   22.6031 C   0  0  0  0  0  0  0  0  0  0  0  0
  -26.4040  -33.3526   22.4296 C   0  0  0  0  0  0  0  0  0  0  0  0
  -23.2233  -32.4621   21.5713 C   0  0  0  0  0  0  0  0  0  0  0  0
  -30.7638  -14.6504   20.6396 C   0  0  0  0  0  0  0  0  0  0  0  0
  -32.6931  -36.1066   24.4442 C   0  0  0  0  0  0  0  0  0  0  0  0
  -29.0097  -31.9913   20.2001 C   0  0  0  0  0  0  0  0  0  0  0  0
  -26.9626  -30.9222   22.0470 C   0  0  0  0  0  0  0  0  0  0  0  0
  -31.2437  -35.6973   24.6929 C   0  0  0  0  0  0  0  0  0  0  0  0
  -29.6114  -12.1520   18.3797 C   0  0  0  0  0  0  0  0  0  0  0  0
  -31.1432  -34.1897   24.9026 C   0  0  0  0  0  0  0  0  0  0  0  0
  -28.1553  -11.9307   18.7957 C   0  0  0  0  0  0  0  0  0  0  0  0
  -30.5121  -12.4143   19.5854 C   0  0  0  0  0  0  0  0  0  0  0  0
  -28.6062  -13.2727   20.8892 C   0  0  0  0  0  0  0  0  0  0  0  0
  -31.6113  -33.4270   23.6574 C   0  0  1  0  0  0  0  0  0  0  0  0
  -28.5896  -32.7463   21.4574 C   0  0  1  0  0  0  0  0  0  0  0  0
  -27.6492  -13.0690   19.7033 C   0  0  2  0  0  0  0  0  0  0  0  0
  -20.8659  -33.3221   21.5826 C   0  0  0  0  0  0  0  0  0  0  0  0
  -26.2339  -32.8397   25.4326 C   0  0  0  0  0  0  0  0  0  0  0  0
  -23.7408  -32.7801   25.2106 C   0  0  0  0  0  0  0  0  0  0  0  0
  -24.9918  -34.8636   24.6480 C   0  0  0  0  0  0  0  0  0  0  0  0
  -23.0182  -32.2757   18.6248 C   0  0  0  0  0  0  0  0  0  0  0  0
  -28.9220  -24.2371   20.8906 C   0  0  0  0  0  0  0  0  0  0  0  0
  -30.0787  -23.2810   20.6214 C   0  0  0  0  0  0  0  0  0  0  0  0
  -29.0923  -25.5505   20.1388 C   0  0  0  0  0  0  0  0  0  1  0  0
  -29.9311  -21.9850   21.4059 C   0  0  0  0  0  0  0  0  0  0  0  0
  -25.1369  -32.8733   23.0956 C   0  0  1  0  0  0  0  0  0  0  0  0
  -22.1517  -33.1912   20.7811 C   0  0  2  0  0  0  0  0  0  0  0  0
  -28.6271  -17.4002   23.1309 C   0  0  0  0  0  0  0  0  0  0  0  0
  -25.0422  -33.3216   24.5814 C   0  0  0  0  0  0  0  0  0  0  0  0
  -25.7993  -11.5705   20.3464 N   0  0  0  0  0  0  0  0  0  0  0  0
  -26.2214  -12.8325   20.1585 N   0  0  0  0  0  0  0  0  0  0  0  0
  -27.2590  -32.3596   21.9309 N   0  0  0  0  0  0  0  0  0  0  0  0
  -29.9725  -13.5078   20.3965 N   0  0  0  0  0  0  0  0  0  0  0  0
  -25.5258  -15.0938   20.2745 N   0  0  0  0  0  0  0  0  0  0  0  0
  -21.8391  -12.8043   21.5245 N   0  0  0  0  0  0  0  0  0  0  0  0
  -30.1333  -15.6381   21.3957 N   0  0  0  0  0  0  0  0  0  0  0  0
  -30.5837  -33.4440   22.6384 N   0  0  0  0  0  0  0  0  0  0  0  0
  -24.0353  -33.3384   22.2598 N   0  0  0  0  0  0  0  0  0  0  0  0
  -21.8472  -32.4562   19.5209 N   0  3  0  0  0  0  0  0  0  0  0  0
  -22.6910  -14.8999   21.1481 O   0  0  0  0  0  0  0  0  0  0  0  0
  -29.3391  -31.6281   23.3973 O   0  0  0  0  0  0  0  0  0  0  0  0
  -26.6236  -34.5638   22.3484 O   0  0  0  0  0  0  0  0  0  0  0  0
  -23.3272  -31.2375   21.5801 O   0  0  0  0  0  0  0  0  0  0  0  0
  -31.9061  -14.7572   20.1860 O   0  0  0  0  0  0  0  0  0  0  0  0
  -21.3774   -7.2666   21.9184 O   0  0  0  0  0  0  0  0  0  0  0  0
  -28.0010  -26.4218   20.4328 O   0  0  0  0  0  0  0  0  0  1  0  0
  -31.0283  -21.1352   21.1006 O   0  0  0  0  0  0  0  0  0  0  0  0
  -23.6205   -3.2919   25.0127 F   0  0  0  0  0  0  0  0  0  0  0  0
  -20.2600   -6.5580   24.3458 F   0  0  0  0  0  0  0  0  0  0  0  0
  -28.0242  -18.3873   23.8555 F   0  0  0  0  0  0  0  0  0  0  0  0
  -27.6054  -16.7112   22.5443 F   0  0  0  0  0  0  0  0  0  0  0  0
  -29.1678  -16.5478   24.0479 F   0  0  0  0  0  0  0  0  0  0  0  0
  1  2  1  0  0  0  0
  1  5  2  0  0  0  0
  2  6  2  0  0  0  0
  3  9  2  0  0  0  0
  3 18  1  0  0  0  0
  4 10  1  0  0  0  0
  4 18  2  0  0  0  0
  5 20  1  0  0  0  0
  6 22  1  0  0  0  0
  7 11  2  0  0  0  0
  7 21  1  0  0  0  0
  8 12  2  0  0  0  0
  8 25  1  0  0  0  0
  9 26  1  0  0  0  0
 10 26  2  0  0  0  0
 11 27  1  0  0  0  0
 12 28  1  0  0  0  0
 13 14  2  0  0  0  0
 13 29  1  0  0  0  0
 14 30  1  0  0  0  0
 15 23  1  0  0  0  0
 15 27  2  0  0  0  0
 16 24  1  0  0  0  0
 16 28  2  0  0  0  0
 17 30  2  0  0  0  0
 17 31  1  0  0  0  0
 18 32  1  0  0  0  0
 19 32  1  0  0  0  0
 19 33  2  0  0  0  0
 19 34  1  0  0  0  0
 20 22  2  0  0  0  0
 20 39  1  0  0  0  0
 21 23  2  0  0  0  0
 21 40  1  0  0  0  0
 22 48  1  0  0  0  0
 23 41  1  0  0  0  0
 24 25  2  0  0  0  0
 24 62  1  0  0  0  0
 25 70  1  0  0  0  0
 26 79  1  0  0  0  0
 27 80  1  0  0  0  0
 28 81  1  0  0  0  0
 29 31  2  0  0  0  0
 29 79  1  0  0  0  0
 30 82  1  0  0  0  0
 31 83  1  0  0  0  0
 32 64  2  0  0  0  0
 33 65  1  0  0  0  0
 33 68  1  0  0  0  0
 34 69  1  0  0  0  0
 34 74  2  0  0  0  0
 35 49  1  0  0  0  0
 35 71  1  0  0  0  0
 35 75  2  0  0  0  0
 36 60  1  0  0  0  0
 36 66  1  0  0  0  0
 36 76  2  0  0  0  0
 37 61  1  0  0  0  0
 37 72  1  0  0  0  0
 37 77  2  0  0  0  0
 38 67  1  0  0  0  0
 38 70  1  0  0  0  0
 38 78  2  0  0  0  0
 39 42  1  0  0  0  0
 40 49  1  0  0  0  0
 41 66  1  0  0  0  0
 42 44  1  0  0  0  0
 43 45  1  0  0  0  0
 43 46  1  0  0  0  0
 44 48  1  0  0  0  0
 45 50  1  0  0  0  0
 46 67  1  0  0  0  0
 47 50  1  0  0  0  0
 47 67  1  0  0  0  0
 48 71  1  0  0  0  0
 49 66  1  0  0  0  0
 50 65  1  0  0  0  0
 51 61  1  0  0  0  0
 52 63  1  0  0  0  0
 53 63  1  0  0  0  0
 54 63  1  0  0  0  0
 55 73  1  0  0  0  0
 56 57  1  0  0  0  0
 56 58  1  0  0  0  0
 57 59  1  0  0  0  0
 58 80  1  0  0  0  0
 59 81  1  0  0  0  0
 60 63  1  0  0  0  0
 60 72  1  0  0  0  0
 61 73  1  0  0  0  0
 62 84  1  0  0  0  0
 62 85  1  0  0  0  0
 62 86  1  0  0  0  0
 64 65  1  0  0  0  0
M  CHG  1  73   1
M  ISO  4  38 100  58 101  70 100  80 101
M  END
> <Batch ID>
0007

> <Smiles>
CNC(C)C(=O)NC(C(=O)N1Cc2cc([101O:1][101CH2:1]CCCOc3ccc([100NH:0][100C:0](=O)N4CCCC(n5nc(-c6ccc(Oc7ccc(F)cc7F)cc6)c(C(N)=O)c5N)C4)c(C(F)(F)F)c3)ccc2CC1C(=O)NC1CCCc2ccccc21)C(C)(C)C

> <Shape>
0.302

> <Color>
0.241

> <Negative vol penalty>
0.000

$$$$

  -OEChem-04052315333D

 81 89  0     1  0  0  0  0  0999 V2000
  -21.7153   -9.3254   26.6884 C   0  0  0  0  0  0  0  0  0  0  0  0
  -23.0030   -9.8158   26.8796 C   0  0  0  0  0  0  0  0  0  0  0  0
  -33.5877  -11.9563   24.8031 C   0  0  0  0  0  0  0  0  0  0  0  0
  -23.2859   -9.8010   19.9142 C   0  0  0  0  0  0  0  0  0  0  0  0
  -23.7369   -9.9424   22.2835 C   0  0  0  0  0  0  0  0  0  0  0  0
  -20.6140  -10.1257   26.9892 C   0  0  0  0  0  0  0  0  0  0  0  0
  -23.1902  -11.1074   27.3707 C   0  0  0  0  0  0  0  0  0  0  0  0
  -26.7325  -11.3176   30.9836 C   0  0  0  0  0  0  0  0  0  0  0  0
  -32.8131  -12.2716   23.6868 C   0  0  0  0  0  0  0  0  0  0  0  0
  -33.0133  -11.9601   26.0742 C   0  0  0  0  0  0  0  0  0  0  0  0
  -22.5591   -8.6289   20.1225 C   0  0  0  0  0  0  0  0  0  0  0  0
  -23.0100   -8.7702   22.4918 C   0  0  0  0  0  0  0  0  0  0  0  0
  -28.0643  -11.2889   30.5720 C   0  0  0  0  0  0  0  0  0  0  0  0
  -20.8870   -5.4025   19.9856 C   0  0  0  0  0  0  0  0  0  0  0  0
  -21.1114   -4.3354   19.1160 C   0  0  0  0  0  0  0  0  0  0  0  0
  -28.1885  -13.6844   30.8272 C   0  0  0  0  0  0  0  0  0  0  0  0
  -23.4344   -4.2845   19.7778 C   0  0  0  0  0  0  0  0  0  0  0  0
  -23.8748  -10.4578   20.9947 C   0  0  0  0  0  0  0  0  0  0  0  0
  -24.1352  -12.9876   20.7951 C   0  0  0  0  0  0  0  0  0  0  0  0
  -20.7877  -11.4243   27.4934 C   0  0  0  0  0  0  0  0  0  0  0  0
  -26.1146  -12.5333   31.3102 C   0  0  0  0  0  0  0  0  0  0  0  0
  -22.0902  -11.9263   27.6773 C   0  0  0  0  0  0  0  0  0  0  0  0
  -26.8496  -13.7256   31.2451 C   0  0  0  0  0  0  0  0  0  0  0  0
  -31.4641  -12.5908   23.8416 C   0  0  0  0  0  0  0  0  0  0  0  0
  -22.4211   -8.1135   21.4112 C   0  0  0  0  0  0  0  0  0  0  0  0
  -28.7917  -12.4727   30.4909 C   0  0  0  0  0  0  0  0  0  0  0  0
  -21.9363   -5.9108   20.7514 C   0  0  0  0  0  0  0  0  0  0  0  0
  -31.6643  -12.2793   26.2290 C   0  0  0  0  0  0  0  0  0  0  0  0
  -22.3851   -3.7763   19.0121 C   0  0  0  0  0  0  0  0  0  0  0  0
  -23.2100   -5.3517   20.6474 C   0  0  0  0  0  0  0  0  0  0  0  0
  -30.8897  -12.5947   25.1127 C   0  0  0  0  0  0  0  0  0  0  0  0
  -24.6262  -11.6683   20.7801 C   0  0  0  0  0  0  0  0  0  0  0  0
  -25.2369  -13.7670   20.5397 C   0  0  0  0  0  0  0  0  0  0  0  0
  -22.8023  -13.4658   21.0198 C   0  0  0  0  0  0  0  0  0  0  0  0
  -23.6484  -14.1761   30.1599 C   0  0  0  0  0  0  0  0  0  0  0  0
  -24.2229  -16.0810   32.7219 C   0  0  0  0  0  0  0  0  0  0  0  0
  -26.4455  -17.2087   35.0533 C   0  0  0  0  0  0  0  0  0  0  0  0
  -31.0970  -12.9508   21.3754 C   0  0  0  0  0  0  0  0  0  0  0  0
  -19.5670  -12.2691   27.7593 C   0  0  0  0  0  0  0  0  0  0  0  0
  -24.6851  -12.5442   31.7781 C   0  0  0  0  0  0  0  0  0  0  0  0
  -26.2385  -15.0545   31.6043 C   0  0  0  0  0  0  0  0  0  0  0  0
  -19.8497  -13.4911   28.6294 C   0  0  0  0  0  0  0  0  0  0  0  0
  -29.4636  -13.6546   18.2910 C   0  0  0  0  0  0  0  0  0  0  0  0
  -21.0987  -14.2173   28.1401 C   0  0  0  0  0  0  0  0  0  0  0  0
  -27.9922  -13.3510   18.5824 C   0  0  0  0  0  0  0  0  0  0  0  0
  -30.3965  -12.6793   19.0067 C   0  0  0  0  0  0  0  0  0  0  0  0
  -28.7032  -12.2526   20.7446 C   0  0  0  0  0  0  0  0  0  0  0  0
  -22.3340  -13.3132   28.2316 C   0  0  1  0  0  0  0  0  0  0  0  0
  -24.0060  -13.8977   31.5925 C   0  0  1  0  0  0  0  0  0  0  0  0
  -27.7272  -13.2486   20.0973 C   0  0  2  0  0  0  0  0  0  0  0  0
  -26.6338  -18.7909   36.9920 C   0  0  0  0  0  0  0  0  0  0  0  0
  -24.3493  -18.4353   30.7851 C   0  0  0  0  0  0  0  0  0  0  0  0
  -25.4544  -19.7717   32.5910 C   0  0  0  0  0  0  0  0  0  0  0  0
  -23.1384  -18.9062   32.9220 C   0  0  0  0  0  0  0  0  0  0  0  0
  -27.0961  -15.0149   36.9301 C   0  0  0  0  0  0  0  0  0  0  0  0
  -30.5830  -13.6011   29.4077 C   0  0  0  0  0  0  0  0  0  1  0  0
  -31.6631  -13.1769   28.4313 C   0  0  0  0  0  0  0  0  0  0  0  0
  -25.0844  -17.2933   32.9809 C   0  0  1  0  0  0  0  0  0  0  0  0
  -26.3336  -17.3643   36.5592 C   0  0  2  0  0  0  0  0  0  0  0  0
  -24.5179  -18.5770   32.3110 C   0  0  0  0  0  0  0  0  0  0  0  0
  -25.9378  -11.6091   20.5345 N   0  0  0  0  0  0  0  0  0  0  0  0
  -26.2802  -12.9009   20.3927 N   0  0  0  0  0  0  0  0  0  0  0  0
  -24.8360  -15.0139   32.0501 N   0  0  0  0  0  0  0  0  0  0  0  0
  -30.0897  -12.6381   20.4382 N   0  0  0  0  0  0  0  0  0  0  0  0
  -25.4054  -15.1018   20.4287 N   0  0  0  0  0  0  0  0  0  0  0  0
  -21.7894  -12.5294   21.2677 N   0  0  0  0  0  0  0  0  0  0  0  0
  -30.6799  -12.9099   22.7054 N   0  0  0  0  0  0  0  0  0  0  0  0
  -22.8045  -13.2371   29.5980 N   0  0  0  0  0  0  0  0  0  0  0  0
  -25.2291  -17.3893   34.4294 N   0  0  0  0  0  0  0  0  0  0  0  0
  -27.2918  -16.4531   37.2466 N   0  3  0  0  0  0  0  0  0  0  0  0
  -22.5149  -14.6863   20.9851 O   0  0  0  0  0  0  0  0  0  0  0  0
  -24.1032  -15.1700   29.6059 O   0  0  0  0  0  0  0  0  0  0  0  0
  -23.0513  -16.0780   33.1079 O   0  0  0  0  0  0  0  0  0  0  0  0
  -27.5065  -16.9562   34.4867 O   0  0  0  0  0  0  0  0  0  0  0  0
  -32.2379  -13.2605   21.0228 O   0  0  0  0  0  0  0  0  0  0  0  0
  -21.7118   -6.9698   21.6149 O   0  0  0  0  0  0  0  0  0  0  0  0
  -30.0915  -12.4476   30.0889 O   0  0  0  0  0  0  0  0  0  1  0  0
  -31.1026  -12.2817   27.4786 O   0  0  0  0  0  0  0  0  0  0  0  0
  -22.6000   -2.7505   18.1780 F   0  0  0  0  0  0  0  0  0  0  0  0
  -24.2218   -5.8349   21.3814 F   0  0  0  0  0  0  0  0  0  0  0  0
  -29.5928  -12.9004   25.2669 F   0  0  0  0  0  0  0  0  0  0  0  0
  1  2  1  0  0  0  0
  1  6  2  0  0  0  0
  2  7  2  0  0  0  0
  3  9  1  0  0  0  0
  3 10  2  0  0  0  0
  4 11  2  0  0  0  0
  4 18  1  0  0  0  0
  5 12  1  0  0  0  0
  5 18  2  0  0  0  0
  6 20  1  0  0  0  0
  7 22  1  0  0  0  0
  8 13  2  0  0  0  0
  8 21  1  0  0  0  0
  9 24  2  0  0  0  0
 10 28  1  0  0  0  0
 11 25  1  0  0  0  0
 12 25  2  0  0  0  0
 13 26  1  0  0  0  0
 14 15  2  0  0  0  0
 14 27  1  0  0  0  0
 15 29  1  0  0  0  0
 16 23  1  0  0  0  0
 16 26  2  0  0  0  0
 17 29  2  0  0  0  0
 17 30  1  0  0  0  0
 18 32  1  0  0  0  0
 19 32  1  0  0  0  0
 19 33  2  0  0  0  0
 19 34  1  0  0  0  0
 20 22  2  0  0  0  0
 20 39  1  0  0  0  0
 21 23  2  0  0  0  0
 21 40  1  0  0  0  0
 22 48  1  0  0  0  0
 23 41  1  0  0  0  0
 24 31  1  0  0  0  0
 24 67  1  0  0  0  0
 25 76  1  0  0  0  0
 26 77  1  0  0  0  0
 27 30  2  0  0  0  0
 27 76  1  0  0  0  0
 28 31  2  0  0  0  0
 28 78  1  0  0  0  0
 29 79  1  0  0  0  0
 30 80  1  0  0  0  0
 31 81  1  0  0  0  0
 32 61  2  0  0  0  0
 33 62  1  0  0  0  0
 33 65  1  0  0  0  0
 34 66  1  0  0  0  0
 34 71  2  0  0  0  0
 35 49  1  0  0  0  0
 35 68  1  0  0  0  0
 35 72  2  0  0  0  0
 36 58  1  0  0  0  0
 36 63  1  0  0  0  0
 36 73  2  0  0  0  0
 37 59  1  0  0  0  0
 37 69  1  0  0  0  0
 37 74  2  0  0  0  0
 38 64  1  0  0  0  0
 38 67  1  0  0  0  0
 38 75  2  0  0  0  0
 39 42  1  0  0  0  0
 40 49  1  0  0  0  0
 41 63  1  0  0  0  0
 42 44  1  0  0  0  0
 43 45  1  0  0  0  0
 43 46  1  0  0  0  0
 44 48  1  0  0  0  0
 45 50  1  0  0  0  0
 46 64  1  0  0  0  0
 47 50  1  0  0  0  0
 47 64  1  0  0  0  0
 48 68  1  0  0  0  0
 49 63  1  0  0  0  0
 50 62  1  0  0  0  0
 51 59  1  0  0  0  0
 52 60  1  0  0  0  0
 53 60  1  0  0  0  0
 54 60  1  0  0  0  0
 55 70  1  0  0  0  0
 56 57  1  0  0  0  0
 56 77  1  0  0  0  0
 57 78  1  0  0  0  0
 58 60  1  0  0  0  0
 58 69  1  0  0  0  0
 59 70  1  0  0  0  0
 61 62  1  0  0  0  0
M  CHG  1  70   1
M  ISO  4  38 100  56 101  67 100  77 101
M  END
> <Batch ID>
0007

> <Smiles>
CNC(C)C(=O)NC(C(=O)N1Cc2cc([101O:1][101CH2:1]COc3cccc([100NH:0][100C:0](=O)N4CCCC(n5nc(-c6ccc(Oc7ccc(F)cc7F)cc6)c(C(N)=O)c5N)C4)c3F)ccc2CC1C(=O)NC1CCCc2ccccc21)C(C)(C)C

> <Shape>
0.122

> <Color>
0.178

> <Negative vol penalty>
0.000

$$$$

  -OEChem-04052315333D

 83 91  0     1  0  0  0  0  0999 V2000
  -28.4019  -37.8886   19.9837 C   0  0  0  0  0  0  0  0  0  0  0  0
  -28.7995  -36.5696   19.7897 C   0  0  0  0  0  0  0  0  0  0  0  0
  -24.8678   -7.9171   21.3102 C   0  0  0  0  0  0  0  0  0  0  0  0
  -23.4911   -9.8961   21.1515 C   0  0  0  0  0  0  0  0  0  0  0  0
  -27.4691  -38.1959   20.9733 C   0  0  0  0  0  0  0  0  0  0  0  0
  -28.2652  -35.5572   20.5861 C   0  0  0  0  0  0  0  0  0  0  0  0
  -27.0191  -29.8071   18.8865 C   0  0  0  0  0  0  0  0  0  0  0  0
  -28.9871  -17.5804   20.4227 C   0  0  0  0  0  0  0  0  0  0  0  0
  -24.0451   -7.4261   22.3239 C   0  0  0  0  0  0  0  0  0  0  0  0
  -22.6683   -9.4050   22.1652 C   0  0  0  0  0  0  0  0  0  0  0  0
  -27.7194  -28.6112   19.0390 C   0  0  0  0  0  0  0  0  0  0  0  0
  -28.6573  -18.8755   20.8219 C   0  0  0  0  0  0  0  0  0  0  0  0
  -21.0377   -5.9007   22.5718 C   0  0  0  0  0  0  0  0  0  0  0  0
  -20.6516   -4.5621   22.5020 C   0  0  0  0  0  0  0  0  0  0  0  0
  -26.4281  -28.1141   21.0151 C   0  0  0  0  0  0  0  0  0  0  0  0
  -26.7099  -17.2234   19.6990 C   0  0  0  0  0  0  0  0  0  0  0  0
  -21.7106   -4.1456   24.6333 C   0  0  0  0  0  0  0  0  0  0  0  0
  -24.5908   -9.1521   20.7240 C   0  0  0  0  0  0  0  0  0  0  0  0
  -25.3003   -9.4517   18.2920 C   0  0  0  0  0  0  0  0  0  0  0  0
  -26.9159  -37.1856   21.7758 C   0  0  0  0  0  0  0  0  0  0  0  0
  -26.0238  -30.1712   19.8049 C   0  0  0  0  0  0  0  0  0  0  0  0
  -27.3252  -35.8515   21.5883 C   0  0  0  0  0  0  0  0  0  0  0  0
  -25.7149  -29.3139   20.8705 C   0  0  0  0  0  0  0  0  0  0  0  0
  -28.0134  -16.7543   19.8612 C   0  0  0  0  0  0  0  0  0  0  0  0
  -22.9454   -8.1700   22.7514 C   0  0  0  0  0  0  0  0  0  0  0  0
  -27.4259  -27.7659   20.1051 C   0  0  0  0  0  0  0  0  0  0  0  0
  -21.7604   -6.3617   23.6723 C   0  0  0  0  0  0  0  0  0  0  0  0
  -27.3537  -19.3446   20.6597 C   0  0  0  0  0  0  0  0  0  0  0  0
  -20.9881   -3.6846   23.5328 C   0  0  0  0  0  0  0  0  0  0  0  0
  -26.3800  -18.5186   20.0983 C   0  0  0  0  0  0  0  0  0  0  0  0
  -22.0968   -5.4842   24.7030 C   0  0  0  0  0  0  0  0  0  0  0  0
  -25.4406   -9.6602   19.6771 C   0  0  0  0  0  0  0  0  0  0  0  0
  -26.3504  -10.1385   17.7333 C   0  0  0  0  0  0  0  0  0  0  0  0
  -24.3093   -8.7042   17.5745 C   0  0  0  0  0  0  0  0  0  0  0  0
  -25.6192  -32.5832   21.8352 C   0  0  0  0  0  0  0  0  0  0  0  0
  -22.7072  -31.2205   22.2659 C   0  0  0  0  0  0  0  0  0  0  0  0
  -20.7671  -28.4178   22.1010 C   0  0  0  0  0  0  0  0  0  0  0  0
  -29.5939  -14.8180   19.5463 C   0  0  0  0  0  0  0  0  0  0  0  0
  -25.9463  -37.5724   22.8643 C   0  0  0  0  0  0  0  0  0  0  0  0
  -25.2591  -31.4519   19.6112 C   0  0  0  0  0  0  0  0  0  0  0  0
  -24.6414  -29.6491   21.8724 C   0  0  0  0  0  0  0  0  0  0  0  0
  -25.1476  -36.3940   23.4155 C   0  0  0  0  0  0  0  0  0  0  0  0
  -30.8140  -11.5837   18.6934 C   0  0  0  0  0  0  0  0  0  0  0  0
  -26.0682  -35.2112   23.6991 C   0  0  0  0  0  0  0  0  0  0  0  0
  -29.5608  -10.7056   18.7169 C   0  0  0  0  0  0  0  0  0  0  0  0
  -30.7811  -12.6484   19.7883 C   0  0  0  0  0  0  0  0  0  0  0  0
  -28.3183  -12.6029   19.8320 C   0  0  0  0  0  0  0  0  0  0  0  0
  -26.7498  -34.7224   22.4154 C   0  0  1  0  0  0  0  0  0  0  0  0
  -24.6203  -31.9667   20.8973 C   0  0  1  0  0  0  0  0  0  0  0  0
  -28.2760  -11.5569   18.7061 C   0  0  2  0  0  0  0  0  0  0  0  0
  -18.4361  -27.6061   22.5539 C   0  0  0  0  0  0  0  0  0  0  0  0
  -23.2992  -31.1982   25.2591 C   0  0  0  0  0  0  0  0  0  0  0  0
  -21.4267  -29.5612   25.5464 C   0  0  0  0  0  0  0  0  0  0  0  0
  -20.9585  -31.8468   24.6634 C   0  0  0  0  0  0  0  0  0  0  0  0
  -20.3486  -27.6798   19.2657 C   0  0  0  0  0  0  0  0  0  0  0  0
  -27.9552  -24.1906   20.3555 C   0  0  0  0  0  0  0  0  0  0  0  0
  -27.2267  -23.0036   20.9762 C   0  0  0  0  0  0  0  0  0  0  0  0
  -27.4143  -25.5159   20.8755 C   0  0  0  0  0  0  0  0  0  1  0  0
  -27.7375  -21.6799   20.4251 C   0  0  0  0  0  0  0  0  0  0  0  0
  -22.1455  -30.1685   23.1915 C   0  0  1  0  0  0  0  0  0  0  0  0
  -19.3866  -28.1813   21.5155 C   0  0  2  0  0  0  0  0  0  0  0  0
  -21.9791  -30.6880   24.6475 C   0  0  0  0  0  0  0  0  0  0  0  0
  -26.4967  -10.4198   19.9799 N   0  0  0  0  0  0  0  0  0  0  0  0
  -27.0296  -10.6946   18.7771 N   0  0  0  0  0  0  0  0  0  0  0  0
  -23.9261  -30.9154   21.6438 N   0  0  0  0  0  0  0  0  0  0  0  0
  -29.5374  -13.4181   19.7135 N   0  0  0  0  0  0  0  0  0  0  0  0
  -26.7499  -10.3148   16.4559 N   0  0  0  0  0  0  0  0  0  0  0  0
  -23.3006   -8.0600   18.3037 N   0  0  0  0  0  0  0  0  0  0  0  0
  -28.3484  -15.4386   19.4557 N   0  0  0  0  0  0  0  0  0  0  0  0
  -25.8307  -33.9324   21.6245 N   0  0  0  0  0  0  0  0  0  0  0  0
  -20.9062  -29.7042   22.5775 N   0  0  0  0  0  0  0  0  0  0  0  0
  -19.4652  -27.2291   20.3717 N   0  3  0  0  0  0  0  0  0  0  0  0
  -24.3275   -8.5967   16.3248 O   0  0  0  0  0  0  0  0  0  0  0  0
  -26.1572  -31.8867   22.6880 O   0  0  0  0  0  0  0  0  0  0  0  0
  -22.0838  -32.2712   22.0955 O   0  0  0  0  0  0  0  0  0  0  0  0
  -21.6339  -27.5472   22.1359 O   0  0  0  0  0  0  0  0  0  0  0  0
  -30.6682  -15.4185   19.4604 O   0  0  0  0  0  0  0  0  0  0  0  0
  -22.1423   -7.6910   23.7404 O   0  0  0  0  0  0  0  0  0  0  0  0
  -28.1084  -26.5984   20.2567 O   0  0  0  0  0  0  0  0  0  1  0  0
  -27.0315  -20.6179   21.0519 O   0  0  0  0  0  0  0  0  0  0  0  0
  -20.6159   -2.3996   23.4664 F   0  0  0  0  0  0  0  0  0  0  0  0
  -25.1263  -18.9641   19.9388 F   0  0  0  0  0  0  0  0  0  0  0  0
  -22.7899   -5.9215   25.7633 F   0  0  0  0  0  0  0  0  0  0  0  0
  1  2  1  0  0  0  0
  1  5  2  0  0  0  0
  2  6  2  0  0  0  0
  3  9  2  0  0  0  0
  3 18  1  0  0  0  0
  4 10  1  0  0  0  0
  4 18  2  0  0  0  0
  5 20  1  0  0  0  0
  6 22  1  0  0  0  0
  7 11  2  0  0  0  0
  7 21  1  0  0  0  0
  8 12  2  0  0  0  0
  8 24  1  0  0  0  0
  9 25  1  0  0  0  0
 10 25  2  0  0  0  0
 11 26  1  0  0  0  0
 12 28  1  0  0  0  0
 13 14  2  0  0  0  0
 13 27  1  0  0  0  0
 14 29  1  0  0  0  0
 15 23  1  0  0  0  0
 15 26  2  0  0  0  0
 16 24  2  0  0  0  0
 16 30  1  0  0  0  0
 17 29  2  0  0  0  0
 17 31  1  0  0  0  0
 18 32  1  0  0  0  0
 19 32  1  0  0  0  0
 19 33  2  0  0  0  0
 19 34  1  0  0  0  0
 20 22  2  0  0  0  0
 20 39  1  0  0  0  0
 21 23  2  0  0  0  0
 21 40  1  0  0  0  0
 22 48  1  0  0  0  0
 23 41  1  0  0  0  0
 24 69  1  0  0  0  0
 25 78  1  0  0  0  0
 26 79  1  0  0  0  0
 27 31  2  0  0  0  0
 27 78  1  0  0  0  0
 28 30  2  0  0  0  0
 28 80  1  0  0  0  0
 29 81  1  0  0  0  0
 30 82  1  0  0  0  0
 31 83  1  0  0  0  0
 32 63  2  0  0  0  0
 33 64  1  0  0  0  0
 33 67  1  0  0  0  0
 34 68  1  0  0  0  0
 34 73  2  0  0  0  0
 35 49  1  0  0  0  0
 35 70  1  0  0  0  0
 35 74  2  0  0  0  0
 36 60  1  0  0  0  0
 36 65  1  0  0  0  0
 36 75  2  0  0  0  0
 37 61  1  0  0  0  0
 37 71  1  0  0  0  0
 37 76  2  0  0  0  0
 38 66  1  0  0  0  0
 38 69  1  0  0  0  0
 38 77  2  0  0  0  0
 39 42  1  0  0  0  0
 40 49  1  0  0  0  0
 41 65  1  0  0  0  0
 42 44  1  0  0  0  0
 43 45  1  0  0  0  0
 43 46  1  0  0  0  0
 44 48  1  0  0  0  0
 45 50  1  0  0  0  0
 46 66  1  0  0  0  0
 47 50  1  0  0  0  0
 47 66  1  0  0  0  0
 48 70  1  0  0  0  0
 49 65  1  0  0  0  0
 50 64  1  0  0  0  0
 51 61  1  0  0  0  0
 52 62  1  0  0  0  0
 53 62  1  0  0  0  0
 54 62  1  0  0  0  0
 55 72  1  0  0  0  0
 56 57  1  0  0  0  0
 56 58  1  0  0  0  0
 57 59  1  0  0  0  0
 58 79  1  0  0  0  0
 59 80  1  0  0  0  0
 60 62  1  0  0  0  0
 60 71  1  0  0  0  0
 61 72  1  0  0  0  0
 63 64  1  0  0  0  0
M  CHG  1  72   1
M  ISO  4  38 100  58 101  69 100  79 101
M  END
> <Batch ID>
0007

> <Smiles>
CNC(C)C(=O)NC(C(=O)N1Cc2cc([101O:1][101CH2:1]CCCOc3ccc([100NH:0][100C:0](=O)N4CCCC(n5nc(-c6ccc(Oc7ccc(F)cc7F)cc6)c(C(N)=O)c5N)C4)cc3F)ccc2CC1C(=O)NC1CCCc2ccccc21)C(C)(C)C

> <Shape>
0.285

> <Color>
0.090

> <Negative vol penalty>
0.000

$$$$

  -OEChem-04052315333D

 82 90  0     1  0  0  0  0  0999 V2000
  -32.3647  -14.6853   20.6314 C   0  0  0  0  0  0  0  0  0  0  0  0
  -31.4985  -15.6914   21.0473 C   0  0  0  0  0  0  0  0  0  0  0  0
  -28.7236  -24.3626   21.8931 C   0  0  0  0  0  0  0  0  0  0  0  0
  -28.3911  -24.3961   19.5003 C   0  0  0  0  0  0  0  0  0  0  0  0
  -31.8735  -13.5983   19.9097 C   0  0  0  0  0  0  0  0  0  0  0  0
  -30.1406  -15.6115   20.7406 C   0  0  0  0  0  0  0  0  0  0  0  0
  -25.4658  -17.5302   24.2006 C   0  0  0  0  0  0  0  0  0  0  0  0
  -22.3985  -28.0385   23.7305 C   0  0  0  0  0  0  0  0  0  0  0  0
  -24.1190  -27.3104   25.2624 C   0  0  0  0  0  0  0  0  0  0  0  0
  -28.8235  -22.9718   21.8598 C   0  0  0  0  0  0  0  0  0  0  0  0
  -28.4910  -23.0052   19.4669 C   0  0  0  0  0  0  0  0  0  0  0  0
  -24.6972  -18.6931   24.1774 C   0  0  0  0  0  0  0  0  0  0  0  0
  -21.8566  -26.7532   23.7283 C   0  0  0  0  0  0  0  0  0  0  0  0
  -23.5771  -26.0251   25.2602 C   0  0  0  0  0  0  0  0  0  0  0  0
  -26.5167  -20.3484   20.1556 C   0  0  0  0  0  0  0  0  0  0  0  0
  -25.5791  -19.6493   19.3955 C   0  0  0  0  0  0  0  0  0  0  0  0
  -23.0226  -17.5530   22.8678 C   0  0  0  0  0  0  0  0  0  0  0  0
  -27.3586  -18.7369   18.0397 C   0  0  0  0  0  0  0  0  0  0  0  0
  -28.5073  -25.0748   20.7133 C   0  0  0  0  0  0  0  0  0  0  0  0
  -29.4506  -27.4429   20.6145 C   0  0  0  0  0  0  0  0  0  0  0  0
  -30.5073  -13.5002   19.6023 C   0  0  0  0  0  0  0  0  0  0  0  0
  -25.0230  -16.3711   23.5472 C   0  0  0  0  0  0  0  0  0  0  0  0
  -29.6308  -14.5228   20.0129 C   0  0  0  0  0  0  0  0  0  0  0  0
  -23.7863  -16.3759   22.8863 C   0  0  0  0  0  0  0  0  0  0  0  0
  -23.5298  -28.3171   24.4976 C   0  0  0  0  0  0  0  0  0  0  0  0
  -28.7072  -22.2930   20.6467 C   0  0  0  0  0  0  0  0  0  0  0  0
  -22.4458  -25.7465   24.4931 C   0  0  0  0  0  0  0  0  0  0  0  0
  -23.4767  -18.7055   23.5085 C   0  0  0  0  0  0  0  0  0  0  0  0
  -27.8753  -20.2418   19.8577 C   0  0  0  0  0  0  0  0  0  0  0  0
  -26.0000  -18.8435   18.3376 C   0  0  0  0  0  0  0  0  0  0  0  0
  -28.2962  -19.4360   18.7998 C   0  0  0  0  0  0  0  0  0  0  0  0
  -28.4034  -26.5115   20.7471 C   0  0  0  0  0  0  0  0  0  0  0  0
  -28.8363  -28.6671   20.7161 C   0  0  0  0  0  0  0  0  0  0  0  0
  -30.8533  -27.2213   20.4169 C   0  0  0  0  0  0  0  0  0  0  0  0
  -26.1168  -14.5888   21.1533 C   0  0  0  0  0  0  0  0  0  0  0  0
  -23.6326  -12.6671   21.9645 C   0  0  0  0  0  0  0  0  0  0  0  0
  -20.5643  -12.3603   23.4268 C   0  0  0  0  0  0  0  0  0  0  0  0
  -23.9839  -30.4891   23.3718 C   0  0  0  0  0  0  0  0  0  0  0  0
  -30.0306  -12.3299   18.7791 C   0  0  0  0  0  0  0  0  0  0  0  0
  -25.8514  -15.1170   23.6042 C   0  0  0  0  0  0  0  0  0  0  0  0
  -23.2565  -15.1520   22.1865 C   0  0  0  0  0  0  0  0  0  0  0  0
  -28.5173  -12.1335   18.8186 C   0  0  0  0  0  0  0  0  0  0  0  0
  -24.6677  -30.8527   19.9014 C   0  0  0  0  0  0  0  0  0  0  0  0
  -27.8007  -13.4635   18.6077 C   0  0  0  0  0  0  0  0  0  0  0  0
  -25.8084  -29.8537   19.7106 C   0  0  0  0  0  0  0  0  0  0  0  0
  -23.5991  -30.3253   20.8595 C   0  0  0  0  0  0  0  0  0  0  0  0
  -25.2722  -28.8863   21.9795 C   0  0  0  0  0  0  0  0  0  0  0  0
  -28.1472  -14.4595   19.7210 C   0  0  1  0  0  0  0  0  0  0  0  0
  -25.5431  -14.1452   22.4693 C   0  0  1  0  0  0  0  0  0  0  0  0
  -26.3896  -29.4137   21.0658 C   0  0  1  0  0  0  0  0  0  0  0  0
  -18.7685  -10.6732   23.9021 C   0  0  0  0  0  0  0  0  0  0  0  0
  -22.7447  -12.7942   19.0481 C   0  0  0  0  0  0  0  0  0  0  0  0
  -20.5089  -11.9240   19.7635 C   0  0  0  0  0  0  0  0  0  0  0  0
  -22.5523  -10.5333   20.0996 C   0  0  0  0  0  0  0  0  0  0  0  0
  -24.5618  -30.2062   25.7720 C   0  0  0  0  0  0  0  0  0  0  0  0
  -20.8301  -12.7293   26.3513 C   0  0  0  0  0  0  0  0  0  0  0  0
  -22.3037  -22.1602   23.9922 C   0  0  0  0  0  0  0  0  0  0  0  0
  -22.8174  -23.4063   24.6961 C   0  0  0  0  0  0  0  0  0  0  0  0
  -23.2470  -20.9800   24.1641 C   0  0  0  0  0  0  0  0  0  1  0  0
  -22.1824  -12.5654   21.5576 C   0  0  1  0  0  0  0  0  0  0  0  0
  -20.0214  -11.3564   24.4278 C   0  0  2  0  0  0  0  0  0  0  0  0
  -22.0077  -11.9780   20.1286 C   0  0  0  0  0  0  0  0  0  0  0  0
  -27.2140  -27.0941   20.9201 N   0  0  0  0  0  0  0  0  0  0  0  0
  -27.5101  -28.4048   20.8968 N   0  0  0  0  0  0  0  0  0  0  0  0
  -24.1060  -13.9521   22.2652 N   0  0  0  0  0  0  0  0  0  0  0  0
  -24.2053  -29.8800   22.1221 N   0  0  0  0  0  0  0  0  0  0  0  0
  -29.3065  -29.9316   20.6677 N   0  0  0  0  0  0  0  0  0  0  0  0
  -31.3161  -25.9009   20.3349 N   0  0  0  0  0  0  0  0  0  0  0  0
  -27.4068  -14.1492   20.9252 N   0  0  0  0  0  0  0  0  0  0  0  0
  -21.5175  -11.7974   22.6047 N   0  0  0  0  0  0  0  0  0  0  0  0
  -24.0910  -29.6476   24.5000 N   0  0  0  0  0  0  0  0  0  0  0  0
  -19.6835  -12.0351   25.7108 N   0  3  0  0  0  0  0  0  0  0  0  0
  -31.6743  -28.1659   20.3325 O   0  0  0  0  0  0  0  0  0  0  0  0
  -25.4388  -15.2776   20.4001 O   0  0  0  0  0  0  0  0  0  0  0  0
  -24.3182  -11.6431   22.0207 O   0  0  0  0  0  0  0  0  0  0  0  0
  -20.1786  -13.5262   23.3767 O   0  0  0  0  0  0  0  0  0  0  0  0
  -23.7358  -31.6965   23.4739 O   0  0  0  0  0  0  0  0  0  0  0  0
  -28.8050  -20.9359   20.6138 O   0  0  0  0  0  0  0  0  0  0  0  0
  -21.9134  -24.4836   24.4909 O   0  0  0  0  0  0  0  0  0  0  0  0
  -22.7248  -19.8394   23.4838 O   0  0  0  0  0  0  0  0  0  1  0  0
  -25.0997  -18.1710   17.6087 F   0  0  0  0  0  0  0  0  0  0  0  0
  -29.6001  -19.3287   18.5096 F   0  0  0  0  0  0  0  0  0  0  0  0
  1  2  1  0  0  0  0
  1  5  2  0  0  0  0
  2  6  2  0  0  0  0
  3 10  2  0  0  0  0
  3 19  1  0  0  0  0
  4 11  1  0  0  0  0
  4 19  2  0  0  0  0
  5 21  1  0  0  0  0
  6 23  1  0  0  0  0
  7 12  2  0  0  0  0
  7 22  1  0  0  0  0
  8 13  2  0  0  0  0
  8 25  1  0  0  0  0
  9 14  1  0  0  0  0
  9 25  2  0  0  0  0
 10 26  1  0  0  0  0
 11 26  2  0  0  0  0
 12 28  1  0  0  0  0
 13 27  1  0  0  0  0
 14 27  2  0  0  0  0
 15 16  2  0  0  0  0
 15 29  1  0  0  0  0
 16 30  1  0  0  0  0
 17 24  1  0  0  0  0
 17 28  2  0  0  0  0
 18 30  2  0  0  0  0
 18 31  1  0  0  0  0
 19 32  1  0  0  0  0
 20 32  1  0  0  0  0
 20 33  2  0  0  0  0
 20 34  1  0  0  0  0
 21 23  2  0  0  0  0
 21 39  1  0  0  0  0
 22 24  2  0  0  0  0
 22 40  1  0  0  0  0
 23 48  1  0  0  0  0
 24 41  1  0  0  0  0
 25 71  1  0  0  0  0
 26 78  1  0  0  0  0
 27 79  1  0  0  0  0
 28 80  1  0  0  0  0
 29 31  2  0  0  0  0
 29 78  1  0  0  0  0
 30 81  1  0  0  0  0
 31 82  1  0  0  0  0
 32 63  2  0  0  0  0
 33 64  1  0  0  0  0
 33 67  1  0  0  0  0
 34 68  1  0  0  0  0
 34 73  2  0  0  0  0
 35 49  1  0  0  0  0
 35 69  1  0  0  0  0
 35 74  2  0  0  0  0
 36 60  1  0  0  0  0
 36 65  1  0  0  0  0
 36 75  2  0  0  0  0
 37 61  1  0  0  0  0
 37 70  1  0  0  0  0
 37 76  2  0  0  0  0
 38 66  1  0  0  0  0
 38 71  1  0  0  0  0
 38 77  2  0  0  0  0
 39 42  1  0  0  0  0
 40 49  1  0  0  0  0
 41 65  1  0  0  0  0
 42 44  1  0  0  0  0
 43 45  1  0  0  0  0
 43 46  1  0  0  0  0
 44 48  1  0  0  0  0
 45 50  1  0  0  0  0
 46 66  1  0  0  0  0
 47 50  1  0  0  0  0
 47 66  1  0  0  0  0
 48 69  1  0  0  0  0
 49 65  1  0  0  0  0
 50 64  1  0  0  0  0
 51 61  1  0  0  0  0
 52 62  1  0  0  0  0
 53 62  1  0  0  0  0
 54 62  1  0  0  0  0
 55 71  1  0  0  0  0
 56 72  1  0  0  0  0
 57 58  1  0  0  0  0
 57 59  1  0  0  0  0
 58 79  1  0  0  0  0
 59 80  1  0  0  0  0
 60 62  1  0  0  0  0
 60 70  1  0  0  0  0
 61 72  1  0  0  0  0
 63 64  1  0  0  0  0
M  CHG  1  72   1
M  ISO  4  38 100  59 101  71 100  80 101
M  END
> <Batch ID>
0007

> <Smiles>
CNC(C)C(=O)NC(C(=O)N1Cc2cc([101O:1][101CH2:1]CCOc3ccc([100N:0](C)[100C:0](=O)N4CCCC(n5nc(-c6ccc(Oc7ccc(F)cc7F)cc6)c(C(N)=O)c5N)C4)cc3)ccc2CC1C(=O)NC1CCCc2ccccc21)C(C)(C)C

> <Shape>
0.249

> <Color>
0.077

> <Negative vol penalty>
0.000

$$$$

  -OEChem-04052315333D

 91100  0     1  0  0  0  0  0999 V2000
  -21.7543  -29.5250   13.8279 C   0  0  0  0  0  0  0  0  0  0  0  0
  -22.8996  -29.1336   14.5137 C   0  0  0  0  0  0  0  0  0  0  0  0
  -22.7021  -13.5997   22.4424 C   0  0  0  0  0  0  0  0  0  0  0  0
  -23.8279  -11.7447   23.5049 C   0  0  0  0  0  0  0  0  0  0  0  0
  -21.2375  -30.8070   14.0109 C   0  0  0  0  0  0  0  0  0  0  0  0
  -23.5295  -30.0243   15.3822 C   0  0  0  0  0  0  0  0  0  0  0  0
  -29.9218  -19.4226   20.0341 C   0  0  0  0  0  0  0  0  0  0  0  0
  -24.8388  -27.8613   19.7700 C   0  0  0  0  0  0  0  0  0  0  0  0
  -29.4802  -18.1117   19.8557 C   0  0  0  0  0  0  0  0  0  0  0  0
  -21.8901  -13.7507   23.5664 C   0  0  0  0  0  0  0  0  0  0  0  0
  -23.0159  -11.8958   24.6289 C   0  0  0  0  0  0  0  0  0  0  0  0
  -25.9822  -27.0636   19.7704 C   0  0  0  0  0  0  0  0  0  0  0  0
  -19.1551  -12.2621   24.8811 C   0  0  0  0  0  0  0  0  0  0  0  0
  -17.7889  -12.4503   24.6723 C   0  0  0  0  0  0  0  0  0  0  0  0
  -27.2466  -28.8869   20.7172 C   0  0  0  0  0  0  0  0  0  0  0  0
  -31.6892  -17.2943   20.3936 C   0  0  0  0  0  0  0  0  0  0  0  0
  -17.9096  -14.5821   25.8027 C   0  0  0  0  0  0  0  0  0  0  0  0
  -23.6710  -12.5966   22.4116 C   0  0  0  0  0  0  0  0  0  0  0  0
  -24.0954  -12.1641   19.9336 C   0  0  0  0  0  0  0  0  0  0  0  0
  -21.8558  -31.7105   14.8895 C   0  0  0  0  0  0  0  0  0  0  0  0
  -24.8932  -29.1836   20.2338 C   0  0  0  0  0  0  0  0  0  0  0  0
  -23.0212  -31.3200   15.5762 C   0  0  0  0  0  0  0  0  0  0  0  0
  -31.2472  -19.6695   20.3922 C   0  0  0  0  0  0  0  0  0  0  0  0
  -26.1018  -29.6985   20.7239 C   0  0  0  0  0  0  0  0  0  0  0  0
  -32.1309  -18.6054   20.5720 C   0  0  0  0  0  0  0  0  0  0  0  0
  -30.3639  -17.0475   20.0354 C   0  0  0  0  0  0  0  0  0  0  0  0
  -22.0470  -12.8988   24.6597 C   0  0  0  0  0  0  0  0  0  0  0  0
  -27.1870  -27.5773   20.2413 C   0  0  0  0  0  0  0  0  0  0  0  0
  -19.8986  -13.2339   25.5509 C   0  0  0  0  0  0  0  0  0  0  0  0
  -17.1662  -13.6102   25.1330 C   0  0  0  0  0  0  0  0  0  0  0  0
  -19.2759  -14.3939   26.0117 C   0  0  0  0  0  0  0  0  0  0  0  0
  -24.5096  -12.4397   21.2505 C   0  0  0  0  0  0  0  0  0  0  0  0
  -25.2620  -12.1126   19.2104 C   0  0  0  0  0  0  0  0  0  0  0  0
  -22.7743  -11.9718   19.4108 C   0  0  0  0  0  0  0  0  0  0  0  0
  -24.3866  -32.0395   18.9334 C   0  0  0  0  0  0  0  0  0  0  0  0
  -30.6612  -25.1785   20.4288 C   0  0  0  0  0  0  0  0  0  0  0  0
  -24.8027  -33.0689   21.9813 C   0  0  0  0  0  0  0  0  0  0  0  0
  -26.1278  -32.5031   25.0750 C   0  0  0  0  0  0  0  0  0  0  0  0
  -30.6625  -14.5464   19.9956 C   0  0  0  0  0  0  0  0  0  0  0  0
  -21.2874  -33.1016   15.0188 C   0  0  0  0  0  0  0  0  0  0  0  0
  -23.6449  -30.0224   20.2516 C   0  0  0  0  0  0  0  0  0  0  0  0
  -26.2086  -31.1051   21.2516 C   0  0  0  0  0  0  0  0  0  0  0  0
  -21.7999  -33.8577   16.2418 C   0  0  0  0  0  0  0  0  0  0  0  0
  -29.9149  -11.0798   19.6773 C   0  0  0  0  0  0  0  0  0  0  0  0
  -23.3141  -33.7167   16.3608 C   0  0  0  0  0  0  0  0  0  0  0  0
  -28.4052  -11.0109   19.9187 C   0  0  0  0  0  0  0  0  0  0  0  0
  -30.9599  -21.8101   21.7281 C   0  0  0  0  0  0  0  0  0  0  0  0
  -31.5987  -21.9267   19.2825 C   0  0  0  0  0  0  0  0  0  0  0  0
  -30.5837  -12.1286   20.5641 C   0  0  0  0  0  0  0  0  0  0  0  0
  -31.4430  -23.2508   21.8924 C   0  0  0  0  0  0  0  0  0  0  0  0
  -32.0670  -23.3633   19.5068 C   0  0  0  0  0  0  0  0  0  0  0  0
  -28.4814  -13.4013   20.7353 C   0  0  0  0  0  0  0  0  0  0  0  0
  -31.7028  -21.0998   20.5792 C   0  0  0  0  0  0  0  0  0  0  0  0
  -23.7187  -32.2492   16.5458 C   0  0  1  0  0  0  0  0  0  0  0  0
  -23.9320  -31.5207   20.2683 C   0  0  1  0  0  0  0  0  0  0  0  0
  -27.7542  -12.4043   19.8183 C   0  0  2  0  0  0  0  0  0  0  0  0
  -26.3336  -33.5421   27.3499 C   0  0  0  0  0  0  0  0  0  0  0  0
  -26.9242  -34.9837   20.9123 C   0  0  0  0  0  0  0  0  0  0  0  0
  -27.7366  -35.2844   23.2612 C   0  0  0  0  0  0  0  0  0  0  0  0
  -25.4154  -35.9630   22.6497 C   0  0  0  0  0  0  0  0  0  0  0  0
  -24.6956  -30.2540   26.3592 C   0  0  0  0  0  0  0  0  0  0  0  0
  -29.9674  -25.7619   21.6338 C   0  0  0  0  0  0  0  0  0  0  0  0
  -29.2740  -27.0592   21.2573 C   0  0  0  0  0  0  0  0  0  1  0  0
  -25.9866  -33.5054   22.8101 C   0  0  1  0  0  0  0  0  0  0  0  0
  -25.5242  -32.6080   26.4639 C   0  0  2  0  0  0  0  0  0  0  0  0
  -33.5536  -18.8455   20.9574 C   0  0  0  0  0  0  0  0  0  0  0  0
  -26.5145  -34.9082   22.3966 C   0  0  0  0  0  0  0  0  0  0  0  0
  -25.8358  -12.5552   21.3604 N   0  0  0  0  0  0  0  0  0  0  0  0
  -26.2650  -12.3509   20.1034 N   0  0  0  0  0  0  0  0  0  0  0  0
  -24.9618  -31.8880   21.2424 N   0  0  0  0  0  0  0  0  0  0  0  0
  -31.3455  -23.9790   20.6218 N   0  0  0  0  0  0  0  0  0  0  0  0
  -29.9169  -13.4237   20.4134 N   0  0  0  0  0  0  0  0  0  0  0  0
  -25.5174  -11.8871   17.9041 N   0  0  0  0  0  0  0  0  0  0  0  0
  -22.2452  -10.6741   19.3928 N   0  0  0  0  0  0  0  0  0  0  0  0
  -29.9152  -15.7155   19.8562 N   0  0  0  0  0  0  0  0  0  0  0  0
  -23.4824  -31.8280   17.9101 N   0  0  0  0  0  0  0  0  0  0  0  0
  -25.5658  -33.4122   24.2038 N   0  0  0  0  0  0  0  0  0  0  0  0
  -25.4797  -31.2667   27.1119 N   0  3  0  0  0  0  0  0  0  0  0  0
  -22.0899  -12.9202   18.9574 O   0  0  0  0  0  0  0  0  0  0  0  0
  -25.4763  -32.5921   18.8392 O   0  0  0  0  0  0  0  0  0  0  0  0
  -30.5942  -25.7715   19.3490 O   0  0  0  0  0  0  0  0  0  0  0  0
  -23.7722  -33.7467   21.9948 O   0  0  0  0  0  0  0  0  0  0  0  0
  -27.0123  -31.6979   24.7921 O   0  0  0  0  0  0  0  0  0  0  0  0
  -31.8693  -14.4695   19.7513 O   0  0  0  0  0  0  0  0  0  0  0  0
  -21.2551  -13.0460   25.7568 O   0  0  0  0  0  0  0  0  0  0  0  0
  -28.3047  -26.8010   20.2423 O   0  0  0  0  0  0  0  0  0  1  0  0
  -15.8545  -13.7915   24.9310 F   0  0  0  0  0  0  0  0  0  0  0  0
  -19.9851  -15.3316   26.6547 F   0  0  0  0  0  0  0  0  0  0  0  0
  -34.2825  -17.6994   21.0946 F   0  0  0  0  0  0  0  0  0  0  0  0
  -34.2426  -19.6016   20.0535 F   0  0  0  0  0  0  0  0  0  0  0  0
  -33.6695  -19.4998   22.1488 F   0  0  0  0  0  0  0  0  0  0  0  0
  1  2  1  0  0  0  0
  1  5  2  0  0  0  0
  2  6  2  0  0  0  0
  3 10  2  0  0  0  0
  3 18  1  0  0  0  0
  4 11  1  0  0  0  0
  4 18  2  0  0  0  0
  5 20  1  0  0  0  0
  6 22  1  0  0  0  0
  7  9  2  0  0  0  0
  7 23  1  0  0  0  0
  8 12  2  0  0  0  0
  8 21  1  0  0  0  0
  9 26  1  0  0  0  0
 10 27  1  0  0  0  0
 11 27  2  0  0  0  0
 12 28  1  0  0  0  0
 13 14  2  0  0  0  0
 13 29  1  0  0  0  0
 14 30  1  0  0  0  0
 15 24  1  0  0  0  0
 15 28  2  0  0  0  0
 16 25  1  0  0  0  0
 16 26  2  0  0  0  0
 17 30  2  0  0  0  0
 17 31  1  0  0  0  0
 18 32  1  0  0  0  0
 19 32  1  0  0  0  0
 19 33  2  0  0  0  0
 19 34  1  0  0  0  0
 20 22  2  0  0  0  0
 20 40  1  0  0  0  0
 21 24  2  0  0  0  0
 21 41  1  0  0  0  0
 22 54  1  0  0  0  0
 23 25  2  0  0  0  0
 23 53  1  0  0  0  0
 24 42  1  0  0  0  0
 25 66  1  0  0  0  0
 26 75  1  0  0  0  0
 27 85  1  0  0  0  0
 28 86  1  0  0  0  0
 29 31  2  0  0  0  0
 29 85  1  0  0  0  0
 30 87  1  0  0  0  0
 31 88  1  0  0  0  0
 32 68  2  0  0  0  0
 33 69  1  0  0  0  0
 33 73  1  0  0  0  0
 34 74  1  0  0  0  0
 34 79  2  0  0  0  0
 35 55  1  0  0  0  0
 35 76  1  0  0  0  0
 35 80  2  0  0  0  0
 36 62  1  0  0  0  0
 36 71  1  0  0  0  0
 36 81  2  0  0  0  0
 37 64  1  0  0  0  0
 37 70  1  0  0  0  0
 37 82  2  0  0  0  0
 38 65  1  0  0  0  0
 38 77  1  0  0  0  0
 38 83  2  0  0  0  0
 39 72  1  0  0  0  0
 39 75  1  0  0  0  0
 39 84  2  0  0  0  0
 40 43  1  0  0  0  0
 41 55  1  0  0  0  0
 42 70  1  0  0  0  0
 43 45  1  0  0  0  0
 44 46  1  0  0  0  0
 44 49  1  0  0  0  0
 45 54  1  0  0  0  0
 46 56  1  0  0  0  0
 47 50  1  0  0  0  0
 47 53  1  0  0  0  0
 48 51  1  0  0  0  0
 48 53  1  0  0  0  0
 49 72  1  0  0  0  0
 50 71  1  0  0  0  0
 51 71  1  0  0  0  0
 52 56  1  0  0  0  0
 52 72  1  0  0  0  0
 54 76  1  0  0  0  0
 55 70  1  0  0  0  0
 56 69  1  0  0  0  0
 57 65  1  0  0  0  0
 58 67  1  0  0  0  0
 59 67  1  0  0  0  0
 60 67  1  0  0  0  0
 61 78  1  0  0  0  0
 62 63  1  0  0  0  0
 63 86  1  0  0  0  0
 64 67  1  0  0  0  0
 64 77  1  0  0  0  0
 65 78  1  0  0  0  0
 66 89  1  0  0  0  0
 66 90  1  0  0  0  0
 66 91  1  0  0  0  0
 68 69  1  0  0  0  0
M  CHG  1  78   1
M  ISO  4  39 100  63 101  75 100  86 101
M  END
> <Batch ID>
0007

> <Smiles>
CNC(C)C(=O)NC(C(=O)N1Cc2cc([101O:1][101CH2:1]CC(=O)N3CCC(c4ccc([100NH:0][100C:0](=O)N5CCCC(n6nc(-c7ccc(Oc8ccc(F)cc8F)cc7)c(C(N)=O)c6N)C5)cc4C(F)(F)F)CC3)ccc2CC1C(=O)NC1CCCc2ccccc21)C(C)(C)C

> <Shape>
0.251

> <Color>
0.135

> <Negative vol penalty>
0.000

$$$$

  -OEChem-04052315333D

 90 97  0     1  0  0  0  0  0999 V2000
  -27.4146  -24.7286   16.5264 C   0  0  0  0  0  0  0  0  0  0  0  0
  -26.4244  -24.8116   17.5000 C   0  0  0  0  0  0  0  0  0  0  0  0
  -24.4225  -14.2644   19.5638 C   0  0  0  0  0  0  0  0  0  0  0  0
  -25.0785  -14.9323   21.7910 C   0  0  0  0  0  0  0  0  0  0  0  0
  -28.6112  -25.4254   16.6896 C   0  0  0  0  0  0  0  0  0  0  0  0
  -26.6306  -25.5905   18.6380 C   0  0  0  0  0  0  0  0  0  0  0  0
  -22.6049  -28.4337   19.8020 C   0  0  0  0  0  0  0  0  0  0  0  0
  -24.6557  -12.9298   19.8953 C   0  0  0  0  0  0  0  0  0  0  0  0
  -25.3117  -13.5976   22.1226 C   0  0  0  0  0  0  0  0  0  0  0  0
  -21.5395  -27.7985   20.4386 C   0  0  0  0  0  0  0  0  0  0  0  0
  -24.7327   -9.3143   20.2666 C   0  0  0  0  0  0  0  0  0  0  0  0
  -23.7772   -8.3740   19.8816 C   0  0  0  0  0  0  0  0  0  0  0  0
  -22.2992  -28.6625   22.5589 C   0  0  0  0  0  0  0  0  0  0  0  0
  -22.1120   -9.5268   21.1990 C   0  0  0  0  0  0  0  0  0  0  0  0
  -24.6340  -15.2657   20.5116 C   0  0  0  0  0  0  0  0  0  0  0  0
  -23.1885  -17.3580   20.3109 C   0  0  0  0  0  0  0  0  0  0  0  0
  -28.8284  -26.2209   17.8256 C   0  0  0  0  0  0  0  0  0  0  0  0
  -23.5333  -29.1802   20.5418 C   0  0  0  0  0  0  0  0  0  0  0  0
  -27.8318  -26.2975   18.8173 C   0  0  0  0  0  0  0  0  0  0  0  0
  -23.3741  -29.3082   21.9290 C   0  0  0  0  0  0  0  0  0  0  0  0
  -25.1002  -12.5963   21.1747 C   0  0  0  0  0  0  0  0  0  0  0  0
  -21.3881  -27.9105   21.8176 C   0  0  0  0  0  0  0  0  0  0  0  0
  -24.3780  -10.3609   21.1179 C   0  0  0  0  0  0  0  0  0  0  0  0
  -22.4668   -8.4802   20.3478 C   0  0  0  0  0  0  0  0  0  0  0  0
  -23.0676  -10.4671   21.5841 C   0  0  0  0  0  0  0  0  0  0  0  0
  -24.3939  -16.6446   20.1696 C   0  0  0  0  0  0  0  0  0  0  0  0
  -23.4791  -18.6182   19.8483 C   0  0  0  0  0  0  0  0  0  0  0  0
  -21.9196  -16.9207   20.8152 C   0  0  0  0  0  0  0  0  0  0  0  0
  -26.6594  -28.9741   21.0787 C   0  0  0  0  0  0  0  0  0  0  0  0
  -26.1928  -31.8088   22.5852 C   0  0  0  0  0  0  0  0  0  0  0  0
  -17.0005  -22.2027   23.2063 C   0  0  0  0  0  0  0  0  0  0  0  0
  -24.0396  -33.9217   24.1808 C   0  0  0  0  0  0  0  0  0  0  0  0
  -28.5769  -21.7297   19.4208 C   0  0  0  0  0  0  0  0  0  0  0  0
  -30.1568  -26.9180   17.9806 C   0  0  0  0  0  0  0  0  0  0  0  0
  -24.6618  -29.8813   19.8366 C   0  0  0  0  0  0  0  0  0  0  0  0
  -24.3318  -30.1148   22.7660 C   0  0  0  0  0  0  0  0  0  0  0  0
  -30.1470  -28.0197   19.0371 C   0  0  0  0  0  0  0  0  0  0  0  0
  -26.3400  -20.9113   16.7745 C   0  0  0  0  0  0  0  0  0  0  0  0
  -29.4717  -27.5290   20.3138 C   0  0  0  0  0  0  0  0  0  0  0  0
  -25.4788  -19.7893   17.3573 C   0  0  0  0  0  0  0  0  0  0  0  0
  -27.7863  -20.8208   17.2563 C   0  0  0  0  0  0  0  0  0  0  0  0
  -27.0874  -19.6406   19.3038 C   0  0  0  0  0  0  0  0  0  0  0  0
  -28.0083  -27.1517   20.0539 C   0  0  1  0  0  0  0  0  0  0  0  0
  -25.8397  -30.1912   20.7554 C   0  0  1  0  0  0  0  0  0  0  0  0
  -25.6078  -19.7224   18.8910 C   0  0  2  0  0  0  0  0  0  0  0  0
  -23.9578  -36.1486   25.3347 C   0  0  0  0  0  0  0  0  0  0  0  0
  -27.5418  -30.5867   25.0340 C   0  0  0  0  0  0  0  0  0  0  0  0
  -26.5961  -32.4580   26.4023 C   0  0  0  0  0  0  0  0  0  0  0  0
  -28.1967  -32.9521   24.5538 C   0  0  0  0  0  0  0  0  0  0  0  0
  -22.0886  -34.9915   22.2294 C   0  0  0  0  0  0  0  0  0  0  0  0
  -17.5226  -21.4700   24.4307 C   0  0  0  0  0  0  0  0  0  0  0  0
  -18.4139  -20.2734   24.0988 C   0  0  0  0  0  0  0  0  0  0  0  0
  -19.7032  -20.6165   23.3422 C   0  0  0  0  0  0  0  0  0  0  0  0
  -20.6140  -21.5905   24.0948 C   0  0  0  0  0  0  0  0  0  0  0  0
  -21.8664  -21.9185   23.2771 C   0  0  0  0  0  0  0  0  0  0  0  0
  -22.8107  -22.9006   23.9768 C   0  0  0  0  0  0  0  0  0  0  0  0
  -24.0975  -23.1719   23.1925 C   0  0  0  0  0  0  0  0  0  0  0  0
  -25.0100  -24.1414   23.9487 C   0  0  0  0  0  0  0  0  0  0  0  0
  -26.2828  -24.5051   23.1784 C   0  0  0  0  0  0  0  0  0  0  0  0
  -27.1502  -23.2931   22.8296 C   0  0  0  0  0  0  0  0  0  0  0  0
  -28.4170  -23.7178   22.0792 C   0  0  0  0  0  0  0  0  0  0  0  0
  -17.3727  -25.1125   21.6336 C   0  0  0  0  0  0  0  0  0  0  0  0
  -18.3432  -25.9397   22.4773 C   0  0  0  0  0  0  0  0  0  0  0  0
  -16.2754  -24.4645   22.4720 C   0  0  0  0  0  0  0  0  0  0  0  0
  -29.2767  -22.5279   21.6641 C   0  0  0  0  0  0  0  0  0  0  0  0
  -19.4521  -26.5429   21.6243 C   0  0  0  0  0  0  0  0  0  1  0  0
  -25.8408  -32.2262   23.9926 C   0  0  1  0  0  0  0  0  0  0  0  0
  -23.7816  -35.4088   24.0178 C   0  0  2  0  0  0  0  0  0  0  0  0
  -27.0267  -32.0389   24.9805 C   0  0  0  0  0  0  0  0  0  0  0  0
  -25.3769  -17.3896   19.6572 N   0  0  0  0  0  0  0  0  0  0  0  0
  -24.7897  -18.5842   19.4724 N   0  0  0  0  0  0  0  0  0  0  0  0
  -25.4227  -30.7764   22.0312 N   0  0  0  0  0  0  0  0  0  0  0  0
  -27.8389  -20.7623   18.7191 N   0  0  0  0  0  0  0  0  0  0  0  0
  -22.7389  -19.7410   19.7304 N   0  0  0  0  0  0  0  0  0  0  0  0
  -21.7944  -15.5940   21.2492 N   0  0  0  0  0  0  0  0  0  0  0  0
  -27.1871  -28.3404   19.9699 N   0  0  0  0  0  0  0  0  0  0  0  0
  -16.7995  -23.5513   23.4611 N   0  0  0  0  0  0  0  0  0  0  0  0
  -25.3502  -33.5971   23.9011 N   0  0  0  0  0  0  0  0  0  0  0  0
  -28.5692  -21.6051   20.8047 N   0  0  0  0  0  0  0  0  0  0  0  0
  -22.3933  -35.6431   23.5292 N   0  3  0  0  0  0  0  0  0  0  0  0
  -20.9218  -17.6793   20.8639 O   0  0  0  0  0  0  0  0  0  0  0  0
  -26.8038  -28.6360   22.2476 O   0  0  0  0  0  0  0  0  0  0  0  0
  -27.1124  -32.3825   21.9963 O   0  0  0  0  0  0  0  0  0  0  0  0
  -16.7628  -21.6432   22.1392 O   0  0  0  0  0  0  0  0  0  0  0  0
  -23.1668  -33.1281   24.5256 O   0  0  0  0  0  0  0  0  0  0  0  0
  -29.1924  -22.6404   18.8562 O   0  0  0  0  0  0  0  0  0  0  0  0
  -25.3276  -11.2941   21.4986 O   0  0  0  0  0  0  0  0  0  0  0  0
  -20.3420  -27.2866   22.4461 O   0  0  0  0  0  0  0  0  0  1  0  0
  -21.5489   -7.5780   19.9767 F   0  0  0  0  0  0  0  0  0  0  0  0
  -22.7206  -11.4709   22.4012 F   0  0  0  0  0  0  0  0  0  0  0  0
  1  2  1  0  0  0  0
  1  5  2  0  0  0  0
  2  6  2  0  0  0  0
  3  8  2  0  0  0  0
  3 15  1  0  0  0  0
  4  9  1  0  0  0  0
  4 15  2  0  0  0  0
  5 17  1  0  0  0  0
  6 19  1  0  0  0  0
  7 10  2  0  0  0  0
  7 18  1  0  0  0  0
  8 21  1  0  0  0  0
  9 21  2  0  0  0  0
 10 22  1  0  0  0  0
 11 12  2  0  0  0  0
 11 23  1  0  0  0  0
 12 24  1  0  0  0  0
 13 20  1  0  0  0  0
 13 22  2  0  0  0  0
 14 24  2  0  0  0  0
 14 25  1  0  0  0  0
 15 26  1  0  0  0  0
 16 26  1  0  0  0  0
 16 27  2  0  0  0  0
 16 28  1  0  0  0  0
 17 19  2  0  0  0  0
 17 34  1  0  0  0  0
 18 20  2  0  0  0  0
 18 35  1  0  0  0  0
 19 43  1  0  0  0  0
 20 36  1  0  0  0  0
 21 87  1  0  0  0  0
 22 88  1  0  0  0  0
 23 25  2  0  0  0  0
 23 87  1  0  0  0  0
 24 89  1  0  0  0  0
 25 90  1  0  0  0  0
 26 70  2  0  0  0  0
 27 71  1  0  0  0  0
 27 74  1  0  0  0  0
 28 75  1  0  0  0  0
 28 81  2  0  0  0  0
 29 44  1  0  0  0  0
 29 76  1  0  0  0  0
 29 82  2  0  0  0  0
 30 67  1  0  0  0  0
 30 72  1  0  0  0  0
 30 83  2  0  0  0  0
 31 51  1  0  0  0  0
 31 77  1  0  0  0  0
 31 84  2  0  0  0  0
 32 68  1  0  0  0  0
 32 78  1  0  0  0  0
 32 85  2  0  0  0  0
 33 73  1  0  0  0  0
 33 79  1  0  0  0  0
 33 86  2  0  0  0  0
 34 37  1  0  0  0  0
 35 44  1  0  0  0  0
 36 72  1  0  0  0  0
 37 39  1  0  0  0  0
 38 40  1  0  0  0  0
 38 41  1  0  0  0  0
 39 43  1  0  0  0  0
 40 45  1  0  0  0  0
 41 73  1  0  0  0  0
 42 45  1  0  0  0  0
 42 73  1  0  0  0  0
 43 76  1  0  0  0  0
 44 72  1  0  0  0  0
 45 71  1  0  0  0  0
 46 68  1  0  0  0  0
 47 69  1  0  0  0  0
 48 69  1  0  0  0  0
 49 69  1  0  0  0  0
 50 80  1  0  0  0  0
 51 52  1  0  0  0  0
 52 53  1  0  0  0  0
 53 54  1  0  0  0  0
 54 55  1  0  0  0  0
 55 56  1  0  0  0  0
 56 57  1  0  0  0  0
 57 58  1  0  0  0  0
 58 59  1  0  0  0  0
 59 60  1  0  0  0  0
 60 61  1  0  0  0  0
 61 65  1  0  0  0  0
 62 63  1  0  0  0  0
 62 64  1  0  0  0  0
 63 66  1  0  0  0  0
 64 77  1  0  0  0  0
 65 79  1  0  0  0  0
 66 88  1  0  0  0  0
 67 69  1  0  0  0  0
 67 78  1  0  0  0  0
 68 80  1  0  0  0  0
 70 71  1  0  0  0  0
M  CHG  1  80   1
M  ISO  4  33 100  66 101  79 100  88 101
M  END
> <Batch ID>
0007

> <Smiles>
CNC(C)C(=O)NC(C(=O)N1Cc2cc([101O:1][101CH2:1]CCCNC(=O)CCCCCCCCCCCC[100NH:0][100C:0](=O)N3CCCC(n4nc(-c5ccc(Oc6ccc(F)cc6F)cc5)c(C(N)=O)c4N)C3)ccc2CC1C(=O)NC1CCCc2ccccc21)C(C)(C)C

> <Shape>
0.280

> <Color>
0.083

> <Negative vol penalty>
0.000

$$$$

  -OEChem-04052315333D

101108  0     1  0  0  0  0  0999 V2000
  -30.8748  -21.8472   16.2012 C   0  0  0  0  0  0  0  0  0  0  0  0
  -30.3464  -22.8923   16.9505 C   0  0  0  0  0  0  0  0  0  0  0  0
  -26.3287  -13.3400   19.0211 C   0  0  0  0  0  0  0  0  0  0  0  0
  -26.3562  -12.9765   21.4094 C   0  0  0  0  0  0  0  0  0  0  0  0
  -30.0207  -20.9729   15.5323 C   0  0  0  0  0  0  0  0  0  0  0  0
  -28.9637  -23.0564   17.0409 C   0  0  0  0  0  0  0  0  0  0  0  0
  -27.3195  -26.4882   20.1590 C   0  0  0  0  0  0  0  0  0  0  0  0
  -25.0818  -12.7201   18.9411 C   0  0  0  0  0  0  0  0  0  0  0  0
  -25.1092  -12.3566   21.3295 C   0  0  0  0  0  0  0  0  0  0  0  0
  -27.4448  -27.8544   19.9107 C   0  0  0  0  0  0  0  0  0  0  0  0
  -23.8812   -9.3372   20.4317 C   0  0  0  0  0  0  0  0  0  0  0  0
  -23.7036   -8.1456   21.1347 C   0  0  0  0  0  0  0  0  0  0  0  0
  -25.1113  -27.9527   19.3071 C   0  0  0  0  0  0  0  0  0  0  0  0
  -21.9198   -9.1625   22.4079 C   0  0  0  0  0  0  0  0  0  0  0  0
  -26.9660  -13.4682   20.2553 C   0  0  0  0  0  0  0  0  0  0  0  0
  -29.4433  -13.7116   19.6975 C   0  0  0  0  0  0  0  0  0  0  0  0
  -28.6273  -21.1345   15.6049 C   0  0  0  0  0  0  0  0  0  0  0  0
  -26.0897  -25.8408   19.9724 C   0  0  0  0  0  0  0  0  0  0  0  0
  -28.0847  -22.1701   16.3926 C   0  0  0  0  0  0  0  0  0  0  0  0
  -24.9724  -26.5787   19.5562 C   0  0  0  0  0  0  0  0  0  0  0  0
  -24.4720  -12.2284   20.0953 C   0  0  0  0  0  0  0  0  0  0  0  0
  -26.3414  -28.5863   19.4819 C   0  0  0  0  0  0  0  0  0  0  0  0
  -23.0781  -10.4415   20.7169 C   0  0  0  0  0  0  0  0  0  0  0  0
  -22.7229   -8.0582   22.1227 C   0  0  0  0  0  0  0  0  0  0  0  0
  -22.0974  -10.3542   21.7049 C   0  0  0  0  0  0  0  0  0  0  0  0
  -28.2543  -14.1080   20.3385 C   0  0  0  0  0  0  0  0  0  0  0  0
  -30.3741  -14.6396   20.0961 C   0  0  0  0  0  0  0  0  0  0  0  0
  -29.6848  -12.6037   18.8201 C   0  0  0  0  0  0  0  0  0  0  0  0
  -25.0492  -23.5018   18.0883 C   0  0  0  0  0  0  0  0  0  0  0  0
  -22.3414  -23.8179   19.8462 C   0  0  0  0  0  0  0  0  0  0  0  0
  -27.9986  -25.7817   24.4598 C   0  0  0  0  0  0  0  0  0  0  0  0
  -25.7101  -32.1437   19.8225 C   0  0  0  0  0  0  0  0  0  0  0  0
  -20.3831  -25.7967   21.8200 C   0  0  0  0  0  0  0  0  0  0  0  0
  -29.8309  -20.2445   21.8696 C   0  0  0  0  0  0  0  0  0  0  0  0
  -25.9741  -20.5065   24.7483 C   0  0  0  0  0  0  0  0  0  0  0  0
  -27.7491  -20.1546   14.8675 C   0  0  0  0  0  0  0  0  0  0  0  0
  -25.9644  -24.3718   20.2703 C   0  0  0  0  0  0  0  0  0  0  0  0
  -23.6249  -25.9349   19.3602 C   0  0  0  0  0  0  0  0  0  0  0  0
  -26.3283  -20.6689   14.6602 C   0  0  0  0  0  0  0  0  0  0  0  0
  -31.4169  -17.5755   23.7293 C   0  0  0  0  0  0  0  0  0  0  0  0
  -25.7675  -21.1910   15.9745 C   0  0  0  0  0  0  0  0  0  0  0  0
  -30.8897  -16.3399   22.9976 C   0  0  0  0  0  0  0  0  0  0  0  0
  -30.3481  -18.6604   23.8231 C   0  0  0  0  0  0  0  0  0  0  0  0
  -29.2435  -17.8384   21.7791 C   0  0  0  0  0  0  0  0  0  0  0  0
  -26.5847  -22.3865   16.4805 C   0  0  1  0  0  0  0  0  0  0  0  0
  -24.7894  -23.7147   19.5528 C   0  0  1  0  0  0  0  0  0  0  0  0
  -30.2842  -16.7135   21.6316 C   0  0  2  0  0  0  0  0  0  0  0  0
  -18.4846  -26.4189   23.3386 C   0  0  0  0  0  0  0  0  0  0  0  0
  -20.8225  -24.1369   17.2192 C   0  0  0  0  0  0  0  0  0  0  0  0
  -18.8950  -25.0564   18.5259 C   0  0  0  0  0  0  0  0  0  0  0  0
  -19.6687  -22.7188   18.9257 C   0  0  0  0  0  0  0  0  0  0  0  0
  -21.8936  -24.9848   24.2321 C   0  0  0  0  0  0  0  0  0  0  0  0
  -26.7305  -26.5752   24.7558 C   0  0  0  0  0  0  0  0  0  0  0  0
  -25.3167  -30.7320   19.4430 C   0  0  0  0  0  0  0  0  0  1  0  0
  -26.9683  -28.0749   24.9582 C   0  0  0  0  0  0  0  0  0  0  0  0
  -25.7158  -28.8920   25.3030 C   0  0  0  0  0  0  0  0  0  0  0  0
  -25.9841  -30.3896   25.4704 C   0  0  0  0  0  0  0  0  0  0  0  0
  -24.6917  -31.1518   25.7729 C   0  0  0  0  0  0  0  0  0  0  0  0
  -24.9064  -32.6474   26.0277 C   0  0  0  0  0  0  0  0  0  0  0  0
  -25.5904  -33.4294   24.9010 C   0  0  0  0  0  0  0  0  0  0  0  0
  -24.8425  -33.3698   23.5669 C   0  0  0  0  0  0  0  0  0  0  0  0
  -25.5934  -34.1429   22.4778 C   0  0  0  0  0  0  0  0  0  0  0  0
  -29.2487  -23.4635   22.4616 C   0  0  0  0  0  0  0  0  0  0  0  0
  -26.3355  -23.1799   25.8257 C   0  0  0  0  0  0  0  0  0  0  0  0
  -24.8832  -34.0917   21.1290 C   0  0  0  0  0  0  0  0  0  0  0  0
  -30.4768  -22.6287   22.1050 C   0  0  0  0  0  0  0  0  0  0  0  0
  -25.0073  -22.4486   26.0082 C   0  0  0  0  0  0  0  0  0  0  0  0
  -28.9919  -23.5769   23.9625 C   0  0  0  0  0  0  0  0  0  0  0  0
  -26.5676  -23.6914   24.4056 C   0  0  0  0  0  0  0  0  0  0  0  0
  -21.0861  -24.6493   19.7359 C   0  0  1  0  0  0  0  0  0  0  0  0
  -19.7085  -25.5351   23.1546 C   0  0  2  0  0  0  0  0  0  0  0  0
  -24.8234  -19.9931   22.5498 C   0  0  0  0  0  0  0  0  0  0  0  0
  -20.1438  -24.1524   18.6034 C   0  0  0  0  0  0  0  0  0  0  0  0
  -28.4126  -15.2025   21.0876 N   0  0  0  0  0  0  0  0  0  0  0  0
  -29.7120  -15.5016   20.9199 N   0  0  0  0  0  0  0  0  0  0  0  0
  -23.5548  -24.4949   19.6585 N   0  0  0  0  0  0  0  0  0  0  0  0
  -29.8263  -18.9829   22.4874 N   0  0  0  0  0  0  0  0  0  0  0  0
  -31.6863  -14.7940   19.8189 N   0  0  0  0  0  0  0  0  0  0  0  0
  -30.0847  -11.3827   19.3801 N   0  0  0  0  0  0  0  0  0  0  0  0
  -27.0655  -20.3532   25.6031 N   0  0  0  0  0  0  0  0  0  0  0  0
  -25.3101  -19.8298   21.1894 N   0  0  0  0  0  0  0  0  0  0  0  0
  -23.8563  -18.9505   22.8610 N   0  0  0  0  0  0  0  0  0  0  0  0
  -26.1556  -22.7181   17.8212 N   0  0  0  0  0  0  0  0  0  0  0  0
  -24.7546  -32.7501   20.6298 N   0  0  0  0  0  0  0  0  0  0  0  0
  -20.4784  -24.6487   21.0622 N   0  0  0  0  0  0  0  0  0  0  0  0
  -30.3946  -21.2762   22.6101 N   0  0  0  0  0  0  0  0  0  0  0  0
  -24.8795  -21.3113   25.1387 N   0  0  0  0  0  0  0  0  0  0  0  0
  -27.8331  -24.4063   24.2670 N   0  0  0  0  0  0  0  0  0  0  0  0
  -25.9431  -19.8734   23.4991 N   0  3  0  0  0  0  0  0  0  0  0  0
  -20.6544  -25.8032   24.2745 N   0  3  0  0  0  0  0  0  0  0  0  0
  -29.5657  -12.6983   17.5749 O   0  0  0  0  0  0  0  0  0  0  0  0
  -24.3004  -24.0096   17.2618 O   0  0  0  0  0  0  0  0  0  0  0  0
  -22.2490  -22.6136   20.0969 O   0  0  0  0  0  0  0  0  0  0  0  0
  -29.0912  -26.3495   24.3861 O   0  0  0  0  0  0  0  0  0  0  0  0
  -26.7557  -32.6660   19.4457 O   0  0  0  0  0  0  0  0  0  0  0  0
  -20.7820  -26.9090   21.4820 O   0  0  0  0  0  0  0  0  0  0  0  0
  -29.3712  -20.4365   20.7387 O   0  0  0  0  0  0  0  0  0  0  0  0
  -23.2551  -11.6236   20.0176 O   0  0  0  0  0  0  0  0  0  0  0  0
  -26.4624  -29.9336   19.2356 O   0  0  0  0  0  0  0  0  0  1  0  0
  -22.5514   -6.9134   22.7966 F   0  0  0  0  0  0  0  0  0  0  0  0
  -21.3221  -11.4113   21.9825 F   0  0  0  0  0  0  0  0  0  0  0  0
  1  2  1  0  0  0  0
  1  5  2  0  0  0  0
  2  6  2  0  0  0  0
  3  8  2  0  0  0  0
  3 15  1  0  0  0  0
  4  9  1  0  0  0  0
  4 15  2  0  0  0  0
  5 17  1  0  0  0  0
  6 19  1  0  0  0  0
  7 10  2  0  0  0  0
  7 18  1  0  0  0  0
  8 21  1  0  0  0  0
  9 21  2  0  0  0  0
 10 22  1  0  0  0  0
 11 12  2  0  0  0  0
 11 23  1  0  0  0  0
 12 24  1  0  0  0  0
 13 20  1  0  0  0  0
 13 22  2  0  0  0  0
 14 24  2  0  0  0  0
 14 25  1  0  0  0  0
 15 26  1  0  0  0  0
 16 26  1  0  0  0  0
 16 27  2  0  0  0  0
 16 28  1  0  0  0  0
 17 19  2  0  0  0  0
 17 36  1  0  0  0  0
 18 20  2  0  0  0  0
 18 37  1  0  0  0  0
 19 45  1  0  0  0  0
 20 38  1  0  0  0  0
 21 98  1  0  0  0  0
 22 99  1  0  0  0  0
 23 25  2  0  0  0  0
 23 98  1  0  0  0  0
 24100  1  0  0  0  0
 25101  1  0  0  0  0
 26 74  2  0  0  0  0
 27 75  1  0  0  0  0
 27 78  1  0  0  0  0
 28 79  1  0  0  0  0
 28 91  2  0  0  0  0
 29 46  1  0  0  0  0
 29 83  1  0  0  0  0
 29 92  2  0  0  0  0
 30 70  1  0  0  0  0
 30 76  1  0  0  0  0
 30 93  2  0  0  0  0
 31 53  1  0  0  0  0
 31 88  1  0  0  0  0
 31 94  2  0  0  0  0
 32 54  1  0  0  0  0
 32 84  1  0  0  0  0
 32 95  2  0  0  0  0
 33 71  1  0  0  0  0
 33 85  1  0  0  0  0
 33 96  2  0  0  0  0
 34 77  1  0  0  0  0
 34 86  1  0  0  0  0
 34 97  2  0  0  0  0
 35 80  1  0  0  0  0
 35 87  1  0  0  0  0
 35 89  2  0  0  0  0
 36 39  1  0  0  0  0
 37 46  1  0  0  0  0
 38 76  1  0  0  0  0
 39 41  1  0  0  0  0
 40 42  1  0  0  0  0
 40 43  1  0  0  0  0
 41 45  1  0  0  0  0
 42 47  1  0  0  0  0
 43 77  1  0  0  0  0
 44 47  1  0  0  0  0
 44 77  1  0  0  0  0
 45 83  1  0  0  0  0
 46 76  1  0  0  0  0
 47 75  1  0  0  0  0
 48 71  1  0  0  0  0
 49 73  1  0  0  0  0
 50 73  1  0  0  0  0
 51 73  1  0  0  0  0
 52 90  1  0  0  0  0
 53 55  1  0  0  0  0
 54 99  1  0  0  0  0
 55 56  1  0  0  0  0
 56 57  1  0  0  0  0
 57 58  1  0  0  0  0
 58 59  1  0  0  0  0
 59 60  1  0  0  0  0
 60 61  1  0  0  0  0
 61 62  1  0  0  0  0
 62 65  1  0  0  0  0
 63 66  1  0  0  0  0
 63 68  1  0  0  0  0
 64 67  1  0  0  0  0
 64 69  1  0  0  0  0
 65 84  1  0  0  0  0
 66 86  1  0  0  0  0
 67 87  1  0  0  0  0
 68 88  1  0  0  0  0
 69 88  1  0  0  0  0
 70 73  1  0  0  0  0
 70 85  1  0  0  0  0
 71 90  1  0  0  0  0
 72 81  1  0  0  0  0
 72 82  1  0  0  0  0
 72 89  1  0  0  0  0
 74 75  1  0  0  0  0
M  CHG  2  89   1  90   1
M  ISO  4  34 100  54 101  86 100  99 101
M  END
> <Batch ID>
0007

> <Smiles>
CNC(C)C(=O)NC(C(=O)N1Cc2cc([101O:1][101CH2:1]C(=O)NCCCCCCCCCCC(=O)N(CCCNC(N)=NC(N)N)CCC[100NH:0][100C:0](=O)N3CCCC(n4nc(-c5ccc(Oc6ccc(F)cc6F)cc5)c(C(N)=O)c4N)C3)ccc2CC1C(=O)NC1CCCc2ccccc21)C(C)(C)C

> <Shape>
0.241

> <Color>
0.053

> <Negative vol penalty>
0.000

$$$$

  -OEChem-04052315333D

 89 97  0     1  0  0  0  0  0999 V2000
  -16.9980  -34.2079   22.9428 C   0  0  0  0  0  0  0  0  0  0  0  0
  -18.3716  -34.0042   23.0275 C   0  0  0  0  0  0  0  0  0  0  0  0
  -22.4776  -10.3583   22.0789 C   0  0  0  0  0  0  0  0  0  0  0  0
  -23.1651   -9.6506   19.8736 C   0  0  0  0  0  0  0  0  0  0  0  0
  -29.2614  -23.8213   22.5595 C   0  0  0  0  0  0  0  0  0  0  0  0
  -16.1234  -33.1362   23.1174 C   0  0  0  0  0  0  0  0  0  0  0  0
  -18.8714  -32.7287   23.2880 C   0  0  0  0  0  0  0  0  0  0  0  0
  -24.0445  -30.2848   21.1035 C   0  0  0  0  0  0  0  0  0  0  0  0
  -22.0454   -9.0623   22.3601 C   0  0  0  0  0  0  0  0  0  0  0  0
  -22.7329   -8.3546   20.1547 C   0  0  0  0  0  0  0  0  0  0  0  0
  -29.2381  -22.5504   21.9852 C   0  0  0  0  0  0  0  0  0  0  0  0
  -25.3195  -30.1449   21.6498 C   0  0  0  0  0  0  0  0  0  0  0  0
  -23.8686   -5.6667   21.8595 C   0  0  0  0  0  0  0  0  0  0  0  0
  -24.7102   -4.6130   21.5033 C   0  0  0  0  0  0  0  0  0  0  0  0
  -29.5960  -24.8014   20.3767 C   0  0  0  0  0  0  0  0  0  0  0  0
  -24.7685  -27.9021   22.3464 C   0  0  0  0  0  0  0  0  0  0  0  0
  -22.9860   -3.7224   20.0641 C   0  0  0  0  0  0  0  0  0  0  0  0
  -23.0374  -10.6525   20.8356 C   0  0  0  0  0  0  0  0  0  0  0  0
  -29.4403  -24.9469   21.7552 C   0  0  0  0  0  0  0  0  0  0  0  0
  -24.7649  -12.5285   20.7712 C   0  0  0  0  0  0  0  0  0  0  0  0
  -16.6130  -31.8452   23.3706 C   0  0  0  0  0  0  0  0  0  0  0  0
  -23.1166  -29.2365   21.1843 C   0  0  0  0  0  0  0  0  0  0  0  0
  -18.0025  -31.6390   23.4675 C   0  0  0  0  0  0  0  0  0  0  0  0
  -23.4832  -28.0302   21.7981 C   0  0  0  0  0  0  0  0  0  0  0  0
  -29.5727  -23.5305   19.8024 C   0  0  0  0  0  0  0  0  0  0  0  0
  -22.1730   -8.0604   21.3980 C   0  0  0  0  0  0  0  0  0  0  0  0
  -25.6807  -28.9545   22.2740 C   0  0  0  0  0  0  0  0  0  0  0  0
  -29.3938  -22.4049   20.6067 C   0  0  0  0  0  0  0  0  0  0  0  0
  -22.5856   -5.7483   21.3180 C   0  0  0  0  0  0  0  0  0  0  0  0
  -24.2689   -3.6408   20.6055 C   0  0  0  0  0  0  0  0  0  0  0  0
  -22.1444   -4.7762   20.4203 C   0  0  0  0  0  0  0  0  0  0  0  0
  -23.4836  -11.9913   20.5444 C   0  0  0  0  0  0  0  0  0  0  0  0
  -24.6771  -13.8252   20.3269 C   0  0  0  0  0  0  0  0  0  0  0  0
  -29.4645  -26.2882   22.3619 C   0  0  0  0  0  0  0  0  0  0  0  0
  -29.2485  -27.4381   21.7040 C   0  0  0  0  0  0  0  0  0  0  0  0
  -25.9303  -11.9107   21.3333 C   0  0  0  0  0  0  0  0  0  0  0  0
  -20.2593  -28.8685   22.5274 C   0  0  0  0  0  0  0  0  0  0  0  0
  -20.3356  -26.0138   20.9887 C   0  0  0  0  0  0  0  0  0  0  0  0
  -22.2061  -23.5264   19.5884 C   0  0  0  0  0  0  0  0  0  0  0  0
  -23.0341  -17.5664   16.5257 C   0  0  0  0  0  0  0  0  0  0  0  0
  -15.6273  -30.7268   23.5993 C   0  0  0  0  0  0  0  0  0  0  0  0
  -21.7542  -29.3935   20.5665 C   0  0  0  0  0  0  0  0  0  0  0  0
  -22.5308  -26.8673   21.8932 C   0  0  0  0  0  0  0  0  0  0  0  0
  -16.2497  -29.3365   23.5002 C   0  0  0  0  0  0  0  0  0  0  0  0
  -20.6530  -16.5791   18.9817 C   0  0  0  0  0  0  0  0  0  0  0  0
  -17.5547  -29.2785   24.2879 C   0  0  0  0  0  0  0  0  0  0  0  0
  -21.2799  -15.3388   19.6211 C   0  0  0  0  0  0  0  0  0  0  0  0
  -20.9420  -16.6490   17.4839 C   0  0  0  0  0  0  0  0  0  0  0  0
  -22.9961  -15.3160   17.7629 C   0  0  0  0  0  0  0  0  0  0  0  0
  -18.5839  -30.2656   23.7240 C   0  0  1  0  0  0  0  0  0  0  0  0
  -20.7162  -28.4460   21.1598 C   0  0  1  0  0  0  0  0  0  0  0  0
  -22.7791  -15.2309   19.2834 C   0  0  2  0  0  0  0  0  0  0  0  0
  -21.9878  -21.3037   18.4441 C   0  0  0  0  0  0  0  0  0  0  0  0
  -19.7440  -24.6920   23.6744 C   0  0  0  0  0  0  0  0  0  0  0  0
  -20.4711  -22.5113   22.6824 C   0  0  0  0  0  0  0  0  0  0  0  0
  -18.5026  -23.7157   21.7353 C   0  0  0  0  0  0  0  0  0  0  0  0
  -23.4959  -24.5378   17.1242 C   0  0  0  0  0  0  0  0  0  0  0  0
  -29.2953  -28.7902   22.3617 C   0  0  0  0  0  0  0  0  0  0  0  0
  -26.6556  -18.7623   17.6590 C   0  0  0  0  0  0  0  0  0  0  0  0
  -27.1979  -19.8079   18.6354 C   0  0  0  0  0  0  0  0  0  0  0  0
  -25.7806  -19.4061   16.5833 C   0  0  0  0  0  0  0  0  0  0  0  0
  -28.0497  -19.1572   19.7292 C   0  0  0  0  0  0  0  0  0  0  0  0
  -25.2098  -18.3600   15.6335 C   0  0  0  0  0  0  0  0  0  0  0  0
  -27.9828  -29.5457   22.1895 C   0  0  0  0  0  0  0  0  0  1  0  0
  -28.5744  -20.1760   20.7338 C   0  0  0  0  0  0  0  0  0  0  0  0
  -20.8258  -24.6276   21.3309 C   0  0  1  0  0  0  0  0  0  0  0  0
  -22.0921  -22.8092   18.2553 C   0  0  2  0  0  0  0  0  0  0  0  0
  -19.9034  -23.9091   22.3558 C   0  0  0  0  0  0  0  0  0  0  0  0
  -22.6434  -12.8745   19.9985 N   0  0  0  0  0  0  0  0  0  0  0  0
  -23.3983  -13.9798   19.8787 N   0  0  0  0  0  0  0  0  0  0  0  0
  -21.2082  -27.0720   21.2795 N   0  0  0  0  0  0  0  0  0  0  0  0
  -22.3812  -16.5426   17.2317 N   0  0  0  0  0  0  0  0  0  0  0  0
  -29.7322  -23.3977   18.4060 N   0  0  0  0  0  0  0  0  0  0  0  0
  -25.5698  -14.8368   20.2798 N   0  0  0  0  0  0  0  0  0  0  0  0
  -25.8471  -10.5714   21.7379 N   0  0  0  0  0  0  0  0  0  0  0  0
  -19.1839  -29.7362   22.5181 N   0  0  0  0  0  0  0  0  0  0  0  0
  -20.9732  -23.9221   20.0625 N   0  0  0  0  0  0  0  0  0  0  0  0
  -24.3992  -17.3900   16.3357 N   0  0  0  0  0  0  0  0  0  0  0  0
  -23.2852  -23.0952   17.4095 N   0  3  0  0  0  0  0  0  0  0  0  0
  -27.0085  -12.5329   21.4876 O   0  0  0  0  0  0  0  0  0  0  0  0
  -20.8384  -28.4378   23.5178 O   0  0  0  0  0  0  0  0  0  0  0  0
  -19.2224  -26.1521   20.4755 O   0  0  0  0  0  0  0  0  0  0  0  0
  -23.2809  -23.7135   20.1543 O   0  0  0  0  0  0  0  0  0  0  0  0
  -22.4452  -18.5663   16.1010 O   0  0  0  0  0  0  0  0  0  0  0  0
  -21.7516   -6.7955   21.6721 O   0  0  0  0  0  0  0  0  0  0  0  0
  -26.9244  -28.8156   22.8086 O   0  0  0  0  0  0  0  0  0  1  0  0
  -29.3679  -21.1541   20.0654 O   0  0  0  0  0  0  0  0  0  0  0  0
  -25.0778   -2.6298   20.2624 F   0  0  0  0  0  0  0  0  0  0  0  0
  -20.9133   -4.8499   19.8960 F   0  0  0  0  0  0  0  0  0  0  0  0
  1  2  1  0  0  0  0
  1  6  2  0  0  0  0
  2  7  2  0  0  0  0
  3  9  2  0  0  0  0
  3 18  1  0  0  0  0
  4 10  1  0  0  0  0
  4 18  2  0  0  0  0
  5 11  2  0  0  0  0
  5 19  1  0  0  0  0
  6 21  1  0  0  0  0
  7 23  1  0  0  0  0
  8 12  2  0  0  0  0
  8 22  1  0  0  0  0
  9 26  1  0  0  0  0
 10 26  2  0  0  0  0
 11 28  1  0  0  0  0
 12 27  1  0  0  0  0
 13 14  2  0  0  0  0
 13 29  1  0  0  0  0
 14 30  1  0  0  0  0
 15 19  2  0  0  0  0
 15 25  1  0  0  0  0
 16 24  1  0  0  0  0
 16 27  2  0  0  0  0
 17 30  2  0  0  0  0
 17 31  1  0  0  0  0
 18 32  1  0  0  0  0
 19 34  1  0  0  0  0
 20 32  1  0  0  0  0
 20 33  2  0  0  0  0
 20 36  1  0  0  0  0
 21 23  2  0  0  0  0
 21 41  1  0  0  0  0
 22 24  2  0  0  0  0
 22 42  1  0  0  0  0
 23 50  1  0  0  0  0
 24 43  1  0  0  0  0
 25 28  2  0  0  0  0
 25 73  1  0  0  0  0
 26 85  1  0  0  0  0
 27 86  1  0  0  0  0
 28 87  1  0  0  0  0
 29 31  2  0  0  0  0
 29 85  1  0  0  0  0
 30 88  1  0  0  0  0
 31 89  1  0  0  0  0
 32 69  2  0  0  0  0
 33 70  1  0  0  0  0
 33 74  1  0  0  0  0
 34 35  2  0  0  0  0
 35 58  1  0  0  0  0
 36 75  1  0  0  0  0
 36 80  2  0  0  0  0
 37 51  1  0  0  0  0
 37 76  1  0  0  0  0
 37 81  2  0  0  0  0
 38 66  1  0  0  0  0
 38 71  1  0  0  0  0
 38 82  2  0  0  0  0
 39 67  1  0  0  0  0
 39 77  1  0  0  0  0
 39 83  2  0  0  0  0
 40 72  1  0  0  0  0
 40 78  1  0  0  0  0
 40 84  2  0  0  0  0
 41 44  1  0  0  0  0
 42 51  1  0  0  0  0
 43 71  1  0  0  0  0
 44 46  1  0  0  0  0
 45 47  1  0  0  0  0
 45 48  1  0  0  0  0
 46 50  1  0  0  0  0
 47 52  1  0  0  0  0
 48 72  1  0  0  0  0
 49 52  1  0  0  0  0
 49 72  1  0  0  0  0
 50 76  1  0  0  0  0
 51 71  1  0  0  0  0
 52 70  1  0  0  0  0
 53 67  1  0  0  0  0
 54 68  1  0  0  0  0
 55 68  1  0  0  0  0
 56 68  1  0  0  0  0
 57 79  1  0  0  0  0
 58 64  1  0  0  0  0
 59 60  1  0  0  0  0
 59 61  1  0  0  0  0
 60 62  1  0  0  0  0
 61 63  1  0  0  0  0
 62 65  1  0  0  0  0
 63 78  1  0  0  0  0
 64 86  1  0  0  0  0
 65 87  1  0  0  0  0
 66 68  1  0  0  0  0
 66 77  1  0  0  0  0
 67 79  1  0  0  0  0
 69 70  1  0  0  0  0
M  CHG  1  79   1
M  ISO  4  40 100  64 101  78 100  86 101
M  END
> <Batch ID>
0007

> <Smiles>
CNC(C)C(=O)NC(C(=O)N1Cc2cc([101O:1][101CH2:1]CC=Cc3ccc(OCCCCCC[100NH:0][100C:0](=O)N4CCCC(n5nc(-c6ccc(Oc7ccc(F)cc7F)cc6)c(C(N)=O)c5N)C4)c(N)c3)ccc2CC1C(=O)NC1CCCc2ccccc21)C(C)(C)C

> <Shape>
0.240

> <Color>
0.092

> <Negative vol penalty>
0.000

$$$$

  -OEChem-04052315333D

 82 90  0     1  0  0  0  0  0999 V2000
  -24.6122  -34.0114   28.0639 C   0  0  0  0  0  0  0  0  0  0  0  0
  -25.4919  -33.1965   27.3586 C   0  0  0  0  0  0  0  0  0  0  0  0
  -24.2567   -9.1059   21.4812 C   0  0  0  0  0  0  0  0  0  0  0  0
  -24.7683  -10.3935   23.4604 C   0  0  0  0  0  0  0  0  0  0  0  0
  -23.2367  -33.8149   27.9481 C   0  0  0  0  0  0  0  0  0  0  0  0
  -24.9966  -32.1839   26.5377 C   0  0  0  0  0  0  0  0  0  0  0  0
  -27.3828  -30.2386   21.2437 C   0  0  0  0  0  0  0  0  0  0  0  0
  -30.2159  -18.8786   20.0778 C   0  0  0  0  0  0  0  0  0  0  0  0
  -23.9218   -8.0121   22.2793 C   0  0  0  0  0  0  0  0  0  0  0  0
  -24.4333   -9.2997   24.2585 C   0  0  0  0  0  0  0  0  0  0  0  0
  -28.1972  -29.1529   20.9246 C   0  0  0  0  0  0  0  0  0  0  0  0
  -30.3965  -20.2134   20.4399 C   0  0  0  0  0  0  0  0  0  0  0  0
  -21.2944   -7.0103   24.1570 C   0  0  0  0  0  0  0  0  0  0  0  0
  -20.1253   -6.3155   23.8470 C   0  0  0  0  0  0  0  0  0  0  0  0
  -26.2451  -27.8791   20.3032 C   0  0  0  0  0  0  0  0  0  0  0  0
  -28.0127  -20.4509   20.7535 C   0  0  0  0  0  0  0  0  0  0  0  0
  -21.4143   -4.3017   23.4998 C   0  0  0  0  0  0  0  0  0  0  0  0
  -24.6800  -10.2966   22.0717 C   0  0  0  0  0  0  0  0  0  0  0  0
  -24.1683  -12.4504   20.8040 C   0  0  0  0  0  0  0  0  0  0  0  0
  -22.7241  -32.8057   27.1179 C   0  0  0  0  0  0  0  0  0  0  0  0
  -25.9903  -30.1489   21.1050 C   0  0  0  0  0  0  0  0  0  0  0  0
  -23.6130  -31.9729   26.4117 C   0  0  0  0  0  0  0  0  0  0  0  0
  -25.4155  -28.9660   20.6188 C   0  0  0  0  0  0  0  0  0  0  0  0
  -28.9336  -18.3299   20.0534 C   0  0  0  0  0  0  0  0  0  0  0  0
  -24.0101   -8.1090   23.6679 C   0  0  0  0  0  0  0  0  0  0  0  0
  -27.6281  -27.9719   20.4571 C   0  0  0  0  0  0  0  0  0  0  0  0
  -29.2950  -20.9996   20.7778 C   0  0  0  0  0  0  0  0  0  0  0  0
  -22.5234   -6.3509   24.1383 C   0  0  0  0  0  0  0  0  0  0  0  0
  -20.1853   -4.9612   23.5185 C   0  0  0  0  0  0  0  0  0  0  0  0
  -27.8321  -19.1160   20.3913 C   0  0  0  0  0  0  0  0  0  0  0  0
  -22.5834   -4.9966   23.8098 C   0  0  0  0  0  0  0  0  0  0  0  0
  -25.0267  -11.4267   21.2478 C   0  0  0  0  0  0  0  0  0  0  0  0
  -24.9747  -13.2760   20.0594 C   0  0  0  0  0  0  0  0  0  0  0  0
  -22.7672  -12.6382   21.0434 C   0  0  0  0  0  0  0  0  0  0  0  0
  -23.5206  -30.3437   23.0966 C   0  0  0  0  0  0  0  0  0  0  0  0
  -21.7957  -30.1726   20.3547 C   0  0  0  0  0  0  0  0  0  0  0  0
  -21.6387  -29.2028   17.0865 C   0  0  0  0  0  0  0  0  0  0  0  0
  -29.7411  -16.0584   19.3221 C   0  0  0  0  0  0  0  0  0  0  0  0
  -21.2309  -32.6009   27.0614 C   0  0  0  0  0  0  0  0  0  0  0  0
  -25.1278  -31.3381   21.4281 C   0  0  0  0  0  0  0  0  0  0  0  0
  -23.9275  -28.8254   20.4328 C   0  0  0  0  0  0  0  0  0  0  0  0
  -20.7774  -31.7478   25.8795 C   0  0  0  0  0  0  0  0  0  0  0  0
  -29.7068  -12.6236   18.3850 C   0  0  0  0  0  0  0  0  0  0  0  0
  -21.6503  -30.5032   25.7534 C   0  0  0  0  0  0  0  0  0  0  0  0
  -28.4155  -12.0902   19.0097 C   0  0  0  0  0  0  0  0  0  0  0  0
  -30.3849  -13.6587   19.2809 C   0  0  0  0  0  0  0  0  0  0  0  0
  -28.2331  -14.2360   20.3323 C   0  0  0  0  0  0  0  0  0  0  0  0
  -23.1136  -30.8799   25.4919 C   0  0  1  0  0  0  0  0  0  0  0  0
  -23.6820  -30.9615   21.7365 C   0  0  1  0  0  0  0  0  0  0  0  0
  -27.4802  -13.2383   19.4372 C   0  0  2  0  0  0  0  0  0  0  0  0
  -20.0851  -29.1624   15.1161 C   0  0  0  0  0  0  0  0  0  0  0  0
  -20.2767  -27.8395   21.6034 C   0  0  0  0  0  0  0  0  0  0  0  0
  -19.4426  -27.2500   19.3175 C   0  0  0  0  0  0  0  0  0  0  0  0
  -18.8500  -29.4513   20.3303 C   0  0  0  0  0  0  0  0  0  0  0  0
  -23.4541  -30.8939   15.4731 C   0  0  0  0  0  0  0  0  0  0  0  0
  -28.9589  -24.6088   20.6297 C   0  0  0  0  0  0  0  0  0  0  0  0
  -27.8587  -25.6093   20.3123 C   0  0  0  0  0  0  0  0  0  1  0  0
  -28.4097  -23.2060   20.8371 C   0  0  0  0  0  0  0  0  0  0  0  0
  -21.2136  -29.0531   19.5260 C   0  0  1  0  0  0  0  0  0  0  0  0
  -21.1770  -29.9352   15.8395 C   0  0  2  0  0  0  0  0  0  0  0  0
  -19.9736  -28.4001   20.1995 C   0  0  0  0  0  0  0  0  0  0  0  0
  -26.2823  -11.5853   20.8207 N   0  0  0  0  0  0  0  0  0  0  0  0
  -26.2187  -12.7183   20.1006 N   0  0  0  0  0  0  0  0  0  0  0  0
  -23.1260  -30.0139   20.7684 N   0  0  0  0  0  0  0  0  0  0  0  0
  -29.4398  -14.7176   19.6419 N   0  0  0  0  0  0  0  0  0  0  0  0
  -24.7340  -14.4175   19.3799 N   0  0  0  0  0  0  0  0  0  0  0  0
  -22.0916  -11.6955   21.8304 N   0  0  0  0  0  0  0  0  0  0  0  0
  -28.7535  -16.9736   19.6850 N   0  0  0  0  0  0  0  0  0  0  0  0
  -23.2983  -31.2591   24.1075 N   0  0  0  0  0  0  0  0  0  0  0  0
  -20.9493  -29.6168   18.2066 N   0  0  0  0  0  0  0  0  0  0  0  0
  -22.3176  -30.1280   14.8999 N   0  3  0  0  0  0  0  0  0  0  0  0
  -22.1296  -13.6042   20.5598 O   0  0  0  0  0  0  0  0  0  0  0  0
  -23.5911  -29.1265   23.2195 O   0  0  0  0  0  0  0  0  0  0  0  0
  -21.0982  -31.1551   20.6191 O   0  0  0  0  0  0  0  0  0  0  0  0
  -22.5198  -28.3462   17.0680 O   0  0  0  0  0  0  0  0  0  0  0  0
  -30.7851  -16.3685   18.7427 O   0  0  0  0  0  0  0  0  0  0  0  0
  -23.6831   -7.0420   24.4471 O   0  0  0  0  0  0  0  0  0  0  0  0
  -28.4206  -26.9104   20.1455 O   0  0  0  0  0  0  0  0  0  1  0  0
  -29.4727  -22.3109   21.1348 O   0  0  0  0  0  0  0  0  0  0  0  0
  -19.0624   -4.2937   23.2223 F   0  0  0  0  0  0  0  0  0  0  0  0
  -26.5952  -18.5992   20.3709 F   0  0  0  0  0  0  0  0  0  0  0  0
  -23.7611   -4.3575   23.7913 F   0  0  0  0  0  0  0  0  0  0  0  0
  1  2  1  0  0  0  0
  1  5  2  0  0  0  0
  2  6  2  0  0  0  0
  3  9  2  0  0  0  0
  3 18  1  0  0  0  0
  4 10  1  0  0  0  0
  4 18  2  0  0  0  0
  5 20  1  0  0  0  0
  6 22  1  0  0  0  0
  7 11  2  0  0  0  0
  7 21  1  0  0  0  0
  8 12  2  0  0  0  0
  8 24  1  0  0  0  0
  9 25  1  0  0  0  0
 10 25  2  0  0  0  0
 11 26  1  0  0  0  0
 12 27  1  0  0  0  0
 13 14  2  0  0  0  0
 13 28  1  0  0  0  0
 14 29  1  0  0  0  0
 15 23  1  0  0  0  0
 15 26  2  0  0  0  0
 16 27  2  0  0  0  0
 16 30  1  0  0  0  0
 17 29  2  0  0  0  0
 17 31  1  0  0  0  0
 18 32  1  0  0  0  0
 19 32  1  0  0  0  0
 19 33  2  0  0  0  0
 19 34  1  0  0  0  0
 20 22  2  0  0  0  0
 20 39  1  0  0  0  0
 21 23  2  0  0  0  0
 21 40  1  0  0  0  0
 22 48  1  0  0  0  0
 23 41  1  0  0  0  0
 24 30  2  0  0  0  0
 24 68  1  0  0  0  0
 25 77  1  0  0  0  0
 26 78  1  0  0  0  0
 27 79  1  0  0  0  0
 28 31  2  0  0  0  0
 28 77  1  0  0  0  0
 29 80  1  0  0  0  0
 30 81  1  0  0  0  0
 31 82  1  0  0  0  0
 32 62  2  0  0  0  0
 33 63  1  0  0  0  0
 33 66  1  0  0  0  0
 34 67  1  0  0  0  0
 34 72  2  0  0  0  0
 35 49  1  0  0  0  0
 35 69  1  0  0  0  0
 35 73  2  0  0  0  0
 36 59  1  0  0  0  0
 36 64  1  0  0  0  0
 36 74  2  0  0  0  0
 37 60  1  0  0  0  0
 37 70  1  0  0  0  0
 37 75  2  0  0  0  0
 38 65  1  0  0  0  0
 38 68  1  0  0  0  0
 38 76  2  0  0  0  0
 39 42  1  0  0  0  0
 40 49  1  0  0  0  0
 41 64  1  0  0  0  0
 42 44  1  0  0  0  0
 43 45  1  0  0  0  0
 43 46  1  0  0  0  0
 44 48  1  0  0  0  0
 45 50  1  0  0  0  0
 46 65  1  0  0  0  0
 47 50  1  0  0  0  0
 47 65  1  0  0  0  0
 48 69  1  0  0  0  0
 49 64  1  0  0  0  0
 50 63  1  0  0  0  0
 51 60  1  0  0  0  0
 52 61  1  0  0  0  0
 53 61  1  0  0  0  0
 54 61  1  0  0  0  0
 55 71  1  0  0  0  0
 56 57  1  0  0  0  0
 56 58  1  0  0  0  0
 57 78  1  0  0  0  0
 58 79  1  0  0  0  0
 59 61  1  0  0  0  0
 59 70  1  0  0  0  0
 60 71  1  0  0  0  0
 62 63  1  0  0  0  0
M  CHG  1  71   1
M  ISO  4  38 100  57 101  68 100  78 101
M  END
> <Batch ID>
0007

> <Smiles>
CNC(C)C(=O)NC(C(=O)N1Cc2cc([101O:1][101CH2:1]CCOc3ccc([100NH:0][100C:0](=O)N4CCCC(n5nc(-c6ccc(Oc7ccc(F)cc7F)cc6)c(C(N)=O)c5N)C4)c(F)c3)ccc2CC1C(=O)NC1CCCc2ccccc21)C(C)(C)C

> <Shape>
0.303

> <Color>
0.145

> <Negative vol penalty>
0.000

$$$$

  -OEChem-04052315333D

 86 95  0     1  0  0  0  0  0999 V2000
  -29.5962  -33.7221   16.0100 C   0  0  0  0  0  0  0  0  0  0  0  0
  -29.7987  -32.3460   16.0364 C   0  0  0  0  0  0  0  0  0  0  0  0
  -24.3785  -17.3110   21.5659 C   0  0  0  0  0  0  0  0  0  0  0  0
  -23.7362  -16.9311   19.2681 C   0  0  0  0  0  0  0  0  0  0  0  0
  -29.1463  -34.3815   17.1532 C   0  0  0  0  0  0  0  0  0  0  0  0
  -29.5524  -31.6285   17.2065 C   0  0  0  0  0  0  0  0  0  0  0  0
  -27.3657  -25.9241   17.6356 C   0  0  0  0  0  0  0  0  0  0  0  0
  -23.7730  -18.5669   21.5276 C   0  0  0  0  0  0  0  0  0  0  0  0
  -23.1306  -18.1871   19.2297 C   0  0  0  0  0  0  0  0  0  0  0  0
  -27.9895  -24.6926   17.8305 C   0  0  0  0  0  0  0  0  0  0  0  0
  -24.0972  -21.4098   18.8970 C   0  0  0  0  0  0  0  0  0  0  0  0
  -24.3367  -22.2110   17.7806 C   0  0  0  0  0  0  0  0  0  0  0  0
  -29.9902  -16.7996   22.5739 C   0  0  0  0  0  0  0  0  0  0  0  0
  -27.5426  -24.8474   20.1960 C   0  0  0  0  0  0  0  0  0  0  0  0
  -30.6807  -16.6791   20.2597 C   0  0  0  0  0  0  0  0  0  0  0  0
  -21.9700  -22.2431   17.2958 C   0  0  0  0  0  0  0  0  0  0  0  0
  -24.3602  -16.4931   20.4361 C   0  0  0  0  0  0  0  0  0  0  0  0
  -24.3897  -13.9749   20.8432 C   0  0  0  0  0  0  0  0  0  0  0  0
  -28.8851  -33.6703   18.3350 C   0  0  0  0  0  0  0  0  0  0  0  0
  -26.8343  -26.6328   18.7227 C   0  0  0  0  0  0  0  0  0  0  0  0
  -29.0998  -32.2791   18.3669 C   0  0  0  0  0  0  0  0  0  0  0  0
  -29.3601  -18.0020   22.2831 C   0  0  0  0  0  0  0  0  0  0  0  0
  -26.9103  -26.0865   20.0119 C   0  0  0  0  0  0  0  0  0  0  0  0
  -30.0448  -17.8956   19.9788 C   0  0  0  0  0  0  0  0  0  0  0  0
  -29.3832  -18.5612   21.0000 C   0  0  0  0  0  0  0  0  0  0  0  0
  -30.6551  -16.1344   21.5483 C   0  0  0  0  0  0  0  0  0  0  0  0
  -23.1490  -19.0050   20.3596 C   0  0  0  0  0  0  0  0  0  0  0  0
  -28.0806  -24.1555   19.1112 C   0  0  0  0  0  0  0  0  0  0  0  0
  -22.7941  -21.0252   19.2128 C   0  0  0  0  0  0  0  0  0  0  0  0
  -23.2732  -22.6277   16.9800 C   0  0  0  0  0  0  0  0  0  0  0  0
  -21.7305  -21.4419   18.4122 C   0  0  0  0  0  0  0  0  0  0  0  0
  -24.9860  -15.1958   20.4749 C   0  0  0  0  0  0  0  0  0  0  0  0
  -25.3957  -13.0487   20.7142 C   0  0  0  0  0  0  0  0  0  0  0  0
  -23.0465  -13.7024   21.2642 C   0  0  0  0  0  0  0  0  0  0  0  0
  -27.4145  -29.4587   20.0574 C   0  0  0  0  0  0  0  0  0  0  0  0
  -28.4260  -20.7169   20.0133 C   0  0  0  0  0  0  0  0  0  0  0  0
  -24.8189  -28.7073   21.8520 C   0  0  0  0  0  0  0  0  0  0  0  0
  -22.7883  -26.2841   23.1373 C   0  0  0  0  0  0  0  0  0  0  0  0
  -31.4494  -13.8930   20.8131 C   0  0  0  0  0  0  0  0  0  0  0  0
  -28.4452  -34.4334   19.5592 C   0  0  0  0  0  0  0  0  0  0  0  0
  -26.1409  -27.9475   18.4922 C   0  0  0  0  0  0  0  0  0  0  0  0
  -26.3379  -26.7980   21.2096 C   0  0  0  0  0  0  0  0  0  0  0  0
  -27.8495  -33.5456   20.6489 C   0  0  0  0  0  0  0  0  0  0  0  0
  -29.4058  -12.1753   18.2669 C   0  0  0  0  0  0  0  0  0  0  0  0
  -28.7276  -32.3196   20.8780 C   0  0  0  0  0  0  0  0  0  0  0  0
  -28.0005  -12.7072   18.5427 C   0  0  0  0  0  0  0  0  0  0  0  0
  -30.4804  -13.1907   18.6442 C   0  0  0  0  0  0  0  0  0  0  0  0
  -28.1093  -19.9866   22.3554 C   0  0  0  0  0  0  0  0  0  0  0  0
  -28.9757  -14.2069   20.3274 C   0  0  0  0  0  0  0  0  0  0  0  0
  -28.8201  -31.4624   19.6098 C   0  0  1  0  0  0  0  0  0  0  0  0
  -28.6154  -18.8598   23.2520 C   0  0  2  0  0  0  0  0  0  0  0  0
  -26.0903  -28.8233   19.7403 C   0  0  1  0  0  0  0  0  0  0  0  0
  -27.8723  -13.1901   19.9978 C   0  0  1  0  0  0  0  0  0  0  0  0
  -30.1403  -18.3404   18.5590 C   0  0  0  0  0  0  0  0  0  0  0  0
  -20.7713  -25.9747   24.5979 C   0  0  0  0  0  0  0  0  0  0  0  0
  -26.5297  -29.2359   24.3225 C   0  0  0  0  0  0  0  0  0  0  0  0
  -24.8147  -28.0222   25.6842 C   0  0  0  0  0  0  0  0  0  0  0  0
  -24.1905  -30.1085   24.4674 C   0  0  0  0  0  0  0  0  0  0  0  0
  -32.0749  -14.7393   23.0631 C   0  0  0  0  0  0  0  0  0  0  0  0
  -21.2484  -25.0294   20.9435 C   0  0  0  0  0  0  0  0  0  0  0  0
  -28.2226  -22.1563   20.3916 C   0  0  0  0  0  0  0  0  0  1  0  0
  -24.5952  -27.9839   23.1580 C   0  0  1  0  0  0  0  0  0  0  0  0
  -21.2765  -26.1521   23.1745 C   0  0  2  0  0  0  0  0  0  0  0  0
  -25.0451  -28.8249   24.3859 C   0  0  0  0  0  0  0  0  0  0  0  0
  -26.2713  -15.0608   20.1374 N   0  0  0  0  0  0  0  0  0  0  0  0
  -26.4909  -13.7441   20.2932 N   0  0  0  0  0  0  0  0  0  0  0  0
  -28.6694  -19.7807   21.0047 N   0  0  0  0  0  0  0  0  0  0  0  0
  -25.6751  -28.0833   20.9337 N   0  0  0  0  0  0  0  0  0  0  0  0
  -30.3085  -13.6674   20.0170 N   0  0  0  0  0  0  0  0  0  0  0  0
  -25.4415  -11.7155   20.9210 N   0  0  0  0  0  0  0  0  0  0  0  0
  -22.1411  -14.7695   21.3417 N   0  0  0  0  0  0  0  0  0  0  0  0
  -27.6152  -30.6788   19.4405 N   0  0  0  0  0  0  0  0  0  0  0  0
  -23.1869  -27.6035   23.1780 N   0  0  0  0  0  0  0  0  0  0  0  0
  -31.3199  -14.8804   21.8137 N   0  0  0  0  0  0  0  0  0  0  0  0
  -20.8394  -24.9758   22.3706 N   0  3  0  0  0  0  0  0  0  0  0  0
  -22.6650  -12.5495   21.5786 O   0  0  0  0  0  0  0  0  0  0  0  0
  -28.1956  -28.8853   20.8076 O   0  0  0  0  0  0  0  0  0  0  0  0
  -28.3636  -20.4106   18.8162 O   0  0  0  0  0  0  0  0  0  0  0  0
  -24.2491  -29.7827   21.6511 O   0  0  0  0  0  0  0  0  0  0  0  0
  -23.5406  -25.3138   23.0818 O   0  0  0  0  0  0  0  0  0  0  0  0
  -32.4903  -13.2425   20.6608 O   0  0  0  0  0  0  0  0  0  0  0  0
  -22.5578  -20.2304   20.3219 O   0  0  0  0  0  0  0  0  0  0  0  0
  -28.6896  -22.9539   19.3043 O   0  0  0  0  0  0  0  0  0  1  0  0
  -23.5032  -23.3983   15.9089 F   0  0  0  0  0  0  0  0  0  0  0  0
  -20.4764  -21.0765   18.7112 F   0  0  0  0  0  0  0  0  0  0  0  0
  -29.4120  -19.3813   24.2204 F   0  0  0  0  0  0  0  0  0  0  0  0
  1  2  1  0  0  0  0
  1  5  2  0  0  0  0
  2  6  2  0  0  0  0
  3  8  2  0  0  0  0
  3 17  1  0  0  0  0
  4  9  1  0  0  0  0
  4 17  2  0  0  0  0
  5 19  1  0  0  0  0
  6 21  1  0  0  0  0
  7 10  2  0  0  0  0
  7 20  1  0  0  0  0
  8 27  1  0  0  0  0
  9 27  2  0  0  0  0
 10 28  1  0  0  0  0
 11 12  2  0  0  0  0
 11 29  1  0  0  0  0
 12 30  1  0  0  0  0
 13 22  1  0  0  0  0
 13 26  2  0  0  0  0
 14 23  1  0  0  0  0
 14 28  2  0  0  0  0
 15 24  2  0  0  0  0
 15 26  1  0  0  0  0
 16 30  2  0  0  0  0
 16 31  1  0  0  0  0
 17 32  1  0  0  0  0
 18 32  1  0  0  0  0
 18 33  2  0  0  0  0
 18 34  1  0  0  0  0
 19 21  2  0  0  0  0
 19 40  1  0  0  0  0
 20 23  2  0  0  0  0
 20 41  1  0  0  0  0
 21 50  1  0  0  0  0
 22 25  2  0  0  0  0
 22 51  1  0  0  0  0
 23 42  1  0  0  0  0
 24 25  1  0  0  0  0
 24 54  1  0  0  0  0
 25 67  1  0  0  0  0
 26 74  1  0  0  0  0
 27 82  1  0  0  0  0
 28 83  1  0  0  0  0
 29 31  2  0  0  0  0
 29 82  1  0  0  0  0
 30 84  1  0  0  0  0
 31 85  1  0  0  0  0
 32 65  2  0  0  0  0
 33 66  1  0  0  0  0
 33 70  1  0  0  0  0
 34 71  1  0  0  0  0
 34 76  2  0  0  0  0
 35 52  1  0  0  0  0
 35 72  1  0  0  0  0
 35 77  2  0  0  0  0
 36 61  1  0  0  0  0
 36 67  1  0  0  0  0
 36 78  2  0  0  0  0
 37 62  1  0  0  0  0
 37 68  1  0  0  0  0
 37 79  2  0  0  0  0
 38 63  1  0  0  0  0
 38 73  1  0  0  0  0
 38 80  2  0  0  0  0
 39 69  1  0  0  0  0
 39 74  1  0  0  0  0
 39 81  2  0  0  0  0
 40 43  1  0  0  0  0
 41 52  1  0  0  0  0
 42 68  1  0  0  0  0
 43 45  1  0  0  0  0
 44 46  1  0  0  0  0
 44 47  1  0  0  0  0
 45 50  1  0  0  0  0
 46 53  1  0  0  0  0
 47 69  1  0  0  0  0
 48 51  1  0  0  0  0
 48 67  1  0  0  0  0
 49 53  1  0  0  0  0
 49 69  1  0  0  0  0
 50 72  1  0  0  0  0
 51 86  1  0  0  0  0
 52 68  1  0  0  0  0
 53 66  1  0  0  0  0
 55 63  1  0  0  0  0
 56 64  1  0  0  0  0
 57 64  1  0  0  0  0
 58 64  1  0  0  0  0
 59 74  1  0  0  0  0
 60 75  1  0  0  0  0
 61 83  1  0  0  0  0
 62 64  1  0  0  0  0
 62 73  1  0  0  0  0
 63 75  1  0  0  0  0
 65 66  1  0  0  0  0
M  CHG  1  75   1
M  ISO  4  39 100  61 101  74 100  83 101
M  END
> <Batch ID>
0007

> <Smiles>
CNC(C)C(=O)NC(C(=O)N1Cc2cc([101O:1][101CH2:1]C(=O)N3CC(F)c4cc([100N:0](C)[100C:0](=O)N5CCCC(n6nc(-c7ccc(Oc8ccc(F)cc8F)cc7)c(C(N)=O)c6N)C5)cc(C)c43)ccc2CC1C(=O)NC1CCCc2ccccc21)C(C)(C)C

> <Shape>
0.238

> <Color>
0.065

> <Negative vol penalty>
0.000

$$$$

  -OEChem-04052315333D

 81 89  0     1  0  0  0  0  0999 V2000
  -28.5814  -33.2108   23.1140 C   0  0  0  0  0  0  0  0  0  0  0  0
  -28.5571  -31.9190   22.5982 C   0  0  0  0  0  0  0  0  0  0  0  0
  -24.4648  -10.0001   21.9503 C   0  0  0  0  0  0  0  0  0  0  0  0
  -24.6543  -11.3349   23.9552 C   0  0  0  0  0  0  0  0  0  0  0  0
  -27.5550  -33.6450   23.9519 C   0  0  0  0  0  0  0  0  0  0  0  0
  -27.5070  -31.0602   22.9210 C   0  0  0  0  0  0  0  0  0  0  0  0
  -25.7362  -28.5566   18.8910 C   0  0  0  0  0  0  0  0  0  0  0  0
  -29.5331  -20.0194   19.3879 C   0  0  0  0  0  0  0  0  0  0  0  0
  -24.0850   -8.8997   22.7188 C   0  0  0  0  0  0  0  0  0  0  0  0
  -24.2746  -10.2345   24.7237 C   0  0  0  0  0  0  0  0  0  0  0  0
  -26.4799  -27.4665   18.4413 C   0  0  0  0  0  0  0  0  0  0  0  0
  -29.5195  -21.3959   19.1629 C   0  0  0  0  0  0  0  0  0  0  0  0
  -21.2918   -7.7856   24.2646 C   0  0  0  0  0  0  0  0  0  0  0  0
  -20.2079   -7.0281   23.8209 C   0  0  0  0  0  0  0  0  0  0  0  0
  -24.9625  -25.9717   19.5737 C   0  0  0  0  0  0  0  0  0  0  0  0
  -27.9048  -21.6703   20.9391 C   0  0  0  0  0  0  0  0  0  0  0  0
  -21.6289   -5.0795   23.6768 C   0  0  0  0  0  0  0  0  0  0  0  0
  -24.7495  -11.2177   22.5685 C   0  0  0  0  0  0  0  0  0  0  0  0
  -24.2981  -13.3275   21.2075 C   0  0  0  0  0  0  0  0  0  0  0  0
  -26.4868  -32.7943   24.2773 C   0  0  0  0  0  0  0  0  0  0  0  0
  -24.6043  -28.3627   19.6958 C   0  0  0  0  0  0  0  0  0  0  0  0
  -26.4661  -31.4830   23.7651 C   0  0  0  0  0  0  0  0  0  0  0  0
  -24.2046  -27.0609   20.0301 C   0  0  0  0  0  0  0  0  0  0  0  0
  -27.9184  -20.2938   21.1640 C   0  0  0  0  0  0  0  0  0  0  0  0
  -28.7325  -19.4683   20.3885 C   0  0  0  0  0  0  0  0  0  0  0  0
  -23.9899   -9.0169   24.1055 C   0  0  0  0  0  0  0  0  0  0  0  0
  -26.0948  -26.1739   18.7850 C   0  0  0  0  0  0  0  0  0  0  0  0
  -28.7054  -22.2214   19.9385 C   0  0  0  0  0  0  0  0  0  0  0  0
  -22.5443   -7.1902   24.4143 C   0  0  0  0  0  0  0  0  0  0  0  0
  -20.3765   -5.6750   23.5270 C   0  0  0  0  0  0  0  0  0  0  0  0
  -22.7128   -5.8371   24.1204 C   0  0  0  0  0  0  0  0  0  0  0  0
  -25.1423  -12.3546   21.7752 C   0  0  0  0  0  0  0  0  0  0  0  0
  -25.1513  -14.1850   20.5569 C   0  0  0  0  0  0  0  0  0  0  0  0
  -22.8703  -13.4457   21.2633 C   0  0  0  0  0  0  0  0  0  0  0  0
  -23.7803  -29.2044   22.6481 C   0  0  0  0  0  0  0  0  0  0  0  0
  -20.9245  -27.9219   21.7987 C   0  0  0  0  0  0  0  0  0  0  0  0
  -19.1981  -25.7658   19.7942 C   0  0  0  0  0  0  0  0  0  0  0  0
  -29.8290  -17.2003   20.3823 C   0  0  0  0  0  0  0  0  0  0  0  0
  -25.4246  -33.2927   25.2249 C   0  0  0  0  0  0  0  0  0  0  0  0
  -23.7974  -29.5478   20.1506 C   0  0  0  0  0  0  0  0  0  0  0  0
  -22.9857  -26.7980   20.8749 C   0  0  0  0  0  0  0  0  0  0  0  0
  -24.1551  -32.4450   25.2171 C   0  0  0  0  0  0  0  0  0  0  0  0
  -30.0852  -13.7577   19.5102 C   0  0  0  0  0  0  0  0  0  0  0  0
  -24.5032  -30.9616   25.2885 C   0  0  0  0  0  0  0  0  0  0  0  0
  -28.7526  -13.1658   19.9751 C   0  0  0  0  0  0  0  0  0  0  0  0
  -30.5909  -14.8365   20.4664 C   0  0  0  0  0  0  0  0  0  0  0  0
  -28.2963  -15.3144   21.2250 C   0  0  0  0  0  0  0  0  0  0  0  0
  -25.3313  -30.5301   24.0722 C   0  0  1  0  0  0  0  0  0  0  0  0
  -22.9584  -29.2587   21.3915 C   0  0  1  0  0  0  0  0  0  0  0  0
  -27.7145  -14.2691   20.2593 C   0  0  2  0  0  0  0  0  0  0  0  0
  -27.0503  -19.7314   22.2425 C   0  0  0  0  0  0  0  0  0  0  0  0
  -16.8804  -24.9073   19.3599 C   0  0  0  0  0  0  0  0  0  0  0  0
  -21.1009  -26.1862   24.3018 C   0  0  0  0  0  0  0  0  0  0  0  0
  -19.3091  -24.7300   23.3338 C   0  0  0  0  0  0  0  0  0  0  0  0
  -18.8291  -27.1247   23.8412 C   0  0  0  0  0  0  0  0  0  0  0  0
  -19.2176  -26.7817   17.0146 C   0  0  0  0  0  0  0  0  0  0  0  0
  -28.2167  -25.3129   18.1430 C   0  0  0  0  0  0  0  0  0  1  0  0
  -28.9495  -24.0081   18.3880 C   0  0  0  0  0  0  0  0  0  0  0  0
  -20.3058  -26.5469   21.8721 C   0  0  1  0  0  0  0  0  0  0  0  0
  -17.9278  -25.9433   18.9824 C   0  0  2  0  0  0  0  0  0  0  0  0
  -19.9104  -26.1516   23.3229 C   0  0  0  0  0  0  0  0  0  0  0  0
  -26.4328  -12.5727   21.5086 N   0  0  0  0  0  0  0  0  0  0  0  0
  -26.4058  -13.6925   20.7661 N   0  0  0  0  0  0  0  0  0  0  0  0
  -22.2333  -27.9897   21.3004 N   0  0  0  0  0  0  0  0  0  0  0  0
  -29.5561  -15.8495   20.6852 N   0  0  0  0  0  0  0  0  0  0  0  0
  -24.9433  -15.3046   19.8320 N   0  0  0  0  0  0  0  0  0  0  0  0
  -22.1471  -12.4786   21.9746 N   0  0  0  0  0  0  0  0  0  0  0  0
  -28.7589  -18.0675   20.6001 N   0  0  0  0  0  0  0  0  0  0  0  0
  -24.4798  -30.3662   22.9135 N   0  0  0  0  0  0  0  0  0  0  0  0
  -19.1927  -26.5492   20.9290 N   0  0  0  0  0  0  0  0  0  0  0  0
  -18.2198  -25.8078   17.5273 N   0  3  0  0  0  0  0  0  0  0  0  0
  -22.2527  -14.3720   20.6852 O   0  0  0  0  0  0  0  0  0  0  0  0
  -23.7788  -28.1845   23.3275 O   0  0  0  0  0  0  0  0  0  0  0  0
  -20.2680  -28.9007   22.1630 O   0  0  0  0  0  0  0  0  0  0  0  0
  -20.1030  -25.0053   19.4576 O   0  0  0  0  0  0  0  0  0  0  0  0
  -30.9219  -17.5570   19.9351 O   0  0  0  0  0  0  0  0  0  0  0  0
  -23.6192   -7.9435   24.8557 O   0  0  0  0  0  0  0  0  0  0  0  0
  -26.8194  -25.1082   18.3480 O   0  0  0  0  0  0  0  0  0  1  0  0
  -28.6925  -23.5735   19.7179 O   0  0  0  0  0  0  0  0  0  0  0  0
  -19.3352   -4.9472   23.1024 F   0  0  0  0  0  0  0  0  0  0  0  0
  -23.9134   -5.2592   24.2635 F   0  0  0  0  0  0  0  0  0  0  0  0
  1  2  1  0  0  0  0
  1  5  2  0  0  0  0
  2  6  2  0  0  0  0
  3  9  2  0  0  0  0
  3 18  1  0  0  0  0
  4 10  1  0  0  0  0
  4 18  2  0  0  0  0
  5 20  1  0  0  0  0
  6 22  1  0  0  0  0
  7 11  2  0  0  0  0
  7 21  1  0  0  0  0
  8 12  2  0  0  0  0
  8 25  1  0  0  0  0
  9 26  1  0  0  0  0
 10 26  2  0  0  0  0
 11 27  1  0  0  0  0
 12 28  1  0  0  0  0
 13 14  2  0  0  0  0
 13 29  1  0  0  0  0
 14 30  1  0  0  0  0
 15 23  1  0  0  0  0
 15 27  2  0  0  0  0
 16 24  1  0  0  0  0
 16 28  2  0  0  0  0
 17 30  2  0  0  0  0
 17 31  1  0  0  0  0
 18 32  1  0  0  0  0
 19 32  1  0  0  0  0
 19 33  2  0  0  0  0
 19 34  1  0  0  0  0
 20 22  2  0  0  0  0
 20 39  1  0  0  0  0
 21 23  2  0  0  0  0
 21 40  1  0  0  0  0
 22 48  1  0  0  0  0
 23 41  1  0  0  0  0
 24 25  2  0  0  0  0
 24 51  1  0  0  0  0
 25 68  1  0  0  0  0
 26 77  1  0  0  0  0
 27 78  1  0  0  0  0
 28 79  1  0  0  0  0
 29 31  2  0  0  0  0
 29 77  1  0  0  0  0
 30 80  1  0  0  0  0
 31 81  1  0  0  0  0
 32 62  2  0  0  0  0
 33 63  1  0  0  0  0
 33 66  1  0  0  0  0
 34 67  1  0  0  0  0
 34 72  2  0  0  0  0
 35 49  1  0  0  0  0
 35 69  1  0  0  0  0
 35 73  2  0  0  0  0
 36 59  1  0  0  0  0
 36 64  1  0  0  0  0
 36 74  2  0  0  0  0
 37 60  1  0  0  0  0
 37 70  1  0  0  0  0
 37 75  2  0  0  0  0
 38 65  1  0  0  0  0
 38 68  1  0  0  0  0
 38 76  2  0  0  0  0
 39 42  1  0  0  0  0
 40 49  1  0  0  0  0
 41 64  1  0  0  0  0
 42 44  1  0  0  0  0
 43 45  1  0  0  0  0
 43 46  1  0  0  0  0
 44 48  1  0  0  0  0
 45 50  1  0  0  0  0
 46 65  1  0  0  0  0
 47 50  1  0  0  0  0
 47 65  1  0  0  0  0
 48 69  1  0  0  0  0
 49 64  1  0  0  0  0
 50 63  1  0  0  0  0
 52 60  1  0  0  0  0
 53 61  1  0  0  0  0
 54 61  1  0  0  0  0
 55 61  1  0  0  0  0
 56 71  1  0  0  0  0
 57 58  1  0  0  0  0
 57 78  1  0  0  0  0
 58 79  1  0  0  0  0
 59 61  1  0  0  0  0
 59 70  1  0  0  0  0
 60 71  1  0  0  0  0
 62 63  1  0  0  0  0
M  CHG  1  71   1
M  ISO  4  38 100  57 101  68 100  78 101
M  END
> <Batch ID>
0007

> <Smiles>
CNC(C)C(=O)NC(C(=O)N1Cc2cc([101O:1][101CH2:1]COc3ccc([100NH:0][100C:0](=O)N4CCCC(n5nc(-c6ccc(Oc7ccc(F)cc7F)cc6)c(C(N)=O)c5N)C4)c(C)c3)ccc2CC1C(=O)NC1CCCc2ccccc21)C(C)(C)C

> <Shape>
0.335

> <Color>
0.113

> <Negative vol penalty>
0.000

$$$$

  -OEChem-04052315333D

 82 90  0     1  0  0  0  0  0999 V2000
  -17.7884  -32.9572   22.0745 C   0  0  0  0  0  0  0  0  0  0  0  0
  -19.0679  -33.0660   21.5393 C   0  0  0  0  0  0  0  0  0  0  0  0
  -23.0494  -13.0811   20.9633 C   0  0  0  0  0  0  0  0  0  0  0  0
  -23.3095  -14.7257   22.7139 C   0  0  0  0  0  0  0  0  0  0  0  0
  -17.5254  -32.0090   23.0622 C   0  0  0  0  0  0  0  0  0  0  0  0
  -20.0855  -32.2273   21.9923 C   0  0  0  0  0  0  0  0  0  0  0  0
  -25.9928  -28.8798   19.7086 C   0  0  0  0  0  0  0  0  0  0  0  0
  -30.7187  -21.5213   19.2402 C   0  0  0  0  0  0  0  0  0  0  0  0
  -22.3650  -12.2476   21.8479 C   0  0  0  0  0  0  0  0  0  0  0  0
  -22.6251  -13.8922   23.5986 C   0  0  0  0  0  0  0  0  0  0  0  0
  -27.3401  -28.7304   20.0343 C   0  0  0  0  0  0  0  0  0  0  0  0
  -31.0304  -22.8750   19.3659 C   0  0  0  0  0  0  0  0  0  0  0  0
  -19.2524  -12.0144   23.1479 C   0  0  0  0  0  0  0  0  0  0  0  0
  -18.0840  -11.4044   22.6914 C   0  0  0  0  0  0  0  0  0  0  0  0
  -26.7506  -27.0760   21.6880 C   0  0  0  0  0  0  0  0  0  0  0  0
  -28.3985  -22.0891   18.8780 C   0  0  0  0  0  0  0  0  0  0  0  0
  -19.0627   -9.2317   23.0901 C   0  0  0  0  0  0  0  0  0  0  0  0
  -23.5217  -14.3201   21.3963 C   0  0  0  0  0  0  0  0  0  0  0  0
  -23.6765  -16.1650   19.6413 C   0  0  0  0  0  0  0  0  0  0  0  0
  -18.5381  -31.1516   23.5207 C   0  0  0  0  0  0  0  0  0  0  0  0
  -25.0116  -28.1352   20.3788 C   0  0  0  0  0  0  0  0  0  0  0  0
  -19.8362  -31.2675   22.9881 C   0  0  0  0  0  0  0  0  0  0  0  0
  -25.3917  -27.2160   21.3671 C   0  0  0  0  0  0  0  0  0  0  0  0
  -29.4028  -21.1283   18.9962 C   0  0  0  0  0  0  0  0  0  0  0  0
  -22.1529  -12.6532   23.1656 C   0  0  0  0  0  0  0  0  0  0  0  0
  -27.7190  -27.8305   21.0261 C   0  0  0  0  0  0  0  0  0  0  0  0
  -20.3259  -11.2331   23.5754 C   0  0  0  0  0  0  0  0  0  0  0  0
  -30.0261  -23.8358   19.2478 C   0  0  0  0  0  0  0  0  0  0  0  0
  -17.9891  -10.0130   22.6625 C   0  0  0  0  0  0  0  0  0  0  0  0
  -28.7101  -23.4429   19.0038 C   0  0  0  0  0  0  0  0  0  0  0  0
  -20.2311   -9.8418   23.5465 C   0  0  0  0  0  0  0  0  0  0  0  0
  -24.2292  -15.1813   20.4831 C   0  0  0  0  0  0  0  0  0  0  0  0
  -24.7565  -16.6982   18.9811 C   0  0  0  0  0  0  0  0  0  0  0  0
  -22.3091  -16.5615   19.4714 C   0  0  0  0  0  0  0  0  0  0  0  0
  -22.5237  -28.8496   22.2236 C   0  0  0  0  0  0  0  0  0  0  0  0
  -21.9611  -25.6608   22.0310 C   0  0  0  0  0  0  0  0  0  0  0  0
  -23.2027  -22.5268   21.4987 C   0  0  0  0  0  0  0  0  0  0  0  0
  -29.9627  -18.6724   18.9586 C   0  0  0  0  0  0  0  0  0  0  0  0
  -18.2175  -30.1742   24.6236 C   0  0  0  0  0  0  0  0  0  0  0  0
  -23.5648  -28.2885   19.9972 C   0  0  0  0  0  0  0  0  0  0  0  0
  -24.3790  -26.3779   22.1023 C   0  0  0  0  0  0  0  0  0  0  0  0
  -19.2605  -29.0708   24.7819 C   0  0  0  0  0  0  0  0  0  0  0  0
  -29.5667  -15.1408   18.7393 C   0  0  0  0  0  0  0  0  0  0  0  0
  -20.6673  -29.6603   24.7690 C   0  0  0  0  0  0  0  0  0  0  0  0
  -28.0973  -14.9174   19.1042 C   0  0  0  0  0  0  0  0  0  0  0  0
  -30.1886  -16.2712   19.5572 C   0  0  0  0  0  0  0  0  0  0  0  0
  -27.9828  -17.3179   19.8864 C   0  0  0  0  0  0  0  0  0  0  0  0
  -20.9606  -30.3590   23.4358 C   0  0  1  0  0  0  0  0  0  0  0  0
  -22.6063  -27.8538   21.1015 C   0  0  1  0  0  0  0  0  0  0  0  0
  -27.2952  -16.2321   19.0426 C   0  0  2  0  0  0  0  0  0  0  0  0
  -22.5085  -20.1158   21.4447 C   0  0  0  0  0  0  0  0  0  0  0  0
  -21.8853  -25.6167   25.0810 C   0  0  0  0  0  0  0  0  0  0  0  0
  -22.1454  -23.1286   24.9821 C   0  0  0  0  0  0  0  0  0  0  0  0
  -20.1375  -24.2120   23.9736 C   0  0  0  0  0  0  0  0  0  0  0  0
  -23.9756  -22.2477   18.6556 C   0  0  0  0  0  0  0  0  0  0  0  0
  -31.2263  -27.0652   20.5521 C   0  0  0  0  0  0  0  0  0  0  0  0
  -29.9844  -27.9077   20.3065 C   0  0  0  0  0  0  0  0  0  1  0  0
  -30.9048  -25.5799   20.6049 C   0  0  0  0  0  0  0  0  0  0  0  0
  -22.3801  -24.4510   22.8310 C   0  0  1  0  0  0  0  0  0  0  0  0
  -22.7121  -21.3832   20.6292 C   0  0  2  0  0  0  0  0  0  0  0  0
  -21.6562  -24.3691   24.2046 C   0  0  0  0  0  0  0  0  0  0  0  0
  -25.5571  -15.0925   20.3698 N   0  0  0  0  0  0  0  0  0  0  0  0
  -25.8478  -16.0273   19.4491 N   0  0  0  0  0  0  0  0  0  0  0  0
  -22.9764  -26.5685   21.6976 N   0  0  0  0  0  0  0  0  0  0  0  0
  -29.3772  -17.4856   19.4479 N   0  0  0  0  0  0  0  0  0  0  0  0
  -24.8695  -17.6707   18.0517 N   0  0  0  0  0  0  0  0  0  0  0  0
  -21.3257  -15.9102   20.2283 N   0  0  0  0  0  0  0  0  0  0  0  0
  -29.0861  -19.7531   18.8684 N   0  0  0  0  0  0  0  0  0  0  0  0
  -21.2630  -29.3839   22.4100 N   0  0  0  0  0  0  0  0  0  0  0  0
  -22.1587  -23.2950   21.9691 N   0  0  0  0  0  0  0  0  0  0  0  0
  -23.6976  -21.0940   19.5493 N   0  3  0  0  0  0  0  0  0  0  0  0
  -21.9678  -17.4552   18.6600 O   0  0  0  0  0  0  0  0  0  0  0  0
  -23.5289  -29.1126   22.8733 O   0  0  0  0  0  0  0  0  0  0  0  0
  -20.7780  -25.7917   21.7075 O   0  0  0  0  0  0  0  0  0  0  0  0
  -24.3927  -22.7171   21.7399 O   0  0  0  0  0  0  0  0  0  0  0  0
  -31.1473  -18.7188   18.6172 O   0  0  0  0  0  0  0  0  0  0  0  0
  -21.4849  -11.8402   24.0290 O   0  0  0  0  0  0  0  0  0  0  0  0
  -29.0334  -27.6831   21.3464 O   0  0  0  0  0  0  0  0  0  1  0  0
  -30.3344  -25.1657   19.3709 O   0  0  0  0  0  0  0  0  0  0  0  0
  -16.8665   -9.4274   22.2256 F   0  0  0  0  0  0  0  0  0  0  0  0
  -27.7413  -24.3614   18.8881 F   0  0  0  0  0  0  0  0  0  0  0  0
  -21.2587   -9.0859   23.9571 F   0  0  0  0  0  0  0  0  0  0  0  0
  1  2  1  0  0  0  0
  1  5  2  0  0  0  0
  2  6  2  0  0  0  0
  3  9  2  0  0  0  0
  3 18  1  0  0  0  0
  4 10  1  0  0  0  0
  4 18  2  0  0  0  0
  5 20  1  0  0  0  0
  6 22  1  0  0  0  0
  7 11  2  0  0  0  0
  7 21  1  0  0  0  0
  8 12  2  0  0  0  0
  8 24  1  0  0  0  0
  9 25  1  0  0  0  0
 10 25  2  0  0  0  0
 11 26  1  0  0  0  0
 12 28  1  0  0  0  0
 13 14  2  0  0  0  0
 13 27  1  0  0  0  0
 14 29  1  0  0  0  0
 15 23  1  0  0  0  0
 15 26  2  0  0  0  0
 16 24  2  0  0  0  0
 16 30  1  0  0  0  0
 17 29  2  0  0  0  0
 17 31  1  0  0  0  0
 18 32  1  0  0  0  0
 19 32  1  0  0  0  0
 19 33  2  0  0  0  0
 19 34  1  0  0  0  0
 20 22  2  0  0  0  0
 20 39  1  0  0  0  0
 21 23  2  0  0  0  0
 21 40  1  0  0  0  0
 22 48  1  0  0  0  0
 23 41  1  0  0  0  0
 24 68  1  0  0  0  0
 25 77  1  0  0  0  0
 26 78  1  0  0  0  0
 27 31  2  0  0  0  0
 27 77  1  0  0  0  0
 28 30  2  0  0  0  0
 28 79  1  0  0  0  0
 29 80  1  0  0  0  0
 30 81  1  0  0  0  0
 31 82  1  0  0  0  0
 32 62  2  0  0  0  0
 33 63  1  0  0  0  0
 33 66  1  0  0  0  0
 34 67  1  0  0  0  0
 34 72  2  0  0  0  0
 35 49  1  0  0  0  0
 35 69  1  0  0  0  0
 35 73  2  0  0  0  0
 36 59  1  0  0  0  0
 36 64  1  0  0  0  0
 36 74  2  0  0  0  0
 37 60  1  0  0  0  0
 37 70  1  0  0  0  0
 37 75  2  0  0  0  0
 38 65  1  0  0  0  0
 38 68  1  0  0  0  0
 38 76  2  0  0  0  0
 39 42  1  0  0  0  0
 40 49  1  0  0  0  0
 41 64  1  0  0  0  0
 42 44  1  0  0  0  0
 43 45  1  0  0  0  0
 43 46  1  0  0  0  0
 44 48  1  0  0  0  0
 45 50  1  0  0  0  0
 46 65  1  0  0  0  0
 47 50  1  0  0  0  0
 47 65  1  0  0  0  0
 48 69  1  0  0  0  0
 49 64  1  0  0  0  0
 50 63  1  0  0  0  0
 51 60  1  0  0  0  0
 52 61  1  0  0  0  0
 53 61  1  0  0  0  0
 54 61  1  0  0  0  0
 55 71  1  0  0  0  0
 56 57  1  0  0  0  0
 56 58  1  0  0  0  0
 57 78  1  0  0  0  0
 58 79  1  0  0  0  0
 59 61  1  0  0  0  0
 59 70  1  0  0  0  0
 60 71  1  0  0  0  0
 62 63  1  0  0  0  0
M  CHG  1  71   1
M  ISO  4  38 100  57 101  68 100  78 101
M  END
> <Batch ID>
0007

> <Smiles>
CNC(C)C(=O)NC(C(=O)N1Cc2cc([101O:1][101CH2:1]CCOc3ccc([100NH:0][100C:0](=O)N4CCCC(n5nc(-c6ccc(Oc7ccc(F)cc7F)cc6)c(C(N)=O)c5N)C4)cc3F)ccc2CC1C(=O)NC1CCCc2ccccc21)C(C)(C)C

> <Shape>
0.201

> <Color>
0.083

> <Negative vol penalty>
0.000

$$$$

  -OEChem-04052315333D

 85 93  0     1  0  0  0  0  0999 V2000
  -30.5233  -34.3347   24.7509 C   0  0  0  0  0  0  0  0  0  0  0  0
  -29.8067  -33.2047   24.3702 C   0  0  0  0  0  0  0  0  0  0  0  0
  -24.4194   -9.2179   20.7463 C   0  0  0  0  0  0  0  0  0  0  0  0
  -24.8739   -9.9822   22.9927 C   0  0  0  0  0  0  0  0  0  0  0  0
  -29.8630  -35.4112   25.3416 C   0  0  0  0  0  0  0  0  0  0  0  0
  -28.4294  -33.1501   24.5810 C   0  0  0  0  0  0  0  0  0  0  0  0
  -25.9189  -31.3555   20.5658 C   0  0  0  0  0  0  0  0  0  0  0  0
  -29.5911  -19.6522   20.7916 C   0  0  0  0  0  0  0  0  0  0  0  0
  -24.1341   -7.9439   21.2374 C   0  0  0  0  0  0  0  0  0  0  0  0
  -24.5886   -8.7082   23.4838 C   0  0  0  0  0  0  0  0  0  0  0  0
  -25.9361  -29.9754   20.3689 C   0  0  0  0  0  0  0  0  0  0  0  0
  -29.5633  -21.0371   20.9553 C   0  0  0  0  0  0  0  0  0  0  0  0
  -21.5551   -6.3855   22.7713 C   0  0  0  0  0  0  0  0  0  0  0  0
  -20.4181   -5.7420   22.2826 C   0  0  0  0  0  0  0  0  0  0  0  0
  -23.7384  -29.8139   21.3504 C   0  0  0  0  0  0  0  0  0  0  0  0
  -27.3831  -20.8717   21.9834 C   0  0  0  0  0  0  0  0  0  0  0  0
  -21.7957   -3.9401   21.4504 C   0  0  0  0  0  0  0  0  0  0  0  0
  -24.7894  -10.2370   21.6239 C   0  0  0  0  0  0  0  0  0  0  0  0
  -24.1811  -12.6176   20.9380 C   0  0  0  0  0  0  0  0  0  0  0  0
  -28.4754  -35.3737   25.5510 C   0  0  0  0  0  0  0  0  0  0  0  0
  -24.8140  -31.9749   21.1676 C   0  0  0  0  0  0  0  0  0  0  0  0
  -27.7501  -34.2266   25.1764 C   0  0  0  0  0  0  0  0  0  0  0  0
  -23.7086  -31.2024   21.5516 C   0  0  0  0  0  0  0  0  0  0  0  0
  -28.5150  -18.8770   21.2237 C   0  0  0  0  0  0  0  0  0  0  0  0
  -24.2187   -7.6891   22.6062 C   0  0  0  0  0  0  0  0  0  0  0  0
  -24.8470  -29.2040   20.7638 C   0  0  0  0  0  0  0  0  0  0  0  0
  -28.4593  -21.6469   21.5512 C   0  0  0  0  0  0  0  0  0  0  0  0
  -22.8124   -5.8064   22.5994 C   0  0  0  0  0  0  0  0  0  0  0  0
  -27.4110  -19.4868   21.8196 C   0  0  0  0  0  0  0  0  0  0  0  0
  -20.5384   -4.5193   21.6222 C   0  0  0  0  0  0  0  0  0  0  0  0
  -22.9327   -4.5837   21.9390 C   0  0  0  0  0  0  0  0  0  0  0  0
  -25.0847  -11.5531   21.1171 C   0  0  0  0  0  0  0  0  0  0  0  0
  -24.9495  -13.6393   20.4358 C   0  0  0  0  0  0  0  0  0  0  0  0
  -22.7732  -12.6775   21.2019 C   0  0  0  0  0  0  0  0  0  0  0  0
  -24.3586  -33.6610   23.8234 C   0  0  0  0  0  0  0  0  0  0  0  0
  -21.3783  -34.0474   22.6023 C   0  0  0  0  0  0  0  0  0  0  0  0
  -18.9180  -32.8848   20.5426 C   0  0  0  0  0  0  0  0  0  0  0  0
  -29.5862  -16.7218   20.4796 C   0  0  0  0  0  0  0  0  0  0  0  0
  -27.8128  -36.5425   26.2363 C   0  0  0  0  0  0  0  0  0  0  0  0
  -24.7997  -33.4680   21.3487 C   0  0  0  0  0  0  0  0  0  0  0  0
  -22.4896  -31.8214   22.1835 C   0  0  0  0  0  0  0  0  0  0  0  0
  -26.2941  -36.5575   26.0829 C   0  0  0  0  0  0  0  0  0  0  0  0
  -29.7052  -13.6390   18.7022 C   0  0  0  0  0  0  0  0  0  0  0  0
  -25.7156  -35.1742   26.3632 C   0  0  0  0  0  0  0  0  0  0  0  0
  -28.4394  -12.9091   19.1572 C   0  0  0  0  0  0  0  0  0  0  0  0
  -30.3367  -14.4413   19.8385 C   0  0  0  0  0  0  0  0  0  0  0  0
  -28.1618  -14.6391   20.9785 C   0  0  0  0  0  0  0  0  0  0  0  0
  -26.2512  -34.1398   25.3659 C   0  0  1  0  0  0  0  0  0  0  0  0
  -23.8377  -33.9284   22.4396 C   0  0  1  0  0  0  0  0  0  0  0  0
  -27.4538  -13.8694   19.8515 C   0  0  2  0  0  0  0  0  0  0  0  0
  -25.4007  -17.5123   24.0676 C   0  0  0  0  0  0  0  0  0  0  0  0
  -16.5810  -33.3934   19.7831 C   0  0  0  0  0  0  0  0  0  0  0  0
  -20.2916  -33.0045   25.2559 C   0  0  0  0  0  0  0  0  0  0  0  0
  -18.0862  -32.6378   24.1288 C   0  0  0  0  0  0  0  0  0  0  0  0
  -19.0295  -34.9407   24.3004 C   0  0  0  0  0  0  0  0  0  0  0  0
  -19.7745  -33.1838   17.7255 C   0  0  0  0  0  0  0  0  0  0  0  0
  -25.9711  -25.7755   21.0911 C   0  0  0  0  0  0  0  0  0  0  0  0
  -27.3107  -25.0507   21.1608 C   0  0  0  0  0  0  0  0  0  0  0  0
  -26.0303  -18.8201   23.6376 C   0  0  0  0  0  0  0  0  0  0  0  0
  -26.1331  -27.2098   20.6055 C   0  0  0  0  0  0  0  0  0  1  0  0
  -27.1550  -23.6309   21.6868 C   0  0  0  0  0  0  0  0  0  0  0  0
  -20.0768  -33.2886   22.6987 C   0  0  1  0  0  0  0  0  0  0  0  0
  -18.0632  -33.5831   19.5005 C   0  0  2  0  0  0  0  0  0  0  0  0
  -19.3947  -33.4557   24.0858 C   0  0  0  0  0  0  0  0  0  0  0  0
  -26.3317  -11.8692   20.7578 N   0  0  0  0  0  0  0  0  0  0  0  0
  -26.2171  -13.1439   20.3478 N   0  0  0  0  0  0  0  0  0  0  0  0
  -22.5261  -33.2843   22.3452 N   0  0  0  0  0  0  0  0  0  0  0  0
  -29.3454  -15.3320   20.4458 N   0  0  0  0  0  0  0  0  0  0  0  0
  -24.6577  -14.9042   20.0652 N   0  0  0  0  0  0  0  0  0  0  0  0
  -22.1408  -11.5377   21.7169 N   0  0  0  0  0  0  0  0  0  0  0  0
  -28.5589  -17.4712   21.0519 N   0  0  0  0  0  0  0  0  0  0  0  0
  -25.5717  -34.2647   24.0943 N   0  0  0  0  0  0  0  0  0  0  0  0
  -19.2608  -33.7332   21.5741 N   0  0  0  0  0  0  0  0  0  0  0  0
  -18.3559  -33.0420   18.1432 N   0  3  0  0  0  0  0  0  0  0  0  0
  -22.0928  -13.7060   20.9721 O   0  0  0  0  0  0  0  0  0  0  0  0
  -23.7073  -32.9602   24.5891 O   0  0  0  0  0  0  0  0  0  0  0  0
  -21.3756  -35.2729   22.7427 O   0  0  0  0  0  0  0  0  0  0  0  0
  -19.2457  -31.7036   20.4526 O   0  0  0  0  0  0  0  0  0  0  0  0
  -30.6151  -17.2138   20.0091 O   0  0  0  0  0  0  0  0  0  0  0  0
  -23.9401   -6.4461   23.0858 O   0  0  0  0  0  0  0  0  0  0  0  0
  -24.8615  -27.8567   20.5733 O   0  0  0  0  0  0  0  0  0  1  0  0
  -28.4317  -23.0078   21.7131 O   0  0  0  0  0  0  0  0  0  0  0  0
  -26.3492  -18.7478   22.2498 O   0  0  0  0  0  0  0  0  0  0  0  0
  -19.4463   -3.9007   21.1544 F   0  0  0  0  0  0  0  0  0  0  0  0
  -24.1377   -4.0218   21.7719 F   0  0  0  0  0  0  0  0  0  0  0  0
  1  2  1  0  0  0  0
  1  5  2  0  0  0  0
  2  6  2  0  0  0  0
  3  9  2  0  0  0  0
  3 18  1  0  0  0  0
  4 10  1  0  0  0  0
  4 18  2  0  0  0  0
  5 20  1  0  0  0  0
  6 22  1  0  0  0  0
  7 11  2  0  0  0  0
  7 21  1  0  0  0  0
  8 12  2  0  0  0  0
  8 24  1  0  0  0  0
  9 25  1  0  0  0  0
 10 25  2  0  0  0  0
 11 26  1  0  0  0  0
 12 27  1  0  0  0  0
 13 14  2  0  0  0  0
 13 28  1  0  0  0  0
 14 30  1  0  0  0  0
 15 23  1  0  0  0  0
 15 26  2  0  0  0  0
 16 27  2  0  0  0  0
 16 29  1  0  0  0  0
 17 30  2  0  0  0  0
 17 31  1  0  0  0  0
 18 32  1  0  0  0  0
 19 32  1  0  0  0  0
 19 33  2  0  0  0  0
 19 34  1  0  0  0  0
 20 22  2  0  0  0  0
 20 39  1  0  0  0  0
 21 23  2  0  0  0  0
 21 40  1  0  0  0  0
 22 48  1  0  0  0  0
 23 41  1  0  0  0  0
 24 29  2  0  0  0  0
 24 71  1  0  0  0  0
 25 80  1  0  0  0  0
 26 81  1  0  0  0  0
 27 82  1  0  0  0  0
 28 31  2  0  0  0  0
 28 80  1  0  0  0  0
 29 83  1  0  0  0  0
 30 84  1  0  0  0  0
 31 85  1  0  0  0  0
 32 65  2  0  0  0  0
 33 66  1  0  0  0  0
 33 69  1  0  0  0  0
 34 70  1  0  0  0  0
 34 75  2  0  0  0  0
 35 49  1  0  0  0  0
 35 72  1  0  0  0  0
 35 76  2  0  0  0  0
 36 62  1  0  0  0  0
 36 67  1  0  0  0  0
 36 77  2  0  0  0  0
 37 63  1  0  0  0  0
 37 73  1  0  0  0  0
 37 78  2  0  0  0  0
 38 68  1  0  0  0  0
 38 71  1  0  0  0  0
 38 79  2  0  0  0  0
 39 42  1  0  0  0  0
 40 49  1  0  0  0  0
 41 67  1  0  0  0  0
 42 44  1  0  0  0  0
 43 45  1  0  0  0  0
 43 46  1  0  0  0  0
 44 48  1  0  0  0  0
 45 50  1  0  0  0  0
 46 68  1  0  0  0  0
 47 50  1  0  0  0  0
 47 68  1  0  0  0  0
 48 72  1  0  0  0  0
 49 67  1  0  0  0  0
 50 66  1  0  0  0  0
 51 59  1  0  0  0  0
 52 63  1  0  0  0  0
 53 64  1  0  0  0  0
 54 64  1  0  0  0  0
 55 64  1  0  0  0  0
 56 74  1  0  0  0  0
 57 58  1  0  0  0  0
 57 60  1  0  0  0  0
 58 61  1  0  0  0  0
 59 83  1  0  0  0  0
 60 81  1  0  0  0  0
 61 82  1  0  0  0  0
 62 64  1  0  0  0  0
 62 73  1  0  0  0  0
 63 74  1  0  0  0  0
 65 66  1  0  0  0  0
M  CHG  1  74   1
M  ISO  4  38 100  60 101  71 100  81 101
M  END
> <Batch ID>
0007

> <Smiles>
CCOc1cc(OCCC[101CH2:1][101O:1]c2ccc3c(c2)CN(C(=O)C(NC(=O)C(C)NC)C(C)(C)C)C(C(=O)NC2CCCc4ccccc42)C3)ccc1[100NH:0][100C:0](=O)N1CCCC(n2nc(-c3ccc(Oc4ccc(F)cc4F)cc3)c(C(N)=O)c2N)C1

> <Shape>
0.259

> <Color>
0.126

> <Negative vol penalty>
0.000

$$$$

  -OEChem-04052315333D

 81 89  0     1  0  0  0  0  0999 V2000
  -18.1099  -28.0564   26.7042 C   0  0  0  0  0  0  0  0  0  0  0  0
  -18.0795  -27.1880   25.6177 C   0  0  0  0  0  0  0  0  0  0  0  0
  -23.3204  -16.1169   21.8227 C   0  0  0  0  0  0  0  0  0  0  0  0
  -22.5232  -15.4383   19.6453 C   0  0  0  0  0  0  0  0  0  0  0  0
  -18.8815  -29.2163   26.6467 C   0  0  0  0  0  0  0  0  0  0  0  0
  -18.8199  -27.4796   24.4726 C   0  0  0  0  0  0  0  0  0  0  0  0
  -23.8376  -22.9194   22.0398 C   0  0  0  0  0  0  0  0  0  0  0  0
  -30.4481  -17.5002   19.7788 C   0  0  0  0  0  0  0  0  0  0  0  0
  -29.5585  -17.6304   22.0213 C   0  0  0  0  0  0  0  0  0  0  0  0
  -22.3314  -17.0988   21.8788 C   0  0  0  0  0  0  0  0  0  0  0  0
  -21.5341  -16.4203   19.7014 C   0  0  0  0  0  0  0  0  0  0  0  0
  -24.6664  -22.0030   21.3923 C   0  0  0  0  0  0  0  0  0  0  0  0
  -29.9402  -18.7698   19.5036 C   0  0  0  0  0  0  0  0  0  0  0  0
  -29.0507  -18.9001   21.7461 C   0  0  0  0  0  0  0  0  0  0  0  0
  -19.7895  -19.5463   22.7527 C   0  0  0  0  0  0  0  0  0  0  0  0
  -19.0747  -19.6795   23.9430 C   0  0  0  0  0  0  0  0  0  0  0  0
  -25.1596  -23.6407   19.6827 C   0  0  0  0  0  0  0  0  0  0  0  0
  -18.3051  -17.3988   23.7361 C   0  0  0  0  0  0  0  0  0  0  0  0
  -23.4164  -15.2866   20.7059 C   0  0  0  0  0  0  0  0  0  0  0  0
  -24.3422  -12.9419   21.0966 C   0  0  0  0  0  0  0  0  0  0  0  0
  -19.6393  -29.5174   25.5040 C   0  0  0  0  0  0  0  0  0  0  0  0
  -23.6785  -24.2066   21.5189 C   0  0  0  0  0  0  0  0  0  0  0  0
  -19.6013  -28.6453   24.3993 C   0  0  0  0  0  0  0  0  0  0  0  0
  -24.3405  -24.5670   20.3337 C   0  0  0  0  0  0  0  0  0  0  0  0
  -30.2571  -16.9305   21.0377 C   0  0  0  0  0  0  0  0  0  0  0  0
  -21.4382  -17.2505   20.8182 C   0  0  0  0  0  0  0  0  0  0  0  0
  -29.2416  -19.4698   20.4872 C   0  0  0  0  0  0  0  0  0  0  0  0
  -25.3256  -22.3627   20.2165 C   0  0  0  0  0  0  0  0  0  0  0  0
  -19.7620  -18.3394   22.0539 C   0  0  0  0  0  0  0  0  0  0  0  0
  -18.3325  -18.6058   24.4347 C   0  0  0  0  0  0  0  0  0  0  0  0
  -19.0198  -17.2656   22.5457 C   0  0  0  0  0  0  0  0  0  0  0  0
  -24.4382  -14.2725   20.6470 C   0  0  0  0  0  0  0  0  0  0  0  0
  -25.5706  -12.3953   20.8163 C   0  0  0  0  0  0  0  0  0  0  0  0
  -23.2410  -12.2609   21.7125 C   0  0  0  0  0  0  0  0  0  0  0  0
  -22.0857  -27.5844   21.8784 C   0  0  0  0  0  0  0  0  0  0  0  0
  -24.9670  -28.0537   20.9359 C   0  0  0  0  0  0  0  0  0  0  0  0
  -28.3180  -28.1575   20.3054 C   0  0  0  0  0  0  0  0  0  0  0  0
  -30.9179  -14.6457   20.3066 C   0  0  0  0  0  0  0  0  0  0  0  0
  -20.4208  -30.8068   25.4703 C   0  0  0  0  0  0  0  0  0  0  0  0
  -22.7474  -25.2063   22.1493 C   0  0  0  0  0  0  0  0  0  0  0  0
  -24.1123  -25.9514   19.7911 C   0  0  0  0  0  0  0  0  0  0  0  0
  -21.4713  -30.8536   24.3637 C   0  0  0  0  0  0  0  0  0  0  0  0
  -29.2443  -12.7764   17.7871 C   0  0  0  0  0  0  0  0  0  0  0  0
  -20.8781  -30.3711   23.0438 C   0  0  0  0  0  0  0  0  0  0  0  0
  -27.7986  -12.8296   18.2796 C   0  0  0  0  0  0  0  0  0  0  0  0
  -29.9725  -14.1032   18.0047 C   0  0  0  0  0  0  0  0  0  0  0  0
  -28.4693  -14.6516   19.8926 C   0  0  0  0  0  0  0  0  0  0  0  0
  -20.4102  -28.9145   23.1490 C   0  0  1  0  0  0  0  0  0  0  0  0
  -23.2533  -26.6557   22.0384 C   0  0  1  0  0  0  0  0  0  0  0  0
  -27.7298  -13.3134   19.7389 C   0  0  1  0  0  0  0  0  0  0  0  0
  -30.1924  -29.7696   19.8753 C   0  0  0  0  0  0  0  0  0  0  0  0
  -23.9454  -28.4773   18.0932 C   0  0  0  0  0  0  0  0  0  0  0  0
  -26.2402  -29.2525   17.4598 C   0  0  0  0  0  0  0  0  0  0  0  0
  -24.9258  -30.5136   19.1641 C   0  0  0  0  0  0  0  0  0  0  0  0
  -31.4022  -15.3787   22.6311 C   0  0  0  0  0  0  0  0  0  0  0  0
  -29.7971  -27.2582   22.7059 C   0  0  0  0  0  0  0  0  0  0  0  0
  -28.3712  -20.9799   18.8693 C   0  0  0  0  0  0  0  0  0  0  0  0
  -27.2404  -21.9901   18.8555 C   0  0  0  0  0  0  0  0  0  1  0  0
  -25.8982  -28.2593   19.7680 C   0  0  1  0  0  0  0  0  0  0  0  0
  -29.4355  -28.9748   20.9280 C   0  0  2  0  0  0  0  0  0  0  0  0
  -25.2485  -29.1000   18.6328 C   0  0  0  0  0  0  0  0  0  0  0  0
  -25.6332  -14.5541   20.1212 N   0  0  0  0  0  0  0  0  0  0  0  0
  -26.2995  -13.3929   20.2386 N   0  0  0  0  0  0  0  0  0  0  0  0
  -24.1320  -26.9307   20.8889 N   0  0  0  0  0  0  0  0  0  0  0  0
  -29.8450  -14.5445   19.4008 N   0  0  0  0  0  0  0  0  0  0  0  0
  -26.0877  -11.1634   21.0101 N   0  0  0  0  0  0  0  0  0  0  0  0
  -22.0520  -12.9712   21.9274 N   0  0  0  0  0  0  0  0  0  0  0  0
  -21.5406  -28.0139   23.0733 N   0  0  0  0  0  0  0  0  0  0  0  0
  -27.1194  -28.8390   20.3168 N   0  0  0  0  0  0  0  0  0  0  0  0
  -30.7828  -15.6160   21.3227 N   0  0  0  0  0  0  0  0  0  0  0  0
  -30.4020  -28.0822   21.6280 N   0  3  0  0  0  0  0  0  0  0  0  0
  -23.3149  -11.0629   22.0770 O   0  0  0  0  0  0  0  0  0  0  0  0
  -21.7072  -27.8909   20.7539 O   0  0  0  0  0  0  0  0  0  0  0  0
  -24.9737  -28.8681   21.8632 O   0  0  0  0  0  0  0  0  0  0  0  0
  -28.4918  -27.0289   19.8509 O   0  0  0  0  0  0  0  0  0  0  0  0
  -31.9081  -13.9085   20.2296 O   0  0  0  0  0  0  0  0  0  0  0  0
  -20.4728  -18.2084   20.8727 O   0  0  0  0  0  0  0  0  0  0  0  0
  -28.7427  -20.7168   20.2170 O   0  0  0  0  0  0  0  0  0  0  0  0
  -26.1368  -21.4646   19.5919 O   0  0  0  0  0  0  0  0  0  1  0  0
  -17.6474  -18.7333   25.5786 F   0  0  0  0  0  0  0  0  0  0  0  0
  -18.9906  -16.1032   21.8795 F   0  0  0  0  0  0  0  0  0  0  0  0
  1  2  1  0  0  0  0
  1  5  2  0  0  0  0
  2  6  2  0  0  0  0
  3 10  2  0  0  0  0
  3 19  1  0  0  0  0
  4 11  1  0  0  0  0
  4 19  2  0  0  0  0
  5 21  1  0  0  0  0
  6 23  1  0  0  0  0
  7 12  2  0  0  0  0
  7 22  1  0  0  0  0
  8 13  2  0  0  0  0
  8 25  1  0  0  0  0
  9 14  1  0  0  0  0
  9 25  2  0  0  0  0
 10 26  1  0  0  0  0
 11 26  2  0  0  0  0
 12 28  1  0  0  0  0
 13 27  1  0  0  0  0
 14 27  2  0  0  0  0
 15 16  2  0  0  0  0
 15 29  1  0  0  0  0
 16 30  1  0  0  0  0
 17 24  1  0  0  0  0
 17 28  2  0  0  0  0
 18 30  2  0  0  0  0
 18 31  1  0  0  0  0
 19 32  1  0  0  0  0
 20 32  1  0  0  0  0
 20 33  2  0  0  0  0
 20 34  1  0  0  0  0
 21 23  2  0  0  0  0
 21 39  1  0  0  0  0
 22 24  2  0  0  0  0
 22 40  1  0  0  0  0
 23 48  1  0  0  0  0
 24 41  1  0  0  0  0
 25 70  1  0  0  0  0
 26 77  1  0  0  0  0
 27 78  1  0  0  0  0
 28 79  1  0  0  0  0
 29 31  2  0  0  0  0
 29 77  1  0  0  0  0
 30 80  1  0  0  0  0
 31 81  1  0  0  0  0
 32 62  2  0  0  0  0
 33 63  1  0  0  0  0
 33 66  1  0  0  0  0
 34 67  1  0  0  0  0
 34 72  2  0  0  0  0
 35 49  1  0  0  0  0
 35 68  1  0  0  0  0
 35 73  2  0  0  0  0
 36 59  1  0  0  0  0
 36 64  1  0  0  0  0
 36 74  2  0  0  0  0
 37 60  1  0  0  0  0
 37 69  1  0  0  0  0
 37 75  2  0  0  0  0
 38 65  1  0  0  0  0
 38 70  1  0  0  0  0
 38 76  2  0  0  0  0
 39 42  1  0  0  0  0
 40 49  1  0  0  0  0
 41 64  1  0  0  0  0
 42 44  1  0  0  0  0
 43 45  1  0  0  0  0
 43 46  1  0  0  0  0
 44 48  1  0  0  0  0
 45 50  1  0  0  0  0
 46 65  1  0  0  0  0
 47 50  1  0  0  0  0
 47 65  1  0  0  0  0
 48 68  1  0  0  0  0
 49 64  1  0  0  0  0
 50 63  1  0  0  0  0
 51 60  1  0  0  0  0
 52 61  1  0  0  0  0
 53 61  1  0  0  0  0
 54 61  1  0  0  0  0
 55 70  1  0  0  0  0
 56 71  1  0  0  0  0
 57 58  1  0  0  0  0
 57 78  1  0  0  0  0
 58 79  1  0  0  0  0
 59 61  1  0  0  0  0
 59 69  1  0  0  0  0
 60 71  1  0  0  0  0
 62 63  1  0  0  0  0
M  CHG  1  71   1
M  ISO  4  38 100  58 101  70 100  79 101
M  END
> <Batch ID>
0007

> <Smiles>
CNC(C)C(=O)NC(C(=O)N1Cc2cc([101O:1][101CH2:1]COc3ccc([100N:0](C)[100C:0](=O)N4CCCC(n5nc(-c6ccc(Oc7ccc(F)cc7F)cc6)c(C(N)=O)c5N)C4)cc3)ccc2CC1C(=O)NC1CCCc2ccccc21)C(C)(C)C

> <Shape>
0.234

> <Color>
0.102

> <Negative vol penalty>
0.000

$$$$

  -OEChem-04052315333D

 89 97  0     1  0  0  0  0  0999 V2000
  -30.2719  -24.3678   18.4291 C   0  0  0  0  0  0  0  0  0  0  0  0
  -28.8884  -24.5071   18.3849 C   0  0  0  0  0  0  0  0  0  0  0  0
  -22.8291  -18.9955   18.3196 C   0  0  0  0  0  0  0  0  0  0  0  0
  -28.9062  -10.9765   22.1805 C   0  0  0  0  0  0  0  0  0  0  0  0
  -26.7400  -11.2132   21.1370 C   0  0  0  0  0  0  0  0  0  0  0  0
  -30.9882  -24.8749   19.5125 C   0  0  0  0  0  0  0  0  0  0  0  0
  -28.2202  -25.1525   19.4248 C   0  0  0  0  0  0  0  0  0  0  0  0
  -23.2264  -28.6684   18.9702 C   0  0  0  0  0  0  0  0  0  0  0  0
  -24.0875  -18.3998   18.4033 C   0  0  0  0  0  0  0  0  0  0  0  0
  -22.6303  -20.2799   18.8260 C   0  0  0  0  0  0  0  0  0  0  0  0
  -28.3745  -10.0458   23.0731 C   0  0  0  0  0  0  0  0  0  0  0  0
  -26.2083  -10.2825   22.0296 C   0  0  0  0  0  0  0  0  0  0  0  0
  -21.8734  -28.4081   19.1836 C   0  0  0  0  0  0  0  0  0  0  0  0
  -26.1647   -6.9226   22.3900 C   0  0  0  0  0  0  0  0  0  0  0  0
  -25.3325   -5.9310   21.8707 C   0  0  0  0  0  0  0  0  0  0  0  0
  -22.0643  -29.2843   21.4231 C   0  0  0  0  0  0  0  0  0  0  0  0
  -24.9486  -20.3729   19.4999 C   0  0  0  0  0  0  0  0  0  0  0  0
  -23.5295   -6.7062   23.2798 C   0  0  0  0  0  0  0  0  0  0  0  0
  -28.0889  -11.5602   21.2125 C   0  0  0  0  0  0  0  0  0  0  0  0
  -29.2143  -12.2614   19.0331 C   0  0  0  0  0  0  0  0  0  0  0  0
  -30.3294  -25.5354   20.5615 C   0  0  0  0  0  0  0  0  0  0  0  0
  -24.0123  -29.2294   19.9871 C   0  0  0  0  0  0  0  0  0  0  0  0
  -28.9282  -25.6677   20.5239 C   0  0  0  0  0  0  0  0  0  0  0  0
  -23.4264  -29.5531   21.2192 C   0  0  0  0  0  0  0  0  0  0  0  0
  -25.1473  -19.0885   18.9935 C   0  0  0  0  0  0  0  0  0  0  0  0
  -27.0256   -9.6988   22.9977 C   0  0  0  0  0  0  0  0  0  0  0  0
  -21.2928  -28.7134   20.4111 C   0  0  0  0  0  0  0  0  0  0  0  0
  -23.6901  -20.9686   19.4162 C   0  0  0  0  0  0  0  0  0  0  0  0
  -25.6793   -7.8060   23.3543 C   0  0  0  0  0  0  0  0  0  0  0  0
  -24.0149   -5.8228   22.3156 C   0  0  0  0  0  0  0  0  0  0  0  0
  -24.3617   -7.6978   23.7991 C   0  0  0  0  0  0  0  0  0  0  0  0
  -28.6374  -12.5221   20.2905 C   0  0  0  0  0  0  0  0  0  0  0  0
  -29.5771  -13.4982   18.5587 C   0  0  0  0  0  0  0  0  0  0  0  0
  -29.4052  -11.0128   18.3547 C   0  0  0  0  0  0  0  0  0  0  0  0
  -26.5653  -28.2850   21.6284 C   0  0  0  0  0  0  0  0  0  0  0  0
  -26.4285  -31.2977   22.8229 C   0  0  0  0  0  0  0  0  0  0  0  0
  -18.7382  -26.2784   22.1096 C   0  0  0  0  0  0  0  0  0  0  0  0
  -24.5479  -34.0649   23.4959 C   0  0  0  0  0  0  0  0  0  0  0  0
  -27.5834  -19.0280   19.6322 C   0  0  0  0  0  0  0  0  0  0  0  0
  -31.1413  -26.0251   21.7344 C   0  0  0  0  0  0  0  0  0  0  0  0
  -25.4641  -29.5287   19.7319 C   0  0  0  0  0  0  0  0  0  0  0  0
  -24.2219  -30.1753   22.3365 C   0  0  0  0  0  0  0  0  0  0  0  0
  -30.3973  -27.0260   22.6147 C   0  0  0  0  0  0  0  0  0  0  0  0
  -30.9128  -17.8431   20.0659 C   0  0  0  0  0  0  0  0  0  0  0  0
  -28.9855  -26.5302   22.9111 C   0  0  0  0  0  0  0  0  0  0  0  0
  -30.7604  -16.3204   20.0522 C   0  0  0  0  0  0  0  0  0  0  0  0
  -29.7374  -18.5245   20.7644 C   0  0  0  0  0  0  0  0  0  0  0  0
  -28.2589  -16.6233   20.2460 C   0  0  0  0  0  0  0  0  0  0  0  0
  -28.1701  -26.3835   21.6207 C   0  0  1  0  0  0  0  0  0  0  0  0
  -26.2879  -29.6270   21.0122 C   0  0  1  0  0  0  0  0  0  0  0  0
  -29.3870  -15.8965   19.4958 C   0  0  2  0  0  0  0  0  0  0  0  0
  -24.7055  -36.3547   24.5104 C   0  0  0  0  0  0  0  0  0  0  0  0
  -26.4431  -30.0587   25.6111 C   0  0  0  0  0  0  0  0  0  0  0  0
  -25.6531  -32.2555   26.5156 C   0  0  0  0  0  0  0  0  0  0  0  0
  -27.8639  -32.1026   25.3704 C   0  0  0  0  0  0  0  0  0  0  0  0
  -23.7796  -35.3709   20.9536 C   0  0  0  0  0  0  0  0  0  0  0  0
  -18.2772  -26.7563   20.7415 C   0  0  0  0  0  0  0  0  0  0  0  0
  -22.6546  -25.5231   22.5400 C   0  0  0  0  0  0  0  0  0  0  0  0
  -23.1032  -24.1390   22.0668 C   0  0  0  0  0  0  0  0  0  0  0  0
  -21.5803  -25.4171   23.6265 C   0  0  0  0  0  0  0  0  0  0  0  0
  -24.1982  -24.2418   21.0073 C   0  0  0  0  0  0  0  0  0  0  0  0
  -20.3370  -24.6737   23.1481 C   0  0  0  0  0  0  0  0  0  0  0  0
  -19.4010  -27.3608   19.9139 C   0  0  0  0  0  0  0  0  0  1  0  0
  -24.6202  -22.8700   20.5004 C   0  0  0  0  0  0  0  0  0  0  0  0
  -25.7450  -31.9512   23.9996 C   0  0  1  0  0  0  0  0  0  0  0  0
  -24.7939  -35.5391   23.2299 C   0  0  2  0  0  0  0  0  0  0  0  0
  -26.4114  -31.5785   25.3540 C   0  0  0  0  0  0  0  0  0  0  0  0
  -28.6319  -13.8225   20.5956 N   0  0  0  0  0  0  0  0  0  0  0  0
  -29.2100  -14.3899   19.5233 N   0  0  0  0  0  0  0  0  0  0  0  0
  -25.6391  -30.4430   22.0405 N   0  0  0  0  0  0  0  0  0  0  0  0
  -28.4700  -18.0780   20.1819 N   0  0  0  0  0  0  0  0  0  0  0  0
  -30.1712  -13.8992   17.4147 N   0  0  0  0  0  0  0  0  0  0  0  0
  -28.9741   -9.8374   18.9846 N   0  0  0  0  0  0  0  0  0  0  0  0
  -26.4256  -18.4830   19.0780 N   0  0  0  0  0  0  0  0  0  0  0  0
  -27.7151  -27.6780   21.1605 N   0  0  0  0  0  0  0  0  0  0  0  0
  -19.7199  -25.3037   22.0032 N   0  0  0  0  0  0  0  0  0  0  0  0
  -25.7254  -33.3824   23.7172 N   0  0  0  0  0  0  0  0  0  0  0  0
  -23.7871  -36.0666   22.2662 N   0  3  0  0  0  0  0  0  0  0  0  0
  -29.9570  -10.9400   17.2305 O   0  0  0  0  0  0  0  0  0  0  0  0
  -25.7941  -27.8342   22.4673 O   0  0  0  0  0  0  0  0  0  0  0  0
  -27.6171  -31.5424   22.6017 O   0  0  0  0  0  0  0  0  0  0  0  0
  -18.2842  -26.7149   23.1638 O   0  0  0  0  0  0  0  0  0  0  0  0
  -23.4234  -33.5692   23.5099 O   0  0  0  0  0  0  0  0  0  0  0  0
  -27.8454  -20.2335   19.6272 O   0  0  0  0  0  0  0  0  0  0  0  0
  -26.5066   -8.7904   23.8683 O   0  0  0  0  0  0  0  0  0  0  0  0
  -19.9726  -28.4598   20.6223 O   0  0  0  0  0  0  0  0  0  1  0  0
  -23.4949  -22.2308   19.9140 O   0  0  0  0  0  0  0  0  0  0  0  0
  -23.2154   -4.8715   21.8157 F   0  0  0  0  0  0  0  0  0  0  0  0
  -23.8895   -8.5443   24.7244 F   0  0  0  0  0  0  0  0  0  0  0  0
  1  2  1  0  0  0  0
  1  6  2  0  0  0  0
  2  7  2  0  0  0  0
  3  9  1  0  0  0  0
  3 10  2  0  0  0  0
  4 11  2  0  0  0  0
  4 19  1  0  0  0  0
  5 12  1  0  0  0  0
  5 19  2  0  0  0  0
  6 21  1  0  0  0  0
  7 23  1  0  0  0  0
  8 13  2  0  0  0  0
  8 22  1  0  0  0  0
  9 25  2  0  0  0  0
 10 28  1  0  0  0  0
 11 26  1  0  0  0  0
 12 26  2  0  0  0  0
 13 27  1  0  0  0  0
 14 15  2  0  0  0  0
 14 29  1  0  0  0  0
 15 30  1  0  0  0  0
 16 24  1  0  0  0  0
 16 27  2  0  0  0  0
 17 25  1  0  0  0  0
 17 28  2  0  0  0  0
 18 30  2  0  0  0  0
 18 31  1  0  0  0  0
 19 32  1  0  0  0  0
 20 32  1  0  0  0  0
 20 33  2  0  0  0  0
 20 34  1  0  0  0  0
 21 23  2  0  0  0  0
 21 40  1  0  0  0  0
 22 24  2  0  0  0  0
 22 41  1  0  0  0  0
 23 49  1  0  0  0  0
 24 42  1  0  0  0  0
 25 74  1  0  0  0  0
 26 85  1  0  0  0  0
 27 86  1  0  0  0  0
 28 87  1  0  0  0  0
 29 31  2  0  0  0  0
 29 85  1  0  0  0  0
 30 88  1  0  0  0  0
 31 89  1  0  0  0  0
 32 68  2  0  0  0  0
 33 69  1  0  0  0  0
 33 72  1  0  0  0  0
 34 73  1  0  0  0  0
 34 79  2  0  0  0  0
 35 50  1  0  0  0  0
 35 75  1  0  0  0  0
 35 80  2  0  0  0  0
 36 65  1  0  0  0  0
 36 70  1  0  0  0  0
 36 81  2  0  0  0  0
 37 57  1  0  0  0  0
 37 76  1  0  0  0  0
 37 82  2  0  0  0  0
 38 66  1  0  0  0  0
 38 77  1  0  0  0  0
 38 83  2  0  0  0  0
 39 71  1  0  0  0  0
 39 74  1  0  0  0  0
 39 84  2  0  0  0  0
 40 43  1  0  0  0  0
 41 50  1  0  0  0  0
 42 70  1  0  0  0  0
 43 45  1  0  0  0  0
 44 46  1  0  0  0  0
 44 47  1  0  0  0  0
 45 49  1  0  0  0  0
 46 51  1  0  0  0  0
 47 71  1  0  0  0  0
 48 51  1  0  0  0  0
 48 71  1  0  0  0  0
 49 75  1  0  0  0  0
 50 70  1  0  0  0  0
 51 69  1  0  0  0  0
 52 66  1  0  0  0  0
 53 67  1  0  0  0  0
 54 67  1  0  0  0  0
 55 67  1  0  0  0  0
 56 78  1  0  0  0  0
 57 63  1  0  0  0  0
 58 59  1  0  0  0  0
 58 60  1  0  0  0  0
 59 61  1  0  0  0  0
 60 62  1  0  0  0  0
 61 64  1  0  0  0  0
 62 76  1  0  0  0  0
 63 86  1  0  0  0  0
 64 87  1  0  0  0  0
 65 67  1  0  0  0  0
 65 77  1  0  0  0  0
 66 78  1  0  0  0  0
 68 69  1  0  0  0  0
M  CHG  1  78   1
M  ISO  4  39 100  63 101  74 100  86 101
M  END
> <Batch ID>
0007

> <Smiles>
CNC(C)C(=O)NC(C(=O)N1Cc2cc([101O:1][101CH2:1]CC(=O)NCCCCCCOc3cccc([100NH:0][100C:0](=O)N4CCCC(n5nc(-c6ccc(Oc7ccc(F)cc7F)cc6)c(C(N)=O)c5N)C4)c3)ccc2CC1C(=O)NC1CCCc2ccccc21)C(C)(C)C

> <Shape>
0.304

> <Color>
0.061

> <Negative vol penalty>
0.000

$$$$

  -OEChem-04052315333D

 90 98  0     1  0  0  0  0  0999 V2000
  -30.4894  -21.8180   14.1453 C   0  0  0  0  0  0  0  0  0  0  0  0
  -29.2521  -21.8811   14.7780 C   0  0  0  0  0  0  0  0  0  0  0  0
  -23.0057  -10.0621   19.8866 C   0  0  0  0  0  0  0  0  0  0  0  0
  -23.9040   -9.8279   22.1171 C   0  0  0  0  0  0  0  0  0  0  0  0
  -31.5570  -22.5740   14.6277 C   0  0  0  0  0  0  0  0  0  0  0  0
  -29.0819  -22.6994   15.8942 C   0  0  0  0  0  0  0  0  0  0  0  0
  -24.7912  -25.3821   15.7002 C   0  0  0  0  0  0  0  0  0  0  0  0
  -22.2488   -8.9049   20.0699 C   0  0  0  0  0  0  0  0  0  0  0  0
  -23.1471   -8.6707   22.3004 C   0  0  0  0  0  0  0  0  0  0  0  0
  -23.6085  -24.7155   16.0176 C   0  0  0  0  0  0  0  0  0  0  0  0
  -19.9421   -7.8816   23.0255 C   0  0  0  0  0  0  0  0  0  0  0  0
  -19.2572   -7.7414   24.2325 C   0  0  0  0  0  0  0  0  0  0  0  0
  -23.6711  -25.6712   18.2316 C   0  0  0  0  0  0  0  0  0  0  0  0
  -25.9571  -21.3325   21.1031 C   0  0  0  0  0  0  0  0  0  0  0  0
  -25.6663  -19.9798   19.1225 C   0  0  0  0  0  0  0  0  0  0  0  0
  -20.4906   -5.7166   24.6973 C   0  0  0  0  0  0  0  0  0  0  0  0
  -23.8334  -10.5236   20.9102 C   0  0  0  0  0  0  0  0  0  0  0  0
  -24.2326  -13.0410   21.0147 C   0  0  0  0  0  0  0  0  0  0  0  0
  -31.3972  -23.4094   15.7445 C   0  0  0  0  0  0  0  0  0  0  0  0
  -25.4295  -26.1910   16.6513 C   0  0  0  0  0  0  0  0  0  0  0  0
  -30.1487  -23.4662   16.3928 C   0  0  0  0  0  0  0  0  0  0  0  0
  -24.8603  -26.3490   17.9230 C   0  0  0  0  0  0  0  0  0  0  0  0
  -27.2633  -20.8610   21.2334 C   0  0  0  0  0  0  0  0  0  0  0  0
  -26.9726  -19.5084   19.2527 C   0  0  0  0  0  0  0  0  0  0  0  0
  -25.1585  -20.8919   20.0477 C   0  0  0  0  0  0  0  0  0  0  0  0
  -22.3195   -8.2092   21.2768 C   0  0  0  0  0  0  0  0  0  0  0  0
  -23.0498  -24.8576   17.2843 C   0  0  0  0  0  0  0  0  0  0  0  0
  -20.9012   -6.9392   22.6543 C   0  0  0  0  0  0  0  0  0  0  0  0
  -27.7711  -19.9490   20.3082 C   0  0  0  0  0  0  0  0  0  0  0  0
  -19.5315   -6.6589   25.0684 C   0  0  0  0  0  0  0  0  0  0  0  0
  -21.1755   -5.8567   23.4902 C   0  0  0  0  0  0  0  0  0  0  0  0
  -24.6159  -11.7186   20.7213 C   0  0  0  0  0  0  0  0  0  0  0  0
  -25.3196  -13.8009   20.6576 C   0  0  0  0  0  0  0  0  0  0  0  0
  -23.0038  -13.5381   21.5612 C   0  0  0  0  0  0  0  0  0  0  0  0
  -28.2598  -26.1456   18.0974 C   0  0  0  0  0  0  0  0  0  0  0  0
  -27.2630  -28.9952   19.2843 C   0  0  0  0  0  0  0  0  0  0  0  0
  -22.9050  -21.0388   18.9331 C   0  0  0  0  0  0  0  0  0  0  0  0
  -24.6571  -31.0479   20.0856 C   0  0  0  0  0  0  0  0  0  0  0  0
  -30.8292  -14.6875   20.5969 C   0  0  0  0  0  0  0  0  0  0  0  0
  -32.5931  -24.1716   16.2579 C   0  0  0  0  0  0  0  0  0  0  0  0
  -26.6904  -26.9246   16.2846 C   0  0  0  0  0  0  0  0  0  0  0  0
  -25.4956  -27.2218   18.9733 C   0  0  0  0  0  0  0  0  0  0  0  0
  -32.2292  -25.2999   17.2196 C   0  0  0  0  0  0  0  0  0  0  0  0
  -29.4867  -12.5729   18.0665 C   0  0  0  0  0  0  0  0  0  0  0  0
  -31.2231  -24.8131   18.2576 C   0  0  0  0  0  0  0  0  0  0  0  0
  -28.0712  -12.2665   18.5589 C   0  0  0  0  0  0  0  0  0  0  0  0
  -30.4808  -12.6561   19.2227 C   0  0  0  0  0  0  0  0  0  0  0  0
  -28.6867  -13.2845   20.7913 C   0  0  0  0  0  0  0  0  0  0  0  0
  -29.9180  -24.3610   17.5912 C   0  0  1  0  0  0  0  0  0  0  0  0
  -27.5295  -27.3139   17.4978 C   0  0  1  0  0  0  0  0  0  0  0  0
  -27.6383  -13.2461   19.6662 C   0  0  2  0  0  0  0  0  0  0  0  0
  -28.1029  -21.3434   22.3701 C   0  0  0  0  0  0  0  0  0  0  0  0
  -28.4353  -19.1908   17.2412 C   0  0  0  0  0  0  0  0  0  0  0  0
  -24.1545  -33.2991   21.0740 C   0  0  0  0  0  0  0  0  0  0  0  0
  -27.8661  -27.9043   22.0693 C   0  0  0  0  0  0  0  0  0  0  0  0
  -26.4886  -29.7658   23.0207 C   0  0  0  0  0  0  0  0  0  0  0  0
  -28.5475  -30.2837   21.7109 C   0  0  0  0  0  0  0  0  0  0  0  0
  -23.3372  -31.9721   17.6031 C   0  0  0  0  0  0  0  0  0  0  0  0
  -27.4994  -18.5339   18.2515 C   0  0  0  0  0  0  0  0  0  0  0  0
  -21.5953  -21.7798   19.1641 C   0  0  0  0  0  0  0  0  0  0  0  0
  -20.8463  -22.0670   17.8674 C   0  0  0  0  0  0  0  0  0  0  0  0
  -30.7165  -17.9471   21.2072 C   0  0  0  0  0  0  0  0  0  0  0  0
  -31.0261  -16.7040   22.0302 C   0  0  0  0  0  0  0  0  0  0  0  0
  -21.6521  -22.9647   16.9396 C   0  0  0  0  0  0  0  0  0  1  0  0
  -29.2360  -18.3083   21.2126 C   0  0  0  0  0  0  0  0  0  0  0  0
  -26.4933  -29.4338   20.5066 C   0  0  1  0  0  0  0  0  0  0  0  0
  -24.4051  -32.5163   19.7945 C   0  0  2  0  0  0  0  0  0  0  0  0
  -27.3377  -29.3289   21.8079 C   0  0  0  0  0  0  0  0  0  0  0  0
  -25.8500  -11.6395   20.2165 N   0  0  0  0  0  0  0  0  0  0  0  0
  -26.2515  -12.9217   20.1899 N   0  0  0  0  0  0  0  0  0  0  0  0
  -26.7308  -27.9133   18.5687 N   0  0  0  0  0  0  0  0  0  0  0  0
  -30.0121  -13.6030   20.2375 N   0  0  0  0  0  0  0  0  0  0  0  0
  -25.5596  -15.1286   20.7011 N   0  0  0  0  0  0  0  0  0  0  0  0
  -21.9911  -12.6204   21.8719 N   0  0  0  0  0  0  0  0  0  0  0  0
  -23.8329  -21.3696   19.9166 N   0  0  0  0  0  0  0  0  0  0  0  0
  -29.1162  -25.5074   17.2207 N   0  0  0  0  0  0  0  0  0  0  0  0
  -26.0025  -30.7773   20.2196 N   0  0  0  0  0  0  0  0  0  0  0  0
  -30.3068  -15.5405   21.5614 N   0  0  0  0  0  0  0  0  0  0  0  0
  -23.2174  -32.6723   18.9079 N   0  3  0  0  0  0  0  0  0  0  0  0
  -22.8035  -14.7615   21.7527 O   0  0  0  0  0  0  0  0  0  0  0  0
  -28.0622  -25.8464   19.2692 O   0  0  0  0  0  0  0  0  0  0  0  0
  -28.2946  -29.5951   18.9718 O   0  0  0  0  0  0  0  0  0  0  0  0
  -23.0602  -20.2691   17.9909 O   0  0  0  0  0  0  0  0  0  0  0  0
  -23.7508  -30.2241   20.1878 O   0  0  0  0  0  0  0  0  0  0  0  0
  -31.9395  -14.8843   20.0915 O   0  0  0  0  0  0  0  0  0  0  0  0
  -21.5809   -7.0801   21.4561 O   0  0  0  0  0  0  0  0  0  0  0  0
  -21.8959  -24.2076   17.5969 O   0  0  0  0  0  0  0  0  0  1  0  0
  -29.0487  -19.4878   20.4346 O   0  0  0  0  0  0  0  0  0  0  0  0
  -18.8748   -6.5253   26.2282 F   0  0  0  0  0  0  0  0  0  0  0  0
  -22.0966   -4.9488   23.1396 F   0  0  0  0  0  0  0  0  0  0  0  0
  1  2  1  0  0  0  0
  1  5  2  0  0  0  0
  2  6  2  0  0  0  0
  3  8  2  0  0  0  0
  3 17  1  0  0  0  0
  4  9  1  0  0  0  0
  4 17  2  0  0  0  0
  5 19  1  0  0  0  0
  6 21  1  0  0  0  0
  7 10  2  0  0  0  0
  7 20  1  0  0  0  0
  8 26  1  0  0  0  0
  9 26  2  0  0  0  0
 10 27  1  0  0  0  0
 11 12  2  0  0  0  0
 11 28  1  0  0  0  0
 12 30  1  0  0  0  0
 13 22  1  0  0  0  0
 13 27  2  0  0  0  0
 14 23  2  0  0  0  0
 14 25  1  0  0  0  0
 15 24  1  0  0  0  0
 15 25  2  0  0  0  0
 16 30  2  0  0  0  0
 16 31  1  0  0  0  0
 17 32  1  0  0  0  0
 18 32  1  0  0  0  0
 18 33  2  0  0  0  0
 18 34  1  0  0  0  0
 19 21  2  0  0  0  0
 19 40  1  0  0  0  0
 20 22  2  0  0  0  0
 20 41  1  0  0  0  0
 21 49  1  0  0  0  0
 22 42  1  0  0  0  0
 23 29  1  0  0  0  0
 23 52  1  0  0  0  0
 24 29  2  0  0  0  0
 24 59  1  0  0  0  0
 25 75  1  0  0  0  0
 26 86  1  0  0  0  0
 27 87  1  0  0  0  0
 28 31  2  0  0  0  0
 28 86  1  0  0  0  0
 29 88  1  0  0  0  0
 30 89  1  0  0  0  0
 31 90  1  0  0  0  0
 32 69  2  0  0  0  0
 33 70  1  0  0  0  0
 33 73  1  0  0  0  0
 34 74  1  0  0  0  0
 34 80  2  0  0  0  0
 35 50  1  0  0  0  0
 35 76  1  0  0  0  0
 35 81  2  0  0  0  0
 36 66  1  0  0  0  0
 36 71  1  0  0  0  0
 36 82  2  0  0  0  0
 37 60  1  0  0  0  0
 37 75  1  0  0  0  0
 37 83  2  0  0  0  0
 38 67  1  0  0  0  0
 38 77  1  0  0  0  0
 38 84  2  0  0  0  0
 39 72  1  0  0  0  0
 39 78  1  0  0  0  0
 39 85  2  0  0  0  0
 40 43  1  0  0  0  0
 41 50  1  0  0  0  0
 42 71  1  0  0  0  0
 43 45  1  0  0  0  0
 44 46  1  0  0  0  0
 44 47  1  0  0  0  0
 45 49  1  0  0  0  0
 46 51  1  0  0  0  0
 47 72  1  0  0  0  0
 48 51  1  0  0  0  0
 48 72  1  0  0  0  0
 49 76  1  0  0  0  0
 50 71  1  0  0  0  0
 51 70  1  0  0  0  0
 53 59  1  0  0  0  0
 54 67  1  0  0  0  0
 55 68  1  0  0  0  0
 56 68  1  0  0  0  0
 57 68  1  0  0  0  0
 58 79  1  0  0  0  0
 60 61  1  0  0  0  0
 61 64  1  0  0  0  0
 62 63  1  0  0  0  0
 62 65  1  0  0  0  0
 63 78  1  0  0  0  0
 64 87  1  0  0  0  0
 65 88  1  0  0  0  0
 66 68  1  0  0  0  0
 66 77  1  0  0  0  0
 67 79  1  0  0  0  0
 69 70  1  0  0  0  0
M  CHG  1  79   1
M  ISO  4  39 100  64 101  78 100  87 101
M  END
> <Batch ID>
0007

> <Smiles>
CCc1cc(NC(=O)CC[101CH2:1][101O:1]c2ccc3c(c2)CN(C(=O)C(NC(=O)C(C)NC)C(C)(C)C)C(C(=O)NC2CCCc4ccccc42)C3)cc(C)c1OCCC[100NH:0][100C:0](=O)N1CCCC(n2nc(-c3ccc(Oc4ccc(F)cc4F)cc3)c(C(N)=O)c2N)C1

> <Shape>
0.294

> <Color>
0.188

> <Negative vol penalty>
0.000

$$$$

  -OEChem-04052315333D

 88 96  0     1  0  0  0  0  0999 V2000
  -26.8987  -33.5266   26.5724 C   0  0  0  0  0  0  0  0  0  0  0  0
  -27.3008  -32.4302   25.8165 C   0  0  0  0  0  0  0  0  0  0  0  0
  -22.7411  -12.0151   22.4521 C   0  0  0  0  0  0  0  0  0  0  0  0
  -24.9146  -11.8016   21.4188 C   0  0  0  0  0  0  0  0  0  0  0  0
  -25.5575  -33.6762   26.9226 C   0  0  0  0  0  0  0  0  0  0  0  0
  -26.3621  -31.4821   25.4112 C   0  0  0  0  0  0  0  0  0  0  0  0
  -26.9190  -30.1481   20.5578 C   0  0  0  0  0  0  0  0  0  0  0  0
  -31.9634  -21.9679   20.1733 C   0  0  0  0  0  0  0  0  0  0  0  0
  -22.2375  -11.0367   21.5950 C   0  0  0  0  0  0  0  0  0  0  0  0
  -24.4109  -10.8231   20.5617 C   0  0  0  0  0  0  0  0  0  0  0  0
  -27.9436  -29.2515   20.2575 C   0  0  0  0  0  0  0  0  0  0  0  0
  -31.8958  -23.3589   20.0940 C   0  0  0  0  0  0  0  0  0  0  0  0
  -20.4692   -8.3376   19.9208 C   0  0  0  0  0  0  0  0  0  0  0  0
  -19.6628   -7.3432   20.4744 C   0  0  0  0  0  0  0  0  0  0  0  0
  -26.3388  -27.4519   20.1835 C   0  0  0  0  0  0  0  0  0  0  0  0
  -29.9967  -21.7929   18.7809 C   0  0  0  0  0  0  0  0  0  0  0  0
  -21.4824   -6.6687   21.9135 C   0  0  0  0  0  0  0  0  0  0  0  0
  -24.0797  -12.3976   22.3639 C   0  0  0  0  0  0  0  0  0  0  0  0
  -25.1833  -13.2119   24.5149 C   0  0  0  0  0  0  0  0  0  0  0  0
  -24.6002  -32.7346   26.5132 C   0  0  0  0  0  0  0  0  0  0  0  0
  -25.5960  -29.7008   20.6842 C   0  0  0  0  0  0  0  0  0  0  0  0
  -25.0070  -31.6185   25.7574 C   0  0  0  0  0  0  0  0  0  0  0  0
  -25.2989  -28.3453   20.4830 C   0  0  0  0  0  0  0  0  0  0  0  0
  -31.0139  -21.1849   19.5166 C   0  0  0  0  0  0  0  0  0  0  0  0
  -23.0724  -10.4407   20.6498 C   0  0  0  0  0  0  0  0  0  0  0  0
  -27.6540  -27.9027   20.0731 C   0  0  0  0  0  0  0  0  0  0  0  0
  -21.7823   -8.4975   20.3635 C   0  0  0  0  0  0  0  0  0  0  0  0
  -30.8786  -23.9669   19.3582 C   0  0  0  0  0  0  0  0  0  0  0  0
  -20.1694   -6.5088   21.4707 C   0  0  0  0  0  0  0  0  0  0  0  0
  -22.2889   -7.6631   21.3598 C   0  0  0  0  0  0  0  0  0  0  0  0
  -29.9291  -23.1839   18.7017 C   0  0  0  0  0  0  0  0  0  0  0  0
  -24.6004  -13.4087   23.2487 C   0  0  0  0  0  0  0  0  0  0  0  0
  -25.5113  -14.4755   24.9419 C   0  0  0  0  0  0  0  0  0  0  0  0
  -25.4081  -11.9958   25.2402 C   0  0  0  0  0  0  0  0  0  0  0  0
  -23.4578  -29.6574   23.0358 C   0  0  0  0  0  0  0  0  0  0  0  0
  -26.6348  -19.5595   21.9415 C   0  0  0  0  0  0  0  0  0  0  0  0
  -21.4871  -28.5720   20.6991 C   0  0  0  0  0  0  0  0  0  0  0  0
  -30.0216  -18.9863   20.1466 C   0  0  0  0  0  0  0  0  0  0  0  0
  -21.1546  -27.0071   17.6845 C   0  0  0  0  0  0  0  0  0  0  0  0
  -23.1697  -32.9140   26.9562 C   0  0  0  0  0  0  0  0  0  0  0  0
  -24.4984  -30.6850   20.9823 C   0  0  0  0  0  0  0  0  0  0  0  0
  -23.8921  -27.8177   20.5876 C   0  0  0  0  0  0  0  0  0  0  0  0
  -22.1771  -32.0618   26.1695 C   0  0  0  0  0  0  0  0  0  0  0  0
  -24.1876  -19.0447   24.5079 C   0  0  0  0  0  0  0  0  0  0  0  0
  -22.6862  -30.6295   26.0427 C   0  0  0  0  0  0  0  0  0  0  0  0
  -24.0482  -17.5242   24.5711 C   0  0  0  0  0  0  0  0  0  0  0  0
  -24.4410  -19.5233   23.0817 C   0  0  0  0  0  0  0  0  0  0  0  0
  -25.4814  -17.3587   22.4870 C   0  0  0  0  0  0  0  0  0  0  0  0
  -24.0144  -30.5818   25.2778 C   0  0  1  0  0  0  0  0  0  0  0  0
  -23.2620  -30.0340   21.5945 C   0  0  1  0  0  0  0  0  0  0  0  0
  -25.2551  -16.8307   23.9147 C   0  0  2  0  0  0  0  0  0  0  0  0
  -33.2689  -18.1117   16.8855 C   0  0  0  0  0  0  0  0  0  0  0  0
  -19.4167  -26.2300   16.0496 C   0  0  0  0  0  0  0  0  0  0  0  0
  -20.8325  -26.2128   22.5199 C   0  0  0  0  0  0  0  0  0  0  0  0
  -19.8853  -25.0280   20.5281 C   0  0  0  0  0  0  0  0  0  0  0  0
  -18.8673  -27.1690   21.3043 C   0  0  0  0  0  0  0  0  0  0  0  0
  -22.2145  -28.7590   15.5477 C   0  0  0  0  0  0  0  0  0  0  0  0
  -27.7750  -18.7701   21.3492 C   0  0  0  0  0  0  0  0  0  0  0  0
  -28.8430  -19.7112   20.7983 C   0  0  0  0  0  0  0  0  0  0  0  0
  -32.0789  -18.8314   17.5042 C   0  0  0  0  0  0  0  0  0  0  0  0
  -32.2647  -19.1055   18.9917 C   0  0  0  0  0  0  0  0  0  0  0  0
  -29.9502  -27.3240   20.2926 C   0  0  0  0  0  0  0  0  0  1  0  0
  -30.6983  -26.0269   20.5327 C   0  0  0  0  0  0  0  0  0  0  0  0
  -21.1196  -27.2120   20.1566 C   0  0  1  0  0  0  0  0  0  0  0  0
  -20.3491  -27.3634   16.4481 C   0  0  2  0  0  0  0  0  0  0  0  0
  -20.2031  -26.4147   21.1271 C   0  0  0  0  0  0  0  0  0  0  0  0
  -24.5590  -14.6958   22.8944 N   0  0  0  0  0  0  0  0  0  0  0  0
  -25.1199  -15.3194   23.9445 N   0  0  0  0  0  0  0  0  0  0  0  0
  -22.8545  -28.8184   20.8871 N   0  0  0  0  0  0  0  0  0  0  0  0
  -25.5811  -18.8248   22.4856 N   0  0  0  0  0  0  0  0  0  0  0  0
  -26.0935  -14.9359   26.0696 N   0  0  0  0  0  0  0  0  0  0  0  0
  -25.0104  -10.7858   24.6554 N   0  0  0  0  0  0  0  0  0  0  0  0
  -23.7840  -30.7207   23.8558 N   0  0  0  0  0  0  0  0  0  0  0  0
  -20.5378  -27.4418   18.8386 N   0  0  0  0  0  0  0  0  0  0  0  0
  -31.0820  -19.7937   19.5964 N   0  0  0  0  0  0  0  0  0  0  0  0
  -21.2581  -27.6491   15.3023 N   0  3  0  0  0  0  0  0  0  0  0  0
  -25.9309  -11.9840   26.3804 O   0  0  0  0  0  0  0  0  0  0  0  0
  -23.3216  -28.4888   23.3788 O   0  0  0  0  0  0  0  0  0  0  0  0
  -26.6824  -20.7922   21.9230 O   0  0  0  0  0  0  0  0  0  0  0  0
  -20.5943  -29.3884   20.9401 O   0  0  0  0  0  0  0  0  0  0  0  0
  -30.0461  -17.7531   20.1410 O   0  0  0  0  0  0  0  0  0  0  0  0
  -22.2221  -26.4005   17.6321 O   0  0  0  0  0  0  0  0  0  0  0  0
  -22.5813   -9.4857   19.8134 O   0  0  0  0  0  0  0  0  0  0  0  0
  -28.6522  -27.0253   19.7805 O   0  0  0  0  0  0  0  0  0  1  0  0
  -30.8369  -25.3350   19.2977 O   0  0  0  0  0  0  0  0  0  0  0  0
  -19.3944   -5.5549   22.0034 F   0  0  0  0  0  0  0  0  0  0  0  0
  -23.5491   -7.8127   21.7901 F   0  0  0  0  0  0  0  0  0  0  0  0
  -28.6605  -23.9098   17.7851 Cl  0  0  0  0  0  0  0  0  0  0  0  0
  1  2  1  0  0  0  0
  1  5  2  0  0  0  0
  2  6  2  0  0  0  0
  3  9  2  0  0  0  0
  3 18  1  0  0  0  0
  4 10  1  0  0  0  0
  4 18  2  0  0  0  0
  5 20  1  0  0  0  0
  6 22  1  0  0  0  0
  7 11  2  0  0  0  0
  7 21  1  0  0  0  0
  8 12  2  0  0  0  0
  8 24  1  0  0  0  0
  9 25  1  0  0  0  0
 10 25  2  0  0  0  0
 11 26  1  0  0  0  0
 12 28  1  0  0  0  0
 13 14  2  0  0  0  0
 13 27  1  0  0  0  0
 14 29  1  0  0  0  0
 15 23  1  0  0  0  0
 15 26  2  0  0  0  0
 16 24  2  0  0  0  0
 16 31  1  0  0  0  0
 17 29  2  0  0  0  0
 17 30  1  0  0  0  0
 18 32  1  0  0  0  0
 19 32  1  0  0  0  0
 19 33  2  0  0  0  0
 19 34  1  0  0  0  0
 20 22  2  0  0  0  0
 20 40  1  0  0  0  0
 21 23  2  0  0  0  0
 21 41  1  0  0  0  0
 22 49  1  0  0  0  0
 23 42  1  0  0  0  0
 24 75  1  0  0  0  0
 25 83  1  0  0  0  0
 26 84  1  0  0  0  0
 27 30  2  0  0  0  0
 27 83  1  0  0  0  0
 28 31  2  0  0  0  0
 28 85  1  0  0  0  0
 29 86  1  0  0  0  0
 30 87  1  0  0  0  0
 31 88  1  0  0  0  0
 32 67  2  0  0  0  0
 33 68  1  0  0  0  0
 33 71  1  0  0  0  0
 34 72  1  0  0  0  0
 34 77  2  0  0  0  0
 35 50  1  0  0  0  0
 35 73  1  0  0  0  0
 35 78  2  0  0  0  0
 36 58  1  0  0  0  0
 36 70  1  0  0  0  0
 36 79  2  0  0  0  0
 37 64  1  0  0  0  0
 37 69  1  0  0  0  0
 37 80  2  0  0  0  0
 38 59  1  0  0  0  0
 38 75  1  0  0  0  0
 38 81  2  0  0  0  0
 39 65  1  0  0  0  0
 39 74  1  0  0  0  0
 39 82  2  0  0  0  0
 40 43  1  0  0  0  0
 41 50  1  0  0  0  0
 42 69  1  0  0  0  0
 43 45  1  0  0  0  0
 44 46  1  0  0  0  0
 44 47  1  0  0  0  0
 45 49  1  0  0  0  0
 46 51  1  0  0  0  0
 47 70  1  0  0  0  0
 48 51  1  0  0  0  0
 48 70  1  0  0  0  0
 49 73  1  0  0  0  0
 50 69  1  0  0  0  0
 51 68  1  0  0  0  0
 52 60  1  0  0  0  0
 53 65  1  0  0  0  0
 54 66  1  0  0  0  0
 55 66  1  0  0  0  0
 56 66  1  0  0  0  0
 57 76  1  0  0  0  0
 58 59  1  0  0  0  0
 60 61  1  0  0  0  0
 61 75  1  0  0  0  0
 62 63  1  0  0  0  0
 62 84  1  0  0  0  0
 63 85  1  0  0  0  0
 64 66  1  0  0  0  0
 64 74  1  0  0  0  0
 65 76  1  0  0  0  0
 67 68  1  0  0  0  0
M  CHG  1  76   1
M  ISO  4  36 100  58 100  62 101  84 101
M  END
> <Batch ID>
0007

> <Smiles>
CCCN(C(=O)C[100CH2:0][100C:0](=O)N1CCCC(n2nc(-c3ccc(Oc4ccc(F)cc4F)cc3)c(C(N)=O)c2N)C1)c1ccc(OC[101CH2:1][101O:1]c2ccc3c(c2)CN(C(=O)C(NC(=O)C(C)NC)C(C)(C)C)C(C(=O)NC2CCCc4ccccc42)C3)c(Cl)c1

> <Shape>
0.260

> <Color>
0.086

> <Negative vol penalty>
0.000

$$$$

  -OEChem-04052315333D

 82 90  0     1  0  0  0  0  0999 V2000
  -25.5123  -37.7306   22.2187 C   0  0  0  0  0  0  0  0  0  0  0  0
  -26.2941  -36.6714   21.7691 C   0  0  0  0  0  0  0  0  0  0  0  0
  -26.4696  -11.6758   21.2428 C   0  0  0  0  0  0  0  0  0  0  0  0
  -25.3628  -13.3324   19.8761 C   0  0  0  0  0  0  0  0  0  0  0  0
  -24.5164  -37.5066   23.1685 C   0  0  0  0  0  0  0  0  0  0  0  0
  -26.0812  -35.3875   22.2699 C   0  0  0  0  0  0  0  0  0  0  0  0
  -26.6628  -30.1053   19.2258 C   0  0  0  0  0  0  0  0  0  0  0  0
  -25.2345  -11.1068   21.5533 C   0  0  0  0  0  0  0  0  0  0  0  0
  -24.1277  -12.7633   20.1866 C   0  0  0  0  0  0  0  0  0  0  0  0
  -27.6908  -29.1654   19.1661 C   0  0  0  0  0  0  0  0  0  0  0  0
  -22.4018   -8.9983   22.4165 C   0  0  0  0  0  0  0  0  0  0  0  0
  -22.2962   -7.6085   22.3630 C   0  0  0  0  0  0  0  0  0  0  0  0
  -26.5837  -27.8558   20.8627 C   0  0  0  0  0  0  0  0  0  0  0  0
  -27.8525  -22.7448   19.7738 C   0  0  0  0  0  0  0  0  0  0  0  0
  -30.1447  -22.8067   19.0129 C   0  0  0  0  0  0  0  0  0  0  0  0
  -22.8935   -7.6533   20.0224 C   0  0  0  0  0  0  0  0  0  0  0  0
  -26.5337  -12.7886   20.4042 C   0  0  0  0  0  0  0  0  0  0  0  0
  -28.6498  -13.0480   19.0033 C   0  0  0  0  0  0  0  0  0  0  0  0
  -24.2848  -36.2176   23.6739 C   0  0  0  0  0  0  0  0  0  0  0  0
  -25.5912  -29.9327   20.1137 C   0  0  0  0  0  0  0  0  0  0  0  0
  -25.0822  -35.1462   23.2282 C   0  0  0  0  0  0  0  0  0  0  0  0
  -25.5421  -28.7936   20.9299 C   0  0  0  0  0  0  0  0  0  0  0  0
  -28.0649  -21.4750   20.3105 C   0  0  0  0  0  0  0  0  0  0  0  0
  -30.3571  -21.5368   19.5496 C   0  0  0  0  0  0  0  0  0  0  0  0
  -29.3172  -20.8710   20.1984 C   0  0  0  0  0  0  0  0  0  0  0  0
  -24.0636  -11.6505   21.0252 C   0  0  0  0  0  0  0  0  0  0  0  0
  -27.6528  -28.0419   19.9866 C   0  0  0  0  0  0  0  0  0  0  0  0
  -22.7531   -9.7157   21.2729 C   0  0  0  0  0  0  0  0  0  0  0  0
  -28.8924  -23.4106   19.1249 C   0  0  0  0  0  0  0  0  0  0  0  0
  -22.5421   -6.9360   21.1660 C   0  0  0  0  0  0  0  0  0  0  0  0
  -22.9990   -9.0431   20.0759 C   0  0  0  0  0  0  0  0  0  0  0  0
  -27.8092  -13.3772   20.0835 C   0  0  0  0  0  0  0  0  0  0  0  0
  -29.7301  -13.8850   19.1415 C   0  0  0  0  0  0  0  0  0  0  0  0
  -28.4703  -12.0730   17.9676 C   0  0  0  0  0  0  0  0  0  0  0  0
  -24.4453  -31.5629   22.5902 C   0  0  0  0  0  0  0  0  0  0  0  0
  -22.0784  -29.3489   22.4540 C   0  0  0  0  0  0  0  0  0  0  0  0
  -21.0828  -26.2270   21.5003 C   0  0  0  0  0  0  0  0  0  0  0  0
  -30.4540  -19.2229   21.7275 C   0  0  0  0  0  0  0  0  0  0  0  0
  -23.2283  -36.0327   24.7343 C   0  0  0  0  0  0  0  0  0  0  0  0
  -24.4767  -30.9423   20.1469 C   0  0  0  0  0  0  0  0  0  0  0  0
  -24.4036  -28.5515   21.8857 C   0  0  0  0  0  0  0  0  0  0  0  0
  -22.8173  -34.5766   24.9373 C   0  0  0  0  0  0  0  0  0  0  0  0
  -32.2438  -16.2363   22.4712 C   0  0  0  0  0  0  0  0  0  0  0  0
  -24.0493  -33.6816   25.0266 C   0  0  0  0  0  0  0  0  0  0  0  0
  -31.3894  -15.1348   21.8397 C   0  0  0  0  0  0  0  0  0  0  0  0
  -31.3840  -17.3489   23.0683 C   0  0  0  0  0  0  0  0  0  0  0  0
  -29.5404  -16.8276   21.5197 C   0  0  0  0  0  0  0  0  0  0  0  0
  -24.8651  -33.7348   23.7292 C   0  0  1  0  0  0  0  0  0  0  0  0
  -23.6938  -30.9251   21.4561 C   0  0  1  0  0  0  0  0  0  0  0  0
  -30.3634  -15.7165   20.8475 C   0  0  2  0  0  0  0  0  0  0  0  0
  -26.9317  -20.7870   21.0004 C   0  0  0  0  0  0  0  0  0  0  0  0
  -31.7094  -20.9155   19.4122 C   0  0  0  0  0  0  0  0  0  0  0  0
  -19.1020  -24.6874   21.5587 C   0  0  0  0  0  0  0  0  0  0  0  0
  -22.6072  -28.7845   25.4056 C   0  0  0  0  0  0  0  0  0  0  0  0
  -21.3160  -26.6539   25.1577 C   0  0  0  0  0  0  0  0  0  0  0  0
  -20.1886  -28.8455   24.7721 C   0  0  0  0  0  0  0  0  0  0  0  0
  -20.9479  -26.1000   18.5465 C   0  0  0  0  0  0  0  0  0  0  0  0
  -29.3208  -26.9634   18.6787 C   0  0  0  0  0  0  0  0  0  1  0  0
  -29.8043  -25.5316   18.5541 C   0  0  0  0  0  0  0  0  0  0  0  0
  -21.8495  -27.9894   23.0690 C   0  0  1  0  0  0  0  0  0  0  0  0
  -19.8476  -25.7457   20.7607 C   0  0  2  0  0  0  0  0  0  0  0  0
  -21.5129  -28.0736   24.5846 C   0  0  0  0  0  0  0  0  0  0  0  0
  -28.3122  -14.3475   20.8513 N   0  0  0  0  0  0  0  0  0  0  0  0
  -29.4807  -14.6351   20.2529 N   0  0  0  0  0  0  0  0  0  0  0  0
  -23.3410  -29.5705   21.8860 N   0  0  0  0  0  0  0  0  0  0  0  0
  -30.4392  -17.8543   22.0700 N   0  0  0  0  0  0  0  0  0  0  0  0
  -30.8595  -14.0450   18.4195 N   0  0  0  0  0  0  0  0  0  0  0  0
  -27.3026  -11.2978   17.9750 N   0  0  0  0  0  0  0  0  0  0  0  0
  -29.5330  -19.5810   20.7435 N   0  0  0  0  0  0  0  0  0  0  0  0
  -24.2402  -32.9245   22.7058 N   0  0  0  0  0  0  0  0  0  0  0  0
  -20.8184  -27.3450   22.2628 N   0  0  0  0  0  0  0  0  0  0  0  0
  -20.2275  -25.1605   19.4439 N   0  3  0  0  0  0  0  0  0  0  0  0
  -29.3276  -11.8830   17.0719 O   0  0  0  0  0  0  0  0  0  0  0  0
  -25.1573  -30.8706   23.3082 O   0  0  0  0  0  0  0  0  0  0  0  0
  -21.1680  -30.1811   22.4704 O   0  0  0  0  0  0  0  0  0  0  0  0
  -22.1724  -25.6650   21.4134 O   0  0  0  0  0  0  0  0  0  0  0  0
  -31.2453  -20.0136   22.2477 O   0  0  0  0  0  0  0  0  0  0  0  0
  -22.8583  -11.0954   21.3279 O   0  0  0  0  0  0  0  0  0  0  0  0
  -28.6552  -27.1233   19.9308 O   0  0  0  0  0  0  0  0  0  1  0  0
  -28.6832  -24.6572   18.5963 O   0  0  0  0  0  0  0  0  0  0  0  0
  -22.4423   -5.6012   21.1151 F   0  0  0  0  0  0  0  0  0  0  0  0
  -23.3381   -9.7267   18.9743 F   0  0  0  0  0  0  0  0  0  0  0  0
  1  2  1  0  0  0  0
  1  5  2  0  0  0  0
  2  6  2  0  0  0  0
  3  8  2  0  0  0  0
  3 17  1  0  0  0  0
  4  9  1  0  0  0  0
  4 17  2  0  0  0  0
  5 19  1  0  0  0  0
  6 21  1  0  0  0  0
  7 10  2  0  0  0  0
  7 20  1  0  0  0  0
  8 26  1  0  0  0  0
  9 26  2  0  0  0  0
 10 27  1  0  0  0  0
 11 12  2  0  0  0  0
 11 28  1  0  0  0  0
 12 30  1  0  0  0  0
 13 22  1  0  0  0  0
 13 27  2  0  0  0  0
 14 23  2  0  0  0  0
 14 29  1  0  0  0  0
 15 24  1  0  0  0  0
 15 29  2  0  0  0  0
 16 30  2  0  0  0  0
 16 31  1  0  0  0  0
 17 32  1  0  0  0  0
 18 32  1  0  0  0  0
 18 33  2  0  0  0  0
 18 34  1  0  0  0  0
 19 21  2  0  0  0  0
 19 39  1  0  0  0  0
 20 22  2  0  0  0  0
 20 40  1  0  0  0  0
 21 48  1  0  0  0  0
 22 41  1  0  0  0  0
 23 25  1  0  0  0  0
 23 51  1  0  0  0  0
 24 25  2  0  0  0  0
 24 52  1  0  0  0  0
 25 69  1  0  0  0  0
 26 78  1  0  0  0  0
 27 79  1  0  0  0  0
 28 31  2  0  0  0  0
 28 78  1  0  0  0  0
 29 80  1  0  0  0  0
 30 81  1  0  0  0  0
 31 82  1  0  0  0  0
 32 63  2  0  0  0  0
 33 64  1  0  0  0  0
 33 67  1  0  0  0  0
 34 68  1  0  0  0  0
 34 73  2  0  0  0  0
 35 49  1  0  0  0  0
 35 70  1  0  0  0  0
 35 74  2  0  0  0  0
 36 60  1  0  0  0  0
 36 65  1  0  0  0  0
 36 75  2  0  0  0  0
 37 61  1  0  0  0  0
 37 71  1  0  0  0  0
 37 76  2  0  0  0  0
 38 66  1  0  0  0  0
 38 69  1  0  0  0  0
 38 77  2  0  0  0  0
 39 42  1  0  0  0  0
 40 49  1  0  0  0  0
 41 65  1  0  0  0  0
 42 44  1  0  0  0  0
 43 45  1  0  0  0  0
 43 46  1  0  0  0  0
 44 48  1  0  0  0  0
 45 50  1  0  0  0  0
 46 66  1  0  0  0  0
 47 50  1  0  0  0  0
 47 66  1  0  0  0  0
 48 70  1  0  0  0  0
 49 65  1  0  0  0  0
 50 64  1  0  0  0  0
 53 61  1  0  0  0  0
 54 62  1  0  0  0  0
 55 62  1  0  0  0  0
 56 62  1  0  0  0  0
 57 72  1  0  0  0  0
 58 59  1  0  0  0  0
 58 79  1  0  0  0  0
 59 80  1  0  0  0  0
 60 62  1  0  0  0  0
 60 71  1  0  0  0  0
 61 72  1  0  0  0  0
 63 64  1  0  0  0  0
M  CHG  1  72   1
M  ISO  4  38 100  58 101  69 100  79 101
M  END
> <Batch ID>
0007

> <Smiles>
CNC(C)C(=O)NC(C(=O)N1Cc2cc([101O:1][101CH2:1]COc3cc(C)c([100NH:0][100C:0](=O)N4CCCC(n5nc(-c6ccc(Oc7ccc(F)cc7F)cc6)c(C(N)=O)c5N)C4)c(C)c3)ccc2CC1C(=O)NC1CCCc2ccccc21)C(C)(C)C

> <Shape>
0.384

> <Color>
0.070

> <Negative vol penalty>
0.000

$$$$

  -OEChem-04052315333D

 89 96  0     1  0  0  0  0  0999 V2000
  -28.5225  -24.0596   19.7795 C   0  0  0  0  0  0  0  0  0  0  0  0
  -27.3674  -24.8335   19.8272 C   0  0  0  0  0  0  0  0  0  0  0  0
  -26.1460  -13.5557   19.7069 C   0  0  0  0  0  0  0  0  0  0  0  0
  -24.3060  -13.7091   21.2651 C   0  0  0  0  0  0  0  0  0  0  0  0
  -29.4087  -24.0650   20.8559 C   0  0  0  0  0  0  0  0  0  0  0  0
  -27.0972  -25.6124   20.9518 C   0  0  0  0  0  0  0  0  0  0  0  0
  -25.5378  -30.2791   19.7538 C   0  0  0  0  0  0  0  0  0  0  0  0
  -26.2629  -12.1927   19.9790 C   0  0  0  0  0  0  0  0  0  0  0  0
  -24.4228  -12.3460   21.5372 C   0  0  0  0  0  0  0  0  0  0  0  0
  -24.2125  -30.4222   19.3451 C   0  0  0  0  0  0  0  0  0  0  0  0
  -23.5300   -9.4312   20.0787 C   0  0  0  0  0  0  0  0  0  0  0  0
  -22.3570   -8.6776   20.1217 C   0  0  0  0  0  0  0  0  0  0  0  0
  -23.6209  -31.1913   21.5537 C   0  0  0  0  0  0  0  0  0  0  0  0
  -22.8258   -8.0789   22.4150 C   0  0  0  0  0  0  0  0  0  0  0  0
  -25.1676  -14.3139   20.3500 C   0  0  0  0  0  0  0  0  0  0  0  0
  -24.2546  -16.3260   19.0751 C   0  0  0  0  0  0  0  0  0  0  0  0
  -29.1541  -24.8518   21.9903 C   0  0  0  0  0  0  0  0  0  0  0  0
  -25.9131  -30.5811   21.0707 C   0  0  0  0  0  0  0  0  0  0  0  0
  -27.9801  -25.6273   22.0449 C   0  0  0  0  0  0  0  0  0  0  0  0
  -24.9520  -31.0536   21.9758 C   0  0  0  0  0  0  0  0  0  0  0  0
  -25.4012  -11.5878   20.8941 C   0  0  0  0  0  0  0  0  0  0  0  0
  -23.2533  -30.8757   20.2459 C   0  0  0  0  0  0  0  0  0  0  0  0
  -24.3509   -9.5085   21.2038 C   0  0  0  0  0  0  0  0  0  0  0  0
  -22.0049   -8.0015   21.2899 C   0  0  0  0  0  0  0  0  0  0  0  0
  -23.9988   -8.8324   22.3719 C   0  0  0  0  0  0  0  0  0  0  0  0
  -25.0468  -15.7221   20.0698 C   0  0  0  0  0  0  0  0  0  0  0  0
  -24.4884  -17.6717   19.2199 C   0  0  0  0  0  0  0  0  0  0  0  0
  -23.3851  -15.7244   18.1067 C   0  0  0  0  0  0  0  0  0  0  0  0
  -27.1455  -28.9249   23.4878 C   0  0  0  0  0  0  0  0  0  0  0  0
  -27.2833  -31.8399   24.9042 C   0  0  0  0  0  0  0  0  0  0  0  0
  -22.9068  -21.0507   25.2561 C   0  0  0  0  0  0  0  0  0  0  0  0
  -26.0857  -35.0302   25.0902 C   0  0  0  0  0  0  0  0  0  0  0  0
  -26.2609  -21.0268   23.8517 C   0  0  0  0  0  0  0  0  0  0  0  0
  -30.1176  -24.7886   23.1488 C   0  0  0  0  0  0  0  0  0  0  0  0
  -27.3518  -30.4467   21.4884 C   0  0  0  0  0  0  0  0  0  0  0  0
  -25.3074  -31.4107   23.3952 C   0  0  0  0  0  0  0  0  0  0  0  0
  -29.9458  -25.9307   24.1470 C   0  0  0  0  0  0  0  0  0  0  0  0
  -27.8462  -20.7535   20.6754 C   0  0  0  0  0  0  0  0  0  0  0  0
  -28.4713  -26.1268   24.4852 C   0  0  0  0  0  0  0  0  0  0  0  0
  -27.2370  -19.4876   20.0702 C   0  0  0  0  0  0  0  0  0  0  0  0
  -28.0459  -20.6186   22.1833 C   0  0  0  0  0  0  0  0  0  0  0  0
  -26.2306  -18.9581   22.3298 C   0  0  0  0  0  0  0  0  0  0  0  0
  -27.6646  -26.5045   23.2370 C   0  0  1  0  0  0  0  0  0  0  0  0
  -27.5244  -30.2934   22.9964 C   0  0  1  0  0  0  0  0  0  0  0  0
  -25.9585  -19.0670   20.8197 C   0  0  2  0  0  0  0  0  0  0  0  0
  -26.3687  -37.1689   26.3720 C   0  0  0  0  0  0  0  0  0  0  0  0
  -25.0940  -23.1297   27.8827 C   0  0  0  0  0  0  0  0  0  0  0  0
  -24.9813  -21.0949   29.3311 C   0  0  0  0  0  0  0  0  0  0  0  0
  -25.7517  -30.6331   27.2512 C   0  0  0  0  0  0  0  0  0  0  0  0
  -25.2436  -32.9592   28.0254 C   0  0  0  0  0  0  0  0  0  0  0  0
  -27.6090  -32.1768   27.9007 C   0  0  0  0  0  0  0  0  0  0  0  0
  -26.8781  -36.5186   22.6580 C   0  0  0  0  0  0  0  0  0  0  0  0
  -20.3582  -25.9882   22.2672 C   0  0  0  0  0  0  0  0  0  0  0  0
  -19.7306  -27.3578   21.9980 C   0  0  0  0  0  0  0  0  0  0  0  0
  -19.9162  -25.4302   23.6211 C   0  0  0  0  0  0  0  0  0  0  0  0
  -20.1996  -27.9281   20.6580 C   0  0  0  0  0  0  0  0  0  0  0  0
  -20.5697  -24.0763   23.9055 C   0  0  0  0  0  0  0  0  0  0  0  0
  -19.6067  -29.3043   20.3409 C   0  0  0  0  0  0  0  0  0  0  0  0
  -20.0954  -23.5012   25.2433 C   0  0  0  0  0  0  0  0  0  0  0  0
  -19.9963  -29.8996   18.9871 C   0  0  0  0  0  0  0  0  0  0  0  0
  -24.8651  -20.8134   26.8372 C   0  0  0  0  0  0  0  0  0  0  0  0
  -20.6840  -22.1230   25.5284 C   0  0  0  0  0  0  0  0  0  0  0  0
  -21.4930  -30.1354   18.8285 C   0  0  0  0  0  0  0  0  0  1  0  0
  -26.3478  -32.6567   25.7626 C   0  0  1  0  0  0  0  0  0  0  0  0
  -24.3946  -21.3050   25.4638 C   0  0  1  0  0  0  0  0  0  0  0  0
  -26.7956  -36.3707   25.1500 C   0  0  2  0  0  0  0  0  0  0  0  0
  -24.4982  -21.7281   28.0227 C   0  0  0  0  0  0  0  0  0  0  0  0
  -26.2306  -32.0980   27.2088 C   0  0  0  0  0  0  0  0  0  0  0  0
  -25.7327  -16.6112   20.7930 N   0  0  0  0  0  0  0  0  0  0  0  0
  -25.3722  -17.7875   20.2522 N   0  0  0  0  0  0  0  0  0  0  0  0
  -26.7260  -31.2565   23.7575 N   0  0  0  0  0  0  0  0  0  0  0  0
  -26.7959  -20.2193   22.8345 N   0  0  0  0  0  0  0  0  0  0  0  0
  -24.0221  -18.7554   18.5637 N   0  0  0  0  0  0  0  0  0  0  0  0
  -23.2609  -14.3284   18.0963 N   0  0  0  0  0  0  0  0  0  0  0  0
  -27.8668  -27.8991   22.9074 N   0  0  0  0  0  0  0  0  0  0  0  0
  -22.1188  -22.1411   25.6069 N   0  0  0  0  0  0  0  0  0  0  0  0
  -26.8253  -34.0334   25.6908 N   0  0  0  0  0  0  0  0  0  0  0  0
  -25.0705  -20.5792   24.4115 N   0  0  0  0  0  0  0  0  0  0  0  0
  -26.4886  -37.1742   23.9330 N   0  3  0  0  0  0  0  0  0  0  0  0
  -22.7501  -16.4036   17.2647 O   0  0  0  0  0  0  0  0  0  0  0  0
  -26.2650  -28.8084   24.3321 O   0  0  0  0  0  0  0  0  0  0  0  0
  -28.4665  -31.7296   25.2351 O   0  0  0  0  0  0  0  0  0  0  0  0
  -22.4691  -19.9757   24.8493 O   0  0  0  0  0  0  0  0  0  0  0  0
  -24.9836  -34.8829   24.5666 O   0  0  0  0  0  0  0  0  0  0  0  0
  -26.8010  -22.0722   24.2290 O   0  0  0  0  0  0  0  0  0  0  0  0
  -25.5148  -10.2577   21.1597 O   0  0  0  0  0  0  0  0  0  0  0  0
  -21.9501  -31.0167   19.8471 O   0  0  0  0  0  0  0  0  0  1  0  0
  -20.8776   -7.2792   21.3315 F   0  0  0  0  0  0  0  0  0  0  0  0
  -24.7829   -8.9040   23.4563 F   0  0  0  0  0  0  0  0  0  0  0  0
  1  2  1  0  0  0  0
  1  5  2  0  0  0  0
  2  6  2  0  0  0  0
  3  8  2  0  0  0  0
  3 15  1  0  0  0  0
  4  9  1  0  0  0  0
  4 15  2  0  0  0  0
  5 17  1  0  0  0  0
  6 19  1  0  0  0  0
  7 10  2  0  0  0  0
  7 18  1  0  0  0  0
  8 21  1  0  0  0  0
  9 21  2  0  0  0  0
 10 22  1  0  0  0  0
 11 12  2  0  0  0  0
 11 23  1  0  0  0  0
 12 24  1  0  0  0  0
 13 20  1  0  0  0  0
 13 22  2  0  0  0  0
 14 24  2  0  0  0  0
 14 25  1  0  0  0  0
 15 26  1  0  0  0  0
 16 26  1  0  0  0  0
 16 27  2  0  0  0  0
 16 28  1  0  0  0  0
 17 19  2  0  0  0  0
 17 34  1  0  0  0  0
 18 20  2  0  0  0  0
 18 35  1  0  0  0  0
 19 43  1  0  0  0  0
 20 36  1  0  0  0  0
 21 86  1  0  0  0  0
 22 87  1  0  0  0  0
 23 25  2  0  0  0  0
 23 86  1  0  0  0  0
 24 88  1  0  0  0  0
 25 89  1  0  0  0  0
 26 69  2  0  0  0  0
 27 70  1  0  0  0  0
 27 73  1  0  0  0  0
 28 74  1  0  0  0  0
 28 80  2  0  0  0  0
 29 44  1  0  0  0  0
 29 75  1  0  0  0  0
 29 81  2  0  0  0  0
 30 64  1  0  0  0  0
 30 71  1  0  0  0  0
 30 82  2  0  0  0  0
 31 65  1  0  0  0  0
 31 76  1  0  0  0  0
 31 83  2  0  0  0  0
 32 66  1  0  0  0  0
 32 77  1  0  0  0  0
 32 84  2  0  0  0  0
 33 72  1  0  0  0  0
 33 78  1  0  0  0  0
 33 85  2  0  0  0  0
 34 37  1  0  0  0  0
 35 44  1  0  0  0  0
 36 71  1  0  0  0  0
 37 39  1  0  0  0  0
 38 40  1  0  0  0  0
 38 41  1  0  0  0  0
 39 43  1  0  0  0  0
 40 45  1  0  0  0  0
 41 72  1  0  0  0  0
 42 45  1  0  0  0  0
 42 72  1  0  0  0  0
 43 75  1  0  0  0  0
 44 71  1  0  0  0  0
 45 70  1  0  0  0  0
 46 66  1  0  0  0  0
 47 67  1  0  0  0  0
 48 67  1  0  0  0  0
 49 68  1  0  0  0  0
 50 68  1  0  0  0  0
 51 68  1  0  0  0  0
 52 79  1  0  0  0  0
 53 54  1  0  0  0  0
 53 55  1  0  0  0  0
 54 56  1  0  0  0  0
 55 57  1  0  0  0  0
 56 58  1  0  0  0  0
 57 59  1  0  0  0  0
 58 60  1  0  0  0  0
 59 62  1  0  0  0  0
 60 63  1  0  0  0  0
 61 65  1  0  0  0  0
 61 67  1  0  0  0  0
 62 76  1  0  0  0  0
 63 87  1  0  0  0  0
 64 68  1  0  0  0  0
 64 77  1  0  0  0  0
 65 78  1  0  0  0  0
 66 79  1  0  0  0  0
 69 70  1  0  0  0  0
M  CHG  1  79   1
M  ISO  4  33 100  63 101  78 100  87 101
M  END
> <Batch ID>
0007

> <Smiles>
CNC(C)C(=O)NC(C(=O)N1Cc2cc([101O:1][101CH2:1]CCCCCCCCCNC(=O)C(CC(C)C)[100NH:0][100C:0](=O)N3CCCC(n4nc(-c5ccc(Oc6ccc(F)cc6F)cc5)c(C(N)=O)c4N)C3)ccc2CC1C(=O)NC1CCCc2ccccc21)C(C)(C)C

> <Shape>
0.257

> <Color>
0.087

> <Negative vol penalty>
0.000

$$$$

  -OEChem-04052315333D

 89 97  0     1  0  0  0  0  0999 V2000
  -29.7253  -25.4459   15.9318 C   0  0  0  0  0  0  0  0  0  0  0  0
  -28.4584  -25.8395   16.3474 C   0  0  0  0  0  0  0  0  0  0  0  0
  -23.6348  -15.3575   19.8981 C   0  0  0  0  0  0  0  0  0  0  0  0
  -25.5741  -14.1139   20.6261 C   0  0  0  0  0  0  0  0  0  0  0  0
  -30.8272  -25.6776   16.7525 C   0  0  0  0  0  0  0  0  0  0  0  0
  -28.2944  -26.4756   17.5784 C   0  0  0  0  0  0  0  0  0  0  0  0
  -23.8186  -28.2426   18.6024 C   0  0  0  0  0  0  0  0  0  0  0  0
  -24.2994  -23.1820   19.2813 C   0  0  0  0  0  0  0  0  0  0  0  0
  -22.9878  -14.1631   19.5813 C   0  0  0  0  0  0  0  0  0  0  0  0
  -24.9271  -12.9195   20.3093 C   0  0  0  0  0  0  0  0  0  0  0  0
  -22.7348  -27.4199   18.9062 C   0  0  0  0  0  0  0  0  0  0  0  0
  -23.0999  -23.0601   18.5799 C   0  0  0  0  0  0  0  0  0  0  0  0
  -23.6497   -9.5271   20.0297 C   0  0  0  0  0  0  0  0  0  0  0  0
  -23.7230   -8.4843   20.9531 C   0  0  0  0  0  0  0  0  0  0  0  0
  -22.9760  -27.9748   21.2414 C   0  0  0  0  0  0  0  0  0  0  0  0
  -25.5305  -22.9631   17.2141 C   0  0  0  0  0  0  0  0  0  0  0  0
  -22.6475   -9.8757   22.6097 C   0  0  0  0  0  0  0  0  0  0  0  0
  -24.9280  -15.3329   20.4205 C   0  0  0  0  0  0  0  0  0  0  0  0
  -25.5712  -17.2469   21.9795 C   0  0  0  0  0  0  0  0  0  0  0  0
  -30.6740  -26.3057   17.9995 C   0  0  0  0  0  0  0  0  0  0  0  0
  -24.4972  -28.9302   19.6188 C   0  0  0  0  0  0  0  0  0  0  0  0
  -29.3973  -26.7399   18.4104 C   0  0  0  0  0  0  0  0  0  0  0  0
  -24.0664  -28.8076   20.9475 C   0  0  0  0  0  0  0  0  0  0  0  0
  -25.5147  -23.1335   18.5984 C   0  0  0  0  0  0  0  0  0  0  0  0
  -23.6339  -12.9441   19.7869 C   0  0  0  0  0  0  0  0  0  0  0  0
  -22.3152  -27.2836   20.2262 C   0  0  0  0  0  0  0  0  0  0  0  0
  -23.0755  -10.7443   20.3963 C   0  0  0  0  0  0  0  0  0  0  0  0
  -23.1157  -22.8897   17.1956 C   0  0  0  0  0  0  0  0  0  0  0  0
  -23.2219   -8.6586   22.2431 C   0  0  0  0  0  0  0  0  0  0  0  0
  -24.3310  -22.8412   16.5127 C   0  0  0  0  0  0  0  0  0  0  0  0
  -22.5743  -10.9186   21.6863 C   0  0  0  0  0  0  0  0  0  0  0  0
  -25.5971  -16.5664   20.7474 C   0  0  0  0  0  0  0  0  0  0  0  0
  -26.3582  -18.3541   21.7769 C   0  0  0  0  0  0  0  0  0  0  0  0
  -24.8960  -16.9084   23.1983 C   0  0  0  0  0  0  0  0  0  0  0  0
  -27.4691  -28.9055   20.7460 C   0  0  0  0  0  0  0  0  0  0  0  0
  -26.3978  -31.3938   22.5302 C   0  0  0  0  0  0  0  0  0  0  0  0
  -18.5827  -23.2904   17.5375 C   0  0  0  0  0  0  0  0  0  0  0  0
  -23.7500  -33.0137   23.9487 C   0  0  0  0  0  0  0  0  0  0  0  0
  -27.9361  -22.6302   18.8718 C   0  0  0  0  0  0  0  0  0  0  0  0
  -31.9017  -26.5388   18.8442 C   0  0  0  0  0  0  0  0  0  0  0  0
  -25.6476  -29.8348   19.2713 C   0  0  0  0  0  0  0  0  0  0  0  0
  -24.7483  -29.5403   22.0730 C   0  0  0  0  0  0  0  0  0  0  0  0
  -31.5729  -26.8126   20.3082 C   0  0  0  0  0  0  0  0  0  0  0  0
  -29.4641  -19.5466   17.9774 C   0  0  0  0  0  0  0  0  0  0  0  0
  -30.4962  -27.8828   20.4077 C   0  0  0  0  0  0  0  0  0  0  0  0
  -28.5788  -18.5437   18.7163 C   0  0  0  0  0  0  0  0  0  0  0  0
  -28.6515  -20.6951   17.3785 C   0  0  0  0  0  0  0  0  0  0  0  0
  -26.8958  -20.3863   19.0951 C   0  0  0  0  0  0  0  0  0  0  0  0
  -29.1906  -27.4060   19.7588 C   0  0  1  0  0  0  0  0  0  0  0  0
  -26.5873  -30.0848   20.4469 C   0  0  1  0  0  0  0  0  0  0  0  0
  -27.6925  -19.2510   19.7567 C   0  0  1  0  0  0  0  0  0  0  0  0
  -23.1917  -34.9980   25.3798 C   0  0  0  0  0  0  0  0  0  0  0  0
  -27.3973  -29.8956   24.9932 C   0  0  0  0  0  0  0  0  0  0  0  0
  -25.9981  -31.4203   26.4024 C   0  0  0  0  0  0  0  0  0  0  0  0
  -27.8478  -32.3555   25.0143 C   0  0  0  0  0  0  0  0  0  0  0  0
  -26.8377  -24.2475   20.4058 C   0  0  0  0  0  0  0  0  0  0  0  0
  -22.0880  -34.2265   21.8213 C   0  0  0  0  0  0  0  0  0  0  0  0
  -19.0651  -23.0174   16.1226 C   0  0  0  0  0  0  0  0  0  0  0  0
  -19.8504  -21.7171   15.9829 C   0  0  0  0  0  0  0  0  0  0  0  0
  -19.1772  -25.3856   20.0466 C   0  0  0  0  0  0  0  0  0  0  0  0
  -18.0378  -25.1798   19.0576 C   0  0  0  0  0  0  0  0  0  0  0  0
  -21.0934  -21.6829   16.8643 C   0  0  0  0  0  0  0  0  0  0  0  0
  -20.2474  -26.3385   19.5282 C   0  0  0  0  0  0  0  0  0  1  0  0
  -25.7412  -31.5354   23.8821 C   0  0  1  0  0  0  0  0  0  0  0  0
  -23.3541  -34.4791   23.9595 C   0  0  2  0  0  0  0  0  0  0  0  0
  -26.7342  -31.2862   25.0523 C   0  0  0  0  0  0  0  0  0  0  0  0
  -26.3415  -17.1893   19.8299 N   0  0  0  0  0  0  0  0  0  0  0  0
  -26.7906  -18.2729   20.4859 N   0  0  0  0  0  0  0  0  0  0  0  0
  -25.8722  -30.4077   21.6833 N   0  0  0  0  0  0  0  0  0  0  0  0
  -27.7919  -21.3124   18.3984 N   0  0  0  0  0  0  0  0  0  0  0  0
  -26.7157  -19.3796   22.5788 N   0  0  0  0  0  0  0  0  0  0  0  0
  -24.1296  -15.7355   23.2340 N   0  0  0  0  0  0  0  0  0  0  0  0
  -28.2664  -28.5162   19.6867 N   0  0  0  0  0  0  0  0  0  0  0  0
  -18.4933  -24.6539   17.8006 N   0  0  0  0  0  0  0  0  0  0  0  0
  -25.1187  -32.8548   23.8974 N   0  0  0  0  0  0  0  0  0  0  0  0
  -26.7566  -23.2596   19.3244 N   0  0  0  0  0  0  0  0  0  0  0  0
  -22.0644  -34.6726   23.2381 N   0  3  0  0  0  0  0  0  0  0  0  0
  -24.9569  -17.6333   24.2202 O   0  0  0  0  0  0  0  0  0  0  0  0
  -27.4302  -28.3882   21.8562 O   0  0  0  0  0  0  0  0  0  0  0  0
  -27.3376  -32.1357   22.2336 O   0  0  0  0  0  0  0  0  0  0  0  0
  -18.2887  -22.4022   18.3328 O   0  0  0  0  0  0  0  0  0  0  0  0
  -22.9275  -32.1012   23.9860 O   0  0  0  0  0  0  0  0  0  0  0  0
  -29.0374  -23.1919   18.9119 O   0  0  0  0  0  0  0  0  0  0  0  0
  -23.0028  -11.7784   19.4781 O   0  0  0  0  0  0  0  0  0  0  0  0
  -21.2580  -26.4807   20.5256 O   0  0  0  0  0  0  0  0  0  1  0  0
  -21.9362  -22.7709   16.5080 O   0  0  0  0  0  0  0  0  0  0  0  0
  -23.2909   -7.6566   23.1293 F   0  0  0  0  0  0  0  0  0  0  0  0
  -24.3525  -22.6789   15.1826 F   0  0  0  0  0  0  0  0  0  0  0  0
  -22.0204  -12.0853   22.0439 F   0  0  0  0  0  0  0  0  0  0  0  0
  1  2  1  0  0  0  0
  1  5  2  0  0  0  0
  2  6  2  0  0  0  0
  3  9  2  0  0  0  0
  3 18  1  0  0  0  0
  4 10  1  0  0  0  0
  4 18  2  0  0  0  0
  5 20  1  0  0  0  0
  6 22  1  0  0  0  0
  7 11  2  0  0  0  0
  7 21  1  0  0  0  0
  8 12  2  0  0  0  0
  8 24  1  0  0  0  0
  9 25  1  0  0  0  0
 10 25  2  0  0  0  0
 11 26  1  0  0  0  0
 12 28  1  0  0  0  0
 13 14  2  0  0  0  0
 13 27  1  0  0  0  0
 14 29  1  0  0  0  0
 15 23  1  0  0  0  0
 15 26  2  0  0  0  0
 16 24  2  0  0  0  0
 16 30  1  0  0  0  0
 17 29  2  0  0  0  0
 17 31  1  0  0  0  0
 18 32  1  0  0  0  0
 19 32  1  0  0  0  0
 19 33  2  0  0  0  0
 19 34  1  0  0  0  0
 20 22  2  0  0  0  0
 20 40  1  0  0  0  0
 21 23  2  0  0  0  0
 21 41  1  0  0  0  0
 22 49  1  0  0  0  0
 23 42  1  0  0  0  0
 24 76  1  0  0  0  0
 25 84  1  0  0  0  0
 26 85  1  0  0  0  0
 27 31  2  0  0  0  0
 27 84  1  0  0  0  0
 28 30  2  0  0  0  0
 28 86  1  0  0  0  0
 29 87  1  0  0  0  0
 30 88  1  0  0  0  0
 31 89  1  0  0  0  0
 32 67  2  0  0  0  0
 33 68  1  0  0  0  0
 33 71  1  0  0  0  0
 34 72  1  0  0  0  0
 34 78  2  0  0  0  0
 35 50  1  0  0  0  0
 35 73  1  0  0  0  0
 35 79  2  0  0  0  0
 36 64  1  0  0  0  0
 36 69  1  0  0  0  0
 36 80  2  0  0  0  0
 37 58  1  0  0  0  0
 37 74  1  0  0  0  0
 37 81  2  0  0  0  0
 38 65  1  0  0  0  0
 38 75  1  0  0  0  0
 38 82  2  0  0  0  0
 39 70  1  0  0  0  0
 39 76  1  0  0  0  0
 39 83  2  0  0  0  0
 40 43  1  0  0  0  0
 41 50  1  0  0  0  0
 42 69  1  0  0  0  0
 43 45  1  0  0  0  0
 44 46  1  0  0  0  0
 44 47  1  0  0  0  0
 45 49  1  0  0  0  0
 46 51  1  0  0  0  0
 47 70  1  0  0  0  0
 48 51  1  0  0  0  0
 48 70  1  0  0  0  0
 49 73  1  0  0  0  0
 50 69  1  0  0  0  0
 51 68  1  0  0  0  0
 52 65  1  0  0  0  0
 53 66  1  0  0  0  0
 54 66  1  0  0  0  0
 55 66  1  0  0  0  0
 56 76  1  0  0  0  0
 57 77  1  0  0  0  0
 58 59  1  0  0  0  0
 59 62  1  0  0  0  0
 60 61  1  0  0  0  0
 60 63  1  0  0  0  0
 61 74  1  0  0  0  0
 62 86  1  0  0  0  0
 63 85  1  0  0  0  0
 64 66  1  0  0  0  0
 64 75  1  0  0  0  0
 65 77  1  0  0  0  0
 67 68  1  0  0  0  0
M  CHG  1  77   1
M  ISO  4  39 100  63 101  76 100  85 101
M  END
> <Batch ID>
0007

> <Smiles>
CNC(C)C(=O)NC(C(=O)N1Cc2cc([101O:1][101CH2:1]CCNC(=O)CCCOc3ccc([100N:0](C)[100C:0](=O)N4CCCC(n5nc(-c6ccc(Oc7ccc(F)cc7F)cc6)c(C(N)=O)c5N)C4)cc3F)ccc2CC1C(=O)NC1CCCc2ccccc21)C(C)(C)C

> <Shape>
0.251

> <Color>
0.080

> <Negative vol penalty>
0.000

$$$$

  -OEChem-04052315333D

 81 89  0     1  0  0  0  0  0999 V2000
  -27.1711  -30.0565   18.2472 C   0  0  0  0  0  0  0  0  0  0  0  0
  -27.0950  -28.6906   18.5004 C   0  0  0  0  0  0  0  0  0  0  0  0
  -30.5958  -23.0971   20.3979 C   0  0  0  0  0  0  0  0  0  0  0  0
  -29.0068  -23.0097   18.5801 C   0  0  0  0  0  0  0  0  0  0  0  0
  -26.4069  -30.9474   18.9995 C   0  0  0  0  0  0  0  0  0  0  0  0
  -26.2553  -28.2150   19.5070 C   0  0  0  0  0  0  0  0  0  0  0  0
  -23.1140  -22.9578   19.5026 C   0  0  0  0  0  0  0  0  0  0  0  0
  -23.7410  -13.0238   22.5742 C   0  0  0  0  0  0  0  0  0  0  0  0
  -24.7233  -13.5878   21.7603 C   0  0  0  0  0  0  0  0  0  0  0  0
  -31.2305  -24.1808   19.7910 C   0  0  0  0  0  0  0  0  0  0  0  0
  -29.6415  -24.0934   17.9732 C   0  0  0  0  0  0  0  0  0  0  0  0
  -23.3674  -21.7133   20.0776 C   0  0  0  0  0  0  0  0  0  0  0  0
  -32.4148  -24.6362   16.1171 C   0  0  0  0  0  0  0  0  0  0  0  0
  -32.6611  -24.5584   14.7464 C   0  0  0  0  0  0  0  0  0  0  0  0
  -22.0011  -22.3171   21.9718 C   0  0  0  0  0  0  0  0  0  0  0  0
  -22.3146  -14.9326   22.1754 C   0  0  0  0  0  0  0  0  0  0  0  0
  -31.3087  -26.5287   14.3915 C   0  0  0  0  0  0  0  0  0  0  0  0
  -29.4839  -22.5116   19.7924 C   0  0  0  0  0  0  0  0  0  0  0  0
  -27.7675  -21.4361   21.3433 C   0  0  0  0  0  0  0  0  0  0  0  0
  -25.5502  -30.4817   20.0094 C   0  0  0  0  0  0  0  0  0  0  0  0
  -22.3098  -23.8971   20.1640 C   0  0  0  0  0  0  0  0  0  0  0  0
  -25.4799  -29.1007   20.2744 C   0  0  0  0  0  0  0  0  0  0  0  0
  -21.7370  -23.5719   21.4018 C   0  0  0  0  0  0  0  0  0  0  0  0
  -22.5366  -13.6962   22.7817 C   0  0  0  0  0  0  0  0  0  0  0  0
  -24.5014  -14.8242   21.1539 C   0  0  0  0  0  0  0  0  0  0  0  0
  -30.7534  -24.6790   18.5786 C   0  0  0  0  0  0  0  0  0  0  0  0
  -22.8133  -21.3938   21.3137 C   0  0  0  0  0  0  0  0  0  0  0  0
  -31.6154  -25.6602   16.6251 C   0  0  0  0  0  0  0  0  0  0  0  0
  -23.2970  -15.4966   21.3614 C   0  0  0  0  0  0  0  0  0  0  0  0
  -32.1081  -25.5046   13.8836 C   0  0  0  0  0  0  0  0  0  0  0  0
  -31.0623  -26.6064   15.7623 C   0  0  0  0  0  0  0  0  0  0  0  0
  -28.8281  -21.3918   20.4186 C   0  0  0  0  0  0  0  0  0  0  0  0
  -27.5084  -20.1185   21.6320 C   0  0  0  0  0  0  0  0  0  0  0  0
  -27.0782  -22.5672   21.8921 C   0  0  0  0  0  0  0  0  0  0  0  0
  -22.7667  -26.8217   21.3222 C   0  0  0  0  0  0  0  0  0  0  0  0
  -19.5687  -26.6907   21.8492 C   0  0  0  0  0  0  0  0  0  0  0  0
  -16.7900  -24.7718   22.3427 C   0  0  0  0  0  0  0  0  0  0  0  0
  -26.7574  -14.8382   20.0329 C   0  0  0  0  0  0  0  0  0  0  0  0
  -24.7792  -31.4868   20.8279 C   0  0  0  0  0  0  0  0  0  0  0  0
  -22.0243  -25.2250   19.5179 C   0  0  0  0  0  0  0  0  0  0  0  0
  -20.8501  -24.5373   22.1433 C   0  0  0  0  0  0  0  0  0  0  0  0
  -23.6323  -30.8715   21.6255 C   0  0  0  0  0  0  0  0  0  0  0  0
  -30.1138  -15.9264   20.5096 C   0  0  0  0  0  0  0  0  0  0  0  0
  -24.0983  -29.6086   22.3430 C   0  0  0  0  0  0  0  0  0  0  0  0
  -29.9913  -17.4490   20.6045 C   0  0  0  0  0  0  0  0  0  0  0  0
  -29.1314  -15.3404   19.4971 C   0  0  0  0  0  0  0  0  0  0  0  0
  -27.6071  -17.2536   19.7893 C   0  0  0  0  0  0  0  0  0  0  0  0
  -24.5621  -28.5442   21.3413 C   0  0  1  0  0  0  0  0  0  0  0  0
  -21.6096  -26.2995   20.5184 C   0  0  1  0  0  0  0  0  0  0  0  0
  -28.5319  -17.8831   20.8439 C   0  0  2  0  0  0  0  0  0  0  0  0
  -21.4865  -13.0929   23.6521 C   0  0  0  0  0  0  0  0  0  0  0  0
  -14.3259  -24.9499   22.7831 C   0  0  0  0  0  0  0  0  0  0  0  0
  -20.1436  -27.4283   24.7536 C   0  0  0  0  0  0  0  0  0  0  0  0
  -17.8287  -26.6696   25.3316 C   0  0  0  0  0  0  0  0  0  0  0  0
  -18.1577  -28.5777   23.7588 C   0  0  0  0  0  0  0  0  0  0  0  0
  -16.1212  -23.3505   19.8344 C   0  0  0  0  0  0  0  0  0  0  0  0
  -23.2867  -19.0858   20.9903 C   0  0  0  0  0  0  0  0  0  1  0  0
  -22.8091  -17.8063   21.6494 C   0  0  0  0  0  0  0  0  0  0  0  0
  -18.6908  -26.2297   22.9876 C   0  0  1  0  0  0  0  0  0  0  0  0
  -15.4064  -24.8239   21.7204 C   0  0  2  0  0  0  0  0  0  0  0  0
  -18.7234  -27.2086   24.1951 C   0  0  0  0  0  0  0  0  0  0  0  0
  -29.2162  -20.1448   20.1386 N   0  0  0  0  0  0  0  0  0  0  0  0
  -28.3952  -19.3934   20.8918 N   0  0  0  0  0  0  0  0  0  0  0  0
  -20.6059  -25.8253   21.4733 N   0  0  0  0  0  0  0  0  0  0  0  0
  -27.7689  -15.7912   19.7892 N   0  0  0  0  0  0  0  0  0  0  0  0
  -26.6109  -19.5211   22.4444 N   0  0  0  0  0  0  0  0  0  0  0  0
  -27.4715  -23.8501   21.4876 N   0  0  0  0  0  0  0  0  0  0  0  0
  -25.5099  -15.3851   20.3317 N   0  0  0  0  0  0  0  0  0  0  0  0
  -23.4224  -27.8881   20.7371 N   0  0  0  0  0  0  0  0  0  0  0  0
  -17.3623  -26.0239   22.4210 N   0  0  0  0  0  0  0  0  0  0  0  0
  -15.1468  -23.5871   20.9305 N   0  3  0  0  0  0  0  0  0  0  0  0
  -26.1521  -22.4444   22.7292 O   0  0  0  0  0  0  0  0  0  0  0  0
  -23.0432  -26.2970   22.3945 O   0  0  0  0  0  0  0  0  0  0  0  0
  -19.3382  -27.7752   21.3086 O   0  0  0  0  0  0  0  0  0  0  0  0
  -17.3095  -23.7256   22.7249 O   0  0  0  0  0  0  0  0  0  0  0  0
  -26.9876  -13.6265   20.0072 O   0  0  0  0  0  0  0  0  0  0  0  0
  -31.3724  -25.7365   17.9862 O   0  0  0  0  0  0  0  0  0  0  0  0
  -23.0595  -20.1800   21.8776 O   0  0  0  0  0  0  0  0  0  1  0  0
  -23.0593  -16.7121   20.7757 O   0  0  0  0  0  0  0  0  0  0  0  0
  -32.3460  -25.4307   12.5675 F   0  0  0  0  0  0  0  0  0  0  0  0
  -30.2945  -27.5932   16.2445 F   0  0  0  0  0  0  0  0  0  0  0  0
  1  2  1  0  0  0  0
  1  5  2  0  0  0  0
  2  6  2  0  0  0  0
  3 10  2  0  0  0  0
  3 18  1  0  0  0  0
  4 11  1  0  0  0  0
  4 18  2  0  0  0  0
  5 20  1  0  0  0  0
  6 22  1  0  0  0  0
  7 12  2  0  0  0  0
  7 21  1  0  0  0  0
  8  9  2  0  0  0  0
  8 24  1  0  0  0  0
  9 25  1  0  0  0  0
 10 26  1  0  0  0  0
 11 26  2  0  0  0  0
 12 27  1  0  0  0  0
 13 14  2  0  0  0  0
 13 28  1  0  0  0  0
 14 30  1  0  0  0  0
 15 23  1  0  0  0  0
 15 27  2  0  0  0  0
 16 24  2  0  0  0  0
 16 29  1  0  0  0  0
 17 30  2  0  0  0  0
 17 31  1  0  0  0  0
 18 32  1  0  0  0  0
 19 32  1  0  0  0  0
 19 33  2  0  0  0  0
 19 34  1  0  0  0  0
 20 22  2  0  0  0  0
 20 39  1  0  0  0  0
 21 23  2  0  0  0  0
 21 40  1  0  0  0  0
 22 48  1  0  0  0  0
 23 41  1  0  0  0  0
 24 51  1  0  0  0  0
 25 29  2  0  0  0  0
 25 68  1  0  0  0  0
 26 77  1  0  0  0  0
 27 78  1  0  0  0  0
 28 31  2  0  0  0  0
 28 77  1  0  0  0  0
 29 79  1  0  0  0  0
 30 80  1  0  0  0  0
 31 81  1  0  0  0  0
 32 62  2  0  0  0  0
 33 63  1  0  0  0  0
 33 66  1  0  0  0  0
 34 67  1  0  0  0  0
 34 72  2  0  0  0  0
 35 49  1  0  0  0  0
 35 69  1  0  0  0  0
 35 73  2  0  0  0  0
 36 59  1  0  0  0  0
 36 64  1  0  0  0  0
 36 74  2  0  0  0  0
 37 60  1  0  0  0  0
 37 70  1  0  0  0  0
 37 75  2  0  0  0  0
 38 65  1  0  0  0  0
 38 68  1  0  0  0  0
 38 76  2  0  0  0  0
 39 42  1  0  0  0  0
 40 49  1  0  0  0  0
 41 64  1  0  0  0  0
 42 44  1  0  0  0  0
 43 45  1  0  0  0  0
 43 46  1  0  0  0  0
 44 48  1  0  0  0  0
 45 50  1  0  0  0  0
 46 65  1  0  0  0  0
 47 50  1  0  0  0  0
 47 65  1  0  0  0  0
 48 69  1  0  0  0  0
 49 64  1  0  0  0  0
 50 63  1  0  0  0  0
 52 60  1  0  0  0  0
 53 61  1  0  0  0  0
 54 61  1  0  0  0  0
 55 61  1  0  0  0  0
 56 71  1  0  0  0  0
 57 58  1  0  0  0  0
 57 78  1  0  0  0  0
 58 79  1  0  0  0  0
 59 61  1  0  0  0  0
 59 70  1  0  0  0  0
 60 71  1  0  0  0  0
 62 63  1  0  0  0  0
M  CHG  1  71   1
M  ISO  4  38 100  57 101  68 100  78 101
M  END
> <Batch ID>
0007

> <Smiles>
CNC(C)C(=O)NC(C(=O)N1Cc2cc([101O:1][101CH2:1]COc3cc(C)ccc3[100NH:0][100C:0](=O)N3CCCC(n4nc(-c5ccc(Oc6ccc(F)cc6F)cc5)c(C(N)=O)c4N)C3)ccc2CC1C(=O)NC1CCCc2ccccc21)C(C)(C)C

> <Shape>
0.211

> <Color>
0.057

> <Negative vol penalty>
0.000

$$$$

  -OEChem-04052315333D

 83 91  0     1  0  0  0  0  0999 V2000
  -30.0630  -36.4585   21.9919 C   0  0  0  0  0  0  0  0  0  0  0  0
  -30.2228  -35.1625   21.5122 C   0  0  0  0  0  0  0  0  0  0  0  0
  -22.8108  -10.2236   20.9472 C   0  0  0  0  0  0  0  0  0  0  0  0
  -24.5340   -8.9934   22.1110 C   0  0  0  0  0  0  0  0  0  0  0  0
  -29.1455  -36.7157   23.0097 C   0  0  0  0  0  0  0  0  0  0  0  0
  -29.4659  -34.1226   22.0508 C   0  0  0  0  0  0  0  0  0  0  0  0
  -27.2895  -29.2304   19.0783 C   0  0  0  0  0  0  0  0  0  0  0  0
  -30.3409  -17.5039   23.6883 C   0  0  0  0  0  0  0  0  0  0  0  0
  -31.7759  -18.1712   21.8628 C   0  0  0  0  0  0  0  0  0  0  0  0
  -22.0662   -9.0521   20.8113 C   0  0  0  0  0  0  0  0  0  0  0  0
  -23.7892   -7.8218   21.9751 C   0  0  0  0  0  0  0  0  0  0  0  0
  -27.7485  -27.9185   18.9689 C   0  0  0  0  0  0  0  0  0  0  0  0
  -29.9073  -18.8221   23.8294 C   0  0  0  0  0  0  0  0  0  0  0  0
  -31.3422  -19.4894   22.0038 C   0  0  0  0  0  0  0  0  0  0  0  0
  -21.1242   -6.3788   23.4704 C   0  0  0  0  0  0  0  0  0  0  0  0
  -21.0045   -5.5553   24.5897 C   0  0  0  0  0  0  0  0  0  0  0  0
  -26.2734  -27.2595   20.7603 C   0  0  0  0  0  0  0  0  0  0  0  0
  -22.0569   -3.7514   23.3749 C   0  0  0  0  0  0  0  0  0  0  0  0
  -24.0448  -10.1943   21.5970 C   0  0  0  0  0  0  0  0  0  0  0  0
  -24.7595  -12.3289   22.7971 C   0  0  0  0  0  0  0  0  0  0  0  0
  -28.3700  -35.6800   23.5544 C   0  0  0  0  0  0  0  0  0  0  0  0
  -26.3254  -29.5695   20.0385 C   0  0  0  0  0  0  0  0  0  0  0  0
  -28.5381  -34.3659   23.0778 C   0  0  0  0  0  0  0  0  0  0  0  0
  -25.8020  -28.5759   20.8781 C   0  0  0  0  0  0  0  0  0  0  0  0
  -31.2752  -17.1784   22.7051 C   0  0  0  0  0  0  0  0  0  0  0  0
  -22.5553   -7.8512   21.3252 C   0  0  0  0  0  0  0  0  0  0  0  0
  -30.4079  -19.8149   22.9871 C   0  0  0  0  0  0  0  0  0  0  0  0
  -27.2425  -26.9334   19.8119 C   0  0  0  0  0  0  0  0  0  0  0  0
  -21.7101   -5.8887   22.3032 C   0  0  0  0  0  0  0  0  0  0  0  0
  -21.4709   -4.2415   24.5420 C   0  0  0  0  0  0  0  0  0  0  0  0
  -22.1764   -4.5750   22.2555 C   0  0  0  0  0  0  0  0  0  0  0  0
  -24.8148  -11.4040   21.7372 C   0  0  0  0  0  0  0  0  0  0  0  0
  -25.6773  -13.2933   22.4595 C   0  0  0  0  0  0  0  0  0  0  0  0
  -23.9509  -12.3172   23.9811 C   0  0  0  0  0  0  0  0  0  0  0  0
  -26.2504  -31.5121   22.5533 C   0  0  0  0  0  0  0  0  0  0  0  0
  -23.1177  -30.6730   22.6174 C   0  0  0  0  0  0  0  0  0  0  0  0
  -20.7098  -28.3995   21.7927 C   0  0  0  0  0  0  0  0  0  0  0  0
  -30.7035  -14.7666   20.5330 C   0  0  0  0  0  0  0  0  0  0  0  0
  -27.4251  -35.9987   24.6859 C   0  0  0  0  0  0  0  0  0  0  0  0
  -25.8212  -30.9839   20.1258 C   0  0  0  0  0  0  0  0  0  0  0  0
  -24.7509  -28.8841   21.9119 C   0  0  0  0  0  0  0  0  0  0  0  0
  -26.3928  -34.9042   24.9440 C   0  0  0  0  0  0  0  0  0  0  0  0
  -28.1634  -14.1001   18.1288 C   0  0  0  0  0  0  0  0  0  0  0  0
  -27.0625  -33.5339   24.9689 C   0  0  0  0  0  0  0  0  0  0  0  0
  -27.0646  -13.4103   18.9393 C   0  0  0  0  0  0  0  0  0  0  0  0
  -29.5560  -13.7022   18.6130 C   0  0  0  0  0  0  0  0  0  0  0  0
  -28.6902  -13.2073   20.8667 C   0  0  0  0  0  0  0  0  0  0  0  0
  -27.7176  -33.2154   23.6195 C   0  0  1  0  0  0  0  0  0  0  0  0
  -25.2126  -31.3185   21.4841 C   0  0  1  0  0  0  0  0  0  0  0  0
  -27.2677  -13.6205   20.4519 C   0  0  2  0  0  0  0  0  0  0  0  0
  -18.2469  -27.9713   22.0123 C   0  0  0  0  0  0  0  0  0  0  0  0
  -23.5175  -29.8850   25.5378 C   0  0  0  0  0  0  0  0  0  0  0  0
  -21.3631  -28.6153   25.4177 C   0  0  0  0  0  0  0  0  0  0  0  0
  -21.3747  -31.0848   25.0650 C   0  0  0  0  0  0  0  0  0  0  0  0
  -20.3316  -28.3922   18.8574 C   0  0  0  0  0  0  0  0  0  0  0  0
  -31.7384  -15.7691   22.5537 C   0  0  0  0  0  0  0  0  0  0  0  0
  -28.8744  -22.9666   22.0586 C   0  0  0  0  0  0  0  0  0  0  0  0
  -28.8062  -23.8350   20.8072 C   0  0  0  0  0  0  0  0  0  0  0  0
  -29.9636  -21.9078   21.9489 C   0  0  0  0  0  0  0  0  0  0  0  0
  -27.6898  -24.8656   20.8983 C   0  0  0  0  0  0  0  0  0  1  0  0
  -22.3189  -29.5723   23.2725 C   0  0  1  0  0  0  0  0  0  0  0  0
  -19.3465  -28.5659   21.1461 C   0  0  2  0  0  0  0  0  0  0  0  0
  -22.1648  -29.7836   24.8052 C   0  0  0  0  0  0  0  0  0  0  0  0
  -25.6978  -11.7500   20.7966 N   0  0  0  0  0  0  0  0  0  0  0  0
  -26.2057  -12.9029   21.2643 N   0  0  0  0  0  0  0  0  0  0  0  0
  -24.2946  -30.2829   21.9627 N   0  0  0  0  0  0  0  0  0  0  0  0
  -29.6836  -13.9275   20.0548 N   0  0  0  0  0  0  0  0  0  0  0  0
  -26.0757  -14.4288   23.0714 N   0  0  0  0  0  0  0  0  0  0  0  0
  -23.0605  -11.2517   24.1715 N   0  0  0  0  0  0  0  0  0  0  0  0
  -26.7177  -32.8085   22.6557 N   0  0  0  0  0  0  0  0  0  0  0  0
  -21.0540  -29.4997   22.5492 N   0  0  0  0  0  0  0  0  0  0  0  0
  -30.7500  -14.9313   21.9120 N   0  0  0  0  0  0  0  0  0  0  0  0
  -19.3167  -27.8892   19.8187 N   0  3  0  0  0  0  0  0  0  0  0  0
  -24.0042  -13.2331   24.8365 O   0  0  0  0  0  0  0  0  0  0  0  0
  -26.6003  -30.5564   23.2359 O   0  0  0  0  0  0  0  0  0  0  0  0
  -22.7086  -31.8352   22.6779 O   0  0  0  0  0  0  0  0  0  0  0  0
  -21.3988  -27.3925   21.6448 O   0  0  0  0  0  0  0  0  0  0  0  0
  -31.5095  -15.3318   19.7860 O   0  0  0  0  0  0  0  0  0  0  0  0
  -21.8288   -6.7078   21.1930 O   0  0  0  0  0  0  0  0  0  0  0  0
  -29.9808  -21.1098   23.1250 O   0  0  0  0  0  0  0  0  0  0  0  0
  -27.6893  -25.6522   19.7077 O   0  0  0  0  0  0  0  0  0  1  0  0
  -21.3574   -3.4512   25.6175 F   0  0  0  0  0  0  0  0  0  0  0  0
  -22.7413   -4.0988   21.1375 F   0  0  0  0  0  0  0  0  0  0  0  0
  1  2  1  0  0  0  0
  1  5  2  0  0  0  0
  2  6  2  0  0  0  0
  3 10  2  0  0  0  0
  3 19  1  0  0  0  0
  4 11  1  0  0  0  0
  4 19  2  0  0  0  0
  5 21  1  0  0  0  0
  6 23  1  0  0  0  0
  7 12  2  0  0  0  0
  7 22  1  0  0  0  0
  8 13  2  0  0  0  0
  8 25  1  0  0  0  0
  9 14  1  0  0  0  0
  9 25  2  0  0  0  0
 10 26  1  0  0  0  0
 11 26  2  0  0  0  0
 12 28  1  0  0  0  0
 13 27  1  0  0  0  0
 14 27  2  0  0  0  0
 15 16  2  0  0  0  0
 15 29  1  0  0  0  0
 16 30  1  0  0  0  0
 17 24  1  0  0  0  0
 17 28  2  0  0  0  0
 18 30  2  0  0  0  0
 18 31  1  0  0  0  0
 19 32  1  0  0  0  0
 20 32  1  0  0  0  0
 20 33  2  0  0  0  0
 20 34  1  0  0  0  0
 21 23  2  0  0  0  0
 21 39  1  0  0  0  0
 22 24  2  0  0  0  0
 22 40  1  0  0  0  0
 23 48  1  0  0  0  0
 24 41  1  0  0  0  0
 25 56  1  0  0  0  0
 26 79  1  0  0  0  0
 27 80  1  0  0  0  0
 28 81  1  0  0  0  0
 29 31  2  0  0  0  0
 29 79  1  0  0  0  0
 30 82  1  0  0  0  0
 31 83  1  0  0  0  0
 32 64  2  0  0  0  0
 33 65  1  0  0  0  0
 33 68  1  0  0  0  0
 34 69  1  0  0  0  0
 34 74  2  0  0  0  0
 35 49  1  0  0  0  0
 35 70  1  0  0  0  0
 35 75  2  0  0  0  0
 36 61  1  0  0  0  0
 36 66  1  0  0  0  0
 36 76  2  0  0  0  0
 37 62  1  0  0  0  0
 37 71  1  0  0  0  0
 37 77  2  0  0  0  0
 38 67  1  0  0  0  0
 38 72  1  0  0  0  0
 38 78  2  0  0  0  0
 39 42  1  0  0  0  0
 40 49  1  0  0  0  0
 41 66  1  0  0  0  0
 42 44  1  0  0  0  0
 43 45  1  0  0  0  0
 43 46  1  0  0  0  0
 44 48  1  0  0  0  0
 45 50  1  0  0  0  0
 46 67  1  0  0  0  0
 47 50  1  0  0  0  0
 47 67  1  0  0  0  0
 48 70  1  0  0  0  0
 49 66  1  0  0  0  0
 50 65  1  0  0  0  0
 51 62  1  0  0  0  0
 52 63  1  0  0  0  0
 53 63  1  0  0  0  0
 54 63  1  0  0  0  0
 55 73  1  0  0  0  0
 56 72  1  0  0  0  0
 57 58  1  0  0  0  0
 57 59  1  0  0  0  0
 58 60  1  0  0  0  0
 59 80  1  0  0  0  0
 60 81  1  0  0  0  0
 61 63  1  0  0  0  0
 61 71  1  0  0  0  0
 62 73  1  0  0  0  0
 64 65  1  0  0  0  0
M  CHG  1  73   1
M  ISO  4  38 100  60 101  72 100  81 101
M  END
> <Batch ID>
0007

> <Smiles>
CNC(C)C(=O)NC(C(=O)N1Cc2cc([101O:1][101CH2:1]CCCOc3ccc(C[100NH:0][100C:0](=O)N4CCCC(n5nc(-c6ccc(Oc7ccc(F)cc7F)cc6)c(C(N)=O)c5N)C4)cc3)ccc2CC1C(=O)NC1CCCc2ccccc21)C(C)(C)C

> <Shape>
0.319

> <Color>
0.147

> <Negative vol penalty>
0.000

$$$$

  -OEChem-04052315333D

 85 93  0     1  0  0  0  0  0999 V2000
  -21.7387  -34.7313   20.6189 C   0  0  0  0  0  0  0  0  0  0  0  0
  -22.8985  -33.9635   20.5892 C   0  0  0  0  0  0  0  0  0  0  0  0
  -23.8757   -9.6521   21.6531 C   0  0  0  0  0  0  0  0  0  0  0  0
  -24.4916  -10.8629   23.6510 C   0  0  0  0  0  0  0  0  0  0  0  0
  -20.6725  -34.3503   21.4326 C   0  0  0  0  0  0  0  0  0  0  0  0
  -22.9931  -32.8148   21.3740 C   0  0  0  0  0  0  0  0  0  0  0  0
  -25.9154  -27.6215   19.9612 C   0  0  0  0  0  0  0  0  0  0  0  0
  -30.9766  -18.6481   20.4361 C   0  0  0  0  0  0  0  0  0  0  0  0
  -23.3969   -8.6023   22.4368 C   0  0  0  0  0  0  0  0  0  0  0  0
  -24.0128   -9.8131   24.4348 C   0  0  0  0  0  0  0  0  0  0  0  0
  -27.1724  -27.1283   20.3084 C   0  0  0  0  0  0  0  0  0  0  0  0
  -31.3177  -19.9477   20.8107 C   0  0  0  0  0  0  0  0  0  0  0  0
  -20.6292   -7.9098   24.2515 C   0  0  0  0  0  0  0  0  0  0  0  0
  -19.3936   -7.3587   23.9121 C   0  0  0  0  0  0  0  0  0  0  0  0
  -26.1739  -25.8643   22.1040 C   0  0  0  0  0  0  0  0  0  0  0  0
  -28.9776  -20.4835   21.0824 C   0  0  0  0  0  0  0  0  0  0  0  0
  -20.4439   -5.2085   23.5797 C   0  0  0  0  0  0  0  0  0  0  0  0
  -24.4232  -10.7824   22.2601 C   0  0  0  0  0  0  0  0  0  0  0  0
  -24.1964  -12.9862   20.9954 C   0  0  0  0  0  0  0  0  0  0  0  0
  -20.7504  -33.1910   22.2204 C   0  0  0  0  0  0  0  0  0  0  0  0
  -24.7778  -27.2478   20.6910 C   0  0  0  0  0  0  0  0  0  0  0  0
  -21.9275  -32.4187   22.1999 C   0  0  0  0  0  0  0  0  0  0  0  0
  -24.9033  -26.3522   21.7626 C   0  0  0  0  0  0  0  0  0  0  0  0
  -29.6360  -18.2662   20.3846 C   0  0  0  0  0  0  0  0  0  0  0  0
  -23.4654   -8.6828   23.8277 C   0  0  0  0  0  0  0  0  0  0  0  0
  -27.3022  -26.2518   21.3817 C   0  0  0  0  0  0  0  0  0  0  0  0
  -30.3182  -20.8654   21.1339 C   0  0  0  0  0  0  0  0  0  0  0  0
  -21.7722   -7.1103   24.2549 C   0  0  0  0  0  0  0  0  0  0  0  0
  -28.6365  -19.1839   20.7077 C   0  0  0  0  0  0  0  0  0  0  0  0
  -19.3009   -6.0081   23.5763 C   0  0  0  0  0  0  0  0  0  0  0  0
  -21.6796   -5.7597   23.9191 C   0  0  0  0  0  0  0  0  0  0  0  0
  -24.9185  -11.8668   21.4510 C   0  0  0  0  0  0  0  0  0  0  0  0
  -25.1107  -13.7139   20.2736 C   0  0  0  0  0  0  0  0  0  0  0  0
  -22.8223  -13.3368   21.2060 C   0  0  0  0  0  0  0  0  0  0  0  0
  -22.6284  -28.7990   22.4451 C   0  0  0  0  0  0  0  0  0  0  0  0
  -21.1874  -25.8945   22.5446 C   0  0  0  0  0  0  0  0  0  0  0  0
  -21.4861  -22.5028   22.3128 C   0  0  0  0  0  0  0  0  0  0  0  0
  -30.1864  -15.9182   19.6563 C   0  0  0  0  0  0  0  0  0  0  0  0
  -19.5903  -32.8453   23.1199 C   0  0  0  0  0  0  0  0  0  0  0  0
  -23.4254  -27.7677   20.2871 C   0  0  0  0  0  0  0  0  0  0  0  0
  -23.7103  -25.9040   22.5653 C   0  0  0  0  0  0  0  0  0  0  0  0
  -19.6271  -31.4094   23.6368 C   0  0  0  0  0  0  0  0  0  0  0  0
  -29.7687  -12.5150   18.6967 C   0  0  0  0  0  0  0  0  0  0  0  0
  -21.0225  -31.0606   24.1448 C   0  0  0  0  0  0  0  0  0  0  0  0
  -28.4103  -12.1351   19.2903 C   0  0  0  0  0  0  0  0  0  0  0  0
  -30.5441  -13.4595   19.6135 C   0  0  0  0  0  0  0  0  0  0  0  0
  -28.4526  -14.2824   20.6223 C   0  0  0  0  0  0  0  0  0  0  0  0
  -22.0587  -31.1523   23.0181 C   0  0  1  0  0  0  0  0  0  0  0  0
  -22.4052  -27.7229   21.4205 C   0  0  1  0  0  0  0  0  0  0  0  0
  -27.6074  -13.3837   19.7049 C   0  0  2  0  0  0  0  0  0  0  0  0
  -20.1405  -20.3910   22.4774 C   0  0  0  0  0  0  0  0  0  0  0  0
  -21.1624  -26.1503   25.5850 C   0  0  0  0  0  0  0  0  0  0  0  0
  -20.7098  -23.6915   25.7184 C   0  0  0  0  0  0  0  0  0  0  0  0
  -19.0684  -25.2012   24.6006 C   0  0  0  0  0  0  0  0  0  0  0  0
  -22.0930  -21.7605   19.5129 C   0  0  0  0  0  0  0  0  0  0  0  0
  -30.4423  -24.4888   21.0039 C   0  0  0  0  0  0  0  0  0  0  0  0
  -29.4832  -25.6214   20.6732 C   0  0  0  0  0  0  0  0  0  1  0  0
  -29.7169  -23.1656   21.1918 C   0  0  0  0  0  0  0  0  0  0  0  0
  -26.4821  -19.5662   19.7759 C   0  0  0  0  0  0  0  0  0  0  0  0
  -25.3581  -18.6675   19.3114 C   0  0  0  0  0  0  0  0  0  0  0  0
  -21.2647  -24.6934   23.4558 C   0  0  1  0  0  0  0  0  0  0  0  0
  -20.6765  -21.4701   21.5495 C   0  0  2  0  0  0  0  0  0  0  0  0
  -20.5743  -24.9439   24.8262 C   0  0  0  0  0  0  0  0  0  0  0  0
  -26.1931  -11.8781   21.0519 N   0  0  0  0  0  0  0  0  0  0  0  0
  -26.2791  -13.0134   20.3379 N   0  0  0  0  0  0  0  0  0  0  0  0
  -22.4103  -26.4450   22.1354 N   0  0  0  0  0  0  0  0  0  0  0  0
  -29.7225  -14.6210   19.9610 N   0  0  0  0  0  0  0  0  0  0  0  0
  -25.0210  -14.8783   19.5964 N   0  0  0  0  0  0  0  0  0  0  0  0
  -22.0233  -12.4773   21.9723 N   0  0  0  0  0  0  0  0  0  0  0  0
  -29.3056  -16.9420   20.0038 N   0  0  0  0  0  0  0  0  0  0  0  0
  -21.9808  -29.9869   22.1637 N   0  0  0  0  0  0  0  0  0  0  0  0
  -20.7100  -23.5736   22.7031 N   0  0  0  0  0  0  0  0  0  0  0  0
  -21.5192  -20.8181   20.5076 N   0  3  0  0  0  0  0  0  0  0  0  0
  -22.3136  -14.3730   20.7151 O   0  0  0  0  0  0  0  0  0  0  0  0
  -23.3345  -28.5683   23.4197 O   0  0  0  0  0  0  0  0  0  0  0  0
  -20.0828  -26.3240   22.2025 O   0  0  0  0  0  0  0  0  0  0  0  0
  -22.6861  -22.3708   22.5433 O   0  0  0  0  0  0  0  0  0  0  0  0
  -31.2722  -16.1054   19.1014 O   0  0  0  0  0  0  0  0  0  0  0  0
  -22.9980   -7.6588   24.5928 O   0  0  0  0  0  0  0  0  0  0  0  0
  -28.5280  -25.7694   21.7230 O   0  0  0  0  0  0  0  0  0  1  0  0
  -30.6529  -22.1423   21.5028 O   0  0  0  0  0  0  0  0  0  0  0  0
  -27.3204  -18.8313   20.6648 O   0  0  0  0  0  0  0  0  0  0  0  0
  -18.1141   -5.4786   23.2519 F   0  0  0  0  0  0  0  0  0  0  0  0
  -22.7740   -4.9863   23.9218 F   0  0  0  0  0  0  0  0  0  0  0  0
  -24.6302  -18.2859   20.3967 F   0  0  0  0  0  0  0  0  0  0  0  0
  1  2  1  0  0  0  0
  1  5  2  0  0  0  0
  2  6  2  0  0  0  0
  3  9  2  0  0  0  0
  3 18  1  0  0  0  0
  4 10  1  0  0  0  0
  4 18  2  0  0  0  0
  5 20  1  0  0  0  0
  6 22  1  0  0  0  0
  7 11  2  0  0  0  0
  7 21  1  0  0  0  0
  8 12  2  0  0  0  0
  8 24  1  0  0  0  0
  9 25  1  0  0  0  0
 10 25  2  0  0  0  0
 11 26  1  0  0  0  0
 12 27  1  0  0  0  0
 13 14  2  0  0  0  0
 13 28  1  0  0  0  0
 14 30  1  0  0  0  0
 15 23  1  0  0  0  0
 15 26  2  0  0  0  0
 16 27  2  0  0  0  0
 16 29  1  0  0  0  0
 17 30  2  0  0  0  0
 17 31  1  0  0  0  0
 18 32  1  0  0  0  0
 19 32  1  0  0  0  0
 19 33  2  0  0  0  0
 19 34  1  0  0  0  0
 20 22  2  0  0  0  0
 20 39  1  0  0  0  0
 21 23  2  0  0  0  0
 21 40  1  0  0  0  0
 22 48  1  0  0  0  0
 23 41  1  0  0  0  0
 24 29  2  0  0  0  0
 24 70  1  0  0  0  0
 25 79  1  0  0  0  0
 26 80  1  0  0  0  0
 27 81  1  0  0  0  0
 28 31  2  0  0  0  0
 28 79  1  0  0  0  0
 29 82  1  0  0  0  0
 30 83  1  0  0  0  0
 31 84  1  0  0  0  0
 32 64  2  0  0  0  0
 33 65  1  0  0  0  0
 33 68  1  0  0  0  0
 34 69  1  0  0  0  0
 34 74  2  0  0  0  0
 35 49  1  0  0  0  0
 35 71  1  0  0  0  0
 35 75  2  0  0  0  0
 36 61  1  0  0  0  0
 36 66  1  0  0  0  0
 36 76  2  0  0  0  0
 37 62  1  0  0  0  0
 37 72  1  0  0  0  0
 37 77  2  0  0  0  0
 38 67  1  0  0  0  0
 38 70  1  0  0  0  0
 38 78  2  0  0  0  0
 39 42  1  0  0  0  0
 40 49  1  0  0  0  0
 41 66  1  0  0  0  0
 42 44  1  0  0  0  0
 43 45  1  0  0  0  0
 43 46  1  0  0  0  0
 44 48  1  0  0  0  0
 45 50  1  0  0  0  0
 46 67  1  0  0  0  0
 47 50  1  0  0  0  0
 47 67  1  0  0  0  0
 48 71  1  0  0  0  0
 49 66  1  0  0  0  0
 50 65  1  0  0  0  0
 51 62  1  0  0  0  0
 52 63  1  0  0  0  0
 53 63  1  0  0  0  0
 54 63  1  0  0  0  0
 55 73  1  0  0  0  0
 56 57  1  0  0  0  0
 56 58  1  0  0  0  0
 57 80  1  0  0  0  0
 58 81  1  0  0  0  0
 59 60  1  0  0  0  0
 59 82  1  0  0  0  0
 60 85  1  0  0  0  0
 61 63  1  0  0  0  0
 61 72  1  0  0  0  0
 62 73  1  0  0  0  0
 64 65  1  0  0  0  0
M  CHG  1  73   1
M  ISO  4  38 100  57 101  70 100  80 101
M  END
> <Batch ID>
0007

> <Smiles>
CNC(C)C(=O)NC(C(=O)N1Cc2cc([101O:1][101CH2:1]CCOc3ccc([100NH:0][100C:0](=O)N4CCCC(n5nc(-c6ccc(Oc7ccc(F)cc7F)cc6)c(C(N)=O)c5N)C4)c(OCCF)c3)ccc2CC1C(=O)NC1CCCc2ccccc21)C(C)(C)C

> <Shape>
0.246

> <Color>
0.133

> <Negative vol penalty>
0.000

$$$$

  -OEChem-04052315333D

 83 91  0     1  0  0  0  0  0999 V2000
  -19.7188  -24.2353   23.8978 C   0  0  0  0  0  0  0  0  0  0  0  0
  -20.9410  -24.3238   23.2391 C   0  0  0  0  0  0  0  0  0  0  0  0
  -25.5432  -13.8822   21.3304 C   0  0  0  0  0  0  0  0  0  0  0  0
  -25.7440  -14.0611   18.9294 C   0  0  0  0  0  0  0  0  0  0  0  0
  -18.8510  -25.3266   23.9043 C   0  0  0  0  0  0  0  0  0  0  0  0
  -21.2957  -25.5035   22.5857 C   0  0  0  0  0  0  0  0  0  0  0  0
  -26.9164  -27.8805   22.0720 C   0  0  0  0  0  0  0  0  0  0  0  0
  -26.9535  -23.7499   17.3498 C   0  0  0  0  0  0  0  0  0  0  0  0
  -25.3787  -12.5021   21.2139 C   0  0  0  0  0  0  0  0  0  0  0  0
  -25.5796  -12.6808   18.8128 C   0  0  0  0  0  0  0  0  0  0  0  0
  -27.8615  -27.8410   21.0477 C   0  0  0  0  0  0  0  0  0  0  0  0
  -27.5540  -24.9248   16.8975 C   0  0  0  0  0  0  0  0  0  0  0  0
  -22.9044  -10.3491   20.3972 C   0  0  0  0  0  0  0  0  0  0  0  0
  -21.8903   -9.7525   21.1463 C   0  0  0  0  0  0  0  0  0  0  0  0
  -27.0812  -29.9810   20.2536 C   0  0  0  0  0  0  0  0  0  0  0  0
  -24.8982  -24.9547   17.7511 C   0  0  0  0  0  0  0  0  0  0  0  0
  -23.5292   -8.3792   22.2712 C   0  0  0  0  0  0  0  0  0  0  0  0
  -25.7258  -14.6618   20.1881 C   0  0  0  0  0  0  0  0  0  0  0  0
  -27.1055  -16.7900   20.4612 C   0  0  0  0  0  0  0  0  0  0  0  0
  -19.1995  -26.5235   23.2588 C   0  0  0  0  0  0  0  0  0  0  0  0
  -26.0379  -28.9673   22.1884 C   0  0  0  0  0  0  0  0  0  0  0  0
  -20.4312  -26.6114   22.5825 C   0  0  0  0  0  0  0  0  0  0  0  0
  -26.1276  -30.0331   21.2817 C   0  0  0  0  0  0  0  0  0  0  0  0
  -25.6256  -23.7648   17.7766 C   0  0  0  0  0  0  0  0  0  0  0  0
  -25.3969  -11.9013   19.9551 C   0  0  0  0  0  0  0  0  0  0  0  0
  -27.9421  -28.8900   20.1366 C   0  0  0  0  0  0  0  0  0  0  0  0
  -26.8266  -26.1147   16.8720 C   0  0  0  0  0  0  0  0  0  0  0  0
  -24.2310   -9.9607   20.5850 C   0  0  0  0  0  0  0  0  0  0  0  0
  -25.4987  -26.1296   17.2988 C   0  0  0  0  0  0  0  0  0  0  0  0
  -22.2027   -8.7676   22.0833 C   0  0  0  0  0  0  0  0  0  0  0  0
  -24.5433   -8.9758   21.5220 C   0  0  0  0  0  0  0  0  0  0  0  0
  -25.8952  -16.0876   20.3078 C   0  0  0  0  0  0  0  0  0  0  0  0
  -26.7307  -18.1097   20.5273 C   0  0  0  0  0  0  0  0  0  0  0  0
  -28.4486  -16.2939   20.5370 C   0  0  0  0  0  0  0  0  0  0  0  0
  -22.8824  -29.3253   22.0533 C   0  0  0  0  0  0  0  0  0  0  0  0
  -23.5822  -32.3725   22.9177 C   0  0  0  0  0  0  0  0  0  0  0  0
  -25.8657  -34.9072   23.0058 C   0  0  0  0  0  0  0  0  0  0  0  0
  -23.7088  -22.4125   18.6950 C   0  0  0  0  0  0  0  0  0  0  0  0
  -18.2084  -27.6603   23.2530 C   0  0  0  0  0  0  0  0  0  0  0  0
  -25.0419  -29.0072   23.3148 C   0  0  0  0  0  0  0  0  0  0  0  0
  -25.2211  -31.2323   21.3752 C   0  0  0  0  0  0  0  0  0  0  0  0
  -18.8211  -29.0005   22.8549 C   0  0  0  0  0  0  0  0  0  0  0  0
  -22.1532  -20.2129   21.0229 C   0  0  0  0  0  0  0  0  0  0  0  0
  -19.6956  -28.8406   21.6153 C   0  0  0  0  0  0  0  0  0  0  0  0
  -23.0876  -19.0014   21.0570 C   0  0  0  0  0  0  0  0  0  0  0  0
  -22.0501  -20.8103   19.6207 C   0  0  0  0  0  0  0  0  0  0  0  0
  -24.2694  -19.9237   19.0224 C   0  0  0  0  0  0  0  0  0  0  0  0
  -20.8625  -27.8824   21.8833 C   0  0  1  0  0  0  0  0  0  0  0  0
  -23.8549  -29.9225   23.0306 C   0  0  1  0  0  0  0  0  0  0  0  0
  -24.4561  -19.3272   20.4270 C   0  0  2  0  0  0  0  0  0  0  0  0
  -26.1349  -37.2914   23.7409 C   0  0  0  0  0  0  0  0  0  0  0  0
  -21.9573  -33.2969   20.5062 C   0  0  0  0  0  0  0  0  0  0  0  0
  -23.0292  -35.5480   20.7348 C   0  0  0  0  0  0  0  0  0  0  0  0
  -21.6097  -34.6513   22.5797 C   0  0  0  0  0  0  0  0  0  0  0  0
  -28.0402  -34.2036   24.8861 C   0  0  0  0  0  0  0  0  0  0  0  0
  -23.4276  -27.2151   17.7326 C   0  0  0  0  0  0  0  0  0  0  0  0
  -29.2212  -28.8372   16.7495 C   0  0  0  0  0  0  0  0  0  0  0  0
  -28.5259  -29.5176   17.9182 C   0  0  0  0  0  0  0  0  0  1  0  0
  -28.8302  -27.3726   16.6294 C   0  0  0  0  0  0  0  0  0  0  0  0
  -23.8953  -33.6492   22.1754 C   0  0  1  0  0  0  0  0  0  0  0  0
  -26.3029  -35.8305   24.1286 C   0  0  2  0  0  0  0  0  0  0  0  0
  -22.6388  -34.2630   21.4958 C   0  0  0  0  0  0  0  0  0  0  0  0
  -24.8310  -16.8943   20.2784 N   0  0  0  0  0  0  0  0  0  0  0  0
  -25.3715  -18.1173   20.4142 N   0  0  0  0  0  0  0  0  0  0  0  0
  -24.2598  -31.2218   22.4902 N   0  0  0  0  0  0  0  0  0  0  0  0
  -23.3845  -21.0973   19.0896 N   0  0  0  0  0  0  0  0  0  0  0  0
  -27.4344  -19.2528   20.6706 N   0  0  0  0  0  0  0  0  0  0  0  0
  -28.6556  -14.9104   20.4521 N   0  0  0  0  0  0  0  0  0  0  0  0
  -25.0162  -22.5712   18.2367 N   0  0  0  0  0  0  0  0  0  0  0  0
  -21.9007  -28.5493   22.6395 N   0  0  0  0  0  0  0  0  0  0  0  0
  -24.5454  -34.5320   23.1379 N   0  0  0  0  0  0  0  0  0  0  0  0
  -27.7356  -35.5952   24.4646 N   0  3  0  0  0  0  0  0  0  0  0  0
  -29.4345  -17.0538   20.6925 O   0  0  0  0  0  0  0  0  0  0  0  0
  -23.0121  -29.5529   20.8562 O   0  0  0  0  0  0  0  0  0  0  0  0
  -22.7718  -32.3967   23.8473 O   0  0  0  0  0  0  0  0  0  0  0  0
  -26.6189  -34.5570   22.0999 O   0  0  0  0  0  0  0  0  0  0  0  0
  -22.8957  -23.3361   18.7846 O   0  0  0  0  0  0  0  0  0  0  0  0
  -25.2367  -10.5545   19.8410 O   0  0  0  0  0  0  0  0  0  0  0  0
  -24.7782  -27.2856   17.2798 O   0  0  0  0  0  0  0  0  0  0  0  0
  -28.8632  -28.8537   19.1356 O   0  0  0  0  0  0  0  0  0  1  0  0
  -27.4280  -27.2627   16.4260 O   0  0  0  0  0  0  0  0  0  0  0  0
  -21.2289   -8.1958   22.8037 F   0  0  0  0  0  0  0  0  0  0  0  0
  -25.8160   -8.5994   21.7078 F   0  0  0  0  0  0  0  0  0  0  0  0
  1  2  1  0  0  0  0
  1  5  2  0  0  0  0
  2  6  2  0  0  0  0
  3  9  2  0  0  0  0
  3 18  1  0  0  0  0
  4 10  1  0  0  0  0
  4 18  2  0  0  0  0
  5 20  1  0  0  0  0
  6 22  1  0  0  0  0
  7 11  2  0  0  0  0
  7 21  1  0  0  0  0
  8 12  2  0  0  0  0
  8 24  1  0  0  0  0
  9 25  1  0  0  0  0
 10 25  2  0  0  0  0
 11 26  1  0  0  0  0
 12 27  1  0  0  0  0
 13 14  2  0  0  0  0
 13 28  1  0  0  0  0
 14 30  1  0  0  0  0
 15 23  1  0  0  0  0
 15 26  2  0  0  0  0
 16 24  2  0  0  0  0
 16 29  1  0  0  0  0
 17 30  2  0  0  0  0
 17 31  1  0  0  0  0
 18 32  1  0  0  0  0
 19 32  1  0  0  0  0
 19 33  2  0  0  0  0
 19 34  1  0  0  0  0
 20 22  2  0  0  0  0
 20 39  1  0  0  0  0
 21 23  2  0  0  0  0
 21 40  1  0  0  0  0
 22 48  1  0  0  0  0
 23 41  1  0  0  0  0
 24 69  1  0  0  0  0
 25 78  1  0  0  0  0
 26 80  1  0  0  0  0
 27 29  2  0  0  0  0
 27 81  1  0  0  0  0
 28 31  2  0  0  0  0
 28 78  1  0  0  0  0
 29 79  1  0  0  0  0
 30 82  1  0  0  0  0
 31 83  1  0  0  0  0
 32 63  2  0  0  0  0
 33 64  1  0  0  0  0
 33 67  1  0  0  0  0
 34 68  1  0  0  0  0
 34 73  2  0  0  0  0
 35 49  1  0  0  0  0
 35 70  1  0  0  0  0
 35 74  2  0  0  0  0
 36 60  1  0  0  0  0
 36 65  1  0  0  0  0
 36 75  2  0  0  0  0
 37 61  1  0  0  0  0
 37 71  1  0  0  0  0
 37 76  2  0  0  0  0
 38 66  1  0  0  0  0
 38 69  1  0  0  0  0
 38 77  2  0  0  0  0
 39 42  1  0  0  0  0
 40 49  1  0  0  0  0
 41 65  1  0  0  0  0
 42 44  1  0  0  0  0
 43 45  1  0  0  0  0
 43 46  1  0  0  0  0
 44 48  1  0  0  0  0
 45 50  1  0  0  0  0
 46 66  1  0  0  0  0
 47 50  1  0  0  0  0
 47 66  1  0  0  0  0
 48 70  1  0  0  0  0
 49 65  1  0  0  0  0
 50 64  1  0  0  0  0
 51 61  1  0  0  0  0
 52 62  1  0  0  0  0
 53 62  1  0  0  0  0
 54 62  1  0  0  0  0
 55 72  1  0  0  0  0
 56 79  1  0  0  0  0
 57 58  1  0  0  0  0
 57 59  1  0  0  0  0
 58 80  1  0  0  0  0
 59 81  1  0  0  0  0
 60 62  1  0  0  0  0
 60 71  1  0  0  0  0
 61 72  1  0  0  0  0
 63 64  1  0  0  0  0
M  CHG  1  72   1
M  ISO  4  38 100  58 101  69 100  80 101
M  END
> <Batch ID>
0007

> <Smiles>
CNC(C)C(=O)NC(C(=O)N1Cc2cc([101O:1][101CH2:1]CCOc3ccc([100NH:0][100C:0](=O)N4CCCC(n5nc(-c6ccc(Oc7ccc(F)cc7F)cc6)c(C(N)=O)c5N)C4)cc3OC)ccc2CC1C(=O)NC1CCCc2ccccc21)C(C)(C)C

> <Shape>
0.236

> <Color>
0.091

> <Negative vol penalty>
0.000

$$$$

  -OEChem-04052315333D

 82 90  0     1  0  0  0  0  0999 V2000
  -32.3647  -14.6853   20.6314 C   0  0  0  0  0  0  0  0  0  0  0  0
  -31.4985  -15.6914   21.0473 C   0  0  0  0  0  0  0  0  0  0  0  0
  -28.7236  -24.3626   21.8931 C   0  0  0  0  0  0  0  0  0  0  0  0
  -28.3911  -24.3961   19.5003 C   0  0  0  0  0  0  0  0  0  0  0  0
  -31.8735  -13.5983   19.9097 C   0  0  0  0  0  0  0  0  0  0  0  0
  -30.1406  -15.6115   20.7406 C   0  0  0  0  0  0  0  0  0  0  0  0
  -25.4658  -17.5302   24.2006 C   0  0  0  0  0  0  0  0  0  0  0  0
  -22.3985  -28.0385   23.7305 C   0  0  0  0  0  0  0  0  0  0  0  0
  -24.1190  -27.3104   25.2624 C   0  0  0  0  0  0  0  0  0  0  0  0
  -28.8235  -22.9718   21.8598 C   0  0  0  0  0  0  0  0  0  0  0  0
  -28.4910  -23.0052   19.4669 C   0  0  0  0  0  0  0  0  0  0  0  0
  -24.6972  -18.6931   24.1774 C   0  0  0  0  0  0  0  0  0  0  0  0
  -21.8566  -26.7532   23.7283 C   0  0  0  0  0  0  0  0  0  0  0  0
  -23.5771  -26.0251   25.2602 C   0  0  0  0  0  0  0  0  0  0  0  0
  -26.5167  -20.3484   20.1556 C   0  0  0  0  0  0  0  0  0  0  0  0
  -25.5791  -19.6493   19.3955 C   0  0  0  0  0  0  0  0  0  0  0  0
  -23.0226  -17.5530   22.8678 C   0  0  0  0  0  0  0  0  0  0  0  0
  -27.3586  -18.7369   18.0397 C   0  0  0  0  0  0  0  0  0  0  0  0
  -28.5073  -25.0748   20.7133 C   0  0  0  0  0  0  0  0  0  0  0  0
  -29.4506  -27.4429   20.6145 C   0  0  0  0  0  0  0  0  0  0  0  0
  -30.5073  -13.5002   19.6023 C   0  0  0  0  0  0  0  0  0  0  0  0
  -25.0230  -16.3711   23.5472 C   0  0  0  0  0  0  0  0  0  0  0  0
  -29.6308  -14.5228   20.0129 C   0  0  0  0  0  0  0  0  0  0  0  0
  -23.7863  -16.3759   22.8863 C   0  0  0  0  0  0  0  0  0  0  0  0
  -23.5298  -28.3171   24.4976 C   0  0  0  0  0  0  0  0  0  0  0  0
  -28.7072  -22.2930   20.6467 C   0  0  0  0  0  0  0  0  0  0  0  0
  -22.4458  -25.7465   24.4931 C   0  0  0  0  0  0  0  0  0  0  0  0
  -23.4767  -18.7055   23.5085 C   0  0  0  0  0  0  0  0  0  0  0  0
  -27.8753  -20.2418   19.8577 C   0  0  0  0  0  0  0  0  0  0  0  0
  -26.0000  -18.8435   18.3376 C   0  0  0  0  0  0  0  0  0  0  0  0
  -28.2962  -19.4360   18.7998 C   0  0  0  0  0  0  0  0  0  0  0  0
  -28.4034  -26.5115   20.7471 C   0  0  0  0  0  0  0  0  0  0  0  0
  -28.8363  -28.6671   20.7161 C   0  0  0  0  0  0  0  0  0  0  0  0
  -30.8533  -27.2213   20.4169 C   0  0  0  0  0  0  0  0  0  0  0  0
  -26.1168  -14.5888   21.1533 C   0  0  0  0  0  0  0  0  0  0  0  0
  -23.6326  -12.6671   21.9645 C   0  0  0  0  0  0  0  0  0  0  0  0
  -20.5643  -12.3603   23.4268 C   0  0  0  0  0  0  0  0  0  0  0  0
  -23.9839  -30.4891   23.3718 C   0  0  0  0  0  0  0  0  0  0  0  0
  -30.0306  -12.3299   18.7791 C   0  0  0  0  0  0  0  0  0  0  0  0
  -25.8514  -15.1170   23.6042 C   0  0  0  0  0  0  0  0  0  0  0  0
  -23.2565  -15.1520   22.1865 C   0  0  0  0  0  0  0  0  0  0  0  0
  -28.5173  -12.1335   18.8186 C   0  0  0  0  0  0  0  0  0  0  0  0
  -24.6677  -30.8527   19.9014 C   0  0  0  0  0  0  0  0  0  0  0  0
  -27.8007  -13.4635   18.6077 C   0  0  0  0  0  0  0  0  0  0  0  0
  -25.8084  -29.8537   19.7106 C   0  0  0  0  0  0  0  0  0  0  0  0
  -23.5991  -30.3253   20.8595 C   0  0  0  0  0  0  0  0  0  0  0  0
  -25.2722  -28.8863   21.9795 C   0  0  0  0  0  0  0  0  0  0  0  0
  -28.1472  -14.4595   19.7210 C   0  0  1  0  0  0  0  0  0  0  0  0
  -25.5431  -14.1452   22.4693 C   0  0  1  0  0  0  0  0  0  0  0  0
  -26.3896  -29.4137   21.0658 C   0  0  1  0  0  0  0  0  0  0  0  0
  -18.7685  -10.6732   23.9021 C   0  0  0  0  0  0  0  0  0  0  0  0
  -22.7447  -12.7942   19.0481 C   0  0  0  0  0  0  0  0  0  0  0  0
  -20.5089  -11.9240   19.7635 C   0  0  0  0  0  0  0  0  0  0  0  0
  -22.5523  -10.5333   20.0996 C   0  0  0  0  0  0  0  0  0  0  0  0
  -24.5618  -30.2062   25.7720 C   0  0  0  0  0  0  0  0  0  0  0  0
  -20.8301  -12.7293   26.3513 C   0  0  0  0  0  0  0  0  0  0  0  0
  -22.3037  -22.1602   23.9922 C   0  0  0  0  0  0  0  0  0  0  0  0
  -22.8174  -23.4063   24.6961 C   0  0  0  0  0  0  0  0  0  0  0  0
  -23.2470  -20.9800   24.1641 C   0  0  0  0  0  0  0  0  0  1  0  0
  -22.1824  -12.5654   21.5576 C   0  0  1  0  0  0  0  0  0  0  0  0
  -20.0214  -11.3564   24.4278 C   0  0  2  0  0  0  0  0  0  0  0  0
  -22.0077  -11.9780   20.1286 C   0  0  0  0  0  0  0  0  0  0  0  0
  -27.2140  -27.0941   20.9201 N   0  0  0  0  0  0  0  0  0  0  0  0
  -27.5101  -28.4048   20.8968 N   0  0  0  0  0  0  0  0  0  0  0  0
  -24.1060  -13.9521   22.2652 N   0  0  0  0  0  0  0  0  0  0  0  0
  -24.2053  -29.8800   22.1221 N   0  0  0  0  0  0  0  0  0  0  0  0
  -29.3065  -29.9316   20.6677 N   0  0  0  0  0  0  0  0  0  0  0  0
  -31.3161  -25.9009   20.3349 N   0  0  0  0  0  0  0  0  0  0  0  0
  -27.4068  -14.1492   20.9252 N   0  0  0  0  0  0  0  0  0  0  0  0
  -21.5175  -11.7974   22.6047 N   0  0  0  0  0  0  0  0  0  0  0  0
  -24.0910  -29.6476   24.5000 N   0  0  0  0  0  0  0  0  0  0  0  0
  -19.6835  -12.0351   25.7108 N   0  3  0  0  0  0  0  0  0  0  0  0
  -31.6743  -28.1659   20.3325 O   0  0  0  0  0  0  0  0  0  0  0  0
  -25.4388  -15.2776   20.4001 O   0  0  0  0  0  0  0  0  0  0  0  0
  -24.3182  -11.6431   22.0207 O   0  0  0  0  0  0  0  0  0  0  0  0
  -20.1786  -13.5262   23.3767 O   0  0  0  0  0  0  0  0  0  0  0  0
  -23.7358  -31.6965   23.4739 O   0  0  0  0  0  0  0  0  0  0  0  0
  -28.8050  -20.9359   20.6138 O   0  0  0  0  0  0  0  0  0  0  0  0
  -21.9134  -24.4836   24.4909 O   0  0  0  0  0  0  0  0  0  0  0  0
  -22.7248  -19.8394   23.4838 O   0  0  0  0  0  0  0  0  0  1  0  0
  -25.0997  -18.1710   17.6087 F   0  0  0  0  0  0  0  0  0  0  0  0
  -29.6001  -19.3287   18.5096 F   0  0  0  0  0  0  0  0  0  0  0  0
  1  2  1  0  0  0  0
  1  5  2  0  0  0  0
  2  6  2  0  0  0  0
  3 10  2  0  0  0  0
  3 19  1  0  0  0  0
  4 11  1  0  0  0  0
  4 19  2  0  0  0  0
  5 21  1  0  0  0  0
  6 23  1  0  0  0  0
  7 12  2  0  0  0  0
  7 22  1  0  0  0  0
  8 13  2  0  0  0  0
  8 25  1  0  0  0  0
  9 14  1  0  0  0  0
  9 25  2  0  0  0  0
 10 26  1  0  0  0  0
 11 26  2  0  0  0  0
 12 28  1  0  0  0  0
 13 27  1  0  0  0  0
 14 27  2  0  0  0  0
 15 16  2  0  0  0  0
 15 29  1  0  0  0  0
 16 30  1  0  0  0  0
 17 24  1  0  0  0  0
 17 28  2  0  0  0  0
 18 30  2  0  0  0  0
 18 31  1  0  0  0  0
 19 32  1  0  0  0  0
 20 32  1  0  0  0  0
 20 33  2  0  0  0  0
 20 34  1  0  0  0  0
 21 23  2  0  0  0  0
 21 39  1  0  0  0  0
 22 24  2  0  0  0  0
 22 40  1  0  0  0  0
 23 48  1  0  0  0  0
 24 41  1  0  0  0  0
 25 71  1  0  0  0  0
 26 78  1  0  0  0  0
 27 79  1  0  0  0  0
 28 80  1  0  0  0  0
 29 31  2  0  0  0  0
 29 78  1  0  0  0  0
 30 81  1  0  0  0  0
 31 82  1  0  0  0  0
 32 63  2  0  0  0  0
 33 64  1  0  0  0  0
 33 67  1  0  0  0  0
 34 68  1  0  0  0  0
 34 73  2  0  0  0  0
 35 49  1  0  0  0  0
 35 69  1  0  0  0  0
 35 74  2  0  0  0  0
 36 60  1  0  0  0  0
 36 65  1  0  0  0  0
 36 75  2  0  0  0  0
 37 61  1  0  0  0  0
 37 70  1  0  0  0  0
 37 76  2  0  0  0  0
 38 66  1  0  0  0  0
 38 71  1  0  0  0  0
 38 77  2  0  0  0  0
 39 42  1  0  0  0  0
 40 49  1  0  0  0  0
 41 65  1  0  0  0  0
 42 44  1  0  0  0  0
 43 45  1  0  0  0  0
 43 46  1  0  0  0  0
 44 48  1  0  0  0  0
 45 50  1  0  0  0  0
 46 66  1  0  0  0  0
 47 50  1  0  0  0  0
 47 66  1  0  0  0  0
 48 69  1  0  0  0  0
 49 65  1  0  0  0  0
 50 64  1  0  0  0  0
 51 61  1  0  0  0  0
 52 62  1  0  0  0  0
 53 62  1  0  0  0  0
 54 62  1  0  0  0  0
 55 71  1  0  0  0  0
 56 72  1  0  0  0  0
 57 58  1  0  0  0  0
 57 59  1  0  0  0  0
 58 79  1  0  0  0  0
 59 80  1  0  0  0  0
 60 62  1  0  0  0  0
 60 70  1  0  0  0  0
 61 72  1  0  0  0  0
 63 64  1  0  0  0  0
M  CHG  1  72   1
M  ISO  4  38 100  59 101  71 100  80 101
M  END
> <Batch ID>
0007

> <Smiles>
CNC(C)C(=O)NC(C(=O)N1Cc2cc([101O:1][101CH2:1]CCOc3ccc([100N:0](C)[100C:0](=O)N4CCCC(n5nc(-c6ccc(Oc7ccc(F)cc7F)cc6)c(C(N)=O)c5N)C4)cc3)ccc2CC1C(=O)NC1CCCc2ccccc21)C(C)(C)C

> <Shape>
0.249

> <Color>
0.077

> <Negative vol penalty>
0.000

$$$$

  -OEChem-04052315333D

 87 96  0     1  0  0  0  0  0999 V2000
  -24.4920  -11.4095   20.2732 C   0  0  0  0  0  0  0  0  0  0  0  0
  -23.8010  -12.6098   20.1419 C   0  0  0  0  0  0  0  0  0  0  0  0
  -21.5207  -23.8433   23.8327 C   0  0  0  0  0  0  0  0  0  0  0  0
  -21.3479  -24.7011   26.0846 C   0  0  0  0  0  0  0  0  0  0  0  0
  -25.7488  -11.3925   20.8767 C   0  0  0  0  0  0  0  0  0  0  0  0
  -24.3660  -13.7936   20.6150 C   0  0  0  0  0  0  0  0  0  0  0  0
  -23.7971  -19.3792   18.1689 C   0  0  0  0  0  0  0  0  0  0  0  0
  -27.4784  -27.8154   19.7813 C   0  0  0  0  0  0  0  0  0  0  0  0
  -21.3262  -22.5476   24.3113 C   0  0  0  0  0  0  0  0  0  0  0  0
  -21.1534  -23.4055   26.5633 C   0  0  0  0  0  0  0  0  0  0  0  0
  -22.9712  -20.4590   18.4782 C   0  0  0  0  0  0  0  0  0  0  0  0
  -26.5038  -26.9716   19.2488 C   0  0  0  0  0  0  0  0  0  0  0  0
  -23.1607  -20.1567   25.8419 C   0  0  0  0  0  0  0  0  0  0  0  0
  -23.9964  -19.1534   25.3518 C   0  0  0  0  0  0  0  0  0  0  0  0
  -24.7375  -21.4208   19.8102 C   0  0  0  0  0  0  0  0  0  0  0  0
  -24.7771  -28.3412   20.2388 C   0  0  0  0  0  0  0  0  0  0  0  0
  -22.0728  -17.9709   24.4923 C   0  0  0  0  0  0  0  0  0  0  0  0
  -21.5315  -24.9200   24.7194 C   0  0  0  0  0  0  0  0  0  0  0  0
  -20.9323  -26.9521   23.2983 C   0  0  0  0  0  0  0  0  0  0  0  0
  -26.3336  -12.5781   21.3488 C   0  0  0  0  0  0  0  0  0  0  0  0
  -25.0979  -19.3066   18.6876 C   0  0  0  0  0  0  0  0  0  0  0  0
  -25.6312  -13.7922   21.2266 C   0  0  0  0  0  0  0  0  0  0  0  0
  -25.5788  -20.3403   19.5039 C   0  0  0  0  0  0  0  0  0  0  0  0
  -27.1025  -28.9221   20.5426 C   0  0  0  0  0  0  0  0  0  0  0  0
  -21.1426  -22.3287   25.6766 C   0  0  0  0  0  0  0  0  0  0  0  0
  -23.4403  -21.4786   19.3013 C   0  0  0  0  0  0  0  0  0  0  0  0
  -25.1531  -27.2344   19.4775 C   0  0  0  0  0  0  0  0  0  0  0  0
  -21.7809  -20.0672   25.6574 C   0  0  0  0  0  0  0  0  0  0  0  0
  -23.4525  -18.0605   24.6769 C   0  0  0  0  0  0  0  0  0  0  0  0
  -25.7518  -29.1850   20.7713 C   0  0  0  0  0  0  0  0  0  0  0  0
  -21.2370  -18.9743   24.9825 C   0  0  0  0  0  0  0  0  0  0  0  0
  -21.7329  -26.2586   24.2256 C   0  0  0  0  0  0  0  0  0  0  0  0
  -21.5431  -28.1750   23.1642 C   0  0  0  0  0  0  0  0  0  0  0  0
  -19.7428  -26.5288   22.6190 C   0  0  0  0  0  0  0  0  0  0  0  0
  -26.6403  -17.2913   20.6016 C   0  0  0  0  0  0  0  0  0  0  0  0
  -29.1949  -19.1427   19.8475 C   0  0  0  0  0  0  0  0  0  0  0  0
  -30.3694  -22.1670   18.7885 C   0  0  0  0  0  0  0  0  0  0  0  0
  -27.1077  -30.0752   23.9424 C   0  0  0  0  0  0  0  0  0  0  0  0
  -27.6738  -12.5027   22.0365 C   0  0  0  0  0  0  0  0  0  0  0  0
  -25.9856  -18.1484   18.3228 C   0  0  0  0  0  0  0  0  0  0  0  0
  -26.9745  -20.3198   20.0698 C   0  0  0  0  0  0  0  0  0  0  0  0
  -28.3648  -13.8569   22.1741 C   0  0  0  0  0  0  0  0  0  0  0  0
  -24.2521  -31.3008   25.5445 C   0  0  0  0  0  0  0  0  0  0  0  0
  -27.3841  -14.9072   22.6860 C   0  0  0  0  0  0  0  0  0  0  0  0
  -23.2026  -30.2143   25.3192 C   0  0  0  0  0  0  0  0  0  0  0  0
  -29.3813  -27.1623   24.4109 C   0  0  0  0  0  0  0  0  0  0  0  0
  -28.5081  -27.6457   25.5300 C   0  0  0  0  0  0  0  0  0  0  0  0
  -25.6185  -30.6865   25.8213 C   0  0  0  0  0  0  0  0  0  0  0  0
  -25.0549  -28.6775   24.4873 C   0  0  0  0  0  0  0  0  0  0  0  0
  -26.2215  -15.1009   21.7050 C   0  0  1  0  0  0  0  0  0  0  0  0
  -27.1149  -17.9228   19.3234 C   0  0  1  0  0  0  0  0  0  0  0  0
  -23.6473  -29.2451   24.2112 C   0  0  1  0  0  0  0  0  0  0  0  0
  -28.0204  -27.7278   24.1095 C   0  0  0  0  0  0  0  0  0  0  0  0
  -32.5062  -23.3910   18.3056 C   0  0  0  0  0  0  0  0  0  0  0  0
  -29.6739  -19.4829   22.8417 C   0  0  0  0  0  0  0  0  0  0  0  0
  -31.1705  -21.4187   22.3116 C   0  0  0  0  0  0  0  0  0  0  0  0
  -31.7469  -19.1363   21.4863 C   0  0  0  0  0  0  0  0  0  0  0  0
  -29.6358  -22.5645   15.9490 C   0  0  0  0  0  0  0  0  0  0  0  0
  -28.1471  -29.8224   21.1100 C   0  0  0  0  0  0  0  0  0  0  0  0
  -22.3574  -24.9231   19.4241 C   0  0  0  0  0  0  0  0  0  0  0  0
  -28.8242  -29.2623   22.3668 C   0  0  0  0  0  0  0  0  0  0  0  0
  -23.2731  -23.7865   19.8504 C   0  0  0  0  0  0  0  0  0  1  0  0
  -22.9824  -26.2849   19.6832 C   0  0  0  0  0  0  0  0  0  0  0  0
  -29.8217  -20.3874   20.4279 C   0  0  1  0  0  0  0  0  0  0  0  0
  -31.3900  -22.5355   17.7269 C   0  0  2  0  0  0  0  0  0  0  0  0
  -30.5762  -20.1061   21.7580 C   0  0  0  0  0  0  0  0  0  0  0  0
  -22.7731  -26.9808   24.6504 N   0  0  0  0  0  0  0  0  0  0  0  0
  -22.6303  -28.1408   23.9870 N   0  0  0  0  0  0  0  0  0  0  0  0
  -27.8020  -19.1631   19.6894 N   0  0  0  0  0  0  0  0  0  0  0  0
  -26.0129  -29.7592   24.7599 N   0  0  0  0  0  0  0  0  0  0  0  0
  -21.2510  -29.2653   22.4239 N   0  0  0  0  0  0  0  0  0  0  0  0
  -18.5035  -26.7750   23.2255 N   0  0  0  0  0  0  0  0  0  0  0  0
  -26.6390  -15.9096   20.5798 N   0  0  0  0  0  0  0  0  0  0  0  0
  -30.6579  -20.9526   19.3746 N   0  0  0  0  0  0  0  0  0  0  0  0
  -27.8680  -29.0060   23.4382 N   0  0  0  0  0  0  0  0  0  0  0  0
  -30.7381  -23.2968   16.6239 N   0  3  0  0  0  0  0  0  0  0  0  0
  -19.7786  -25.9347   21.5148 O   0  0  0  0  0  0  0  0  0  0  0  0
  -26.3019  -18.0047   21.5387 O   0  0  0  0  0  0  0  0  0  0  0  0
  -29.9156  -18.1903   19.5390 O   0  0  0  0  0  0  0  0  0  0  0  0
  -29.4141  -22.8862   19.0724 O   0  0  0  0  0  0  0  0  0  0  0  0
  -27.4072  -31.2498   23.6911 O   0  0  0  0  0  0  0  0  0  0  0  0
  -20.9526  -21.0646   26.1439 O   0  0  0  0  0  0  0  0  0  0  0  0
  -22.6360  -22.5333   19.6053 O   0  0  0  0  0  0  0  0  0  1  0  0
  -24.1958  -26.4056   18.9531 O   0  0  0  0  0  0  0  0  0  0  0  0
  -24.2554  -17.0978   24.2049 F   0  0  0  0  0  0  0  0  0  0  0  0
  -25.3811  -30.2453   21.5027 F   0  0  0  0  0  0  0  0  0  0  0  0
  -19.9124  -18.8834   24.8011 F   0  0  0  0  0  0  0  0  0  0  0  0
  1  2  1  0  0  0  0
  1  5  2  0  0  0  0
  2  6  2  0  0  0  0
  3  9  2  0  0  0  0
  3 18  1  0  0  0  0
  4 10  1  0  0  0  0
  4 18  2  0  0  0  0
  5 20  1  0  0  0  0
  6 22  1  0  0  0  0
  7 11  2  0  0  0  0
  7 21  1  0  0  0  0
  8 12  2  0  0  0  0
  8 24  1  0  0  0  0
  9 25  1  0  0  0  0
 10 25  2  0  0  0  0
 11 26  1  0  0  0  0
 12 27  1  0  0  0  0
 13 14  2  0  0  0  0
 13 28  1  0  0  0  0
 14 29  1  0  0  0  0
 15 23  1  0  0  0  0
 15 26  2  0  0  0  0
 16 27  2  0  0  0  0
 16 30  1  0  0  0  0
 17 29  2  0  0  0  0
 17 31  1  0  0  0  0
 18 32  1  0  0  0  0
 19 32  1  0  0  0  0
 19 33  2  0  0  0  0
 19 34  1  0  0  0  0
 20 22  2  0  0  0  0
 20 39  1  0  0  0  0
 21 23  2  0  0  0  0
 21 40  1  0  0  0  0
 22 50  1  0  0  0  0
 23 41  1  0  0  0  0
 24 30  2  0  0  0  0
 24 59  1  0  0  0  0
 25 82  1  0  0  0  0
 26 83  1  0  0  0  0
 27 84  1  0  0  0  0
 28 31  2  0  0  0  0
 28 82  1  0  0  0  0
 29 85  1  0  0  0  0
 30 86  1  0  0  0  0
 31 87  1  0  0  0  0
 32 67  2  0  0  0  0
 33 68  1  0  0  0  0
 33 71  1  0  0  0  0
 34 72  1  0  0  0  0
 34 77  2  0  0  0  0
 35 51  1  0  0  0  0
 35 73  1  0  0  0  0
 35 78  2  0  0  0  0
 36 64  1  0  0  0  0
 36 69  1  0  0  0  0
 36 79  2  0  0  0  0
 37 65  1  0  0  0  0
 37 74  1  0  0  0  0
 37 80  2  0  0  0  0
 38 70  1  0  0  0  0
 38 75  1  0  0  0  0
 38 81  2  0  0  0  0
 39 42  1  0  0  0  0
 40 51  1  0  0  0  0
 41 69  1  0  0  0  0
 42 44  1  0  0  0  0
 43 45  1  0  0  0  0
 43 48  1  0  0  0  0
 44 50  1  0  0  0  0
 45 52  1  0  0  0  0
 46 47  1  0  0  0  0
 46 53  1  0  0  0  0
 47 53  1  0  0  0  0
 48 70  1  0  0  0  0
 49 52  1  0  0  0  0
 49 70  1  0  0  0  0
 50 73  1  0  0  0  0
 51 69  1  0  0  0  0
 52 68  1  0  0  0  0
 53 75  1  0  0  0  0
 54 65  1  0  0  0  0
 55 66  1  0  0  0  0
 56 66  1  0  0  0  0
 57 66  1  0  0  0  0
 58 76  1  0  0  0  0
 59 61  1  0  0  0  0
 60 62  1  0  0  0  0
 60 63  1  0  0  0  0
 61 75  1  0  0  0  0
 62 83  1  0  0  0  0
 63 84  1  0  0  0  0
 64 66  1  0  0  0  0
 64 74  1  0  0  0  0
 65 76  1  0  0  0  0
 67 68  1  0  0  0  0
M  CHG  1  76   1
M  ISO  4  38 100  62 101  75 100  83 101
M  END
> <Batch ID>
0007

> <Smiles>
CNC(C)C(=O)NC(C(=O)N1Cc2cc([101O:1][101CH2:1]CCOc3ccc(CC[100N:0](C4CC4)[100C:0](=O)N4CCCC(n5nc(-c6ccc(Oc7ccc(F)cc7F)cc6)c(C(N)=O)c5N)C4)c(F)c3)ccc2CC1C(=O)NC1CCCc2ccccc21)C(C)(C)C

> <Shape>
0.223

> <Color>
0.087

> <Negative vol penalty>
0.000

$$$$

  -OEChem-04052315333D

 87 95  0     1  0  0  0  0  0999 V2000
  -18.7252  -27.0404   23.3533 C   0  0  0  0  0  0  0  0  0  0  0  0
  -19.4358  -26.1146   22.5962 C   0  0  0  0  0  0  0  0  0  0  0  0
  -23.9453   -9.5385   20.0799 C   0  0  0  0  0  0  0  0  0  0  0  0
  -23.1092  -10.2841   22.2205 C   0  0  0  0  0  0  0  0  0  0  0  0
  -19.1018  -28.3828   23.3441 C   0  0  0  0  0  0  0  0  0  0  0  0
  -20.5229  -26.5308   21.8284 C   0  0  0  0  0  0  0  0  0  0  0  0
  -24.5122  -23.4435   22.2744 C   0  0  0  0  0  0  0  0  0  0  0  0
  -23.2482   -8.3392   20.2253 C   0  0  0  0  0  0  0  0  0  0  0  0
  -22.4121   -9.0847   22.3660 C   0  0  0  0  0  0  0  0  0  0  0  0
  -24.4745  -22.2472   21.5594 C   0  0  0  0  0  0  0  0  0  0  0  0
  -20.0679   -7.2476   19.8690 C   0  0  0  0  0  0  0  0  0  0  0  0
  -19.3510   -6.7771   18.7690 C   0  0  0  0  0  0  0  0  0  0  0  0
  -29.9633  -14.4726   18.9423 C   0  0  0  0  0  0  0  0  0  0  0  0
  -28.1820  -14.3505   17.3148 C   0  0  0  0  0  0  0  0  0  0  0  0
  -25.8867  -23.2228   19.8644 C   0  0  0  0  0  0  0  0  0  0  0  0
  -20.6794   -4.7591   18.7664 C   0  0  0  0  0  0  0  0  0  0  0  0
  -23.8759  -10.5110   21.0776 C   0  0  0  0  0  0  0  0  0  0  0  0
  -28.9962  -15.1040   18.1603 C   0  0  0  0  0  0  0  0  0  0  0  0
  -24.1306  -12.9376   20.3329 C   0  0  0  0  0  0  0  0  0  0  0  0
  -20.2000  -28.8141   22.5834 C   0  0  0  0  0  0  0  0  0  0  0  0
  -25.2297  -24.5438   21.7835 C   0  0  0  0  0  0  0  0  0  0  0  0
  -20.9137  -27.8805   21.8079 C   0  0  0  0  0  0  0  0  0  0  0  0
  -25.9340  -24.4311   20.5764 C   0  0  0  0  0  0  0  0  0  0  0  0
  -30.1163  -13.0876   18.8788 C   0  0  0  0  0  0  0  0  0  0  0  0
  -22.4815   -8.1123   21.3683 C   0  0  0  0  0  0  0  0  0  0  0  0
  -25.1595  -22.1376   20.3528 C   0  0  0  0  0  0  0  0  0  0  0  0
  -21.0906   -6.4739   20.4178 C   0  0  0  0  0  0  0  0  0  0  0  0
  -28.3349  -12.9655   17.2513 C   0  0  0  0  0  0  0  0  0  0  0  0
  -19.6567   -5.5328   18.2177 C   0  0  0  0  0  0  0  0  0  0  0  0
  -21.3964   -5.2297   19.8665 C   0  0  0  0  0  0  0  0  0  0  0  0
  -29.3021  -12.3340   18.0333 C   0  0  0  0  0  0  0  0  0  0  0  0
  -24.5963  -11.7499   20.9282 C   0  0  0  0  0  0  0  0  0  0  0  0
  -25.1844  -13.8118   20.4409 C   0  0  0  0  0  0  0  0  0  0  0  0
  -28.8343  -16.5661   18.2272 C   0  0  0  0  0  0  0  0  0  0  0  0
  -27.7398  -17.2424   17.8449 C   0  0  0  0  0  0  0  0  0  0  0  0
  -22.8591  -13.2248   19.7357 C   0  0  0  0  0  0  0  0  0  0  0  0
  -24.4700  -27.4956   20.8819 C   0  0  0  0  0  0  0  0  0  0  0  0
  -27.6871  -27.8299   20.6345 C   0  0  0  0  0  0  0  0  0  0  0  0
  -30.7298  -26.3447   20.2070 C   0  0  0  0  0  0  0  0  0  0  0  0
  -31.1389  -12.5570   21.1068 C   0  0  0  0  0  0  0  0  0  0  0  0
  -20.5402  -30.2833   22.5680 C   0  0  0  0  0  0  0  0  0  0  0  0
  -25.2823  -25.8186   22.5800 C   0  0  0  0  0  0  0  0  0  0  0  0
  -26.7357  -25.5764   20.0161 C   0  0  0  0  0  0  0  0  0  0  0  0
  -21.9343  -30.5800   22.0215 C   0  0  0  0  0  0  0  0  0  0  0  0
  -29.0047  -14.7934   23.1408 C   0  0  0  0  0  0  0  0  0  0  0  0
  -22.1797  -29.8009   20.7332 C   0  0  0  0  0  0  0  0  0  0  0  0
  -27.5943  -14.3065   22.8135 C   0  0  0  0  0  0  0  0  0  0  0  0
  -30.0333  -13.6733   23.0178 C   0  0  0  0  0  0  0  0  0  0  0  0
  -28.6096  -12.5105   21.3557 C   0  0  0  0  0  0  0  0  0  0  0  0
  -22.1139  -28.2892   20.9817 C   0  0  1  0  0  0  0  0  0  0  0  0
  -25.6225  -27.0398   21.7313 C   0  0  1  0  0  0  0  0  0  0  0  0
  -27.5607  -13.6300   21.4331 C   0  0  1  0  0  0  0  0  0  0  0  0
  -25.4659  -11.0535   16.1991 C   0  0  0  0  0  0  0  0  0  0  0  0
  -33.1733  -26.8810   20.0097 C   0  0  0  0  0  0  0  0  0  0  0  0
  -27.2407  -28.8014   17.7767 C   0  0  0  0  0  0  0  0  0  0  0  0
  -29.6743  -28.4103   17.3377 C   0  0  0  0  0  0  0  0  0  0  0  0
  -28.9706  -30.0779   19.0543 C   0  0  0  0  0  0  0  0  0  0  0  0
  -32.3247  -11.9533   19.0426 C   0  0  0  0  0  0  0  0  0  0  0  0
  -31.3918  -24.7543   22.6135 C   0  0  0  0  0  0  0  0  0  0  0  0
  -27.6182  -18.7372   17.9359 C   0  0  0  0  0  0  0  0  0  0  0  0
  -26.4197  -19.1443   18.7911 C   0  0  0  0  0  0  0  0  0  0  0  0
  -26.1200  -12.3420   16.6502 C   0  0  0  0  0  0  0  0  0  0  0  0
  -26.2647  -20.6575   18.8549 C   0  0  0  0  0  0  0  0  0  1  0  0
  -28.7036  -27.6112   19.5400 C   0  0  1  0  0  0  0  0  0  0  0  0
  -32.0420  -26.5036   20.9534 C   0  0  2  0  0  0  0  0  0  0  0  0
  -28.6307  -28.7041   18.4365 C   0  0  0  0  0  0  0  0  0  0  0  0
  -25.8484  -11.8565   21.3807 N   0  0  0  0  0  0  0  0  0  0  0  0
  -26.1785  -13.1215   21.0695 N   0  0  0  0  0  0  0  0  0  0  0  0
  -26.7512  -26.8041   20.8286 N   0  0  0  0  0  0  0  0  0  0  0  0
  -29.9493  -12.9991   21.7212 N   0  0  0  0  0  0  0  0  0  0  0  0
  -25.3483  -15.0961   20.0585 N   0  0  0  0  0  0  0  0  0  0  0  0
  -21.8898  -12.2129   19.7087 N   0  0  0  0  0  0  0  0  0  0  0  0
  -23.3369  -27.8251   21.6009 N   0  0  0  0  0  0  0  0  0  0  0  0
  -30.0006  -27.5150   20.2009 N   0  0  0  0  0  0  0  0  0  0  0  0
  -31.1271  -12.4695   19.7016 N   0  0  0  0  0  0  0  0  0  0  0  0
  -32.4060  -25.2310   21.6381 N   0  3  0  0  0  0  0  0  0  0  0  0
  -22.5964  -14.3405   19.2261 O   0  0  0  0  0  0  0  0  0  0  0  0
  -24.5997  -27.5462   19.6643 O   0  0  0  0  0  0  0  0  0  0  0  0
  -27.7265  -28.8693   21.2975 O   0  0  0  0  0  0  0  0  0  0  0  0
  -30.3876  -25.2891   19.6787 O   0  0  0  0  0  0  0  0  0  0  0  0
  -32.1264  -12.2103   21.7665 O   0  0  0  0  0  0  0  0  0  0  0  0
  -21.8009   -6.9422   21.5104 O   0  0  0  0  0  0  0  0  0  0  0  0
  -25.1239  -20.9713   19.6526 O   0  0  0  0  0  0  0  0  0  1  0  0
  -27.5236  -12.2576   16.4148 O   0  0  0  0  0  0  0  0  0  0  0  0
  -18.9671   -5.0804   17.1622 F   0  0  0  0  0  0  0  0  0  0  0  0
  -22.3771   -4.4814   20.3901 F   0  0  0  0  0  0  0  0  0  0  0  0
  -29.4806  -10.6130   17.9431 Cl  0  0  0  0  0  0  0  0  0  0  0  0
  1  2  1  0  0  0  0
  1  5  2  0  0  0  0
  2  6  2  0  0  0  0
  3  8  2  0  0  0  0
  3 17  1  0  0  0  0
  4  9  1  0  0  0  0
  4 17  2  0  0  0  0
  5 20  1  0  0  0  0
  6 22  1  0  0  0  0
  7 10  2  0  0  0  0
  7 21  1  0  0  0  0
  8 25  1  0  0  0  0
  9 25  2  0  0  0  0
 10 26  1  0  0  0  0
 11 12  2  0  0  0  0
 11 27  1  0  0  0  0
 12 29  1  0  0  0  0
 13 18  1  0  0  0  0
 13 24  2  0  0  0  0
 14 18  2  0  0  0  0
 14 28  1  0  0  0  0
 15 23  1  0  0  0  0
 15 26  2  0  0  0  0
 16 29  2  0  0  0  0
 16 30  1  0  0  0  0
 17 32  1  0  0  0  0
 18 34  1  0  0  0  0
 19 32  1  0  0  0  0
 19 33  2  0  0  0  0
 19 36  1  0  0  0  0
 20 22  2  0  0  0  0
 20 41  1  0  0  0  0
 21 23  2  0  0  0  0
 21 42  1  0  0  0  0
 22 50  1  0  0  0  0
 23 43  1  0  0  0  0
 24 31  1  0  0  0  0
 24 75  1  0  0  0  0
 25 82  1  0  0  0  0
 26 83  1  0  0  0  0
 27 30  2  0  0  0  0
 27 82  1  0  0  0  0
 28 31  2  0  0  0  0
 28 84  1  0  0  0  0
 29 85  1  0  0  0  0
 30 86  1  0  0  0  0
 31 87  1  0  0  0  0
 32 67  2  0  0  0  0
 33 68  1  0  0  0  0
 33 71  1  0  0  0  0
 34 35  2  0  0  0  0
 35 60  1  0  0  0  0
 36 72  1  0  0  0  0
 36 77  2  0  0  0  0
 37 51  1  0  0  0  0
 37 73  1  0  0  0  0
 37 78  2  0  0  0  0
 38 64  1  0  0  0  0
 38 69  1  0  0  0  0
 38 79  2  0  0  0  0
 39 65  1  0  0  0  0
 39 74  1  0  0  0  0
 39 80  2  0  0  0  0
 40 70  1  0  0  0  0
 40 75  1  0  0  0  0
 40 81  2  0  0  0  0
 41 44  1  0  0  0  0
 42 51  1  0  0  0  0
 43 69  1  0  0  0  0
 44 46  1  0  0  0  0
 45 47  1  0  0  0  0
 45 48  1  0  0  0  0
 46 50  1  0  0  0  0
 47 52  1  0  0  0  0
 48 70  1  0  0  0  0
 49 52  1  0  0  0  0
 49 70  1  0  0  0  0
 50 73  1  0  0  0  0
 51 69  1  0  0  0  0
 52 68  1  0  0  0  0
 53 62  1  0  0  0  0
 54 65  1  0  0  0  0
 55 66  1  0  0  0  0
 56 66  1  0  0  0  0
 57 66  1  0  0  0  0
 58 75  1  0  0  0  0
 59 76  1  0  0  0  0
 60 61  1  0  0  0  0
 61 63  1  0  0  0  0
 62 84  1  0  0  0  0
 63 83  1  0  0  0  0
 64 66  1  0  0  0  0
 64 74  1  0  0  0  0
 65 76  1  0  0  0  0
 67 68  1  0  0  0  0
M  CHG  1  76   1
M  ISO  4  40 100  63 101  75 100  83 101
M  END
> <Batch ID>
0007

> <Smiles>
CCOc1cc(C=CCC[101CH2:1][101O:1]c2ccc3c(c2)CN(C(=O)C(NC(=O)C(C)NC)C(C)(C)C)C(C(=O)NC2CCCc4ccccc42)C3)cc([100N:0](C)[100C:0](=O)N2CCCC(n3nc(-c4ccc(Oc5ccc(F)cc5F)cc4)c(C(N)=O)c3N)C2)c1Cl

> <Shape>
0.255

> <Color>
0.148

> <Negative vol penalty>
0.000

$$$$

  -OEChem-04052315333D

 82 90  0     1  0  0  0  0  0999 V2000
  -32.3647  -14.6853   20.6314 C   0  0  0  0  0  0  0  0  0  0  0  0
  -31.4985  -15.6914   21.0473 C   0  0  0  0  0  0  0  0  0  0  0  0
  -28.7236  -24.3626   21.8931 C   0  0  0  0  0  0  0  0  0  0  0  0
  -28.3911  -24.3961   19.5003 C   0  0  0  0  0  0  0  0  0  0  0  0
  -31.8735  -13.5983   19.9097 C   0  0  0  0  0  0  0  0  0  0  0  0
  -30.1406  -15.6115   20.7406 C   0  0  0  0  0  0  0  0  0  0  0  0
  -25.4658  -17.5302   24.2006 C   0  0  0  0  0  0  0  0  0  0  0  0
  -22.3985  -28.0385   23.7305 C   0  0  0  0  0  0  0  0  0  0  0  0
  -24.1190  -27.3104   25.2624 C   0  0  0  0  0  0  0  0  0  0  0  0
  -28.8235  -22.9718   21.8598 C   0  0  0  0  0  0  0  0  0  0  0  0
  -28.4910  -23.0052   19.4669 C   0  0  0  0  0  0  0  0  0  0  0  0
  -24.6972  -18.6931   24.1774 C   0  0  0  0  0  0  0  0  0  0  0  0
  -21.8566  -26.7532   23.7283 C   0  0  0  0  0  0  0  0  0  0  0  0
  -23.5771  -26.0251   25.2602 C   0  0  0  0  0  0  0  0  0  0  0  0
  -26.5167  -20.3484   20.1556 C   0  0  0  0  0  0  0  0  0  0  0  0
  -25.5791  -19.6493   19.3955 C   0  0  0  0  0  0  0  0  0  0  0  0
  -23.0226  -17.5530   22.8678 C   0  0  0  0  0  0  0  0  0  0  0  0
  -27.3586  -18.7369   18.0397 C   0  0  0  0  0  0  0  0  0  0  0  0
  -28.5073  -25.0748   20.7133 C   0  0  0  0  0  0  0  0  0  0  0  0
  -29.4506  -27.4429   20.6145 C   0  0  0  0  0  0  0  0  0  0  0  0
  -30.5073  -13.5002   19.6023 C   0  0  0  0  0  0  0  0  0  0  0  0
  -25.0230  -16.3711   23.5472 C   0  0  0  0  0  0  0  0  0  0  0  0
  -29.6308  -14.5228   20.0129 C   0  0  0  0  0  0  0  0  0  0  0  0
  -23.7863  -16.3759   22.8863 C   0  0  0  0  0  0  0  0  0  0  0  0
  -23.5298  -28.3171   24.4976 C   0  0  0  0  0  0  0  0  0  0  0  0
  -28.7072  -22.2930   20.6467 C   0  0  0  0  0  0  0  0  0  0  0  0
  -22.4458  -25.7465   24.4931 C   0  0  0  0  0  0  0  0  0  0  0  0
  -23.4767  -18.7055   23.5085 C   0  0  0  0  0  0  0  0  0  0  0  0
  -27.8753  -20.2418   19.8577 C   0  0  0  0  0  0  0  0  0  0  0  0
  -26.0000  -18.8435   18.3376 C   0  0  0  0  0  0  0  0  0  0  0  0
  -28.2962  -19.4360   18.7998 C   0  0  0  0  0  0  0  0  0  0  0  0
  -28.4034  -26.5115   20.7471 C   0  0  0  0  0  0  0  0  0  0  0  0
  -28.8363  -28.6671   20.7161 C   0  0  0  0  0  0  0  0  0  0  0  0
  -30.8533  -27.2213   20.4169 C   0  0  0  0  0  0  0  0  0  0  0  0
  -26.1168  -14.5888   21.1533 C   0  0  0  0  0  0  0  0  0  0  0  0
  -23.6326  -12.6671   21.9645 C   0  0  0  0  0  0  0  0  0  0  0  0
  -20.5643  -12.3603   23.4268 C   0  0  0  0  0  0  0  0  0  0  0  0
  -23.9839  -30.4891   23.3718 C   0  0  0  0  0  0  0  0  0  0  0  0
  -30.0306  -12.3299   18.7791 C   0  0  0  0  0  0  0  0  0  0  0  0
  -25.8514  -15.1170   23.6042 C   0  0  0  0  0  0  0  0  0  0  0  0
  -23.2565  -15.1520   22.1865 C   0  0  0  0  0  0  0  0  0  0  0  0
  -28.5173  -12.1335   18.8186 C   0  0  0  0  0  0  0  0  0  0  0  0
  -24.6677  -30.8527   19.9014 C   0  0  0  0  0  0  0  0  0  0  0  0
  -27.8007  -13.4635   18.6077 C   0  0  0  0  0  0  0  0  0  0  0  0
  -25.8084  -29.8537   19.7106 C   0  0  0  0  0  0  0  0  0  0  0  0
  -23.5991  -30.3253   20.8595 C   0  0  0  0  0  0  0  0  0  0  0  0
  -25.2722  -28.8863   21.9795 C   0  0  0  0  0  0  0  0  0  0  0  0
  -28.1472  -14.4595   19.7210 C   0  0  1  0  0  0  0  0  0  0  0  0
  -25.5431  -14.1452   22.4693 C   0  0  1  0  0  0  0  0  0  0  0  0
  -26.3896  -29.4137   21.0658 C   0  0  1  0  0  0  0  0  0  0  0  0
  -18.7685  -10.6732   23.9021 C   0  0  0  0  0  0  0  0  0  0  0  0
  -22.7447  -12.7942   19.0481 C   0  0  0  0  0  0  0  0  0  0  0  0
  -20.5089  -11.9240   19.7635 C   0  0  0  0  0  0  0  0  0  0  0  0
  -22.5523  -10.5333   20.0996 C   0  0  0  0  0  0  0  0  0  0  0  0
  -24.5618  -30.2062   25.7720 C   0  0  0  0  0  0  0  0  0  0  0  0
  -20.8301  -12.7293   26.3513 C   0  0  0  0  0  0  0  0  0  0  0  0
  -22.3037  -22.1602   23.9922 C   0  0  0  0  0  0  0  0  0  0  0  0
  -22.8174  -23.4063   24.6961 C   0  0  0  0  0  0  0  0  0  0  0  0
  -23.2470  -20.9800   24.1641 C   0  0  0  0  0  0  0  0  0  1  0  0
  -22.1824  -12.5654   21.5576 C   0  0  1  0  0  0  0  0  0  0  0  0
  -20.0214  -11.3564   24.4278 C   0  0  2  0  0  0  0  0  0  0  0  0
  -22.0077  -11.9780   20.1286 C   0  0  0  0  0  0  0  0  0  0  0  0
  -27.2140  -27.0941   20.9201 N   0  0  0  0  0  0  0  0  0  0  0  0
  -27.5101  -28.4048   20.8968 N   0  0  0  0  0  0  0  0  0  0  0  0
  -24.1060  -13.9521   22.2652 N   0  0  0  0  0  0  0  0  0  0  0  0
  -24.2053  -29.8800   22.1221 N   0  0  0  0  0  0  0  0  0  0  0  0
  -29.3065  -29.9316   20.6677 N   0  0  0  0  0  0  0  0  0  0  0  0
  -31.3161  -25.9009   20.3349 N   0  0  0  0  0  0  0  0  0  0  0  0
  -27.4068  -14.1492   20.9252 N   0  0  0  0  0  0  0  0  0  0  0  0
  -21.5175  -11.7974   22.6047 N   0  0  0  0  0  0  0  0  0  0  0  0
  -24.0910  -29.6476   24.5000 N   0  0  0  0  0  0  0  0  0  0  0  0
  -19.6835  -12.0351   25.7108 N   0  3  0  0  0  0  0  0  0  0  0  0
  -31.6743  -28.1659   20.3325 O   0  0  0  0  0  0  0  0  0  0  0  0
  -25.4388  -15.2776   20.4001 O   0  0  0  0  0  0  0  0  0  0  0  0
  -24.3182  -11.6431   22.0207 O   0  0  0  0  0  0  0  0  0  0  0  0
  -20.1786  -13.5262   23.3767 O   0  0  0  0  0  0  0  0  0  0  0  0
  -23.7358  -31.6965   23.4739 O   0  0  0  0  0  0  0  0  0  0  0  0
  -28.8050  -20.9359   20.6138 O   0  0  0  0  0  0  0  0  0  0  0  0
  -21.9134  -24.4836   24.4909 O   0  0  0  0  0  0  0  0  0  0  0  0
  -22.7248  -19.8394   23.4838 O   0  0  0  0  0  0  0  0  0  1  0  0
  -25.0997  -18.1710   17.6087 F   0  0  0  0  0  0  0  0  0  0  0  0
  -29.6001  -19.3287   18.5096 F   0  0  0  0  0  0  0  0  0  0  0  0
  1  2  1  0  0  0  0
  1  5  2  0  0  0  0
  2  6  2  0  0  0  0
  3 10  2  0  0  0  0
  3 19  1  0  0  0  0
  4 11  1  0  0  0  0
  4 19  2  0  0  0  0
  5 21  1  0  0  0  0
  6 23  1  0  0  0  0
  7 12  2  0  0  0  0
  7 22  1  0  0  0  0
  8 13  2  0  0  0  0
  8 25  1  0  0  0  0
  9 14  1  0  0  0  0
  9 25  2  0  0  0  0
 10 26  1  0  0  0  0
 11 26  2  0  0  0  0
 12 28  1  0  0  0  0
 13 27  1  0  0  0  0
 14 27  2  0  0  0  0
 15 16  2  0  0  0  0
 15 29  1  0  0  0  0
 16 30  1  0  0  0  0
 17 24  1  0  0  0  0
 17 28  2  0  0  0  0
 18 30  2  0  0  0  0
 18 31  1  0  0  0  0
 19 32  1  0  0  0  0
 20 32  1  0  0  0  0
 20 33  2  0  0  0  0
 20 34  1  0  0  0  0
 21 23  2  0  0  0  0
 21 39  1  0  0  0  0
 22 24  2  0  0  0  0
 22 40  1  0  0  0  0
 23 48  1  0  0  0  0
 24 41  1  0  0  0  0
 25 71  1  0  0  0  0
 26 78  1  0  0  0  0
 27 79  1  0  0  0  0
 28 80  1  0  0  0  0
 29 31  2  0  0  0  0
 29 78  1  0  0  0  0
 30 81  1  0  0  0  0
 31 82  1  0  0  0  0
 32 63  2  0  0  0  0
 33 64  1  0  0  0  0
 33 67  1  0  0  0  0
 34 68  1  0  0  0  0
 34 73  2  0  0  0  0
 35 49  1  0  0  0  0
 35 69  1  0  0  0  0
 35 74  2  0  0  0  0
 36 60  1  0  0  0  0
 36 65  1  0  0  0  0
 36 75  2  0  0  0  0
 37 61  1  0  0  0  0
 37 70  1  0  0  0  0
 37 76  2  0  0  0  0
 38 66  1  0  0  0  0
 38 71  1  0  0  0  0
 38 77  2  0  0  0  0
 39 42  1  0  0  0  0
 40 49  1  0  0  0  0
 41 65  1  0  0  0  0
 42 44  1  0  0  0  0
 43 45  1  0  0  0  0
 43 46  1  0  0  0  0
 44 48  1  0  0  0  0
 45 50  1  0  0  0  0
 46 66  1  0  0  0  0
 47 50  1  0  0  0  0
 47 66  1  0  0  0  0
 48 69  1  0  0  0  0
 49 65  1  0  0  0  0
 50 64  1  0  0  0  0
 51 61  1  0  0  0  0
 52 62  1  0  0  0  0
 53 62  1  0  0  0  0
 54 62  1  0  0  0  0
 55 71  1  0  0  0  0
 56 72  1  0  0  0  0
 57 58  1  0  0  0  0
 57 59  1  0  0  0  0
 58 79  1  0  0  0  0
 59 80  1  0  0  0  0
 60 62  1  0  0  0  0
 60 70  1  0  0  0  0
 61 72  1  0  0  0  0
 63 64  1  0  0  0  0
M  CHG  1  72   1
M  ISO  4  38 100  59 101  71 100  80 101
M  END
> <Batch ID>
0007

> <Smiles>
CNC(C)C(=O)NC(C(=O)N1Cc2cc([101O:1][101CH2:1]CCOc3ccc([100N:0](C)[100C:0](=O)N4CCCC(n5nc(-c6ccc(Oc7ccc(F)cc7F)cc6)c(C(N)=O)c5N)C4)cc3)ccc2CC1C(=O)NC1CCCc2ccccc21)C(C)(C)C

> <Shape>
0.249

> <Color>
0.077

> <Negative vol penalty>
0.000

$$$$

  -OEChem-04052315333D

 85 93  0     1  0  0  0  0  0999 V2000
  -19.9937  -27.5276   26.6211 C   0  0  0  0  0  0  0  0  0  0  0  0
  -21.1357  -27.1357   25.9299 C   0  0  0  0  0  0  0  0  0  0  0  0
  -24.3864   -8.3447   20.4848 C   0  0  0  0  0  0  0  0  0  0  0  0
  -23.1168  -10.3269   21.0287 C   0  0  0  0  0  0  0  0  0  0  0  0
  -18.9747  -28.2058   25.9536 C   0  0  0  0  0  0  0  0  0  0  0  0
  -21.2588  -27.4208   24.5705 C   0  0  0  0  0  0  0  0  0  0  0  0
  -25.8383  -29.2179   23.3693 C   0  0  0  0  0  0  0  0  0  0  0  0
  -30.0927  -18.3426   20.9403 C   0  0  0  0  0  0  0  0  0  0  0  0
  -23.3312   -7.5472   20.9278 C   0  0  0  0  0  0  0  0  0  0  0  0
  -22.0615   -9.5295   21.4716 C   0  0  0  0  0  0  0  0  0  0  0  0
  -26.8769  -28.2940   23.2622 C   0  0  0  0  0  0  0  0  0  0  0  0
  -30.1183  -19.7102   20.6675 C   0  0  0  0  0  0  0  0  0  0  0  0
  -22.0849   -6.4823   23.8836 C   0  0  0  0  0  0  0  0  0  0  0  0
  -22.3942   -5.3930   24.6981 C   0  0  0  0  0  0  0  0  0  0  0  0
  -26.6443  -28.3200   20.8612 C   0  0  0  0  0  0  0  0  0  0  0  0
  -28.8417  -19.3322   18.6515 C   0  0  0  0  0  0  0  0  0  0  0  0
  -21.4231   -3.8979   23.0675 C   0  0  0  0  0  0  0  0  0  0  0  0
  -24.2792   -9.7345   20.5353 C   0  0  0  0  0  0  0  0  0  0  0  0
  -25.5759  -11.0490   18.7751 C   0  0  0  0  0  0  0  0  0  0  0  0
  -19.0896  -28.5079   24.5875 C   0  0  0  0  0  0  0  0  0  0  0  0
  -25.1866  -29.6924   22.2219 C   0  0  0  0  0  0  0  0  0  0  0  0
  -20.2397  -28.1025   23.8838 C   0  0  0  0  0  0  0  0  0  0  0  0
  -25.5995  -29.2519   20.9563 C   0  0  0  0  0  0  0  0  0  0  0  0
  -29.4415  -17.4697   20.0686 C   0  0  0  0  0  0  0  0  0  0  0  0
  -28.8160  -17.9645   18.9242 C   0  0  0  0  0  0  0  0  0  0  0  0
  -22.1687   -8.1396   21.4212 C   0  0  0  0  0  0  0  0  0  0  0  0
  -27.2781  -27.8427   22.0082 C   0  0  0  0  0  0  0  0  0  0  0  0
  -29.4928  -20.2051   19.5232 C   0  0  0  0  0  0  0  0  0  0  0  0
  -21.4445   -6.2794   22.6611 C   0  0  0  0  0  0  0  0  0  0  0  0
  -22.0634   -4.1008   24.2900 C   0  0  0  0  0  0  0  0  0  0  0  0
  -21.1137   -4.9873   22.2530 C   0  0  0  0  0  0  0  0  0  0  0  0
  -25.3691  -10.5588   20.0785 C   0  0  0  0  0  0  0  0  0  0  0  0
  -26.7403  -11.7723   18.8610 C   0  0  0  0  0  0  0  0  0  0  0  0
  -24.7859  -10.8670   17.5925 C   0  0  0  0  0  0  0  0  0  0  0  0
  -22.2078  -29.5652   21.1198 C   0  0  0  0  0  0  0  0  0  0  0  0
  -23.3876  -31.5299   18.8241 C   0  0  0  0  0  0  0  0  0  0  0  0
  -26.1013  -32.6521   17.0853 C   0  0  0  0  0  0  0  0  0  0  0  0
  -30.0080  -15.4517   21.4662 C   0  0  0  0  0  0  0  0  0  0  0  0
  -17.9411  -29.2011   23.8983 C   0  0  0  0  0  0  0  0  0  0  0  0
  -24.0859  -30.7091   22.3528 C   0  0  0  0  0  0  0  0  0  0  0  0
  -24.9458  -29.7458   19.6925 C   0  0  0  0  0  0  0  0  0  0  0  0
  -18.3135  -29.7950   22.5422 C   0  0  0  0  0  0  0  0  0  0  0  0
  -30.1653  -12.0723   22.5760 C   0  0  0  0  0  0  0  0  0  0  0  0
  -19.1065  -28.7863   21.7173 C   0  0  0  0  0  0  0  0  0  0  0  0
  -28.9485  -11.4176   21.9179 C   0  0  0  0  0  0  0  0  0  0  0  0
  -29.8724  -13.5079   23.0083 C   0  0  0  0  0  0  0  0  0  0  0  0
  -28.1134  -13.7205   21.2966 C   0  0  0  0  0  0  0  0  0  0  0  0
  -20.4210  -28.4153   22.4143 C   0  0  1  0  0  0  0  0  0  0  0  0
  -23.1502  -30.7352   21.1482 C   0  0  1  0  0  0  0  0  0  0  0  0
  -28.3799  -12.2952   20.7857 C   0  0  2  0  0  0  0  0  0  0  0  0
  -26.7465  -34.2320   15.2455 C   0  0  0  0  0  0  0  0  0  0  0  0
  -22.2937  -29.5680   16.7590 C   0  0  0  0  0  0  0  0  0  0  0  0
  -23.7557  -30.6630   15.0468 C   0  0  0  0  0  0  0  0  0  0  0  0
  -21.9669  -31.9795   16.1825 C   0  0  0  0  0  0  0  0  0  0  0  0
  -28.8642  -16.5017   16.9197 C   0  0  0  0  0  0  0  0  0  0  0  0
  -26.7477  -16.7879   18.2186 C   0  0  0  0  0  0  0  0  0  0  0  0
  -27.8398  -34.2271   18.8898 C   0  0  0  0  0  0  0  0  0  0  0  0
  -28.8924  -24.7181   21.1727 C   0  0  0  0  0  0  0  0  0  0  0  0
  -28.8864  -23.7342   20.0079 C   0  0  0  0  0  0  0  0  0  0  0  0
  -28.2476  -26.0440   20.7914 C   0  0  0  0  0  0  0  0  0  1  0  0
  -29.5690  -22.4242   20.3749 C   0  0  0  0  0  0  0  0  0  0  0  0
  -24.0392  -31.3298   17.4771 C   0  0  1  0  0  0  0  0  0  0  0  0
  -26.5702  -34.0554   16.7456 C   0  0  2  0  0  0  0  0  0  0  0  0
  -23.0251  -30.8741   16.3901 C   0  0  0  0  0  0  0  0  0  0  0  0
  -26.3257  -10.9384   20.9299 N   0  0  0  0  0  0  0  0  0  0  0  0
  -27.1447  -11.6748   20.1599 N   0  0  0  0  0  0  0  0  0  0  0  0
  -23.8701  -30.7346   19.8731 N   0  0  0  0  0  0  0  0  0  0  0  0
  -29.3409  -14.2806   21.8834 N   0  0  0  0  0  0  0  0  0  0  0  0
  -27.4476  -12.4758   17.9514 N   0  0  0  0  0  0  0  0  0  0  0  0
  -23.6195  -10.0949   17.6805 N   0  0  0  0  0  0  0  0  0  0  0  0
  -29.4290  -16.0845   20.3667 N   0  0  0  0  0  0  0  0  0  0  0  0
  -21.4009  -29.4655   22.2371 N   0  0  0  0  0  0  0  0  0  0  0  0
  -24.7269  -32.5785   17.1667 N   0  0  0  0  0  0  0  0  0  0  0  0
  -28.1494  -17.0985   18.0286 N   0  0  0  0  0  0  0  0  0  0  0  0
  -27.8739  -34.3407   17.4089 N   0  3  0  0  0  0  0  0  0  0  0  0
  -25.1135  -11.3604   16.4868 O   0  0  0  0  0  0  0  0  0  0  0  0
  -22.2115  -28.8098   20.1549 O   0  0  0  0  0  0  0  0  0  0  0  0
  -22.4887  -32.3663   18.9428 O   0  0  0  0  0  0  0  0  0  0  0  0
  -26.8767  -31.7141   17.2573 O   0  0  0  0  0  0  0  0  0  0  0  0
  -31.0341  -15.8481   22.0248 O   0  0  0  0  0  0  0  0  0  0  0  0
  -21.1388   -7.3618   21.8533 O   0  0  0  0  0  0  0  0  0  0  0  0
  -28.2911  -26.9404   21.9008 O   0  0  0  0  0  0  0  0  0  1  0  0
  -29.5167  -21.5494   19.2564 O   0  0  0  0  0  0  0  0  0  0  0  0
  -22.3619   -3.0548   25.0715 F   0  0  0  0  0  0  0  0  0  0  0  0
  -20.4995   -4.7860   21.0791 F   0  0  0  0  0  0  0  0  0  0  0  0
  1  2  1  0  0  0  0
  1  5  2  0  0  0  0
  2  6  2  0  0  0  0
  3  9  2  0  0  0  0
  3 18  1  0  0  0  0
  4 10  1  0  0  0  0
  4 18  2  0  0  0  0
  5 20  1  0  0  0  0
  6 22  1  0  0  0  0
  7 11  2  0  0  0  0
  7 21  1  0  0  0  0
  8 12  2  0  0  0  0
  8 24  1  0  0  0  0
  9 26  1  0  0  0  0
 10 26  2  0  0  0  0
 11 27  1  0  0  0  0
 12 28  1  0  0  0  0
 13 14  2  0  0  0  0
 13 29  1  0  0  0  0
 14 30  1  0  0  0  0
 15 23  1  0  0  0  0
 15 27  2  0  0  0  0
 16 25  1  0  0  0  0
 16 28  2  0  0  0  0
 17 30  2  0  0  0  0
 17 31  1  0  0  0  0
 18 32  1  0  0  0  0
 19 32  1  0  0  0  0
 19 33  2  0  0  0  0
 19 34  1  0  0  0  0
 20 22  2  0  0  0  0
 20 39  1  0  0  0  0
 21 23  2  0  0  0  0
 21 40  1  0  0  0  0
 22 48  1  0  0  0  0
 23 41  1  0  0  0  0
 24 25  2  0  0  0  0
 24 71  1  0  0  0  0
 25 74  1  0  0  0  0
 26 81  1  0  0  0  0
 27 82  1  0  0  0  0
 28 83  1  0  0  0  0
 29 31  2  0  0  0  0
 29 81  1  0  0  0  0
 30 84  1  0  0  0  0
 31 85  1  0  0  0  0
 32 65  2  0  0  0  0
 33 66  1  0  0  0  0
 33 69  1  0  0  0  0
 34 70  1  0  0  0  0
 34 76  2  0  0  0  0
 35 49  1  0  0  0  0
 35 72  1  0  0  0  0
 35 77  2  0  0  0  0
 36 62  1  0  0  0  0
 36 67  1  0  0  0  0
 36 78  2  0  0  0  0
 37 63  1  0  0  0  0
 37 73  1  0  0  0  0
 37 79  2  0  0  0  0
 38 68  1  0  0  0  0
 38 71  1  0  0  0  0
 38 80  2  0  0  0  0
 39 42  1  0  0  0  0
 40 49  1  0  0  0  0
 41 67  1  0  0  0  0
 42 44  1  0  0  0  0
 43 45  1  0  0  0  0
 43 46  1  0  0  0  0
 44 48  1  0  0  0  0
 45 50  1  0  0  0  0
 46 68  1  0  0  0  0
 47 50  1  0  0  0  0
 47 68  1  0  0  0  0
 48 72  1  0  0  0  0
 49 67  1  0  0  0  0
 50 66  1  0  0  0  0
 51 63  1  0  0  0  0
 52 64  1  0  0  0  0
 53 64  1  0  0  0  0
 54 64  1  0  0  0  0
 55 74  1  0  0  0  0
 56 74  1  0  0  0  0
 57 75  1  0  0  0  0
 58 59  1  0  0  0  0
 58 60  1  0  0  0  0
 59 61  1  0  0  0  0
 60 82  1  0  0  0  0
 61 83  1  0  0  0  0
 62 64  1  0  0  0  0
 62 73  1  0  0  0  0
 63 75  1  0  0  0  0
 65 66  1  0  0  0  0
M  CHG  1  75   1
M  ISO  4  38 100  60 101  71 100  82 101
M  END
> <Batch ID>
0007

> <Smiles>
CNC(C)C(=O)NC(C(=O)N1Cc2cc([101O:1][101CH2:1]CCCOc3ccc([100NH:0][100C:0](=O)N4CCCC(n5nc(-c6ccc(Oc7ccc(F)cc7F)cc6)c(C(N)=O)c5N)C4)c(N(C)C)c3)ccc2CC1C(=O)NC1CCCc2ccccc21)C(C)(C)C

> <Shape>
0.287

> <Color>
0.107

> <Negative vol penalty>
0.000

$$$$

  -OEChem-04052315333D

 80 87  0     1  0  0  0  0  0999 V2000
  -29.2468  -17.7520   11.8405 C   0  0  0  0  0  0  0  0  0  0  0  0
  -29.8195  -17.0283   12.8816 C   0  0  0  0  0  0  0  0  0  0  0  0
  -26.8327  -28.6129   19.2554 C   0  0  0  0  0  0  0  0  0  0  0  0
  -26.3470  -27.2698   21.2040 C   0  0  0  0  0  0  0  0  0  0  0  0
  -28.1958  -18.6307   12.0995 C   0  0  0  0  0  0  0  0  0  0  0  0
  -29.3420  -17.1837   14.1825 C   0  0  0  0  0  0  0  0  0  0  0  0
  -28.9733  -12.8652   18.5092 C   0  0  0  0  0  0  0  0  0  0  0  0
  -25.5707  -29.2002   19.3455 C   0  0  0  0  0  0  0  0  0  0  0  0
  -25.0850  -27.8571   21.2942 C   0  0  0  0  0  0  0  0  0  0  0  0
  -29.7979  -12.5441   19.5866 C   0  0  0  0  0  0  0  0  0  0  0  0
  -23.7643  -30.7596   22.4131 C   0  0  0  0  0  0  0  0  0  0  0  0
  -23.3322  -31.1731   23.6731 C   0  0  0  0  0  0  0  0  0  0  0  0
  -28.4000  -13.8652   21.0425 C   0  0  0  0  0  0  0  0  0  0  0  0
  -21.4409  -29.6782   23.5152 C   0  0  0  0  0  0  0  0  0  0  0  0
  -27.2208  -27.6477   20.1846 C   0  0  0  0  0  0  0  0  0  0  0  0
  -29.7148  -27.4862   20.6959 C   0  0  0  0  0  0  0  0  0  0  0  0
  -27.6988  -18.7898   13.4027 C   0  0  0  0  0  0  0  0  0  0  0  0
  -27.8602  -13.6991   18.6886 C   0  0  0  0  0  0  0  0  0  0  0  0
  -28.2842  -18.0664   14.4593 C   0  0  0  0  0  0  0  0  0  0  0  0
  -27.5614  -14.1934   19.9663 C   0  0  0  0  0  0  0  0  0  0  0  0
  -24.6968  -28.8223   20.3649 C   0  0  0  0  0  0  0  0  0  0  0  0
  -29.5129  -13.0464   20.8529 C   0  0  0  0  0  0  0  0  0  0  0  0
  -23.0347  -29.8054   21.7040 C   0  0  0  0  0  0  0  0  0  0  0  0
  -22.1705  -30.6324   24.2242 C   0  0  0  0  0  0  0  0  0  0  0  0
  -21.8730  -29.2646   22.2550 C   0  0  0  0  0  0  0  0  0  0  0  0
  -28.5241  -27.0403   20.0916 C   0  0  0  0  0  0  0  0  0  0  0  0
  -30.6622  -26.5725   20.3033 C   0  0  0  0  0  0  0  0  0  0  0  0
  -29.9440  -28.6244   21.5371 C   0  0  0  0  0  0  0  0  0  0  0  0
  -26.9766  -16.5352   17.5575 C   0  0  0  0  0  0  0  0  0  0  0  0
  -24.2264  -15.8770   19.1467 C   0  0  0  0  0  0  0  0  0  0  0  0
  -22.6684  -14.1675   21.6561 C   0  0  0  0  0  0  0  0  0  0  0  0
  -30.2352  -20.9073   18.6972 C   0  0  0  0  0  0  0  0  0  0  0  0
  -26.5925  -19.7867   13.6411 C   0  0  0  0  0  0  0  0  0  0  0  0
  -26.9654  -14.0143   17.5214 C   0  0  0  0  0  0  0  0  0  0  0  0
  -26.3669  -15.0761   20.2157 C   0  0  0  0  0  0  0  0  0  0  0  0
  -25.8969  -19.6139   14.9889 C   0  0  0  0  0  0  0  0  0  0  0  0
  -31.7094  -23.5641   16.7311 C   0  0  0  0  0  0  0  0  0  0  0  0
  -26.9253  -19.4443   16.1026 C   0  0  0  0  0  0  0  0  0  0  0  0
  -31.1640  -24.8054   17.4396 C   0  0  0  0  0  0  0  0  0  0  0  0
  -30.6688  -22.4489   16.6902 C   0  0  0  0  0  0  0  0  0  0  0  0
  -29.5846  -23.2985   18.7338 C   0  0  0  0  0  0  0  0  0  0  0  0
  -27.7776  -18.1891   15.8800 C   0  0  1  0  0  0  0  0  0  0  0  0
  -26.1520  -15.2896   17.7195 C   0  0  1  0  0  0  0  0  0  0  0  0
  -30.5971  -24.4544   18.8280 C   0  0  2  0  0  0  0  0  0  0  0  0
  -20.4228  -13.8643   22.7343 C   0  0  0  0  0  0  0  0  0  0  0  0
  -24.5370  -18.5709   20.5454 C   0  0  0  0  0  0  0  0  0  0  0  0
  -22.8610  -17.8055   22.2405 C   0  0  0  0  0  0  0  0  0  0  0  0
  -22.1997  -18.0225   19.8450 C   0  0  0  0  0  0  0  0  0  0  0  0
  -22.6080  -11.2848   20.9887 C   0  0  0  0  0  0  0  0  0  0  0  0
  -32.4100  -16.9125   19.8080 C   0  0  0  0  0  0  0  0  0  0  0  0
  -32.2569  -18.3336   19.2576 C   0  0  0  0  0  0  0  0  0  0  0  0
  -33.7310  -16.7481   20.5572 C   0  0  0  0  0  0  0  0  0  0  0  0
  -31.7812  -13.5892   23.6227 C   0  0  0  0  0  0  0  0  0  0  0  0
  -30.9408  -18.5355   18.5140 C   0  0  0  0  0  0  0  0  0  0  0  0
  -33.8736  -15.3498   21.1438 C   0  0  0  0  0  0  0  0  0  0  0  0
  -30.4218  -13.7015   22.9507 C   0  0  0  0  0  0  0  0  0  1  0  0
  -32.9212  -13.8084   22.6404 C   0  0  0  0  0  0  0  0  0  0  0  0
  -23.7147  -16.1235   20.5454 C   0  0  1  0  0  0  0  0  0  0  0  0
  -21.3876  -13.3529   21.6758 C   0  0  2  0  0  0  0  0  0  0  0  0
  -23.3518  -17.6155   20.7893 C   0  0  0  0  0  0  0  0  0  0  0  0
  -28.6966  -25.9298   19.3698 N   0  0  0  0  0  0  0  0  0  0  0  0
  -30.0069  -25.6702   19.5180 N   0  0  0  0  0  0  0  0  0  0  0  0
  -25.5259  -15.3610   19.0413 N   0  0  0  0  0  0  0  0  0  0  0  0
  -30.1836  -22.1505   18.0450 N   0  0  0  0  0  0  0  0  0  0  0  0
  -31.9834  -26.4608   20.5566 N   0  0  0  0  0  0  0  0  0  0  0  0
  -28.8602  -29.4593   21.8415 N   0  0  0  0  0  0  0  0  0  0  0  0
  -27.0395  -17.0033   16.2589 N   0  0  0  0  0  0  0  0  0  0  0  0
  -22.6040  -15.1984   20.7427 N   0  0  0  0  0  0  0  0  0  0  0  0
  -30.8114  -19.8705   17.9736 N   0  0  0  0  0  0  0  0  0  0  0  0
  -21.6879  -11.9222   21.9655 N   0  3  0  0  0  0  0  0  0  0  0  0
  -31.0797  -28.9024   21.9915 O   0  0  0  0  0  0  0  0  0  0  0  0
  -27.5147  -17.0354   18.5383 O   0  0  0  0  0  0  0  0  0  0  0  0
  -23.4974  -16.1261   18.1834 O   0  0  0  0  0  0  0  0  0  0  0  0
  -23.6285  -13.9167   22.3812 O   0  0  0  0  0  0  0  0  0  0  0  0
  -29.8042  -20.7351   19.8425 O   0  0  0  0  0  0  0  0  0  0  0  0
  -23.4654  -29.3952   20.4534 O   0  0  0  0  0  0  0  0  0  0  0  0
  -30.3165  -12.7350   21.9061 O   0  0  0  0  0  0  0  0  0  1  0  0
  -32.8232  -15.1063   22.0696 O   0  0  0  0  0  0  0  0  0  0  0  0
  -21.7565  -31.0285   25.4350 F   0  0  0  0  0  0  0  0  0  0  0  0
  -21.1684  -28.3467   21.5791 F   0  0  0  0  0  0  0  0  0  0  0  0
  1  2  1  0  0  0  0
  1  5  2  0  0  0  0
  2  6  2  0  0  0  0
  3  8  2  0  0  0  0
  3 15  1  0  0  0  0
  4  9  1  0  0  0  0
  4 15  2  0  0  0  0
  5 17  1  0  0  0  0
  6 19  1  0  0  0  0
  7 10  2  0  0  0  0
  7 18  1  0  0  0  0
  8 21  1  0  0  0  0
  9 21  2  0  0  0  0
 10 22  1  0  0  0  0
 11 12  2  0  0  0  0
 11 23  1  0  0  0  0
 12 24  1  0  0  0  0
 13 20  1  0  0  0  0
 13 22  2  0  0  0  0
 14 24  2  0  0  0  0
 14 25  1  0  0  0  0
 15 26  1  0  0  0  0
 16 26  1  0  0  0  0
 16 27  2  0  0  0  0
 16 28  1  0  0  0  0
 17 19  2  0  0  0  0
 17 33  1  0  0  0  0
 18 20  2  0  0  0  0
 18 34  1  0  0  0  0
 19 42  1  0  0  0  0
 20 35  1  0  0  0  0
 21 76  1  0  0  0  0
 22 77  1  0  0  0  0
 23 25  2  0  0  0  0
 23 76  1  0  0  0  0
 24 79  1  0  0  0  0
 25 80  1  0  0  0  0
 26 61  2  0  0  0  0
 27 62  1  0  0  0  0
 27 65  1  0  0  0  0
 28 66  1  0  0  0  0
 28 71  2  0  0  0  0
 29 43  1  0  0  0  0
 29 67  1  0  0  0  0
 29 72  2  0  0  0  0
 30 58  1  0  0  0  0
 30 63  1  0  0  0  0
 30 73  2  0  0  0  0
 31 59  1  0  0  0  0
 31 68  1  0  0  0  0
 31 74  2  0  0  0  0
 32 64  1  0  0  0  0
 32 69  1  0  0  0  0
 32 75  2  0  0  0  0
 33 36  1  0  0  0  0
 34 43  1  0  0  0  0
 35 63  1  0  0  0  0
 36 38  1  0  0  0  0
 37 39  1  0  0  0  0
 37 40  1  0  0  0  0
 38 42  1  0  0  0  0
 39 44  1  0  0  0  0
 40 64  1  0  0  0  0
 41 44  1  0  0  0  0
 41 64  1  0  0  0  0
 42 67  1  0  0  0  0
 43 63  1  0  0  0  0
 44 62  1  0  0  0  0
 45 59  1  0  0  0  0
 46 60  1  0  0  0  0
 47 60  1  0  0  0  0
 48 60  1  0  0  0  0
 49 70  1  0  0  0  0
 50 51  1  0  0  0  0
 50 52  1  0  0  0  0
 51 54  1  0  0  0  0
 52 55  1  0  0  0  0
 53 56  1  0  0  0  0
 53 57  1  0  0  0  0
 54 69  1  0  0  0  0
 55 78  1  0  0  0  0
 56 77  1  0  0  0  0
 57 78  1  0  0  0  0
 58 60  1  0  0  0  0
 58 68  1  0  0  0  0
 59 70  1  0  0  0  0
 61 62  1  0  0  0  0
M  CHG  1  70   1
M  ISO  4  32 100  56 101  69 100  77 101
M  END
> <Batch ID>
0007

> <Smiles>
CNC(C)C(=O)NC(C(=O)N1Cc2cc([101O:1][101CH2:1]CCOCCCCC[100NH:0][100C:0](=O)N3CCCC(n4nc(-c5ccc(Oc6ccc(F)cc6F)cc5)c(C(N)=O)c4N)C3)ccc2CC1C(=O)NC1CCCc2ccccc21)C(C)(C)C

> <Shape>
0.228

> <Color>
0.060

> <Negative vol penalty>
0.000

$$$$

  -OEChem-04052315333D

 84 92  0     1  0  0  0  0  0999 V2000
  -28.7373  -34.0170   15.5347 C   0  0  0  0  0  0  0  0  0  0  0  0
  -28.9049  -32.8503   16.2737 C   0  0  0  0  0  0  0  0  0  0  0  0
  -23.2079  -10.3956   21.4069 C   0  0  0  0  0  0  0  0  0  0  0  0
  -24.7732   -8.6702   22.0470 C   0  0  0  0  0  0  0  0  0  0  0  0
  -28.1748  -35.1443   16.1319 C   0  0  0  0  0  0  0  0  0  0  0  0
  -28.5110  -32.8106   17.6108 C   0  0  0  0  0  0  0  0  0  0  0  0
  -25.9693  -28.5848   18.7628 C   0  0  0  0  0  0  0  0  0  0  0  0
  -27.8080  -20.2268   18.1747 C   0  0  0  0  0  0  0  0  0  0  0  0
  -28.2277  -20.5718   20.5288 C   0  0  0  0  0  0  0  0  0  0  0  0
  -27.9674  -18.8519   18.3477 C   0  0  0  0  0  0  0  0  0  0  0  0
  -28.3871  -19.1969   20.7018 C   0  0  0  0  0  0  0  0  0  0  0  0
  -22.2034   -9.4365   21.2781 C   0  0  0  0  0  0  0  0  0  0  0  0
  -23.7687   -7.7110   21.9182 C   0  0  0  0  0  0  0  0  0  0  0  0
  -26.7175  -27.4245   18.9563 C   0  0  0  0  0  0  0  0  0  0  0  0
  -21.1310   -6.6113   23.7220 C   0  0  0  0  0  0  0  0  0  0  0  0
  -21.0142   -5.6576   24.7331 C   0  0  0  0  0  0  0  0  0  0  0  0
  -26.5603  -27.7285   21.3442 C   0  0  0  0  0  0  0  0  0  0  0  0
  -21.4098   -3.9012   23.1221 C   0  0  0  0  0  0  0  0  0  0  0  0
  -24.4929  -10.0124   21.7913 C   0  0  0  0  0  0  0  0  0  0  0  0
  -25.8654  -11.7343   23.0794 C   0  0  0  0  0  0  0  0  0  0  0  0
  -27.7649  -35.1155   17.4742 C   0  0  0  0  0  0  0  0  0  0  0  0
  -25.5194  -29.3329   19.8602 C   0  0  0  0  0  0  0  0  0  0  0  0
  -27.9437  -33.9391   18.2269 C   0  0  0  0  0  0  0  0  0  0  0  0
  -25.8043  -28.8966   21.1619 C   0  0  0  0  0  0  0  0  0  0  0  0
  -27.9382  -21.0867   19.2652 C   0  0  0  0  0  0  0  0  0  0  0  0
  -28.2570  -18.3370   19.6113 C   0  0  0  0  0  0  0  0  0  0  0  0
  -22.4837   -8.0942   21.5337 C   0  0  0  0  0  0  0  0  0  0  0  0
  -27.0156  -26.9977   20.2470 C   0  0  0  0  0  0  0  0  0  0  0  0
  -21.3872   -6.2100   22.4109 C   0  0  0  0  0  0  0  0  0  0  0  0
  -21.1536   -4.3026   24.4332 C   0  0  0  0  0  0  0  0  0  0  0  0
  -21.5266   -4.8549   22.1110 C   0  0  0  0  0  0  0  0  0  0  0  0
  -25.5311  -11.0026   21.9241 C   0  0  0  0  0  0  0  0  0  0  0  0
  -26.9100  -12.5356   22.6880 C   0  0  0  0  0  0  0  0  0  0  0  0
  -25.2838  -11.6931   24.3892 C   0  0  0  0  0  0  0  0  0  0  0  0
  -26.0147  -32.2910   20.9130 C   0  0  0  0  0  0  0  0  0  0  0  0
  -23.7411  -31.4828   23.0810 C   0  0  0  0  0  0  0  0  0  0  0  0
  -27.8724  -23.4740   20.0594 C   0  0  0  0  0  0  0  0  0  0  0  0
  -22.1073  -29.0173   24.7835 C   0  0  0  0  0  0  0  0  0  0  0  0
  -28.9144  -16.0959   18.7508 C   0  0  0  0  0  0  0  0  0  0  0  0
  -27.2055  -36.3736   18.0896 C   0  0  0  0  0  0  0  0  0  0  0  0
  -24.6906  -30.5678   19.6351 C   0  0  0  0  0  0  0  0  0  0  0  0
  -25.3276  -29.6529   22.3740 C   0  0  0  0  0  0  0  0  0  0  0  0
  -26.4700  -36.1331   19.4055 C   0  0  0  0  0  0  0  0  0  0  0  0
  -29.7129  -12.5037   18.4884 C   0  0  0  0  0  0  0  0  0  0  0  0
  -27.2889  -35.2240   20.3163 C   0  0  0  0  0  0  0  0  0  0  0  0
  -28.6763  -11.8566   19.4054 C   0  0  0  0  0  0  0  0  0  0  0  0
  -29.1928  -13.7976   17.8692 C   0  0  0  0  0  0  0  0  0  0  0  0
  -27.6668  -14.1412   19.7885 C   0  0  0  0  0  0  0  0  0  0  0  0
  -27.5062  -33.8492   19.6727 C   0  0  1  0  0  0  0  0  0  0  0  0
  -24.7216  -31.5319   20.8170 C   0  0  1  0  0  0  0  0  0  0  0  0
  -28.1768  -12.8579   20.4613 C   0  0  1  0  0  0  0  0  0  0  0  0
  -20.3249  -28.6673   26.5149 C   0  0  0  0  0  0  0  0  0  0  0  0
  -25.6969  -32.3341   25.2628 C   0  0  0  0  0  0  0  0  0  0  0  0
  -24.2792  -31.1011   26.9176 C   0  0  0  0  0  0  0  0  0  0  0  0
  -23.3274  -33.0311   25.6559 C   0  0  0  0  0  0  0  0  0  0  0  0
  -20.4186  -27.4791   22.9017 C   0  0  0  0  0  0  0  0  0  0  0  0
  -27.6302  -24.8427   19.4508 C   0  0  0  0  0  0  0  0  0  1  0  0
  -28.3037  -16.3607   21.1439 C   0  0  0  0  0  0  0  0  0  0  0  0
  -26.8731  -16.4012   21.6371 C   0  0  0  0  0  0  0  0  0  0  0  0
  -23.7475  -30.8486   24.4509 C   0  0  1  0  0  0  0  0  0  0  0  0
  -20.6295  -28.7716   25.0286 C   0  0  2  0  0  0  0  0  0  0  0  0
  -24.2735  -31.8153   25.5491 C   0  0  0  0  0  0  0  0  0  0  0  0
  -26.3008  -11.3119   20.8772 N   0  0  0  0  0  0  0  0  0  0  0  0
  -27.1291  -12.2468   21.3732 N   0  0  0  0  0  0  0  0  0  0  0  0
  -24.5259  -30.8574   22.1019 N   0  0  0  0  0  0  0  0  0  0  0  0
  -28.6822  -14.7128   18.8906 N   0  0  0  0  0  0  0  0  0  0  0  0
  -27.6533  -13.4521   23.3438 N   0  0  0  0  0  0  0  0  0  0  0  0
  -24.2179  -10.8127   24.6196 N   0  0  0  0  0  0  0  0  0  0  0  0
  -27.7769  -22.4816   19.0898 N   0  0  0  0  0  0  0  0  0  0  0  0
  -26.3114  -33.0412   19.7911 N   0  0  0  0  0  0  0  0  0  0  0  0
  -22.3915  -30.3627   24.6821 N   0  0  0  0  0  0  0  0  0  0  0  0
  -28.4221  -16.9138   19.7908 N   0  0  0  0  0  0  0  0  0  0  0  0
  -20.1988  -27.5057   24.3707 N   0  3  0  0  0  0  0  0  0  0  0  0
  -25.6862  -12.4275   25.3231 O   0  0  0  0  0  0  0  0  0  0  0  0
  -26.6924  -32.2038   21.9303 O   0  0  0  0  0  0  0  0  0  0  0  0
  -23.0591  -32.4918   22.8849 O   0  0  0  0  0  0  0  0  0  0  0  0
  -28.1145  -23.3357   21.2540 O   0  0  0  0  0  0  0  0  0  0  0  0
  -22.9282  -28.1069   24.6948 O   0  0  0  0  0  0  0  0  0  0  0  0
  -29.5382  -16.5587   17.7884 O   0  0  0  0  0  0  0  0  0  0  0  0
  -21.5037   -7.1581   21.4083 O   0  0  0  0  0  0  0  0  0  0  0  0
  -27.7464  -25.8658   20.4387 O   0  0  0  0  0  0  0  0  0  1  0  0
  -21.0429   -3.3869   25.4046 F   0  0  0  0  0  0  0  0  0  0  0  0
  -21.7739   -4.4633   20.8535 F   0  0  0  0  0  0  0  0  0  0  0  0
  -26.0880  -15.6990   20.7761 F   0  0  0  0  0  0  0  0  0  0  0  0
  1  2  1  0  0  0  0
  1  5  2  0  0  0  0
  2  6  2  0  0  0  0
  3 12  2  0  0  0  0
  3 19  1  0  0  0  0
  4 13  1  0  0  0  0
  4 19  2  0  0  0  0
  5 21  1  0  0  0  0
  6 23  1  0  0  0  0
  7 14  2  0  0  0  0
  7 22  1  0  0  0  0
  8 10  2  0  0  0  0
  8 25  1  0  0  0  0
  9 11  1  0  0  0  0
  9 25  2  0  0  0  0
 10 26  1  0  0  0  0
 11 26  2  0  0  0  0
 12 27  1  0  0  0  0
 13 27  2  0  0  0  0
 14 28  1  0  0  0  0
 15 16  2  0  0  0  0
 15 29  1  0  0  0  0
 16 30  1  0  0  0  0
 17 24  1  0  0  0  0
 17 28  2  0  0  0  0
 18 30  2  0  0  0  0
 18 31  1  0  0  0  0
 19 32  1  0  0  0  0
 20 32  1  0  0  0  0
 20 33  2  0  0  0  0
 20 34  1  0  0  0  0
 21 23  2  0  0  0  0
 21 40  1  0  0  0  0
 22 24  2  0  0  0  0
 22 41  1  0  0  0  0
 23 49  1  0  0  0  0
 24 42  1  0  0  0  0
 25 69  1  0  0  0  0
 26 72  1  0  0  0  0
 27 80  1  0  0  0  0
 28 81  1  0  0  0  0
 29 31  2  0  0  0  0
 29 80  1  0  0  0  0
 30 82  1  0  0  0  0
 31 83  1  0  0  0  0
 32 63  2  0  0  0  0
 33 64  1  0  0  0  0
 33 67  1  0  0  0  0
 34 68  1  0  0  0  0
 34 74  2  0  0  0  0
 35 50  1  0  0  0  0
 35 70  1  0  0  0  0
 35 75  2  0  0  0  0
 36 60  1  0  0  0  0
 36 65  1  0  0  0  0
 36 76  2  0  0  0  0
 37 57  1  0  0  0  0
 37 69  1  0  0  0  0
 37 77  2  0  0  0  0
 38 61  1  0  0  0  0
 38 71  1  0  0  0  0
 38 78  2  0  0  0  0
 39 66  1  0  0  0  0
 39 72  1  0  0  0  0
 39 79  2  0  0  0  0
 40 43  1  0  0  0  0
 41 50  1  0  0  0  0
 42 65  1  0  0  0  0
 43 45  1  0  0  0  0
 44 46  1  0  0  0  0
 44 47  1  0  0  0  0
 45 49  1  0  0  0  0
 46 51  1  0  0  0  0
 47 66  1  0  0  0  0
 48 51  1  0  0  0  0
 48 66  1  0  0  0  0
 49 70  1  0  0  0  0
 50 65  1  0  0  0  0
 51 64  1  0  0  0  0
 52 61  1  0  0  0  0
 53 62  1  0  0  0  0
 54 62  1  0  0  0  0
 55 62  1  0  0  0  0
 56 73  1  0  0  0  0
 57 81  1  0  0  0  0
 58 59  1  0  0  0  0
 58 72  1  0  0  0  0
 59 84  1  0  0  0  0
 60 62  1  0  0  0  0
 60 71  1  0  0  0  0
 61 73  1  0  0  0  0
 63 64  1  0  0  0  0
M  CHG  1  73   1
M  ISO  4  39 100  57 101  72 100  81 101
M  END
> <Batch ID>
0007

> <Smiles>
CNC(C)C(=O)NC(C(=O)N1Cc2cc([101O:1][101CH2:1]C(=O)Nc3ccc([100N:0](CCF)[100C:0](=O)N4CCCC(n5nc(-c6ccc(Oc7ccc(F)cc7F)cc6)c(C(N)=O)c5N)C4)cc3)ccc2CC1C(=O)NC1CCCc2ccccc21)C(C)(C)C

> <Shape>
0.291

> <Color>
0.127

> <Negative vol penalty>
0.000

$$$$

  -OEChem-04052315333D

 84 92  0     1  0  0  0  0  0999 V2000
  -26.1028  -33.2939   17.1180 C   0  0  0  0  0  0  0  0  0  0  0  0
  -26.0967  -32.4309   16.0269 C   0  0  0  0  0  0  0  0  0  0  0  0
  -23.2217   -9.9320   19.8628 C   0  0  0  0  0  0  0  0  0  0  0  0
  -23.7303   -9.9284   22.2247 C   0  0  0  0  0  0  0  0  0  0  0  0
  -27.0217  -33.1052   18.1495 C   0  0  0  0  0  0  0  0  0  0  0  0
  -27.0103  -31.3792   15.9661 C   0  0  0  0  0  0  0  0  0  0  0  0
  -27.6362  -24.6595   13.5640 C   0  0  0  0  0  0  0  0  0  0  0  0
  -29.9756  -16.3493   15.0664 C   0  0  0  0  0  0  0  0  0  0  0  0
  -22.4600   -8.7748   20.0250 C   0  0  0  0  0  0  0  0  0  0  0  0
  -22.9685   -8.7712   22.3869 C   0  0  0  0  0  0  0  0  0  0  0  0
  -28.4750  -23.8703   12.7783 C   0  0  0  0  0  0  0  0  0  0  0  0
  -30.0341  -17.2016   13.9638 C   0  0  0  0  0  0  0  0  0  0  0  0
  -19.6976   -7.9585   22.6341 C   0  0  0  0  0  0  0  0  0  0  0  0
  -18.8192   -7.9091   23.7165 C   0  0  0  0  0  0  0  0  0  0  0  0
  -29.9639  -23.5939   14.6561 C   0  0  0  0  0  0  0  0  0  0  0  0
  -28.6741  -17.9924   16.2677 C   0  0  0  0  0  0  0  0  0  0  0  0
  -19.9821   -5.9719   24.5719 C   0  0  0  0  0  0  0  0  0  0  0  0
  -23.8569  -10.5088   20.9626 C   0  0  0  0  0  0  0  0  0  0  0  0
  -24.1992  -13.0358   20.8936 C   0  0  0  0  0  0  0  0  0  0  0  0
  -27.9407  -32.0449   18.1059 C   0  0  0  0  0  0  0  0  0  0  0  0
  -27.9611  -24.9312   14.9008 C   0  0  0  0  0  0  0  0  0  0  0  0
  -27.9433  -31.1770   16.9973 C   0  0  0  0  0  0  0  0  0  0  0  0
  -29.1263  -24.3847   15.4574 C   0  0  0  0  0  0  0  0  0  0  0  0
  -29.2955  -16.7446   16.2183 C   0  0  0  0  0  0  0  0  0  0  0  0
  -22.3334   -8.1944   21.2871 C   0  0  0  0  0  0  0  0  0  0  0  0
  -29.6405  -23.3397   13.3234 C   0  0  0  0  0  0  0  0  0  0  0  0
  -29.4127  -18.4494   14.0132 C   0  0  0  0  0  0  0  0  0  0  0  0
  -20.7183   -7.0145   22.5206 C   0  0  0  0  0  0  0  0  0  0  0  0
  -28.7326  -18.8449   15.1651 C   0  0  0  0  0  0  0  0  0  0  0  0
  -18.9614   -6.9159   24.6854 C   0  0  0  0  0  0  0  0  0  0  0  0
  -20.8605   -6.0212   23.4895 C   0  0  0  0  0  0  0  0  0  0  0  0
  -24.6443  -11.7038   20.7956 C   0  0  0  0  0  0  0  0  0  0  0  0
  -25.3210  -13.7912   20.6540 C   0  0  0  0  0  0  0  0  0  0  0  0
  -22.8889  -13.5447   21.1761 C   0  0  0  0  0  0  0  0  0  0  0  0
  -28.5910  -27.5649   16.5654 C   0  0  0  0  0  0  0  0  0  0  0  0
  -28.5969  -25.5091   19.0745 C   0  0  0  0  0  0  0  0  0  0  0  0
  -28.9856  -22.3101   20.1981 C   0  0  0  0  0  0  0  0  0  0  0  0
  -29.8556  -14.5941   17.3393 C   0  0  0  0  0  0  0  0  0  0  0  0
  -28.9461  -31.9094   19.2220 C   0  0  0  0  0  0  0  0  0  0  0  0
  -27.0322  -25.7623   15.7428 C   0  0  0  0  0  0  0  0  0  0  0  0
  -29.5099  -24.6298   16.8931 C   0  0  0  0  0  0  0  0  0  0  0  0
  -29.6335  -30.5469   19.2603 C   0  0  0  0  0  0  0  0  0  0  0  0
  -30.1882  -12.4835   20.3468 C   0  0  0  0  0  0  0  0  0  0  0  0
  -30.0935  -30.1416   17.8635 C   0  0  0  0  0  0  0  0  0  0  0  0
  -28.7373  -12.1530   20.6930 C   0  0  0  0  0  0  0  0  0  0  0  0
  -30.3781  -12.7004   18.8485 C   0  0  0  0  0  0  0  0  0  0  0  0
  -28.0138  -13.3979   18.6164 C   0  0  0  0  0  0  0  0  0  0  0  0
  -28.9023  -30.0098   16.9070 C   0  0  1  0  0  0  0  0  0  0  0  0
  -27.7233  -26.3984   16.9449 C   0  0  1  0  0  0  0  0  0  0  0  0
  -27.7817  -13.2160   20.1240 C   0  0  1  0  0  0  0  0  0  0  0  0
  -28.9846  -20.3958   21.8207 C   0  0  0  0  0  0  0  0  0  0  0  0
  -31.3581  -26.5906   19.7931 C   0  0  0  0  0  0  0  0  0  0  0  0
  -31.6807  -24.5923   21.2664 C   0  0  0  0  0  0  0  0  0  0  0  0
  -29.8451  -26.2113   21.7479 C   0  0  0  0  0  0  0  0  0  0  0  0
  -28.7321  -16.3945   18.6301 C   0  0  0  0  0  0  0  0  0  0  0  0
  -26.1325  -21.7196   19.6785 C   0  0  0  0  0  0  0  0  0  0  0  0
  -27.4490  -20.3888   16.4397 C   0  0  0  0  0  0  0  0  0  0  0  0
  -30.6641  -20.5484   11.2566 C   0  0  0  0  0  0  0  0  0  0  0  0
  -29.8525  -21.8076   11.5169 C   0  0  0  0  0  0  0  0  0  1  0  0
  -30.7740  -19.6758   12.4971 C   0  0  0  0  0  0  0  0  0  0  0  0
  -29.6417  -24.6622   19.7603 C   0  0  1  0  0  0  0  0  0  0  0  0
  -28.1447  -21.4627   21.1357 C   0  0  2  0  0  0  0  0  0  0  0  0
  -30.6254  -25.5109   20.6143 C   0  0  0  0  0  0  0  0  0  0  0  0
  -25.9472  -11.6149   20.5154 N   0  0  0  0  0  0  0  0  0  0  0  0
  -26.3304  -12.9005   20.4352 N   0  0  0  0  0  0  0  0  0  0  0  0
  -28.5724  -25.4539   17.6738 N   0  0  0  0  0  0  0  0  0  0  0  0
  -29.4274  -13.6818   18.3245 N   0  0  0  0  0  0  0  0  0  0  0  0
  -25.5325  -15.1238   20.6112 N   0  0  0  0  0  0  0  0  0  0  0  0
  -21.8503  -12.6300   21.3976 N   0  0  0  0  0  0  0  0  0  0  0  0
  -28.2052  -28.7625   17.1368 N   0  0  0  0  0  0  0  0  0  0  0  0
  -28.9137  -23.6496   20.5173 N   0  0  0  0  0  0  0  0  0  0  0  0
  -29.2357  -15.8623   17.3597 N   0  0  0  0  0  0  0  0  0  0  0  0
  -27.0502  -20.7875   20.3826 N   0  3  0  0  0  0  0  0  0  0  0  0
  -22.6427  -14.7741   21.2142 O   0  0  0  0  0  0  0  0  0  0  0  0
  -29.5411  -27.3911   15.8113 O   0  0  0  0  0  0  0  0  0  0  0  0
  -27.8262  -26.1888   19.7569 O   0  0  0  0  0  0  0  0  0  0  0  0
  -29.6435  -21.8313   19.2770 O   0  0  0  0  0  0  0  0  0  0  0  0
  -30.7423  -14.3076   16.5261 O   0  0  0  0  0  0  0  0  0  0  0  0
  -21.5900   -7.0653   21.4458 O   0  0  0  0  0  0  0  0  0  0  0  0
  -28.1227  -20.0614   15.2260 O   0  0  0  0  0  0  0  0  0  0  0  0
  -30.4613  -22.5696   12.5585 O   0  0  0  0  0  0  0  0  0  1  0  0
  -29.4779  -19.2784   12.9236 O   0  0  0  0  0  0  0  0  0  0  0  0
  -18.1188   -6.8695   25.7255 F   0  0  0  0  0  0  0  0  0  0  0  0
  -21.8398   -5.1123   23.3864 F   0  0  0  0  0  0  0  0  0  0  0  0
  1  2  1  0  0  0  0
  1  5  2  0  0  0  0
  2  6  2  0  0  0  0
  3  9  2  0  0  0  0
  3 18  1  0  0  0  0
  4 10  1  0  0  0  0
  4 18  2  0  0  0  0
  5 20  1  0  0  0  0
  6 22  1  0  0  0  0
  7 11  2  0  0  0  0
  7 21  1  0  0  0  0
  8 12  2  0  0  0  0
  8 24  1  0  0  0  0
  9 25  1  0  0  0  0
 10 25  2  0  0  0  0
 11 26  1  0  0  0  0
 12 27  1  0  0  0  0
 13 14  2  0  0  0  0
 13 28  1  0  0  0  0
 14 30  1  0  0  0  0
 15 23  1  0  0  0  0
 15 26  2  0  0  0  0
 16 24  2  0  0  0  0
 16 29  1  0  0  0  0
 17 30  2  0  0  0  0
 17 31  1  0  0  0  0
 18 32  1  0  0  0  0
 19 32  1  0  0  0  0
 19 33  2  0  0  0  0
 19 34  1  0  0  0  0
 20 22  2  0  0  0  0
 20 39  1  0  0  0  0
 21 23  2  0  0  0  0
 21 40  1  0  0  0  0
 22 48  1  0  0  0  0
 23 41  1  0  0  0  0
 24 72  1  0  0  0  0
 25 79  1  0  0  0  0
 26 81  1  0  0  0  0
 27 29  2  0  0  0  0
 27 82  1  0  0  0  0
 28 31  2  0  0  0  0
 28 79  1  0  0  0  0
 29 80  1  0  0  0  0
 30 83  1  0  0  0  0
 31 84  1  0  0  0  0
 32 64  2  0  0  0  0
 33 65  1  0  0  0  0
 33 68  1  0  0  0  0
 34 69  1  0  0  0  0
 34 74  2  0  0  0  0
 35 49  1  0  0  0  0
 35 70  1  0  0  0  0
 35 75  2  0  0  0  0
 36 61  1  0  0  0  0
 36 66  1  0  0  0  0
 36 76  2  0  0  0  0
 37 62  1  0  0  0  0
 37 71  1  0  0  0  0
 37 77  2  0  0  0  0
 38 67  1  0  0  0  0
 38 72  1  0  0  0  0
 38 78  2  0  0  0  0
 39 42  1  0  0  0  0
 40 49  1  0  0  0  0
 41 66  1  0  0  0  0
 42 44  1  0  0  0  0
 43 45  1  0  0  0  0
 43 46  1  0  0  0  0
 44 48  1  0  0  0  0
 45 50  1  0  0  0  0
 46 67  1  0  0  0  0
 47 50  1  0  0  0  0
 47 67  1  0  0  0  0
 48 70  1  0  0  0  0
 49 66  1  0  0  0  0
 50 65  1  0  0  0  0
 51 62  1  0  0  0  0
 52 63  1  0  0  0  0
 53 63  1  0  0  0  0
 54 63  1  0  0  0  0
 55 72  1  0  0  0  0
 56 73  1  0  0  0  0
 57 80  1  0  0  0  0
 58 59  1  0  0  0  0
 58 60  1  0  0  0  0
 59 81  1  0  0  0  0
 60 82  1  0  0  0  0
 61 63  1  0  0  0  0
 61 71  1  0  0  0  0
 62 73  1  0  0  0  0
 64 65  1  0  0  0  0
M  CHG  1  73   1
M  ISO  4  38 100  59 101  72 100  81 101
M  END
> <Batch ID>
0007

> <Smiles>
CNC(C)C(=O)NC(C(=O)N1Cc2cc([101O:1][101CH2:1]CCOc3ccc([100N:0](C)[100C:0](=O)N4CCCC(n5nc(-c6ccc(Oc7ccc(F)cc7F)cc6)c(C(N)=O)c5N)C4)cc3OC)ccc2CC1C(=O)NC1CCCc2ccccc21)C(C)(C)C

> <Shape>
0.206

> <Color>
0.191

> <Negative vol penalty>
0.000

$$$$

  -OEChem-04052315333D

 88 96  0     1  0  0  0  0  0999 V2000
  -23.0190   -7.2334   24.8700 C   0  0  0  0  0  0  0  0  0  0  0  0
  -24.0903   -8.1049   25.0377 C   0  0  0  0  0  0  0  0  0  0  0  0
  -26.0547  -30.0198   22.1279 C   0  0  0  0  0  0  0  0  0  0  0  0
  -24.5547  -30.5536   20.3107 C   0  0  0  0  0  0  0  0  0  0  0  0
  -31.0721  -19.7316   20.4195 C   0  0  0  0  0  0  0  0  0  0  0  0
  -22.3427   -7.1882   23.6516 C   0  0  0  0  0  0  0  0  0  0  0  0
  -24.4867   -8.9311   23.9866 C   0  0  0  0  0  0  0  0  0  0  0  0
  -26.7178  -14.6184   24.4141 C   0  0  0  0  0  0  0  0  0  0  0  0
  -25.9321  -31.3222   22.6118 C   0  0  0  0  0  0  0  0  0  0  0  0
  -24.4320  -31.8561   20.7947 C   0  0  0  0  0  0  0  0  0  0  0  0
  -30.6576  -21.0543   20.2642 C   0  0  0  0  0  0  0  0  0  0  0  0
  -28.0182  -15.1203   24.3877 C   0  0  0  0  0  0  0  0  0  0  0  0
  -23.6883  -33.1159   24.3954 C   0  0  0  0  0  0  0  0  0  0  0  0
  -23.4911  -33.2822   25.7661 C   0  0  0  0  0  0  0  0  0  0  0  0
  -29.2178  -18.9908   19.0593 C   0  0  0  0  0  0  0  0  0  0  0  0
  -27.7848  -15.5839   22.0319 C   0  0  0  0  0  0  0  0  0  0  0  0
  -25.5305  -34.5703   25.9032 C   0  0  0  0  0  0  0  0  0  0  0  0
  -25.3661  -29.6355   20.9773 C   0  0  0  0  0  0  0  0  0  0  0  0
  -30.3522  -18.6998   19.8170 C   0  0  0  0  0  0  0  0  0  0  0  0
  -24.6937  -27.1804   20.8099 C   0  0  0  0  0  0  0  0  0  0  0  0
  -22.7249   -8.0211   22.5882 C   0  0  0  0  0  0  0  0  0  0  0  0
  -25.9436  -14.5854   23.2454 C   0  0  0  0  0  0  0  0  0  0  0  0
  -23.8158   -8.8960   22.7524 C   0  0  0  0  0  0  0  0  0  0  0  0
  -26.4739  -15.0835   22.0467 C   0  0  0  0  0  0  0  0  0  0  0  0
  -28.8033  -20.3136   18.9040 C   0  0  0  0  0  0  0  0  0  0  0  0
  -25.1207  -32.2404   21.9452 C   0  0  0  0  0  0  0  0  0  0  0  0
  -28.5530  -15.6005   23.1958 C   0  0  0  0  0  0  0  0  0  0  0  0
  -29.5232  -21.3453   19.5065 C   0  0  0  0  0  0  0  0  0  0  0  0
  -24.8066  -33.6767   23.7785 C   0  0  0  0  0  0  0  0  0  0  0  0
  -24.4122  -34.0094   26.5200 C   0  0  0  0  0  0  0  0  0  0  0  0
  -25.7277  -34.4039   24.5324 C   0  0  0  0  0  0  0  0  0  0  0  0
  -25.4929  -28.2904   20.4766 C   0  0  0  0  0  0  0  0  0  0  0  0
  -25.2174  -26.1466   20.0727 C   0  0  0  0  0  0  0  0  0  0  0  0
  -30.7907  -17.3026   19.9810 C   0  0  0  0  0  0  0  0  0  0  0  0
  -31.5992  -16.8683   20.9593 C   0  0  0  0  0  0  0  0  0  0  0  0
  -23.5778  -27.0918   21.7057 C   0  0  0  0  0  0  0  0  0  0  0  0
  -31.9988  -15.4306   20.9990 C   0  0  0  0  0  0  0  0  0  0  0  0
  -24.5975  -12.2871   21.5105 C   0  0  0  0  0  0  0  0  0  0  0  0
  -23.3329  -14.7926   19.8840 C   0  0  0  0  0  0  0  0  0  0  0  0
  -23.5596  -18.0788   18.9918 C   0  0  0  0  0  0  0  0  0  0  0  0
  -29.6866  -23.3277   18.2606 C   0  0  0  0  0  0  0  0  0  0  0  0
  -21.9937   -7.9029   21.2744 C   0  0  0  0  0  0  0  0  0  0  0  0
  -24.5331  -14.0655   23.2963 C   0  0  0  0  0  0  0  0  0  0  0  0
  -25.6769  -15.0891   20.7688 C   0  0  0  0  0  0  0  0  0  0  0  0
  -22.2387   -9.0792   20.3329 C   0  0  0  0  0  0  0  0  0  0  0  0
  -28.5859  -26.1455   16.3096 C   0  0  0  0  0  0  0  0  0  0  0  0
  -23.7264   -9.4099   20.2677 C   0  0  0  0  0  0  0  0  0  0  0  0
  -27.6464  -26.8830   17.2633 C   0  0  0  0  0  0  0  0  0  0  0  0
  -29.7467  -25.4978   17.0578 C   0  0  0  0  0  0  0  0  0  0  0  0
  -28.3757  -25.3161   19.1168 C   0  0  0  0  0  0  0  0  0  0  0  0
  -24.2599   -9.8256   21.6439 C   0  0  1  0  0  0  0  0  0  0  0  0
  -24.0163  -13.6056   21.9366 C   0  0  1  0  0  0  0  0  0  0  0  0
  -27.1756  -25.9583   18.4001 C   0  0  1  0  0  0  0  0  0  0  0  0
  -22.3990  -19.8331   17.6232 C   0  0  0  0  0  0  0  0  0  0  0  0
  -24.4537  -13.5429   17.3361 C   0  0  0  0  0  0  0  0  0  0  0  0
  -24.1121  -15.7424   16.1900 C   0  0  0  0  0  0  0  0  0  0  0  0
  -22.1537  -14.4976   17.1054 C   0  0  0  0  0  0  0  0  0  0  0  0
  -27.5965  -20.2175   16.7373 C   0  0  0  0  0  0  0  0  0  0  0  0
  -26.5102  -21.2488   18.7385 C   0  0  0  0  0  0  0  0  0  0  0  0
  -32.6740  -13.5075   22.3854 C   0  0  0  0  0  0  0  0  0  0  0  0
  -23.0738  -19.7760   21.3672 C   0  0  0  0  0  0  0  0  0  0  0  0
  -32.1586  -15.6373   23.5229 C   0  0  0  0  0  0  0  0  0  0  0  0
  -30.7542  -15.5343   24.0937 C   0  0  0  0  0  0  0  0  0  1  0  0
  -23.7614  -15.6237   18.6988 C   0  0  1  0  0  0  0  0  0  0  0  0
  -22.5334  -19.1975   18.9982 C   0  0  2  0  0  0  0  0  0  0  0  0
  -23.6362  -14.8499   17.3561 C   0  0  0  0  0  0  0  0  0  0  0  0
  -26.4514  -27.9899   19.5963 N   0  0  0  0  0  0  0  0  0  0  0  0
  -26.2581  -26.6793   19.3703 N   0  0  0  0  0  0  0  0  0  0  0  0
  -24.3049  -14.5646   20.8684 N   0  0  0  0  0  0  0  0  0  0  0  0
  -29.2645  -24.6567   18.1524 N   0  0  0  0  0  0  0  0  0  0  0  0
  -24.8847  -24.8428   19.9634 N   0  0  0  0  0  0  0  0  0  0  0  0
  -23.1709  -28.2495   22.3827 N   0  0  0  0  0  0  0  0  0  0  0  0
  -23.8785  -11.1892   21.9430 N   0  0  0  0  0  0  0  0  0  0  0  0
  -22.9762  -16.8519   18.7562 N   0  0  0  0  0  0  0  0  0  0  0  0
  -27.6529  -20.5939   18.1350 N   0  0  0  0  0  0  0  0  0  0  0  0
  -32.2501  -14.9054   22.2803 N   0  0  0  0  0  0  0  0  0  0  0  0
  -22.9281  -20.2569   19.9692 N   0  3  0  0  0  0  0  0  0  0  0  0
  -22.9700  -26.0141   21.9125 O   0  0  0  0  0  0  0  0  0  0  0  0
  -32.1094  -14.7971   19.9483 O   0  0  0  0  0  0  0  0  0  0  0  0
  -25.6216  -12.2674   20.8378 O   0  0  0  0  0  0  0  0  0  0  0  0
  -22.1761  -14.3675   19.9379 O   0  0  0  0  0  0  0  0  0  0  0  0
  -24.7593  -18.2744   19.1736 O   0  0  0  0  0  0  0  0  0  0  0  0
  -30.4638  -22.7826   17.4778 O   0  0  0  0  0  0  0  0  0  0  0  0
  -25.0006  -33.5113   22.4173 O   0  0  0  0  0  0  0  0  0  0  0  0
  -29.1250  -22.6783   19.3635 O   0  0  0  0  0  0  0  0  0  0  0  0
  -29.8223  -16.0903   23.1670 O   0  0  0  0  0  0  0  0  0  1  0  0
  -24.2219  -34.1704   27.8361 F   0  0  0  0  0  0  0  0  0  0  0  0
  -26.8034  -34.9460   23.9451 F   0  0  0  0  0  0  0  0  0  0  0  0
  1  2  1  0  0  0  0
  1  6  2  0  0  0  0
  2  7  2  0  0  0  0
  3  9  2  0  0  0  0
  3 18  1  0  0  0  0
  4 10  1  0  0  0  0
  4 18  2  0  0  0  0
  5 11  2  0  0  0  0
  5 19  1  0  0  0  0
  6 21  1  0  0  0  0
  7 23  1  0  0  0  0
  8 12  2  0  0  0  0
  8 22  1  0  0  0  0
  9 26  1  0  0  0  0
 10 26  2  0  0  0  0
 11 28  1  0  0  0  0
 12 27  1  0  0  0  0
 13 14  2  0  0  0  0
 13 29  1  0  0  0  0
 14 30  1  0  0  0  0
 15 19  2  0  0  0  0
 15 25  1  0  0  0  0
 16 24  1  0  0  0  0
 16 27  2  0  0  0  0
 17 30  2  0  0  0  0
 17 31  1  0  0  0  0
 18 32  1  0  0  0  0
 19 34  1  0  0  0  0
 20 32  1  0  0  0  0
 20 33  2  0  0  0  0
 20 36  1  0  0  0  0
 21 23  2  0  0  0  0
 21 42  1  0  0  0  0
 22 24  2  0  0  0  0
 22 43  1  0  0  0  0
 23 51  1  0  0  0  0
 24 44  1  0  0  0  0
 25 28  2  0  0  0  0
 25 75  1  0  0  0  0
 26 84  1  0  0  0  0
 27 86  1  0  0  0  0
 28 85  1  0  0  0  0
 29 31  2  0  0  0  0
 29 84  1  0  0  0  0
 30 87  1  0  0  0  0
 31 88  1  0  0  0  0
 32 67  2  0  0  0  0
 33 68  1  0  0  0  0
 33 71  1  0  0  0  0
 34 35  2  0  0  0  0
 35 37  1  0  0  0  0
 36 72  1  0  0  0  0
 36 78  2  0  0  0  0
 37 76  1  0  0  0  0
 37 79  2  0  0  0  0
 38 52  1  0  0  0  0
 38 73  1  0  0  0  0
 38 80  2  0  0  0  0
 39 64  1  0  0  0  0
 39 69  1  0  0  0  0
 39 81  2  0  0  0  0
 40 65  1  0  0  0  0
 40 74  1  0  0  0  0
 40 82  2  0  0  0  0
 41 70  1  0  0  0  0
 41 83  2  0  0  0  0
 41 85  1  0  0  0  0
 42 45  1  0  0  0  0
 43 52  1  0  0  0  0
 44 69  1  0  0  0  0
 45 47  1  0  0  0  0
 46 48  1  0  0  0  0
 46 49  1  0  0  0  0
 47 51  1  0  0  0  0
 48 53  1  0  0  0  0
 49 70  1  0  0  0  0
 50 53  1  0  0  0  0
 50 70  1  0  0  0  0
 51 73  1  0  0  0  0
 52 69  1  0  0  0  0
 53 68  1  0  0  0  0
 54 65  1  0  0  0  0
 55 66  1  0  0  0  0
 56 66  1  0  0  0  0
 57 66  1  0  0  0  0
 58 75  1  0  0  0  0
 59 75  1  0  0  0  0
 60 76  1  0  0  0  0
 61 77  1  0  0  0  0
 62 63  1  0  0  0  0
 62 76  1  0  0  0  0
 63 86  1  0  0  0  0
 64 66  1  0  0  0  0
 64 74  1  0  0  0  0
 65 77  1  0  0  0  0
 67 68  1  0  0  0  0
M  CHG  1  77   1
M  ISO  4  41 100  63 101  85 100  86 101
M  END
> <Batch ID>
0007

> <Smiles>
CNC(C)C(=O)NC(C(=O)N1Cc2cc([101O:1][101CH2:1]CN(C)C(=O)C=Cc3ccc([100O:0][100C:0](=O)N4CCCC(n5nc(-c6ccc(Oc7ccc(F)cc7F)cc6)c(C(N)=O)c5N)C4)c(N(C)C)c3)ccc2CC1C(=O)NC1CCCc2ccccc21)C(C)(C)C

> <Shape>
0.252

> <Color>
0.070

> <Negative vol penalty>
0.000

$$$$

  -OEChem-04052315333D

 92100  0     1  0  0  0  0  0999 V2000
  -21.6016  -24.2832   24.6433 C   0  0  0  0  0  0  0  0  0  0  0  0
  -22.8031  -24.7940   24.1626 C   0  0  0  0  0  0  0  0  0  0  0  0
  -25.2732   -8.5122   20.5644 C   0  0  0  0  0  0  0  0  0  0  0  0
  -23.8388   -9.6069   22.1711 C   0  0  0  0  0  0  0  0  0  0  0  0
  -24.7750  -21.5456   19.4167 C   0  0  0  0  0  0  0  0  0  0  0  0
  -20.3999  -24.9140   24.3241 C   0  0  0  0  0  0  0  0  0  0  0  0
  -22.8034  -25.9353   23.3615 C   0  0  0  0  0  0  0  0  0  0  0  0
  -26.3888  -29.2501   24.7038 C   0  0  0  0  0  0  0  0  0  0  0  0
  -25.0086   -7.2821   21.1663 C   0  0  0  0  0  0  0  0  0  0  0  0
  -23.5742   -8.3767   22.7729 C   0  0  0  0  0  0  0  0  0  0  0  0
  -23.9085  -20.4573   19.3152 C   0  0  0  0  0  0  0  0  0  0  0  0
  -27.6942  -28.9747   24.2993 C   0  0  0  0  0  0  0  0  0  0  0  0
  -21.6134   -5.6880   22.1841 C   0  0  0  0  0  0  0  0  0  0  0  0
  -20.2884   -5.3997   22.5107 C   0  0  0  0  0  0  0  0  0  0  0  0
  -26.5049  -20.0891   20.2670 C   0  0  0  0  0  0  0  0  0  0  0  0
  -27.4527  -30.5367   22.4769 C   0  0  0  0  0  0  0  0  0  0  0  0
  -20.9074   -5.1894   24.8366 C   0  0  0  0  0  0  0  0  0  0  0  0
  -24.6883   -9.6747   21.0668 C   0  0  0  0  0  0  0  0  0  0  0  0
  -26.0732  -21.3615   19.8925 C   0  0  0  0  0  0  0  0  0  0  0  0
  -24.2457  -11.5501   19.3952 C   0  0  0  0  0  0  0  0  0  0  0  0
  -20.3863  -26.0692   23.5266 C   0  0  0  0  0  0  0  0  0  0  0  0
  -25.6005  -30.1644   23.9903 C   0  0  0  0  0  0  0  0  0  0  0  0
  -21.6002  -26.5814   23.0302 C   0  0  0  0  0  0  0  0  0  0  0  0
  -26.1385  -30.8239   22.8760 C   0  0  0  0  0  0  0  0  0  0  0  0
  -25.6384  -19.0007   20.1655 C   0  0  0  0  0  0  0  0  0  0  0  0
  -24.1591   -7.2143   22.2705 C   0  0  0  0  0  0  0  0  0  0  0  0
  -28.2254  -29.6158   23.1840 C   0  0  0  0  0  0  0  0  0  0  0  0
  -24.3402  -19.1848   19.6897 C   0  0  0  0  0  0  0  0  0  0  0  0
  -22.5855   -5.7269   23.1837 C   0  0  0  0  0  0  0  0  0  0  0  0
  -19.9353   -5.1504   23.8369 C   0  0  0  0  0  0  0  0  0  0  0  0
  -22.2325   -5.4776   24.5099 C   0  0  0  0  0  0  0  0  0  0  0  0
  -24.9617  -10.9458   20.4459 C   0  0  0  0  0  0  0  0  0  0  0  0
  -24.8999  -12.7370   19.1720 C   0  0  0  0  0  0  0  0  0  0  0  0
  -26.9956  -22.5212   19.9997 C   0  0  0  0  0  0  0  0  0  0  0  0
  -23.0923  -11.0807   18.6846 C   0  0  0  0  0  0  0  0  0  0  0  0
  -22.8716  -29.9873   22.3698 C   0  0  0  0  0  0  0  0  0  0  0  0
  -23.2282  -33.2058   22.1792 C   0  0  0  0  0  0  0  0  0  0  0  0
  -28.0022  -27.0139   20.1534 C   0  0  0  0  0  0  0  0  0  0  0  0
  -25.3250  -35.8976   22.2481 C   0  0  0  0  0  0  0  0  0  0  0  0
  -27.3514  -17.3740   21.0405 C   0  0  0  0  0  0  0  0  0  0  0  0
  -19.0586  -26.6890   23.1693 C   0  0  0  0  0  0  0  0  0  0  0  0
  -24.2032  -30.4705   24.4554 C   0  0  0  0  0  0  0  0  0  0  0  0
  -25.3404  -31.8290   22.0877 C   0  0  0  0  0  0  0  0  0  0  0  0
  -19.1767  -28.1099   22.6240 C   0  0  0  0  0  0  0  0  0  0  0  0
  -29.3439  -14.4261   20.9097 C   0  0  0  0  0  0  0  0  0  0  0  0
  -20.2804  -28.1888   21.5741 C   0  0  0  0  0  0  0  0  0  0  0  0
  -28.3225  -13.3076   20.6910 C   0  0  0  0  0  0  0  0  0  0  0  0
  -28.8014  -15.5172   21.8311 C   0  0  0  0  0  0  0  0  0  0  0  0
  -26.4826  -14.9593   21.2139 C   0  0  0  0  0  0  0  0  0  0  0  0
  -21.6436  -27.8317   22.1789 C   0  0  1  0  0  0  0  0  0  0  0  0
  -23.3160  -31.0355   23.3504 C   0  0  1  0  0  0  0  0  0  0  0  0
  -26.9597  -13.8691   20.2405 C   0  0  2  0  0  0  0  0  0  0  0  0
  -25.6241  -26.2546   19.8359 C   0  0  0  0  0  0  0  0  0  0  0  0
  -25.3296  -38.3972   22.0259 C   0  0  0  0  0  0  0  0  0  0  0  0
  -27.6907  -25.2693   17.6551 C   0  0  0  0  0  0  0  0  0  0  0  0
  -22.9218  -32.9351   19.1555 C   0  0  0  0  0  0  0  0  0  0  0  0
  -23.8654  -35.2425   18.9234 C   0  0  0  0  0  0  0  0  0  0  0  0
  -21.7246  -34.8904   20.1545 C   0  0  0  0  0  0  0  0  0  0  0  0
  -26.3715  -36.2558   24.9932 C   0  0  0  0  0  0  0  0  0  0  0  0
  -23.4715  -17.4232   18.3488 C   0  0  0  0  0  0  0  0  0  0  0  0
  -30.9971  -27.6622   21.9669 C   0  0  0  0  0  0  0  0  0  0  0  0
  -30.3706  -27.6327   20.5793 C   0  0  0  0  0  0  0  0  0  0  0  0
  -30.0033  -28.0412   23.0582 C   0  0  0  0  0  0  0  0  0  1  0  0
  -23.8988  -34.1518   21.2125 C   0  0  1  0  0  0  0  0  0  0  0  0
  -27.0638  -25.8048   20.1002 C   0  0  1  0  0  0  0  0  0  0  0  0
  -25.2407  -37.2214   22.9863 C   0  0  2  0  0  0  0  0  0  0  0  0
  -27.5791  -24.7542   19.0891 C   0  0  1  0  0  0  0  0  0  0  0  0
  -23.1173  -34.2846   19.8750 C   0  0  0  0  0  0  0  0  0  0  0  0
  -25.9920  -11.6874   20.8612 N   0  0  0  0  0  0  0  0  0  0  0  0
  -25.9282  -12.7699   20.0674 N   0  0  0  0  0  0  0  0  0  0  0  0
  -23.9770  -32.0896   22.5783 N   0  0  0  0  0  0  0  0  0  0  0  0
  -27.5107  -16.0043   21.3394 N   0  0  0  0  0  0  0  0  0  0  0  0
  -24.6903  -13.7451   18.2990 N   0  0  0  0  0  0  0  0  0  0  0  0
  -22.5467   -9.8401   19.0417 N   0  0  0  0  0  0  0  0  0  0  0  0
  -26.0913  -17.7142   20.5498 N   0  0  0  0  0  0  0  0  0  0  0  0
  -26.7539  -23.5668   19.1239 N   0  0  0  0  0  0  0  0  0  0  0  0
  -22.1658  -28.9457   22.9411 N   0  0  0  0  0  0  0  0  0  0  0  0
  -29.3102  -26.6684   20.4786 N   0  0  0  0  0  0  0  0  0  0  0  0
  -24.0752  -35.4103   21.9290 N   0  0  0  0  0  0  0  0  0  0  0  0
  -26.3515  -37.3357   23.9733 N   0  3  0  0  0  0  0  0  0  0  0  0
  -27.9097  -22.4870   20.8192 O   0  0  0  0  0  0  0  0  0  0  0  0
  -22.5710  -11.7343   17.7494 O   0  0  0  0  0  0  0  0  0  0  0  0
  -23.1474  -30.1149   21.1827 O   0  0  0  0  0  0  0  0  0  0  0  0
  -22.0849  -33.4521   22.5716 O   0  0  0  0  0  0  0  0  0  0  0  0
  -27.6235  -28.1603   19.9222 O   0  0  0  0  0  0  0  0  0  0  0  0
  -26.3928  -35.3523   21.9781 O   0  0  0  0  0  0  0  0  0  0  0  0
  -28.2741  -18.1806   21.1819 O   0  0  0  0  0  0  0  0  0  0  0  0
  -23.9005   -6.0140   22.8579 O   0  0  0  0  0  0  0  0  0  0  0  0
  -23.4771  -18.1351   19.5842 O   0  0  0  0  0  0  0  0  0  0  0  0
  -29.4992  -29.3482   22.7866 O   0  0  0  0  0  0  0  0  0  1  0  0
  -18.6626   -4.8751   24.1507 F   0  0  0  0  0  0  0  0  0  0  0  0
  -23.1618   -5.5148   25.4748 F   0  0  0  0  0  0  0  0  0  0  0  0
  1  2  1  0  0  0  0
  1  6  2  0  0  0  0
  2  7  2  0  0  0  0
  3  9  2  0  0  0  0
  3 18  1  0  0  0  0
  4 10  1  0  0  0  0
  4 18  2  0  0  0  0
  5 11  2  0  0  0  0
  5 19  1  0  0  0  0
  6 21  1  0  0  0  0
  7 23  1  0  0  0  0
  8 12  2  0  0  0  0
  8 22  1  0  0  0  0
  9 26  1  0  0  0  0
 10 26  2  0  0  0  0
 11 28  1  0  0  0  0
 12 27  1  0  0  0  0
 13 14  2  0  0  0  0
 13 29  1  0  0  0  0
 14 30  1  0  0  0  0
 15 19  2  0  0  0  0
 15 25  1  0  0  0  0
 16 24  1  0  0  0  0
 16 27  2  0  0  0  0
 17 30  2  0  0  0  0
 17 31  1  0  0  0  0
 18 32  1  0  0  0  0
 19 34  1  0  0  0  0
 20 32  1  0  0  0  0
 20 33  2  0  0  0  0
 20 35  1  0  0  0  0
 21 23  2  0  0  0  0
 21 41  1  0  0  0  0
 22 24  2  0  0  0  0
 22 42  1  0  0  0  0
 23 50  1  0  0  0  0
 24 43  1  0  0  0  0
 25 28  2  0  0  0  0
 25 75  1  0  0  0  0
 26 88  1  0  0  0  0
 27 90  1  0  0  0  0
 28 89  1  0  0  0  0
 29 31  2  0  0  0  0
 29 88  1  0  0  0  0
 30 91  1  0  0  0  0
 31 92  1  0  0  0  0
 32 69  2  0  0  0  0
 33 70  1  0  0  0  0
 33 73  1  0  0  0  0
 34 76  1  0  0  0  0
 34 81  2  0  0  0  0
 35 74  1  0  0  0  0
 35 82  2  0  0  0  0
 36 51  1  0  0  0  0
 36 77  1  0  0  0  0
 36 83  2  0  0  0  0
 37 64  1  0  0  0  0
 37 71  1  0  0  0  0
 37 84  2  0  0  0  0
 38 65  1  0  0  0  0
 38 78  1  0  0  0  0
 38 85  2  0  0  0  0
 39 66  1  0  0  0  0
 39 79  1  0  0  0  0
 39 86  2  0  0  0  0
 40 72  1  0  0  0  0
 40 75  1  0  0  0  0
 40 87  2  0  0  0  0
 41 44  1  0  0  0  0
 42 51  1  0  0  0  0
 43 71  1  0  0  0  0
 44 46  1  0  0  0  0
 45 47  1  0  0  0  0
 45 48  1  0  0  0  0
 46 50  1  0  0  0  0
 47 52  1  0  0  0  0
 48 72  1  0  0  0  0
 49 52  1  0  0  0  0
 49 72  1  0  0  0  0
 50 77  1  0  0  0  0
 51 71  1  0  0  0  0
 52 70  1  0  0  0  0
 53 65  1  0  0  0  0
 54 66  1  0  0  0  0
 55 67  1  0  0  0  0
 56 68  1  0  0  0  0
 57 68  1  0  0  0  0
 58 68  1  0  0  0  0
 59 80  1  0  0  0  0
 60 89  1  0  0  0  0
 61 62  1  0  0  0  0
 61 63  1  0  0  0  0
 62 78  1  0  0  0  0
 63 90  1  0  0  0  0
 64 68  1  0  0  0  0
 64 79  1  0  0  0  0
 65 67  1  0  0  0  0
 66 80  1  0  0  0  0
 67 76  1  0  0  0  0
 69 70  1  0  0  0  0
M  CHG  1  80   1
M  ISO  4  40 100  63 101  75 100  90 101
M  END
> <Batch ID>
0007

> <Smiles>
CNC(C)C(=O)NC(C(=O)N1Cc2cc([101O:1][101CH2:1]CCNC(=O)C(C)C(C)NC(=O)c3ccc(OC)c([100NH:0][100C:0](=O)N4CCCC(n5nc(-c6ccc(Oc7ccc(F)cc7F)cc6)c(C(N)=O)c5N)C4)c3)ccc2CC1C(=O)NC1CCCc2ccccc21)C(C)(C)C

> <Shape>
0.284

> <Color>
0.102

> <Negative vol penalty>
0.000

$$$$

  -OEChem-04052315333D

 82 90  0     1  0  0  0  0  0999 V2000
  -17.7884  -32.9572   22.0745 C   0  0  0  0  0  0  0  0  0  0  0  0
  -19.0679  -33.0660   21.5393 C   0  0  0  0  0  0  0  0  0  0  0  0
  -23.0494  -13.0811   20.9633 C   0  0  0  0  0  0  0  0  0  0  0  0
  -23.3095  -14.7257   22.7139 C   0  0  0  0  0  0  0  0  0  0  0  0
  -17.5254  -32.0090   23.0622 C   0  0  0  0  0  0  0  0  0  0  0  0
  -20.0855  -32.2273   21.9923 C   0  0  0  0  0  0  0  0  0  0  0  0
  -25.9928  -28.8798   19.7086 C   0  0  0  0  0  0  0  0  0  0  0  0
  -30.7187  -21.5213   19.2402 C   0  0  0  0  0  0  0  0  0  0  0  0
  -22.3650  -12.2476   21.8479 C   0  0  0  0  0  0  0  0  0  0  0  0
  -22.6251  -13.8922   23.5986 C   0  0  0  0  0  0  0  0  0  0  0  0
  -27.3401  -28.7304   20.0343 C   0  0  0  0  0  0  0  0  0  0  0  0
  -31.0304  -22.8750   19.3659 C   0  0  0  0  0  0  0  0  0  0  0  0
  -19.2524  -12.0144   23.1479 C   0  0  0  0  0  0  0  0  0  0  0  0
  -18.0840  -11.4044   22.6914 C   0  0  0  0  0  0  0  0  0  0  0  0
  -26.7506  -27.0760   21.6880 C   0  0  0  0  0  0  0  0  0  0  0  0
  -28.3985  -22.0891   18.8780 C   0  0  0  0  0  0  0  0  0  0  0  0
  -19.0627   -9.2317   23.0901 C   0  0  0  0  0  0  0  0  0  0  0  0
  -23.5217  -14.3201   21.3963 C   0  0  0  0  0  0  0  0  0  0  0  0
  -23.6765  -16.1650   19.6413 C   0  0  0  0  0  0  0  0  0  0  0  0
  -18.5381  -31.1516   23.5207 C   0  0  0  0  0  0  0  0  0  0  0  0
  -25.0116  -28.1352   20.3788 C   0  0  0  0  0  0  0  0  0  0  0  0
  -19.8362  -31.2675   22.9881 C   0  0  0  0  0  0  0  0  0  0  0  0
  -25.3917  -27.2160   21.3671 C   0  0  0  0  0  0  0  0  0  0  0  0
  -29.4028  -21.1283   18.9962 C   0  0  0  0  0  0  0  0  0  0  0  0
  -22.1529  -12.6532   23.1656 C   0  0  0  0  0  0  0  0  0  0  0  0
  -27.7190  -27.8305   21.0261 C   0  0  0  0  0  0  0  0  0  0  0  0
  -20.3259  -11.2331   23.5754 C   0  0  0  0  0  0  0  0  0  0  0  0
  -30.0261  -23.8358   19.2478 C   0  0  0  0  0  0  0  0  0  0  0  0
  -17.9891  -10.0130   22.6625 C   0  0  0  0  0  0  0  0  0  0  0  0
  -28.7101  -23.4429   19.0038 C   0  0  0  0  0  0  0  0  0  0  0  0
  -20.2311   -9.8418   23.5465 C   0  0  0  0  0  0  0  0  0  0  0  0
  -24.2292  -15.1813   20.4831 C   0  0  0  0  0  0  0  0  0  0  0  0
  -24.7565  -16.6982   18.9811 C   0  0  0  0  0  0  0  0  0  0  0  0
  -22.3091  -16.5615   19.4714 C   0  0  0  0  0  0  0  0  0  0  0  0
  -22.5237  -28.8496   22.2236 C   0  0  0  0  0  0  0  0  0  0  0  0
  -21.9611  -25.6608   22.0310 C   0  0  0  0  0  0  0  0  0  0  0  0
  -23.2027  -22.5268   21.4987 C   0  0  0  0  0  0  0  0  0  0  0  0
  -29.9627  -18.6724   18.9586 C   0  0  0  0  0  0  0  0  0  0  0  0
  -18.2175  -30.1742   24.6236 C   0  0  0  0  0  0  0  0  0  0  0  0
  -23.5648  -28.2885   19.9972 C   0  0  0  0  0  0  0  0  0  0  0  0
  -24.3790  -26.3779   22.1023 C   0  0  0  0  0  0  0  0  0  0  0  0
  -19.2605  -29.0708   24.7819 C   0  0  0  0  0  0  0  0  0  0  0  0
  -29.5667  -15.1408   18.7393 C   0  0  0  0  0  0  0  0  0  0  0  0
  -20.6673  -29.6603   24.7690 C   0  0  0  0  0  0  0  0  0  0  0  0
  -28.0973  -14.9174   19.1042 C   0  0  0  0  0  0  0  0  0  0  0  0
  -30.1886  -16.2712   19.5572 C   0  0  0  0  0  0  0  0  0  0  0  0
  -27.9828  -17.3179   19.8864 C   0  0  0  0  0  0  0  0  0  0  0  0
  -20.9606  -30.3590   23.4358 C   0  0  1  0  0  0  0  0  0  0  0  0
  -22.6063  -27.8538   21.1015 C   0  0  1  0  0  0  0  0  0  0  0  0
  -27.2952  -16.2321   19.0426 C   0  0  2  0  0  0  0  0  0  0  0  0
  -22.5085  -20.1158   21.4447 C   0  0  0  0  0  0  0  0  0  0  0  0
  -21.8853  -25.6167   25.0810 C   0  0  0  0  0  0  0  0  0  0  0  0
  -22.1454  -23.1286   24.9821 C   0  0  0  0  0  0  0  0  0  0  0  0
  -20.1375  -24.2120   23.9736 C   0  0  0  0  0  0  0  0  0  0  0  0
  -23.9756  -22.2477   18.6556 C   0  0  0  0  0  0  0  0  0  0  0  0
  -31.2263  -27.0652   20.5521 C   0  0  0  0  0  0  0  0  0  0  0  0
  -29.9844  -27.9077   20.3065 C   0  0  0  0  0  0  0  0  0  1  0  0
  -30.9048  -25.5799   20.6049 C   0  0  0  0  0  0  0  0  0  0  0  0
  -22.3801  -24.4510   22.8310 C   0  0  1  0  0  0  0  0  0  0  0  0
  -22.7121  -21.3832   20.6292 C   0  0  2  0  0  0  0  0  0  0  0  0
  -21.6562  -24.3691   24.2046 C   0  0  0  0  0  0  0  0  0  0  0  0
  -25.5571  -15.0925   20.3698 N   0  0  0  0  0  0  0  0  0  0  0  0
  -25.8478  -16.0273   19.4491 N   0  0  0  0  0  0  0  0  0  0  0  0
  -22.9764  -26.5685   21.6976 N   0  0  0  0  0  0  0  0  0  0  0  0
  -29.3772  -17.4856   19.4479 N   0  0  0  0  0  0  0  0  0  0  0  0
  -24.8695  -17.6707   18.0517 N   0  0  0  0  0  0  0  0  0  0  0  0
  -21.3257  -15.9102   20.2283 N   0  0  0  0  0  0  0  0  0  0  0  0
  -29.0861  -19.7531   18.8684 N   0  0  0  0  0  0  0  0  0  0  0  0
  -21.2630  -29.3839   22.4100 N   0  0  0  0  0  0  0  0  0  0  0  0
  -22.1587  -23.2950   21.9691 N   0  0  0  0  0  0  0  0  0  0  0  0
  -23.6976  -21.0940   19.5493 N   0  3  0  0  0  0  0  0  0  0  0  0
  -21.9678  -17.4552   18.6600 O   0  0  0  0  0  0  0  0  0  0  0  0
  -23.5289  -29.1126   22.8733 O   0  0  0  0  0  0  0  0  0  0  0  0
  -20.7780  -25.7917   21.7075 O   0  0  0  0  0  0  0  0  0  0  0  0
  -24.3927  -22.7171   21.7399 O   0  0  0  0  0  0  0  0  0  0  0  0
  -31.1473  -18.7188   18.6172 O   0  0  0  0  0  0  0  0  0  0  0  0
  -21.4849  -11.8402   24.0290 O   0  0  0  0  0  0  0  0  0  0  0  0
  -29.0334  -27.6831   21.3464 O   0  0  0  0  0  0  0  0  0  1  0  0
  -30.3344  -25.1657   19.3709 O   0  0  0  0  0  0  0  0  0  0  0  0
  -16.8665   -9.4274   22.2256 F   0  0  0  0  0  0  0  0  0  0  0  0
  -27.7413  -24.3614   18.8881 F   0  0  0  0  0  0  0  0  0  0  0  0
  -21.2587   -9.0859   23.9571 F   0  0  0  0  0  0  0  0  0  0  0  0
  1  2  1  0  0  0  0
  1  5  2  0  0  0  0
  2  6  2  0  0  0  0
  3  9  2  0  0  0  0
  3 18  1  0  0  0  0
  4 10  1  0  0  0  0
  4 18  2  0  0  0  0
  5 20  1  0  0  0  0
  6 22  1  0  0  0  0
  7 11  2  0  0  0  0
  7 21  1  0  0  0  0
  8 12  2  0  0  0  0
  8 24  1  0  0  0  0
  9 25  1  0  0  0  0
 10 25  2  0  0  0  0
 11 26  1  0  0  0  0
 12 28  1  0  0  0  0
 13 14  2  0  0  0  0
 13 27  1  0  0  0  0
 14 29  1  0  0  0  0
 15 23  1  0  0  0  0
 15 26  2  0  0  0  0
 16 24  2  0  0  0  0
 16 30  1  0  0  0  0
 17 29  2  0  0  0  0
 17 31  1  0  0  0  0
 18 32  1  0  0  0  0
 19 32  1  0  0  0  0
 19 33  2  0  0  0  0
 19 34  1  0  0  0  0
 20 22  2  0  0  0  0
 20 39  1  0  0  0  0
 21 23  2  0  0  0  0
 21 40  1  0  0  0  0
 22 48  1  0  0  0  0
 23 41  1  0  0  0  0
 24 68  1  0  0  0  0
 25 77  1  0  0  0  0
 26 78  1  0  0  0  0
 27 31  2  0  0  0  0
 27 77  1  0  0  0  0
 28 30  2  0  0  0  0
 28 79  1  0  0  0  0
 29 80  1  0  0  0  0
 30 81  1  0  0  0  0
 31 82  1  0  0  0  0
 32 62  2  0  0  0  0
 33 63  1  0  0  0  0
 33 66  1  0  0  0  0
 34 67  1  0  0  0  0
 34 72  2  0  0  0  0
 35 49  1  0  0  0  0
 35 69  1  0  0  0  0
 35 73  2  0  0  0  0
 36 59  1  0  0  0  0
 36 64  1  0  0  0  0
 36 74  2  0  0  0  0
 37 60  1  0  0  0  0
 37 70  1  0  0  0  0
 37 75  2  0  0  0  0
 38 65  1  0  0  0  0
 38 68  1  0  0  0  0
 38 76  2  0  0  0  0
 39 42  1  0  0  0  0
 40 49  1  0  0  0  0
 41 64  1  0  0  0  0
 42 44  1  0  0  0  0
 43 45  1  0  0  0  0
 43 46  1  0  0  0  0
 44 48  1  0  0  0  0
 45 50  1  0  0  0  0
 46 65  1  0  0  0  0
 47 50  1  0  0  0  0
 47 65  1  0  0  0  0
 48 69  1  0  0  0  0
 49 64  1  0  0  0  0
 50 63  1  0  0  0  0
 51 60  1  0  0  0  0
 52 61  1  0  0  0  0
 53 61  1  0  0  0  0
 54 61  1  0  0  0  0
 55 71  1  0  0  0  0
 56 57  1  0  0  0  0
 56 58  1  0  0  0  0
 57 78  1  0  0  0  0
 58 79  1  0  0  0  0
 59 61  1  0  0  0  0
 59 70  1  0  0  0  0
 60 71  1  0  0  0  0
 62 63  1  0  0  0  0
M  CHG  1  71   1
M  ISO  4  38 100  57 101  68 100  78 101
M  END
> <Batch ID>
0007

> <Smiles>
CNC(C)C(=O)NC(C(=O)N1Cc2cc([101O:1][101CH2:1]CCOc3ccc([100NH:0][100C:0](=O)N4CCCC(n5nc(-c6ccc(Oc7ccc(F)cc7F)cc6)c(C(N)=O)c5N)C4)cc3F)ccc2CC1C(=O)NC1CCCc2ccccc21)C(C)(C)C

> <Shape>
0.201

> <Color>
0.083

> <Negative vol penalty>
0.000

$$$$

  -OEChem-04052315333D

 85 93  0     1  0  0  0  0  0999 V2000
  -29.8255  -25.3510   17.1381 C   0  0  0  0  0  0  0  0  0  0  0  0
  -28.4412  -25.4532   17.2304 C   0  0  0  0  0  0  0  0  0  0  0  0
  -26.8592  -13.8350   21.6376 C   0  0  0  0  0  0  0  0  0  0  0  0
  -25.9175  -15.1292   19.8279 C   0  0  0  0  0  0  0  0  0  0  0  0
  -21.9441  -24.3050   22.5709 C   0  0  0  0  0  0  0  0  0  0  0  0
  -30.6246  -25.7276   18.2168 C   0  0  0  0  0  0  0  0  0  0  0  0
  -27.8550  -25.9312   18.4019 C   0  0  0  0  0  0  0  0  0  0  0  0
  -22.7772  -29.3242   18.8589 C   0  0  0  0  0  0  0  0  0  0  0  0
  -22.9673  -23.5160   23.0962 C   0  0  0  0  0  0  0  0  0  0  0  0
  -26.1898  -12.7019   21.1757 C   0  0  0  0  0  0  0  0  0  0  0  0
  -25.2481  -13.9961   19.3658 C   0  0  0  0  0  0  0  0  0  0  0  0
  -21.4531  -28.9968   19.1477 C   0  0  0  0  0  0  0  0  0  0  0  0
  -23.0590  -11.4344   21.3022 C   0  0  0  0  0  0  0  0  0  0  0  0
  -22.4013  -10.6424   22.2433 C   0  0  0  0  0  0  0  0  0  0  0  0
  -22.5992  -23.6661   20.3349 C   0  0  0  0  0  0  0  0  0  0  0  0
  -21.8235  -29.5663   21.4624 C   0  0  0  0  0  0  0  0  0  0  0  0
  -23.7828   -8.7596   21.6242 C   0  0  0  0  0  0  0  0  0  0  0  0
  -26.7230  -15.0487   20.9638 C   0  0  0  0  0  0  0  0  0  0  0  0
  -21.7600  -24.3801   21.1902 C   0  0  0  0  0  0  0  0  0  0  0  0
  -28.7037  -16.6523   21.0788 C   0  0  0  0  0  0  0  0  0  0  0  0
  -30.0484  -26.2195   19.3986 C   0  0  0  0  0  0  0  0  0  0  0  0
  -23.6389  -29.7655   19.8734 C   0  0  0  0  0  0  0  0  0  0  0  0
  -28.6471  -26.3135   19.4979 C   0  0  0  0  0  0  0  0  0  0  0  0
  -23.1574  -29.9011   21.1833 C   0  0  0  0  0  0  0  0  0  0  0  0
  -23.8066  -22.8021   22.2409 C   0  0  0  0  0  0  0  0  0  0  0  0
  -25.3842  -12.7824   20.0398 C   0  0  0  0  0  0  0  0  0  0  0  0
  -20.9769  -29.1150   20.4501 C   0  0  0  0  0  0  0  0  0  0  0  0
  -24.0785  -10.8890   20.5220 C   0  0  0  0  0  0  0  0  0  0  0  0
  -23.6226  -22.8771   20.8602 C   0  0  0  0  0  0  0  0  0  0  0  0
  -22.7632   -9.3050   22.4044 C   0  0  0  0  0  0  0  0  0  0  0  0
  -24.4405   -9.5516   20.6830 C   0  0  0  0  0  0  0  0  0  0  0  0
  -27.4139  -16.2197   21.4408 C   0  0  0  0  0  0  0  0  0  0  0  0
  -28.8950  -17.8043   21.8019 C   0  0  0  0  0  0  0  0  0  0  0  0
  -20.6699  -25.2201   20.6307 C   0  0  0  0  0  0  0  0  0  0  0  0
  -29.6446  -16.0654   20.1701 C   0  0  0  0  0  0  0  0  0  0  0  0
  -26.3427  -28.6843   21.1477 C   0  0  0  0  0  0  0  0  0  0  0  0
  -26.2561  -31.5016   22.7533 C   0  0  0  0  0  0  0  0  0  0  0  0
  -24.3915  -34.0939   23.9573 C   0  0  0  0  0  0  0  0  0  0  0  0
  -25.1456  -21.8273   24.1391 C   0  0  0  0  0  0  0  0  0  0  0  0
  -30.9509  -26.5697   20.5551 C   0  0  0  0  0  0  0  0  0  0  0  0
  -25.0570  -30.1402   19.5405 C   0  0  0  0  0  0  0  0  0  0  0  0
  -24.0363  -30.3897   22.3046 C   0  0  0  0  0  0  0  0  0  0  0  0
  -30.2687  -27.4191   21.6245 C   0  0  0  0  0  0  0  0  0  0  0  0
  -27.5848  -19.9179   25.8946 C   0  0  0  0  0  0  0  0  0  0  0  0
  -28.8977  -26.8453   21.9677 C   0  0  0  0  0  0  0  0  0  0  0  0
  -27.9396  -18.7957   24.9163 C   0  0  0  0  0  0  0  0  0  0  0  0
  -26.1016  -20.2781   25.8306 C   0  0  0  0  0  0  0  0  0  0  0  0
  -25.9504  -19.4669   23.5093 C   0  0  0  0  0  0  0  0  0  0  0  0
  -27.9751  -26.8506   20.7428 C   0  0  1  0  0  0  0  0  0  0  0  0
  -25.9879  -30.0886   20.7480 C   0  0  1  0  0  0  0  0  0  0  0  0
  -27.4466  -19.1137   23.4911 C   0  0  2  0  0  0  0  0  0  0  0  0
  -24.5956  -36.2286   25.2608 C   0  0  0  0  0  0  0  0  0  0  0  0
  -26.5376  -29.8966   25.3329 C   0  0  0  0  0  0  0  0  0  0  0  0
  -25.7900  -31.9256   26.5948 C   0  0  0  0  0  0  0  0  0  0  0  0
  -27.8944  -31.9961   25.2572 C   0  0  0  0  0  0  0  0  0  0  0  0
  -23.3797  -35.7091   21.6932 C   0  0  0  0  0  0  0  0  0  0  0  0
  -25.6070  -22.8504   19.5498 C   0  0  0  0  0  0  0  0  0  0  0  0
  -18.2067  -27.3708   21.9773 C   0  0  0  0  0  0  0  0  0  0  0  0
  -18.4219  -26.1855   21.0440 C   0  0  0  0  0  0  0  0  0  0  0  0
  -19.4121  -28.3011   22.0453 C   0  0  0  0  0  0  0  0  0  1  0  0
  -25.6665  -31.9684   24.0622 C   0  0  1  0  0  0  0  0  0  0  0  0
  -24.5863  -35.5973   23.8773 C   0  0  2  0  0  0  0  0  0  0  0  0
  -26.4559  -31.4356   25.2913 C   0  0  0  0  0  0  0  0  0  0  0  0
  -26.8273  -17.0307   22.3253 N   0  0  0  0  0  0  0  0  0  0  0  0
  -27.7529  -17.9845   22.5252 N   0  0  0  0  0  0  0  0  0  0  0  0
  -25.4169  -30.7376   21.9300 N   0  0  0  0  0  0  0  0  0  0  0  0
  -25.7073  -20.5711   24.4509 N   0  0  0  0  0  0  0  0  0  0  0  0
  -29.9273  -18.6705   21.8833 N   0  0  0  0  0  0  0  0  0  0  0  0
  -29.2872  -14.8815   19.5104 N   0  0  0  0  0  0  0  0  0  0  0  0
  -24.8403  -22.0035   22.7899 N   0  0  0  0  0  0  0  0  0  0  0  0
  -19.5707  -25.4146   21.4541 N   0  0  0  0  0  0  0  0  0  0  0  0
  -27.4580  -28.1813   20.5054 N   0  0  0  0  0  0  0  0  0  0  0  0
  -25.5961  -33.4235   23.9823 N   0  0  0  0  0  0  0  0  0  0  0  0
  -23.4894  -36.2202   23.0838 N   0  3  0  0  0  0  0  0  0  0  0  0
  -20.7827  -25.6703   19.4936 O   0  0  0  0  0  0  0  0  0  0  0  0
  -30.7755  -16.5667   19.9620 O   0  0  0  0  0  0  0  0  0  0  0  0
  -25.6564  -28.1009   21.9785 O   0  0  0  0  0  0  0  0  0  0  0  0
  -27.4161  -31.8097   22.4684 O   0  0  0  0  0  0  0  0  0  0  0  0
  -23.2818  -33.5673   23.9977 O   0  0  0  0  0  0  0  0  0  0  0  0
  -24.9752  -22.6938   25.0005 O   0  0  0  0  0  0  0  0  0  0  0  0
  -24.7310  -11.6768   19.5886 O   0  0  0  0  0  0  0  0  0  0  0  0
  -24.4306  -22.1867   20.0069 O   0  0  0  0  0  0  0  0  0  0  0  0
  -19.6851  -28.7955   20.7349 O   0  0  0  0  0  0  0  0  0  1  0  0
  -22.1326   -8.5450   23.3093 F   0  0  0  0  0  0  0  0  0  0  0  0
  -25.4200   -9.0223   19.9372 F   0  0  0  0  0  0  0  0  0  0  0  0
  1  2  1  0  0  0  0
  1  6  2  0  0  0  0
  2  7  2  0  0  0  0
  3 10  2  0  0  0  0
  3 18  1  0  0  0  0
  4 11  1  0  0  0  0
  4 18  2  0  0  0  0
  5  9  2  0  0  0  0
  5 19  1  0  0  0  0
  6 21  1  0  0  0  0
  7 23  1  0  0  0  0
  8 12  2  0  0  0  0
  8 22  1  0  0  0  0
  9 25  1  0  0  0  0
 10 26  1  0  0  0  0
 11 26  2  0  0  0  0
 12 27  1  0  0  0  0
 13 14  2  0  0  0  0
 13 28  1  0  0  0  0
 14 30  1  0  0  0  0
 15 19  2  0  0  0  0
 15 29  1  0  0  0  0
 16 24  1  0  0  0  0
 16 27  2  0  0  0  0
 17 30  2  0  0  0  0
 17 31  1  0  0  0  0
 18 32  1  0  0  0  0
 19 34  1  0  0  0  0
 20 32  1  0  0  0  0
 20 33  2  0  0  0  0
 20 35  1  0  0  0  0
 21 23  2  0  0  0  0
 21 40  1  0  0  0  0
 22 24  2  0  0  0  0
 22 41  1  0  0  0  0
 23 49  1  0  0  0  0
 24 42  1  0  0  0  0
 25 29  2  0  0  0  0
 25 70  1  0  0  0  0
 26 81  1  0  0  0  0
 27 83  1  0  0  0  0
 28 31  2  0  0  0  0
 28 81  1  0  0  0  0
 29 82  1  0  0  0  0
 30 84  1  0  0  0  0
 31 85  1  0  0  0  0
 32 64  2  0  0  0  0
 33 65  1  0  0  0  0
 33 68  1  0  0  0  0
 34 71  1  0  0  0  0
 34 75  2  0  0  0  0
 35 69  1  0  0  0  0
 35 76  2  0  0  0  0
 36 50  1  0  0  0  0
 36 72  1  0  0  0  0
 36 77  2  0  0  0  0
 37 61  1  0  0  0  0
 37 66  1  0  0  0  0
 37 78  2  0  0  0  0
 38 62  1  0  0  0  0
 38 73  1  0  0  0  0
 38 79  2  0  0  0  0
 39 67  1  0  0  0  0
 39 70  1  0  0  0  0
 39 80  2  0  0  0  0
 40 43  1  0  0  0  0
 41 50  1  0  0  0  0
 42 66  1  0  0  0  0
 43 45  1  0  0  0  0
 44 46  1  0  0  0  0
 44 47  1  0  0  0  0
 45 49  1  0  0  0  0
 46 51  1  0  0  0  0
 47 67  1  0  0  0  0
 48 51  1  0  0  0  0
 48 67  1  0  0  0  0
 49 72  1  0  0  0  0
 50 66  1  0  0  0  0
 51 65  1  0  0  0  0
 52 62  1  0  0  0  0
 53 63  1  0  0  0  0
 54 63  1  0  0  0  0
 55 63  1  0  0  0  0
 56 74  1  0  0  0  0
 57 82  1  0  0  0  0
 58 59  1  0  0  0  0
 58 60  1  0  0  0  0
 59 71  1  0  0  0  0
 60 83  1  0  0  0  0
 61 63  1  0  0  0  0
 61 73  1  0  0  0  0
 62 74  1  0  0  0  0
 64 65  1  0  0  0  0
M  CHG  1  74   1
M  ISO  4  39 100  60 101  70 100  83 101
M  END
> <Batch ID>
0007

> <Smiles>
CNC(C)C(=O)NC(C(=O)N1Cc2cc([101O:1][101CH2:1]CCNC(=O)c3ccc([100NH:0][100C:0](=O)N4CCCC(n5nc(-c6ccc(Oc7ccc(F)cc7F)cc6)c(C(N)=O)c5N)C4)c(OC)c3)ccc2CC1C(=O)NC1CCCc2ccccc21)C(C)(C)C

> <Shape>
0.306

> <Color>
0.068

> <Negative vol penalty>
0.000

$$$$

  -OEChem-04052315333D

 83 91  0     1  0  0  0  0  0999 V2000
  -19.9991  -27.5432   26.6284 C   0  0  0  0  0  0  0  0  0  0  0  0
  -21.1400  -27.1498   25.9364 C   0  0  0  0  0  0  0  0  0  0  0  0
  -24.3831   -8.3453   20.4846 C   0  0  0  0  0  0  0  0  0  0  0  0
  -23.1144  -10.3264   21.0347 C   0  0  0  0  0  0  0  0  0  0  0  0
  -18.9792  -28.2204   25.9611 C   0  0  0  0  0  0  0  0  0  0  0  0
  -21.2613  -27.4324   24.5763 C   0  0  0  0  0  0  0  0  0  0  0  0
  -25.8396  -29.2264   23.3656 C   0  0  0  0  0  0  0  0  0  0  0  0
  -30.0893  -18.3453   20.9498 C   0  0  0  0  0  0  0  0  0  0  0  0
  -23.3285   -7.5469   20.9275 C   0  0  0  0  0  0  0  0  0  0  0  0
  -22.0598   -9.5281   21.4776 C   0  0  0  0  0  0  0  0  0  0  0  0
  -26.8778  -28.3020   23.2588 C   0  0  0  0  0  0  0  0  0  0  0  0
  -30.1140  -19.7126   20.6754 C   0  0  0  0  0  0  0  0  0  0  0  0
  -22.0868   -6.4757   23.8830 C   0  0  0  0  0  0  0  0  0  0  0  0
  -22.3974   -5.3847   24.6947 C   0  0  0  0  0  0  0  0  0  0  0  0
  -26.6420  -28.3237   20.8581 C   0  0  0  0  0  0  0  0  0  0  0  0
  -28.8356  -19.3315   18.6610 C   0  0  0  0  0  0  0  0  0  0  0  0
  -21.4237   -3.8932   23.0625 C   0  0  0  0  0  0  0  0  0  0  0  0
  -24.2760   -9.7350   20.5382 C   0  0  0  0  0  0  0  0  0  0  0  0
  -25.5699  -11.0532   18.7787 C   0  0  0  0  0  0  0  0  0  0  0  0
  -19.0924  -28.5199   24.5943 C   0  0  0  0  0  0  0  0  0  0  0  0
  -25.1864  -29.6989   22.2182 C   0  0  0  0  0  0  0  0  0  0  0  0
  -20.2415  -28.1130   23.8897 C   0  0  0  0  0  0  0  0  0  0  0  0
  -25.5975  -29.2560   20.9529 C   0  0  0  0  0  0  0  0  0  0  0  0
  -28.8110  -17.9641   18.9354 C   0  0  0  0  0  0  0  0  0  0  0  0
  -29.4378  -17.4710   20.0797 C   0  0  0  0  0  0  0  0  0  0  0  0
  -22.1669   -8.1383   21.4240 C   0  0  0  0  0  0  0  0  0  0  0  0
  -27.2773  -27.8484   22.0051 C   0  0  0  0  0  0  0  0  0  0  0  0
  -29.4871  -20.2058   19.5311 C   0  0  0  0  0  0  0  0  0  0  0  0
  -21.4445   -6.2755   22.6611 C   0  0  0  0  0  0  0  0  0  0  0  0
  -22.0659   -4.0935   24.2844 C   0  0  0  0  0  0  0  0  0  0  0  0
  -21.1130   -4.9842   22.2508 C   0  0  0  0  0  0  0  0  0  0  0  0
  -25.3652  -10.5602   20.0814 C   0  0  0  0  0  0  0  0  0  0  0  0
  -26.7345  -11.7763   18.8643 C   0  0  0  0  0  0  0  0  0  0  0  0
  -24.7781  -10.8737   17.5970 C   0  0  0  0  0  0  0  0  0  0  0  0
  -22.2062  -29.5703   21.1204 C   0  0  0  0  0  0  0  0  0  0  0  0
  -23.3832  -31.5306   18.8195 C   0  0  0  0  0  0  0  0  0  0  0  0
  -26.0948  -32.6490   17.0751 C   0  0  0  0  0  0  0  0  0  0  0  0
  -30.0065  -15.4501   21.4722 C   0  0  0  0  0  0  0  0  0  0  0  0
  -17.9431  -29.2122   23.9053 C   0  0  0  0  0  0  0  0  0  0  0  0
  -24.0861  -30.7161   22.3488 C   0  0  0  0  0  0  0  0  0  0  0  0
  -24.9423  -29.7477   19.6891 C   0  0  0  0  0  0  0  0  0  0  0  0
  -18.3138  -29.8035   22.5477 C   0  0  0  0  0  0  0  0  0  0  0  0
  -30.1654  -12.0683   22.5746 C   0  0  0  0  0  0  0  0  0  0  0  0
  -19.1054  -28.7931   21.7235 C   0  0  0  0  0  0  0  0  0  0  0  0
  -28.9476  -11.4150   21.9170 C   0  0  0  0  0  0  0  0  0  0  0  0
  -29.8732  -13.5030   23.0104 C   0  0  0  0  0  0  0  0  0  0  0  0
  -28.1115  -13.7193   21.3019 C   0  0  0  0  0  0  0  0  0  0  0  0
  -20.4208  -28.4231   22.4195 C   0  0  1  0  0  0  0  0  0  0  0  0
  -23.1488  -30.7401   21.1454 C   0  0  1  0  0  0  0  0  0  0  0  0
  -28.3772  -12.2950   20.7875 C   0  0  2  0  0  0  0  0  0  0  0  0
  -28.1057  -17.0513   17.9855 C   0  0  0  0  0  0  0  0  0  0  0  0
  -26.7378  -34.2254   15.2315 C   0  0  0  0  0  0  0  0  0  0  0  0
  -22.2862  -29.5651   16.7595 C   0  0  0  0  0  0  0  0  0  0  0  0
  -23.7461  -30.6567   15.0433 C   0  0  0  0  0  0  0  0  0  0  0  0
  -21.9591  -31.9756   16.1790 C   0  0  0  0  0  0  0  0  0  0  0  0
  -27.8361  -34.2269   18.8743 C   0  0  0  0  0  0  0  0  0  0  0  0
  -28.8899  -24.7219   21.1731 C   0  0  0  0  0  0  0  0  0  0  0  0
  -28.8821  -23.7359   20.0101 C   0  0  0  0  0  0  0  0  0  0  0  0
  -28.2448  -26.0473   20.7902 C   0  0  0  0  0  0  0  0  0  1  0  0
  -29.5649  -22.4264   20.3787 C   0  0  0  0  0  0  0  0  0  0  0  0
  -24.0329  -31.3279   17.4720 C   0  0  1  0  0  0  0  0  0  0  0  0
  -26.5635  -34.0516   16.7322 C   0  0  2  0  0  0  0  0  0  0  0  0
  -23.0173  -30.8704   16.3872 C   0  0  0  0  0  0  0  0  0  0  0  0
  -26.3231  -10.9380   20.9321 N   0  0  0  0  0  0  0  0  0  0  0  0
  -27.1410  -11.6761   20.1624 N   0  0  0  0  0  0  0  0  0  0  0  0
  -23.8670  -30.7371   19.8693 N   0  0  0  0  0  0  0  0  0  0  0  0
  -29.3399  -14.2780   21.8880 N   0  0  0  0  0  0  0  0  0  0  0  0
  -27.4404  -12.4816   17.9551 N   0  0  0  0  0  0  0  0  0  0  0  0
  -23.6118  -10.1014   17.6852 N   0  0  0  0  0  0  0  0  0  0  0  0
  -29.4257  -16.0852   20.3749 N   0  0  0  0  0  0  0  0  0  0  0  0
  -21.4007  -29.4728   22.2390 N   0  0  0  0  0  0  0  0  0  0  0  0
  -24.7204  -32.5758   17.1585 N   0  0  0  0  0  0  0  0  0  0  0  0
  -27.8681  -34.3379   17.3932 N   0  3  0  0  0  0  0  0  0  0  0  0
  -25.1040  -11.3694   16.4918 O   0  0  0  0  0  0  0  0  0  0  0  0
  -22.2083  -28.8131   20.1569 O   0  0  0  0  0  0  0  0  0  0  0  0
  -22.4846  -32.3673   18.9379 O   0  0  0  0  0  0  0  0  0  0  0  0
  -26.8702  -31.7112   17.2477 O   0  0  0  0  0  0  0  0  0  0  0  0
  -31.0334  -15.8452   22.0300 O   0  0  0  0  0  0  0  0  0  0  0  0
  -21.1375   -7.3596   21.8560 O   0  0  0  0  0  0  0  0  0  0  0  0
  -28.2900  -26.9457   21.8980 O   0  0  0  0  0  0  0  0  0  1  0  0
  -29.5109  -21.5496   19.2618 O   0  0  0  0  0  0  0  0  0  0  0  0
  -22.3656   -3.0457   25.0633 F   0  0  0  0  0  0  0  0  0  0  0  0
  -20.4970   -4.7855   21.0774 F   0  0  0  0  0  0  0  0  0  0  0  0
  1  2  1  0  0  0  0
  1  5  2  0  0  0  0
  2  6  2  0  0  0  0
  3  9  2  0  0  0  0
  3 18  1  0  0  0  0
  4 10  1  0  0  0  0
  4 18  2  0  0  0  0
  5 20  1  0  0  0  0
  6 22  1  0  0  0  0
  7 11  2  0  0  0  0
  7 21  1  0  0  0  0
  8 12  2  0  0  0  0
  8 25  1  0  0  0  0
  9 26  1  0  0  0  0
 10 26  2  0  0  0  0
 11 27  1  0  0  0  0
 12 28  1  0  0  0  0
 13 14  2  0  0  0  0
 13 29  1  0  0  0  0
 14 30  1  0  0  0  0
 15 23  1  0  0  0  0
 15 27  2  0  0  0  0
 16 24  1  0  0  0  0
 16 28  2  0  0  0  0
 17 30  2  0  0  0  0
 17 31  1  0  0  0  0
 18 32  1  0  0  0  0
 19 32  1  0  0  0  0
 19 33  2  0  0  0  0
 19 34  1  0  0  0  0
 20 22  2  0  0  0  0
 20 39  1  0  0  0  0
 21 23  2  0  0  0  0
 21 40  1  0  0  0  0
 22 48  1  0  0  0  0
 23 41  1  0  0  0  0
 24 25  2  0  0  0  0
 24 51  1  0  0  0  0
 25 70  1  0  0  0  0
 26 79  1  0  0  0  0
 27 80  1  0  0  0  0
 28 81  1  0  0  0  0
 29 31  2  0  0  0  0
 29 79  1  0  0  0  0
 30 82  1  0  0  0  0
 31 83  1  0  0  0  0
 32 64  2  0  0  0  0
 33 65  1  0  0  0  0
 33 68  1  0  0  0  0
 34 69  1  0  0  0  0
 34 74  2  0  0  0  0
 35 49  1  0  0  0  0
 35 71  1  0  0  0  0
 35 75  2  0  0  0  0
 36 61  1  0  0  0  0
 36 66  1  0  0  0  0
 36 76  2  0  0  0  0
 37 62  1  0  0  0  0
 37 72  1  0  0  0  0
 37 77  2  0  0  0  0
 38 67  1  0  0  0  0
 38 70  1  0  0  0  0
 38 78  2  0  0  0  0
 39 42  1  0  0  0  0
 40 49  1  0  0  0  0
 41 66  1  0  0  0  0
 42 44  1  0  0  0  0
 43 45  1  0  0  0  0
 43 46  1  0  0  0  0
 44 48  1  0  0  0  0
 45 50  1  0  0  0  0
 46 67  1  0  0  0  0
 47 50  1  0  0  0  0
 47 67  1  0  0  0  0
 48 71  1  0  0  0  0
 49 66  1  0  0  0  0
 50 65  1  0  0  0  0
 52 62  1  0  0  0  0
 53 63  1  0  0  0  0
 54 63  1  0  0  0  0
 55 63  1  0  0  0  0
 56 73  1  0  0  0  0
 57 58  1  0  0  0  0
 57 59  1  0  0  0  0
 58 60  1  0  0  0  0
 59 80  1  0  0  0  0
 60 81  1  0  0  0  0
 61 63  1  0  0  0  0
 61 72  1  0  0  0  0
 62 73  1  0  0  0  0
 64 65  1  0  0  0  0
M  CHG  1  73   1
M  ISO  4  38 100  59 101  70 100  80 101
M  END
> <Batch ID>
0007

> <Smiles>
CNC(C)C(=O)NC(C(=O)N1Cc2cc([101O:1][101CH2:1]CCCOc3ccc([100NH:0][100C:0](=O)N4CCCC(n5nc(-c6ccc(Oc7ccc(F)cc7F)cc6)c(C(N)=O)c5N)C4)c(C)c3)ccc2CC1C(=O)NC1CCCc2ccccc21)C(C)(C)C

> <Shape>
0.288

> <Color>
0.107

> <Negative vol penalty>
0.000

$$$$

  -OEChem-04052315333D

 84 92  0     1  0  0  0  0  0999 V2000
  -21.8475  -12.7390   18.5375 C   0  0  0  0  0  0  0  0  0  0  0  0
  -21.6613  -13.8845   19.3047 C   0  0  0  0  0  0  0  0  0  0  0  0
  -25.5969  -24.5782   18.2394 C   0  0  0  0  0  0  0  0  0  0  0  0
  -26.2447  -26.0256   16.4166 C   0  0  0  0  0  0  0  0  0  0  0  0
  -23.0300  -12.0094   18.6520 C   0  0  0  0  0  0  0  0  0  0  0  0
  -22.6571  -14.3004   20.1877 C   0  0  0  0  0  0  0  0  0  0  0  0
  -23.5189  -19.2843   19.9362 C   0  0  0  0  0  0  0  0  0  0  0  0
  -25.2862  -23.5692   17.3279 C   0  0  0  0  0  0  0  0  0  0  0  0
  -25.9341  -25.0165   15.5050 C   0  0  0  0  0  0  0  0  0  0  0  0
  -22.6085  -20.1212   20.5801 C   0  0  0  0  0  0  0  0  0  0  0  0
  -24.6643  -20.4872   15.5031 C   0  0  0  0  0  0  0  0  0  0  0  0
  -25.1029  -19.1950   15.7918 C   0  0  0  0  0  0  0  0  0  0  0  0
  -24.1257  -20.3273   22.4442 C   0  0  0  0  0  0  0  0  0  0  0  0
  -21.3075  -28.6001   23.2948 C   0  0  0  0  0  0  0  0  0  0  0  0
  -22.8051  -26.9537   24.2346 C   0  0  0  0  0  0  0  0  0  0  0  0
  -20.6926  -26.2637   23.2867 C   0  0  0  0  0  0  0  0  0  0  0  0
  -27.3910  -19.9707   15.7879 C   0  0  0  0  0  0  0  0  0  0  0  0
  -26.0761  -25.8065   17.7838 C   0  0  0  0  0  0  0  0  0  0  0  0
  -27.6375  -27.0797   19.3485 C   0  0  0  0  0  0  0  0  0  0  0  0
  -24.0449  -12.4219   19.5297 C   0  0  0  0  0  0  0  0  0  0  0  0
  -24.7369  -18.9533   20.5472 C   0  0  0  0  0  0  0  0  0  0  0  0
  -23.8538  -13.5749   20.3150 C   0  0  0  0  0  0  0  0  0  0  0  0
  -25.0509  -19.4881   21.8048 C   0  0  0  0  0  0  0  0  0  0  0  0
  -22.5108  -28.2813   23.9240 C   0  0  0  0  0  0  0  0  0  0  0  0
  -20.3984  -27.5913   22.9762 C   0  0  0  0  0  0  0  0  0  0  0  0
  -25.4548  -23.7883   15.9607 C   0  0  0  0  0  0  0  0  0  0  0  0
  -22.9106  -20.6405   21.8356 C   0  0  0  0  0  0  0  0  0  0  0  0
  -25.5891  -21.5212   15.3568 C   0  0  0  0  0  0  0  0  0  0  0  0
  -21.8960  -25.9448   23.9160 C   0  0  0  0  0  0  0  0  0  0  0  0
  -26.4662  -18.9367   15.9342 C   0  0  0  0  0  0  0  0  0  0  0  0
  -26.9524  -21.2630   15.4992 C   0  0  0  0  0  0  0  0  0  0  0  0
  -26.3966  -26.8494   18.7249 C   0  0  0  0  0  0  0  0  0  0  0  0
  -27.4233  -28.1788   20.1439 C   0  0  0  0  0  0  0  0  0  0  0  0
  -28.8734  -26.3643   19.2202 C   0  0  0  0  0  0  0  0  0  0  0  0
  -26.0905  -16.2517   21.5335 C   0  0  0  0  0  0  0  0  0  0  0  0
  -28.6360  -18.1852   22.0851 C   0  0  0  0  0  0  0  0  0  0  0  0
  -29.8040  -21.3317   22.7031 C   0  0  0  0  0  0  0  0  0  0  0  0
  -23.5452  -30.4996   23.4760 C   0  0  0  0  0  0  0  0  0  0  0  0
  -25.2862  -11.5744   19.6538 C   0  0  0  0  0  0  0  0  0  0  0  0
  -25.7197  -18.0707   19.8278 C   0  0  0  0  0  0  0  0  0  0  0  0
  -26.3537  -19.1797   22.4948 C   0  0  0  0  0  0  0  0  0  0  0  0
  -26.4474  -12.2913   20.3379 C   0  0  0  0  0  0  0  0  0  0  0  0
  -24.1118  -31.8372   20.2305 C   0  0  0  0  0  0  0  0  0  0  0  0
  -25.9674  -13.0017   21.5995 C   0  0  0  0  0  0  0  0  0  0  0  0
  -24.8786  -30.6968   19.5620 C   0  0  0  0  0  0  0  0  0  0  0  0
  -22.9884  -31.3213   21.1305 C   0  0  0  0  0  0  0  0  0  0  0  0
  -24.1998  -29.1902   21.4700 C   0  0  0  0  0  0  0  0  0  0  0  0
  -24.9210  -14.0719   21.2658 C   0  0  1  0  0  0  0  0  0  0  0  0
  -26.7081  -17.3872   20.7675 C   0  0  1  0  0  0  0  0  0  0  0  0
  -25.3720  -29.6775   20.6040 C   0  0  1  0  0  0  0  0  0  0  0  0
  -31.4801  -23.1661   23.0537 C   0  0  0  0  0  0  0  0  0  0  0  0
  -28.6775  -17.1072   24.9392 C   0  0  0  0  0  0  0  0  0  0  0  0
  -30.1415  -19.0370   25.5726 C   0  0  0  0  0  0  0  0  0  0  0  0
  -30.9328  -17.3726   23.8914 C   0  0  0  0  0  0  0  0  0  0  0  0
  -24.1421  -29.2626   25.5470 C   0  0  0  0  0  0  0  0  0  0  0  0
  -18.8663  -29.2899   22.0130 C   0  0  0  0  0  0  0  0  0  0  0  0
  -18.2366  -26.8709   21.9923 C   0  0  0  0  0  0  0  0  0  0  0  0
  -29.9521  -21.9086   19.8041 C   0  0  0  0  0  0  0  0  0  0  0  0
  -22.5612  -22.4446   23.3452 C   0  0  0  0  0  0  0  0  0  1  0  0
  -21.6360  -23.6459   23.3655 C   0  0  0  0  0  0  0  0  0  0  0  0
  -29.1172  -19.0121   23.2528 C   0  0  1  0  0  0  0  0  0  0  0  0
  -30.9439  -22.1222   22.0866 C   0  0  2  0  0  0  0  0  0  0  0  0
  -29.6918  -18.1367   24.4021 C   0  0  0  0  0  0  0  0  0  0  0  0
  -25.4632  -27.7311   19.0926 N   0  0  0  0  0  0  0  0  0  0  0  0
  -26.1179  -28.5262   19.9559 N   0  0  0  0  0  0  0  0  0  0  0  0
  -27.2791  -18.3069   21.7536 N   0  0  0  0  0  0  0  0  0  0  0  0
  -23.4987  -30.3225   22.0803 N   0  0  0  0  0  0  0  0  0  0  0  0
  -28.2261  -28.8722   20.9788 N   0  0  0  0  0  0  0  0  0  0  0  0
  -28.9192  -25.2588   18.3598 N   0  0  0  0  0  0  0  0  0  0  0  0
  -25.5611  -15.2562   20.7347 N   0  0  0  0  0  0  0  0  0  0  0  0
  -30.0645  -19.9777   22.7064 N   0  0  0  0  0  0  0  0  0  0  0  0
  -23.4522  -29.3255   24.2540 N   0  0  0  0  0  0  0  0  0  0  0  0
  -19.1815  -27.9135   22.3400 N   0  0  0  0  0  0  0  0  0  0  0  0
  -30.4833  -22.8181   20.8518 N   0  3  0  0  0  0  0  0  0  0  0  0
  -29.9019  -26.6854   19.8624 O   0  0  0  0  0  0  0  0  0  0  0  0
  -26.0952  -16.2762   22.7587 O   0  0  0  0  0  0  0  0  0  0  0  0
  -29.4361  -17.4636   21.4846 O   0  0  0  0  0  0  0  0  0  0  0  0
  -28.7860  -21.8627   23.1417 O   0  0  0  0  0  0  0  0  0  0  0  0
  -23.6853  -31.6171   23.9873 O   0  0  0  0  0  0  0  0  0  0  0  0
  -25.1521  -22.8038   15.0710 O   0  0  0  0  0  0  0  0  0  0  0  0
  -22.0235  -21.4570   22.4666 O   0  0  0  0  0  0  0  0  0  1  0  0
  -22.1850  -24.6408   24.2211 O   0  0  0  0  0  0  0  0  0  0  0  0
  -26.8871  -17.6960   16.2129 F   0  0  0  0  0  0  0  0  0  0  0  0
  -27.8455  -22.2525   15.3609 F   0  0  0  0  0  0  0  0  0  0  0  0
  1  2  1  0  0  0  0
  1  5  2  0  0  0  0
  2  6  2  0  0  0  0
  3  8  2  0  0  0  0
  3 18  1  0  0  0  0
  4  9  1  0  0  0  0
  4 18  2  0  0  0  0
  5 20  1  0  0  0  0
  6 22  1  0  0  0  0
  7 10  2  0  0  0  0
  7 21  1  0  0  0  0
  8 26  1  0  0  0  0
  9 26  2  0  0  0  0
 10 27  1  0  0  0  0
 11 12  2  0  0  0  0
 11 28  1  0  0  0  0
 12 30  1  0  0  0  0
 13 23  1  0  0  0  0
 13 27  2  0  0  0  0
 14 24  2  0  0  0  0
 14 25  1  0  0  0  0
 15 24  1  0  0  0  0
 15 29  2  0  0  0  0
 16 25  2  0  0  0  0
 16 29  1  0  0  0  0
 17 30  2  0  0  0  0
 17 31  1  0  0  0  0
 18 32  1  0  0  0  0
 19 32  1  0  0  0  0
 19 33  2  0  0  0  0
 19 34  1  0  0  0  0
 20 22  2  0  0  0  0
 20 39  1  0  0  0  0
 21 23  2  0  0  0  0
 21 40  1  0  0  0  0
 22 48  1  0  0  0  0
 23 41  1  0  0  0  0
 24 72  1  0  0  0  0
 25 73  1  0  0  0  0
 26 80  1  0  0  0  0
 27 81  1  0  0  0  0
 28 31  2  0  0  0  0
 28 80  1  0  0  0  0
 29 82  1  0  0  0  0
 30 83  1  0  0  0  0
 31 84  1  0  0  0  0
 32 64  2  0  0  0  0
 33 65  1  0  0  0  0
 33 68  1  0  0  0  0
 34 69  1  0  0  0  0
 34 75  2  0  0  0  0
 35 49  1  0  0  0  0
 35 70  1  0  0  0  0
 35 76  2  0  0  0  0
 36 61  1  0  0  0  0
 36 66  1  0  0  0  0
 36 77  2  0  0  0  0
 37 62  1  0  0  0  0
 37 71  1  0  0  0  0
 37 78  2  0  0  0  0
 38 67  1  0  0  0  0
 38 72  1  0  0  0  0
 38 79  2  0  0  0  0
 39 42  1  0  0  0  0
 40 49  1  0  0  0  0
 41 66  1  0  0  0  0
 42 44  1  0  0  0  0
 43 45  1  0  0  0  0
 43 46  1  0  0  0  0
 44 48  1  0  0  0  0
 45 50  1  0  0  0  0
 46 67  1  0  0  0  0
 47 50  1  0  0  0  0
 47 67  1  0  0  0  0
 48 70  1  0  0  0  0
 49 66  1  0  0  0  0
 50 65  1  0  0  0  0
 51 62  1  0  0  0  0
 52 63  1  0  0  0  0
 53 63  1  0  0  0  0
 54 63  1  0  0  0  0
 55 72  1  0  0  0  0
 56 73  1  0  0  0  0
 57 73  1  0  0  0  0
 58 74  1  0  0  0  0
 59 60  1  0  0  0  0
 59 81  1  0  0  0  0
 60 82  1  0  0  0  0
 61 63  1  0  0  0  0
 61 71  1  0  0  0  0
 62 74  1  0  0  0  0
 64 65  1  0  0  0  0
M  CHG  1  74   1
M  ISO  4  38 100  59 101  72 100  81 101
M  END
> <Batch ID>
0007

> <Smiles>
CNC(C)C(=O)NC(C(=O)N1Cc2cc([101O:1][101CH2:1]COc3cc(N(C)C)cc([100N:0](C)[100C:0](=O)N4CCCC(n5nc(-c6ccc(Oc7ccc(F)cc7F)cc6)c(C(N)=O)c5N)C4)c3)ccc2CC1C(=O)NC1CCCc2ccccc21)C(C)(C)C

> <Shape>
0.194

> <Color>
0.073

> <Negative vol penalty>
0.000

$$$$

  -OEChem-04052315333D

 82 90  0     1  0  0  0  0  0999 V2000
  -28.8947  -23.3990   28.9885 C   0  0  0  0  0  0  0  0  0  0  0  0
  -28.9219  -23.5721   27.6084 C   0  0  0  0  0  0  0  0  0  0  0  0
  -26.2584  -12.8780   21.5555 C   0  0  0  0  0  0  0  0  0  0  0  0
  -25.2284  -14.1196   19.7570 C   0  0  0  0  0  0  0  0  0  0  0  0
  -27.6785  -23.4284   29.6697 C   0  0  0  0  0  0  0  0  0  0  0  0
  -27.7328  -23.7737   26.9085 C   0  0  0  0  0  0  0  0  0  0  0  0
  -28.0913  -27.5045   23.5031 C   0  0  0  0  0  0  0  0  0  0  0  0
  -28.3551  -23.9890   17.5063 C   0  0  0  0  0  0  0  0  0  0  0  0
  -27.4016  -22.9802   17.3693 C   0  0  0  0  0  0  0  0  0  0  0  0
  -25.1098  -12.0954   21.6730 C   0  0  0  0  0  0  0  0  0  0  0  0
  -24.0798  -13.3369   19.8744 C   0  0  0  0  0  0  0  0  0  0  0  0
  -28.7391  -27.2118   22.3037 C   0  0  0  0  0  0  0  0  0  0  0  0
  -23.7071   -9.4730   20.0641 C   0  0  0  0  0  0  0  0  0  0  0  0
  -23.8725   -8.0936   20.1883 C   0  0  0  0  0  0  0  0  0  0  0  0
  -26.6003  -26.9317   21.2238 C   0  0  0  0  0  0  0  0  0  0  0  0
  -28.9680  -23.1151   19.6738 C   0  0  0  0  0  0  0  0  0  0  0  0
  -22.7512   -8.1517   22.3276 C   0  0  0  0  0  0  0  0  0  0  0  0
  -26.3177  -13.8902   20.5975 C   0  0  0  0  0  0  0  0  0  0  0  0
  -28.6240  -14.4487   19.6612 C   0  0  0  0  0  0  0  0  0  0  0  0
  -26.4748  -23.6400   28.9791 C   0  0  0  0  0  0  0  0  0  0  0  0
  -26.6908  -27.5023   23.5745 C   0  0  0  0  0  0  0  0  0  0  0  0
  -26.4993  -23.8046   27.5810 C   0  0  0  0  0  0  0  0  0  0  0  0
  -25.9371  -27.2272   22.4246 C   0  0  0  0  0  0  0  0  0  0  0  0
  -29.1384  -24.0564   18.6586 C   0  0  0  0  0  0  0  0  0  0  0  0
  -27.2313  -22.0389   18.3844 C   0  0  0  0  0  0  0  0  0  0  0  0
  -28.0145  -22.1064   19.5367 C   0  0  0  0  0  0  0  0  0  0  0  0
  -24.0205  -12.3248   20.8325 C   0  0  0  0  0  0  0  0  0  0  0  0
  -27.9937  -26.9225   21.1646 C   0  0  0  0  0  0  0  0  0  0  0  0
  -23.0638  -10.1918   21.0718 C   0  0  0  0  0  0  0  0  0  0  0  0
  -23.3945   -7.4329   21.3200 C   0  0  0  0  0  0  0  0  0  0  0  0
  -22.5858   -9.5311   22.2034 C   0  0  0  0  0  0  0  0  0  0  0  0
  -27.5037  -14.6993   20.4760 C   0  0  0  0  0  0  0  0  0  0  0  0
  -29.4687  -15.5040   19.9049 C   0  0  0  0  0  0  0  0  0  0  0  0
  -28.8783  -13.3595   18.7642 C   0  0  0  0  0  0  0  0  0  0  0  0
  -24.5303  -25.8297   25.1987 C   0  0  0  0  0  0  0  0  0  0  0  0
  -22.4609  -27.9348   23.8540 C   0  0  0  0  0  0  0  0  0  0  0  0
  -21.7861  -30.1149   21.3166 C   0  0  0  0  0  0  0  0  0  0  0  0
  -28.5678  -21.1051   21.7812 C   0  0  0  0  0  0  0  0  0  0  0  0
  -25.1803  -23.6166   29.7526 C   0  0  0  0  0  0  0  0  0  0  0  0
  -26.0069  -27.8463   24.8693 C   0  0  0  0  0  0  0  0  0  0  0  0
  -24.4311  -27.2317   22.4436 C   0  0  0  0  0  0  0  0  0  0  0  0
  -24.0013  -24.2091   28.9850 C   0  0  0  0  0  0  0  0  0  0  0  0
  -30.6405  -18.6519   23.3183 C   0  0  0  0  0  0  0  0  0  0  0  0
  -23.9643  -23.6652   27.5603 C   0  0  0  0  0  0  0  0  0  0  0  0
  -30.1774  -17.3378   22.6852 C   0  0  0  0  0  0  0  0  0  0  0  0
  -29.4750  -19.6122   23.5485 C   0  0  0  0  0  0  0  0  0  0  0  0
  -28.1824  -18.5625   21.7328 C   0  0  0  0  0  0  0  0  0  0  0  0
  -25.2329  -24.0504   26.7897 C   0  0  1  0  0  0  0  0  0  0  0  0
  -24.5808  -27.3110   24.9523 C   0  0  1  0  0  0  0  0  0  0  0  0
  -29.3306  -17.5885   21.4220 C   0  0  2  0  0  0  0  0  0  0  0  0
  -19.9980  -31.6577   20.4683 C   0  0  0  0  0  0  0  0  0  0  0  0
  -30.2554  -26.1318   17.5983 C   0  0  0  0  0  0  0  0  0  0  0  0
  -31.5906  -24.5279   18.9483 C   0  0  0  0  0  0  0  0  0  0  0  0
  -20.8764  -25.5344   22.8354 C   0  0  0  0  0  0  0  0  0  0  0  0
  -19.6996  -27.0726   21.2488 C   0  0  0  0  0  0  0  0  0  0  0  0
  -19.4766  -27.4133   23.7099 C   0  0  0  0  0  0  0  0  0  0  0  0
  -23.5486  -32.4799   21.5605 C   0  0  0  0  0  0  0  0  0  0  0  0
  -29.9044  -26.0126   20.0794 C   0  0  0  0  0  0  0  0  0  1  0  0
  -21.6628  -27.9795   22.5733 C   0  0  1  0  0  0  0  0  0  0  0  0
  -21.2487  -31.5346   21.3246 C   0  0  2  0  0  0  0  0  0  0  0  0
  -30.1912  -25.1704   18.8095 C   0  0  0  0  0  0  0  0  0  0  0  0
  -20.4572  -26.9979   22.5916 C   0  0  0  0  0  0  0  0  0  0  0  0
  -27.6229  -15.8254   21.1844 N   0  0  0  0  0  0  0  0  0  0  0  0
  -28.8281  -16.2917   20.8156 N   0  0  0  0  0  0  0  0  0  0  0  0
  -23.8088  -27.5679   23.7348 N   0  0  0  0  0  0  0  0  0  0  0  0
  -28.7209  -19.8052   22.3080 N   0  0  0  0  0  0  0  0  0  0  0  0
  -26.2598  -21.0255   18.2241 N   0  0  0  0  0  0  0  0  0  0  0  0
  -30.6895  -15.8257   19.4268 N   0  0  0  0  0  0  0  0  0  0  0  0
  -27.9042  -12.3604   18.6334 N   0  0  0  0  0  0  0  0  0  0  0  0
  -27.8599  -21.1613   20.5811 N   0  0  0  0  0  0  0  0  0  0  0  0
  -25.1639  -25.4306   26.3601 N   0  0  0  0  0  0  0  0  0  0  0  0
  -21.2931  -29.3763   22.3714 N   0  0  0  0  0  0  0  0  0  0  0  0
  -22.2738  -32.4795   20.7978 N   0  3  0  0  0  0  0  0  0  0  0  0
  -29.9451  -13.2662   18.1109 O   0  0  0  0  0  0  0  0  0  0  0  0
  -23.9576  -25.1028   24.3955 O   0  0  0  0  0  0  0  0  0  0  0  0
  -21.9104  -28.2219   24.9199 O   0  0  0  0  0  0  0  0  0  0  0  0
  -22.5624  -29.7014   20.4582 O   0  0  0  0  0  0  0  0  0  0  0  0
  -29.0539  -22.0926   22.3385 O   0  0  0  0  0  0  0  0  0  0  0  0
  -22.8997  -11.5611   20.9467 O   0  0  0  0  0  0  0  0  0  0  0  0
  -28.6235  -26.6358   19.9928 O   0  0  0  0  0  0  0  0  0  1  0  0
  -23.5521   -6.1080   21.4383 F   0  0  0  0  0  0  0  0  0  0  0  0
  -21.9660  -10.2161   23.1742 F   0  0  0  0  0  0  0  0  0  0  0  0
  1  2  1  0  0  0  0
  1  5  2  0  0  0  0
  2  6  2  0  0  0  0
  3 10  2  0  0  0  0
  3 18  1  0  0  0  0
  4 11  1  0  0  0  0
  4 18  2  0  0  0  0
  5 20  1  0  0  0  0
  6 22  1  0  0  0  0
  7 12  2  0  0  0  0
  7 21  1  0  0  0  0
  8  9  2  0  0  0  0
  8 24  1  0  0  0  0
  9 25  1  0  0  0  0
 10 27  1  0  0  0  0
 11 27  2  0  0  0  0
 12 28  1  0  0  0  0
 13 14  2  0  0  0  0
 13 29  1  0  0  0  0
 14 30  1  0  0  0  0
 15 23  1  0  0  0  0
 15 28  2  0  0  0  0
 16 24  2  0  0  0  0
 16 26  1  0  0  0  0
 17 30  2  0  0  0  0
 17 31  1  0  0  0  0
 18 32  1  0  0  0  0
 19 32  1  0  0  0  0
 19 33  2  0  0  0  0
 19 34  1  0  0  0  0
 20 22  2  0  0  0  0
 20 39  1  0  0  0  0
 21 23  2  0  0  0  0
 21 40  1  0  0  0  0
 22 48  1  0  0  0  0
 23 41  1  0  0  0  0
 24 61  1  0  0  0  0
 25 26  2  0  0  0  0
 25 67  1  0  0  0  0
 26 70  1  0  0  0  0
 27 79  1  0  0  0  0
 28 80  1  0  0  0  0
 29 31  2  0  0  0  0
 29 79  1  0  0  0  0
 30 81  1  0  0  0  0
 31 82  1  0  0  0  0
 32 63  2  0  0  0  0
 33 64  1  0  0  0  0
 33 68  1  0  0  0  0
 34 69  1  0  0  0  0
 34 74  2  0  0  0  0
 35 49  1  0  0  0  0
 35 71  1  0  0  0  0
 35 75  2  0  0  0  0
 36 59  1  0  0  0  0
 36 65  1  0  0  0  0
 36 76  2  0  0  0  0
 37 60  1  0  0  0  0
 37 72  1  0  0  0  0
 37 77  2  0  0  0  0
 38 66  1  0  0  0  0
 38 70  1  0  0  0  0
 38 78  2  0  0  0  0
 39 42  1  0  0  0  0
 40 49  1  0  0  0  0
 41 65  1  0  0  0  0
 42 44  1  0  0  0  0
 43 45  1  0  0  0  0
 43 46  1  0  0  0  0
 44 48  1  0  0  0  0
 45 50  1  0  0  0  0
 46 66  1  0  0  0  0
 47 50  1  0  0  0  0
 47 66  1  0  0  0  0
 48 71  1  0  0  0  0
 49 65  1  0  0  0  0
 50 64  1  0  0  0  0
 51 60  1  0  0  0  0
 52 61  1  0  0  0  0
 53 61  1  0  0  0  0
 54 62  1  0  0  0  0
 55 62  1  0  0  0  0
 56 62  1  0  0  0  0
 57 73  1  0  0  0  0
 58 61  1  0  0  0  0
 58 80  1  0  0  0  0
 59 62  1  0  0  0  0
 59 72  1  0  0  0  0
 60 73  1  0  0  0  0
 63 64  1  0  0  0  0
M  CHG  1  73   1
M  ISO  4  38 100  58 101  70 100  80 101
M  END
> <Batch ID>
0007

> <Smiles>
CNC(C)C(=O)NC(C(=O)N1Cc2cc([101O:1][101CH2:1]C(C)(C)c3ccc(N)c([100NH:0][100C:0](=O)N4CCCC(n5nc(-c6ccc(Oc7ccc(F)cc7F)cc6)c(C(N)=O)c5N)C4)c3)ccc2CC1C(=O)NC1CCCc2ccccc21)C(C)(C)C

> <Shape>
0.249

> <Color>
0.068

> <Negative vol penalty>
0.000

$$$$

  -OEChem-04052315333D

 83 91  0     1  0  0  0  0  0999 V2000
  -28.7310  -36.6132   25.2152 C   0  0  0  0  0  0  0  0  0  0  0  0
  -29.0138  -36.0181   23.9899 C   0  0  0  0  0  0  0  0  0  0  0  0
  -23.7349  -11.1157   23.2766 C   0  0  0  0  0  0  0  0  0  0  0  0
  -22.9245  -13.3697   22.9602 C   0  0  0  0  0  0  0  0  0  0  0  0
  -28.1107  -35.8737   26.2213 C   0  0  0  0  0  0  0  0  0  0  0  0
  -28.6775  -34.6828   23.7705 C   0  0  0  0  0  0  0  0  0  0  0  0
  -26.5496  -30.2442   18.5659 C   0  0  0  0  0  0  0  0  0  0  0  0
  -22.9558  -10.9972   24.4275 C   0  0  0  0  0  0  0  0  0  0  0  0
  -22.1454  -13.2511   24.1110 C   0  0  0  0  0  0  0  0  0  0  0  0
  -26.8895  -29.0227   17.9862 C   0  0  0  0  0  0  0  0  0  0  0  0
  -19.7132  -10.4189   25.1918 C   0  0  0  0  0  0  0  0  0  0  0  0
  -18.9799   -9.2444   25.3600 C   0  0  0  0  0  0  0  0  0  0  0  0
  -25.7491  -27.8659   19.7696 C   0  0  0  0  0  0  0  0  0  0  0  0
  -29.4778  -20.1749   18.0487 C   0  0  0  0  0  0  0  0  0  0  0  0
  -28.6077  -20.7852   20.2184 C   0  0  0  0  0  0  0  0  0  0  0  0
  -20.1676   -8.7974   27.4159 C   0  0  0  0  0  0  0  0  0  0  0  0
  -23.7193  -12.3020   22.5429 C   0  0  0  0  0  0  0  0  0  0  0  0
  -24.1483  -12.1052   20.0360 C   0  0  0  0  0  0  0  0  0  0  0  0
  -27.7578  -34.5314   26.0108 C   0  0  0  0  0  0  0  0  0  0  0  0
  -25.8150  -30.2857   19.7597 C   0  0  0  0  0  0  0  0  0  0  0  0
  -28.0531  -33.9243   24.7752 C   0  0  0  0  0  0  0  0  0  0  0  0
  -25.3990  -29.0893   20.3611 C   0  0  0  0  0  0  0  0  0  0  0  0
  -29.3830  -18.8258   18.3902 C   0  0  0  0  0  0  0  0  0  0  0  0
  -28.5128  -19.4361   20.5598 C   0  0  0  0  0  0  0  0  0  0  0  0
  -28.9005  -18.4564   19.6457 C   0  0  0  0  0  0  0  0  0  0  0  0
  -22.1610  -12.0649   24.8447 C   0  0  0  0  0  0  0  0  0  0  0  0
  -26.4918  -27.8332   18.5896 C   0  0  0  0  0  0  0  0  0  0  0  0
  -20.6738  -10.7827   26.1356 C   0  0  0  0  0  0  0  0  0  0  0  0
  -29.0902  -21.1546   18.9629 C   0  0  0  0  0  0  0  0  0  0  0  0
  -19.2070   -8.4336   26.4721 C   0  0  0  0  0  0  0  0  0  0  0  0
  -20.9009   -9.9719   27.2477 C   0  0  0  0  0  0  0  0  0  0  0  0
  -24.5243  -12.4253   21.3543 C   0  0  0  0  0  0  0  0  0  0  0  0
  -25.2578  -12.3991   19.2816 C   0  0  0  0  0  0  0  0  0  0  0  0
  -22.9071  -11.5886   19.5379 C   0  0  0  0  0  0  0  0  0  0  0  0
  -26.3598  -31.3856   22.6917 C   0  0  0  0  0  0  0  0  0  0  0  0
  -23.2499  -30.5848   23.1491 C   0  0  0  0  0  0  0  0  0  0  0  0
  -20.5808  -28.6774   22.2086 C   0  0  0  0  0  0  0  0  0  0  0  0
  -29.8408  -16.1549   20.0527 C   0  0  0  0  0  0  0  0  0  0  0  0
  -27.1316  -33.7590   27.1447 C   0  0  0  0  0  0  0  0  0  0  0  0
  -25.4334  -31.6119   20.3580 C   0  0  0  0  0  0  0  0  0  0  0  0
  -24.5914  -29.0797   21.6324 C   0  0  0  0  0  0  0  0  0  0  0  0
  -26.4688  -32.4571   26.7019 C   0  0  0  0  0  0  0  0  0  0  0  0
  -30.0321  -12.6317   19.5758 C   0  0  0  0  0  0  0  0  0  0  0  0
  -27.3884  -31.6821   25.7636 C   0  0  0  0  0  0  0  0  0  0  0  0
  -28.6057  -12.1506   19.8518 C   0  0  0  0  0  0  0  0  0  0  0  0
  -30.4309  -13.7825   20.4980 C   0  0  0  0  0  0  0  0  0  0  0  0
  -28.0736  -14.4369   20.7880 C   0  0  0  0  0  0  0  0  0  0  0  0
  -27.6812  -32.4852   24.4905 C   0  0  1  0  0  0  0  0  0  0  0  0
  -25.1237  -31.5276   21.8494 C   0  0  1  0  0  0  0  0  0  0  0  0
  -27.6037  -13.3216   19.8398 C   0  0  2  0  0  0  0  0  0  0  0  0
  -29.8053  -17.7992   17.3895 C   0  0  0  0  0  0  0  0  0  0  0  0
  -27.9933  -19.0719   21.9131 C   0  0  0  0  0  0  0  0  0  0  0  0
  -18.1842  -28.2179   22.7939 C   0  0  0  0  0  0  0  0  0  0  0  0
  -24.1548  -28.9553   25.5649 C   0  0  0  0  0  0  0  0  0  0  0  0
  -21.9377  -27.7929   25.5237 C   0  0  0  0  0  0  0  0  0  0  0  0
  -22.0465  -30.2544   25.9134 C   0  0  0  0  0  0  0  0  0  0  0  0
  -19.6408  -29.5526   19.5422 C   0  0  0  0  0  0  0  0  0  0  0  0
  -28.0009  -24.5534   18.3125 C   0  0  0  0  0  0  0  0  0  0  0  0
  -27.0015  -25.5322   18.9085 C   0  0  0  0  0  0  0  0  0  1  0  0
  -28.2431  -23.3613   19.2250 C   0  0  0  0  0  0  0  0  0  0  0  0
  -22.5213  -29.3431   23.6034 C   0  0  1  0  0  0  0  0  0  0  0  0
  -19.1322  -29.0382   21.9329 C   0  0  2  0  0  0  0  0  0  0  0  0
  -22.6820  -29.0862   25.1284 C   0  0  0  0  0  0  0  0  0  0  0  0
  -25.7750  -12.8870   21.4361 N   0  0  0  0  0  0  0  0  0  0  0  0
  -26.1945  -12.8591   20.1597 N   0  0  0  0  0  0  0  0  0  0  0  0
  -24.2486  -30.4017   22.1822 N   0  0  0  0  0  0  0  0  0  0  0  0
  -29.4378  -14.8568   20.4311 N   0  0  0  0  0  0  0  0  0  0  0  0
  -25.5137  -12.3063   17.9593 N   0  0  0  0  0  0  0  0  0  0  0  0
  -21.8714  -11.3434   20.4497 N   0  0  0  0  0  0  0  0  0  0  0  0
  -28.8044  -17.0859   19.9927 N   0  0  0  0  0  0  0  0  0  0  0  0
  -26.5553  -32.4230   23.5834 N   0  0  0  0  0  0  0  0  0  0  0  0
  -21.1382  -29.4983   23.1660 N   0  0  0  0  0  0  0  0  0  0  0  0
  -18.8002  -28.7907   20.5013 N   0  3  0  0  0  0  0  0  0  0  0  0
  -22.7275  -11.3359   18.3224 O   0  0  0  0  0  0  0  0  0  0  0  0
  -27.0820  -30.4065   22.5446 O   0  0  0  0  0  0  0  0  0  0  0  0
  -22.9393  -31.6778   23.6291 O   0  0  0  0  0  0  0  0  0  0  0  0
  -21.1588  -27.7570   21.6348 O   0  0  0  0  0  0  0  0  0  0  0  0
  -31.0142  -16.4148   19.7740 O   0  0  0  0  0  0  0  0  0  0  0  0
  -21.4005  -11.9494   25.9676 O   0  0  0  0  0  0  0  0  0  0  0  0
  -26.8228  -26.6395   18.0263 O   0  0  0  0  0  0  0  0  0  1  0  0
  -29.1849  -22.4803   18.6279 O   0  0  0  0  0  0  0  0  0  0  0  0
  -18.5016   -7.3066   26.6343 F   0  0  0  0  0  0  0  0  0  0  0  0
  -21.8216  -10.3167   28.1583 F   0  0  0  0  0  0  0  0  0  0  0  0
  1  2  1  0  0  0  0
  1  5  2  0  0  0  0
  2  6  2  0  0  0  0
  3  8  2  0  0  0  0
  3 17  1  0  0  0  0
  4  9  1  0  0  0  0
  4 17  2  0  0  0  0
  5 19  1  0  0  0  0
  6 21  1  0  0  0  0
  7 10  2  0  0  0  0
  7 20  1  0  0  0  0
  8 26  1  0  0  0  0
  9 26  2  0  0  0  0
 10 27  1  0  0  0  0
 11 12  2  0  0  0  0
 11 28  1  0  0  0  0
 12 30  1  0  0  0  0
 13 22  1  0  0  0  0
 13 27  2  0  0  0  0
 14 23  2  0  0  0  0
 14 29  1  0  0  0  0
 15 24  1  0  0  0  0
 15 29  2  0  0  0  0
 16 30  2  0  0  0  0
 16 31  1  0  0  0  0
 17 32  1  0  0  0  0
 18 32  1  0  0  0  0
 18 33  2  0  0  0  0
 18 34  1  0  0  0  0
 19 21  2  0  0  0  0
 19 39  1  0  0  0  0
 20 22  2  0  0  0  0
 20 40  1  0  0  0  0
 21 48  1  0  0  0  0
 22 41  1  0  0  0  0
 23 25  1  0  0  0  0
 23 51  1  0  0  0  0
 24 25  2  0  0  0  0
 24 52  1  0  0  0  0
 25 70  1  0  0  0  0
 26 79  1  0  0  0  0
 27 80  1  0  0  0  0
 28 31  2  0  0  0  0
 28 79  1  0  0  0  0
 29 81  1  0  0  0  0
 30 82  1  0  0  0  0
 31 83  1  0  0  0  0
 32 64  2  0  0  0  0
 33 65  1  0  0  0  0
 33 68  1  0  0  0  0
 34 69  1  0  0  0  0
 34 74  2  0  0  0  0
 35 49  1  0  0  0  0
 35 71  1  0  0  0  0
 35 75  2  0  0  0  0
 36 61  1  0  0  0  0
 36 66  1  0  0  0  0
 36 76  2  0  0  0  0
 37 62  1  0  0  0  0
 37 72  1  0  0  0  0
 37 77  2  0  0  0  0
 38 67  1  0  0  0  0
 38 70  1  0  0  0  0
 38 78  2  0  0  0  0
 39 42  1  0  0  0  0
 40 49  1  0  0  0  0
 41 66  1  0  0  0  0
 42 44  1  0  0  0  0
 43 45  1  0  0  0  0
 43 46  1  0  0  0  0
 44 48  1  0  0  0  0
 45 50  1  0  0  0  0
 46 67  1  0  0  0  0
 47 50  1  0  0  0  0
 47 67  1  0  0  0  0
 48 71  1  0  0  0  0
 49 66  1  0  0  0  0
 50 65  1  0  0  0  0
 53 62  1  0  0  0  0
 54 63  1  0  0  0  0
 55 63  1  0  0  0  0
 56 63  1  0  0  0  0
 57 73  1  0  0  0  0
 58 59  1  0  0  0  0
 58 60  1  0  0  0  0
 59 80  1  0  0  0  0
 60 81  1  0  0  0  0
 61 63  1  0  0  0  0
 61 72  1  0  0  0  0
 62 73  1  0  0  0  0
 64 65  1  0  0  0  0
M  CHG  1  73   1
M  ISO  4  38 100  59 101  70 100  80 101
M  END
> <Batch ID>
0007

> <Smiles>
CNC(C)C(=O)NC(C(=O)N1Cc2cc([101O:1][101CH2:1]CCOc3cc(C)c([100NH:0][100C:0](=O)N4CCCC(n5nc(-c6ccc(Oc7ccc(F)cc7F)cc6)c(C(N)=O)c5N)C4)c(C)c3)ccc2CC1C(=O)NC1CCCc2ccccc21)C(C)(C)C

> <Shape>
0.285

> <Color>
0.088

> <Negative vol penalty>
0.000

$$$$

  -OEChem-04052315333D

 82 90  0     1  0  0  0  0  0999 V2000
  -29.4672  -33.9674   26.0575 C   0  0  0  0  0  0  0  0  0  0  0  0
  -29.6188  -32.8719   25.2135 C   0  0  0  0  0  0  0  0  0  0  0  0
  -24.6252   -9.0147   21.3673 C   0  0  0  0  0  0  0  0  0  0  0  0
  -23.3766  -10.8879   22.2444 C   0  0  0  0  0  0  0  0  0  0  0  0
  -28.2412  -34.2032   26.6783 C   0  0  0  0  0  0  0  0  0  0  0  0
  -28.5449  -32.0108   24.9908 C   0  0  0  0  0  0  0  0  0  0  0  0
  -27.2104  -29.0574   19.7944 C   0  0  0  0  0  0  0  0  0  0  0  0
  -27.8372  -20.4031   20.0854 C   0  0  0  0  0  0  0  0  0  0  0  0
  -28.2619  -19.0861   20.2607 C   0  0  0  0  0  0  0  0  0  0  0  0
  -24.0847   -8.1918   22.3553 C   0  0  0  0  0  0  0  0  0  0  0  0
  -22.8361  -10.0649   23.2324 C   0  0  0  0  0  0  0  0  0  0  0  0
  -27.4532  -27.7523   19.3684 C   0  0  0  0  0  0  0  0  0  0  0  0
  -21.1762   -6.5642   22.9251 C   0  0  0  0  0  0  0  0  0  0  0  0
  -20.7078   -5.3086   22.5382 C   0  0  0  0  0  0  0  0  0  0  0  0
  -25.2408  -27.1127   20.0866 C   0  0  0  0  0  0  0  0  0  0  0  0
  -25.8207  -19.9178   21.3245 C   0  0  0  0  0  0  0  0  0  0  0  0
  -22.2843   -4.2583   24.0377 C   0  0  0  0  0  0  0  0  0  0  0  0
  -24.2712  -10.3628   21.3118 C   0  0  0  0  0  0  0  0  0  0  0  0
  -24.3028  -11.4627   19.0103 C   0  0  0  0  0  0  0  0  0  0  0  0
  -27.1489  -33.3500   26.4555 C   0  0  0  0  0  0  0  0  0  0  0  0
  -25.9829  -29.3980   20.3807 C   0  0  0  0  0  0  0  0  0  0  0  0
  -27.3036  -32.2346   25.6103 C   0  0  0  0  0  0  0  0  0  0  0  0
  -24.9840  -28.4234   20.5169 C   0  0  0  0  0  0  0  0  0  0  0  0
  -26.6166  -20.8190   20.6174 C   0  0  0  0  0  0  0  0  0  0  0  0
  -27.4660  -18.1849   20.9679 C   0  0  0  0  0  0  0  0  0  0  0  0
  -23.1901   -8.7168   23.2878 C   0  0  0  0  0  0  0  0  0  0  0  0
  -26.4694  -26.7790   19.5171 C   0  0  0  0  0  0  0  0  0  0  0  0
  -22.1988   -6.6668   23.8683 C   0  0  0  0  0  0  0  0  0  0  0  0
  -21.2617   -4.1557   23.0945 C   0  0  0  0  0  0  0  0  0  0  0  0
  -26.2454  -18.6007   21.4998 C   0  0  0  0  0  0  0  0  0  0  0  0
  -22.7528   -5.5139   24.4246 C   0  0  0  0  0  0  0  0  0  0  0  0
  -24.8296  -11.2135   20.2918 C   0  0  0  0  0  0  0  0  0  0  0  0
  -25.1979  -12.3304   18.4338 C   0  0  0  0  0  0  0  0  0  0  0  0
  -23.1108  -10.9552   18.3960 C   0  0  0  0  0  0  0  0  0  0  0  0
  -25.0829  -30.4916   23.2264 C   0  0  0  0  0  0  0  0  0  0  0  0
  -22.1752  -30.6797   21.8008 C   0  0  0  0  0  0  0  0  0  0  0  0
  -26.8471  -23.1760   19.7659 C   0  0  0  0  0  0  0  0  0  0  0  0
  -20.0783  -29.5848   19.3409 C   0  0  0  0  0  0  0  0  0  0  0  0
  -29.0837  -16.2754   20.6792 C   0  0  0  0  0  0  0  0  0  0  0  0
  -25.8571  -33.6187   27.1860 C   0  0  0  0  0  0  0  0  0  0  0  0
  -25.7269  -30.8165   20.8106 C   0  0  0  0  0  0  0  0  0  0  0  0
  -23.6420  -28.7425   21.1214 C   0  0  0  0  0  0  0  0  0  0  0  0
  -24.6608  -32.8708   26.6031 C   0  0  0  0  0  0  0  0  0  0  0  0
  -29.8307  -13.5400   18.5259 C   0  0  0  0  0  0  0  0  0  0  0  0
  -25.0179  -31.4102   26.3463 C   0  0  0  0  0  0  0  0  0  0  0  0
  -28.5825  -12.6587   18.6130 C   0  0  0  0  0  0  0  0  0  0  0  0
  -30.1620  -14.1884   19.8688 C   0  0  0  0  0  0  0  0  0  0  0  0
  -27.8074  -14.0446   20.5791 C   0  0  0  0  0  0  0  0  0  0  0  0
  -26.1549  -31.2918   25.3243 C   0  0  1  0  0  0  0  0  0  0  0  0
  -24.6291  -30.9327   21.8636 C   0  0  1  0  0  0  0  0  0  0  0  0
  -27.3964  -13.4214   19.2351 C   0  0  2  0  0  0  0  0  0  0  0  0
  -17.7523  -29.8963   18.4521 C   0  0  0  0  0  0  0  0  0  0  0  0
  -21.0714  -29.0300   24.1181 C   0  0  0  0  0  0  0  0  0  0  0  0
  -19.0360  -28.5747   22.7331 C   0  0  0  0  0  0  0  0  0  0  0  0
  -19.6003  -30.9152   23.3859 C   0  0  0  0  0  0  0  0  0  0  0  0
  -21.0811  -30.5085   16.7141 C   0  0  0  0  0  0  0  0  0  0  0  0
  -26.0374  -24.4587   19.8089 C   0  0  0  0  0  0  0  0  0  1  0  0
  -21.0019  -29.7439   21.6379 C   0  0  1  0  0  0  0  0  0  0  0  0
  -19.2045  -30.3371   18.3535 C   0  0  2  0  0  0  0  0  0  0  0  0
  -20.2033  -29.5592   22.9591 C   0  0  0  0  0  0  0  0  0  0  0  0
  -25.9711  -11.8698   20.5165 N   0  0  0  0  0  0  0  0  0  0  0  0
  -26.1688  -12.5398   19.3684 N   0  0  0  0  0  0  0  0  0  0  0  0
  -23.4420  -30.1421   21.5322 N   0  0  0  0  0  0  0  0  0  0  0  0
  -28.9930  -14.8963   20.3953 N   0  0  0  0  0  0  0  0  0  0  0  0
  -25.2413  -12.9269   17.2236 N   0  0  0  0  0  0  0  0  0  0  0  0
  -22.3047  -10.0736   19.1291 N   0  0  0  0  0  0  0  0  0  0  0  0
  -26.1853  -22.1549   20.4391 N   0  0  0  0  0  0  0  0  0  0  0  0
  -27.8999  -16.8475   21.1438 N   0  0  0  0  0  0  0  0  0  0  0  0
  -25.6524  -31.4980   23.9829 N   0  0  0  0  0  0  0  0  0  0  0  0
  -20.2112  -30.2696   20.5303 N   0  0  0  0  0  0  0  0  0  0  0  0
  -19.6744  -30.0985   16.9595 N   0  3  0  0  0  0  0  0  0  0  0  0
  -22.7792  -11.2612   17.2256 O   0  0  0  0  0  0  0  0  0  0  0  0
  -24.9266  -29.3248   23.5669 O   0  0  0  0  0  0  0  0  0  0  0  0
  -21.9746  -31.8467   22.1465 O   0  0  0  0  0  0  0  0  0  0  0  0
  -27.9319  -23.1198   19.1960 O   0  0  0  0  0  0  0  0  0  0  0  0
  -20.5887  -28.4966   19.0842 O   0  0  0  0  0  0  0  0  0  0  0  0
  -30.1266  -16.9085   20.4960 O   0  0  0  0  0  0  0  0  0  0  0  0
  -22.6623   -7.9141   24.2519 O   0  0  0  0  0  0  0  0  0  0  0  0
  -26.7040  -25.5042   19.1027 O   0  0  0  0  0  0  0  0  0  1  0  0
  -20.8107   -2.9501   22.7240 F   0  0  0  0  0  0  0  0  0  0  0  0
  -25.4715  -17.7428   22.1800 F   0  0  0  0  0  0  0  0  0  0  0  0
  -23.7346   -5.6062   25.3320 F   0  0  0  0  0  0  0  0  0  0  0  0
  1  2  1  0  0  0  0
  1  5  2  0  0  0  0
  2  6  2  0  0  0  0
  3 10  2  0  0  0  0
  3 18  1  0  0  0  0
  4 11  1  0  0  0  0
  4 18  2  0  0  0  0
  5 20  1  0  0  0  0
  6 22  1  0  0  0  0
  7 12  2  0  0  0  0
  7 21  1  0  0  0  0
  8  9  2  0  0  0  0
  8 24  1  0  0  0  0
  9 25  1  0  0  0  0
 10 26  1  0  0  0  0
 11 26  2  0  0  0  0
 12 27  1  0  0  0  0
 13 14  2  0  0  0  0
 13 28  1  0  0  0  0
 14 29  1  0  0  0  0
 15 23  1  0  0  0  0
 15 27  2  0  0  0  0
 16 24  2  0  0  0  0
 16 30  1  0  0  0  0
 17 29  2  0  0  0  0
 17 31  1  0  0  0  0
 18 32  1  0  0  0  0
 19 32  1  0  0  0  0
 19 33  2  0  0  0  0
 19 34  1  0  0  0  0
 20 22  2  0  0  0  0
 20 40  1  0  0  0  0
 21 23  2  0  0  0  0
 21 41  1  0  0  0  0
 22 49  1  0  0  0  0
 23 42  1  0  0  0  0
 24 67  1  0  0  0  0
 25 30  2  0  0  0  0
 25 68  1  0  0  0  0
 26 78  1  0  0  0  0
 27 79  1  0  0  0  0
 28 31  2  0  0  0  0
 28 78  1  0  0  0  0
 29 80  1  0  0  0  0
 30 81  1  0  0  0  0
 31 82  1  0  0  0  0
 32 61  2  0  0  0  0
 33 62  1  0  0  0  0
 33 65  1  0  0  0  0
 34 66  1  0  0  0  0
 34 72  2  0  0  0  0
 35 50  1  0  0  0  0
 35 69  1  0  0  0  0
 35 73  2  0  0  0  0
 36 58  1  0  0  0  0
 36 63  1  0  0  0  0
 36 74  2  0  0  0  0
 37 57  1  0  0  0  0
 37 67  1  0  0  0  0
 37 75  2  0  0  0  0
 38 59  1  0  0  0  0
 38 70  1  0  0  0  0
 38 76  2  0  0  0  0
 39 64  1  0  0  0  0
 39 68  1  0  0  0  0
 39 77  2  0  0  0  0
 40 43  1  0  0  0  0
 41 50  1  0  0  0  0
 42 63  1  0  0  0  0
 43 45  1  0  0  0  0
 44 46  1  0  0  0  0
 44 47  1  0  0  0  0
 45 49  1  0  0  0  0
 46 51  1  0  0  0  0
 47 64  1  0  0  0  0
 48 51  1  0  0  0  0
 48 64  1  0  0  0  0
 49 69  1  0  0  0  0
 50 63  1  0  0  0  0
 51 62  1  0  0  0  0
 52 59  1  0  0  0  0
 53 60  1  0  0  0  0
 54 60  1  0  0  0  0
 55 60  1  0  0  0  0
 56 71  1  0  0  0  0
 57 79  1  0  0  0  0
 58 60  1  0  0  0  0
 58 70  1  0  0  0  0
 59 71  1  0  0  0  0
 61 62  1  0  0  0  0
M  CHG  1  71   1
M  ISO  4  39 100  57 101  68 100  79 101
M  END
> <Batch ID>
0007

> <Smiles>
CNC(C)C(=O)NC(C(=O)N1Cc2cc([101O:1][101CH2:1]C(=O)Nc3ccc([100NH:0][100C:0](=O)N4CCCC(n5nc(-c6ccc(Oc7ccc(F)cc7F)cc6)c(C(N)=O)c5N)C4)c(F)c3)ccc2CC1C(=O)NC1CCCc2ccccc21)C(C)(C)C

> <Shape>
0.309

> <Color>
0.101

> <Negative vol penalty>
0.000

$$$$

  -OEChem-04052315333D

 82 90  0     1  0  0  0  0  0999 V2000
  -29.4609  -33.9616   26.0651 C   0  0  0  0  0  0  0  0  0  0  0  0
  -29.6130  -32.8665   25.2207 C   0  0  0  0  0  0  0  0  0  0  0  0
  -24.6254   -9.0141   21.3663 C   0  0  0  0  0  0  0  0  0  0  0  0
  -23.3749  -10.8876   22.2399 C   0  0  0  0  0  0  0  0  0  0  0  0
  -28.2344  -34.1977   26.6847 C   0  0  0  0  0  0  0  0  0  0  0  0
  -28.5389  -32.0061   24.9963 C   0  0  0  0  0  0  0  0  0  0  0  0
  -27.2088  -29.0561   19.7969 C   0  0  0  0  0  0  0  0  0  0  0  0
  -28.2583  -19.0882   20.2571 C   0  0  0  0  0  0  0  0  0  0  0  0
  -27.8311  -20.4045   20.0827 C   0  0  0  0  0  0  0  0  0  0  0  0
  -24.0837   -8.1918   22.3542 C   0  0  0  0  0  0  0  0  0  0  0  0
  -22.8332  -10.0653   23.2279 C   0  0  0  0  0  0  0  0  0  0  0  0
  -27.4513  -27.7511   19.3704 C   0  0  0  0  0  0  0  0  0  0  0  0
  -21.1749   -6.5638   22.9211 C   0  0  0  0  0  0  0  0  0  0  0  0
  -20.7074   -5.3078   22.5345 C   0  0  0  0  0  0  0  0  0  0  0  0
  -25.2378  -27.1124   20.0857 C   0  0  0  0  0  0  0  0  0  0  0  0
  -26.2425  -18.5979   21.4954 C   0  0  0  0  0  0  0  0  0  0  0  0
  -22.2821   -4.2592   24.0373 C   0  0  0  0  0  0  0  0  0  0  0  0
  -24.2711  -10.3620   21.3092 C   0  0  0  0  0  0  0  0  0  0  0  0
  -24.3057  -11.4600   19.0068 C   0  0  0  0  0  0  0  0  0  0  0  0
  -27.1420  -33.3453   26.4602 C   0  0  0  0  0  0  0  0  0  0  0  0
  -25.9808  -29.3971   20.3819 C   0  0  0  0  0  0  0  0  0  0  0  0
  -27.2970  -32.2302   25.6146 C   0  0  0  0  0  0  0  0  0  0  0  0
  -24.9812  -28.4230   20.5164 C   0  0  0  0  0  0  0  0  0  0  0  0
  -27.4640  -18.1849   20.9633 C   0  0  0  0  0  0  0  0  0  0  0  0
  -26.6097  -20.8176   20.6148 C   0  0  0  0  0  0  0  0  0  0  0  0
  -23.1876   -8.7174   23.2850 C   0  0  0  0  0  0  0  0  0  0  0  0
  -26.4669  -26.7783   19.5174 C   0  0  0  0  0  0  0  0  0  0  0  0
  -22.1961   -6.6675   23.8657 C   0  0  0  0  0  0  0  0  0  0  0  0
  -21.2610   -4.1555   23.0926 C   0  0  0  0  0  0  0  0  0  0  0  0
  -25.8153  -19.9143   21.3211 C   0  0  0  0  0  0  0  0  0  0  0  0
  -22.7496   -5.5153   24.4238 C   0  0  0  0  0  0  0  0  0  0  0  0
  -24.8308  -11.2121   20.2892 C   0  0  0  0  0  0  0  0  0  0  0  0
  -25.2014  -12.3274   18.4309 C   0  0  0  0  0  0  0  0  0  0  0  0
  -23.1148  -10.9516   18.3912 C   0  0  0  0  0  0  0  0  0  0  0  0
  -25.0781  -30.4896   23.2271 C   0  0  0  0  0  0  0  0  0  0  0  0
  -22.1722  -30.6800   21.7983 C   0  0  0  0  0  0  0  0  0  0  0  0
  -26.8424  -23.1750   19.7648 C   0  0  0  0  0  0  0  0  0  0  0  0
  -20.0775  -29.5876   19.3354 C   0  0  0  0  0  0  0  0  0  0  0  0
  -29.0827  -16.2756   20.6787 C   0  0  0  0  0  0  0  0  0  0  0  0
  -25.8494  -33.6143   27.1893 C   0  0  0  0  0  0  0  0  0  0  0  0
  -25.7250  -30.8155   20.8123 C   0  0  0  0  0  0  0  0  0  0  0  0
  -23.6386  -28.7425   21.1196 C   0  0  0  0  0  0  0  0  0  0  0  0
  -24.6534  -32.8673   26.6047 C   0  0  0  0  0  0  0  0  0  0  0  0
  -29.8337  -13.5387   18.5288 C   0  0  0  0  0  0  0  0  0  0  0  0
  -25.0100  -31.4067   26.3474 C   0  0  0  0  0  0  0  0  0  0  0  0
  -28.5857  -12.6570   18.6148 C   0  0  0  0  0  0  0  0  0  0  0  0
  -30.1628  -14.1883   19.8717 C   0  0  0  0  0  0  0  0  0  0  0  0
  -27.8072  -14.0443   20.5786 C   0  0  0  0  0  0  0  0  0  0  0  0
  -26.1482  -31.2882   25.3267 C   0  0  1  0  0  0  0  0  0  0  0  0
  -24.6261  -30.9318   21.8641 C   0  0  1  0  0  0  0  0  0  0  0  0
  -27.3984  -13.4199   19.2345 C   0  0  2  0  0  0  0  0  0  0  0  0
  -17.7527  -29.9008   18.4441 C   0  0  0  0  0  0  0  0  0  0  0  0
  -21.0648  -29.0297   24.1135 C   0  0  0  0  0  0  0  0  0  0  0  0
  -19.0308  -28.5762   22.7259 C   0  0  0  0  0  0  0  0  0  0  0  0
  -19.5956  -30.9161   23.3806 C   0  0  0  0  0  0  0  0  0  0  0  0
  -21.0837  -30.5122   16.7103 C   0  0  0  0  0  0  0  0  0  0  0  0
  -26.0333  -24.4580   19.8076 C   0  0  0  0  0  0  0  0  0  1  0  0
  -20.9985  -29.7450   21.6336 C   0  0  1  0  0  0  0  0  0  0  0  0
  -19.2052  -30.3408   18.3474 C   0  0  2  0  0  0  0  0  0  0  0  0
  -20.1983  -29.5600   22.9538 C   0  0  0  0  0  0  0  0  0  0  0  0
  -25.9716  -11.8689   20.5151 N   0  0  0  0  0  0  0  0  0  0  0  0
  -26.1709  -12.5380   19.3668 N   0  0  0  0  0  0  0  0  0  0  0  0
  -23.4389  -30.1419   21.5309 N   0  0  0  0  0  0  0  0  0  0  0  0
  -28.9928  -14.8963   20.3958 N   0  0  0  0  0  0  0  0  0  0  0  0
  -25.2465  -12.9230   17.2202 N   0  0  0  0  0  0  0  0  0  0  0  0
  -22.3079  -10.0704   19.1238 N   0  0  0  0  0  0  0  0  0  0  0  0
  -26.1792  -22.1538   20.4367 N   0  0  0  0  0  0  0  0  0  0  0  0
  -27.8980  -16.8478   21.1411 N   0  0  0  0  0  0  0  0  0  0  0  0
  -25.6472  -31.4953   23.9848 N   0  0  0  0  0  0  0  0  0  0  0  0
  -20.2094  -30.2717   20.5253 N   0  0  0  0  0  0  0  0  0  0  0  0
  -19.6766  -30.1028   16.9539 N   0  3  0  0  0  0  0  0  0  0  0  0
  -22.7849  -11.2565   17.2200 O   0  0  0  0  0  0  0  0  0  0  0  0
  -24.9208  -29.3228   23.5668 O   0  0  0  0  0  0  0  0  0  0  0  0
  -21.9717  -31.8470   22.1444 O   0  0  0  0  0  0  0  0  0  0  0  0
  -27.9277  -23.1185   19.1961 O   0  0  0  0  0  0  0  0  0  0  0  0
  -20.5876  -28.4993   19.0788 O   0  0  0  0  0  0  0  0  0  0  0  0
  -30.1257  -16.9089   20.4965 O   0  0  0  0  0  0  0  0  0  0  0  0
  -22.6586   -7.9153   24.2490 O   0  0  0  0  0  0  0  0  0  0  0  0
  -26.7013  -25.5036   19.1026 O   0  0  0  0  0  0  0  0  0  1  0  0
  -20.8108   -2.9494   22.7225 F   0  0  0  0  0  0  0  0  0  0  0  0
  -24.6401  -20.3006   21.8382 F   0  0  0  0  0  0  0  0  0  0  0  0
  -23.7300   -5.6086   25.3326 F   0  0  0  0  0  0  0  0  0  0  0  0
  1  2  1  0  0  0  0
  1  5  2  0  0  0  0
  2  6  2  0  0  0  0
  3 10  2  0  0  0  0
  3 18  1  0  0  0  0
  4 11  1  0  0  0  0
  4 18  2  0  0  0  0
  5 20  1  0  0  0  0
  6 22  1  0  0  0  0
  7 12  2  0  0  0  0
  7 21  1  0  0  0  0
  8  9  2  0  0  0  0
  8 24  1  0  0  0  0
  9 25  1  0  0  0  0
 10 26  1  0  0  0  0
 11 26  2  0  0  0  0
 12 27  1  0  0  0  0
 13 14  2  0  0  0  0
 13 28  1  0  0  0  0
 14 29  1  0  0  0  0
 15 23  1  0  0  0  0
 15 27  2  0  0  0  0
 16 24  2  0  0  0  0
 16 30  1  0  0  0  0
 17 29  2  0  0  0  0
 17 31  1  0  0  0  0
 18 32  1  0  0  0  0
 19 32  1  0  0  0  0
 19 33  2  0  0  0  0
 19 34  1  0  0  0  0
 20 22  2  0  0  0  0
 20 40  1  0  0  0  0
 21 23  2  0  0  0  0
 21 41  1  0  0  0  0
 22 49  1  0  0  0  0
 23 42  1  0  0  0  0
 24 68  1  0  0  0  0
 25 30  2  0  0  0  0
 25 67  1  0  0  0  0
 26 78  1  0  0  0  0
 27 79  1  0  0  0  0
 28 31  2  0  0  0  0
 28 78  1  0  0  0  0
 29 80  1  0  0  0  0
 30 81  1  0  0  0  0
 31 82  1  0  0  0  0
 32 61  2  0  0  0  0
 33 62  1  0  0  0  0
 33 65  1  0  0  0  0
 34 66  1  0  0  0  0
 34 72  2  0  0  0  0
 35 50  1  0  0  0  0
 35 69  1  0  0  0  0
 35 73  2  0  0  0  0
 36 58  1  0  0  0  0
 36 63  1  0  0  0  0
 36 74  2  0  0  0  0
 37 57  1  0  0  0  0
 37 67  1  0  0  0  0
 37 75  2  0  0  0  0
 38 59  1  0  0  0  0
 38 70  1  0  0  0  0
 38 76  2  0  0  0  0
 39 64  1  0  0  0  0
 39 68  1  0  0  0  0
 39 77  2  0  0  0  0
 40 43  1  0  0  0  0
 41 50  1  0  0  0  0
 42 63  1  0  0  0  0
 43 45  1  0  0  0  0
 44 46  1  0  0  0  0
 44 47  1  0  0  0  0
 45 49  1  0  0  0  0
 46 51  1  0  0  0  0
 47 64  1  0  0  0  0
 48 51  1  0  0  0  0
 48 64  1  0  0  0  0
 49 69  1  0  0  0  0
 50 63  1  0  0  0  0
 51 62  1  0  0  0  0
 52 59  1  0  0  0  0
 53 60  1  0  0  0  0
 54 60  1  0  0  0  0
 55 60  1  0  0  0  0
 56 71  1  0  0  0  0
 57 79  1  0  0  0  0
 58 60  1  0  0  0  0
 58 70  1  0  0  0  0
 59 71  1  0  0  0  0
 61 62  1  0  0  0  0
M  CHG  1  71   1
M  ISO  4  39 100  57 101  68 100  79 101
M  END
> <Batch ID>
0007

> <Smiles>
CNC(C)C(=O)NC(C(=O)N1Cc2cc([101O:1][101CH2:1]C(=O)Nc3ccc([100NH:0][100C:0](=O)N4CCCC(n5nc(-c6ccc(Oc7ccc(F)cc7F)cc6)c(C(N)=O)c5N)C4)cc3F)ccc2CC1C(=O)NC1CCCc2ccccc21)C(C)(C)C

> <Shape>
0.309

> <Color>
0.101

> <Negative vol penalty>
0.000

$$$$

  -OEChem-04052315333D

 81 89  0     1  0  0  0  0  0999 V2000
  -17.7155  -33.3419   18.0836 C   0  0  0  0  0  0  0  0  0  0  0  0
  -18.9138  -32.9824   17.4751 C   0  0  0  0  0  0  0  0  0  0  0  0
  -24.8012  -10.2786   22.6259 C   0  0  0  0  0  0  0  0  0  0  0  0
  -24.4888  -11.7693   24.5013 C   0  0  0  0  0  0  0  0  0  0  0  0
  -17.7254  -33.9232   19.3508 C   0  0  0  0  0  0  0  0  0  0  0  0
  -20.1229  -33.2051   18.1332 C   0  0  0  0  0  0  0  0  0  0  0  0
  -24.6112  -27.7615   19.5870 C   0  0  0  0  0  0  0  0  0  0  0  0
  -29.5131  -20.7821   21.9189 C   0  0  0  0  0  0  0  0  0  0  0  0
  -24.3855   -9.2034   23.4112 C   0  0  0  0  0  0  0  0  0  0  0  0
  -24.0729  -10.6941   25.2866 C   0  0  0  0  0  0  0  0  0  0  0  0
  -25.6185  -26.8047   19.7133 C   0  0  0  0  0  0  0  0  0  0  0  0
  -29.3851  -22.1504   22.1577 C   0  0  0  0  0  0  0  0  0  0  0  0
  -21.4645   -7.9153   24.5255 C   0  0  0  0  0  0  0  0  0  0  0  0
  -20.5567   -7.0164   23.9656 C   0  0  0  0  0  0  0  0  0  0  0  0
  -27.0248  -28.4182   20.8389 C   0  0  0  0  0  0  0  0  0  0  0  0
  -27.1423  -20.6374   21.4769 C   0  0  0  0  0  0  0  0  0  0  0  0
  -22.1505   -5.2245   24.2582 C   0  0  0  0  0  0  0  0  0  0  0  0
  -24.8529  -11.5615   23.1710 C   0  0  0  0  0  0  0  0  0  0  0  0
  -24.4755  -13.5061   21.5635 C   0  0  0  0  0  0  0  0  0  0  0  0
  -18.9346  -34.1443   20.0288 C   0  0  0  0  0  0  0  0  0  0  0  0
  -24.8012  -29.0475   20.1004 C   0  0  0  0  0  0  0  0  0  0  0  0
  -20.1490  -33.7912   19.4101 C   0  0  0  0  0  0  0  0  0  0  0  0
  -26.0146  -29.3772   20.7264 C   0  0  0  0  0  0  0  0  0  0  0  0
  -28.3917  -20.0256   21.5784 C   0  0  0  0  0  0  0  0  0  0  0  0
  -24.0213   -9.4111   24.7416 C   0  0  0  0  0  0  0  0  0  0  0  0
  -26.8224  -27.1323   20.3375 C   0  0  0  0  0  0  0  0  0  0  0  0
  -22.7154   -7.4688   24.9517 C   0  0  0  0  0  0  0  0  0  0  0  0
  -28.1357  -22.7621   22.0562 C   0  0  0  0  0  0  0  0  0  0  0  0
  -20.8997   -5.6710   23.8320 C   0  0  0  0  0  0  0  0  0  0  0  0
  -27.0143  -22.0057   21.7158 C   0  0  0  0  0  0  0  0  0  0  0  0
  -23.0584   -6.1234   24.8181 C   0  0  0  0  0  0  0  0  0  0  0  0
  -25.2829  -12.6725   22.3604 C   0  0  0  0  0  0  0  0  0  0  0  0
  -25.3542  -14.3993   21.0010 C   0  0  0  0  0  0  0  0  0  0  0  0
  -23.0579  -13.4758   21.3509 C   0  0  0  0  0  0  0  0  0  0  0  0
  -23.3724  -32.4735   20.6455 C   0  0  0  0  0  0  0  0  0  0  0  0
  -24.8881  -31.7227   23.2046 C   0  0  0  0  0  0  0  0  0  0  0  0
  -26.3005  -30.3471   25.9886 C   0  0  0  0  0  0  0  0  0  0  0  0
  -29.6878  -17.8733   21.3941 C   0  0  0  0  0  0  0  0  0  0  0  0
  -18.8980  -34.8190   21.3772 C   0  0  0  0  0  0  0  0  0  0  0  0
  -23.7676  -30.1278   19.9324 C   0  0  0  0  0  0  0  0  0  0  0  0
  -26.1880  -30.7830   21.2329 C   0  0  0  0  0  0  0  0  0  0  0  0
  -20.1981  -34.6777   22.1645 C   0  0  0  0  0  0  0  0  0  0  0  0
  -30.4150  -14.4228   20.9013 C   0  0  0  0  0  0  0  0  0  0  0  0
  -21.3979  -34.9814   21.2727 C   0  0  0  0  0  0  0  0  0  0  0  0
  -29.0782  -13.7284   21.1714 C   0  0  0  0  0  0  0  0  0  0  0  0
  -30.6319  -15.6163   21.8299 C   0  0  0  0  0  0  0  0  0  0  0  0
  -28.2019  -15.9022   22.1169 C   0  0  0  0  0  0  0  0  0  0  0  0
  -21.4794  -33.9940   20.1023 C   0  0  1  0  0  0  0  0  0  0  0  0
  -23.7025  -31.0923   21.1301 C   0  0  1  0  0  0  0  0  0  0  0  0
  -27.9093  -14.7331   21.1623 C   0  0  2  0  0  0  0  0  0  0  0  0
  -26.8460  -30.8668   28.3823 C   0  0  0  0  0  0  0  0  0  0  0  0
  -27.2368  -33.4417   22.2923 C   0  0  0  0  0  0  0  0  0  0  0  0
  -28.2509  -33.1347   24.5607 C   0  0  0  0  0  0  0  0  0  0  0  0
  -26.0517  -34.2882   24.3254 C   0  0  0  0  0  0  0  0  0  0  0  0
  -24.5818  -28.1504   26.9783 C   0  0  0  0  0  0  0  0  0  0  0  0
  -28.6649  -26.3010   21.5911 C   0  0  0  0  0  0  0  0  0  1  0  0
  -29.1408  -24.9163   21.9857 C   0  0  0  0  0  0  0  0  0  0  0  0
  -26.1840  -31.7882   23.9726 C   0  0  1  0  0  0  0  0  0  0  0  0
  -25.8232  -30.2708   27.4276 C   0  0  2  0  0  0  0  0  0  0  0  0
  -26.9242  -33.1407   23.7717 C   0  0  0  0  0  0  0  0  0  0  0  0
  -26.5752  -13.0063   22.3111 N   0  0  0  0  0  0  0  0  0  0  0  0
  -26.5866  -14.0595   21.4764 N   0  0  0  0  0  0  0  0  0  0  0  0
  -24.9536  -31.2347   21.8939 N   0  0  0  0  0  0  0  0  0  0  0  0
  -29.4868  -16.5270   21.7655 N   0  0  0  0  0  0  0  0  0  0  0  0
  -25.1853  -15.4344   20.1511 N   0  0  0  0  0  0  0  0  0  0  0  0
  -22.3048  -12.4921   22.0063 N   0  0  0  0  0  0  0  0  0  0  0  0
  -28.5216  -18.6356   21.3358 N   0  0  0  0  0  0  0  0  0  0  0  0
  -22.0175  -32.7263   20.5470 N   0  0  0  0  0  0  0  0  0  0  0  0
  -25.8510  -31.4898   25.3613 N   0  0  0  0  0  0  0  0  0  0  0  0
  -25.5846  -28.8529   27.8197 N   0  3  0  0  0  0  0  0  0  0  0  0
  -22.4784  -14.2864   20.5889 O   0  0  0  0  0  0  0  0  0  0  0  0
  -24.2795  -33.2539   20.3813 O   0  0  0  0  0  0  0  0  0  0  0  0
  -23.8455  -32.0986   23.7477 O   0  0  0  0  0  0  0  0  0  0  0  0
  -27.0049  -29.4816   25.4736 O   0  0  0  0  0  0  0  0  0  0  0  0
  -30.8084  -18.3104   21.1197 O   0  0  0  0  0  0  0  0  0  0  0  0
  -23.6153   -8.3622   25.5081 O   0  0  0  0  0  0  0  0  0  0  0  0
  -27.7998  -26.1921   20.4615 O   0  0  0  0  0  0  0  0  0  1  0  0
  -28.0119  -24.1064   22.2905 O   0  0  0  0  0  0  0  0  0  0  0  0
  -20.0272   -4.8077   23.2957 F   0  0  0  0  0  0  0  0  0  0  0  0
  -25.8115  -22.5881   21.6156 F   0  0  0  0  0  0  0  0  0  0  0  0
  -24.2582   -5.6883   25.2268 F   0  0  0  0  0  0  0  0  0  0  0  0
  1  2  1  0  0  0  0
  1  5  2  0  0  0  0
  2  6  2  0  0  0  0
  3  9  2  0  0  0  0
  3 18  1  0  0  0  0
  4 10  1  0  0  0  0
  4 18  2  0  0  0  0
  5 20  1  0  0  0  0
  6 22  1  0  0  0  0
  7 11  2  0  0  0  0
  7 21  1  0  0  0  0
  8 12  2  0  0  0  0
  8 24  1  0  0  0  0
  9 25  1  0  0  0  0
 10 25  2  0  0  0  0
 11 26  1  0  0  0  0
 12 28  1  0  0  0  0
 13 14  2  0  0  0  0
 13 27  1  0  0  0  0
 14 29  1  0  0  0  0
 15 23  1  0  0  0  0
 15 26  2  0  0  0  0
 16 24  2  0  0  0  0
 16 30  1  0  0  0  0
 17 29  2  0  0  0  0
 17 31  1  0  0  0  0
 18 32  1  0  0  0  0
 19 32  1  0  0  0  0
 19 33  2  0  0  0  0
 19 34  1  0  0  0  0
 20 22  2  0  0  0  0
 20 39  1  0  0  0  0
 21 23  2  0  0  0  0
 21 40  1  0  0  0  0
 22 48  1  0  0  0  0
 23 41  1  0  0  0  0
 24 67  1  0  0  0  0
 25 76  1  0  0  0  0
 26 77  1  0  0  0  0
 27 31  2  0  0  0  0
 27 76  1  0  0  0  0
 28 30  2  0  0  0  0
 28 78  1  0  0  0  0
 29 79  1  0  0  0  0
 30 80  1  0  0  0  0
 31 81  1  0  0  0  0
 32 61  2  0  0  0  0
 33 62  1  0  0  0  0
 33 65  1  0  0  0  0
 34 66  1  0  0  0  0
 34 71  2  0  0  0  0
 35 49  1  0  0  0  0
 35 68  1  0  0  0  0
 35 72  2  0  0  0  0
 36 58  1  0  0  0  0
 36 63  1  0  0  0  0
 36 73  2  0  0  0  0
 37 59  1  0  0  0  0
 37 69  1  0  0  0  0
 37 74  2  0  0  0  0
 38 64  1  0  0  0  0
 38 67  1  0  0  0  0
 38 75  2  0  0  0  0
 39 42  1  0  0  0  0
 40 49  1  0  0  0  0
 41 63  1  0  0  0  0
 42 44  1  0  0  0  0
 43 45  1  0  0  0  0
 43 46  1  0  0  0  0
 44 48  1  0  0  0  0
 45 50  1  0  0  0  0
 46 64  1  0  0  0  0
 47 50  1  0  0  0  0
 47 64  1  0  0  0  0
 48 68  1  0  0  0  0
 49 63  1  0  0  0  0
 50 62  1  0  0  0  0
 51 59  1  0  0  0  0
 52 60  1  0  0  0  0
 53 60  1  0  0  0  0
 54 60  1  0  0  0  0
 55 70  1  0  0  0  0
 56 57  1  0  0  0  0
 56 77  1  0  0  0  0
 57 78  1  0  0  0  0
 58 60  1  0  0  0  0
 58 69  1  0  0  0  0
 59 70  1  0  0  0  0
 61 62  1  0  0  0  0
M  CHG  1  70   1
M  ISO  4  38 100  56 101  67 100  77 101
M  END
> <Batch ID>
0007

> <Smiles>
CNC(C)C(=O)NC(C(=O)N1Cc2cc([101O:1][101CH2:1]COc3ccc([100NH:0][100C:0](=O)N4CCCC(n5nc(-c6ccc(Oc7ccc(F)cc7F)cc6)c(C(N)=O)c5N)C4)cc3F)ccc2CC1C(=O)NC1CCCc2ccccc21)C(C)(C)C

> <Shape>
0.265

> <Color>
0.145

> <Negative vol penalty>
0.000

$$$$

  -OEChem-04052315333D

 90 98  0     1  0  0  0  0  0999 V2000
  -16.2913  -29.7210   26.8352 C   0  0  0  0  0  0  0  0  0  0  0  0
  -17.0348  -28.5460   26.8797 C   0  0  0  0  0  0  0  0  0  0  0  0
  -30.5275  -19.5355   19.5802 C   0  0  0  0  0  0  0  0  0  0  0  0
  -28.3921  -19.6545   20.7041 C   0  0  0  0  0  0  0  0  0  0  0  0
  -16.3093  -30.5130   25.6879 C   0  0  0  0  0  0  0  0  0  0  0  0
  -17.7959  -28.1617   25.7763 C   0  0  0  0  0  0  0  0  0  0  0  0
  -23.1911  -25.2648   25.8545 C   0  0  0  0  0  0  0  0  0  0  0  0
  -23.2255  -17.2377   22.6085 C   0  0  0  0  0  0  0  0  0  0  0  0
  -30.3400  -20.8268   19.0872 C   0  0  0  0  0  0  0  0  0  0  0  0
  -28.2046  -20.9458   20.2111 C   0  0  0  0  0  0  0  0  0  0  0  0
  -23.5384  -23.9243   25.6927 C   0  0  0  0  0  0  0  0  0  0  0  0
  -22.9596  -15.8958   22.3360 C   0  0  0  0  0  0  0  0  0  0  0  0
  -30.6136  -23.9955   20.2349 C   0  0  0  0  0  0  0  0  0  0  0  0
  -31.6890  -24.8806   20.3103 C   0  0  0  0  0  0  0  0  0  0  0  0
  -23.9960  -24.3307   23.3593 C   0  0  0  0  0  0  0  0  0  0  0  0
  -22.8475  -16.3976   19.9753 C   0  0  0  0  0  0  0  0  0  0  0  0
  -31.6639  -25.1158   17.9059 C   0  0  0  0  0  0  0  0  0  0  0  0
  -29.5535  -18.9493   20.3886 C   0  0  0  0  0  0  0  0  0  0  0  0
  -30.3632  -17.2485   22.1089 C   0  0  0  0  0  0  0  0  0  0  0  0
  -17.0787  -30.1432   24.5735 C   0  0  0  0  0  0  0  0  0  0  0  0
  -23.2333  -26.1474   24.7656 C   0  0  0  0  0  0  0  0  0  0  0  0
  -17.8232  -28.9488   24.6125 C   0  0  0  0  0  0  0  0  0  0  0  0
  -23.6512  -25.6825   23.5105 C   0  0  0  0  0  0  0  0  0  0  0  0
  -23.3023  -18.1595   21.5645 C   0  0  0  0  0  0  0  0  0  0  0  0
  -23.1133  -17.7395   20.2479 C   0  0  0  0  0  0  0  0  0  0  0  0
  -29.1786  -21.5319   19.4027 C   0  0  0  0  0  0  0  0  0  0  0  0
  -23.9382  -23.4564   24.4444 C   0  0  0  0  0  0  0  0  0  0  0  0
  -22.7707  -15.4757   21.0194 C   0  0  0  0  0  0  0  0  0  0  0  0
  -30.0634  -23.6704   18.9950 C   0  0  0  0  0  0  0  0  0  0  0  0
  -32.2141  -25.4408   19.1458 C   0  0  0  0  0  0  0  0  0  0  0  0
  -30.5885  -24.2306   17.8305 C   0  0  0  0  0  0  0  0  0  0  0  0
  -29.7464  -17.6153   20.8978 C   0  0  0  0  0  0  0  0  0  0  0  0
  -30.2954  -15.8768   22.1271 C   0  0  0  0  0  0  0  0  0  0  0  0
  -30.9452  -18.0739   23.1265 C   0  0  0  0  0  0  0  0  0  0  0  0
  -21.0847  -27.9091   23.2216 C   0  0  0  0  0  0  0  0  0  0  0  0
  -23.6990  -29.0312   21.6632 C   0  0  0  0  0  0  0  0  0  0  0  0
  -23.7831  -20.0789   23.1197 C   0  0  0  0  0  0  0  0  0  0  0  0
  -26.9252  -28.5183   20.6754 C   0  0  0  0  0  0  0  0  0  0  0  0
  -26.6113  -11.9415   19.5210 C   0  0  0  0  0  0  0  0  0  0  0  0
  -17.0293  -31.0072   23.3383 C   0  0  0  0  0  0  0  0  0  0  0  0
  -22.8812  -27.5964   24.9626 C   0  0  0  0  0  0  0  0  0  0  0  0
  -23.7329  -26.5939   22.3141 C   0  0  0  0  0  0  0  0  0  0  0  0
  -18.1572  -30.7219   22.3500 C   0  0  0  0  0  0  0  0  0  0  0  0
  -30.1538  -12.0956   19.1991 C   0  0  0  0  0  0  0  0  0  0  0  0
  -18.3123  -29.2196   22.1360 C   0  0  0  0  0  0  0  0  0  0  0  0
  -30.5068  -13.4946   19.7073 C   0  0  0  0  0  0  0  0  0  0  0  0
  -28.8323  -12.0898   18.4339 C   0  0  0  0  0  0  0  0  0  0  0  0
  -28.0433  -14.0681   19.6740 C   0  0  0  0  0  0  0  0  0  0  0  0
  -18.6808  -28.5111   23.4450 C   0  0  1  0  0  0  0  0  0  0  0  0
  -22.4670  -28.2918   23.6694 C   0  0  1  0  0  0  0  0  0  0  0  0
  -29.3401  -14.1141   20.5000 C   0  0  2  0  0  0  0  0  0  0  0  0
  -25.4466  -19.1716   18.4595 C   0  0  0  0  0  0  0  0  0  0  0  0
  -21.0354  -19.4155   18.3593 C   0  0  0  0  0  0  0  0  0  0  0  0
  -28.7846  -29.5982   19.3818 C   0  0  0  0  0  0  0  0  0  0  0  0
  -22.2954  -28.3130   19.0509 C   0  0  0  0  0  0  0  0  0  0  0  0
  -24.5050  -28.5107   17.8904 C   0  0  0  0  0  0  0  0  0  0  0  0
  -23.5074  -30.5003   19.0168 C   0  0  0  0  0  0  0  0  0  0  0  0
  -28.6973  -28.5743   23.0451 C   0  0  0  0  0  0  0  0  0  0  0  0
  -24.0418  -21.5694   23.0007 C   0  0  0  0  0  0  0  0  0  1  0  0
  -23.3048  -12.1821   19.6603 C   0  0  0  0  0  0  0  0  0  0  0  0
  -24.1708  -18.4756   18.1266 C   0  0  0  0  0  0  0  0  0  0  0  0
  -22.2744  -19.7770   19.1055 C   0  0  0  0  0  0  0  0  0  0  0  0
  -24.4141  -11.9403   20.6750 C   0  0  0  0  0  0  0  0  0  0  0  0
  -22.9613  -13.6579   19.4979 C   0  0  0  0  0  0  0  0  0  0  0  0
  -24.4597  -28.6275   20.4232 C   0  0  1  0  0  0  0  0  0  0  0  0
  -28.1553  -29.4045   20.7526 C   0  0  2  0  0  0  0  0  0  0  0  0
  -23.6886  -28.9700   19.1172 C   0  0  0  0  0  0  0  0  0  0  0  0
  -29.3185  -16.5616   20.1973 N   0  0  0  0  0  0  0  0  0  0  0  0
  -29.6670  -15.5193   20.9707 N   0  0  0  0  0  0  0  0  0  0  0  0
  -23.3724  -28.0007   22.5560 N   0  0  0  0  0  0  0  0  0  0  0  0
  -27.7672  -12.6891   19.2416 N   0  0  0  0  0  0  0  0  0  0  0  0
  -30.7127  -14.9537   23.0194 N   0  0  0  0  0  0  0  0  0  0  0  0
  -30.9301  -19.4641   22.9490 N   0  0  0  0  0  0  0  0  0  0  0  0
  -23.5730  -19.5154   21.8657 N   0  0  0  0  0  0  0  0  0  0  0  0
  -20.0832  -28.7035   23.7464 N   0  0  0  0  0  0  0  0  0  0  0  0
  -25.7713  -29.2581   20.5256 N   0  0  0  0  0  0  0  0  0  0  0  0
  -25.6539  -12.5819   20.2982 N   0  0  0  0  0  0  0  0  0  0  0  0
  -23.1884  -18.6558   19.1750 N   0  0  0  0  0  0  0  0  0  0  0  0
  -29.1741  -28.7991   21.6562 N   0  3  0  0  0  0  0  0  0  0  0  0
  -31.4781  -17.5922   24.1549 O   0  0  0  0  0  0  0  0  0  0  0  0
  -20.9378  -26.9641   22.4554 O   0  0  0  0  0  0  0  0  0  0  0  0
  -23.4117  -30.2182   21.8368 O   0  0  0  0  0  0  0  0  0  0  0  0
  -23.7749  -19.5132   24.2080 O   0  0  0  0  0  0  0  0  0  0  0  0
  -26.9826  -27.2921   20.7378 O   0  0  0  0  0  0  0  0  0  0  0  0
  -26.4472  -10.7867   19.1129 O   0  0  0  0  0  0  0  0  0  0  0  0
  -28.9953  -22.7920   18.9219 O   0  0  0  0  0  0  0  0  0  0  0  0
  -24.2771  -22.1483   24.2836 O   0  0  0  0  0  0  0  0  0  1  0  0
  -22.5130  -14.1659   20.7536 O   0  0  0  0  0  0  0  0  0  0  0  0
  -33.2457  -26.2921   19.2184 F   0  0  0  0  0  0  0  0  0  0  0  0
  -30.0634  -23.9230   16.6366 F   0  0  0  0  0  0  0  0  0  0  0  0
  1  2  1  0  0  0  0
  1  5  2  0  0  0  0
  2  6  2  0  0  0  0
  3  9  2  0  0  0  0
  3 18  1  0  0  0  0
  4 10  1  0  0  0  0
  4 18  2  0  0  0  0
  5 20  1  0  0  0  0
  6 22  1  0  0  0  0
  7 11  2  0  0  0  0
  7 21  1  0  0  0  0
  8 12  2  0  0  0  0
  8 24  1  0  0  0  0
  9 26  1  0  0  0  0
 10 26  2  0  0  0  0
 11 27  1  0  0  0  0
 12 28  1  0  0  0  0
 13 14  2  0  0  0  0
 13 29  1  0  0  0  0
 14 30  1  0  0  0  0
 15 23  1  0  0  0  0
 15 27  2  0  0  0  0
 16 25  1  0  0  0  0
 16 28  2  0  0  0  0
 17 30  2  0  0  0  0
 17 31  1  0  0  0  0
 18 32  1  0  0  0  0
 19 32  1  0  0  0  0
 19 33  2  0  0  0  0
 19 34  1  0  0  0  0
 20 22  2  0  0  0  0
 20 40  1  0  0  0  0
 21 23  2  0  0  0  0
 21 41  1  0  0  0  0
 22 49  1  0  0  0  0
 23 42  1  0  0  0  0
 24 25  2  0  0  0  0
 24 74  1  0  0  0  0
 25 78  1  0  0  0  0
 26 86  1  0  0  0  0
 27 87  1  0  0  0  0
 28 88  1  0  0  0  0
 29 31  2  0  0  0  0
 29 86  1  0  0  0  0
 30 89  1  0  0  0  0
 31 90  1  0  0  0  0
 32 68  2  0  0  0  0
 33 69  1  0  0  0  0
 33 72  1  0  0  0  0
 34 73  1  0  0  0  0
 34 80  2  0  0  0  0
 35 50  1  0  0  0  0
 35 75  1  0  0  0  0
 35 81  2  0  0  0  0
 36 65  1  0  0  0  0
 36 70  1  0  0  0  0
 36 82  2  0  0  0  0
 37 59  1  0  0  0  0
 37 74  1  0  0  0  0
 37 83  2  0  0  0  0
 38 66  1  0  0  0  0
 38 76  1  0  0  0  0
 38 84  2  0  0  0  0
 39 71  1  0  0  0  0
 39 77  1  0  0  0  0
 39 85  2  0  0  0  0
 40 43  1  0  0  0  0
 41 50  1  0  0  0  0
 42 70  1  0  0  0  0
 43 45  1  0  0  0  0
 44 46  1  0  0  0  0
 44 47  1  0  0  0  0
 45 49  1  0  0  0  0
 46 51  1  0  0  0  0
 47 71  1  0  0  0  0
 48 51  1  0  0  0  0
 48 71  1  0  0  0  0
 49 75  1  0  0  0  0
 50 70  1  0  0  0  0
 51 69  1  0  0  0  0
 52 61  1  0  0  0  0
 53 62  1  0  0  0  0
 54 66  1  0  0  0  0
 55 67  1  0  0  0  0
 56 67  1  0  0  0  0
 57 67  1  0  0  0  0
 58 79  1  0  0  0  0
 59 87  1  0  0  0  0
 60 63  1  0  0  0  0
 60 64  1  0  0  0  0
 61 78  1  0  0  0  0
 62 78  1  0  0  0  0
 63 77  1  0  0  0  0
 64 88  1  0  0  0  0
 65 67  1  0  0  0  0
 65 76  1  0  0  0  0
 66 79  1  0  0  0  0
 68 69  1  0  0  0  0
M  CHG  1  79   1
M  ISO  4  39 100  59 101  77 100  87 101
M  END
> <Batch ID>
0007

> <Smiles>
CCN(CC)c1cc(OCCC[100NH:0][100C:0](=O)N2CCCC(n3nc(-c4ccc(Oc5ccc(F)cc5F)cc4)c(C(N)=O)c3N)C2)ccc1NC(=O)[101CH2:1][101O:1]c1ccc2c(c1)CN(C(=O)C(NC(=O)C(C)NC)C(C)(C)C)C(C(=O)NC1CCCc3ccccc31)C2

> <Shape>
0.279

> <Color>
0.071

> <Negative vol penalty>
0.000

$$$$

  -OEChem-04052315333D

 88 96  0     1  0  0  0  0  0999 V2000
  -32.5476  -13.9953   20.8563 C   0  0  0  0  0  0  0  0  0  0  0  0
  -31.8066  -15.1658   20.7287 C   0  0  0  0  0  0  0  0  0  0  0  0
  -18.1700  -27.6394   21.8482 C   0  0  0  0  0  0  0  0  0  0  0  0
  -27.6539  -26.2885   18.9303 C   0  0  0  0  0  0  0  0  0  0  0  0
  -26.6500  -24.8242   20.5688 C   0  0  0  0  0  0  0  0  0  0  0  0
  -31.9550  -12.7632   20.5828 C   0  0  0  0  0  0  0  0  0  0  0  0
  -30.4728  -15.1049   20.3265 C   0  0  0  0  0  0  0  0  0  0  0  0
  -25.9056  -18.7511   22.1573 C   0  0  0  0  0  0  0  0  0  0  0  0
  -18.1953  -28.4467   22.9854 C   0  0  0  0  0  0  0  0  0  0  0  0
  -19.3227  -26.9645   21.4463 C   0  0  0  0  0  0  0  0  0  0  0  0
  -28.4485  -25.2358   18.4763 C   0  0  0  0  0  0  0  0  0  0  0  0
  -27.4445  -23.7714   20.1148 C   0  0  0  0  0  0  0  0  0  0  0  0
  -25.3105  -19.8716   21.5791 C   0  0  0  0  0  0  0  0  0  0  0  0
  -30.6389  -22.7250   20.4776 C   0  0  0  0  0  0  0  0  0  0  0  0
  -31.2659  -21.9269   21.4344 C   0  0  0  0  0  0  0  0  0  0  0  0
  -23.5781  -18.4685   20.6575 C   0  0  0  0  0  0  0  0  0  0  0  0
  -20.5259  -27.9043   23.3187 C   0  0  0  0  0  0  0  0  0  0  0  0
  -30.0947  -19.9911   20.5870 C   0  0  0  0  0  0  0  0  0  0  0  0
  -26.7547  -26.0827   19.9766 C   0  0  0  0  0  0  0  0  0  0  0  0
  -24.6540  -27.5300   19.9842 C   0  0  0  0  0  0  0  0  0  0  0  0
  -30.6105  -12.6865   20.1864 C   0  0  0  0  0  0  0  0  0  0  0  0
  -25.3464  -17.4773   21.9805 C   0  0  0  0  0  0  0  0  0  0  0  0
  -29.8621  -13.8708   20.0462 C   0  0  0  0  0  0  0  0  0  0  0  0
  -24.1666  -17.3338   21.2366 C   0  0  0  0  0  0  0  0  0  0  0  0
  -19.3732  -28.5792   23.7206 C   0  0  0  0  0  0  0  0  0  0  0  0
  -28.3438  -23.9773   19.0686 C   0  0  0  0  0  0  0  0  0  0  0  0
  -24.1483  -19.7300   20.8266 C   0  0  0  0  0  0  0  0  0  0  0  0
  -20.5007  -27.0970   22.1815 C   0  0  0  0  0  0  0  0  0  0  0  0
  -29.7398  -22.1562   19.5755 C   0  0  0  0  0  0  0  0  0  0  0  0
  -30.9938  -20.5599   21.4891 C   0  0  0  0  0  0  0  0  0  0  0  0
  -29.4677  -20.7892   19.6302 C   0  0  0  0  0  0  0  0  0  0  0  0
  -25.9340  -27.1699   20.4464 C   0  0  0  0  0  0  0  0  0  0  0  0
  -24.3076  -28.6189   20.7463 C   0  0  0  0  0  0  0  0  0  0  0  0
  -23.8499  -26.9335   18.9578 C   0  0  0  0  0  0  0  0  0  0  0  0
  -26.3275  -14.7617   20.6514 C   0  0  0  0  0  0  0  0  0  0  0  0
  -23.5525  -13.6135   21.8774 C   0  0  0  0  0  0  0  0  0  0  0  0
  -20.2835  -29.0863   25.9555 C   0  0  0  0  0  0  0  0  0  0  0  0
  -20.3858  -14.2553   22.9763 C   0  0  0  0  0  0  0  0  0  0  0  0
  -24.0013  -31.2060   25.6818 C   0  0  0  0  0  0  0  0  0  0  0  0
  -30.0271  -11.3355   19.8561 C   0  0  0  0  0  0  0  0  0  0  0  0
  -25.9856  -16.2823   22.6330 C   0  0  0  0  0  0  0  0  0  0  0  0
  -23.5153  -15.9910   21.0338 C   0  0  0  0  0  0  0  0  0  0  0  0
  -28.5017  -11.3287   19.7974 C   0  0  0  0  0  0  0  0  0  0  0  0
  -27.0745  -31.4448   23.8998 C   0  0  0  0  0  0  0  0  0  0  0  0
  -27.9934  -12.5171   18.9874 C   0  0  0  0  0  0  0  0  0  0  0  0
  -26.9485  -30.3799   22.8090 C   0  0  0  0  0  0  0  0  0  0  0  0
  -26.4231  -30.9949   25.2057 C   0  0  0  0  0  0  0  0  0  0  0  0
  -24.8941  -29.4933   23.9888 C   0  0  0  0  0  0  0  0  0  0  0  0
  -28.4056  -13.8439   19.6364 C   0  0  1  0  0  0  0  0  0  0  0  0
  -25.6159  -14.9645   21.9591 C   0  0  1  0  0  0  0  0  0  0  0  0
  -25.4871  -29.9241   22.6364 C   0  0  2  0  0  0  0  0  0  0  0  0
  -18.3449  -13.1098   23.8818 C   0  0  0  0  0  0  0  0  0  0  0  0
  -22.8759  -12.6101   19.0764 C   0  0  0  0  0  0  0  0  0  0  0  0
  -20.4997  -12.3478   19.8199 C   0  0  0  0  0  0  0  0  0  0  0  0
  -22.3027  -11.0211   20.9205 C   0  0  0  0  0  0  0  0  0  0  0  0
  -18.5056  -30.5831   24.9660 C   0  0  0  0  0  0  0  0  0  0  0  0
  -20.5168  -15.7740   25.5131 C   0  0  0  0  0  0  0  0  0  0  0  0
  -20.7681  -30.2520   26.8180 C   0  0  0  0  0  0  0  0  0  0  0  0
  -22.5092  -22.9492   20.6948 C   0  0  0  0  0  0  0  0  0  0  0  0
  -22.6480  -24.3023   21.3837 C   0  0  0  0  0  0  0  0  0  0  0  0
  -21.5477  -31.3079   26.0405 C   0  0  0  0  0  0  0  0  0  0  0  0
  -23.7275  -22.0681   20.9367 C   0  0  0  0  0  0  0  0  0  1  0  0
  -21.4500  -25.1996   21.1071 C   0  0  0  0  0  0  0  0  0  0  0  0
  -22.1308  -13.5008   21.3824 C   0  0  1  0  0  0  0  0  0  0  0  0
  -19.6458  -13.8177   24.2274 C   0  0  2  0  0  0  0  0  0  0  0  0
  -21.9654  -12.3951   20.3018 C   0  0  0  0  0  0  0  0  0  0  0  0
  -26.3712  -27.9656   21.4260 N   0  0  0  0  0  0  0  0  0  0  0  0
  -25.3603  -28.8365   21.5857 N   0  0  0  0  0  0  0  0  0  0  0  0
  -24.1815  -14.8519   21.6866 N   0  0  0  0  0  0  0  0  0  0  0  0
  -25.0384  -30.5772   24.9732 N   0  0  0  0  0  0  0  0  0  0  0  0
  -23.2082  -29.4019   20.7736 N   0  0  0  0  0  0  0  0  0  0  0  0
  -24.3576  -25.8208   18.2734 N   0  0  0  0  0  0  0  0  0  0  0  0
  -27.5549  -14.1380   20.7697 N   0  0  0  0  0  0  0  0  0  0  0  0
  -21.3004  -13.3082   22.5663 N   0  0  0  0  0  0  0  0  0  0  0  0
  -22.7184  -30.7546   25.3970 N   0  0  0  0  0  0  0  0  0  0  0  0
  -19.3979  -29.3866   24.8583 N   0  0  0  0  0  0  0  0  0  0  0  0
  -19.3265  -14.9977   25.0798 N   0  3  0  0  0  0  0  0  0  0  0  0
  -22.7218  -27.3843   18.6454 O   0  0  0  0  0  0  0  0  0  0  0  0
  -25.8014  -15.1415   19.6119 O   0  0  0  0  0  0  0  0  0  0  0  0
  -24.0828  -12.6409   22.4200 O   0  0  0  0  0  0  0  0  0  0  0  0
  -20.6364  -27.9381   26.2365 O   0  0  0  0  0  0  0  0  0  0  0  0
  -20.1713  -15.3281   22.4164 O   0  0  0  0  0  0  0  0  0  0  0  0
  -24.2032  -32.1068   26.5032 O   0  0  0  0  0  0  0  0  0  0  0  0
  -29.1188  -22.9498   18.6257 O   0  0  0  0  0  0  0  0  0  0  0  0
  -23.5658  -20.8219   20.2606 O   0  0  0  0  0  0  0  0  0  1  0  0
  -21.6335  -26.4340   21.7865 O   0  0  0  0  0  0  0  0  0  0  0  0
  -31.5971  -19.7933   22.4070 F   0  0  0  0  0  0  0  0  0  0  0  0
  -28.6058  -20.2369   18.7655 F   0  0  0  0  0  0  0  0  0  0  0  0
  1  2  1  0  0  0  0
  1  6  2  0  0  0  0
  2  7  2  0  0  0  0
  3  9  1  0  0  0  0
  3 10  2  0  0  0  0
  4 11  2  0  0  0  0
  4 19  1  0  0  0  0
  5 12  1  0  0  0  0
  5 19  2  0  0  0  0
  6 21  1  0  0  0  0
  7 23  1  0  0  0  0
  8 13  2  0  0  0  0
  8 22  1  0  0  0  0
  9 25  2  0  0  0  0
 10 28  1  0  0  0  0
 11 26  1  0  0  0  0
 12 26  2  0  0  0  0
 13 27  1  0  0  0  0
 14 15  2  0  0  0  0
 14 29  1  0  0  0  0
 15 30  1  0  0  0  0
 16 24  1  0  0  0  0
 16 27  2  0  0  0  0
 17 25  1  0  0  0  0
 17 28  2  0  0  0  0
 18 30  2  0  0  0  0
 18 31  1  0  0  0  0
 19 32  1  0  0  0  0
 20 32  1  0  0  0  0
 20 33  2  0  0  0  0
 20 34  1  0  0  0  0
 21 23  2  0  0  0  0
 21 40  1  0  0  0  0
 22 24  2  0  0  0  0
 22 41  1  0  0  0  0
 23 49  1  0  0  0  0
 24 42  1  0  0  0  0
 25 76  1  0  0  0  0
 26 84  1  0  0  0  0
 27 85  1  0  0  0  0
 28 86  1  0  0  0  0
 29 31  2  0  0  0  0
 29 84  1  0  0  0  0
 30 87  1  0  0  0  0
 31 88  1  0  0  0  0
 32 67  2  0  0  0  0
 33 68  1  0  0  0  0
 33 71  1  0  0  0  0
 34 72  1  0  0  0  0
 34 78  2  0  0  0  0
 35 50  1  0  0  0  0
 35 73  1  0  0  0  0
 35 79  2  0  0  0  0
 36 64  1  0  0  0  0
 36 69  1  0  0  0  0
 36 80  2  0  0  0  0
 37 58  1  0  0  0  0
 37 76  1  0  0  0  0
 37 81  2  0  0  0  0
 38 65  1  0  0  0  0
 38 74  1  0  0  0  0
 38 82  2  0  0  0  0
 39 70  1  0  0  0  0
 39 75  1  0  0  0  0
 39 83  2  0  0  0  0
 40 43  1  0  0  0  0
 41 50  1  0  0  0  0
 42 69  1  0  0  0  0
 43 45  1  0  0  0  0
 44 46  1  0  0  0  0
 44 47  1  0  0  0  0
 45 49  1  0  0  0  0
 46 51  1  0  0  0  0
 47 70  1  0  0  0  0
 48 51  1  0  0  0  0
 48 70  1  0  0  0  0
 49 73  1  0  0  0  0
 50 69  1  0  0  0  0
 51 68  1  0  0  0  0
 52 65  1  0  0  0  0
 53 66  1  0  0  0  0
 54 66  1  0  0  0  0
 55 66  1  0  0  0  0
 56 76  1  0  0  0  0
 57 77  1  0  0  0  0
 58 61  1  0  0  0  0
 59 60  1  0  0  0  0
 59 62  1  0  0  0  0
 60 63  1  0  0  0  0
 61 75  1  0  0  0  0
 62 85  1  0  0  0  0
 63 86  1  0  0  0  0
 64 66  1  0  0  0  0
 64 74  1  0  0  0  0
 65 77  1  0  0  0  0
 67 68  1  0  0  0  0
M  CHG  1  77   1
M  ISO  4  39 100  62 101  75 100  85 101
M  END
> <Batch ID>
0007

> <Smiles>
CNC(C)C(=O)NC(C(=O)N1Cc2cc([101O:1][101CH2:1]CCCOc3cccc(N(C)C(=O)CC[100NH:0][100C:0](=O)N4CCCC(n5nc(-c6ccc(Oc7ccc(F)cc7F)cc6)c(C(N)=O)c5N)C4)c3)ccc2CC1C(=O)NC1CCCc2ccccc21)C(C)(C)C

> <Shape>
0.277

> <Color>
0.076

> <Negative vol penalty>
0.000

$$$$
