
  -OEChem-04052315363D

 83 91  0     1  0  0  0  0  0999 V2000
  -17.4638  -30.8921   24.2060 C   0  0  0  0  0  0  0  0  0  0  0  0
  -18.8324  -31.1417   24.2166 C   0  0  0  0  0  0  0  0  0  0  0  0
  -24.6504  -12.3205   19.6648 C   0  0  0  0  0  0  0  0  0  0  0  0
  -25.4449  -13.1412   21.7938 C   0  0  0  0  0  0  0  0  0  0  0  0
  -28.5166  -22.8037   23.2244 C   0  0  0  0  0  0  0  0  0  0  0  0
  -16.9800  -29.6876   23.6969 C   0  0  0  0  0  0  0  0  0  0  0  0
  -19.7181  -30.1864   23.7192 C   0  0  0  0  0  0  0  0  0  0  0  0
  -25.9957  -29.6312   20.3134 C   0  0  0  0  0  0  0  0  0  0  0  0
  -27.7687  -21.7887   23.8211 C   0  0  0  0  0  0  0  0  0  0  0  0
  -25.4460  -11.1835   19.8062 C   0  0  0  0  0  0  0  0  0  0  0  0
  -26.2404  -12.0042   21.9352 C   0  0  0  0  0  0  0  0  0  0  0  0
  -27.2312  -28.9955   20.4289 C   0  0  0  0  0  0  0  0  0  0  0  0
  -26.9932   -7.8941   19.7749 C   0  0  0  0  0  0  0  0  0  0  0  0
  -26.4191   -6.6592   19.4730 C   0  0  0  0  0  0  0  0  0  0  0  0
  -27.4091  -22.3821   21.1190 C   0  0  0  0  0  0  0  0  0  0  0  0
  -26.2760  -26.9839   19.5014 C   0  0  0  0  0  0  0  0  0  0  0  0
  -24.7516   -7.0159   21.1845 C   0  0  0  0  0  0  0  0  0  0  0  0
  -24.6499  -13.2993   20.6586 C   0  0  0  0  0  0  0  0  0  0  0  0
  -28.3368  -23.1004   21.8733 C   0  0  0  0  0  0  0  0  0  0  0  0
  -22.4993  -14.6413   20.9447 C   0  0  0  0  0  0  0  0  0  0  0  0
  -17.8595  -28.7212   23.1840 C   0  0  0  0  0  0  0  0  0  0  0  0
  -24.8866  -28.9435   19.8004 C   0  0  0  0  0  0  0  0  0  0  0  0
  -19.2457  -28.9674   23.2040 C   0  0  0  0  0  0  0  0  0  0  0  0
  -25.0282  -27.6139   19.3781 C   0  0  0  0  0  0  0  0  0  0  0  0
  -26.8410  -21.0704   23.0667 C   0  0  0  0  0  0  0  0  0  0  0  0
  -26.6612  -21.3671   21.7157 C   0  0  0  0  0  0  0  0  0  0  0  0
  -26.2409  -11.0253   20.9414 C   0  0  0  0  0  0  0  0  0  0  0  0
  -27.3707  -27.6708   20.0255 C   0  0  0  0  0  0  0  0  0  0  0  0
  -26.4465   -8.6898   20.7818 C   0  0  0  0  0  0  0  0  0  0  0  0
  -25.2983   -6.2202   20.1777 C   0  0  0  0  0  0  0  0  0  0  0  0
  -25.3257   -8.2507   21.4865 C   0  0  0  0  0  0  0  0  0  0  0  0
  -23.8288  -14.4743   20.5128 C   0  0  0  0  0  0  0  0  0  0  0  0
  -22.1758  -15.9231   20.5723 C   0  0  0  0  0  0  0  0  0  0  0  0
  -29.1335  -24.1821   21.2389 C   0  0  0  0  0  0  0  0  0  0  0  0
  -21.6343  -13.7201   21.6221 C   0  0  0  0  0  0  0  0  0  0  0  0
  -22.0387  -28.1118   20.9412 C   0  0  0  0  0  0  0  0  0  0  0  0
  -21.5381  -27.1265   17.8914 C   0  0  0  0  0  0  0  0  0  0  0  0
  -22.8712  -26.0838   14.9280 C   0  0  0  0  0  0  0  0  0  0  0  0
  -25.4353  -20.8320   19.5809 C   0  0  0  0  0  0  0  0  0  0  0  0
  -17.2930  -27.4145   22.6876 C   0  0  0  0  0  0  0  0  0  0  0  0
  -23.5673  -29.6517   19.6575 C   0  0  0  0  0  0  0  0  0  0  0  0
  -23.8733  -26.8377   18.8018 C   0  0  0  0  0  0  0  0  0  0  0  0
  -18.2718  -26.6109   21.8353 C   0  0  0  0  0  0  0  0  0  0  0  0
  -23.2233  -19.2453   17.2860 C   0  0  0  0  0  0  0  0  0  0  0  0
  -19.6430  -26.5602   22.5017 C   0  0  0  0  0  0  0  0  0  0  0  0
  -23.0018  -17.8591   17.8955 C   0  0  0  0  0  0  0  0  0  0  0  0
  -24.6561  -19.7333   17.4926 C   0  0  0  0  0  0  0  0  0  0  0  0
  -24.9064  -18.3165   19.4924 C   0  0  0  0  0  0  0  0  0  0  0  0
  -20.2364  -27.9663   22.6504 C   0  0  1  0  0  0  0  0  0  0  0  0
  -22.3794  -28.6962   19.5996 C   0  0  1  0  0  0  0  0  0  0  0  0
  -23.4602  -17.8104   19.3662 C   0  0  2  0  0  0  0  0  0  0  0  0
  -26.0546  -19.9879   23.7319 C   0  0  0  0  0  0  0  0  0  0  0  0
  -22.2100  -25.3142   12.6328 C   0  0  0  0  0  0  0  0  0  0  0  0
  -20.7583  -24.4056   19.0310 C   0  0  0  0  0  0  0  0  0  0  0  0
  -21.0359  -23.4429   16.7366 C   0  0  0  0  0  0  0  0  0  0  0  0
  -19.3152  -25.2012   17.1498 C   0  0  0  0  0  0  0  0  0  0  0  0
  -24.2815  -28.3433   13.6377 C   0  0  0  0  0  0  0  0  0  0  0  0
  -30.3288  -26.3236   21.6147 C   0  0  0  0  0  0  0  0  0  0  0  0
  -29.4312  -27.4745   21.1968 C   0  0  0  0  0  0  0  0  0  1  0  0
  -21.7613  -25.8403   17.1332 C   0  0  1  0  0  0  0  0  0  0  0  0
  -22.5960  -26.5054   13.4958 C   0  0  2  0  0  0  0  0  0  0  0  0
  -20.7392  -24.7363   17.5253 C   0  0  0  0  0  0  0  0  0  0  0  0
  -24.3162  -15.5630   19.9118 N   0  0  0  0  0  0  0  0  0  0  0  0
  -23.2876  -16.4263   19.9633 N   0  0  0  0  0  0  0  0  0  0  0  0
  -22.6023  -27.5720   18.6882 N   0  0  0  0  0  0  0  0  0  0  0  0
  -25.0192  -19.6628   18.9097 N   0  0  0  0  0  0  0  0  0  0  0  0
  -21.0514  -16.6576   20.7095 N   0  0  0  0  0  0  0  0  0  0  0  0
  -22.1263  -12.4443   21.9295 N   0  0  0  0  0  0  0  0  0  0  0  0
  -25.7232  -20.6492   20.9330 N   0  0  0  0  0  0  0  0  0  0  0  0
  -29.5686  -25.1955   22.0837 N   0  0  0  0  0  0  0  0  0  0  0  0
  -20.7687  -28.4266   21.3859 N   0  0  0  0  0  0  0  0  0  0  0  0
  -21.7462  -26.1931   15.7177 N   0  0  0  0  0  0  0  0  0  0  0  0
  -23.8049  -27.1436   12.9024 N   0  3  0  0  0  0  0  0  0  0  0  0
  -29.3456  -24.1408   20.0299 O   0  0  0  0  0  0  0  0  0  0  0  0
  -20.4545  -14.0139   21.9306 O   0  0  0  0  0  0  0  0  0  0  0  0
  -22.8660  -27.4248   21.5287 O   0  0  0  0  0  0  0  0  0  0  0  0
  -20.4619  -27.7181   17.7753 O   0  0  0  0  0  0  0  0  0  0  0  0
  -23.9730  -25.6928   15.3072 O   0  0  0  0  0  0  0  0  0  0  0  0
  -25.5033  -21.9212   19.0055 O   0  0  0  0  0  0  0  0  0  0  0  0
  -27.0171   -9.9159   21.0799 O   0  0  0  0  0  0  0  0  0  0  0  0
  -28.5753  -27.0477   20.1377 O   0  0  0  0  0  0  0  0  0  1  0  0
  -24.7462   -5.0350   19.8866 F   0  0  0  0  0  0  0  0  0  0  0  0
  -24.7954   -9.0113   22.4540 F   0  0  0  0  0  0  0  0  0  0  0  0
  1  2  1  0  0  0  0
  1  6  2  0  0  0  0
  2  7  2  0  0  0  0
  3 10  2  0  0  0  0
  3 18  1  0  0  0  0
  4 11  1  0  0  0  0
  4 18  2  0  0  0  0
  5  9  2  0  0  0  0
  5 19  1  0  0  0  0
  6 21  1  0  0  0  0
  7 23  1  0  0  0  0
  8 12  2  0  0  0  0
  8 22  1  0  0  0  0
  9 25  1  0  0  0  0
 10 27  1  0  0  0  0
 11 27  2  0  0  0  0
 12 28  1  0  0  0  0
 13 14  2  0  0  0  0
 13 29  1  0  0  0  0
 14 30  1  0  0  0  0
 15 19  2  0  0  0  0
 15 26  1  0  0  0  0
 16 24  1  0  0  0  0
 16 28  2  0  0  0  0
 17 30  2  0  0  0  0
 17 31  1  0  0  0  0
 18 32  1  0  0  0  0
 19 34  1  0  0  0  0
 20 32  1  0  0  0  0
 20 33  2  0  0  0  0
 20 35  1  0  0  0  0
 21 23  2  0  0  0  0
 21 40  1  0  0  0  0
 22 24  2  0  0  0  0
 22 41  1  0  0  0  0
 23 49  1  0  0  0  0
 24 42  1  0  0  0  0
 25 26  2  0  0  0  0
 25 52  1  0  0  0  0
 26 69  1  0  0  0  0
 27 80  1  0  0  0  0
 28 81  1  0  0  0  0
 29 31  2  0  0  0  0
 29 80  1  0  0  0  0
 30 82  1  0  0  0  0
 31 83  1  0  0  0  0
 32 63  2  0  0  0  0
 33 64  1  0  0  0  0
 33 67  1  0  0  0  0
 34 70  1  0  0  0  0
 34 74  2  0  0  0  0
 35 68  1  0  0  0  0
 35 75  2  0  0  0  0
 36 50  1  0  0  0  0
 36 71  1  0  0  0  0
 36 76  2  0  0  0  0
 37 60  1  0  0  0  0
 37 65  1  0  0  0  0
 37 77  2  0  0  0  0
 38 61  1  0  0  0  0
 38 72  1  0  0  0  0
 38 78  2  0  0  0  0
 39 66  1  0  0  0  0
 39 69  1  0  0  0  0
 39 79  2  0  0  0  0
 40 43  1  0  0  0  0
 41 50  1  0  0  0  0
 42 65  1  0  0  0  0
 43 45  1  0  0  0  0
 44 46  1  0  0  0  0
 44 47  1  0  0  0  0
 45 49  1  0  0  0  0
 46 51  1  0  0  0  0
 47 66  1  0  0  0  0
 48 51  1  0  0  0  0
 48 66  1  0  0  0  0
 49 71  1  0  0  0  0
 50 65  1  0  0  0  0
 51 64  1  0  0  0  0
 53 61  1  0  0  0  0
 54 62  1  0  0  0  0
 55 62  1  0  0  0  0
 56 62  1  0  0  0  0
 57 73  1  0  0  0  0
 58 59  1  0  0  0  0
 58 70  1  0  0  0  0
 59 81  1  0  0  0  0
 60 62  1  0  0  0  0
 60 72  1  0  0  0  0
 61 73  1  0  0  0  0
 63 64  1  0  0  0  0
M  CHG  1  73   1
M  ISO  4  39 100  59 101  69 100  81 101
M  END
> <Batch ID>
0008

> <Smiles>
CNC(C)C(=O)NC(C(=O)N1Cc2cc([101O:1][101CH2:1]CNC(=O)c3ccc(C)c([100NH:0][100C:0](=O)N4CCCC(n5nc(-c6ccc(Oc7ccc(F)cc7F)cc6)c(C(N)=O)c5N)C4)c3)ccc2CC1C(=O)NC1CCCc2ccccc21)C(C)(C)C

> <Shape>
0.204

> <Color>
0.100

> <Negative vol penalty>
0.000

$$$$

  -OEChem-04052315363D

 85 93  0     1  0  0  0  0  0999 V2000
  -33.1151  -20.9743   13.1108 C   0  0  0  0  0  0  0  0  0  0  0  0
  -32.3726  -20.4914   14.1836 C   0  0  0  0  0  0  0  0  0  0  0  0
  -23.0598   -9.8885   19.9140 C   0  0  0  0  0  0  0  0  0  0  0  0
  -23.8427   -9.8318   22.1989 C   0  0  0  0  0  0  0  0  0  0  0  0
  -33.4324  -22.3300   13.0380 C   0  0  0  0  0  0  0  0  0  0  0  0
  -31.9479  -21.3639   15.1850 C   0  0  0  0  0  0  0  0  0  0  0  0
  -26.7088  -21.0728   18.3430 C   0  0  0  0  0  0  0  0  0  0  0  0
  -22.3147   -8.7314   20.1406 C   0  0  0  0  0  0  0  0  0  0  0  0
  -23.0975   -8.6747   22.4256 C   0  0  0  0  0  0  0  0  0  0  0  0
  -26.4022  -20.5708   19.6070 C   0  0  0  0  0  0  0  0  0  0  0  0
  -19.8730   -7.8710   23.0393 C   0  0  0  0  0  0  0  0  0  0  0  0
  -19.1277   -7.8022   24.2163 C   0  0  0  0  0  0  0  0  0  0  0  0
  -26.6265  -22.7863   20.5347 C   0  0  0  0  0  0  0  0  0  0  0  0
  -31.1669  -17.6739   20.6977 C   0  0  0  0  0  0  0  0  0  0  0  0
  -30.6189  -19.8217   21.6586 C   0  0  0  0  0  0  0  0  0  0  0  0
  -29.5542  -17.8190   22.4908 C   0  0  0  0  0  0  0  0  0  0  0  0
  -20.3699   -5.8419   24.8882 C   0  0  0  0  0  0  0  0  0  0  0  0
  -23.8239  -10.4387   20.9431 C   0  0  0  0  0  0  0  0  0  0  0  0
  -24.1730  -12.9651   20.8871 C   0  0  0  0  0  0  0  0  0  0  0  0
  -33.0031  -23.2212   14.0340 C   0  0  0  0  0  0  0  0  0  0  0  0
  -26.9878  -22.4357   18.1669 C   0  0  0  0  0  0  0  0  0  0  0  0
  -32.2608  -22.7326   15.1262 C   0  0  0  0  0  0  0  0  0  0  0  0
  -26.9339  -23.3035   19.2670 C   0  0  0  0  0  0  0  0  0  0  0  0
  -31.3391  -19.0573   20.7406 C   0  0  0  0  0  0  0  0  0  0  0  0
  -30.2744  -17.0546   21.5728 C   0  0  0  0  0  0  0  0  0  0  0  0
  -22.3335   -8.1245   21.3964 C   0  0  0  0  0  0  0  0  0  0  0  0
  -26.3638  -21.4270   20.7036 C   0  0  0  0  0  0  0  0  0  0  0  0
  -20.8667   -6.9253   22.7866 C   0  0  0  0  0  0  0  0  0  0  0  0
  -29.7264  -19.2025   22.5337 C   0  0  0  0  0  0  0  0  0  0  0  0
  -19.3762   -6.7876   25.1408 C   0  0  0  0  0  0  0  0  0  0  0  0
  -21.1152   -5.9108   23.7111 C   0  0  0  0  0  0  0  0  0  0  0  0
  -24.5944  -11.6337   20.7095 C   0  0  0  0  0  0  0  0  0  0  0  0
  -25.2639  -13.7207   20.5329 C   0  0  0  0  0  0  0  0  0  0  0  0
  -22.9085  -13.4734   21.3325 C   0  0  0  0  0  0  0  0  0  0  0  0
  -29.5091  -24.0999   17.1784 C   0  0  0  0  0  0  0  0  0  0  0  0
  -27.4561  -26.6014   17.4016 C   0  0  0  0  0  0  0  0  0  0  0  0
  -24.6321  -27.9163   18.7956 C   0  0  0  0  0  0  0  0  0  0  0  0
  -30.7351  -14.7444   20.6801 C   0  0  0  0  0  0  0  0  0  0  0  0
  -33.4108  -24.6700   13.9365 C   0  0  0  0  0  0  0  0  0  0  0  0
  -27.2906  -22.9662   16.7924 C   0  0  0  0  0  0  0  0  0  0  0  0
  -27.2056  -24.7784   19.1277 C   0  0  0  0  0  0  0  0  0  0  0  0
  -32.6032  -25.5925   14.8459 C   0  0  0  0  0  0  0  0  0  0  0  0
  -29.5889  -12.3982   18.2596 C   0  0  0  0  0  0  0  0  0  0  0  0
  -32.4934  -24.9989   16.2467 C   0  0  0  0  0  0  0  0  0  0  0  0
  -28.1526  -12.0996   18.6958 C   0  0  0  0  0  0  0  0  0  0  0  0
  -30.5168  -12.5920   19.4576 C   0  0  0  0  0  0  0  0  0  0  0  0
  -28.6262  -13.2851   20.8770 C   0  0  0  0  0  0  0  0  0  0  0  0
  -31.7609  -23.6520   16.2193 C   0  0  1  0  0  0  0  0  0  0  0  0
  -28.0622  -24.2820   16.8164 C   0  0  1  0  0  0  0  0  0  0  0  0
  -27.6410  -13.1464   19.7049 C   0  0  2  0  0  0  0  0  0  0  0  0
  -23.2282  -29.9962   18.8122 C   0  0  0  0  0  0  0  0  0  0  0  0
  -29.5287  -27.9834   19.1636 C   0  0  0  0  0  0  0  0  0  0  0  0
  -27.7387  -29.5692   19.9051 C   0  0  0  0  0  0  0  0  0  0  0  0
  -28.4066  -29.4797   17.5033 C   0  0  0  0  0  0  0  0  0  0  0  0
  -22.2650  -26.4661   17.7696 C   0  0  0  0  0  0  0  0  0  0  0  0
  -26.8373  -20.6264   24.2031 C   0  0  0  0  0  0  0  0  0  0  0  0
  -26.6445  -21.6085   23.0582 C   0  0  0  0  0  0  0  0  0  1  0  0
  -27.7377  -19.4654   23.8111 C   0  0  0  0  0  0  0  0  0  0  0  0
  -27.0701  -27.5738   18.4900 C   0  0  1  0  0  0  0  0  0  0  0  0
  -23.4429  -28.6303   18.1789 C   0  0  2  0  0  0  0  0  0  0  0  0
  -32.2931  -19.7196   19.8050 C   0  0  0  0  0  0  0  0  0  0  0  0
  -28.1827  -28.6235   18.7688 C   0  0  0  0  0  0  0  0  0  0  0  0
  -25.8546  -11.5452   20.2760 N   0  0  0  0  0  0  0  0  0  0  0  0
  -26.2345  -12.8305   20.1782 N   0  0  0  0  0  0  0  0  0  0  0  0
  -27.5032  -25.2479   17.7644 N   0  0  0  0  0  0  0  0  0  0  0  0
  -29.9701  -13.6007   20.3678 N   0  0  0  0  0  0  0  0  0  0  0  0
  -25.4780  -15.0530   20.4933 N   0  0  0  0  0  0  0  0  0  0  0  0
  -21.8970  -12.5587   21.6556 N   0  0  0  0  0  0  0  0  0  0  0  0
  -30.0990  -15.6492   21.5294 N   0  0  0  0  0  0  0  0  0  0  0  0
  -30.3333  -23.8555   16.0965 N   0  0  0  0  0  0  0  0  0  0  0  0
  -25.7919  -28.1505   18.0875 N   0  0  0  0  0  0  0  0  0  0  0  0
  -22.2023  -27.8258   18.3648 N   0  3  0  0  0  0  0  0  0  0  0  0
  -22.6769  -14.7028   21.4250 O   0  0  0  0  0  0  0  0  0  0  0  0
  -29.8525  -24.1769   18.3522 O   0  0  0  0  0  0  0  0  0  0  0  0
  -27.6997  -27.0263   16.2695 O   0  0  0  0  0  0  0  0  0  0  0  0
  -24.5421  -27.2233   19.8066 O   0  0  0  0  0  0  0  0  0  0  0  0
  -31.8600  -14.9221   20.2057 O   0  0  0  0  0  0  0  0  0  0  0  0
  -21.6063   -6.9955   21.6180 O   0  0  0  0  0  0  0  0  0  0  0  0
  -26.0654  -20.9395   21.9386 O   0  0  0  0  0  0  0  0  0  1  0  0
  -29.0184  -19.9536   23.4355 O   0  0  0  0  0  0  0  0  0  0  0  0
  -18.6614   -6.7225   26.2717 F   0  0  0  0  0  0  0  0  0  0  0  0
  -22.0694   -5.0001   23.4744 F   0  0  0  0  0  0  0  0  0  0  0  0
  -32.9273  -18.8503   18.9635 F   0  0  0  0  0  0  0  0  0  0  0  0
  -31.7052  -20.6419   18.9868 F   0  0  0  0  0  0  0  0  0  0  0  0
  -33.2879  -20.3897   20.4565 F   0  0  0  0  0  0  0  0  0  0  0  0
  1  2  1  0  0  0  0
  1  5  2  0  0  0  0
  2  6  2  0  0  0  0
  3  8  2  0  0  0  0
  3 18  1  0  0  0  0
  4  9  1  0  0  0  0
  4 18  2  0  0  0  0
  5 20  1  0  0  0  0
  6 22  1  0  0  0  0
  7 10  2  0  0  0  0
  7 21  1  0  0  0  0
  8 26  1  0  0  0  0
  9 26  2  0  0  0  0
 10 27  1  0  0  0  0
 11 12  2  0  0  0  0
 11 28  1  0  0  0  0
 12 30  1  0  0  0  0
 13 23  1  0  0  0  0
 13 27  2  0  0  0  0
 14 24  2  0  0  0  0
 14 25  1  0  0  0  0
 15 24  1  0  0  0  0
 15 29  2  0  0  0  0
 16 25  2  0  0  0  0
 16 29  1  0  0  0  0
 17 30  2  0  0  0  0
 17 31  1  0  0  0  0
 18 32  1  0  0  0  0
 19 32  1  0  0  0  0
 19 33  2  0  0  0  0
 19 34  1  0  0  0  0
 20 22  2  0  0  0  0
 20 39  1  0  0  0  0
 21 23  2  0  0  0  0
 21 40  1  0  0  0  0
 22 48  1  0  0  0  0
 23 41  1  0  0  0  0
 24 61  1  0  0  0  0
 25 69  1  0  0  0  0
 26 78  1  0  0  0  0
 27 79  1  0  0  0  0
 28 31  2  0  0  0  0
 28 78  1  0  0  0  0
 29 80  1  0  0  0  0
 30 81  1  0  0  0  0
 31 82  1  0  0  0  0
 32 63  2  0  0  0  0
 33 64  1  0  0  0  0
 33 67  1  0  0  0  0
 34 68  1  0  0  0  0
 34 73  2  0  0  0  0
 35 49  1  0  0  0  0
 35 70  1  0  0  0  0
 35 74  2  0  0  0  0
 36 59  1  0  0  0  0
 36 65  1  0  0  0  0
 36 75  2  0  0  0  0
 37 60  1  0  0  0  0
 37 71  1  0  0  0  0
 37 76  2  0  0  0  0
 38 66  1  0  0  0  0
 38 69  1  0  0  0  0
 38 77  2  0  0  0  0
 39 42  1  0  0  0  0
 40 49  1  0  0  0  0
 41 65  1  0  0  0  0
 42 44  1  0  0  0  0
 43 45  1  0  0  0  0
 43 46  1  0  0  0  0
 44 48  1  0  0  0  0
 45 50  1  0  0  0  0
 46 66  1  0  0  0  0
 47 50  1  0  0  0  0
 47 66  1  0  0  0  0
 48 70  1  0  0  0  0
 49 65  1  0  0  0  0
 50 64  1  0  0  0  0
 51 60  1  0  0  0  0
 52 62  1  0  0  0  0
 53 62  1  0  0  0  0
 54 62  1  0  0  0  0
 55 72  1  0  0  0  0
 56 57  1  0  0  0  0
 56 58  1  0  0  0  0
 57 79  1  0  0  0  0
 58 80  1  0  0  0  0
 59 62  1  0  0  0  0
 59 71  1  0  0  0  0
 60 72  1  0  0  0  0
 61 83  1  0  0  0  0
 61 84  1  0  0  0  0
 61 85  1  0  0  0  0
 63 64  1  0  0  0  0
M  CHG  1  72   1
M  ISO  4  38 100  57 101  69 100  79 101
M  END
> <Batch ID>
0008

> <Smiles>
CNC(C)C(=O)NC(C(=O)N1Cc2cc([101O:1][101CH2:1]CCOc3cc([100NH:0][100C:0](=O)N4CCCC(n5nc(-c6ccc(Oc7ccc(F)cc7F)cc6)c(C(N)=O)c5N)C4)cc(C(F)(F)F)c3)ccc2CC1C(=O)NC1CCCc2ccccc21)C(C)(C)C

> <Shape>
0.241

> <Color>
0.198

> <Negative vol penalty>
0.000

$$$$

  -OEChem-04052315363D

 83 91  0     1  0  0  0  0  0999 V2000
  -27.7268  -37.6661   21.9647 C   0  0  0  0  0  0  0  0  0  0  0  0
  -28.1893  -36.4574   21.4543 C   0  0  0  0  0  0  0  0  0  0  0  0
  -26.4318  -12.7800   21.4432 C   0  0  0  0  0  0  0  0  0  0  0  0
  -26.3399  -13.3072   19.0873 C   0  0  0  0  0  0  0  0  0  0  0  0
  -26.8403  -37.6735   23.0408 C   0  0  0  0  0  0  0  0  0  0  0  0
  -27.7664  -35.2553   22.0205 C   0  0  0  0  0  0  0  0  0  0  0  0
  -26.7615  -29.9647   19.1042 C   0  0  0  0  0  0  0  0  0  0  0  0
  -29.1485  -21.0791   15.0893 C   0  0  0  0  0  0  0  0  0  0  0  0
  -29.0248  -22.4468   15.3336 C   0  0  0  0  0  0  0  0  0  0  0  0
  -25.1617  -12.2087   21.3650 C   0  0  0  0  0  0  0  0  0  0  0  0
  -25.0698  -12.7359   19.0090 C   0  0  0  0  0  0  0  0  0  0  0  0
  -27.5397  -28.8189   18.9449 C   0  0  0  0  0  0  0  0  0  0  0  0
  -23.7995   -9.3002   20.3079 C   0  0  0  0  0  0  0  0  0  0  0  0
  -23.6026   -8.0695   20.9342 C   0  0  0  0  0  0  0  0  0  0  0  0
  -26.4049  -27.7958   20.8116 C   0  0  0  0  0  0  0  0  0  0  0  0
  -29.5976  -22.0844   17.6526 C   0  0  0  0  0  0  0  0  0  0  0  0
  -21.8971   -9.0546   22.3335 C   0  0  0  0  0  0  0  0  0  0  0  0
  -27.0208  -13.3293   20.3044 C   0  0  0  0  0  0  0  0  0  0  0  0
  -29.5688  -13.2749   20.1919 C   0  0  0  0  0  0  0  0  0  0  0  0
  -26.3988  -36.4707   23.6143 C   0  0  0  0  0  0  0  0  0  0  0  0
  -25.8050  -30.0389   20.1271 C   0  0  0  0  0  0  0  0  0  0  0  0
  -26.8742  -35.2467   23.1062 C   0  0  0  0  0  0  0  0  0  0  0  0
  -25.6140  -28.9427   20.9802 C   0  0  0  0  0  0  0  0  0  0  0  0
  -29.4967  -20.2140   16.1266 C   0  0  0  0  0  0  0  0  0  0  0  0
  -29.2494  -22.9494   16.6152 C   0  0  0  0  0  0  0  0  0  0  0  0
  -29.7212  -20.7166   17.4083 C   0  0  0  0  0  0  0  0  0  0  0  0
  -24.4807  -12.1866   20.1479 C   0  0  0  0  0  0  0  0  0  0  0  0
  -27.3635  -27.7354   19.8005 C   0  0  0  0  0  0  0  0  0  0  0  0
  -23.0453  -10.4081   20.6944 C   0  0  0  0  0  0  0  0  0  0  0  0
  -22.6513   -7.9467   21.9470 C   0  0  0  0  0  0  0  0  0  0  0  0
  -22.0941  -10.2853   21.7072 C   0  0  0  0  0  0  0  0  0  0  0  0
  -28.3326  -13.9201   20.3847 C   0  0  0  0  0  0  0  0  0  0  0  0
  -30.5044  -14.2634   20.3757 C   0  0  0  0  0  0  0  0  0  0  0  0
  -29.8465  -11.9044   19.8749 C   0  0  0  0  0  0  0  0  0  0  0  0
  -25.3841  -31.8932   22.6742 C   0  0  0  0  0  0  0  0  0  0  0  0
  -22.5904  -30.2624   22.9152 C   0  0  0  0  0  0  0  0  0  0  0  0
  -28.7163  -24.8030   18.1494 C   0  0  0  0  0  0  0  0  0  0  0  0
  -20.8137  -27.4375   22.2008 C   0  0  0  0  0  0  0  0  0  0  0  0
  -30.3290  -20.2084   19.7996 C   0  0  0  0  0  0  0  0  0  0  0  0
  -25.4770  -36.5302   24.8066 C   0  0  0  0  0  0  0  0  0  0  0  0
  -24.9550  -31.2717   20.2689 C   0  0  0  0  0  0  0  0  0  0  0  0
  -24.5865  -28.9643   22.0813 C   0  0  0  0  0  0  0  0  0  0  0  0
  -24.7854  -35.2033   25.1087 C   0  0  0  0  0  0  0  0  0  0  0  0
  -31.1927  -18.3774   22.7286 C   0  0  0  0  0  0  0  0  0  0  0  0
  -25.7904  -34.0565   25.0695 C   0  0  0  0  0  0  0  0  0  0  0  0
  -30.6752  -16.9664   22.4398 C   0  0  0  0  0  0  0  0  0  0  0  0
  -30.2616  -19.4494   22.1649 C   0  0  0  0  0  0  0  0  0  0  0  0
  -29.4199  -17.8923   20.4514 C   0  0  0  0  0  0  0  0  0  0  0  0
  -26.4192  -33.9212   23.6774 C   0  0  1  0  0  0  0  0  0  0  0  0
  -24.3675  -31.4347   21.6673 C   0  0  1  0  0  0  0  0  0  0  0  0
  -30.3577  -16.7778   20.9434 C   0  0  2  0  0  0  0  0  0  0  0  0
  -29.6219  -18.7537   15.8359 C   0  0  0  0  0  0  0  0  0  0  0  0
  -18.5676  -26.3788   22.5630 C   0  0  0  0  0  0  0  0  0  0  0  0
  -23.3665  -29.6059   25.7921 C   0  0  0  0  0  0  0  0  0  0  0  0
  -21.6160  -27.8160   25.7823 C   0  0  0  0  0  0  0  0  0  0  0  0
  -20.9590  -30.2023   25.4713 C   0  0  0  0  0  0  0  0  0  0  0  0
  -29.4156  -25.3178   15.7825 C   0  0  0  0  0  0  0  0  0  0  0  0
  -20.2655  -27.3323   19.2944 C   0  0  0  0  0  0  0  0  0  0  0  0
  -28.5648  -26.3069   18.3266 C   0  0  0  0  0  0  0  0  0  1  0  0
  -22.1504  -28.9906   23.5992 C   0  0  1  0  0  0  0  0  0  0  0  0
  -19.4162  -27.2410   21.6415 C   0  0  2  0  0  0  0  0  0  0  0  0
  -22.0438  -29.1537   25.1418 C   0  0  0  0  0  0  0  0  0  0  0  0
  -28.4673  -15.2181   20.6694 N   0  0  0  0  0  0  0  0  0  0  0  0
  -29.7993  -15.3965   20.6569 N   0  0  0  0  0  0  0  0  0  0  0  0
  -23.7844  -30.1946   22.1835 N   0  0  0  0  0  0  0  0  0  0  0  0
  -30.0093  -19.2086   20.7425 N   0  0  0  0  0  0  0  0  0  0  0  0
  -31.8534  -14.2653   20.3228 N   0  0  0  0  0  0  0  0  0  0  0  0
  -28.7682  -11.0226   19.7204 N   0  0  0  0  0  0  0  0  0  0  0  0
  -30.0755  -19.8539   18.4750 N   0  0  0  0  0  0  0  0  0  0  0  0
  -25.5015  -33.2667   22.7697 N   0  0  0  0  0  0  0  0  0  0  0  0
  -20.9054  -28.5893   22.9533 N   0  0  0  0  0  0  0  0  0  0  0  0
  -29.1207  -24.3703   16.8685 N   0  0  0  0  0  0  0  0  0  0  0  0
  -19.4805  -26.5806   20.3071 N   0  3  0  0  0  0  0  0  0  0  0  0
  -31.0169  -11.4710   19.7490 O   0  0  0  0  0  0  0  0  0  0  0  0
  -26.0142  -31.0624   23.3179 O   0  0  0  0  0  0  0  0  0  0  0  0
  -21.8963  -31.2768   23.0202 O   0  0  0  0  0  0  0  0  0  0  0  0
  -28.4544  -24.0639   19.1017 O   0  0  0  0  0  0  0  0  0  0  0  0
  -21.7313  -26.6464   21.9941 O   0  0  0  0  0  0  0  0  0  0  0  0
  -30.8188  -21.2884   20.1398 O   0  0  0  0  0  0  0  0  0  0  0  0
  -23.2415  -11.6290   20.0711 O   0  0  0  0  0  0  0  0  0  0  0  0
  -28.1222  -26.6161   19.6475 O   0  0  0  0  0  0  0  0  0  1  0  0
  -22.4612   -6.7645   22.5473 F   0  0  0  0  0  0  0  0  0  0  0  0
  -21.3656  -11.3459   22.0820 F   0  0  0  0  0  0  0  0  0  0  0  0
  1  2  1  0  0  0  0
  1  5  2  0  0  0  0
  2  6  2  0  0  0  0
  3 10  2  0  0  0  0
  3 18  1  0  0  0  0
  4 11  1  0  0  0  0
  4 18  2  0  0  0  0
  5 20  1  0  0  0  0
  6 22  1  0  0  0  0
  7 12  2  0  0  0  0
  7 21  1  0  0  0  0
  8  9  2  0  0  0  0
  8 24  1  0  0  0  0
  9 25  1  0  0  0  0
 10 27  1  0  0  0  0
 11 27  2  0  0  0  0
 12 28  1  0  0  0  0
 13 14  2  0  0  0  0
 13 29  1  0  0  0  0
 14 30  1  0  0  0  0
 15 23  1  0  0  0  0
 15 28  2  0  0  0  0
 16 25  2  0  0  0  0
 16 26  1  0  0  0  0
 17 30  2  0  0  0  0
 17 31  1  0  0  0  0
 18 32  1  0  0  0  0
 19 32  1  0  0  0  0
 19 33  2  0  0  0  0
 19 34  1  0  0  0  0
 20 22  2  0  0  0  0
 20 40  1  0  0  0  0
 21 23  2  0  0  0  0
 21 41  1  0  0  0  0
 22 49  1  0  0  0  0
 23 42  1  0  0  0  0
 24 26  2  0  0  0  0
 24 52  1  0  0  0  0
 25 72  1  0  0  0  0
 26 69  1  0  0  0  0
 27 80  1  0  0  0  0
 28 81  1  0  0  0  0
 29 31  2  0  0  0  0
 29 80  1  0  0  0  0
 30 82  1  0  0  0  0
 31 83  1  0  0  0  0
 32 63  2  0  0  0  0
 33 64  1  0  0  0  0
 33 67  1  0  0  0  0
 34 68  1  0  0  0  0
 34 74  2  0  0  0  0
 35 50  1  0  0  0  0
 35 70  1  0  0  0  0
 35 75  2  0  0  0  0
 36 60  1  0  0  0  0
 36 65  1  0  0  0  0
 36 76  2  0  0  0  0
 37 59  1  0  0  0  0
 37 72  1  0  0  0  0
 37 77  2  0  0  0  0
 38 61  1  0  0  0  0
 38 71  1  0  0  0  0
 38 78  2  0  0  0  0
 39 66  1  0  0  0  0
 39 69  1  0  0  0  0
 39 79  2  0  0  0  0
 40 43  1  0  0  0  0
 41 50  1  0  0  0  0
 42 65  1  0  0  0  0
 43 45  1  0  0  0  0
 44 46  1  0  0  0  0
 44 47  1  0  0  0  0
 45 49  1  0  0  0  0
 46 51  1  0  0  0  0
 47 66  1  0  0  0  0
 48 51  1  0  0  0  0
 48 66  1  0  0  0  0
 49 70  1  0  0  0  0
 50 65  1  0  0  0  0
 51 64  1  0  0  0  0
 53 61  1  0  0  0  0
 54 62  1  0  0  0  0
 55 62  1  0  0  0  0
 56 62  1  0  0  0  0
 57 72  1  0  0  0  0
 58 73  1  0  0  0  0
 59 81  1  0  0  0  0
 60 62  1  0  0  0  0
 60 71  1  0  0  0  0
 61 73  1  0  0  0  0
 63 64  1  0  0  0  0
M  CHG  1  73   1
M  ISO  4  39 100  59 101  69 100  81 101
M  END
> <Batch ID>
0008

> <Smiles>
CNC(C)C(=O)NC(C(=O)N1Cc2cc([101O:1][101CH2:1]C(=O)N(C)c3ccc(C)c([100NH:0][100C:0](=O)N4CCCC(n5nc(-c6ccc(Oc7ccc(F)cc7F)cc6)c(C(N)=O)c5N)C4)c3)ccc2CC1C(=O)NC1CCCc2ccccc21)C(C)(C)C

> <Shape>
0.356

> <Color>
0.106

> <Negative vol penalty>
0.000

$$$$

  -OEChem-04052315363D

 82 90  0     1  0  0  0  0  0999 V2000
  -25.5123  -37.7306   22.2187 C   0  0  0  0  0  0  0  0  0  0  0  0
  -26.2941  -36.6714   21.7691 C   0  0  0  0  0  0  0  0  0  0  0  0
  -26.4696  -11.6758   21.2428 C   0  0  0  0  0  0  0  0  0  0  0  0
  -25.3628  -13.3324   19.8761 C   0  0  0  0  0  0  0  0  0  0  0  0
  -24.5164  -37.5066   23.1685 C   0  0  0  0  0  0  0  0  0  0  0  0
  -26.0812  -35.3875   22.2699 C   0  0  0  0  0  0  0  0  0  0  0  0
  -26.6628  -30.1053   19.2258 C   0  0  0  0  0  0  0  0  0  0  0  0
  -25.2345  -11.1068   21.5533 C   0  0  0  0  0  0  0  0  0  0  0  0
  -24.1277  -12.7633   20.1866 C   0  0  0  0  0  0  0  0  0  0  0  0
  -27.6908  -29.1654   19.1661 C   0  0  0  0  0  0  0  0  0  0  0  0
  -22.4018   -8.9983   22.4165 C   0  0  0  0  0  0  0  0  0  0  0  0
  -22.2962   -7.6085   22.3630 C   0  0  0  0  0  0  0  0  0  0  0  0
  -26.5837  -27.8558   20.8627 C   0  0  0  0  0  0  0  0  0  0  0  0
  -27.8525  -22.7448   19.7738 C   0  0  0  0  0  0  0  0  0  0  0  0
  -30.1447  -22.8067   19.0129 C   0  0  0  0  0  0  0  0  0  0  0  0
  -22.8935   -7.6533   20.0224 C   0  0  0  0  0  0  0  0  0  0  0  0
  -26.5337  -12.7886   20.4042 C   0  0  0  0  0  0  0  0  0  0  0  0
  -28.6498  -13.0480   19.0033 C   0  0  0  0  0  0  0  0  0  0  0  0
  -24.2848  -36.2176   23.6739 C   0  0  0  0  0  0  0  0  0  0  0  0
  -25.5912  -29.9327   20.1137 C   0  0  0  0  0  0  0  0  0  0  0  0
  -25.0822  -35.1462   23.2282 C   0  0  0  0  0  0  0  0  0  0  0  0
  -25.5421  -28.7936   20.9299 C   0  0  0  0  0  0  0  0  0  0  0  0
  -28.0649  -21.4750   20.3105 C   0  0  0  0  0  0  0  0  0  0  0  0
  -30.3571  -21.5368   19.5496 C   0  0  0  0  0  0  0  0  0  0  0  0
  -29.3172  -20.8710   20.1984 C   0  0  0  0  0  0  0  0  0  0  0  0
  -24.0636  -11.6505   21.0252 C   0  0  0  0  0  0  0  0  0  0  0  0
  -27.6528  -28.0419   19.9866 C   0  0  0  0  0  0  0  0  0  0  0  0
  -22.7531   -9.7157   21.2729 C   0  0  0  0  0  0  0  0  0  0  0  0
  -28.8924  -23.4106   19.1249 C   0  0  0  0  0  0  0  0  0  0  0  0
  -22.5421   -6.9360   21.1660 C   0  0  0  0  0  0  0  0  0  0  0  0
  -22.9990   -9.0431   20.0759 C   0  0  0  0  0  0  0  0  0  0  0  0
  -27.8092  -13.3772   20.0835 C   0  0  0  0  0  0  0  0  0  0  0  0
  -29.7301  -13.8850   19.1415 C   0  0  0  0  0  0  0  0  0  0  0  0
  -28.4703  -12.0730   17.9676 C   0  0  0  0  0  0  0  0  0  0  0  0
  -24.4453  -31.5629   22.5902 C   0  0  0  0  0  0  0  0  0  0  0  0
  -22.0784  -29.3489   22.4540 C   0  0  0  0  0  0  0  0  0  0  0  0
  -21.0828  -26.2270   21.5003 C   0  0  0  0  0  0  0  0  0  0  0  0
  -30.4540  -19.2229   21.7275 C   0  0  0  0  0  0  0  0  0  0  0  0
  -23.2283  -36.0327   24.7343 C   0  0  0  0  0  0  0  0  0  0  0  0
  -24.4767  -30.9423   20.1469 C   0  0  0  0  0  0  0  0  0  0  0  0
  -24.4036  -28.5515   21.8857 C   0  0  0  0  0  0  0  0  0  0  0  0
  -22.8173  -34.5766   24.9373 C   0  0  0  0  0  0  0  0  0  0  0  0
  -32.2438  -16.2363   22.4712 C   0  0  0  0  0  0  0  0  0  0  0  0
  -24.0493  -33.6816   25.0266 C   0  0  0  0  0  0  0  0  0  0  0  0
  -31.3894  -15.1348   21.8397 C   0  0  0  0  0  0  0  0  0  0  0  0
  -31.3840  -17.3489   23.0683 C   0  0  0  0  0  0  0  0  0  0  0  0
  -29.5404  -16.8276   21.5197 C   0  0  0  0  0  0  0  0  0  0  0  0
  -24.8651  -33.7348   23.7292 C   0  0  1  0  0  0  0  0  0  0  0  0
  -23.6938  -30.9251   21.4561 C   0  0  1  0  0  0  0  0  0  0  0  0
  -30.3634  -15.7165   20.8475 C   0  0  2  0  0  0  0  0  0  0  0  0
  -26.9317  -20.7870   21.0004 C   0  0  0  0  0  0  0  0  0  0  0  0
  -31.7094  -20.9155   19.4122 C   0  0  0  0  0  0  0  0  0  0  0  0
  -19.1020  -24.6874   21.5587 C   0  0  0  0  0  0  0  0  0  0  0  0
  -22.6072  -28.7845   25.4056 C   0  0  0  0  0  0  0  0  0  0  0  0
  -21.3160  -26.6539   25.1577 C   0  0  0  0  0  0  0  0  0  0  0  0
  -20.1886  -28.8455   24.7721 C   0  0  0  0  0  0  0  0  0  0  0  0
  -20.9479  -26.1000   18.5465 C   0  0  0  0  0  0  0  0  0  0  0  0
  -29.3208  -26.9634   18.6787 C   0  0  0  0  0  0  0  0  0  1  0  0
  -29.8043  -25.5316   18.5541 C   0  0  0  0  0  0  0  0  0  0  0  0
  -21.8495  -27.9894   23.0690 C   0  0  1  0  0  0  0  0  0  0  0  0
  -19.8476  -25.7457   20.7607 C   0  0  2  0  0  0  0  0  0  0  0  0
  -21.5129  -28.0736   24.5846 C   0  0  0  0  0  0  0  0  0  0  0  0
  -28.3122  -14.3475   20.8513 N   0  0  0  0  0  0  0  0  0  0  0  0
  -29.4807  -14.6351   20.2529 N   0  0  0  0  0  0  0  0  0  0  0  0
  -23.3410  -29.5705   21.8860 N   0  0  0  0  0  0  0  0  0  0  0  0
  -30.4392  -17.8543   22.0700 N   0  0  0  0  0  0  0  0  0  0  0  0
  -30.8595  -14.0450   18.4195 N   0  0  0  0  0  0  0  0  0  0  0  0
  -27.3026  -11.2978   17.9750 N   0  0  0  0  0  0  0  0  0  0  0  0
  -29.5330  -19.5810   20.7435 N   0  0  0  0  0  0  0  0  0  0  0  0
  -24.2402  -32.9245   22.7058 N   0  0  0  0  0  0  0  0  0  0  0  0
  -20.8184  -27.3450   22.2628 N   0  0  0  0  0  0  0  0  0  0  0  0
  -20.2275  -25.1605   19.4439 N   0  3  0  0  0  0  0  0  0  0  0  0
  -29.3276  -11.8830   17.0719 O   0  0  0  0  0  0  0  0  0  0  0  0
  -25.1573  -30.8706   23.3082 O   0  0  0  0  0  0  0  0  0  0  0  0
  -21.1680  -30.1811   22.4704 O   0  0  0  0  0  0  0  0  0  0  0  0
  -22.1724  -25.6650   21.4134 O   0  0  0  0  0  0  0  0  0  0  0  0
  -31.2453  -20.0136   22.2477 O   0  0  0  0  0  0  0  0  0  0  0  0
  -22.8583  -11.0954   21.3279 O   0  0  0  0  0  0  0  0  0  0  0  0
  -28.6552  -27.1233   19.9308 O   0  0  0  0  0  0  0  0  0  1  0  0
  -28.6832  -24.6572   18.5963 O   0  0  0  0  0  0  0  0  0  0  0  0
  -22.4423   -5.6012   21.1151 F   0  0  0  0  0  0  0  0  0  0  0  0
  -23.3381   -9.7267   18.9743 F   0  0  0  0  0  0  0  0  0  0  0  0
  1  2  1  0  0  0  0
  1  5  2  0  0  0  0
  2  6  2  0  0  0  0
  3  8  2  0  0  0  0
  3 17  1  0  0  0  0
  4  9  1  0  0  0  0
  4 17  2  0  0  0  0
  5 19  1  0  0  0  0
  6 21  1  0  0  0  0
  7 10  2  0  0  0  0
  7 20  1  0  0  0  0
  8 26  1  0  0  0  0
  9 26  2  0  0  0  0
 10 27  1  0  0  0  0
 11 12  2  0  0  0  0
 11 28  1  0  0  0  0
 12 30  1  0  0  0  0
 13 22  1  0  0  0  0
 13 27  2  0  0  0  0
 14 23  2  0  0  0  0
 14 29  1  0  0  0  0
 15 24  1  0  0  0  0
 15 29  2  0  0  0  0
 16 30  2  0  0  0  0
 16 31  1  0  0  0  0
 17 32  1  0  0  0  0
 18 32  1  0  0  0  0
 18 33  2  0  0  0  0
 18 34  1  0  0  0  0
 19 21  2  0  0  0  0
 19 39  1  0  0  0  0
 20 22  2  0  0  0  0
 20 40  1  0  0  0  0
 21 48  1  0  0  0  0
 22 41  1  0  0  0  0
 23 25  1  0  0  0  0
 23 51  1  0  0  0  0
 24 25  2  0  0  0  0
 24 52  1  0  0  0  0
 25 69  1  0  0  0  0
 26 78  1  0  0  0  0
 27 79  1  0  0  0  0
 28 31  2  0  0  0  0
 28 78  1  0  0  0  0
 29 80  1  0  0  0  0
 30 81  1  0  0  0  0
 31 82  1  0  0  0  0
 32 63  2  0  0  0  0
 33 64  1  0  0  0  0
 33 67  1  0  0  0  0
 34 68  1  0  0  0  0
 34 73  2  0  0  0  0
 35 49  1  0  0  0  0
 35 70  1  0  0  0  0
 35 74  2  0  0  0  0
 36 60  1  0  0  0  0
 36 65  1  0  0  0  0
 36 75  2  0  0  0  0
 37 61  1  0  0  0  0
 37 71  1  0  0  0  0
 37 76  2  0  0  0  0
 38 66  1  0  0  0  0
 38 69  1  0  0  0  0
 38 77  2  0  0  0  0
 39 42  1  0  0  0  0
 40 49  1  0  0  0  0
 41 65  1  0  0  0  0
 42 44  1  0  0  0  0
 43 45  1  0  0  0  0
 43 46  1  0  0  0  0
 44 48  1  0  0  0  0
 45 50  1  0  0  0  0
 46 66  1  0  0  0  0
 47 50  1  0  0  0  0
 47 66  1  0  0  0  0
 48 70  1  0  0  0  0
 49 65  1  0  0  0  0
 50 64  1  0  0  0  0
 53 61  1  0  0  0  0
 54 62  1  0  0  0  0
 55 62  1  0  0  0  0
 56 62  1  0  0  0  0
 57 72  1  0  0  0  0
 58 59  1  0  0  0  0
 58 79  1  0  0  0  0
 59 80  1  0  0  0  0
 60 62  1  0  0  0  0
 60 71  1  0  0  0  0
 61 72  1  0  0  0  0
 63 64  1  0  0  0  0
M  CHG  1  72   1
M  ISO  4  38 100  58 101  69 100  79 101
M  END
> <Batch ID>
0008

> <Smiles>
CNC(C)C(=O)NC(C(=O)N1Cc2cc([101O:1][101CH2:1]COc3cc(C)c([100NH:0][100C:0](=O)N4CCCC(n5nc(-c6ccc(Oc7ccc(F)cc7F)cc6)c(C(N)=O)c5N)C4)c(C)c3)ccc2CC1C(=O)NC1CCCc2ccccc21)C(C)(C)C

> <Shape>
0.384

> <Color>
0.070

> <Negative vol penalty>
0.000

$$$$

  -OEChem-04052315363D

 84 92  0     1  0  0  0  0  0999 V2000
  -33.8194  -35.1000   22.2559 C   0  0  0  0  0  0  0  0  0  0  0  0
  -33.8249  -33.7097   22.3048 C   0  0  0  0  0  0  0  0  0  0  0  0
  -23.0693   -9.8851   19.9316 C   0  0  0  0  0  0  0  0  0  0  0  0
  -23.8475   -9.8600   22.2187 C   0  0  0  0  0  0  0  0  0  0  0  0
  -32.7451  -35.8109   22.7893 C   0  0  0  0  0  0  0  0  0  0  0  0
  -32.7565  -33.0294   22.8881 C   0  0  0  0  0  0  0  0  0  0  0  0
  -30.4519  -27.6238   21.1636 C   0  0  0  0  0  0  0  0  0  0  0  0
  -22.3279   -8.7281   20.1711 C   0  0  0  0  0  0  0  0  0  0  0  0
  -23.1061   -8.7030   22.4583 C   0  0  0  0  0  0  0  0  0  0  0  0
  -30.6413  -26.3279   21.6416 C   0  0  0  0  0  0  0  0  0  0  0  0
  -19.8832   -7.8950   23.0752 C   0  0  0  0  0  0  0  0  0  0  0  0
  -19.1356   -7.8381   24.2514 C   0  0  0  0  0  0  0  0  0  0  0  0
  -28.6521  -26.5408   22.9895 C   0  0  0  0  0  0  0  0  0  0  0  0
  -31.1463  -17.7076   20.6339 C   0  0  0  0  0  0  0  0  0  0  0  0
  -29.6996  -19.2576   22.4470 C   0  0  0  0  0  0  0  0  0  0  0  0
  -20.3837   -5.8911   24.9504 C   0  0  0  0  0  0  0  0  0  0  0  0
  -23.8291  -10.4510   20.9554 C   0  0  0  0  0  0  0  0  0  0  0  0
  -24.1689  -12.9778   20.8684 C   0  0  0  0  0  0  0  0  0  0  0  0
  -31.6585  -35.1387   23.3707 C   0  0  0  0  0  0  0  0  0  0  0  0
  -29.3653  -28.3932   21.6041 C   0  0  0  0  0  0  0  0  0  0  0  0
  -31.6673  -33.7321   23.4309 C   0  0  0  0  0  0  0  0  0  0  0  0
  -28.4497  -27.8453   22.5137 C   0  0  0  0  0  0  0  0  0  0  0  0
  -30.2537  -17.0982   21.5157 C   0  0  0  0  0  0  0  0  0  0  0  0
  -30.5923  -19.8669   21.5653 C   0  0  0  0  0  0  0  0  0  0  0  0
  -22.3463   -8.1371   21.4344 C   0  0  0  0  0  0  0  0  0  0  0  0
  -29.7430  -25.7872   22.5569 C   0  0  0  0  0  0  0  0  0  0  0  0
  -20.8809   -6.9499   22.8365 C   0  0  0  0  0  0  0  0  0  0  0  0
  -31.3157  -19.0919   20.6588 C   0  0  0  0  0  0  0  0  0  0  0  0
  -19.3859   -6.8362   25.1890 C   0  0  0  0  0  0  0  0  0  0  0  0
  -29.5303  -17.8732   22.4222 C   0  0  0  0  0  0  0  0  0  0  0  0
  -21.1312   -5.9480   23.7741 C   0  0  0  0  0  0  0  0  0  0  0  0
  -24.5956  -11.6458   20.7084 C   0  0  0  0  0  0  0  0  0  0  0  0
  -25.2578  -13.7329   20.5071 C   0  0  0  0  0  0  0  0  0  0  0  0
  -22.9016  -13.4869   21.3048 C   0  0  0  0  0  0  0  0  0  0  0  0
  -29.0511  -31.1347   23.1819 C   0  0  0  0  0  0  0  0  0  0  0  0
  -25.9036  -30.6993   22.5292 C   0  0  0  0  0  0  0  0  0  0  0  0
  -30.1097  -22.1764   22.4413 C   0  0  0  0  0  0  0  0  0  0  0  0
  -23.3714  -28.5360   21.7844 C   0  0  0  0  0  0  0  0  0  0  0  0
  -30.7248  -14.7788   20.6529 C   0  0  0  0  0  0  0  0  0  0  0  0
  -30.5419  -35.9517   23.9764 C   0  0  0  0  0  0  0  0  0  0  0  0
  -29.1601  -29.7798   21.0585 C   0  0  0  0  0  0  0  0  0  0  0  0
  -27.2557  -28.6225   23.0024 C   0  0  0  0  0  0  0  0  0  0  0  0
  -29.2743  -35.1434   24.2412 C   0  0  0  0  0  0  0  0  0  0  0  0
  -29.5925  -12.3982   18.2597 C   0  0  0  0  0  0  0  0  0  0  0  0
  -29.6161  -33.8230   24.9242 C   0  0  0  0  0  0  0  0  0  0  0  0
  -28.1565  -12.0998   18.6965 C   0  0  0  0  0  0  0  0  0  0  0  0
  -30.5171  -12.6104   19.4571 C   0  0  0  0  0  0  0  0  0  0  0  0
  -28.6210  -13.3142   20.8637 C   0  0  0  0  0  0  0  0  0  0  0  0
  -30.5152  -32.9574   24.0332 C   0  0  1  0  0  0  0  0  0  0  0  0
  -28.3060  -30.6589   21.9669 C   0  0  1  0  0  0  0  0  0  0  0  0
  -27.6388  -13.1572   19.6913 C   0  0  2  0  0  0  0  0  0  0  0  0
  -20.9014  -28.4706   21.3459 C   0  0  0  0  0  0  0  0  0  0  0  0
  -25.3673  -31.0293   25.5147 C   0  0  0  0  0  0  0  0  0  0  0  0
  -23.1014  -30.0301   25.1472 C   0  0  0  0  0  0  0  0  0  0  0  0
  -23.7148  -32.1720   24.0254 C   0  0  0  0  0  0  0  0  0  0  0  0
  -23.7671  -27.4655   19.0537 C   0  0  0  0  0  0  0  0  0  0  0  0
  -31.6773  -20.0699   18.5213 C   0  0  0  0  0  0  0  0  0  0  0  0
  -30.5689  -23.5938   22.1539 C   0  0  0  0  0  0  0  0  0  1  0  0
  -24.7531  -30.0110   23.2231 C   0  0  1  0  0  0  0  0  0  0  0  0
  -22.2851  -28.5832   20.7251 C   0  0  2  0  0  0  0  0  0  0  0  0
  -24.2576  -30.7964   24.4701 C   0  0  0  0  0  0  0  0  0  0  0  0
  -25.8571  -11.5566   20.2787 N   0  0  0  0  0  0  0  0  0  0  0  0
  -26.2325  -12.8420   20.1656 N   0  0  0  0  0  0  0  0  0  0  0  0
  -27.1019  -29.9763   22.4446 N   0  0  0  0  0  0  0  0  0  0  0  0
  -29.9647  -13.6284   20.3534 N   0  0  0  0  0  0  0  0  0  0  0  0
  -25.4671  -15.0654   20.4513 N   0  0  0  0  0  0  0  0  0  0  0  0
  -21.8928  -12.5725   21.6372 N   0  0  0  0  0  0  0  0  0  0  0  0
  -30.7527  -21.2724   21.6026 N   0  0  0  0  0  0  0  0  0  0  0  0
  -30.0836  -15.6918   21.4895 N   0  0  0  0  0  0  0  0  0  0  0  0
  -29.7346  -32.3209   22.9940 N   0  0  0  0  0  0  0  0  0  0  0  0
  -23.7300  -29.7993   22.2048 N   0  0  0  0  0  0  0  0  0  0  0  0
  -22.4578  -27.4644   19.7558 N   0  3  0  0  0  0  0  0  0  0  0  0
  -22.6654  -14.7165   21.3814 O   0  0  0  0  0  0  0  0  0  0  0  0
  -29.0079  -30.4752   24.2138 O   0  0  0  0  0  0  0  0  0  0  0  0
  -25.7428  -31.8339   22.0725 O   0  0  0  0  0  0  0  0  0  0  0  0
  -29.2794  -21.9339   23.3111 O   0  0  0  0  0  0  0  0  0  0  0  0
  -23.8510  -27.4836   22.2002 O   0  0  0  0  0  0  0  0  0  0  0  0
  -31.8501  -14.9547   20.1787 O   0  0  0  0  0  0  0  0  0  0  0  0
  -21.6228   -7.0082   21.6686 O   0  0  0  0  0  0  0  0  0  0  0  0
  -32.1927  -19.6676   19.7885 O   0  0  0  0  0  0  0  0  0  0  0  0
  -29.9259  -24.5228   23.0255 O   0  0  0  0  0  0  0  0  0  1  0  0
  -18.6690   -6.7825   26.3192 F   0  0  0  0  0  0  0  0  0  0  0  0
  -28.6711  -17.2980   23.2757 F   0  0  0  0  0  0  0  0  0  0  0  0
  -22.0892   -5.0380   23.5509 F   0  0  0  0  0  0  0  0  0  0  0  0
  1  2  1  0  0  0  0
  1  5  2  0  0  0  0
  2  6  2  0  0  0  0
  3  8  2  0  0  0  0
  3 17  1  0  0  0  0
  4  9  1  0  0  0  0
  4 17  2  0  0  0  0
  5 19  1  0  0  0  0
  6 21  1  0  0  0  0
  7 10  2  0  0  0  0
  7 20  1  0  0  0  0
  8 25  1  0  0  0  0
  9 25  2  0  0  0  0
 10 26  1  0  0  0  0
 11 12  2  0  0  0  0
 11 27  1  0  0  0  0
 12 29  1  0  0  0  0
 13 22  1  0  0  0  0
 13 26  2  0  0  0  0
 14 23  2  0  0  0  0
 14 28  1  0  0  0  0
 15 24  1  0  0  0  0
 15 30  2  0  0  0  0
 16 29  2  0  0  0  0
 16 31  1  0  0  0  0
 17 32  1  0  0  0  0
 18 32  1  0  0  0  0
 18 33  2  0  0  0  0
 18 34  1  0  0  0  0
 19 21  2  0  0  0  0
 19 40  1  0  0  0  0
 20 22  2  0  0  0  0
 20 41  1  0  0  0  0
 21 49  1  0  0  0  0
 22 42  1  0  0  0  0
 23 30  1  0  0  0  0
 23 69  1  0  0  0  0
 24 28  2  0  0  0  0
 24 68  1  0  0  0  0
 25 79  1  0  0  0  0
 26 81  1  0  0  0  0
 27 31  2  0  0  0  0
 27 79  1  0  0  0  0
 28 80  1  0  0  0  0
 29 82  1  0  0  0  0
 30 83  1  0  0  0  0
 31 84  1  0  0  0  0
 32 62  2  0  0  0  0
 33 63  1  0  0  0  0
 33 66  1  0  0  0  0
 34 67  1  0  0  0  0
 34 73  2  0  0  0  0
 35 50  1  0  0  0  0
 35 70  1  0  0  0  0
 35 74  2  0  0  0  0
 36 59  1  0  0  0  0
 36 64  1  0  0  0  0
 36 75  2  0  0  0  0
 37 58  1  0  0  0  0
 37 68  1  0  0  0  0
 37 76  2  0  0  0  0
 38 60  1  0  0  0  0
 38 71  1  0  0  0  0
 38 77  2  0  0  0  0
 39 65  1  0  0  0  0
 39 69  1  0  0  0  0
 39 78  2  0  0  0  0
 40 43  1  0  0  0  0
 41 50  1  0  0  0  0
 42 64  1  0  0  0  0
 43 45  1  0  0  0  0
 44 46  1  0  0  0  0
 44 47  1  0  0  0  0
 45 49  1  0  0  0  0
 46 51  1  0  0  0  0
 47 65  1  0  0  0  0
 48 51  1  0  0  0  0
 48 65  1  0  0  0  0
 49 70  1  0  0  0  0
 50 64  1  0  0  0  0
 51 63  1  0  0  0  0
 52 60  1  0  0  0  0
 53 61  1  0  0  0  0
 54 61  1  0  0  0  0
 55 61  1  0  0  0  0
 56 72  1  0  0  0  0
 57 80  1  0  0  0  0
 58 81  1  0  0  0  0
 59 61  1  0  0  0  0
 59 71  1  0  0  0  0
 60 72  1  0  0  0  0
 62 63  1  0  0  0  0
M  CHG  1  72   1
M  ISO  4  39 100  58 101  69 100  81 101
M  END
> <Batch ID>
0008

> <Smiles>
CNC(C)C(=O)NC(C(=O)N1Cc2cc([101O:1][101CH2:1]C(=O)Nc3cc(F)c([100NH:0][100C:0](=O)N4CCCC(n5nc(-c6ccc(Oc7ccc(F)cc7F)cc6)c(C(N)=O)c5N)C4)cc3OC)ccc2CC1C(=O)NC1CCCc2ccccc21)C(C)(C)C

> <Shape>
0.291

> <Color>
0.188

> <Negative vol penalty>
0.000

$$$$

  -OEChem-04052315363D

101109  0     1  0  0  0  0  0999 V2000
  -17.7118  -30.6994   23.6450 C   0  0  0  0  0  0  0  0  0  0  0  0
  -19.0732  -30.4799   23.4610 C   0  0  0  0  0  0  0  0  0  0  0  0
  -22.2579  -16.9928   22.9643 C   0  0  0  0  0  0  0  0  0  0  0  0
  -24.5721  -16.4446   22.5391 C   0  0  0  0  0  0  0  0  0  0  0  0
  -31.4728  -22.3673   21.2832 C   0  0  0  0  0  0  0  0  0  0  0  0
  -16.8187  -29.6311   23.5734 C   0  0  0  0  0  0  0  0  0  0  0  0
  -19.5424  -29.1917   23.2063 C   0  0  0  0  0  0  0  0  0  0  0  0
  -22.9508  -29.0706   19.4629 C   0  0  0  0  0  0  0  0  0  0  0  0
  -31.6832  -23.5386   20.5558 C   0  0  0  0  0  0  0  0  0  0  0  0
  -21.8577  -15.9765   22.0969 C   0  0  0  0  0  0  0  0  0  0  0  0
  -24.1720  -15.4282   21.6717 C   0  0  0  0  0  0  0  0  0  0  0  0
  -24.2491  -29.4749   19.7705 C   0  0  0  0  0  0  0  0  0  0  0  0
  -23.7555  -12.4536   19.6232 C   0  0  0  0  0  0  0  0  0  0  0  0
  -24.3950  -11.2187   19.7311 C   0  0  0  0  0  0  0  0  0  0  0  0
  -24.9181  -27.1647   19.9560 C   0  0  0  0  0  0  0  0  0  0  0  0
  -29.5650  -24.4021   21.3334 C   0  0  0  0  0  0  0  0  0  0  0  0
  -23.6427  -11.0291   22.0192 C   0  0  0  0  0  0  0  0  0  0  0  0
  -23.6151  -17.2270   23.1854 C   0  0  0  0  0  0  0  0  0  0  0  0
  -30.3084  -22.2133   22.0358 C   0  0  0  0  0  0  0  0  0  0  0  0
  -24.2589  -18.1719   25.4658 C   0  0  0  0  0  0  0  0  0  0  0  0
  -17.2762  -28.3307   23.3080 C   0  0  0  0  0  0  0  0  0  0  0  0
  -22.6233  -27.7081   19.4101 C   0  0  0  0  0  0  0  0  0  0  0  0
  -18.6548  -28.1049   23.1323 C   0  0  0  0  0  0  0  0  0  0  0  0
  -23.6156  -26.7456   19.6449 C   0  0  0  0  0  0  0  0  0  0  0  0
  -30.7294  -24.5560   20.5808 C   0  0  0  0  0  0  0  0  0  0  0  0
  -29.3546  -23.2307   22.0608 C   0  0  0  0  0  0  0  0  0  0  0  0
  -22.8148  -15.1941   21.4506 C   0  0  0  0  0  0  0  0  0  0  0  0
  -25.2323  -28.5219   20.0200 C   0  0  0  0  0  0  0  0  0  0  0  0
  -23.0597  -12.9763   20.7133 C   0  0  0  0  0  0  0  0  0  0  0  0
  -24.3386  -10.5065   20.9291 C   0  0  0  0  0  0  0  0  0  0  0  0
  -23.0032  -12.2641   21.9112 C   0  0  0  0  0  0  0  0  0  0  0  0
  -24.0291  -18.2771   24.0809 C   0  0  0  0  0  0  0  0  0  0  0  0
  -24.6300  -19.4375   25.8494 C   0  0  0  0  0  0  0  0  0  0  0  0
  -30.1132  -20.9874   22.7824 C   0  0  0  0  0  0  0  0  0  0  0  0
  -24.1469  -17.0322   26.3284 C   0  0  0  0  0  0  0  0  0  0  0  0
  -20.6320  -25.8161   21.0098 C   0  0  0  0  0  0  0  0  0  0  0  0
  -21.5709  -23.6224   18.8124 C   0  0  0  0  0  0  0  0  0  0  0  0
  -28.9722  -19.9787   20.7936 C   0  0  0  0  0  0  0  0  0  0  0  0
  -30.3944  -26.9818   20.3014 C   0  0  0  0  0  0  0  0  0  0  0  0
  -23.9382  -22.5827   16.5850 C   0  0  0  0  0  0  0  0  0  0  0  0
  -27.1276  -24.0182   22.9365 C   0  0  0  0  0  0  0  0  0  0  0  0
  -16.2781  -27.2002   23.2869 C   0  0  0  0  0  0  0  0  0  0  0  0
  -21.2245  -27.2880   19.0505 C   0  0  0  0  0  0  0  0  0  0  0  0
  -23.3202  -25.2701   19.5807 C   0  0  0  0  0  0  0  0  0  0  0  0
  -16.8152  -25.9255   22.6413 C   0  0  0  0  0  0  0  0  0  0  0  0
  -24.0178  -24.0385   24.6702 C   0  0  0  0  0  0  0  0  0  0  0  0
  -18.2096  -25.6056   23.1707 C   0  0  0  0  0  0  0  0  0  0  0  0
  -23.6917  -22.5538   24.8473 C   0  0  0  0  0  0  0  0  0  0  0  0
  -24.6916  -24.3150   23.3274 C   0  0  0  0  0  0  0  0  0  0  0  0
  -25.5489  -22.0078   23.2226 C   0  0  0  0  0  0  0  0  0  0  0  0
  -19.1996  -26.7259   22.8295 C   0  0  1  0  0  0  0  0  0  0  0  0
  -20.8815  -25.8807   19.5295 C   0  0  1  0  0  0  0  0  0  0  0  0
  -24.9278  -21.6705   24.5879 C   0  0  2  0  0  0  0  0  0  0  0  0
  -28.3204  -18.6893   20.4004 C   0  0  0  0  0  0  0  0  0  0  0  0
  -24.4415  -20.7334   14.9650 C   0  0  0  0  0  0  0  0  0  0  0  0
  -22.2843  -21.7817   21.1390 C   0  0  0  0  0  0  0  0  0  0  0  0
  -23.6255  -20.3972   19.5413 C   0  0  0  0  0  0  0  0  0  0  0  0
  -21.1649  -20.6437   19.2137 C   0  0  0  0  0  0  0  0  0  0  0  0
  -24.0191  -24.4547   14.2942 C   0  0  0  0  0  0  0  0  0  0  0  0
  -31.8705  -23.6666   14.0000 C   0  0  0  0  0  0  0  0  0  0  0  0
  -30.8896  -22.4202   15.9196 C   0  0  0  0  0  0  0  0  0  0  0  0
  -29.3040  -17.1018   28.1681 C   0  0  0  0  0  0  0  0  0  0  0  0
  -28.6298  -19.4715   27.8066 C   0  0  0  0  0  0  0  0  0  0  0  0
  -29.9833  -27.9927   19.2333 C   0  0  0  0  0  0  0  0  0  0  0  0
  -28.8087  -28.8673   19.6690 C   0  0  0  0  0  0  0  0  0  0  0  0
  -31.0907  -24.7655   17.5735 C   0  0  0  0  0  0  0  0  0  0  0  0
  -31.0120  -19.9356   26.2618 C   0  0  0  0  0  0  0  0  0  0  0  0
  -31.7382  -25.7072   18.5854 C   0  0  0  0  0  0  0  0  0  0  0  0
  -30.4013  -19.6769   24.8920 C   0  0  0  0  0  0  0  0  0  0  0  0
  -31.8866  -24.6738   16.2776 C   0  0  0  0  0  0  0  0  0  0  0  0
  -30.9157  -18.7167   27.1698 C   0  0  0  0  0  0  0  0  0  0  0  0
  -27.5595  -28.0394   19.9344 C   0  0  0  0  0  0  0  0  0  1  0  0
  -22.6831  -22.6054   18.7247 C   0  0  1  0  0  0  0  0  0  0  0  0
  -23.8298  -22.1140   15.1452 C   0  0  2  0  0  0  0  0  0  0  0  0
  -22.4449  -21.3847   19.6579 C   0  0  0  0  0  0  0  0  0  0  0  0
  -24.2367  -19.5119   23.6161 N   0  0  0  0  0  0  0  0  0  0  0  0
  -24.6008  -20.1944   24.7151 N   0  0  0  0  0  0  0  0  0  0  0  0
  -21.9361  -24.9096   19.2315 N   0  0  0  0  0  0  0  0  0  0  0  0
  -25.8566  -23.4449   23.1530 N   0  0  0  0  0  0  0  0  0  0  0  0
  -24.9751  -19.9656   27.0428 N   0  0  0  0  0  0  0  0  0  0  0  0
  -23.7536  -15.8081   25.7705 N   0  0  0  0  0  0  0  0  0  0  0  0
  -28.1645  -23.0934   22.8176 N   0  0  0  0  0  0  0  0  0  0  0  0
  -29.4801  -19.9783   22.1436 N   0  0  0  0  0  0  0  0  0  0  0  0
  -19.6073  -26.6353   21.4439 N   0  0  0  0  0  0  0  0  0  0  0  0
  -22.8118  -22.2620   17.3127 N   0  0  0  0  0  0  0  0  0  0  0  0
  -30.9477  -25.7724   19.8245 N   0  0  0  0  0  0  0  0  0  0  0  0
  -30.5511  -20.8735   24.0556 N   0  3  0  0  0  0  0  0  0  0  0  0
  -24.5346  -23.0626   14.2372 N   0  3  0  0  0  0  0  0  0  0  0  0
  -31.1713  -23.7817   15.3325 N   0  3  0  0  0  0  0  0  0  0  0  0
  -29.4902  -18.3330   27.3154 N   0  3  0  0  0  0  0  0  0  0  0  0
  -24.3725  -17.1011   27.5604 O   0  0  0  0  0  0  0  0  0  0  0  0
  -21.3174  -25.0767   21.7063 O   0  0  0  0  0  0  0  0  0  0  0  0
  -20.4216  -23.2890   18.5131 O   0  0  0  0  0  0  0  0  0  0  0  0
  -29.0756  -20.9526   20.0613 O   0  0  0  0  0  0  0  0  0  0  0  0
  -30.2000  -27.2477   21.4901 O   0  0  0  0  0  0  0  0  0  0  0  0
  -24.9251  -23.1708   17.0215 O   0  0  0  0  0  0  0  0  0  0  0  0
  -27.2887  -25.2404   22.8892 O   0  0  0  0  0  0  0  0  0  0  0  0
  -22.4246  -14.2021   20.6043 O   0  0  0  0  0  0  0  0  0  0  0  0
  -26.5002  -28.9139   20.3212 O   0  0  0  0  0  0  0  0  0  1  0  0
  -24.9514   -9.3199   21.0321 F   0  0  0  0  0  0  0  0  0  0  0  0
  -22.3353  -12.7606   22.9615 F   0  0  0  0  0  0  0  0  0  0  0  0
  1  2  1  0  0  0  0
  1  6  2  0  0  0  0
  2  7  2  0  0  0  0
  3 10  2  0  0  0  0
  3 18  1  0  0  0  0
  4 11  1  0  0  0  0
  4 18  2  0  0  0  0
  5  9  2  0  0  0  0
  5 19  1  0  0  0  0
  6 21  1  0  0  0  0
  7 23  1  0  0  0  0
  8 12  2  0  0  0  0
  8 22  1  0  0  0  0
  9 25  1  0  0  0  0
 10 27  1  0  0  0  0
 11 27  2  0  0  0  0
 12 28  1  0  0  0  0
 13 14  2  0  0  0  0
 13 29  1  0  0  0  0
 14 30  1  0  0  0  0
 15 24  1  0  0  0  0
 15 28  2  0  0  0  0
 16 25  2  0  0  0  0
 16 26  1  0  0  0  0
 17 30  2  0  0  0  0
 17 31  1  0  0  0  0
 18 32  1  0  0  0  0
 19 26  2  0  0  0  0
 19 34  1  0  0  0  0
 20 32  1  0  0  0  0
 20 33  2  0  0  0  0
 20 35  1  0  0  0  0
 21 23  2  0  0  0  0
 21 42  1  0  0  0  0
 22 24  2  0  0  0  0
 22 43  1  0  0  0  0
 23 51  1  0  0  0  0
 24 44  1  0  0  0  0
 25 86  1  0  0  0  0
 26 82  1  0  0  0  0
 27 98  1  0  0  0  0
 28 99  1  0  0  0  0
 29 31  2  0  0  0  0
 29 98  1  0  0  0  0
 30100  1  0  0  0  0
 31101  1  0  0  0  0
 32 76  2  0  0  0  0
 33 77  1  0  0  0  0
 33 80  1  0  0  0  0
 34 83  1  0  0  0  0
 34 87  2  0  0  0  0
 35 81  1  0  0  0  0
 35 91  2  0  0  0  0
 36 52  1  0  0  0  0
 36 84  1  0  0  0  0
 36 92  2  0  0  0  0
 37 73  1  0  0  0  0
 37 78  1  0  0  0  0
 37 93  2  0  0  0  0
 38 54  1  0  0  0  0
 38 83  1  0  0  0  0
 38 94  2  0  0  0  0
 39 64  1  0  0  0  0
 39 86  1  0  0  0  0
 39 95  2  0  0  0  0
 40 74  1  0  0  0  0
 40 85  1  0  0  0  0
 40 96  2  0  0  0  0
 41 79  1  0  0  0  0
 41 82  1  0  0  0  0
 41 97  2  0  0  0  0
 42 45  1  0  0  0  0
 43 52  1  0  0  0  0
 44 78  1  0  0  0  0
 45 47  1  0  0  0  0
 46 48  1  0  0  0  0
 46 49  1  0  0  0  0
 47 51  1  0  0  0  0
 48 53  1  0  0  0  0
 49 79  1  0  0  0  0
 50 53  1  0  0  0  0
 50 79  1  0  0  0  0
 51 84  1  0  0  0  0
 52 78  1  0  0  0  0
 53 77  1  0  0  0  0
 55 74  1  0  0  0  0
 56 75  1  0  0  0  0
 57 75  1  0  0  0  0
 58 75  1  0  0  0  0
 59 88  1  0  0  0  0
 60 89  1  0  0  0  0
 61 89  1  0  0  0  0
 62 90  1  0  0  0  0
 63 90  1  0  0  0  0
 64 65  1  0  0  0  0
 65 72  1  0  0  0  0
 66 68  1  0  0  0  0
 66 70  1  0  0  0  0
 67 69  1  0  0  0  0
 67 71  1  0  0  0  0
 68 86  1  0  0  0  0
 69 87  1  0  0  0  0
 70 89  1  0  0  0  0
 71 90  1  0  0  0  0
 72 99  1  0  0  0  0
 73 75  1  0  0  0  0
 73 85  1  0  0  0  0
 74 88  1  0  0  0  0
 76 77  1  0  0  0  0
M  CHG  4  87   1  88   1  89   1  90   1
M  ISO  4  41 100  72 101  82 100  99 101
M  END
> <Batch ID>
0008

> <Smiles>
CNC(C)C(=O)NC(C(=O)N1Cc2cc([101O:1][101CH2:1]CCC(=O)N(CCCN(C)C)c3ccc(C(=NCCCN(C)C)NC(C)=O)c([100NH:0][100C:0](=O)N4CCCC(n5nc(-c6ccc(Oc7ccc(F)cc7F)cc6)c(C(N)=O)c5N)C4)c3)ccc2CC1C(=O)NC1CCCc2ccccc21)C(C)(C)C

> <Shape>
0.197

> <Color>
0.043

> <Negative vol penalty>
0.000

$$$$

  -OEChem-04052315363D

 83 91  0     1  0  0  0  0  0999 V2000
  -33.9420  -35.0786   22.0619 C   0  0  0  0  0  0  0  0  0  0  0  0
  -33.9387  -33.6889   22.1252 C   0  0  0  0  0  0  0  0  0  0  0  0
  -23.0672   -9.8852   19.9335 C   0  0  0  0  0  0  0  0  0  0  0  0
  -23.8422   -9.8644   22.2218 C   0  0  0  0  0  0  0  0  0  0  0  0
  -32.8716  -35.8018   22.5865 C   0  0  0  0  0  0  0  0  0  0  0  0
  -32.8654  -33.0215   22.7142 C   0  0  0  0  0  0  0  0  0  0  0  0
  -30.5285  -27.6129   21.0432 C   0  0  0  0  0  0  0  0  0  0  0  0
  -22.3242   -8.7296   20.1746 C   0  0  0  0  0  0  0  0  0  0  0  0
  -23.0992   -8.7088   22.4629 C   0  0  0  0  0  0  0  0  0  0  0  0
  -30.7093  -26.3208   21.5348 C   0  0  0  0  0  0  0  0  0  0  0  0
  -19.3850   -7.9177   21.6358 C   0  0  0  0  0  0  0  0  0  0  0  0
  -18.0749   -7.8781   21.1587 C   0  0  0  0  0  0  0  0  0  0  0  0
  -28.7199  -26.5602   22.8781 C   0  0  0  0  0  0  0  0  0  0  0  0
  -29.7211  -19.2694   22.4141 C   0  0  0  0  0  0  0  0  0  0  0  0
  -31.1563  -17.6841   20.6226 C   0  0  0  0  0  0  0  0  0  0  0  0
  -18.6245   -5.9505   19.8097 C   0  0  0  0  0  0  0  0  0  0  0  0
  -23.8263  -10.4526   20.9571 C   0  0  0  0  0  0  0  0  0  0  0  0
  -24.1691  -12.9787   20.8649 C   0  0  0  0  0  0  0  0  0  0  0  0
  -31.7802  -35.1425   23.1737 C   0  0  0  0  0  0  0  0  0  0  0  0
  -29.4464  -28.3936   21.4743 C   0  0  0  0  0  0  0  0  0  0  0  0
  -31.7800  -33.7365   23.2485 C   0  0  0  0  0  0  0  0  0  0  0  0
  -28.5263  -27.8609   22.3885 C   0  0  0  0  0  0  0  0  0  0  0  0
  -29.5401  -17.8864   22.4070 C   0  0  0  0  0  0  0  0  0  0  0  0
  -31.3372  -19.0672   20.6297 C   0  0  0  0  0  0  0  0  0  0  0  0
  -30.6196  -19.8598   21.5254 C   0  0  0  0  0  0  0  0  0  0  0  0
  -30.2577  -17.0937   21.5113 C   0  0  0  0  0  0  0  0  0  0  0  0
  -22.3401   -8.1414   21.4393 C   0  0  0  0  0  0  0  0  0  0  0  0
  -29.8065  -25.7953   22.4546 C   0  0  0  0  0  0  0  0  0  0  0  0
  -20.3149   -6.9738   21.1998 C   0  0  0  0  0  0  0  0  0  0  0  0
  -17.6946   -6.8945   20.2456 C   0  0  0  0  0  0  0  0  0  0  0  0
  -19.9346   -5.9902   20.2868 C   0  0  0  0  0  0  0  0  0  0  0  0
  -24.5945  -11.6459   20.7085 C   0  0  0  0  0  0  0  0  0  0  0  0
  -25.2594  -13.7318   20.5034 C   0  0  0  0  0  0  0  0  0  0  0  0
  -22.9018  -13.4903   21.2984 C   0  0  0  0  0  0  0  0  0  0  0  0
  -29.1478  -31.1532   23.0233 C   0  0  0  0  0  0  0  0  0  0  0  0
  -25.9983  -30.7310   22.3714 C   0  0  0  0  0  0  0  0  0  0  0  0
  -30.1506  -22.1812   22.3769 C   0  0  0  0  0  0  0  0  0  0  0  0
  -23.4533  -28.5761   21.6461 C   0  0  0  0  0  0  0  0  0  0  0  0
  -30.7274  -14.7718   20.6544 C   0  0  0  0  0  0  0  0  0  0  0  0
  -30.6680  -35.9687   23.7696 C   0  0  0  0  0  0  0  0  0  0  0  0
  -29.2506  -29.7758   20.9142 C   0  0  0  0  0  0  0  0  0  0  0  0
  -27.3367  -28.6507   22.8678 C   0  0  0  0  0  0  0  0  0  0  0  0
  -29.3951  -35.1712   24.0412 C   0  0  0  0  0  0  0  0  0  0  0  0
  -29.5956  -12.3871   18.2650 C   0  0  0  0  0  0  0  0  0  0  0  0
  -29.7277  -33.8559   24.7383 C   0  0  0  0  0  0  0  0  0  0  0  0
  -28.1586  -12.0913   18.7005 C   0  0  0  0  0  0  0  0  0  0  0  0
  -30.5188  -12.6009   19.4632 C   0  0  0  0  0  0  0  0  0  0  0  0
  -28.6216  -13.3101   20.8655 C   0  0  0  0  0  0  0  0  0  0  0  0
  -30.6224  -32.9755   23.8574 C   0  0  1  0  0  0  0  0  0  0  0  0
  -28.4010  -30.6696   21.8124 C   0  0  1  0  0  0  0  0  0  0  0  0
  -27.6408  -13.1515   19.6922 C   0  0  2  0  0  0  0  0  0  0  0  0
  -28.5698  -17.2815   23.3689 C   0  0  0  0  0  0  0  0  0  0  0  0
  -32.3060  -19.6731   19.6669 C   0  0  0  0  0  0  0  0  0  0  0  0
  -20.9834  -28.5216   21.2055 C   0  0  0  0  0  0  0  0  0  0  0  0
  -25.4608  -31.0953   25.3527 C   0  0  0  0  0  0  0  0  0  0  0  0
  -23.1890  -30.1066   24.9929 C   0  0  0  0  0  0  0  0  0  0  0  0
  -23.8172  -32.2329   23.8497 C   0  0  0  0  0  0  0  0  0  0  0  0
  -23.8452  -27.4748   18.9272 C   0  0  0  0  0  0  0  0  0  0  0  0
  -30.6191  -23.5927   22.0754 C   0  0  0  0  0  0  0  0  0  1  0  0
  -24.8427  -30.0571   23.0710 C   0  0  1  0  0  0  0  0  0  0  0  0
  -22.3685  -28.6191   20.5851 C   0  0  2  0  0  0  0  0  0  0  0  0
  -24.3508  -30.8586   24.3093 C   0  0  0  0  0  0  0  0  0  0  0  0
  -25.8565  -11.5543   20.2807 N   0  0  0  0  0  0  0  0  0  0  0  0
  -26.2335  -12.8391   20.1652 N   0  0  0  0  0  0  0  0  0  0  0  0
  -27.1920  -29.9996   22.2957 N   0  0  0  0  0  0  0  0  0  0  0  0
  -29.9664  -13.6216   20.3565 N   0  0  0  0  0  0  0  0  0  0  0  0
  -25.4703  -15.0639   20.4449 N   0  0  0  0  0  0  0  0  0  0  0  0
  -21.8915  -12.5779   21.6315 N   0  0  0  0  0  0  0  0  0  0  0  0
  -30.7887  -21.2646   21.5483 N   0  0  0  0  0  0  0  0  0  0  0  0
  -30.0861  -15.6874   21.4881 N   0  0  0  0  0  0  0  0  0  0  0  0
  -29.8389  -32.3331   22.8240 N   0  0  0  0  0  0  0  0  0  0  0  0
  -23.8194  -29.8414   22.0538 N   0  0  0  0  0  0  0  0  0  0  0  0
  -22.5352  -27.4893   19.6277 N   0  3  0  0  0  0  0  0  0  0  0  0
  -22.6668  -14.7203   21.3719 O   0  0  0  0  0  0  0  0  0  0  0  0
  -29.0992  -30.5047   24.0619 O   0  0  0  0  0  0  0  0  0  0  0  0
  -25.8452  -31.8618   21.9029 O   0  0  0  0  0  0  0  0  0  0  0  0
  -29.3178  -21.9531   23.2481 O   0  0  0  0  0  0  0  0  0  0  0  0
  -23.9258  -27.5250   22.0734 O   0  0  0  0  0  0  0  0  0  0  0  0
  -31.8535  -14.9453   20.1814 O   0  0  0  0  0  0  0  0  0  0  0  0
  -21.6150   -7.0140   21.6750 O   0  0  0  0  0  0  0  0  0  0  0  0
  -29.9809  -24.5347   22.9365 O   0  0  0  0  0  0  0  0  0  1  0  0
  -16.4361   -6.8556   19.7887 F   0  0  0  0  0  0  0  0  0  0  0  0
  -20.8232   -5.0800   19.8652 F   0  0  0  0  0  0  0  0  0  0  0  0
  1  2  1  0  0  0  0
  1  5  2  0  0  0  0
  2  6  2  0  0  0  0
  3  8  2  0  0  0  0
  3 17  1  0  0  0  0
  4  9  1  0  0  0  0
  4 17  2  0  0  0  0
  5 19  1  0  0  0  0
  6 21  1  0  0  0  0
  7 10  2  0  0  0  0
  7 20  1  0  0  0  0
  8 27  1  0  0  0  0
  9 27  2  0  0  0  0
 10 28  1  0  0  0  0
 11 12  2  0  0  0  0
 11 29  1  0  0  0  0
 12 30  1  0  0  0  0
 13 22  1  0  0  0  0
 13 28  2  0  0  0  0
 14 23  2  0  0  0  0
 14 25  1  0  0  0  0
 15 24  1  0  0  0  0
 15 26  2  0  0  0  0
 16 30  2  0  0  0  0
 16 31  1  0  0  0  0
 17 32  1  0  0  0  0
 18 32  1  0  0  0  0
 18 33  2  0  0  0  0
 18 34  1  0  0  0  0
 19 21  2  0  0  0  0
 19 40  1  0  0  0  0
 20 22  2  0  0  0  0
 20 41  1  0  0  0  0
 21 49  1  0  0  0  0
 22 42  1  0  0  0  0
 23 26  1  0  0  0  0
 23 52  1  0  0  0  0
 24 25  2  0  0  0  0
 24 53  1  0  0  0  0
 25 69  1  0  0  0  0
 26 70  1  0  0  0  0
 27 80  1  0  0  0  0
 28 81  1  0  0  0  0
 29 31  2  0  0  0  0
 29 80  1  0  0  0  0
 30 82  1  0  0  0  0
 31 83  1  0  0  0  0
 32 63  2  0  0  0  0
 33 64  1  0  0  0  0
 33 67  1  0  0  0  0
 34 68  1  0  0  0  0
 34 74  2  0  0  0  0
 35 50  1  0  0  0  0
 35 71  1  0  0  0  0
 35 75  2  0  0  0  0
 36 60  1  0  0  0  0
 36 65  1  0  0  0  0
 36 76  2  0  0  0  0
 37 59  1  0  0  0  0
 37 69  1  0  0  0  0
 37 77  2  0  0  0  0
 38 61  1  0  0  0  0
 38 72  1  0  0  0  0
 38 78  2  0  0  0  0
 39 66  1  0  0  0  0
 39 70  1  0  0  0  0
 39 79  2  0  0  0  0
 40 43  1  0  0  0  0
 41 50  1  0  0  0  0
 42 65  1  0  0  0  0
 43 45  1  0  0  0  0
 44 46  1  0  0  0  0
 44 47  1  0  0  0  0
 45 49  1  0  0  0  0
 46 51  1  0  0  0  0
 47 66  1  0  0  0  0
 48 51  1  0  0  0  0
 48 66  1  0  0  0  0
 49 71  1  0  0  0  0
 50 65  1  0  0  0  0
 51 64  1  0  0  0  0
 54 61  1  0  0  0  0
 55 62  1  0  0  0  0
 56 62  1  0  0  0  0
 57 62  1  0  0  0  0
 58 73  1  0  0  0  0
 59 81  1  0  0  0  0
 60 62  1  0  0  0  0
 60 72  1  0  0  0  0
 61 73  1  0  0  0  0
 63 64  1  0  0  0  0
M  CHG  1  73   1
M  ISO  4  39 100  59 101  70 100  81 101
M  END
> <Batch ID>
0008

> <Smiles>
CNC(C)C(=O)NC(C(=O)N1Cc2cc([101O:1][101CH2:1]C(=O)Nc3cc(C)c([100NH:0][100C:0](=O)N4CCCC(n5nc(-c6ccc(Oc7ccc(F)cc7F)cc6)c(C(N)=O)c5N)C4)cc3C)ccc2CC1C(=O)NC1CCCc2ccccc21)C(C)(C)C

> <Shape>
0.269

> <Color>
0.192

> <Negative vol penalty>
0.000

$$$$

  -OEChem-04052315363D

 81 89  0     1  0  0  0  0  0999 V2000
  -44.0110  -20.6788   19.3667 C   0  0  0  0  0  0  0  0  0  0  0  0
  -43.0884  -20.0502   20.1968 C   0  0  0  0  0  0  0  0  0  0  0  0
  -23.0753   -9.8685   19.9403 C   0  0  0  0  0  0  0  0  0  0  0  0
  -23.8352   -9.8743   22.2337 C   0  0  0  0  0  0  0  0  0  0  0  0
  -43.6332  -21.8004   18.6297 C   0  0  0  0  0  0  0  0  0  0  0  0
  -41.7876  -20.5437   20.2914 C   0  0  0  0  0  0  0  0  0  0  0  0
  -36.6606  -17.2840   21.0617 C   0  0  0  0  0  0  0  0  0  0  0  0
  -22.3311   -8.7155   20.1897 C   0  0  0  0  0  0  0  0  0  0  0  0
  -23.0910   -8.7212   22.4831 C   0  0  0  0  0  0  0  0  0  0  0  0
  -35.8953  -16.9920   22.1900 C   0  0  0  0  0  0  0  0  0  0  0  0
  -19.8626   -7.9240   23.0853 C   0  0  0  0  0  0  0  0  0  0  0  0
  -19.1056   -7.8837   24.2562 C   0  0  0  0  0  0  0  0  0  0  0  0
  -34.4289  -18.8340   21.6647 C   0  0  0  0  0  0  0  0  0  0  0  0
  -32.0644  -16.6042   22.5498 C   0  0  0  0  0  0  0  0  0  0  0  0
  -30.4734  -18.3394   24.0466 C   0  0  0  0  0  0  0  0  0  0  0  0
  -20.3465   -5.9456   24.9917 C   0  0  0  0  0  0  0  0  0  0  0  0
  -23.8274  -10.4479   20.9623 C   0  0  0  0  0  0  0  0  0  0  0  0
  -24.1699  -12.9730   20.8434 C   0  0  0  0  0  0  0  0  0  0  0  0
  -42.3244  -22.3021   18.7079 C   0  0  0  0  0  0  0  0  0  0  0  0
  -36.3215  -18.3618   20.2311 C   0  0  0  0  0  0  0  0  0  0  0  0
  -41.3923  -21.6739   19.5558 C   0  0  0  0  0  0  0  0  0  0  0  0
  -35.1900  -19.1360   20.5251 C   0  0  0  0  0  0  0  0  0  0  0  0
  -30.6784  -16.5890   22.3940 C   0  0  0  0  0  0  0  0  0  0  0  0
  -31.8595  -18.3546   24.2023 C   0  0  0  0  0  0  0  0  0  0  0  0
  -22.3389   -8.1418   21.4611 C   0  0  0  0  0  0  0  0  0  0  0  0
  -34.7810  -17.7688   22.4932 C   0  0  0  0  0  0  0  0  0  0  0  0
  -20.8615   -6.9750   22.8676 C   0  0  0  0  0  0  0  0  0  0  0  0
  -32.6550  -17.4870   23.4539 C   0  0  0  0  0  0  0  0  0  1  0  0
  -19.3476   -6.8945   25.2094 C   0  0  0  0  0  0  0  0  0  0  0  0
  -29.8829  -17.4565   23.1425 C   0  0  0  0  0  0  0  0  0  0  0  0
  -21.1035   -5.9858   23.8208 C   0  0  0  0  0  0  0  0  0  0  0  0
  -24.5968  -11.6387   20.7051 C   0  0  0  0  0  0  0  0  0  0  0  0
  -25.2622  -13.7224   20.4805 C   0  0  0  0  0  0  0  0  0  0  0  0
  -22.8995  -13.4890   21.2626 C   0  0  0  0  0  0  0  0  0  0  0  0
  -37.7525  -21.0657   19.3684 C   0  0  0  0  0  0  0  0  0  0  0  0
  -35.1914  -21.3356   17.3961 C   0  0  0  0  0  0  0  0  0  0  0  0
  -31.9500  -20.5038   16.7265 C   0  0  0  0  0  0  0  0  0  0  0  0
  -30.7287  -14.7664   20.6556 C   0  0  0  0  0  0  0  0  0  0  0  0
  -41.9758  -23.5454   17.9286 C   0  0  0  0  0  0  0  0  0  0  0  0
  -37.1417  -18.6472   19.0030 C   0  0  0  0  0  0  0  0  0  0  0  0
  -34.7717  -20.2915   19.6543 C   0  0  0  0  0  0  0  0  0  0  0  0
  -40.4732  -23.7813   17.7983 C   0  0  0  0  0  0  0  0  0  0  0  0
  -29.6136  -12.3540   18.2862 C   0  0  0  0  0  0  0  0  0  0  0  0
  -39.7849  -23.5961   19.1469 C   0  0  0  0  0  0  0  0  0  0  0  0
  -28.1739  -12.0626   18.7157 C   0  0  0  0  0  0  0  0  0  0  0  0
  -30.5288  -12.5820   19.4880 C   0  0  0  0  0  0  0  0  0  0  0  0
  -28.6220  -13.3064   20.8696 C   0  0  0  0  0  0  0  0  0  0  0  0
  -39.9650  -22.1645   19.6662 C   0  0  1  0  0  0  0  0  0  0  0  0
  -37.0023  -20.0849   18.5123 C   0  0  1  0  0  0  0  0  0  0  0  0
  -27.6492  -13.1339   19.6917 C   0  0  2  0  0  0  0  0  0  0  0  0
  -30.1160  -20.9081   15.0620 C   0  0  0  0  0  0  0  0  0  0  0  0
  -34.7216  -24.1040   18.5898 C   0  0  0  0  0  0  0  0  0  0  0  0
  -32.4130  -24.0530   17.6224 C   0  0  0  0  0  0  0  0  0  0  0  0
  -34.3978  -23.9669   16.1138 C   0  0  0  0  0  0  0  0  0  0  0  0
  -32.2598  -20.6821   24.9658 C   0  0  0  0  0  0  0  0  0  0  0  0
  -33.2232  -18.7572   26.2367 C   0  0  0  0  0  0  0  0  0  0  0  0
  -31.7995  -17.6336   16.0207 C   0  0  0  0  0  0  0  0  0  0  0  0
  -33.8135  -21.9418   17.5100 C   0  0  1  0  0  0  0  0  0  0  0  0
  -31.2781  -20.0105   15.4578 C   0  0  2  0  0  0  0  0  0  0  0  0
  -33.8452  -23.4959   17.4767 C   0  0  0  0  0  0  0  0  0  0  0  0
  -25.8616  -11.5427   20.2867 N   0  0  0  0  0  0  0  0  0  0  0  0
  -26.2388  -12.8263   20.1590 N   0  0  0  0  0  0  0  0  0  0  0  0
  -35.6095  -20.5346   18.4683 N   0  0  0  0  0  0  0  0  0  0  0  0
  -29.9701  -13.6126   20.3658 N   0  0  0  0  0  0  0  0  0  0  0  0
  -25.4730  -15.0538   20.4080 N   0  0  0  0  0  0  0  0  0  0  0  0
  -21.8874  -12.5799   21.5994 N   0  0  0  0  0  0  0  0  0  0  0  0
  -30.0816  -15.6913   21.4744 N   0  0  0  0  0  0  0  0  0  0  0  0
  -39.0646  -21.2616   18.9817 N   0  0  0  0  0  0  0  0  0  0  0  0
  -33.0129  -21.3376   16.4505 N   0  0  0  0  0  0  0  0  0  0  0  0
  -32.4441  -19.2538   25.1209 N   0  0  0  0  0  0  0  0  0  0  0  0
  -30.7588  -18.6271   15.6509 N   0  3  0  0  0  0  0  0  0  0  0  0
  -22.6636  -14.7197   21.3205 O   0  0  0  0  0  0  0  0  0  0  0  0
  -37.1827  -21.6060   20.3092 O   0  0  0  0  0  0  0  0  0  0  0  0
  -35.8688  -21.5584   16.3896 O   0  0  0  0  0  0  0  0  0  0  0  0
  -31.5676  -20.1845   17.8501 O   0  0  0  0  0  0  0  0  0  0  0  0
  -31.8578  -14.9351   20.1880 O   0  0  0  0  0  0  0  0  0  0  0  0
  -21.6127   -7.0168   21.7050 O   0  0  0  0  0  0  0  0  0  0  0  0
  -34.0327  -17.4864   23.5942 O   0  0  0  0  0  0  0  0  0  1  0  0
  -18.6217   -6.8569   26.3345 F   0  0  0  0  0  0  0  0  0  0  0  0
  -28.5498  -17.4506   23.0012 F   0  0  0  0  0  0  0  0  0  0  0  0
  -22.0626   -5.0722   23.6178 F   0  0  0  0  0  0  0  0  0  0  0  0
  1  2  1  0  0  0  0
  1  5  2  0  0  0  0
  2  6  2  0  0  0  0
  3  8  2  0  0  0  0
  3 17  1  0  0  0  0
  4  9  1  0  0  0  0
  4 17  2  0  0  0  0
  5 19  1  0  0  0  0
  6 21  1  0  0  0  0
  7 10  2  0  0  0  0
  7 20  1  0  0  0  0
  8 25  1  0  0  0  0
  9 25  2  0  0  0  0
 10 26  1  0  0  0  0
 11 12  2  0  0  0  0
 11 27  1  0  0  0  0
 12 29  1  0  0  0  0
 13 22  1  0  0  0  0
 13 26  2  0  0  0  0
 14 23  2  0  0  0  0
 14 28  1  0  0  0  0
 15 24  1  0  0  0  0
 15 30  2  0  0  0  0
 16 29  2  0  0  0  0
 16 31  1  0  0  0  0
 17 32  1  0  0  0  0
 18 32  1  0  0  0  0
 18 33  2  0  0  0  0
 18 34  1  0  0  0  0
 19 21  2  0  0  0  0
 19 39  1  0  0  0  0
 20 22  2  0  0  0  0
 20 40  1  0  0  0  0
 21 48  1  0  0  0  0
 22 41  1  0  0  0  0
 23 30  1  0  0  0  0
 23 67  1  0  0  0  0
 24 28  2  0  0  0  0
 24 70  1  0  0  0  0
 25 77  1  0  0  0  0
 26 78  1  0  0  0  0
 27 31  2  0  0  0  0
 27 77  1  0  0  0  0
 28 78  1  0  0  0  0
 29 79  1  0  0  0  0
 30 80  1  0  0  0  0
 31 81  1  0  0  0  0
 32 61  2  0  0  0  0
 33 62  1  0  0  0  0
 33 65  1  0  0  0  0
 34 66  1  0  0  0  0
 34 72  2  0  0  0  0
 35 49  1  0  0  0  0
 35 68  1  0  0  0  0
 35 73  2  0  0  0  0
 36 58  1  0  0  0  0
 36 63  1  0  0  0  0
 36 74  2  0  0  0  0
 37 59  1  0  0  0  0
 37 69  1  0  0  0  0
 37 75  2  0  0  0  0
 38 64  1  0  0  0  0
 38 67  1  0  0  0  0
 38 76  2  0  0  0  0
 39 42  1  0  0  0  0
 40 49  1  0  0  0  0
 41 63  1  0  0  0  0
 42 44  1  0  0  0  0
 43 45  1  0  0  0  0
 43 46  1  0  0  0  0
 44 48  1  0  0  0  0
 45 50  1  0  0  0  0
 46 64  1  0  0  0  0
 47 50  1  0  0  0  0
 47 64  1  0  0  0  0
 48 68  1  0  0  0  0
 49 63  1  0  0  0  0
 50 62  1  0  0  0  0
 51 59  1  0  0  0  0
 52 60  1  0  0  0  0
 53 60  1  0  0  0  0
 54 60  1  0  0  0  0
 55 70  1  0  0  0  0
 56 70  1  0  0  0  0
 57 71  1  0  0  0  0
 58 60  1  0  0  0  0
 58 69  1  0  0  0  0
 59 71  1  0  0  0  0
 61 62  1  0  0  0  0
M  CHG  1  71   1
M  ISO  4  28 101  38 100  67 100  78 101
M  END
> <Batch ID>
0008

> <Smiles>
CNC(C)C(=O)NC(C(=O)N1Cc2cc([101O:1][101c:1]3cc([100NH:0][100C:0](=O)N4CCCC(n5nc(-c6ccc(Oc7ccc(F)cc7F)cc6)c(C(N)=O)c5N)C4)c(F)cc3N(C)C)ccc2CC1C(=O)NC1CCCc2ccccc21)C(C)(C)C

> <Shape>
0.171

> <Color>
0.200

> <Negative vol penalty>
0.000

$$$$

  -OEChem-04052315363D

 84 92  0     1  0  0  0  0  0999 V2000
  -30.2201  -31.5850   26.0195 C   0  0  0  0  0  0  0  0  0  0  0  0
  -29.7498  -30.5270   25.2482 C   0  0  0  0  0  0  0  0  0  0  0  0
  -24.3766   -9.4568   21.5462 C   0  0  0  0  0  0  0  0  0  0  0  0
  -24.7493  -10.6465   23.6157 C   0  0  0  0  0  0  0  0  0  0  0  0
  -29.3196  -32.4769   26.6003 C   0  0  0  0  0  0  0  0  0  0  0  0
  -28.3786  -30.3597   25.0581 C   0  0  0  0  0  0  0  0  0  0  0  0
  -27.1955  -29.3346   20.2421 C   0  0  0  0  0  0  0  0  0  0  0  0
  -30.0120  -20.8990   19.6728 C   0  0  0  0  0  0  0  0  0  0  0  0
  -29.9889  -19.5097   19.7952 C   0  0  0  0  0  0  0  0  0  0  0  0
  -24.0115   -8.3192   22.2659 C   0  0  0  0  0  0  0  0  0  0  0  0
  -24.3841   -9.5088   24.3354 C   0  0  0  0  0  0  0  0  0  0  0  0
  -27.4088  -28.0305   19.7978 C   0  0  0  0  0  0  0  0  0  0  0  0
  -22.6341   -5.2126   23.5570 C   0  0  0  0  0  0  0  0  0  0  0  0
  -21.4986   -4.5181   23.1400 C   0  0  0  0  0  0  0  0  0  0  0  0
  -25.0619  -27.5540   20.0883 C   0  0  0  0  0  0  0  0  0  0  0  0
  -27.7764  -21.0162   20.5813 C   0  0  0  0  0  0  0  0  0  0  0  0
  -20.1556   -6.4922   23.5091 C   0  0  0  0  0  0  0  0  0  0  0  0
  -24.7455  -10.6205   22.2211 C   0  0  0  0  0  0  0  0  0  0  0  0
  -24.2772  -12.8305   21.0361 C   0  0  0  0  0  0  0  0  0  0  0  0
  -27.9370  -32.3262   26.4093 C   0  0  0  0  0  0  0  0  0  0  0  0
  -25.9136  -29.7558   20.6238 C   0  0  0  0  0  0  0  0  0  0  0  0
  -27.4586  -31.2497   25.6381 C   0  0  0  0  0  0  0  0  0  0  0  0
  -24.8345  -28.8648   20.5347 C   0  0  0  0  0  0  0  0  0  0  0  0
  -28.9057  -21.6522   20.0659 C   0  0  0  0  0  0  0  0  0  0  0  0
  -28.8596  -18.8736   20.3105 C   0  0  0  0  0  0  0  0  0  0  0  0
  -24.0152   -8.3451   23.6605 C   0  0  0  0  0  0  0  0  0  0  0  0
  -26.3425  -27.1391   19.7236 C   0  0  0  0  0  0  0  0  0  0  0  0
  -22.5304   -6.5469   23.9501 C   0  0  0  0  0  0  0  0  0  0  0  0
  -27.7533  -19.6269   20.7036 C   0  0  0  0  0  0  0  0  0  0  0  0
  -20.2594   -5.1579   23.1160 C   0  0  0  0  0  0  0  0  0  0  0  0
  -21.2912   -7.1867   23.9261 C   0  0  0  0  0  0  0  0  0  0  0  0
  -25.1233  -11.7959   21.4782 C   0  0  0  0  0  0  0  0  0  0  0  0
  -25.1139  -13.7034   20.3845 C   0  0  0  0  0  0  0  0  0  0  0  0
  -22.8616  -12.9884   21.1997 C   0  0  0  0  0  0  0  0  0  0  0  0
  -24.6116  -30.8146   23.3234 C   0  0  0  0  0  0  0  0  0  0  0  0
  -22.0247  -31.3011   21.4277 C   0  0  0  0  0  0  0  0  0  0  0  0
  -27.7180  -23.7822   19.7106 C   0  0  0  0  0  0  0  0  0  0  0  0
  -20.3176  -30.4801   18.5889 C   0  0  0  0  0  0  0  0  0  0  0  0
  -29.8723  -16.5786   20.0790 C   0  0  0  0  0  0  0  0  0  0  0  0
  -27.0002  -33.2880   27.0962 C   0  0  0  0  0  0  0  0  0  0  0  0
  -25.6952  -31.1738   21.0756 C   0  0  0  0  0  0  0  0  0  0  0  0
  -23.4353  -29.2735   20.9135 C   0  0  0  0  0  0  0  0  0  0  0  0
  -25.5799  -33.2589   26.5373 C   0  0  0  0  0  0  0  0  0  0  0  0
  -29.9469  -13.1968   18.9678 C   0  0  0  0  0  0  0  0  0  0  0  0
  -25.0981  -31.8203   26.3785 C   0  0  0  0  0  0  0  0  0  0  0  0
  -28.6290  -12.6160   19.4855 C   0  0  0  0  0  0  0  0  0  0  0  0
  -30.5543  -14.1923   19.9545 C   0  0  0  0  0  0  0  0  0  0  0  0
  -28.3350  -14.6880   20.9022 C   0  0  0  0  0  0  0  0  0  0  0  0
  -25.9796  -31.0494   25.3884 C   0  0  1  0  0  0  0  0  0  0  0  0
  -24.4409  -31.3431   21.9272 C   0  0  1  0  0  0  0  0  0  0  0  0
  -27.6523  -13.7288   19.9136 C   0  0  2  0  0  0  0  0  0  0  0  0
  -18.2161  -31.0203   17.3283 C   0  0  0  0  0  0  0  0  0  0  0  0
  -20.4055  -29.6653   23.4309 C   0  0  0  0  0  0  0  0  0  0  0  0
  -18.6180  -29.4359   21.6929 C   0  0  0  0  0  0  0  0  0  0  0  0
  -19.2360  -31.6943   22.5534 C   0  0  0  0  0  0  0  0  0  0  0  0
  -30.2163  -23.7998   20.0489 C   0  0  0  0  0  0  0  0  0  0  0  0
  -21.8365  -31.4131   16.2265 C   0  0  0  0  0  0  0  0  0  0  0  0
  -25.6297  -18.6457   20.2752 C   0  0  0  0  0  0  0  0  0  0  0  0
  -27.8291  -25.2912   19.5470 C   0  0  0  0  0  0  0  0  0  1  0  0
  -20.8302  -30.4746   21.0162 C   0  0  1  0  0  0  0  0  0  0  0  0
  -19.6923  -31.3399   17.5054 C   0  0  2  0  0  0  0  0  0  0  0  0
  -19.7990  -30.3090   22.1680 C   0  0  0  0  0  0  0  0  0  0  0  0
  -26.3995  -11.9918   21.1363 N   0  0  0  0  0  0  0  0  0  0  0  0
  -26.3616  -13.1596   20.4723 N   0  0  0  0  0  0  0  0  0  0  0  0
  -23.2739  -30.6686   21.3551 N   0  0  0  0  0  0  0  0  0  0  0  0
  -29.5732  -15.2195   20.3113 N   0  0  0  0  0  0  0  0  0  0  0  0
  -24.8966  -14.8754   19.7508 N   0  0  0  0  0  0  0  0  0  0  0  0
  -22.1549  -11.9980   21.8954 N   0  0  0  0  0  0  0  0  0  0  0  0
  -28.8509  -17.4616   20.4278 N   0  0  0  0  0  0  0  0  0  0  0  0
  -25.6426  -31.4071   24.0272 N   0  0  0  0  0  0  0  0  0  0  0  0
  -20.2904  -31.1064   19.8171 N   0  0  0  0  0  0  0  0  0  0  0  0
  -28.9297  -23.0953   19.9379 N   0  0  0  0  0  0  0  0  0  0  0  0
  -20.3814  -31.1147   16.2033 N   0  3  0  0  0  0  0  0  0  0  0  0
  -22.2392  -13.9702   20.7284 O   0  0  0  0  0  0  0  0  0  0  0  0
  -23.8623  -29.9353   23.7324 O   0  0  0  0  0  0  0  0  0  0  0  0
  -21.8563  -32.4671   21.7932 O   0  0  0  0  0  0  0  0  0  0  0  0
  -26.6079  -23.2542   19.6076 O   0  0  0  0  0  0  0  0  0  0  0  0
  -20.7803  -29.3630   18.3687 O   0  0  0  0  0  0  0  0  0  0  0  0
  -30.9442  -16.9312   19.5802 O   0  0  0  0  0  0  0  0  0  0  0  0
  -23.6588   -7.2352   24.3631 O   0  0  0  0  0  0  0  0  0  0  0  0
  -26.6391  -19.0251   21.2081 O   0  0  0  0  0  0  0  0  0  0  0  0
  -26.5481  -25.8654   19.2908 O   0  0  0  0  0  0  0  0  0  1  0  0
  -19.1693   -4.4913   22.7141 F   0  0  0  0  0  0  0  0  0  0  0  0
  -21.1855   -8.4688   24.3015 F   0  0  0  0  0  0  0  0  0  0  0  0
  1  2  1  0  0  0  0
  1  5  2  0  0  0  0
  2  6  2  0  0  0  0
  3 10  2  0  0  0  0
  3 18  1  0  0  0  0
  4 11  1  0  0  0  0
  4 18  2  0  0  0  0
  5 20  1  0  0  0  0
  6 22  1  0  0  0  0
  7 12  2  0  0  0  0
  7 21  1  0  0  0  0
  8  9  2  0  0  0  0
  8 24  1  0  0  0  0
  9 25  1  0  0  0  0
 10 26  1  0  0  0  0
 11 26  2  0  0  0  0
 12 27  1  0  0  0  0
 13 14  2  0  0  0  0
 13 28  1  0  0  0  0
 14 30  1  0  0  0  0
 15 23  1  0  0  0  0
 15 27  2  0  0  0  0
 16 24  2  0  0  0  0
 16 29  1  0  0  0  0
 17 30  2  0  0  0  0
 17 31  1  0  0  0  0
 18 32  1  0  0  0  0
 19 32  1  0  0  0  0
 19 33  2  0  0  0  0
 19 34  1  0  0  0  0
 20 22  2  0  0  0  0
 20 40  1  0  0  0  0
 21 23  2  0  0  0  0
 21 41  1  0  0  0  0
 22 49  1  0  0  0  0
 23 42  1  0  0  0  0
 24 72  1  0  0  0  0
 25 29  2  0  0  0  0
 25 69  1  0  0  0  0
 26 80  1  0  0  0  0
 27 82  1  0  0  0  0
 28 31  2  0  0  0  0
 28 80  1  0  0  0  0
 29 81  1  0  0  0  0
 30 83  1  0  0  0  0
 31 84  1  0  0  0  0
 32 63  2  0  0  0  0
 33 64  1  0  0  0  0
 33 67  1  0  0  0  0
 34 68  1  0  0  0  0
 34 74  2  0  0  0  0
 35 50  1  0  0  0  0
 35 70  1  0  0  0  0
 35 75  2  0  0  0  0
 36 60  1  0  0  0  0
 36 65  1  0  0  0  0
 36 76  2  0  0  0  0
 37 59  1  0  0  0  0
 37 72  1  0  0  0  0
 37 77  2  0  0  0  0
 38 61  1  0  0  0  0
 38 71  1  0  0  0  0
 38 78  2  0  0  0  0
 39 66  1  0  0  0  0
 39 69  1  0  0  0  0
 39 79  2  0  0  0  0
 40 43  1  0  0  0  0
 41 50  1  0  0  0  0
 42 65  1  0  0  0  0
 43 45  1  0  0  0  0
 44 46  1  0  0  0  0
 44 47  1  0  0  0  0
 45 49  1  0  0  0  0
 46 51  1  0  0  0  0
 47 66  1  0  0  0  0
 48 51  1  0  0  0  0
 48 66  1  0  0  0  0
 49 70  1  0  0  0  0
 50 65  1  0  0  0  0
 51 64  1  0  0  0  0
 52 61  1  0  0  0  0
 53 62  1  0  0  0  0
 54 62  1  0  0  0  0
 55 62  1  0  0  0  0
 56 72  1  0  0  0  0
 57 73  1  0  0  0  0
 58 81  1  0  0  0  0
 59 82  1  0  0  0  0
 60 62  1  0  0  0  0
 60 71  1  0  0  0  0
 61 73  1  0  0  0  0
 63 64  1  0  0  0  0
M  CHG  1  73   1
M  ISO  4  39 100  59 101  69 100  82 101
M  END
> <Batch ID>
0008

> <Smiles>
CNC(C)C(=O)NC(C(=O)N1Cc2cc([101O:1][101CH2:1]C(=O)N(C)c3ccc([100NH:0][100C:0](=O)N4CCCC(n5nc(-c6ccc(Oc7ccc(F)cc7F)cc6)c(C(N)=O)c5N)C4)c(OC)c3)ccc2CC1C(=O)NC1CCCc2ccccc21)C(C)(C)C

> <Shape>
0.355

> <Color>
0.140

> <Negative vol penalty>
0.000

$$$$

  -OEChem-04052315363D

 85 92  0     1  0  0  0  0  0999 V2000
  -29.9136  -32.6864   16.4237 C   0  0  0  0  0  0  0  0  0  0  0  0
  -29.5193  -31.4123   16.8196 C   0  0  0  0  0  0  0  0  0  0  0  0
  -24.6766   -9.3310   21.8335 C   0  0  0  0  0  0  0  0  0  0  0  0
  -22.9735  -10.3214   20.4350 C   0  0  0  0  0  0  0  0  0  0  0  0
  -29.8945  -33.7370   17.3401 C   0  0  0  0  0  0  0  0  0  0  0  0
  -29.1068  -31.1879   18.1325 C   0  0  0  0  0  0  0  0  0  0  0  0
  -24.9114  -28.3640   18.3949 C   0  0  0  0  0  0  0  0  0  0  0  0
  -23.7060   -8.5533   22.4648 C   0  0  0  0  0  0  0  0  0  0  0  0
  -22.0029   -9.5437   21.0663 C   0  0  0  0  0  0  0  0  0  0  0  0
  -25.0567  -26.9894   18.2132 C   0  0  0  0  0  0  0  0  0  0  0  0
  -21.9643   -5.7295   21.8119 C   0  0  0  0  0  0  0  0  0  0  0  0
  -22.2478   -4.3792   22.0164 C   0  0  0  0  0  0  0  0  0  0  0  0
  -24.9757  -26.6710   20.6030 C   0  0  0  0  0  0  0  0  0  0  0  0
  -22.0100   -4.6905   24.4005 C   0  0  0  0  0  0  0  0  0  0  0  0
  -24.3104  -10.2151   20.8186 C   0  0  0  0  0  0  0  0  0  0  0  0
  -26.0582  -10.6838   19.0205 C   0  0  0  0  0  0  0  0  0  0  0  0
  -29.4723  -33.5274   18.6624 C   0  0  0  0  0  0  0  0  0  0  0  0
  -24.8079  -28.9045   19.6847 C   0  0  0  0  0  0  0  0  0  0  0  0
  -29.0833  -32.2364   19.0678 C   0  0  0  0  0  0  0  0  0  0  0  0
  -24.8265  -28.0526   20.7983 C   0  0  0  0  0  0  0  0  0  0  0  0
  -22.3691   -8.6595   22.0812 C   0  0  0  0  0  0  0  0  0  0  0  0
  -25.0918  -26.1429   19.3174 C   0  0  0  0  0  0  0  0  0  0  0  0
  -21.7037   -6.5604   22.9016 C   0  0  0  0  0  0  0  0  0  0  0  0
  -22.2706   -3.8597   23.3107 C   0  0  0  0  0  0  0  0  0  0  0  0
  -21.7265   -6.0408   24.1959 C   0  0  0  0  0  0  0  0  0  0  0  0
  -25.3125  -11.0192   20.1665 C   0  0  0  0  0  0  0  0  0  0  0  0
  -26.8667  -11.7732   18.8060 C   0  0  0  0  0  0  0  0  0  0  0  0
  -26.0231   -9.4939   18.2213 C   0  0  0  0  0  0  0  0  0  0  0  0
  -30.9437  -16.8289   21.0914 C   0  0  0  0  0  0  0  0  0  0  0  0
  -31.4920  -17.0727   22.2966 C   0  0  0  0  0  0  0  0  0  0  0  0
  -30.9181  -17.8820   20.0320 C   0  0  0  0  0  0  0  0  0  0  0  0
  -30.3746  -15.4967   20.8049 C   0  0  0  0  0  0  0  0  0  0  0  0
  -26.5372  -30.9384   21.4099 C   0  0  0  0  0  0  0  0  0  0  0  0
  -24.0741  -30.6519   23.5012 C   0  0  0  0  0  0  0  0  0  0  0  0
  -26.6072  -22.8777   19.5867 C   0  0  0  0  0  0  0  0  0  0  0  0
  -21.4586  -28.7907   24.6596 C   0  0  0  0  0  0  0  0  0  0  0  0
  -29.5137  -34.6838   19.6296 C   0  0  0  0  0  0  0  0  0  0  0  0
  -24.6247  -30.3868   19.8625 C   0  0  0  0  0  0  0  0  0  0  0  0
  -24.6990  -28.5808   22.2030 C   0  0  0  0  0  0  0  0  0  0  0  0
  -28.7066  -34.4424   20.9026 C   0  0  0  0  0  0  0  0  0  0  0  0
  -26.8182  -16.3807   20.8552 C   0  0  0  0  0  0  0  0  0  0  0  0
  -29.0044  -33.0576   21.4689 C   0  0  0  0  0  0  0  0  0  0  0  0
  -26.1731  -15.0155   20.6318 C   0  0  0  0  0  0  0  0  0  0  0  0
  -28.1048  -16.2781   21.6730 C   0  0  0  0  0  0  0  0  0  0  0  0
  -28.4526  -13.9562   20.8806 C   0  0  0  0  0  0  0  0  0  0  0  0
  -28.6058  -31.9585   20.4767 C   0  0  1  0  0  0  0  0  0  0  0  0
  -25.0450  -30.8792   21.2439 C   0  0  1  0  0  0  0  0  0  0  0  0
  -27.1817  -14.0304   20.0199 C   0  0  1  0  0  0  0  0  0  0  0  0
  -31.5760  -16.0963   23.4365 C   0  0  0  0  0  0  0  0  0  0  0  0
  -31.6318  -17.5494   18.7404 C   0  0  0  0  0  0  0  0  0  0  0  0
  -19.6531  -28.8006   26.4025 C   0  0  0  0  0  0  0  0  0  0  0  0
  -26.1336  -29.9345   25.6352 C   0  0  0  0  0  0  0  0  0  0  0  0
  -24.2628  -29.0485   27.0435 C   0  0  0  0  0  0  0  0  0  0  0  0
  -24.3129  -31.4618   26.4142 C   0  0  0  0  0  0  0  0  0  0  0  0
  -27.3708  -22.3025   21.8972 C   0  0  0  0  0  0  0  0  0  0  0  0
  -19.3218  -28.7211   22.6130 C   0  0  0  0  0  0  0  0  0  0  0  0
  -25.8991  -24.0782   20.1784 C   0  0  0  0  0  0  0  0  0  1  0  0
  -29.4611  -21.2066   19.6526 C   0  0  0  0  0  0  0  0  0  0  0  0
  -30.2576  -19.9903   19.1918 C   0  0  0  0  0  0  0  0  0  0  0  0
  -28.0170  -20.8537   20.0126 C   0  0  0  0  0  0  0  0  0  0  0  0
  -23.7532  -29.7337   24.6557 C   0  0  1  0  0  0  0  0  0  0  0  0
  -20.0194  -29.1600   24.9709 C   0  0  2  0  0  0  0  0  0  0  0  0
  -24.6200  -30.0345   25.9109 C   0  0  0  0  0  0  0  0  0  0  0  0
  -25.6201  -12.2271   20.6465 N   0  0  0  0  0  0  0  0  0  0  0  0
  -30.2830  -18.9817   20.2523 N   0  0  0  0  0  0  0  0  0  0  0  0
  -26.5681  -12.6602   19.7980 N   0  0  0  0  0  0  0  0  0  0  0  0
  -29.0288  -15.2874   21.1008 N   0  0  0  0  0  0  0  0  0  0  0  0
  -24.5281  -30.0380   22.3253 N   0  0  0  0  0  0  0  0  0  0  0  0
  -27.7970  -12.0493   17.8674 N   0  0  0  0  0  0  0  0  0  0  0  0
  -25.1337   -8.4726   18.5823 N   0  0  0  0  0  0  0  0  0  0  0  0
  -27.1730  -31.7562   20.4953 N   0  0  0  0  0  0  0  0  0  0  0  0
  -22.3162  -29.8475   24.8806 N   0  0  0  0  0  0  0  0  0  0  0  0
  -27.3033  -22.0455   20.4640 N   0  0  0  0  0  0  0  0  0  0  0  0
  -19.0903  -28.4415   24.0536 N   0  3  0  0  0  0  0  0  0  0  0  0
  -26.7702   -9.3342   17.2265 O   0  0  0  0  0  0  0  0  0  0  0  0
  -31.1280  -14.6477   20.3250 O   0  0  0  0  0  0  0  0  0  0  0  0
  -27.0719  -30.2913   22.3026 O   0  0  0  0  0  0  0  0  0  0  0  0
  -23.9206  -31.8685   23.6354 O   0  0  0  0  0  0  0  0  0  0  0  0
  -26.5325  -22.6855   18.3692 O   0  0  0  0  0  0  0  0  0  0  0  0
  -21.7893  -27.6752   24.2638 O   0  0  0  0  0  0  0  0  0  0  0  0
  -32.0229  -18.3207   22.5882 O   0  0  0  0  0  0  0  0  0  0  0  0
  -21.4217   -7.9006   22.6968 O   0  0  0  0  0  0  0  0  0  0  0  0
  -25.2342  -24.8009   19.1430 O   0  0  0  0  0  0  0  0  0  1  0  0
  -22.5413   -2.5626   23.5069 F   0  0  0  0  0  0  0  0  0  0  0  0
  -21.4758   -6.8339   25.2467 F   0  0  0  0  0  0  0  0  0  0  0  0
  1  2  1  0  0  0  0
  1  5  2  0  0  0  0
  2  6  2  0  0  0  0
  3  8  2  0  0  0  0
  3 15  1  0  0  0  0
  4  9  1  0  0  0  0
  4 15  2  0  0  0  0
  5 17  1  0  0  0  0
  6 19  1  0  0  0  0
  7 10  2  0  0  0  0
  7 18  1  0  0  0  0
  8 21  1  0  0  0  0
  9 21  2  0  0  0  0
 10 22  1  0  0  0  0
 11 12  2  0  0  0  0
 11 23  1  0  0  0  0
 12 24  1  0  0  0  0
 13 20  1  0  0  0  0
 13 22  2  0  0  0  0
 14 24  2  0  0  0  0
 14 25  1  0  0  0  0
 15 26  1  0  0  0  0
 16 26  1  0  0  0  0
 16 27  2  0  0  0  0
 16 28  1  0  0  0  0
 17 19  2  0  0  0  0
 17 37  1  0  0  0  0
 18 20  2  0  0  0  0
 18 38  1  0  0  0  0
 19 46  1  0  0  0  0
 20 39  1  0  0  0  0
 21 82  1  0  0  0  0
 22 83  1  0  0  0  0
 23 25  2  0  0  0  0
 23 82  1  0  0  0  0
 24 84  1  0  0  0  0
 25 85  1  0  0  0  0
 26 64  2  0  0  0  0
 27 66  1  0  0  0  0
 27 69  1  0  0  0  0
 28 70  1  0  0  0  0
 28 75  2  0  0  0  0
 29 30  2  0  0  0  0
 29 31  1  0  0  0  0
 29 32  1  0  0  0  0
 30 49  1  0  0  0  0
 30 81  1  0  0  0  0
 31 50  1  0  0  0  0
 31 65  2  0  0  0  0
 32 67  1  0  0  0  0
 32 76  2  0  0  0  0
 33 47  1  0  0  0  0
 33 71  1  0  0  0  0
 33 77  2  0  0  0  0
 34 61  1  0  0  0  0
 34 68  1  0  0  0  0
 34 78  2  0  0  0  0
 35 57  1  0  0  0  0
 35 73  1  0  0  0  0
 35 79  2  0  0  0  0
 36 62  1  0  0  0  0
 36 72  1  0  0  0  0
 36 80  2  0  0  0  0
 37 40  1  0  0  0  0
 38 47  1  0  0  0  0
 39 68  1  0  0  0  0
 40 42  1  0  0  0  0
 41 43  1  0  0  0  0
 41 44  1  0  0  0  0
 42 46  1  0  0  0  0
 43 48  1  0  0  0  0
 44 67  1  0  0  0  0
 45 48  1  0  0  0  0
 45 67  1  0  0  0  0
 46 71  1  0  0  0  0
 47 68  1  0  0  0  0
 48 66  1  0  0  0  0
 51 62  1  0  0  0  0
 52 63  1  0  0  0  0
 53 63  1  0  0  0  0
 54 63  1  0  0  0  0
 55 73  1  0  0  0  0
 56 74  1  0  0  0  0
 57 83  1  0  0  0  0
 58 59  1  0  0  0  0
 58 60  1  0  0  0  0
 59 65  1  0  0  0  0
 60 73  1  0  0  0  0
 61 63  1  0  0  0  0
 61 72  1  0  0  0  0
 62 74  1  0  0  0  0
 64 66  1  0  0  0  0
M  CHG  1  74   1
M  ISO  4  29 100  32 100  57 101  83 101
M  END
> <Batch ID>
0008

> <Smiles>
CNC(C)C(=O)NC(C(=O)N1Cc2cc([101O:1][101CH2:1]C(=O)N(C)CCCNC(C)=[100C:0](C(C)=O)[100C:0](=O)N3CCCC(n4nc(-c5ccc(Oc6ccc(F)cc6F)cc5)c(C(N)=O)c4N)C3)ccc2CC1C(=O)NC1CCCc2ccccc21)C(C)(C)C

> <Shape>
0.294

> <Color>
0.095

> <Negative vol penalty>
0.000

$$$$

  -OEChem-04052315363D

102109  0     1  0  0  0  0  0999 V2000
  -28.8905  -13.9303   25.5871 C   0  0  0  0  0  0  0  0  0  0  0  0
  -30.1449  -14.1017   26.1638 C   0  0  0  0  0  0  0  0  0  0  0  0
  -22.9744   -9.9321   20.0068 C   0  0  0  0  0  0  0  0  0  0  0  0
  -23.7162   -9.9825   22.3056 C   0  0  0  0  0  0  0  0  0  0  0  0
  -28.1447  -15.0429   25.1999 C   0  0  0  0  0  0  0  0  0  0  0  0
  -30.6547  -15.3857   26.3527 C   0  0  0  0  0  0  0  0  0  0  0  0
  -34.7918  -19.1472   30.8306 C   0  0  0  0  0  0  0  0  0  0  0  0
  -22.1862   -8.8156   20.2856 C   0  0  0  0  0  0  0  0  0  0  0  0
  -22.9279   -8.8660   22.5844 C   0  0  0  0  0  0  0  0  0  0  0  0
  -35.9043  -19.9874   30.8200 C   0  0  0  0  0  0  0  0  0  0  0  0
  -21.3903   -5.8123   23.8176 C   0  0  0  0  0  0  0  0  0  0  0  0
  -21.9601   -4.7893   24.5755 C   0  0  0  0  0  0  0  0  0  0  0  0
  -34.4931  -21.8380   30.1851 C   0  0  0  0  0  0  0  0  0  0  0  0
  -23.6695   -4.4954   22.8936 C   0  0  0  0  0  0  0  0  0  0  0  0
  -23.7395  -10.5155   21.0168 C   0  0  0  0  0  0  0  0  0  0  0  0
  -24.1761  -13.0213   20.8219 C   0  0  0  0  0  0  0  0  0  0  0  0
  -28.6415  -16.3416   25.3929 C   0  0  0  0  0  0  0  0  0  0  0  0
  -33.5211  -19.6445   30.5074 C   0  0  0  0  0  0  0  0  0  0  0  0
  -29.9154  -16.5167   25.9665 C   0  0  0  0  0  0  0  0  0  0  0  0
  -33.3657  -21.0026   30.1948 C   0  0  0  0  0  0  0  0  0  0  0  0
  -22.1629   -8.2826   21.5744 C   0  0  0  0  0  0  0  0  0  0  0  0
  -35.7556  -21.3324   30.4944 C   0  0  0  0  0  0  0  0  0  0  0  0
  -21.9601   -6.1769   22.5977 C   0  0  0  0  0  0  0  0  0  0  0  0
  -23.0997   -4.1309   24.1135 C   0  0  0  0  0  0  0  0  0  0  0  0
  -23.0997   -5.5184   22.1357 C   0  0  0  0  0  0  0  0  0  0  0  0
  -24.5544  -11.6685   20.7293 C   0  0  0  0  0  0  0  0  0  0  0  0
  -25.2982  -13.7181   20.4455 C   0  0  0  0  0  0  0  0  0  0  0  0
  -22.9225  -13.5966   21.2134 C   0  0  0  0  0  0  0  0  0  0  0  0
  -31.3880  -19.0387   28.2300 C   0  0  0  0  0  0  0  0  0  0  0  0
  -29.5497  -21.0848   29.9496 C   0  0  0  0  0  0  0  0  0  0  0  0
  -37.0638  -26.2612   21.1695 C   0  0  0  0  0  0  0  0  0  0  0  0
  -30.6790  -17.8005   20.7936 C   0  0  0  0  0  0  0  0  0  0  0  0
  -37.9168  -24.2939   30.1394 C   0  0  0  0  0  0  0  0  0  0  0  0
  -29.3934  -23.6620   32.1813 C   0  0  0  0  0  0  0  0  0  0  0  0
  -33.1385  -20.4726   19.9535 C   0  0  0  0  0  0  0  0  0  0  0  0
  -30.8145  -14.5390   20.6514 C   0  0  0  0  0  0  0  0  0  0  0  0
  -27.8190  -17.5119   24.9151 C   0  0  0  0  0  0  0  0  0  0  0  0
  -32.3269  -18.7310   30.5494 C   0  0  0  0  0  0  0  0  0  0  0  0
  -32.0200  -21.5902   29.8600 C   0  0  0  0  0  0  0  0  0  0  0  0
  -28.2712  -18.8506   25.4928 C   0  0  0  0  0  0  0  0  0  0  0  0
  -29.6075  -12.1249   18.3293 C   0  0  0  0  0  0  0  0  0  0  0  0
  -29.7875  -18.9879   25.3984 C   0  0  0  0  0  0  0  0  0  0  0  0
  -28.1568  -11.8982   18.7582 C   0  0  0  0  0  0  0  0  0  0  0  0
  -30.5228  -12.3490   19.5309 C   0  0  0  0  0  0  0  0  0  0  0  0
  -28.6389  -13.1928   20.8772 C   0  0  0  0  0  0  0  0  0  0  0  0
  -30.4920  -17.8944   26.2105 C   0  0  1  0  0  0  0  0  0  0  0  0
  -31.1611  -19.2323   29.7027 C   0  0  1  0  0  0  0  0  0  0  0  0
  -27.6681  -13.0177   19.6969 C   0  0  2  0  0  0  0  0  0  0  0  0
  -27.7520  -25.1450   33.3661 C   0  0  0  0  0  0  0  0  0  0  0  0
  -30.5509  -22.0199   19.2331 C   0  0  0  0  0  0  0  0  0  0  0  0
  -31.6379  -19.2986   18.3340 C   0  0  0  0  0  0  0  0  0  0  0  0
  -29.1325  -22.6734   27.3781 C   0  0  0  0  0  0  0  0  0  0  0  0
  -28.3210  -24.5867   28.7741 C   0  0  0  0  0  0  0  0  0  0  0  0
  -27.0850  -22.4200   28.7917 C   0  0  0  0  0  0  0  0  0  0  0  0
  -30.2778  -22.7115   34.8409 C   0  0  0  0  0  0  0  0  0  0  0  0
  -35.7751  -25.4591   21.0967 C   0  0  0  0  0  0  0  0  0  0  0  0
  -30.9508  -16.7232   21.8218 C   0  0  0  0  0  0  0  0  0  0  0  0
  -36.6149  -23.5214   30.1400 C   0  0  0  0  0  0  0  0  0  1  0  0
  -35.8401  -24.2746   20.1329 C   0  0  0  0  0  0  0  0  0  0  0  0
  -39.1937  -27.2312   25.8793 C   0  0  0  0  0  0  0  0  0  0  0  0
  -38.2254  -27.6633   24.7756 C   0  0  0  0  0  0  0  0  0  0  0  0
  -38.4813  -27.1079   27.2284 C   0  0  0  0  0  0  0  0  0  0  0  0
  -34.5272  -23.4824   20.0951 C   0  0  0  0  0  0  0  0  0  0  0  0
  -38.9473  -27.8145   23.4332 C   0  0  0  0  0  0  0  0  0  0  0  0
  -39.4465  -26.6464   28.3242 C   0  0  0  0  0  0  0  0  0  0  0  0
  -34.5814  -22.3073   19.1235 C   0  0  0  0  0  0  0  0  0  0  0  0
  -38.0293  -28.2591   22.2928 C   0  0  0  0  0  0  0  0  0  0  0  0
  -38.8049  -26.5773   29.7122 C   0  0  0  0  0  0  0  0  0  0  0  0
  -30.6543  -21.2461   21.6285 C   0  0  0  0  0  0  0  0  0  0  0  0
  -29.3263  -22.5778   29.9509 C   0  0  1  0  0  0  0  0  0  0  0  0
  -28.5613  -23.8593   33.4355 C   0  0  2  0  0  0  0  0  0  0  0  0
  -30.5973  -20.7883   20.1583 C   0  0  2  0  0  0  0  0  0  0  0  0
  -31.7530  -19.8070   19.7816 C   0  0  2  0  0  0  0  0  0  0  0  0
  -28.4920  -23.0533   28.7281 C   0  0  0  0  0  0  0  0  0  0  0  0
  -25.8180  -11.5129   20.3255 N   0  0  0  0  0  0  0  0  0  0  0  0
  -26.2435  -12.7770   20.1610 N   0  0  0  0  0  0  0  0  0  0  0  0
  -30.8837  -20.6553   29.9086 N   0  0  0  0  0  0  0  0  0  0  0  0
  -30.0041  -13.4243   20.3798 N   0  0  0  0  0  0  0  0  0  0  0  0
  -25.5587  -15.0380   20.3333 N   0  0  0  0  0  0  0  0  0  0  0  0
  -21.8748  -12.7364   21.5695 N   0  0  0  0  0  0  0  0  0  0  0  0
  -30.4612  -18.2138   27.6217 N   0  0  0  0  0  0  0  0  0  0  0  0
  -36.9448  -27.3147   22.0534 N   0  0  0  0  0  0  0  0  0  0  0  0
  -37.7246  -25.6215   29.7905 N   0  0  0  0  0  0  0  0  0  0  0  0
  -33.3586  -21.5535   19.1047 N   0  0  0  0  0  0  0  0  0  0  0  0
  -28.7300  -22.9002   31.2428 N   0  0  0  0  0  0  0  0  0  0  0  0
  -31.7586  -18.6557   20.6689 N   0  0  0  0  0  0  0  0  0  0  0  0
  -30.2438  -15.5151   21.4589 N   0  0  0  0  0  0  0  0  0  0  0  0
  -29.4414  -23.9222   34.6365 N   0  3  0  0  0  0  0  0  0  0  0  0
  -22.7318  -14.8363   21.2305 O   0  0  0  0  0  0  0  0  0  0  0  0
  -32.3329  -19.5978   27.6857 O   0  0  0  0  0  0  0  0  0  0  0  0
  -28.5768  -20.3277   29.9907 O   0  0  0  0  0  0  0  0  0  0  0  0
  -38.0599  -25.9988   20.5008 O   0  0  0  0  0  0  0  0  0  0  0  0
  -29.6142  -17.9026   20.1899 O   0  0  0  0  0  0  0  0  0  0  0  0
  -38.9957  -23.7777   30.4175 O   0  0  0  0  0  0  0  0  0  0  0  0
  -30.5179  -24.1394   32.0460 O   0  0  0  0  0  0  0  0  0  0  0  0
  -33.9660  -20.0825   20.7780 O   0  0  0  0  0  0  0  0  0  0  0  0
  -31.9597  -14.6581   20.2027 O   0  0  0  0  0  0  0  0  0  0  0  0
  -29.5031  -22.0228   21.9423 O   0  0  0  0  0  0  0  0  0  0  0  0
  -21.3936   -7.1933   21.8468 O   0  0  0  0  0  0  0  0  0  0  0  0
  -36.8399  -22.1546   30.4827 O   0  0  0  0  0  0  0  0  0  1  0  0
  -23.6477   -3.1495   24.8421 F   0  0  0  0  0  0  0  0  0  0  0  0
  -23.6522   -5.8651   20.9651 F   0  0  0  0  0  0  0  0  0  0  0  0
  1  2  1  0  0  0  0
  1  5  2  0  0  0  0
  2  6  2  0  0  0  0
  3  8  2  0  0  0  0
  3 15  1  0  0  0  0
  4  9  1  0  0  0  0
  4 15  2  0  0  0  0
  5 17  1  0  0  0  0
  6 19  1  0  0  0  0
  7 10  2  0  0  0  0
  7 18  1  0  0  0  0
  8 21  1  0  0  0  0
  9 21  2  0  0  0  0
 10 22  1  0  0  0  0
 11 12  2  0  0  0  0
 11 23  1  0  0  0  0
 12 24  1  0  0  0  0
 13 20  1  0  0  0  0
 13 22  2  0  0  0  0
 14 24  2  0  0  0  0
 14 25  1  0  0  0  0
 15 26  1  0  0  0  0
 16 26  1  0  0  0  0
 16 27  2  0  0  0  0
 16 28  1  0  0  0  0
 17 19  2  0  0  0  0
 17 37  1  0  0  0  0
 18 20  2  0  0  0  0
 18 38  1  0  0  0  0
 19 46  1  0  0  0  0
 20 39  1  0  0  0  0
 21 99  1  0  0  0  0
 22100  1  0  0  0  0
 23 25  2  0  0  0  0
 23 99  1  0  0  0  0
 24101  1  0  0  0  0
 25102  1  0  0  0  0
 26 75  2  0  0  0  0
 27 76  1  0  0  0  0
 27 79  1  0  0  0  0
 28 80  1  0  0  0  0
 28 89  2  0  0  0  0
 29 47  1  0  0  0  0
 29 81  1  0  0  0  0
 29 90  2  0  0  0  0
 30 70  1  0  0  0  0
 30 77  1  0  0  0  0
 30 91  2  0  0  0  0
 31 56  1  0  0  0  0
 31 82  1  0  0  0  0
 31 92  2  0  0  0  0
 32 57  1  0  0  0  0
 32 86  1  0  0  0  0
 32 93  2  0  0  0  0
 33 58  1  0  0  0  0
 33 83  1  0  0  0  0
 33 94  2  0  0  0  0
 34 71  1  0  0  0  0
 34 85  1  0  0  0  0
 34 95  2  0  0  0  0
 35 73  1  0  0  0  0
 35 84  1  0  0  0  0
 35 96  2  0  0  0  0
 36 78  1  0  0  0  0
 36 87  1  0  0  0  0
 36 97  2  0  0  0  0
 37 40  1  0  0  0  0
 38 47  1  0  0  0  0
 39 77  1  0  0  0  0
 40 42  1  0  0  0  0
 41 43  1  0  0  0  0
 41 44  1  0  0  0  0
 42 46  1  0  0  0  0
 43 48  1  0  0  0  0
 44 78  1  0  0  0  0
 45 48  1  0  0  0  0
 45 78  1  0  0  0  0
 46 81  1  0  0  0  0
 47 77  1  0  0  0  0
 48 76  1  0  0  0  0
 49 71  1  0  0  0  0
 50 72  1  0  0  0  0
 51 73  1  0  0  0  0
 52 74  1  0  0  0  0
 53 74  1  0  0  0  0
 54 74  1  0  0  0  0
 55 88  1  0  0  0  0
 56 59  1  0  0  0  0
 57 87  1  0  0  0  0
 58100  1  0  0  0  0
 59 63  1  0  0  0  0
 60 61  1  0  0  0  0
 60 62  1  0  0  0  0
 61 64  1  0  0  0  0
 62 65  1  0  0  0  0
 63 66  1  0  0  0  0
 64 67  1  0  0  0  0
 65 68  1  0  0  0  0
 66 84  1  0  0  0  0
 67 82  1  0  0  0  0
 68 83  1  0  0  0  0
 69 72  1  0  0  0  0
 69 98  1  0  0  0  0
 70 74  1  0  0  0  0
 70 85  1  0  0  0  0
 71 88  1  0  0  0  0
 72 73  1  0  0  0  0
 73 86  1  0  0  0  0
 75 76  1  0  0  0  0
M  CHG  1  88   1
M  ISO  4  36 100  58 101  87 100 100 101
M  END
> <Batch ID>
0008

> <Smiles>
CNC(C)C(=O)NC(C(=O)N1Cc2cc([101O:1][101CH2:1]C(=O)NCCCCCCCNC(=O)CCCCNC(=O)C(C)(NC(=O)C[100NH:0][100C:0](=O)N3CCCC(n4nc(-c5ccc(Oc6ccc(F)cc6F)cc5)c(C(N)=O)c4N)C3)C(C)CO)ccc2CC1C(=O)NC1CCCc2ccccc21)C(C)(C)C

> <Shape>
0.179

> <Color>
0.175

> <Negative vol penalty>
0.000

$$$$

  -OEChem-04052315363D

 86 94  0     1  0  0  0  0  0999 V2000
  -17.7363  -25.9850   23.0239 C   0  0  0  0  0  0  0  0  0  0  0  0
  -18.8072  -25.8614   22.1446 C   0  0  0  0  0  0  0  0  0  0  0  0
  -27.1806  -14.5929   21.9151 C   0  0  0  0  0  0  0  0  0  0  0  0
  -26.2919  -14.9861   19.7031 C   0  0  0  0  0  0  0  0  0  0  0  0
  -17.3531  -27.2451   23.4812 C   0  0  0  0  0  0  0  0  0  0  0  0
  -19.4950  -26.9982   21.7213 C   0  0  0  0  0  0  0  0  0  0  0  0
  -25.4828  -27.4422   20.5150 C   0  0  0  0  0  0  0  0  0  0  0  0
  -26.8826  -13.2357   21.7936 C   0  0  0  0  0  0  0  0  0  0  0  0
  -25.9940  -13.6288   19.5816 C   0  0  0  0  0  0  0  0  0  0  0  0
  -26.2048  -27.4041   19.3230 C   0  0  0  0  0  0  0  0  0  0  0  0
  -24.6701  -10.3284   18.8302 C   0  0  0  0  0  0  0  0  0  0  0  0
  -23.4209   -9.9825   18.3153 C   0  0  0  0  0  0  0  0  0  0  0  0
  -26.1961  -29.8152   19.2477 C   0  0  0  0  0  0  0  0  0  0  0  0
  -22.7592  -24.8672   16.3918 C   0  0  0  0  0  0  0  0  0  0  0  0
  -22.7614  -24.2878   18.7372 C   0  0  0  0  0  0  0  0  0  0  0  0
  -22.3465  -11.1518   20.1362 C   0  0  0  0  0  0  0  0  0  0  0  0
  -26.8852  -15.4681   20.8699 C   0  0  0  0  0  0  0  0  0  0  0  0
  -28.3890  -17.5145   20.6285 C   0  0  0  0  0  0  0  0  0  0  0  0
  -18.0426  -28.3970   23.0708 C   0  0  0  0  0  0  0  0  0  0  0  0
  -25.1019  -28.6689   21.0776 C   0  0  0  0  0  0  0  0  0  0  0  0
  -19.1198  -28.2750   22.1725 C   0  0  0  0  0  0  0  0  0  0  0  0
  -25.4715  -29.8662   20.4483 C   0  0  0  0  0  0  0  0  0  0  0  0
  -22.1932  -24.9714   17.6623 C   0  0  0  0  0  0  0  0  0  0  0  0
  -23.8935  -24.0793   16.1960 C   0  0  0  0  0  0  0  0  0  0  0  0
  -24.4618  -23.3956   17.2709 C   0  0  0  0  0  0  0  0  0  0  0  0
  -23.8958  -23.4999   18.5415 C   0  0  0  0  0  0  0  0  0  0  0  0
  -26.2893  -12.7536   20.6268 C   0  0  0  0  0  0  0  0  0  0  0  0
  -26.5591  -28.5906   18.6876 C   0  0  0  0  0  0  0  0  0  0  0  0
  -24.7577  -11.0860   19.9982 C   0  0  0  0  0  0  0  0  0  0  0  0
  -22.2590  -10.3942   18.9682 C   0  0  0  0  0  0  0  0  0  0  0  0
  -23.5959  -11.4977   20.6512 C   0  0  0  0  0  0  0  0  0  0  0  0
  -27.1922  -16.8703   20.9951 C   0  0  0  0  0  0  0  0  0  0  0  0
  -28.1798  -18.8343   20.9463 C   0  0  0  0  0  0  0  0  0  0  0  0
  -29.5831  -16.9688   20.0523 C   0  0  0  0  0  0  0  0  0  0  0  0
  -22.3254  -30.0632   21.7488 C   0  0  0  0  0  0  0  0  0  0  0  0
  -24.2272  -32.3063   23.1178 C   0  0  0  0  0  0  0  0  0  0  0  0
  -25.6655  -26.1051   14.3254 C   0  0  0  0  0  0  0  0  0  0  0  0
  -27.2898  -33.8040   23.2741 C   0  0  0  0  0  0  0  0  0  0  0  0
  -24.0048  -22.8254   20.9663 C   0  0  0  0  0  0  0  0  0  0  0  0
  -17.5618  -29.7420   23.5550 C   0  0  0  0  0  0  0  0  0  0  0  0
  -24.3463  -28.6936   22.3779 C   0  0  0  0  0  0  0  0  0  0  0  0
  -25.1045  -31.2097   21.0218 C   0  0  0  0  0  0  0  0  0  0  0  0
  -18.5792  -30.8618   23.3520 C   0  0  0  0  0  0  0  0  0  0  0  0
  -25.0887  -21.2440   23.9665 C   0  0  0  0  0  0  0  0  0  0  0  0
  -19.1637  -30.8032   21.9442 C   0  0  0  0  0  0  0  0  0  0  0  0
  -25.8590  -20.0175   23.4720 C   0  0  0  0  0  0  0  0  0  0  0  0
  -23.8735  -21.5418   23.0900 C   0  0  0  0  0  0  0  0  0  0  0  0
  -24.9278  -20.4324   21.1595 C   0  0  0  0  0  0  0  0  0  0  0  0
  -19.9063  -29.4822   21.7097 C   0  0  1  0  0  0  0  0  0  0  0  0
  -23.5670  -29.9875   22.5917 C   0  0  1  0  0  0  0  0  0  0  0  0
  -26.1974  -20.1314   21.9726 C   0  0  2  0  0  0  0  0  0  0  0  0
  -20.9796  -25.8126   17.8713 C   0  0  0  0  0  0  0  0  0  0  0  0
  -25.6783  -22.5508   17.0553 C   0  0  0  0  0  0  0  0  0  0  0  0
  -28.5299  -35.6325   24.4640 C   0  0  0  0  0  0  0  0  0  0  0  0
  -22.7797  -34.3887   21.4212 C   0  0  0  0  0  0  0  0  0  0  0  0
  -24.6416  -35.9868   21.9190 C   0  0  0  0  0  0  0  0  0  0  0  0
  -23.2351  -35.0956   23.7765 C   0  0  0  0  0  0  0  0  0  0  0  0
  -29.2574  -31.8986   24.3952 C   0  0  0  0  0  0  0  0  0  0  0  0
  -24.4816  -23.9828   14.8180 C   0  0  0  0  0  0  0  0  0  0  0  0
  -27.0648  -26.6911   14.2643 C   0  0  0  0  0  0  0  0  0  0  0  0
  -27.2511  -27.8572   15.2284 C   0  0  0  0  0  0  0  0  0  0  0  0
  -27.0615  -27.4265   16.6756 C   0  0  0  0  0  0  0  0  0  1  0  0
  -24.9022  -33.5702   22.6424 C   0  0  1  0  0  0  0  0  0  0  0  0
  -28.1818  -34.1522   24.4520 C   0  0  2  0  0  0  0  0  0  0  0  0
  -23.8950  -34.7351   22.4277 C   0  0  0  0  0  0  0  0  0  0  0  0
  -26.2896  -17.7115   21.5067 N   0  0  0  0  0  0  0  0  0  0  0  0
  -26.9196  -18.8978   21.4640 N   0  0  0  0  0  0  0  0  0  0  0  0
  -24.3602  -31.1812   22.2917 N   0  0  0  0  0  0  0  0  0  0  0  0
  -24.2710  -21.6401   21.6839 N   0  0  0  0  0  0  0  0  0  0  0  0
  -28.9528  -19.9350   20.8306 N   0  0  0  0  0  0  0  0  0  0  0  0
  -29.6297  -15.5928   19.7898 N   0  0  0  0  0  0  0  0  0  0  0  0
  -24.4576  -22.8149   19.6474 N   0  0  0  0  0  0  0  0  0  0  0  0
  -21.2064  -29.5137   22.3449 N   0  0  0  0  0  0  0  0  0  0  0  0
  -25.6872  -24.7665   14.6890 N   0  0  0  0  0  0  0  0  0  0  0  0
  -25.9539  -33.8604   23.6109 N   0  0  0  0  0  0  0  0  0  0  0  0
  -29.4499  -33.3717   24.3900 N   0  3  0  0  0  0  0  0  0  0  0  0
  -30.5852  -17.6775   19.7935 O   0  0  0  0  0  0  0  0  0  0  0  0
  -22.3784  -30.5831   20.6404 O   0  0  0  0  0  0  0  0  0  0  0  0
  -23.6110  -32.3150   24.1863 O   0  0  0  0  0  0  0  0  0  0  0  0
  -24.6514  -26.7529   14.0804 O   0  0  0  0  0  0  0  0  0  0  0  0
  -27.7335  -33.5148   22.1651 O   0  0  0  0  0  0  0  0  0  0  0  0
  -23.4426  -23.7897   21.4916 O   0  0  0  0  0  0  0  0  0  0  0  0
  -25.9987  -11.4293   20.5078 O   0  0  0  0  0  0  0  0  0  0  0  0
  -27.2633  -28.5563   17.5236 O   0  0  0  0  0  0  0  0  0  1  0  0
  -21.0594  -10.0632   18.4728 F   0  0  0  0  0  0  0  0  0  0  0  0
  -23.6736  -12.2267   21.7729 F   0  0  0  0  0  0  0  0  0  0  0  0
  1  2  1  0  0  0  0
  1  5  2  0  0  0  0
  2  6  2  0  0  0  0
  3  8  2  0  0  0  0
  3 17  1  0  0  0  0
  4  9  1  0  0  0  0
  4 17  2  0  0  0  0
  5 19  1  0  0  0  0
  6 21  1  0  0  0  0
  7 10  2  0  0  0  0
  7 20  1  0  0  0  0
  8 27  1  0  0  0  0
  9 27  2  0  0  0  0
 10 28  1  0  0  0  0
 11 12  2  0  0  0  0
 11 29  1  0  0  0  0
 12 30  1  0  0  0  0
 13 22  1  0  0  0  0
 13 28  2  0  0  0  0
 14 23  2  0  0  0  0
 14 24  1  0  0  0  0
 15 23  1  0  0  0  0
 15 26  2  0  0  0  0
 16 30  2  0  0  0  0
 16 31  1  0  0  0  0
 17 32  1  0  0  0  0
 18 32  1  0  0  0  0
 18 33  2  0  0  0  0
 18 34  1  0  0  0  0
 19 21  2  0  0  0  0
 19 40  1  0  0  0  0
 20 22  2  0  0  0  0
 20 41  1  0  0  0  0
 21 49  1  0  0  0  0
 22 42  1  0  0  0  0
 23 52  1  0  0  0  0
 24 25  2  0  0  0  0
 24 59  1  0  0  0  0
 25 26  1  0  0  0  0
 25 53  1  0  0  0  0
 26 72  1  0  0  0  0
 27 83  1  0  0  0  0
 28 84  1  0  0  0  0
 29 31  2  0  0  0  0
 29 83  1  0  0  0  0
 30 85  1  0  0  0  0
 31 86  1  0  0  0  0
 32 66  2  0  0  0  0
 33 67  1  0  0  0  0
 33 70  1  0  0  0  0
 34 71  1  0  0  0  0
 34 77  2  0  0  0  0
 35 50  1  0  0  0  0
 35 73  1  0  0  0  0
 35 78  2  0  0  0  0
 36 63  1  0  0  0  0
 36 68  1  0  0  0  0
 36 79  2  0  0  0  0
 37 60  1  0  0  0  0
 37 74  1  0  0  0  0
 37 80  2  0  0  0  0
 38 64  1  0  0  0  0
 38 75  1  0  0  0  0
 38 81  2  0  0  0  0
 39 69  1  0  0  0  0
 39 72  1  0  0  0  0
 39 82  2  0  0  0  0
 40 43  1  0  0  0  0
 41 50  1  0  0  0  0
 42 68  1  0  0  0  0
 43 45  1  0  0  0  0
 44 46  1  0  0  0  0
 44 47  1  0  0  0  0
 45 49  1  0  0  0  0
 46 51  1  0  0  0  0
 47 69  1  0  0  0  0
 48 51  1  0  0  0  0
 48 69  1  0  0  0  0
 49 73  1  0  0  0  0
 50 68  1  0  0  0  0
 51 67  1  0  0  0  0
 54 64  1  0  0  0  0
 55 65  1  0  0  0  0
 56 65  1  0  0  0  0
 57 65  1  0  0  0  0
 58 76  1  0  0  0  0
 59 74  1  0  0  0  0
 60 61  1  0  0  0  0
 61 62  1  0  0  0  0
 62 84  1  0  0  0  0
 63 65  1  0  0  0  0
 63 75  1  0  0  0  0
 64 76  1  0  0  0  0
 66 67  1  0  0  0  0
M  CHG  1  76   1
M  ISO  4  39 100  62 101  72 100  84 101
M  END
> <Batch ID>
0008

> <Smiles>
CNC(C)C(=O)NC(C(=O)N1Cc2cc([101O:1][101CH2:1]CCC(=O)NCc3cc(C)cc([100NH:0][100C:0](=O)N4CCCC(n5nc(-c6ccc(Oc7ccc(F)cc7F)cc6)c(C(N)=O)c5N)C4)c3C)ccc2CC1C(=O)NC1CCCc2ccccc21)C(C)(C)C

> <Shape>
0.233

> <Color>
0.132

> <Negative vol penalty>
0.000

$$$$

  -OEChem-04052315363D

 82 90  0     1  0  0  0  0  0999 V2000
  -24.6122  -34.0114   28.0639 C   0  0  0  0  0  0  0  0  0  0  0  0
  -25.4919  -33.1965   27.3586 C   0  0  0  0  0  0  0  0  0  0  0  0
  -24.2567   -9.1059   21.4812 C   0  0  0  0  0  0  0  0  0  0  0  0
  -24.7683  -10.3935   23.4604 C   0  0  0  0  0  0  0  0  0  0  0  0
  -23.2367  -33.8149   27.9481 C   0  0  0  0  0  0  0  0  0  0  0  0
  -24.9966  -32.1839   26.5377 C   0  0  0  0  0  0  0  0  0  0  0  0
  -27.3828  -30.2386   21.2437 C   0  0  0  0  0  0  0  0  0  0  0  0
  -30.2159  -18.8786   20.0778 C   0  0  0  0  0  0  0  0  0  0  0  0
  -23.9218   -8.0121   22.2793 C   0  0  0  0  0  0  0  0  0  0  0  0
  -24.4333   -9.2997   24.2585 C   0  0  0  0  0  0  0  0  0  0  0  0
  -28.1972  -29.1529   20.9246 C   0  0  0  0  0  0  0  0  0  0  0  0
  -30.3965  -20.2134   20.4399 C   0  0  0  0  0  0  0  0  0  0  0  0
  -21.2944   -7.0103   24.1570 C   0  0  0  0  0  0  0  0  0  0  0  0
  -20.1253   -6.3155   23.8470 C   0  0  0  0  0  0  0  0  0  0  0  0
  -26.2451  -27.8791   20.3032 C   0  0  0  0  0  0  0  0  0  0  0  0
  -28.0127  -20.4509   20.7535 C   0  0  0  0  0  0  0  0  0  0  0  0
  -21.4143   -4.3017   23.4998 C   0  0  0  0  0  0  0  0  0  0  0  0
  -24.6800  -10.2966   22.0717 C   0  0  0  0  0  0  0  0  0  0  0  0
  -24.1683  -12.4504   20.8040 C   0  0  0  0  0  0  0  0  0  0  0  0
  -22.7241  -32.8057   27.1179 C   0  0  0  0  0  0  0  0  0  0  0  0
  -25.9903  -30.1489   21.1050 C   0  0  0  0  0  0  0  0  0  0  0  0
  -23.6130  -31.9729   26.4117 C   0  0  0  0  0  0  0  0  0  0  0  0
  -25.4155  -28.9660   20.6188 C   0  0  0  0  0  0  0  0  0  0  0  0
  -28.9336  -18.3299   20.0534 C   0  0  0  0  0  0  0  0  0  0  0  0
  -24.0101   -8.1090   23.6679 C   0  0  0  0  0  0  0  0  0  0  0  0
  -27.6281  -27.9719   20.4571 C   0  0  0  0  0  0  0  0  0  0  0  0
  -29.2950  -20.9996   20.7778 C   0  0  0  0  0  0  0  0  0  0  0  0
  -22.5234   -6.3509   24.1383 C   0  0  0  0  0  0  0  0  0  0  0  0
  -20.1853   -4.9612   23.5185 C   0  0  0  0  0  0  0  0  0  0  0  0
  -27.8321  -19.1160   20.3913 C   0  0  0  0  0  0  0  0  0  0  0  0
  -22.5834   -4.9966   23.8098 C   0  0  0  0  0  0  0  0  0  0  0  0
  -25.0267  -11.4267   21.2478 C   0  0  0  0  0  0  0  0  0  0  0  0
  -24.9747  -13.2760   20.0594 C   0  0  0  0  0  0  0  0  0  0  0  0
  -22.7672  -12.6382   21.0434 C   0  0  0  0  0  0  0  0  0  0  0  0
  -23.5206  -30.3437   23.0966 C   0  0  0  0  0  0  0  0  0  0  0  0
  -21.7957  -30.1726   20.3547 C   0  0  0  0  0  0  0  0  0  0  0  0
  -21.6387  -29.2028   17.0865 C   0  0  0  0  0  0  0  0  0  0  0  0
  -29.7411  -16.0584   19.3221 C   0  0  0  0  0  0  0  0  0  0  0  0
  -21.2309  -32.6009   27.0614 C   0  0  0  0  0  0  0  0  0  0  0  0
  -25.1278  -31.3381   21.4281 C   0  0  0  0  0  0  0  0  0  0  0  0
  -23.9275  -28.8254   20.4328 C   0  0  0  0  0  0  0  0  0  0  0  0
  -20.7774  -31.7478   25.8795 C   0  0  0  0  0  0  0  0  0  0  0  0
  -29.7068  -12.6236   18.3850 C   0  0  0  0  0  0  0  0  0  0  0  0
  -21.6503  -30.5032   25.7534 C   0  0  0  0  0  0  0  0  0  0  0  0
  -28.4155  -12.0902   19.0097 C   0  0  0  0  0  0  0  0  0  0  0  0
  -30.3849  -13.6587   19.2809 C   0  0  0  0  0  0  0  0  0  0  0  0
  -28.2331  -14.2360   20.3323 C   0  0  0  0  0  0  0  0  0  0  0  0
  -23.1136  -30.8799   25.4919 C   0  0  1  0  0  0  0  0  0  0  0  0
  -23.6820  -30.9615   21.7365 C   0  0  1  0  0  0  0  0  0  0  0  0
  -27.4802  -13.2383   19.4372 C   0  0  2  0  0  0  0  0  0  0  0  0
  -20.0851  -29.1624   15.1161 C   0  0  0  0  0  0  0  0  0  0  0  0
  -20.2767  -27.8395   21.6034 C   0  0  0  0  0  0  0  0  0  0  0  0
  -19.4426  -27.2500   19.3175 C   0  0  0  0  0  0  0  0  0  0  0  0
  -18.8500  -29.4513   20.3303 C   0  0  0  0  0  0  0  0  0  0  0  0
  -23.4541  -30.8939   15.4731 C   0  0  0  0  0  0  0  0  0  0  0  0
  -28.9589  -24.6088   20.6297 C   0  0  0  0  0  0  0  0  0  0  0  0
  -27.8587  -25.6093   20.3123 C   0  0  0  0  0  0  0  0  0  1  0  0
  -28.4097  -23.2060   20.8371 C   0  0  0  0  0  0  0  0  0  0  0  0
  -21.2136  -29.0531   19.5260 C   0  0  1  0  0  0  0  0  0  0  0  0
  -21.1770  -29.9352   15.8395 C   0  0  2  0  0  0  0  0  0  0  0  0
  -19.9736  -28.4001   20.1995 C   0  0  0  0  0  0  0  0  0  0  0  0
  -26.2823  -11.5853   20.8207 N   0  0  0  0  0  0  0  0  0  0  0  0
  -26.2187  -12.7183   20.1006 N   0  0  0  0  0  0  0  0  0  0  0  0
  -23.1260  -30.0139   20.7684 N   0  0  0  0  0  0  0  0  0  0  0  0
  -29.4398  -14.7176   19.6419 N   0  0  0  0  0  0  0  0  0  0  0  0
  -24.7340  -14.4175   19.3799 N   0  0  0  0  0  0  0  0  0  0  0  0
  -22.0916  -11.6955   21.8304 N   0  0  0  0  0  0  0  0  0  0  0  0
  -28.7535  -16.9736   19.6850 N   0  0  0  0  0  0  0  0  0  0  0  0
  -23.2983  -31.2591   24.1075 N   0  0  0  0  0  0  0  0  0  0  0  0
  -20.9493  -29.6168   18.2066 N   0  0  0  0  0  0  0  0  0  0  0  0
  -22.3176  -30.1280   14.8999 N   0  3  0  0  0  0  0  0  0  0  0  0
  -22.1296  -13.6042   20.5598 O   0  0  0  0  0  0  0  0  0  0  0  0
  -23.5911  -29.1265   23.2195 O   0  0  0  0  0  0  0  0  0  0  0  0
  -21.0982  -31.1551   20.6191 O   0  0  0  0  0  0  0  0  0  0  0  0
  -22.5198  -28.3462   17.0680 O   0  0  0  0  0  0  0  0  0  0  0  0
  -30.7851  -16.3685   18.7427 O   0  0  0  0  0  0  0  0  0  0  0  0
  -23.6831   -7.0420   24.4471 O   0  0  0  0  0  0  0  0  0  0  0  0
  -28.4206  -26.9104   20.1455 O   0  0  0  0  0  0  0  0  0  1  0  0
  -29.4727  -22.3109   21.1348 O   0  0  0  0  0  0  0  0  0  0  0  0
  -19.0624   -4.2937   23.2223 F   0  0  0  0  0  0  0  0  0  0  0  0
  -26.5952  -18.5992   20.3709 F   0  0  0  0  0  0  0  0  0  0  0  0
  -23.7611   -4.3575   23.7913 F   0  0  0  0  0  0  0  0  0  0  0  0
  1  2  1  0  0  0  0
  1  5  2  0  0  0  0
  2  6  2  0  0  0  0
  3  9  2  0  0  0  0
  3 18  1  0  0  0  0
  4 10  1  0  0  0  0
  4 18  2  0  0  0  0
  5 20  1  0  0  0  0
  6 22  1  0  0  0  0
  7 11  2  0  0  0  0
  7 21  1  0  0  0  0
  8 12  2  0  0  0  0
  8 24  1  0  0  0  0
  9 25  1  0  0  0  0
 10 25  2  0  0  0  0
 11 26  1  0  0  0  0
 12 27  1  0  0  0  0
 13 14  2  0  0  0  0
 13 28  1  0  0  0  0
 14 29  1  0  0  0  0
 15 23  1  0  0  0  0
 15 26  2  0  0  0  0
 16 27  2  0  0  0  0
 16 30  1  0  0  0  0
 17 29  2  0  0  0  0
 17 31  1  0  0  0  0
 18 32  1  0  0  0  0
 19 32  1  0  0  0  0
 19 33  2  0  0  0  0
 19 34  1  0  0  0  0
 20 22  2  0  0  0  0
 20 39  1  0  0  0  0
 21 23  2  0  0  0  0
 21 40  1  0  0  0  0
 22 48  1  0  0  0  0
 23 41  1  0  0  0  0
 24 30  2  0  0  0  0
 24 68  1  0  0  0  0
 25 77  1  0  0  0  0
 26 78  1  0  0  0  0
 27 79  1  0  0  0  0
 28 31  2  0  0  0  0
 28 77  1  0  0  0  0
 29 80  1  0  0  0  0
 30 81  1  0  0  0  0
 31 82  1  0  0  0  0
 32 62  2  0  0  0  0
 33 63  1  0  0  0  0
 33 66  1  0  0  0  0
 34 67  1  0  0  0  0
 34 72  2  0  0  0  0
 35 49  1  0  0  0  0
 35 69  1  0  0  0  0
 35 73  2  0  0  0  0
 36 59  1  0  0  0  0
 36 64  1  0  0  0  0
 36 74  2  0  0  0  0
 37 60  1  0  0  0  0
 37 70  1  0  0  0  0
 37 75  2  0  0  0  0
 38 65  1  0  0  0  0
 38 68  1  0  0  0  0
 38 76  2  0  0  0  0
 39 42  1  0  0  0  0
 40 49  1  0  0  0  0
 41 64  1  0  0  0  0
 42 44  1  0  0  0  0
 43 45  1  0  0  0  0
 43 46  1  0  0  0  0
 44 48  1  0  0  0  0
 45 50  1  0  0  0  0
 46 65  1  0  0  0  0
 47 50  1  0  0  0  0
 47 65  1  0  0  0  0
 48 69  1  0  0  0  0
 49 64  1  0  0  0  0
 50 63  1  0  0  0  0
 51 60  1  0  0  0  0
 52 61  1  0  0  0  0
 53 61  1  0  0  0  0
 54 61  1  0  0  0  0
 55 71  1  0  0  0  0
 56 57  1  0  0  0  0
 56 58  1  0  0  0  0
 57 78  1  0  0  0  0
 58 79  1  0  0  0  0
 59 61  1  0  0  0  0
 59 70  1  0  0  0  0
 60 71  1  0  0  0  0
 62 63  1  0  0  0  0
M  CHG  1  71   1
M  ISO  4  38 100  57 101  68 100  78 101
M  END
> <Batch ID>
0008

> <Smiles>
CNC(C)C(=O)NC(C(=O)N1Cc2cc([101O:1][101CH2:1]CCOc3ccc([100NH:0][100C:0](=O)N4CCCC(n5nc(-c6ccc(Oc7ccc(F)cc7F)cc6)c(C(N)=O)c5N)C4)c(F)c3)ccc2CC1C(=O)NC1CCCc2ccccc21)C(C)(C)C

> <Shape>
0.303

> <Color>
0.145

> <Negative vol penalty>
0.000

$$$$

  -OEChem-04052315363D

 82 90  0     1  0  0  0  0  0999 V2000
  -24.5268  -32.0720   29.0821 C   0  0  0  0  0  0  0  0  0  0  0  0
  -25.2840  -31.2190   28.2855 C   0  0  0  0  0  0  0  0  0  0  0  0
  -24.5984   -8.9787   21.5700 C   0  0  0  0  0  0  0  0  0  0  0  0
  -23.9008  -10.6934   23.1225 C   0  0  0  0  0  0  0  0  0  0  0  0
  -23.2114  -32.3697   28.7284 C   0  0  0  0  0  0  0  0  0  0  0  0
  -24.7258  -30.6623   27.1354 C   0  0  0  0  0  0  0  0  0  0  0  0
  -27.6024  -29.4358   21.8697 C   0  0  0  0  0  0  0  0  0  0  0  0
  -28.2621  -21.0361   19.7787 C   0  0  0  0  0  0  0  0  0  0  0  0
  -28.5026  -19.6622   19.7733 C   0  0  0  0  0  0  0  0  0  0  0  0
  -24.1653   -7.9963   22.4605 C   0  0  0  0  0  0  0  0  0  0  0  0
  -23.4676   -9.7110   24.0130 C   0  0  0  0  0  0  0  0  0  0  0  0
  -28.1386  -28.2605   21.3455 C   0  0  0  0  0  0  0  0  0  0  0  0
  -22.9135   -5.0426   24.1703 C   0  0  0  0  0  0  0  0  0  0  0  0
  -22.1747   -3.9785   23.6530 C   0  0  0  0  0  0  0  0  0  0  0  0
  -26.1013  -27.8899   20.1082 C   0  0  0  0  0  0  0  0  0  0  0  0
  -25.9869  -20.6408   19.0685 C   0  0  0  0  0  0  0  0  0  0  0  0
  -20.4933   -5.5266   22.8699 C   0  0  0  0  0  0  0  0  0  0  0  0
  -24.4661  -10.3273   21.9010 C   0  0  0  0  0  0  0  0  0  0  0  0
  -24.1619  -11.9587   19.9637 C   0  0  0  0  0  0  0  0  0  0  0  0
  -22.6399  -31.8239   27.5681 C   0  0  0  0  0  0  0  0  0  0  0  0
  -26.3052  -29.8420   21.5250 C   0  0  0  0  0  0  0  0  0  0  0  0
  -23.4011  -30.9518   26.7666 C   0  0  0  0  0  0  0  0  0  0  0  0
  -25.5518  -29.0721   20.6274 C   0  0  0  0  0  0  0  0  0  0  0  0
  -27.0043  -21.5255   19.4263 C   0  0  0  0  0  0  0  0  0  0  0  0
  -27.4852  -18.7775   19.4155 C   0  0  0  0  0  0  0  0  0  0  0  0
  -23.5999   -8.3624   23.6819 C   0  0  0  0  0  0  0  0  0  0  0  0
  -27.3870  -27.4858   20.4669 C   0  0  0  0  0  0  0  0  0  0  0  0
  -22.4421   -6.3487   24.0375 C   0  0  0  0  0  0  0  0  0  0  0  0
  -20.9647   -4.2205   23.0027 C   0  0  0  0  0  0  0  0  0  0  0  0
  -21.2320   -6.5907   23.3873 C   0  0  0  0  0  0  0  0  0  0  0  0
  -26.2274  -19.2668   19.0630 C   0  0  0  0  0  0  0  0  0  0  0  0
  -24.9138  -11.3426   20.9819 C   0  0  0  0  0  0  0  0  0  0  0  0
  -25.0349  -12.8438   19.3798 C   0  0  0  0  0  0  0  0  0  0  0  0
  -22.7963  -11.7499   19.5801 C   0  0  0  0  0  0  0  0  0  0  0  0
  -23.6049  -30.3254   23.1308 C   0  0  0  0  0  0  0  0  0  0  0  0
  -22.5521  -31.4167   20.2632 C   0  0  0  0  0  0  0  0  0  0  0  0
  -27.6537  -23.9339   19.7603 C   0  0  0  0  0  0  0  0  0  0  0  0
  -22.8652  -31.4010   16.8649 C   0  0  0  0  0  0  0  0  0  0  0  0
  -28.9674  -16.7682   19.7505 C   0  0  0  0  0  0  0  0  0  0  0  0
  -21.1989  -32.1373   27.2522 C   0  0  0  0  0  0  0  0  0  0  0  0
  -25.7513  -31.1263   22.0783 C   0  0  0  0  0  0  0  0  0  0  0  0
  -24.1619  -29.4748   20.2097 C   0  0  0  0  0  0  0  0  0  0  0  0
  -20.8035  -31.8027   25.8162 C   0  0  0  0  0  0  0  0  0  0  0  0
  -30.0392  -13.3773   19.9227 C   0  0  0  0  0  0  0  0  0  0  0  0
  -21.3084  -30.4153   25.4330 C   0  0  0  0  0  0  0  0  0  0  0  0
  -28.7394  -12.5963   20.1298 C   0  0  0  0  0  0  0  0  0  0  0  0
  -30.0228  -14.7126   20.6645 C   0  0  0  0  0  0  0  0  0  0  0  0
  -27.5615  -14.7845   20.5894 C   0  0  0  0  0  0  0  0  0  0  0  0
  -22.8390  -30.3478   25.4980 C   0  0  1  0  0  0  0  0  0  0  0  0
  -24.2266  -31.1764   22.0598 C   0  0  1  0  0  0  0  0  0  0  0  0
  -27.5049  -13.4613   19.8086 C   0  0  2  0  0  0  0  0  0  0  0  0
  -21.8372  -32.3627   14.7875 C   0  0  0  0  0  0  0  0  0  0  0  0
  -20.2156  -29.4715   20.5218 C   0  0  0  0  0  0  0  0  0  0  0  0
  -19.7810  -29.7772   18.0751 C   0  0  0  0  0  0  0  0  0  0  0  0
  -19.6032  -31.7241   19.6246 C   0  0  0  0  0  0  0  0  0  0  0  0
  -25.3846  -32.7556   16.1057 C   0  0  0  0  0  0  0  0  0  0  0  0
  -26.9893  -25.2926   19.6375 C   0  0  0  0  0  0  0  0  0  1  0  0
  -21.8851  -30.7927   19.0613 C   0  0  1  0  0  0  0  0  0  0  0  0
  -22.9100  -32.5310   15.8522 C   0  0  2  0  0  0  0  0  0  0  0  0
  -20.3967  -30.4325   19.3299 C   0  0  0  0  0  0  0  0  0  0  0  0
  -26.1681  -11.7975   21.0438 N   0  0  0  0  0  0  0  0  0  0  0  0
  -26.2110  -12.7089   20.0571 N   0  0  0  0  0  0  0  0  0  0  0  0
  -23.6620  -30.7355   20.7827 N   0  0  0  0  0  0  0  0  0  0  0  0
  -28.8273  -15.4794   20.3075 N   0  0  0  0  0  0  0  0  0  0  0  0
  -24.9037  -13.7164   18.3581 N   0  0  0  0  0  0  0  0  0  0  0  0
  -22.0414  -10.8029   20.2856 N   0  0  0  0  0  0  0  0  0  0  0  0
  -26.7607  -22.9194   19.4326 N   0  0  0  0  0  0  0  0  0  0  0  0
  -27.7625  -17.3880   19.4209 N   0  0  0  0  0  0  0  0  0  0  0  0
  -23.4227  -30.9797   24.3342 N   0  0  0  0  0  0  0  0  0  0  0  0
  -22.0846  -31.7227   17.9551 N   0  0  0  0  0  0  0  0  0  0  0  0
  -24.2387  -32.5705   15.1786 N   0  3  0  0  0  0  0  0  0  0  0  0
  -22.2660  -12.3724   18.6288 O   0  0  0  0  0  0  0  0  0  0  0  0
  -23.3109  -29.1618   22.8832 O   0  0  0  0  0  0  0  0  0  0  0  0
  -22.1091  -32.4735   20.7199 O   0  0  0  0  0  0  0  0  0  0  0  0
  -28.8246  -23.8203   20.1074 O   0  0  0  0  0  0  0  0  0  0  0  0
  -23.4600  -30.3377   16.7032 O   0  0  0  0  0  0  0  0  0  0  0  0
  -30.0757  -17.2731   19.5535 O   0  0  0  0  0  0  0  0  0  0  0  0
  -23.1770   -7.4041   24.5510 O   0  0  0  0  0  0  0  0  0  0  0  0
  -27.9078  -26.3378   19.9543 O   0  0  0  0  0  0  0  0  0  1  0  0
  -20.2561   -3.1987   22.5046 F   0  0  0  0  0  0  0  0  0  0  0  0
  -20.7746   -7.8434   23.2556 F   0  0  0  0  0  0  0  0  0  0  0  0
  -24.9398  -18.2060   18.6138 Cl  0  0  0  0  0  0  0  0  0  0  0  0
  1  2  1  0  0  0  0
  1  5  2  0  0  0  0
  2  6  2  0  0  0  0
  3 10  2  0  0  0  0
  3 18  1  0  0  0  0
  4 11  1  0  0  0  0
  4 18  2  0  0  0  0
  5 20  1  0  0  0  0
  6 22  1  0  0  0  0
  7 12  2  0  0  0  0
  7 21  1  0  0  0  0
  8  9  2  0  0  0  0
  8 24  1  0  0  0  0
  9 25  1  0  0  0  0
 10 26  1  0  0  0  0
 11 26  2  0  0  0  0
 12 27  1  0  0  0  0
 13 14  2  0  0  0  0
 13 28  1  0  0  0  0
 14 29  1  0  0  0  0
 15 23  1  0  0  0  0
 15 27  2  0  0  0  0
 16 24  2  0  0  0  0
 16 31  1  0  0  0  0
 17 29  2  0  0  0  0
 17 30  1  0  0  0  0
 18 32  1  0  0  0  0
 19 32  1  0  0  0  0
 19 33  2  0  0  0  0
 19 34  1  0  0  0  0
 20 22  2  0  0  0  0
 20 40  1  0  0  0  0
 21 23  2  0  0  0  0
 21 41  1  0  0  0  0
 22 49  1  0  0  0  0
 23 42  1  0  0  0  0
 24 67  1  0  0  0  0
 25 31  2  0  0  0  0
 25 68  1  0  0  0  0
 26 78  1  0  0  0  0
 27 79  1  0  0  0  0
 28 30  2  0  0  0  0
 28 78  1  0  0  0  0
 29 80  1  0  0  0  0
 30 81  1  0  0  0  0
 31 82  1  0  0  0  0
 32 61  2  0  0  0  0
 33 62  1  0  0  0  0
 33 65  1  0  0  0  0
 34 66  1  0  0  0  0
 34 72  2  0  0  0  0
 35 50  1  0  0  0  0
 35 69  1  0  0  0  0
 35 73  2  0  0  0  0
 36 58  1  0  0  0  0
 36 63  1  0  0  0  0
 36 74  2  0  0  0  0
 37 57  1  0  0  0  0
 37 67  1  0  0  0  0
 37 75  2  0  0  0  0
 38 59  1  0  0  0  0
 38 70  1  0  0  0  0
 38 76  2  0  0  0  0
 39 64  1  0  0  0  0
 39 68  1  0  0  0  0
 39 77  2  0  0  0  0
 40 43  1  0  0  0  0
 41 50  1  0  0  0  0
 42 63  1  0  0  0  0
 43 45  1  0  0  0  0
 44 46  1  0  0  0  0
 44 47  1  0  0  0  0
 45 49  1  0  0  0  0
 46 51  1  0  0  0  0
 47 64  1  0  0  0  0
 48 51  1  0  0  0  0
 48 64  1  0  0  0  0
 49 69  1  0  0  0  0
 50 63  1  0  0  0  0
 51 62  1  0  0  0  0
 52 59  1  0  0  0  0
 53 60  1  0  0  0  0
 54 60  1  0  0  0  0
 55 60  1  0  0  0  0
 56 71  1  0  0  0  0
 57 79  1  0  0  0  0
 58 60  1  0  0  0  0
 58 70  1  0  0  0  0
 59 71  1  0  0  0  0
 61 62  1  0  0  0  0
M  CHG  1  71   1
M  ISO  4  39 100  57 101  68 100  79 101
M  END
> <Batch ID>
0008

> <Smiles>
CNC(C)C(=O)NC(C(=O)N1Cc2cc([101O:1][101CH2:1]C(=O)Nc3ccc([100NH:0][100C:0](=O)N4CCCC(n5nc(-c6ccc(Oc7ccc(F)cc7F)cc6)c(C(N)=O)c5N)C4)c(Cl)c3)ccc2CC1C(=O)NC1CCCc2ccccc21)C(C)(C)C

> <Shape>
0.256

> <Color>
0.116

> <Negative vol penalty>
0.000

$$$$

  -OEChem-04052315363D

 84 92  0     1  0  0  0  0  0999 V2000
  -24.3896  -11.3415   20.1892 C   0  0  0  0  0  0  0  0  0  0  0  0
  -23.8133  -12.5708   20.4923 C   0  0  0  0  0  0  0  0  0  0  0  0
  -27.2728  -24.2694   19.9348 C   0  0  0  0  0  0  0  0  0  0  0  0
  -26.5129  -25.4388   17.9620 C   0  0  0  0  0  0  0  0  0  0  0  0
  -25.7371  -11.1169   20.4682 C   0  0  0  0  0  0  0  0  0  0  0  0
  -24.5838  -13.5761   21.0754 C   0  0  0  0  0  0  0  0  0  0  0  0
  -24.0858  -19.6078   20.1390 C   0  0  0  0  0  0  0  0  0  0  0  0
  -20.3473  -28.1535   21.3980 C   0  0  0  0  0  0  0  0  0  0  0  0
  -21.1509  -29.0673   22.0797 C   0  0  0  0  0  0  0  0  0  0  0  0
  -27.0420  -23.0489   19.3002 C   0  0  0  0  0  0  0  0  0  0  0  0
  -26.2822  -24.2183   17.3273 C   0  0  0  0  0  0  0  0  0  0  0  0
  -23.4591  -20.6209   20.8634 C   0  0  0  0  0  0  0  0  0  0  0  0
  -23.9156  -21.8040   17.3553 C   0  0  0  0  0  0  0  0  0  0  0  0
  -22.7166  -21.6520   16.6590 C   0  0  0  0  0  0  0  0  0  0  0  0
  -25.5564  -21.1442   21.9343 C   0  0  0  0  0  0  0  0  0  0  0  0
  -22.0611  -27.2709   23.4145 C   0  0  0  0  0  0  0  0  0  0  0  0
  -23.9508  -21.2564   14.6200 C   0  0  0  0  0  0  0  0  0  0  0  0
  -27.0082  -25.4644   19.2657 C   0  0  0  0  0  0  0  0  0  0  0  0
  -28.4708  -27.2062   20.4208 C   0  0  0  0  0  0  0  0  0  0  0  0
  -26.5270  -12.1232   21.0462 C   0  0  0  0  0  0  0  0  0  0  0  0
  -25.4525  -19.3477   20.3152 C   0  0  0  0  0  0  0  0  0  0  0  0
  -25.9428  -13.3644   21.3636 C   0  0  0  0  0  0  0  0  0  0  0  0
  -26.1986  -20.1289   21.2090 C   0  0  0  0  0  0  0  0  0  0  0  0
  -20.4005  -26.7985   21.7245 C   0  0  0  0  0  0  0  0  0  0  0  0
  -22.0079  -28.6260   23.0879 C   0  0  0  0  0  0  0  0  0  0  0  0
  -21.2574  -26.3572   22.7328 C   0  0  0  0  0  0  0  0  0  0  0  0
  -26.5468  -23.0233   17.9965 C   0  0  0  0  0  0  0  0  0  0  0  0
  -24.1938  -21.3874   21.7633 C   0  0  0  0  0  0  0  0  0  0  0  0
  -25.1322  -21.6822   16.6840 C   0  0  0  0  0  0  0  0  0  0  0  0
  -22.7342  -21.3782   15.2914 C   0  0  0  0  0  0  0  0  0  0  0  0
  -25.1498  -21.4084   15.3164 C   0  0  0  0  0  0  0  0  0  0  0  0
  -27.2458  -26.7255   19.9209 C   0  0  0  0  0  0  0  0  0  0  0  0
  -28.1680  -28.4397   20.9435 C   0  0  0  0  0  0  0  0  0  0  0  0
  -29.7667  -26.5926   20.4134 C   0  0  0  0  0  0  0  0  0  0  0  0
  -27.1501  -16.8563   21.3226 C   0  0  0  0  0  0  0  0  0  0  0  0
  -29.6633  -18.7055   20.4355 C   0  0  0  0  0  0  0  0  0  0  0  0
  -22.1240  -24.3958   24.0542 C   0  0  0  0  0  0  0  0  0  0  0  0
  -30.8907  -21.8335   19.8392 C   0  0  0  0  0  0  0  0  0  0  0  0
  -23.3049  -30.7481   23.1658 C   0  0  0  0  0  0  0  0  0  0  0  0
  -27.9674  -11.8178   21.3728 C   0  0  0  0  0  0  0  0  0  0  0  0
  -26.1193  -18.2689   19.5065 C   0  0  0  0  0  0  0  0  0  0  0  0
  -27.6728  -19.9032   21.4197 C   0  0  0  0  0  0  0  0  0  0  0  0
  -28.8070  -13.0628   21.6472 C   0  0  0  0  0  0  0  0  0  0  0  0
  -25.1322  -32.0914   20.4273 C   0  0  0  0  0  0  0  0  0  0  0  0
  -28.0698  -14.0061   22.5924 C   0  0  0  0  0  0  0  0  0  0  0  0
  -25.9998  -30.8986   20.0272 C   0  0  0  0  0  0  0  0  0  0  0  0
  -23.7193  -31.6635   20.8256 C   0  0  0  0  0  0  0  0  0  0  0  0
  -24.5489  -29.4237   21.4730 C   0  0  0  0  0  0  0  0  0  0  0  0
  -26.7520  -14.4882   21.9739 C   0  0  1  0  0  0  0  0  0  0  0  0
  -27.4056  -17.7529   20.1442 C   0  0  1  0  0  0  0  0  0  0  0  0
  -25.9922  -29.8180   21.1228 C   0  0  1  0  0  0  0  0  0  0  0  0
  -19.5283  -25.8423   20.9777 C   0  0  0  0  0  0  0  0  0  0  0  0
  -32.5254  -23.5944   19.1151 C   0  0  0  0  0  0  0  0  0  0  0  0
  -30.7973  -18.2897   23.2375 C   0  0  0  0  0  0  0  0  0  0  0  0
  -32.3382  -20.2193   22.8246 C   0  0  0  0  0  0  0  0  0  0  0  0
  -32.4898  -18.1773   21.3998 C   0  0  0  0  0  0  0  0  0  0  0  0
  -22.9965  -29.4209   25.2440 C   0  0  0  0  0  0  0  0  0  0  0  0
  -29.9296  -21.7401   17.0416 C   0  0  0  0  0  0  0  0  0  0  0  0
  -21.8866  -22.8906   24.0986 C   0  0  0  0  0  0  0  0  0  0  0  0
  -22.2033  -22.1967   22.7825 C   0  0  0  0  0  0  0  0  0  1  0  0
  -30.5229  -19.7408   21.1197 C   0  0  1  0  0  0  0  0  0  0  0  0
  -31.6957  -22.3959   18.6816 C   0  0  2  0  0  0  0  0  0  0  0  0
  -31.5089  -19.1100   22.1431 C   0  0  0  0  0  0  0  0  0  0  0  0
  -26.2397  -27.5836   20.1092 N   0  0  0  0  0  0  0  0  0  0  0  0
  -26.8320  -28.6159   20.7334 N   0  0  0  0  0  0  0  0  0  0  0  0
  -28.2780  -18.8326   20.6104 N   0  0  0  0  0  0  0  0  0  0  0  0
  -23.7631  -30.6035   21.8427 N   0  0  0  0  0  0  0  0  0  0  0  0
  -28.9169  -29.3800   21.5579 N   0  0  0  0  0  0  0  0  0  0  0  0
  -30.6109  -26.8278   19.3197 N   0  0  0  0  0  0  0  0  0  0  0  0
  -21.3254  -24.9865   23.0786 N   0  0  0  0  0  0  0  0  0  0  0  0
  -27.0026  -15.5225   20.9931 N   0  0  0  0  0  0  0  0  0  0  0  0
  -31.1707  -20.5010   20.0563 N   0  0  0  0  0  0  0  0  0  0  0  0
  -22.8397  -29.5725   23.7934 N   0  0  0  0  0  0  0  0  0  0  0  0
  -30.7884  -22.8260   17.5803 N   0  3  0  0  0  0  0  0  0  0  0  0
  -30.1577  -25.8443   21.3411 O   0  0  0  0  0  0  0  0  0  0  0  0
  -27.0926  -17.3388   22.4476 O   0  0  0  0  0  0  0  0  0  0  0  0
  -30.2008  -17.8209   19.7646 O   0  0  0  0  0  0  0  0  0  0  0  0
  -22.9224  -24.9530   24.8002 O   0  0  0  0  0  0  0  0  0  0  0  0
  -30.0959  -22.5097   20.4885 O   0  0  0  0  0  0  0  0  0  0  0  0
  -23.3335  -31.8377   23.7505 O   0  0  0  0  0  0  0  0  0  0  0  0
  -26.3218  -21.8325   17.3768 O   0  0  0  0  0  0  0  0  0  0  0  0
  -23.5845  -22.3764   22.4721 O   0  0  0  0  0  0  0  0  0  1  0  0
  -21.5827  -21.2308   14.6231 F   0  0  0  0  0  0  0  0  0  0  0  0
  -26.3156  -21.2891   14.6663 F   0  0  0  0  0  0  0  0  0  0  0  0
  1  2  1  0  0  0  0
  1  5  2  0  0  0  0
  2  6  2  0  0  0  0
  3 10  2  0  0  0  0
  3 18  1  0  0  0  0
  4 11  1  0  0  0  0
  4 18  2  0  0  0  0
  5 20  1  0  0  0  0
  6 22  1  0  0  0  0
  7 12  2  0  0  0  0
  7 21  1  0  0  0  0
  8  9  2  0  0  0  0
  8 24  1  0  0  0  0
  9 25  1  0  0  0  0
 10 27  1  0  0  0  0
 11 27  2  0  0  0  0
 12 28  1  0  0  0  0
 13 14  2  0  0  0  0
 13 29  1  0  0  0  0
 14 30  1  0  0  0  0
 15 23  1  0  0  0  0
 15 28  2  0  0  0  0
 16 25  2  0  0  0  0
 16 26  1  0  0  0  0
 17 30  2  0  0  0  0
 17 31  1  0  0  0  0
 18 32  1  0  0  0  0
 19 32  1  0  0  0  0
 19 33  2  0  0  0  0
 19 34  1  0  0  0  0
 20 22  2  0  0  0  0
 20 40  1  0  0  0  0
 21 23  2  0  0  0  0
 21 41  1  0  0  0  0
 22 49  1  0  0  0  0
 23 42  1  0  0  0  0
 24 26  2  0  0  0  0
 24 52  1  0  0  0  0
 25 73  1  0  0  0  0
 26 70  1  0  0  0  0
 27 81  1  0  0  0  0
 28 82  1  0  0  0  0
 29 31  2  0  0  0  0
 29 81  1  0  0  0  0
 30 83  1  0  0  0  0
 31 84  1  0  0  0  0
 32 64  2  0  0  0  0
 33 65  1  0  0  0  0
 33 68  1  0  0  0  0
 34 69  1  0  0  0  0
 34 75  2  0  0  0  0
 35 50  1  0  0  0  0
 35 71  1  0  0  0  0
 35 76  2  0  0  0  0
 36 61  1  0  0  0  0
 36 66  1  0  0  0  0
 36 77  2  0  0  0  0
 37 59  1  0  0  0  0
 37 70  1  0  0  0  0
 37 78  2  0  0  0  0
 38 62  1  0  0  0  0
 38 72  1  0  0  0  0
 38 79  2  0  0  0  0
 39 67  1  0  0  0  0
 39 73  1  0  0  0  0
 39 80  2  0  0  0  0
 40 43  1  0  0  0  0
 41 50  1  0  0  0  0
 42 66  1  0  0  0  0
 43 45  1  0  0  0  0
 44 46  1  0  0  0  0
 44 47  1  0  0  0  0
 45 49  1  0  0  0  0
 46 51  1  0  0  0  0
 47 67  1  0  0  0  0
 48 51  1  0  0  0  0
 48 67  1  0  0  0  0
 49 71  1  0  0  0  0
 50 66  1  0  0  0  0
 51 65  1  0  0  0  0
 53 62  1  0  0  0  0
 54 63  1  0  0  0  0
 55 63  1  0  0  0  0
 56 63  1  0  0  0  0
 57 73  1  0  0  0  0
 58 74  1  0  0  0  0
 59 60  1  0  0  0  0
 60 82  1  0  0  0  0
 61 63  1  0  0  0  0
 61 72  1  0  0  0  0
 62 74  1  0  0  0  0
 64 65  1  0  0  0  0
M  CHG  1  74   1
M  ISO  4  39 100  60 101  73 100  82 101
M  END
> <Batch ID>
0008

> <Smiles>
CNC(C)C(=O)NC(C(=O)N1Cc2cc([101O:1][101CH2:1]CC(=O)Nc3cc([100N:0](C)[100C:0](=O)N4CCCC(n5nc(-c6ccc(Oc7ccc(F)cc7F)cc6)c(C(N)=O)c5N)C4)ccc3C)ccc2CC1C(=O)NC1CCCc2ccccc21)C(C)(C)C

> <Shape>
0.233

> <Color>
0.070

> <Negative vol penalty>
0.000

$$$$

  -OEChem-04052315363D

 84 92  0     1  0  0  0  0  0999 V2000
  -27.3035  -36.6549   22.0017 C   0  0  0  0  0  0  0  0  0  0  0  0
  -27.8084  -35.4577   21.5045 C   0  0  0  0  0  0  0  0  0  0  0  0
  -23.8327  -10.0128   22.2253 C   0  0  0  0  0  0  0  0  0  0  0  0
  -24.4682  -11.5458   23.9811 C   0  0  0  0  0  0  0  0  0  0  0  0
  -26.4307  -36.6440   23.0889 C   0  0  0  0  0  0  0  0  0  0  0  0
  -27.4417  -34.2489   22.0951 C   0  0  0  0  0  0  0  0  0  0  0  0
  -26.6168  -28.8751   19.2759 C   0  0  0  0  0  0  0  0  0  0  0  0
  -31.3900  -19.9139   19.5935 C   0  0  0  0  0  0  0  0  0  0  0  0
  -31.0291  -18.5741   19.4516 C   0  0  0  0  0  0  0  0  0  0  0  0
  -23.3450   -9.1210   23.1804 C   0  0  0  0  0  0  0  0  0  0  0  0
  -23.9804  -10.6540   24.9363 C   0  0  0  0  0  0  0  0  0  0  0  0
  -27.4389  -27.7593   19.1246 C   0  0  0  0  0  0  0  0  0  0  0  0
  -20.5756   -8.7864   25.0913 C   0  0  0  0  0  0  0  0  0  0  0  0
  -19.3329   -8.1987   24.8546 C   0  0  0  0  0  0  0  0  0  0  0  0
  -26.3695  -26.7218   21.0218 C   0  0  0  0  0  0  0  0  0  0  0  0
  -29.0589  -20.5231   19.7713 C   0  0  0  0  0  0  0  0  0  0  0  0
  -20.3586   -6.0117   24.9003 C   0  0  0  0  0  0  0  0  0  0  0  0
  -24.3945  -11.2252   22.6256 C   0  0  0  0  0  0  0  0  0  0  0  0
  -24.1879  -13.1777   20.9969 C   0  0  0  0  0  0  0  0  0  0  0  0
  -26.0455  -35.4338   23.6870 C   0  0  0  0  0  0  0  0  0  0  0  0
  -25.6707  -28.9273   20.3097 C   0  0  0  0  0  0  0  0  0  0  0  0
  -26.5639  -34.2219   23.1922 C   0  0  0  0  0  0  0  0  0  0  0  0
  -25.5348  -27.8383   21.1824 C   0  0  0  0  0  0  0  0  0  0  0  0
  -28.6979  -19.1832   19.6294 C   0  0  0  0  0  0  0  0  0  0  0  0
  -30.4049  -20.8884   19.7534 C   0  0  0  0  0  0  0  0  0  0  0  0
  -29.6830  -18.2087   19.4695 C   0  0  0  0  0  0  0  0  0  0  0  0
  -23.4187   -9.4416   24.5359 C   0  0  0  0  0  0  0  0  0  0  0  0
  -27.3173  -26.6836   19.9994 C   0  0  0  0  0  0  0  0  0  0  0  0
  -21.7098   -7.9868   25.2325 C   0  0  0  0  0  0  0  0  0  0  0  0
  -19.2244   -6.8114   24.7591 C   0  0  0  0  0  0  0  0  0  0  0  0
  -21.6013   -6.5994   25.1370 C   0  0  0  0  0  0  0  0  0  0  0  0
  -24.8990  -12.1466   21.6395 C   0  0  0  0  0  0  0  0  0  0  0  0
  -25.1077  -13.7583   20.1583 C   0  0  0  0  0  0  0  0  0  0  0  0
  -22.8183  -13.5752   21.1449 C   0  0  0  0  0  0  0  0  0  0  0  0
  -25.2060  -30.8044   22.8324 C   0  0  0  0  0  0  0  0  0  0  0  0
  -22.4840  -29.0662   23.1352 C   0  0  0  0  0  0  0  0  0  0  0  0
  -29.9330  -23.3184   19.4557 C   0  0  0  0  0  0  0  0  0  0  0  0
  -20.8150  -26.1605   22.4884 C   0  0  0  0  0  0  0  0  0  0  0  0
  -30.2053  -15.7637   19.1604 C   0  0  0  0  0  0  0  0  0  0  0  0
  -25.1367  -35.4755   24.8899 C   0  0  0  0  0  0  0  0  0  0  0  0
  -24.7732  -30.1269   20.4429 C   0  0  0  0  0  0  0  0  0  0  0  0
  -24.5209  -27.8363   22.2961 C   0  0  0  0  0  0  0  0  0  0  0  0
  -24.5033  -34.1268   25.2218 C   0  0  0  0  0  0  0  0  0  0  0  0
  -29.7473  -12.2504   18.8084 C   0  0  0  0  0  0  0  0  0  0  0  0
  -25.5535  -33.0210   25.1878 C   0  0  0  0  0  0  0  0  0  0  0  0
  -28.3866  -11.9950   19.4607 C   0  0  0  0  0  0  0  0  0  0  0  0
  -30.5359  -13.3312   19.5458 C   0  0  0  0  0  0  0  0  0  0  0  0
  -28.4567  -14.3407   20.3986 C   0  0  0  0  0  0  0  0  0  0  0  0
  -26.1702  -32.8887   23.7901 C   0  0  1  0  0  0  0  0  0  0  0  0
  -24.1966  -30.2888   21.8461 C   0  0  1  0  0  0  0  0  0  0  0  0
  -27.5988  -13.3057   19.6527 C   0  0  2  0  0  0  0  0  0  0  0  0
  -27.2487  -18.8200   19.6544 C   0  0  0  0  0  0  0  0  0  0  0  0
  -18.6183  -25.0179   22.8963 C   0  0  0  0  0  0  0  0  0  0  0  0
  -23.3214  -28.4885   26.0118 C   0  0  0  0  0  0  0  0  0  0  0  0
  -21.6450  -26.6294   26.0528 C   0  0  0  0  0  0  0  0  0  0  0  0
  -20.8879  -28.9818   25.7127 C   0  0  0  0  0  0  0  0  0  0  0  0
  -32.0284  -22.5471   20.6354 C   0  0  0  0  0  0  0  0  0  0  0  0
  -20.2359  -25.9859   19.5914 C   0  0  0  0  0  0  0  0  0  0  0  0
  -30.3722  -24.7382   19.8150 C   0  0  0  0  0  0  0  0  0  0  0  0
  -29.4174  -25.8109   19.3039 C   0  0  0  0  0  0  0  0  0  1  0  0
  -22.1045  -27.7889   23.8448 C   0  0  1  0  0  0  0  0  0  0  0  0
  -19.4198  -25.8986   21.9504 C   0  0  2  0  0  0  0  0  0  0  0  0
  -22.0102  -27.9727   25.3858 C   0  0  0  0  0  0  0  0  0  0  0  0
  -26.1724  -12.0738   21.2429 N   0  0  0  0  0  0  0  0  0  0  0  0
  -26.2686  -13.0664   20.3421 N   0  0  0  0  0  0  0  0  0  0  0  0
  -23.6708  -29.0347   22.3892 N   0  0  0  0  0  0  0  0  0  0  0  0
  -29.7282  -14.5447   19.6868 N   0  0  0  0  0  0  0  0  0  0  0  0
  -25.0286  -14.7880   19.2888 N   0  0  0  0  0  0  0  0  0  0  0  0
  -22.0124  -12.8713   22.0501 N   0  0  0  0  0  0  0  0  0  0  0  0
  -29.3369  -16.8423   19.3255 N   0  0  0  0  0  0  0  0  0  0  0  0
  -25.2688  -32.1829   22.9047 N   0  0  0  0  0  0  0  0  0  0  0  0
  -20.8690  -27.3272   23.2214 N   0  0  0  0  0  0  0  0  0  0  0  0
  -30.7803  -22.2801   19.9036 N   0  0  0  0  0  0  0  0  0  0  0  0
  -19.4945  -25.2196   20.6259 N   0  3  0  0  0  0  0  0  0  0  0  0
  -22.3194  -14.5159   20.4817 O   0  0  0  0  0  0  0  0  0  0  0  0
  -25.8772  -30.0103   23.4810 O   0  0  0  0  0  0  0  0  0  0  0  0
  -21.7507  -30.0532   23.2330 O   0  0  0  0  0  0  0  0  0  0  0  0
  -28.8779  -23.1494   18.8393 O   0  0  0  0  0  0  0  0  0  0  0  0
  -21.7613  -25.4038   22.2825 O   0  0  0  0  0  0  0  0  0  0  0  0
  -31.2913  -15.8391   18.5800 O   0  0  0  0  0  0  0  0  0  0  0  0
  -22.9426   -8.5717   25.4682 O   0  0  0  0  0  0  0  0  0  0  0  0
  -28.1189  -25.5936   19.8544 O   0  0  0  0  0  0  0  0  0  1  0  0
  -18.0308   -6.2470   24.5334 F   0  0  0  0  0  0  0  0  0  0  0  0
  -22.6871   -5.8259   25.2729 F   0  0  0  0  0  0  0  0  0  0  0  0
  1  2  1  0  0  0  0
  1  5  2  0  0  0  0
  2  6  2  0  0  0  0
  3 10  2  0  0  0  0
  3 18  1  0  0  0  0
  4 11  1  0  0  0  0
  4 18  2  0  0  0  0
  5 20  1  0  0  0  0
  6 22  1  0  0  0  0
  7 12  2  0  0  0  0
  7 21  1  0  0  0  0
  8  9  2  0  0  0  0
  8 25  1  0  0  0  0
  9 26  1  0  0  0  0
 10 27  1  0  0  0  0
 11 27  2  0  0  0  0
 12 28  1  0  0  0  0
 13 14  2  0  0  0  0
 13 29  1  0  0  0  0
 14 30  1  0  0  0  0
 15 23  1  0  0  0  0
 15 28  2  0  0  0  0
 16 24  1  0  0  0  0
 16 25  2  0  0  0  0
 17 30  2  0  0  0  0
 17 31  1  0  0  0  0
 18 32  1  0  0  0  0
 19 32  1  0  0  0  0
 19 33  2  0  0  0  0
 19 34  1  0  0  0  0
 20 22  2  0  0  0  0
 20 40  1  0  0  0  0
 21 23  2  0  0  0  0
 21 41  1  0  0  0  0
 22 49  1  0  0  0  0
 23 42  1  0  0  0  0
 24 26  2  0  0  0  0
 24 52  1  0  0  0  0
 25 73  1  0  0  0  0
 26 70  1  0  0  0  0
 27 81  1  0  0  0  0
 28 82  1  0  0  0  0
 29 31  2  0  0  0  0
 29 81  1  0  0  0  0
 30 83  1  0  0  0  0
 31 84  1  0  0  0  0
 32 64  2  0  0  0  0
 33 65  1  0  0  0  0
 33 68  1  0  0  0  0
 34 69  1  0  0  0  0
 34 75  2  0  0  0  0
 35 50  1  0  0  0  0
 35 71  1  0  0  0  0
 35 76  2  0  0  0  0
 36 61  1  0  0  0  0
 36 66  1  0  0  0  0
 36 77  2  0  0  0  0
 37 59  1  0  0  0  0
 37 73  1  0  0  0  0
 37 78  2  0  0  0  0
 38 62  1  0  0  0  0
 38 72  1  0  0  0  0
 38 79  2  0  0  0  0
 39 67  1  0  0  0  0
 39 70  1  0  0  0  0
 39 80  2  0  0  0  0
 40 43  1  0  0  0  0
 41 50  1  0  0  0  0
 42 66  1  0  0  0  0
 43 45  1  0  0  0  0
 44 46  1  0  0  0  0
 44 47  1  0  0  0  0
 45 49  1  0  0  0  0
 46 51  1  0  0  0  0
 47 67  1  0  0  0  0
 48 51  1  0  0  0  0
 48 67  1  0  0  0  0
 49 71  1  0  0  0  0
 50 66  1  0  0  0  0
 51 65  1  0  0  0  0
 53 62  1  0  0  0  0
 54 63  1  0  0  0  0
 55 63  1  0  0  0  0
 56 63  1  0  0  0  0
 57 73  1  0  0  0  0
 58 74  1  0  0  0  0
 59 60  1  0  0  0  0
 60 82  1  0  0  0  0
 61 63  1  0  0  0  0
 61 72  1  0  0  0  0
 62 74  1  0  0  0  0
 64 65  1  0  0  0  0
M  CHG  1  74   1
M  ISO  4  39 100  60 101  70 100  82 101
M  END
> <Batch ID>
0008

> <Smiles>
CNC(C)C(=O)NC(C(=O)N1Cc2cc([101O:1][101CH2:1]CC(=O)N(C)c3ccc([100NH:0][100C:0](=O)N4CCCC(n5nc(-c6ccc(Oc7ccc(F)cc7F)cc6)c(C(N)=O)c5N)C4)c(C)c3)ccc2CC1C(=O)NC1CCCc2ccccc21)C(C)(C)C

> <Shape>
0.343

> <Color>
0.140

> <Negative vol penalty>
0.000

$$$$

  -OEChem-04052315363D

103111  0     1  0  0  0  0  0999 V2000
  -31.8830  -12.7567   21.0971 C   0  0  0  0  0  0  0  0  0  0  0  0
  -32.2088  -13.9993   21.6312 C   0  0  0  0  0  0  0  0  0  0  0  0
  -25.6130  -14.0707   23.4622 C   0  0  0  0  0  0  0  0  0  0  0  0
  -25.5679  -15.4249   21.4619 C   0  0  0  0  0  0  0  0  0  0  0  0
  -31.2886  -12.6743   19.8386 C   0  0  0  0  0  0  0  0  0  0  0  0
  -31.9414  -15.1603   20.9065 C   0  0  0  0  0  0  0  0  0  0  0  0
  -30.0947  -22.0193   21.8336 C   0  0  0  0  0  0  0  0  0  0  0  0
  -25.6268  -12.9158   22.6801 C   0  0  0  0  0  0  0  0  0  0  0  0
  -25.5817  -14.2700   20.6797 C   0  0  0  0  0  0  0  0  0  0  0  0
  -30.5012  -23.3026   21.4708 C   0  0  0  0  0  0  0  0  0  0  0  0
  -25.3106   -9.6039   21.2121 C   0  0  0  0  0  0  0  0  0  0  0  0
  -24.4617   -8.5599   21.5794 C   0  0  0  0  0  0  0  0  0  0  0  0
  -29.3991  -23.0430   19.3407 C   0  0  0  0  0  0  0  0  0  0  0  0
  -22.5529  -10.0150   21.3034 C   0  0  0  0  0  0  0  0  0  0  0  0
  -25.5835  -15.3252   22.8531 C   0  0  0  0  0  0  0  0  0  0  0  0
  -26.6818  -17.2438   24.1261 C   0  0  0  0  0  0  0  0  0  0  0  0
  -31.0049  -13.8353   19.1023 C   0  0  0  0  0  0  0  0  0  0  0  0
  -29.3454  -21.2327   20.9469 C   0  0  0  0  0  0  0  0  0  0  0  0
  -31.3439  -15.0932   19.6364 C   0  0  0  0  0  0  0  0  0  0  0  0
  -28.9822  -21.7509   19.6957 C   0  0  0  0  0  0  0  0  0  0  0  0
  -25.6112  -13.0155   21.2888 C   0  0  0  0  0  0  0  0  0  0  0  0
  -30.1558  -23.8136   20.2231 C   0  0  0  0  0  0  0  0  0  0  0  0
  -24.7807  -10.8535   20.8905 C   0  0  0  0  0  0  0  0  0  0  0  0
  -23.0828   -8.7654   21.6250 C   0  0  0  0  0  0  0  0  0  0  0  0
  -23.4018  -11.0591   20.9362 C   0  0  0  0  0  0  0  0  0  0  0  0
  -25.5687  -16.5185   23.6605 C   0  0  0  0  0  0  0  0  0  0  0  0
  -26.1395  -18.2835   24.8412 C   0  0  0  0  0  0  0  0  0  0  0  0
  -28.0809  -16.9995   23.9298 C   0  0  0  0  0  0  0  0  0  0  0  0
  -29.8019  -18.4476   19.4844 C   0  0  0  0  0  0  0  0  0  0  0  0
  -25.3053  -27.0932   25.8931 C   0  0  0  0  0  0  0  0  0  0  0  0
  -26.7303  -18.8846   18.5374 C   0  0  0  0  0  0  0  0  0  0  0  0
  -23.0930  -27.7127   23.7792 C   0  0  0  0  0  0  0  0  0  0  0  0
  -29.0032  -27.5764   19.8583 C   0  0  0  0  0  0  0  0  0  0  0  0
  -24.1696  -21.0546   17.9205 C   0  0  0  0  0  0  0  0  0  0  0  0
  -22.3836  -22.3743   25.3926 C   0  0  0  0  0  0  0  0  0  0  0  0
  -30.4047  -13.6935   17.7259 C   0  0  0  0  0  0  0  0  0  0  0  0
  -28.8920  -19.8605   21.3638 C   0  0  0  0  0  0  0  0  0  0  0  0
  -28.1618  -20.9546   18.7153 C   0  0  0  0  0  0  0  0  0  0  0  0
  -29.8122  -14.9914   17.1831 C   0  0  0  0  0  0  0  0  0  0  0  0
  -21.3890  -19.0998   26.3752 C   0  0  0  0  0  0  0  0  0  0  0  0
  -30.7796  -16.1510   17.3984 C   0  0  0  0  0  0  0  0  0  0  0  0
  -22.4758  -18.1963   25.7898 C   0  0  0  0  0  0  0  0  0  0  0  0
  -25.1934  -24.8559   24.7768 C   0  0  0  0  0  0  0  0  0  0  0  0
  -21.0724  -20.2734   25.4508 C   0  0  0  0  0  0  0  0  0  0  0  0
  -23.3280  -20.1742   24.4630 C   0  0  0  0  0  0  0  0  0  0  0  0
  -22.8498  -25.3051   24.5407 C   0  0  0  0  0  0  0  0  0  0  0  0
  -31.0468  -16.3766   18.8915 C   0  0  1  0  0  0  0  0  0  0  0  0
  -28.5699  -18.9526   20.1808 C   0  0  1  0  0  0  0  0  0  0  0  0
  -25.0140  -26.3628   24.6166 C   0  0  1  0  0  0  0  0  0  0  0  0
  -23.7214  -19.0075   25.3851 C   0  0  2  0  0  0  0  0  0  0  0  0
  -23.8231  -24.3926   25.2760 C   0  0  1  0  0  0  0  0  0  0  0  0
  -21.7921  -21.1194   17.1199 C   0  0  0  0  0  0  0  0  0  0  0  0
  -27.8930  -30.5706   28.0863 C   0  0  0  0  0  0  0  0  0  0  0  0
  -21.3661  -28.0490   25.5215 C   0  0  0  0  0  0  0  0  0  0  0  0
  -20.8065  -26.8132   23.4109 C   0  0  0  0  0  0  0  0  0  0  0  0
  -21.2179  -29.2829   23.3419 C   0  0  0  0  0  0  0  0  0  0  0  0
  -27.6872  -18.4705   15.6699 C   0  0  0  0  0  0  0  0  0  0  0  0
  -25.5308  -19.4679   14.8802 C   0  0  0  0  0  0  0  0  0  0  0  0
  -25.5134  -17.3605   16.2148 C   0  0  0  0  0  0  0  0  0  0  0  0
  -27.6183  -27.4439   24.9836 C   0  0  0  0  0  0  0  0  0  0  0  0
  -23.2179  -22.2012   20.4775 C   0  0  0  0  0  0  0  0  0  0  0  0
  -30.4232  -27.4171   20.3786 C   0  0  0  0  0  0  0  0  0  0  0  0
  -26.2508  -31.5850   21.7046 C   0  0  0  0  0  0  0  0  0  0  0  0
  -26.8714  -32.7647   22.4564 C   0  0  0  0  0  0  0  0  0  0  0  0
  -27.1862  -31.0689   20.6092 C   0  0  0  0  0  0  0  0  0  0  0  0
  -25.9504  -33.2539   23.5764 C   0  0  0  0  0  0  0  0  0  0  0  0
  -26.5803  -29.8635   19.8843 C   0  0  0  0  0  0  0  0  0  0  0  0
  -25.5912  -32.1611   24.5868 C   0  0  0  0  0  0  0  0  0  0  0  0
  -27.5139  -29.2866   18.8254 C   0  0  0  0  0  0  0  0  0  0  0  0
  -27.0239  -28.3341   27.2047 C   0  0  0  0  0  0  0  0  0  0  0  0
  -26.8101  -31.5536   25.2670 C   0  0  0  0  0  0  0  0  0  0  0  0
  -30.7070  -26.0218   20.9130 C   0  0  0  0  0  0  0  0  0  1  0  0
  -26.0589  -19.5479   17.3592 C   0  0  1  0  0  0  0  0  0  0  0  0
  -22.7082  -21.0308   18.3306 C   0  0  2  0  0  0  0  0  0  0  0  0
  -27.4711  -29.7563   26.8706 C   0  0  1  0  0  0  0  0  0  0  0  0
  -21.6245  -27.9638   24.0123 C   0  0  0  0  0  0  0  0  0  0  0  0
  -26.2147  -18.7263   16.0485 C   0  0  0  0  0  0  0  0  0  0  0  0
  -24.4070  -17.0522   24.0474 N   0  0  0  0  0  0  0  0  0  0  0  0
  -24.7872  -18.1238   24.7638 N   0  0  0  0  0  0  0  0  0  0  0  0
  -27.7478  -19.6158   19.1667 N   0  0  0  0  0  0  0  0  0  0  0  0
  -23.5955  -26.5457   24.3344 N   0  0  0  0  0  0  0  0  0  0  0  0
  -22.2956  -21.0019   25.1063 N   0  0  0  0  0  0  0  0  0  0  0  0
  -26.6922  -19.3095   25.5226 N   0  0  0  0  0  0  0  0  0  0  0  0
  -28.4645  -15.8868   23.1687 N   0  0  0  0  0  0  0  0  0  0  0  0
  -29.9357  -17.0724   19.5043 N   0  0  0  0  0  0  0  0  0  0  0  0
  -28.7710  -28.8615   19.3757 N   0  0  0  0  0  0  0  0  0  0  0  0
  -24.6749  -19.7821   17.7568 N   0  0  0  0  0  0  0  0  0  0  0  0
  -23.5797  -22.9870   25.0395 N   0  0  0  0  0  0  0  0  0  0  0  0
  -26.6050  -27.6087   26.0277 N   0  0  0  0  0  0  0  0  0  0  0  0
  -22.4051  -22.1765   19.2342 N   0  3  0  0  0  0  0  0  0  0  0  0
  -26.3640  -30.4738   26.1819 N   0  3  0  0  0  0  0  0  0  0  0  0
  -28.9650  -17.7364   24.4285 O   0  0  0  0  0  0  0  0  0  0  0  0
  -30.5732  -19.2465   18.9661 O   0  0  0  0  0  0  0  0  0  0  0  0
  -24.4149  -27.2033   26.7401 O   0  0  0  0  0  0  0  0  0  0  0  0
  -26.3607  -17.7621   18.8910 O   0  0  0  0  0  0  0  0  0  0  0  0
  -23.7689  -28.5212   23.1406 O   0  0  0  0  0  0  0  0  0  0  0  0
  -28.1756  -26.6693   19.8707 O   0  0  0  0  0  0  0  0  0  0  0  0
  -24.7989  -22.0977   17.7577 O   0  0  0  0  0  0  0  0  0  0  0  0
  -21.4664  -23.0055   25.9286 O   0  0  0  0  0  0  0  0  0  0  0  0
  -25.6248  -11.8888   20.5253 O   0  0  0  0  0  0  0  0  0  0  0  0
  -30.5546  -25.0745   19.8637 O   0  0  0  0  0  0  0  0  0  1  0  0
  -22.2676   -7.7624   21.9762 F   0  0  0  0  0  0  0  0  0  0  0  0
  -22.8868  -12.2570   20.6272 F   0  0  0  0  0  0  0  0  0  0  0  0
  1  2  1  0  0  0  0
  1  5  2  0  0  0  0
  2  6  2  0  0  0  0
  3  8  2  0  0  0  0
  3 15  1  0  0  0  0
  4  9  1  0  0  0  0
  4 15  2  0  0  0  0
  5 17  1  0  0  0  0
  6 19  1  0  0  0  0
  7 10  2  0  0  0  0
  7 18  1  0  0  0  0
  8 21  1  0  0  0  0
  9 21  2  0  0  0  0
 10 22  1  0  0  0  0
 11 12  2  0  0  0  0
 11 23  1  0  0  0  0
 12 24  1  0  0  0  0
 13 20  1  0  0  0  0
 13 22  2  0  0  0  0
 14 24  2  0  0  0  0
 14 25  1  0  0  0  0
 15 26  1  0  0  0  0
 16 26  1  0  0  0  0
 16 27  2  0  0  0  0
 16 28  1  0  0  0  0
 17 19  2  0  0  0  0
 17 36  1  0  0  0  0
 18 20  2  0  0  0  0
 18 37  1  0  0  0  0
 19 47  1  0  0  0  0
 20 38  1  0  0  0  0
 21100  1  0  0  0  0
 22101  1  0  0  0  0
 23 25  2  0  0  0  0
 23100  1  0  0  0  0
 24102  1  0  0  0  0
 25103  1  0  0  0  0
 26 78  2  0  0  0  0
 27 79  1  0  0  0  0
 27 83  1  0  0  0  0
 28 84  1  0  0  0  0
 28 92  2  0  0  0  0
 29 48  1  0  0  0  0
 29 85  1  0  0  0  0
 29 93  2  0  0  0  0
 30 49  1  0  0  0  0
 30 89  1  0  0  0  0
 30 94  2  0  0  0  0
 31 73  1  0  0  0  0
 31 80  1  0  0  0  0
 31 95  2  0  0  0  0
 32 76  1  0  0  0  0
 32 81  1  0  0  0  0
 32 96  2  0  0  0  0
 33 62  1  0  0  0  0
 33 86  1  0  0  0  0
 33 97  2  0  0  0  0
 34 74  1  0  0  0  0
 34 87  1  0  0  0  0
 34 98  2  0  0  0  0
 35 82  1  0  0  0  0
 35 88  1  0  0  0  0
 35 99  2  0  0  0  0
 36 39  1  0  0  0  0
 37 48  1  0  0  0  0
 38 80  1  0  0  0  0
 39 41  1  0  0  0  0
 40 42  1  0  0  0  0
 40 44  1  0  0  0  0
 41 47  1  0  0  0  0
 42 50  1  0  0  0  0
 43 49  1  0  0  0  0
 43 51  1  0  0  0  0
 44 82  1  0  0  0  0
 45 50  1  0  0  0  0
 45 82  1  0  0  0  0
 46 51  1  0  0  0  0
 46 81  1  0  0  0  0
 47 85  1  0  0  0  0
 48 80  1  0  0  0  0
 49 81  1  0  0  0  0
 50 79  1  0  0  0  0
 51 88  1  0  0  0  0
 52 74  1  0  0  0  0
 53 75  1  0  0  0  0
 54 76  1  0  0  0  0
 55 76  1  0  0  0  0
 56 76  1  0  0  0  0
 57 77  1  0  0  0  0
 58 77  1  0  0  0  0
 59 77  1  0  0  0  0
 60 89  1  0  0  0  0
 61 90  1  0  0  0  0
 62 72  1  0  0  0  0
 63 64  1  0  0  0  0
 63 65  1  0  0  0  0
 64 66  1  0  0  0  0
 65 67  1  0  0  0  0
 66 68  1  0  0  0  0
 67 69  1  0  0  0  0
 68 71  1  0  0  0  0
 69 86  1  0  0  0  0
 70 75  1  0  0  0  0
 70 89  1  0  0  0  0
 71 91  1  0  0  0  0
 72101  1  0  0  0  0
 73 77  1  0  0  0  0
 73 87  1  0  0  0  0
 74 90  1  0  0  0  0
 75 91  1  0  0  0  0
 78 79  1  0  0  0  0
M  CHG  2  90   1  91   1
M  ISO  4  35 100  72 101  88 100 101 101
M  END
> <Batch ID>
0008

> <Smiles>
CNC(C)C(=O)NC(C(=O)N1Cc2cc([101O:1][101CH2:1]CC(=O)NCCCCCCCCNC(C)CN(C)C(=O)C3CC([100NH:0][100C:0](=O)N4CCCC(n5nc(-c6ccc(Oc7ccc(F)cc7F)cc6)c(C(N)=O)c5N)C4)CN3C(=O)C(C)(C)C)ccc2CC1C(=O)NC1CCCc2ccccc21)C(C)(C)C

> <Shape>
0.240

> <Color>
0.064

> <Negative vol penalty>
0.000

$$$$

  -OEChem-04052315363D

 87 95  0     1  0  0  0  0  0999 V2000
  -21.6375  -24.8834   31.7514 C   0  0  0  0  0  0  0  0  0  0  0  0
  -22.2012  -24.0647   30.7782 C   0  0  0  0  0  0  0  0  0  0  0  0
  -23.0059   -9.9963   19.9518 C   0  0  0  0  0  0  0  0  0  0  0  0
  -23.8298   -9.9051   22.2211 C   0  0  0  0  0  0  0  0  0  0  0  0
  -20.8517  -25.9720   31.3754 C   0  0  0  0  0  0  0  0  0  0  0  0
  -21.9784  -24.3334   29.4281 C   0  0  0  0  0  0  0  0  0  0  0  0
  -26.2035  -23.9951   26.6571 C   0  0  0  0  0  0  0  0  0  0  0  0
  -22.2369   -8.8563   20.1852 C   0  0  0  0  0  0  0  0  0  0  0  0
  -23.0608   -8.7651   22.4546 C   0  0  0  0  0  0  0  0  0  0  0  0
  -26.6446  -22.7157   26.3222 C   0  0  0  0  0  0  0  0  0  0  0  0
  -19.8294   -8.0365   23.1240 C   0  0  0  0  0  0  0  0  0  0  0  0
  -19.1048   -7.9779   24.3144 C   0  0  0  0  0  0  0  0  0  0  0  0
  -25.6679  -22.9593   24.1299 C   0  0  0  0  0  0  0  0  0  0  0  0
  -30.1086  -17.2840   23.1981 C   0  0  0  0  0  0  0  0  0  0  0  0
  -32.2509  -16.3972   22.5191 C   0  0  0  0  0  0  0  0  0  0  0  0
  -32.1351  -18.0964   24.2326 C   0  0  0  0  0  0  0  0  0  0  0  0
  -20.3109   -5.9834   24.9504 C   0  0  0  0  0  0  0  0  0  0  0  0
  -23.8025  -10.5207   20.9698 C   0  0  0  0  0  0  0  0  0  0  0  0
  -24.2125  -13.0381   20.9230 C   0  0  0  0  0  0  0  0  0  0  0  0
  -20.6271  -26.2599   30.0199 C   0  0  0  0  0  0  0  0  0  0  0  0
  -25.4807  -24.7634   25.7331 C   0  0  0  0  0  0  0  0  0  0  0  0
  -21.1878  -25.4260   29.0336 C   0  0  0  0  0  0  0  0  0  0  0  0
  -25.2210  -24.2492   24.4547 C   0  0  0  0  0  0  0  0  0  0  0  0
  -30.8613  -16.4220   22.4006 C   0  0  0  0  0  0  0  0  0  0  0  0
  -30.7455  -18.1213   24.1141 C   0  0  0  0  0  0  0  0  0  0  0  0
  -32.8878  -17.2344   23.4352 C   0  0  0  0  0  0  0  0  0  0  0  0
  -22.2643   -8.2407   21.4365 C   0  0  0  0  0  0  0  0  0  0  0  0
  -26.3743  -22.1964   25.0595 C   0  0  0  0  0  0  0  0  0  0  0  0
  -20.7947   -7.0684   22.8467 C   0  0  0  0  0  0  0  0  0  0  0  0
  -19.3456   -6.9514   25.2276 C   0  0  0  0  0  0  0  0  0  0  0  0
  -21.0354   -6.0419   23.7599 C   0  0  0  0  0  0  0  0  0  0  0  0
  -24.5976  -11.6980   20.7291 C   0  0  0  0  0  0  0  0  0  0  0  0
  -25.3149  -13.7691   20.5530 C   0  0  0  0  0  0  0  0  0  0  0  0
  -22.9694  -13.5743   21.3953 C   0  0  0  0  0  0  0  0  0  0  0  0
  -22.5582  -26.0108   25.6523 C   0  0  0  0  0  0  0  0  0  0  0  0
  -23.6359  -27.3688   22.9106 C   0  0  0  0  0  0  0  0  0  0  0  0
  -28.7433  -19.5198   24.4443 C   0  0  0  0  0  0  0  0  0  0  0  0
  -25.8252  -27.2703   20.2946 C   0  0  0  0  0  0  0  0  0  0  0  0
  -30.8113  -14.6576   20.6032 C   0  0  0  0  0  0  0  0  0  0  0  0
  -19.7318  -27.4198   29.6628 C   0  0  0  0  0  0  0  0  0  0  0  0
  -25.0351  -26.1522   26.1005 C   0  0  0  0  0  0  0  0  0  0  0  0
  -24.4664  -25.0414   23.4195 C   0  0  0  0  0  0  0  0  0  0  0  0
  -19.8523  -27.8560   28.2048 C   0  0  0  0  0  0  0  0  0  0  0  0
  -29.5626  -12.3564   18.1902 C   0  0  0  0  0  0  0  0  0  0  0  0
  -19.8136  -26.6436   27.2800 C   0  0  0  0  0  0  0  0  0  0  0  0
  -28.1279  -12.0902   18.6516 C   0  0  0  0  0  0  0  0  0  0  0  0
  -30.5173  -12.5194   19.3717 C   0  0  0  0  0  0  0  0  0  0  0  0
  -28.6712  -13.2491   20.8308 C   0  0  0  0  0  0  0  0  0  0  0  0
  -20.9895  -25.6995   27.5584 C   0  0  1  0  0  0  0  0  0  0  0  0
  -23.8620  -26.6455   25.2591 C   0  0  1  0  0  0  0  0  0  0  0  0
  -27.6612  -13.1424   19.6766 C   0  0  2  0  0  0  0  0  0  0  0  0
  -35.2446  -19.0003   22.2246 C   0  0  0  0  0  0  0  0  0  0  0  0
  -34.9404  -15.4059   25.0419 C   0  0  0  0  0  0  0  0  0  0  0  0
  -26.4387  -28.4952   18.1921 C   0  0  0  0  0  0  0  0  0  0  0  0
  -21.1924  -26.1903   21.5139 C   0  0  0  0  0  0  0  0  0  0  0  0
  -22.3266  -26.6155   19.3228 C   0  0  0  0  0  0  0  0  0  0  0  0
  -21.7628  -28.5257   20.8247 C   0  0  0  0  0  0  0  0  0  0  0  0
  -30.4680  -19.3754   26.2775 C   0  0  0  0  0  0  0  0  0  0  0  0
  -28.5584  -27.8316   21.2812 C   0  0  0  0  0  0  0  0  0  0  0  0
  -28.0000  -20.4860   25.3554 C   0  0  0  0  0  0  0  0  0  1  0  0
  -35.1323  -17.5261   22.4166 C   0  0  0  0  0  0  0  0  0  0  0  0
  -34.9157  -16.8802   24.8216 C   0  0  0  0  0  0  0  0  0  0  0  0
  -23.6532  -26.9697   21.4548 C   0  0  1  0  0  0  0  0  0  0  0  0
  -26.7097  -28.3403   19.6805 C   0  0  2  0  0  0  0  0  0  0  0  0
  -22.2463  -27.0594   20.7990 C   0  0  0  0  0  0  0  0  0  0  0  0
  -25.8469  -11.5816   20.2714 N   0  0  0  0  0  0  0  0  0  0  0  0
  -26.2564  -12.8579   20.1744 N   0  0  0  0  0  0  0  0  0  0  0  0
  -24.0463  -26.3918   23.8288 N   0  0  0  0  0  0  0  0  0  0  0  0
  -30.0127  -13.5351   20.2983 N   0  0  0  0  0  0  0  0  0  0  0  0
  -25.5609  -15.0960   20.5177 N   0  0  0  0  0  0  0  0  0  0  0  0
  -21.9420  -12.6824   21.7317 N   0  0  0  0  0  0  0  0  0  0  0  0
  -30.2138  -15.5720   21.4701 N   0  0  0  0  0  0  0  0  0  0  0  0
  -22.2057  -26.2204   26.9719 N   0  0  0  0  0  0  0  0  0  0  0  0
  -24.6650  -27.8034   20.8150 N   0  0  0  0  0  0  0  0  0  0  0  0
  -29.9643  -19.0173   24.9426 N   0  0  0  0  0  0  0  0  0  0  0  0
  -34.2928  -17.2094   23.5549 N   0  0  0  0  0  0  0  0  0  0  0  0
  -28.1471  -27.9915   19.8627 N   0  3  0  0  0  0  0  0  0  0  0  0
  -22.7700  -14.8083   21.4999 O   0  0  0  0  0  0  0  0  0  0  0  0
  -21.9184  -25.3789   24.8197 O   0  0  0  0  0  0  0  0  0  0  0  0
  -23.2784  -28.5078   23.2212 O   0  0  0  0  0  0  0  0  0  0  0  0
  -28.2645  -19.2605   23.3373 O   0  0  0  0  0  0  0  0  0  0  0  0
  -26.1311  -26.0800   20.3078 O   0  0  0  0  0  0  0  0  0  0  0  0
  -31.9312  -14.8109   20.1088 O   0  0  0  0  0  0  0  0  0  0  0  0
  -21.5138   -7.1284   21.6647 O   0  0  0  0  0  0  0  0  0  0  0  0
  -26.8032  -20.9476   24.7302 O   0  0  0  0  0  0  0  0  0  1  0  0
  -18.6508   -6.8962   26.3714 F   0  0  0  0  0  0  0  0  0  0  0  0
  -21.9623   -5.1097   23.4996 F   0  0  0  0  0  0  0  0  0  0  0  0
  1  2  1  0  0  0  0
  1  5  2  0  0  0  0
  2  6  2  0  0  0  0
  3  8  2  0  0  0  0
  3 18  1  0  0  0  0
  4  9  1  0  0  0  0
  4 18  2  0  0  0  0
  5 20  1  0  0  0  0
  6 22  1  0  0  0  0
  7 10  2  0  0  0  0
  7 21  1  0  0  0  0
  8 27  1  0  0  0  0
  9 27  2  0  0  0  0
 10 28  1  0  0  0  0
 11 12  2  0  0  0  0
 11 29  1  0  0  0  0
 12 30  1  0  0  0  0
 13 23  1  0  0  0  0
 13 28  2  0  0  0  0
 14 24  1  0  0  0  0
 14 25  2  0  0  0  0
 15 24  2  0  0  0  0
 15 26  1  0  0  0  0
 16 25  1  0  0  0  0
 16 26  2  0  0  0  0
 17 30  2  0  0  0  0
 17 31  1  0  0  0  0
 18 32  1  0  0  0  0
 19 32  1  0  0  0  0
 19 33  2  0  0  0  0
 19 34  1  0  0  0  0
 20 22  2  0  0  0  0
 20 40  1  0  0  0  0
 21 23  2  0  0  0  0
 21 41  1  0  0  0  0
 22 49  1  0  0  0  0
 23 42  1  0  0  0  0
 24 72  1  0  0  0  0
 25 75  1  0  0  0  0
 26 76  1  0  0  0  0
 27 84  1  0  0  0  0
 28 85  1  0  0  0  0
 29 31  2  0  0  0  0
 29 84  1  0  0  0  0
 30 86  1  0  0  0  0
 31 87  1  0  0  0  0
 32 66  2  0  0  0  0
 33 67  1  0  0  0  0
 33 70  1  0  0  0  0
 34 71  1  0  0  0  0
 34 78  2  0  0  0  0
 35 50  1  0  0  0  0
 35 73  1  0  0  0  0
 35 79  2  0  0  0  0
 36 63  1  0  0  0  0
 36 68  1  0  0  0  0
 36 80  2  0  0  0  0
 37 60  1  0  0  0  0
 37 75  1  0  0  0  0
 37 81  2  0  0  0  0
 38 64  1  0  0  0  0
 38 74  1  0  0  0  0
 38 82  2  0  0  0  0
 39 69  1  0  0  0  0
 39 72  1  0  0  0  0
 39 83  2  0  0  0  0
 40 43  1  0  0  0  0
 41 50  1  0  0  0  0
 42 68  1  0  0  0  0
 43 45  1  0  0  0  0
 44 46  1  0  0  0  0
 44 47  1  0  0  0  0
 45 49  1  0  0  0  0
 46 51  1  0  0  0  0
 47 69  1  0  0  0  0
 48 51  1  0  0  0  0
 48 69  1  0  0  0  0
 49 73  1  0  0  0  0
 50 68  1  0  0  0  0
 51 67  1  0  0  0  0
 52 61  1  0  0  0  0
 53 62  1  0  0  0  0
 54 64  1  0  0  0  0
 55 65  1  0  0  0  0
 56 65  1  0  0  0  0
 57 65  1  0  0  0  0
 58 75  1  0  0  0  0
 59 77  1  0  0  0  0
 60 85  1  0  0  0  0
 61 76  1  0  0  0  0
 62 76  1  0  0  0  0
 63 65  1  0  0  0  0
 63 74  1  0  0  0  0
 64 77  1  0  0  0  0
 66 67  1  0  0  0  0
M  CHG  1  77   1
M  ISO  4  39 100  60 101  72 100  85 101
M  END
> <Batch ID>
0008

> <Smiles>
CCN(CC)c1cc([100NH:0][100C:0](=O)N2CCCC(n3nc(-c4ccc(Oc5ccc(F)cc5F)cc4)c(C(N)=O)c3N)C2)cc(N(C)C(=O)[101CH2:1][101O:1]c2ccc3c(c2)CN(C(=O)C(NC(=O)C(C)NC)C(C)(C)C)C(C(=O)NC2CCCc4ccccc42)C3)c1

> <Shape>
0.215

> <Color>
0.216

> <Negative vol penalty>
0.000

$$$$

  -OEChem-04052315363D

 82 90  0     1  0  0  0  0  0999 V2000
  -24.5381  -32.0498   29.0889 C   0  0  0  0  0  0  0  0  0  0  0  0
  -25.2960  -31.2010   28.2887 C   0  0  0  0  0  0  0  0  0  0  0  0
  -24.5931   -8.9874   21.5671 C   0  0  0  0  0  0  0  0  0  0  0  0
  -23.9124  -10.7040   23.1250 C   0  0  0  0  0  0  0  0  0  0  0  0
  -23.2195  -32.3406   28.7414 C   0  0  0  0  0  0  0  0  0  0  0  0
  -24.7355  -30.6417   27.1409 C   0  0  0  0  0  0  0  0  0  0  0  0
  -27.5943  -29.4318   21.8617 C   0  0  0  0  0  0  0  0  0  0  0  0
  -28.2880  -21.0361   19.7648 C   0  0  0  0  0  0  0  0  0  0  0  0
  -28.5347  -19.6632   19.7597 C   0  0  0  0  0  0  0  0  0  0  0  0
  -24.1596   -8.0063   22.4588 C   0  0  0  0  0  0  0  0  0  0  0  0
  -23.4788   -9.7229   24.0166 C   0  0  0  0  0  0  0  0  0  0  0  0
  -28.1342  -28.2594   21.3347 C   0  0  0  0  0  0  0  0  0  0  0  0
  -22.9012   -5.0572   24.1718 C   0  0  0  0  0  0  0  0  0  0  0  0
  -22.1543   -3.9976   23.6572 C   0  0  0  0  0  0  0  0  0  0  0  0
  -26.0932  -27.8786   20.1066 C   0  0  0  0  0  0  0  0  0  0  0  0
  -26.0111  -20.6295   19.0669 C   0  0  0  0  0  0  0  0  0  0  0  0
  -20.4769   -5.5552   22.8844 C   0  0  0  0  0  0  0  0  0  0  0  0
  -24.4696  -10.3363   21.9003 C   0  0  0  0  0  0  0  0  0  0  0  0
  -24.1638  -11.9715   19.9662 C   0  0  0  0  0  0  0  0  0  0  0  0
  -22.6456  -31.7923   27.5836 C   0  0  0  0  0  0  0  0  0  0  0  0
  -26.2934  -29.8313   21.5231 C   0  0  0  0  0  0  0  0  0  0  0  0
  -23.4076  -30.9244   26.7783 C   0  0  0  0  0  0  0  0  0  0  0  0
  -25.5400  -29.0578   20.6287 C   0  0  0  0  0  0  0  0  0  0  0  0
  -26.2578  -19.2566   19.0617 C   0  0  0  0  0  0  0  0  0  0  0  0
  -27.0262  -21.5192   19.4184 C   0  0  0  0  0  0  0  0  0  0  0  0
  -27.5196  -18.7735   19.4082 C   0  0  0  0  0  0  0  0  0  0  0  0
  -23.6024   -8.3740   23.6835 C   0  0  0  0  0  0  0  0  0  0  0  0
  -27.3826  -27.4811   20.4592 C   0  0  0  0  0  0  0  0  0  0  0  0
  -22.4359   -6.3659   24.0429 C   0  0  0  0  0  0  0  0  0  0  0  0
  -20.9422   -4.2466   23.0134 C   0  0  0  0  0  0  0  0  0  0  0  0
  -21.2238   -6.6149   23.3991 C   0  0  0  0  0  0  0  0  0  0  0  0
  -24.9178  -11.3503   20.9799 C   0  0  0  0  0  0  0  0  0  0  0  0
  -25.0385  -12.8526   19.3788 C   0  0  0  0  0  0  0  0  0  0  0  0
  -22.7952  -11.7701   19.5894 C   0  0  0  0  0  0  0  0  0  0  0  0
  -23.5981  -30.3002   23.1414 C   0  0  0  0  0  0  0  0  0  0  0  0
  -22.5265  -31.3870   20.2790 C   0  0  0  0  0  0  0  0  0  0  0  0
  -27.6645  -23.9309   19.7502 C   0  0  0  0  0  0  0  0  0  0  0  0
  -22.8241  -31.3739   16.8793 C   0  0  0  0  0  0  0  0  0  0  0  0
  -28.9931  -16.7562   19.7335 C   0  0  0  0  0  0  0  0  0  0  0  0
  -21.2015  -32.0983   27.2743 C   0  0  0  0  0  0  0  0  0  0  0  0
  -25.7354  -31.1126   22.0793 C   0  0  0  0  0  0  0  0  0  0  0  0
  -24.1461  -29.4535   20.2175 C   0  0  0  0  0  0  0  0  0  0  0  0
  -20.8013  -31.7621   25.8400 C   0  0  0  0  0  0  0  0  0  0  0  0
  -30.0481  -13.3595   19.8965 C   0  0  0  0  0  0  0  0  0  0  0  0
  -21.3117  -30.3774   25.4541 C   0  0  0  0  0  0  0  0  0  0  0  0
  -28.7454  -12.5851   20.1095 C   0  0  0  0  0  0  0  0  0  0  0  0
  -30.0425  -14.6941   20.6399 C   0  0  0  0  0  0  0  0  0  0  0  0
  -27.5812  -14.7789   20.5775 C   0  0  0  0  0  0  0  0  0  0  0  0
  -22.8429  -30.3179   25.5121 C   0  0  1  0  0  0  0  0  0  0  0  0
  -24.2104  -31.1548   22.0679 C   0  0  1  0  0  0  0  0  0  0  0  0
  -27.5138  -13.4569   19.7955 C   0  0  2  0  0  0  0  0  0  0  0  0
  -25.1515  -18.3263   18.6830 C   0  0  0  0  0  0  0  0  0  0  0  0
  -21.7817  -32.3309   14.8069 C   0  0  0  0  0  0  0  0  0  0  0  0
  -20.2014  -29.4295   20.5476 C   0  0  0  0  0  0  0  0  0  0  0  0
  -19.7540  -29.7337   18.1031 C   0  0  0  0  0  0  0  0  0  0  0  0
  -19.5731  -31.6792   19.6539 C   0  0  0  0  0  0  0  0  0  0  0  0
  -25.3330  -32.7418   16.1090 C   0  0  0  0  0  0  0  0  0  0  0  0
  -26.9925  -25.2862   19.6310 C   0  0  0  0  0  0  0  0  0  1  0  0
  -21.8573  -30.7599   19.0799 C   0  0  1  0  0  0  0  0  0  0  0  0
  -22.8584  -32.5045   15.8668 C   0  0  2  0  0  0  0  0  0  0  0  0
  -20.3720  -30.3918   19.3552 C   0  0  0  0  0  0  0  0  0  0  0  0
  -26.1747  -11.7986   21.0358 N   0  0  0  0  0  0  0  0  0  0  0  0
  -26.2173  -12.7109   20.0499 N   0  0  0  0  0  0  0  0  0  0  0  0
  -23.6423  -30.7114   20.7932 N   0  0  0  0  0  0  0  0  0  0  0  0
  -28.8492  -15.4676   20.2898 N   0  0  0  0  0  0  0  0  0  0  0  0
  -24.9065  -13.7270   18.3588 N   0  0  0  0  0  0  0  0  0  0  0  0
  -22.0391  -10.8263   20.2978 N   0  0  0  0  0  0  0  0  0  0  0  0
  -26.7753  -22.9119   19.4263 N   0  0  0  0  0  0  0  0  0  0  0  0
  -27.7897  -17.3825   19.4107 N   0  0  0  0  0  0  0  0  0  0  0  0
  -23.4179  -30.9532   24.3458 N   0  0  0  0  0  0  0  0  0  0  0  0
  -22.0469  -31.6913   17.9731 N   0  0  0  0  0  0  0  0  0  0  0  0
  -24.1838  -32.5511   15.1871 N   0  3  0  0  0  0  0  0  0  0  0  0
  -22.2633  -12.3964   18.6416 O   0  0  0  0  0  0  0  0  0  0  0  0
  -23.3090  -29.1352   22.8947 O   0  0  0  0  0  0  0  0  0  0  0  0
  -22.0801  -32.4413   20.7381 O   0  0  0  0  0  0  0  0  0  0  0  0
  -28.8377  -23.8233   20.0920 O   0  0  0  0  0  0  0  0  0  0  0  0
  -23.4237  -30.3138   16.7145 O   0  0  0  0  0  0  0  0  0  0  0  0
  -30.1029  -17.2555   19.5313 O   0  0  0  0  0  0  0  0  0  0  0  0
  -23.1790   -7.4169   24.5537 O   0  0  0  0  0  0  0  0  0  0  0  0
  -27.9070  -26.3360   19.9439 O   0  0  0  0  0  0  0  0  0  1  0  0
  -20.2258   -3.2290   22.5179 F   0  0  0  0  0  0  0  0  0  0  0  0
  -20.7723   -7.8701   23.2711 F   0  0  0  0  0  0  0  0  0  0  0  0
  1  2  1  0  0  0  0
  1  5  2  0  0  0  0
  2  6  2  0  0  0  0
  3 10  2  0  0  0  0
  3 18  1  0  0  0  0
  4 11  1  0  0  0  0
  4 18  2  0  0  0  0
  5 20  1  0  0  0  0
  6 22  1  0  0  0  0
  7 12  2  0  0  0  0
  7 21  1  0  0  0  0
  8  9  2  0  0  0  0
  8 25  1  0  0  0  0
  9 26  1  0  0  0  0
 10 27  1  0  0  0  0
 11 27  2  0  0  0  0
 12 28  1  0  0  0  0
 13 14  2  0  0  0  0
 13 29  1  0  0  0  0
 14 30  1  0  0  0  0
 15 23  1  0  0  0  0
 15 28  2  0  0  0  0
 16 24  1  0  0  0  0
 16 25  2  0  0  0  0
 17 30  2  0  0  0  0
 17 31  1  0  0  0  0
 18 32  1  0  0  0  0
 19 32  1  0  0  0  0
 19 33  2  0  0  0  0
 19 34  1  0  0  0  0
 20 22  2  0  0  0  0
 20 40  1  0  0  0  0
 21 23  2  0  0  0  0
 21 41  1  0  0  0  0
 22 49  1  0  0  0  0
 23 42  1  0  0  0  0
 24 26  2  0  0  0  0
 24 52  1  0  0  0  0
 25 68  1  0  0  0  0
 26 69  1  0  0  0  0
 27 79  1  0  0  0  0
 28 80  1  0  0  0  0
 29 31  2  0  0  0  0
 29 79  1  0  0  0  0
 30 81  1  0  0  0  0
 31 82  1  0  0  0  0
 32 62  2  0  0  0  0
 33 63  1  0  0  0  0
 33 66  1  0  0  0  0
 34 67  1  0  0  0  0
 34 73  2  0  0  0  0
 35 50  1  0  0  0  0
 35 70  1  0  0  0  0
 35 74  2  0  0  0  0
 36 59  1  0  0  0  0
 36 64  1  0  0  0  0
 36 75  2  0  0  0  0
 37 58  1  0  0  0  0
 37 68  1  0  0  0  0
 37 76  2  0  0  0  0
 38 60  1  0  0  0  0
 38 71  1  0  0  0  0
 38 77  2  0  0  0  0
 39 65  1  0  0  0  0
 39 69  1  0  0  0  0
 39 78  2  0  0  0  0
 40 43  1  0  0  0  0
 41 50  1  0  0  0  0
 42 64  1  0  0  0  0
 43 45  1  0  0  0  0
 44 46  1  0  0  0  0
 44 47  1  0  0  0  0
 45 49  1  0  0  0  0
 46 51  1  0  0  0  0
 47 65  1  0  0  0  0
 48 51  1  0  0  0  0
 48 65  1  0  0  0  0
 49 70  1  0  0  0  0
 50 64  1  0  0  0  0
 51 63  1  0  0  0  0
 53 60  1  0  0  0  0
 54 61  1  0  0  0  0
 55 61  1  0  0  0  0
 56 61  1  0  0  0  0
 57 72  1  0  0  0  0
 58 80  1  0  0  0  0
 59 61  1  0  0  0  0
 59 71  1  0  0  0  0
 60 72  1  0  0  0  0
 62 63  1  0  0  0  0
M  CHG  1  72   1
M  ISO  4  39 100  58 101  69 100  80 101
M  END
> <Batch ID>
0008

> <Smiles>
CNC(C)C(=O)NC(C(=O)N1Cc2cc([101O:1][101CH2:1]C(=O)Nc3ccc([100NH:0][100C:0](=O)N4CCCC(n5nc(-c6ccc(Oc7ccc(F)cc7F)cc6)c(C(N)=O)c5N)C4)c(C)c3)ccc2CC1C(=O)NC1CCCc2ccccc21)C(C)(C)C

> <Shape>
0.257

> <Color>
0.117

> <Negative vol penalty>
0.000

$$$$

  -OEChem-04052315363D

 82 90  0     1  0  0  0  0  0999 V2000
  -35.9589  -31.1499   20.0164 C   0  0  0  0  0  0  0  0  0  0  0  0
  -36.0381  -29.9896   20.7798 C   0  0  0  0  0  0  0  0  0  0  0  0
  -23.0504   -9.9530   19.8689 C   0  0  0  0  0  0  0  0  0  0  0  0
  -23.9076   -9.7548   22.1191 C   0  0  0  0  0  0  0  0  0  0  0  0
  -34.7303  -31.7854   19.8414 C   0  0  0  0  0  0  0  0  0  0  0  0
  -34.8887  -29.4647   21.3697 C   0  0  0  0  0  0  0  0  0  0  0  0
  -33.5665  -23.5472   22.2305 C   0  0  0  0  0  0  0  0  0  0  0  0
  -32.7725  -17.2581   23.6355 C   0  0  0  0  0  0  0  0  0  0  0  0
  -32.1302  -16.4650   22.6848 C   0  0  0  0  0  0  0  0  0  0  0  0
  -22.3199   -8.7777   20.0436 C   0  0  0  0  0  0  0  0  0  0  0  0
  -23.1770   -8.5794   22.2938 C   0  0  0  0  0  0  0  0  0  0  0  0
  -33.6842  -22.7116   23.3403 C   0  0  0  0  0  0  0  0  0  0  0  0
  -19.9789   -7.7118   22.9570 C   0  0  0  0  0  0  0  0  0  0  0  0
  -19.2727   -7.5608   24.1504 C   0  0  0  0  0  0  0  0  0  0  0  0
  -31.3703  -23.1205   23.8860 C   0  0  0  0  0  0  0  0  0  0  0  0
  -30.6302  -18.0559   24.4172 C   0  0  0  0  0  0  0  0  0  0  0  0
  -20.5478   -5.5712   24.6532 C   0  0  0  0  0  0  0  0  0  0  0  0
  -23.8443  -10.4415   20.9066 C   0  0  0  0  0  0  0  0  0  0  0  0
  -24.1764  -12.9690   21.0038 C   0  0  0  0  0  0  0  0  0  0  0  0
  -33.5637  -31.2626   20.4214 C   0  0  0  0  0  0  0  0  0  0  0  0
  -32.3508  -24.1855   21.9458 C   0  0  0  0  0  0  0  0  0  0  0  0
  -33.6436  -30.0945   21.2034 C   0  0  0  0  0  0  0  0  0  0  0  0
  -31.2391  -23.9617   22.7706 C   0  0  0  0  0  0  0  0  0  0  0  0
  -29.9879  -17.2628   23.4664 C   0  0  0  0  0  0  0  0  0  0  0  0
  -32.0225  -18.0536   24.5018 C   0  0  0  0  0  0  0  0  0  0  0  0
  -30.7379  -16.4673   22.6002 C   0  0  0  0  0  0  0  0  0  0  0  0
  -22.3832   -8.0909   21.2560 C   0  0  0  0  0  0  0  0  0  0  0  0
  -32.5869  -22.5004   24.1699 C   0  0  0  0  0  0  0  0  0  0  0  0
  -20.9695   -6.7924   22.6117 C   0  0  0  0  0  0  0  0  0  0  0  0
  -19.5572   -6.4906   24.9985 C   0  0  0  0  0  0  0  0  0  0  0  0
  -21.2540   -5.7222   23.4598 C   0  0  0  0  0  0  0  0  0  0  0  0
  -24.5996  -11.6553   20.7266 C   0  0  0  0  0  0  0  0  0  0  0  0
  -25.2507  -13.7546   20.6646 C   0  0  0  0  0  0  0  0  0  0  0  0
  -22.9241  -13.4372   21.5216 C   0  0  0  0  0  0  0  0  0  0  0  0
  -31.3980  -27.2116   21.7501 C   0  0  0  0  0  0  0  0  0  0  0  0
  -28.6318  -25.8662   20.7204 C   0  0  0  0  0  0  0  0  0  0  0  0
  -26.5888  -23.1334   20.6526 C   0  0  0  0  0  0  0  0  0  0  0  0
  -30.7176  -14.8106   20.7025 C   0  0  0  0  0  0  0  0  0  0  0  0
  -32.2664  -32.0109   20.2433 C   0  0  0  0  0  0  0  0  0  0  0  0
  -32.2328  -25.0627   20.7297 C   0  0  0  0  0  0  0  0  0  0  0  0
  -29.9061  -24.6073   22.4971 C   0  0  0  0  0  0  0  0  0  0  0  0
  -31.0326  -31.1823   20.5919 C   0  0  0  0  0  0  0  0  0  0  0  0
  -29.5072  -12.6170   18.1726 C   0  0  0  0  0  0  0  0  0  0  0  0
  -31.2344  -30.4561   21.9180 C   0  0  0  0  0  0  0  0  0  0  0  0
  -28.0877  -12.2793   18.6344 C   0  0  0  0  0  0  0  0  0  0  0  0
  -30.4724  -12.7402   19.3503 C   0  0  0  0  0  0  0  0  0  0  0  0
  -28.6249  -13.3247   20.8716 C   0  0  0  0  0  0  0  0  0  0  0  0
  -32.4149  -29.4807   21.8388 C   0  0  1  0  0  0  0  0  0  0  0  0
  -31.0889  -26.0675   20.8264 C   0  0  1  0  0  0  0  0  0  0  0  0
  -27.6030  -13.2543   19.7252 C   0  0  2  0  0  0  0  0  0  0  0  0
  -28.4952  -17.2838   23.3994 C   0  0  0  0  0  0  0  0  0  0  0  0
  -24.3780  -22.3482   19.7619 C   0  0  0  0  0  0  0  0  0  0  0  0
  -27.1944  -27.4650   22.8856 C   0  0  0  0  0  0  0  0  0  0  0  0
  -25.2156  -25.9609   22.5848 C   0  0  0  0  0  0  0  0  0  0  0  0
  -26.0027  -27.3779   20.6886 C   0  0  0  0  0  0  0  0  0  0  0  0
  -34.1283  -18.8484   25.5478 C   0  0  0  0  0  0  0  0  0  0  0  0
  -27.8623  -20.9961   19.0498 C   0  0  0  0  0  0  0  0  0  0  0  0
  -31.9213  -19.6955   26.3604 C   0  0  0  0  0  0  0  0  0  0  0  0
  -31.5248  -20.9880   25.6667 C   0  0  0  0  0  0  0  0  0  1  0  0
  -27.3713  -25.3701   21.3868 C   0  0  1  0  0  0  0  0  0  0  0  0
  -25.8747  -22.4377   19.5077 C   0  0  2  0  0  0  0  0  0  0  0  0
  -26.4715  -26.5327   21.8930 C   0  0  0  0  0  0  0  0  0  0  0  0
  -25.8456  -11.6052   20.2481 N   0  0  0  0  0  0  0  0  0  0  0  0
  -26.2145  -12.8972   20.2218 N   0  0  0  0  0  0  0  0  0  0  0  0
  -29.8428  -25.4614   21.2996 N   0  0  0  0  0  0  0  0  0  0  0  0
  -29.9496  -13.6834   20.3412 N   0  0  0  0  0  0  0  0  0  0  0  0
  -25.4555  -15.0884   20.7049 N   0  0  0  0  0  0  0  0  0  0  0  0
  -21.9290  -12.4954   21.8169 N   0  0  0  0  0  0  0  0  0  0  0  0
  -30.1042  -15.6534   21.6288 N   0  0  0  0  0  0  0  0  0  0  0  0
  -32.0290  -28.2762   21.1354 N   0  0  0  0  0  0  0  0  0  0  0  0
  -26.7214  -24.4868   20.4247 N   0  0  0  0  0  0  0  0  0  0  0  0
  -32.6679  -18.8499   25.4572 N   0  0  3  0  0  0  0  0  0  0  0  0
  -26.4046  -21.0562   19.3298 N   0  3  0  0  0  0  0  0  0  0  0  0
  -22.6883  -14.6561   21.7013 O   0  0  0  0  0  0  0  0  0  0  0  0
  -31.0857  -27.1348   22.9325 O   0  0  0  0  0  0  0  0  0  0  0  0
  -28.5451  -26.5806   19.7185 O   0  0  0  0  0  0  0  0  0  0  0  0
  -26.9857  -22.5365   21.6509 O   0  0  0  0  0  0  0  0  0  0  0  0
  -31.8254  -15.0277   20.2048 O   0  0  0  0  0  0  0  0  0  0  0  0
  -21.6702   -6.9441   21.4270 O   0  0  0  0  0  0  0  0  0  0  0  0
  -32.6992  -21.6858   25.2542 O   0  0  0  0  0  0  0  0  0  1  0  0
  -18.8800   -6.3466   26.1452 F   0  0  0  0  0  0  0  0  0  0  0  0
  -22.2053   -4.8364   23.1340 F   0  0  0  0  0  0  0  0  0  0  0  0
  1  2  1  0  0  0  0
  1  5  2  0  0  0  0
  2  6  2  0  0  0  0
  3 10  2  0  0  0  0
  3 18  1  0  0  0  0
  4 11  1  0  0  0  0
  4 18  2  0  0  0  0
  5 20  1  0  0  0  0
  6 22  1  0  0  0  0
  7 12  2  0  0  0  0
  7 21  1  0  0  0  0
  8  9  2  0  0  0  0
  8 25  1  0  0  0  0
  9 26  1  0  0  0  0
 10 27  1  0  0  0  0
 11 27  2  0  0  0  0
 12 28  1  0  0  0  0
 13 14  2  0  0  0  0
 13 29  1  0  0  0  0
 14 30  1  0  0  0  0
 15 23  1  0  0  0  0
 15 28  2  0  0  0  0
 16 24  1  0  0  0  0
 16 25  2  0  0  0  0
 17 30  2  0  0  0  0
 17 31  1  0  0  0  0
 18 32  1  0  0  0  0
 19 32  1  0  0  0  0
 19 33  2  0  0  0  0
 19 34  1  0  0  0  0
 20 22  2  0  0  0  0
 20 39  1  0  0  0  0
 21 23  2  0  0  0  0
 21 40  1  0  0  0  0
 22 48  1  0  0  0  0
 23 41  1  0  0  0  0
 24 26  2  0  0  0  0
 24 51  1  0  0  0  0
 25 72  1  0  0  0  0
 26 69  1  0  0  0  0
 27 79  1  0  0  0  0
 28 80  1  0  0  0  0
 29 31  2  0  0  0  0
 29 79  1  0  0  0  0
 30 81  1  0  0  0  0
 31 82  1  0  0  0  0
 32 63  2  0  0  0  0
 33 64  1  0  0  0  0
 33 67  1  0  0  0  0
 34 68  1  0  0  0  0
 34 74  2  0  0  0  0
 35 49  1  0  0  0  0
 35 70  1  0  0  0  0
 35 75  2  0  0  0  0
 36 60  1  0  0  0  0
 36 65  1  0  0  0  0
 36 76  2  0  0  0  0
 37 61  1  0  0  0  0
 37 71  1  0  0  0  0
 37 77  2  0  0  0  0
 38 66  1  0  0  0  0
 38 69  1  0  0  0  0
 38 78  2  0  0  0  0
 39 42  1  0  0  0  0
 40 49  1  0  0  0  0
 41 65  1  0  0  0  0
 42 44  1  0  0  0  0
 43 45  1  0  0  0  0
 43 46  1  0  0  0  0
 44 48  1  0  0  0  0
 45 50  1  0  0  0  0
 46 66  1  0  0  0  0
 47 50  1  0  0  0  0
 47 66  1  0  0  0  0
 48 70  1  0  0  0  0
 49 65  1  0  0  0  0
 50 64  1  0  0  0  0
 52 61  1  0  0  0  0
 53 62  1  0  0  0  0
 54 62  1  0  0  0  0
 55 62  1  0  0  0  0
 56 72  1  0  0  0  0
 57 73  1  0  0  0  0
 58 59  1  0  0  0  0
 58 72  1  0  0  0  0
 59 80  1  0  0  0  0
 60 62  1  0  0  0  0
 60 71  1  0  0  0  0
 61 73  1  0  0  0  0
 63 64  1  0  0  0  0
M  CHG  1  73   1
M  ISO  4  38 100  59 101  69 100  80 101
M  END
> <Batch ID>
0008

> <Smiles>
CNC(C)C(=O)NC(C(=O)N1Cc2cc([101O:1][101CH2:1]CN(C)c3ccc([100NH:0][100C:0](=O)N4CCCC(n5nc(-c6ccc(Oc7ccc(F)cc7F)cc6)c(C(N)=O)c5N)C4)c(C)c3)ccc2CC1C(=O)NC1CCCc2ccccc21)C(C)(C)C

> <Shape>
0.212

> <Color>
0.215

> <Negative vol penalty>
0.000

$$$$

  -OEChem-04052315363D

 85 93  0     1  0  0  0  0  0999 V2000
  -27.3751  -36.0217   23.3646 C   0  0  0  0  0  0  0  0  0  0  0  0
  -28.0151  -35.3099   22.3551 C   0  0  0  0  0  0  0  0  0  0  0  0
  -26.6067  -12.4418   21.6183 C   0  0  0  0  0  0  0  0  0  0  0  0
  -25.9087  -13.7104   19.6843 C   0  0  0  0  0  0  0  0  0  0  0  0
  -26.7199  -35.3398   24.3891 C   0  0  0  0  0  0  0  0  0  0  0  0
  -28.0012  -33.9156   22.3702 C   0  0  0  0  0  0  0  0  0  0  0  0
  -27.9053  -28.2854   17.9421 C   0  0  0  0  0  0  0  0  0  0  0  0
  -25.3468  -11.8466   21.6826 C   0  0  0  0  0  0  0  0  0  0  0  0
  -24.6489  -13.1152   19.7485 C   0  0  0  0  0  0  0  0  0  0  0  0
  -28.5912  -27.0967   17.6962 C   0  0  0  0  0  0  0  0  0  0  0  0
  -23.6792   -9.3679   20.0990 C   0  0  0  0  0  0  0  0  0  0  0  0
  -23.6232   -7.9894   20.3040 C   0  0  0  0  0  0  0  0  0  0  0  0
  -27.3602  -26.0259   19.4731 C   0  0  0  0  0  0  0  0  0  0  0  0
  -22.3743   -8.3432   22.3418 C   0  0  0  0  0  0  0  0  0  0  0  0
  -26.8876  -13.3737   20.6192 C   0  0  0  0  0  0  0  0  0  0  0  0
  -29.3129  -13.5263   19.8430 C   0  0  0  0  0  0  0  0  0  0  0  0
  -26.6897  -33.9366   24.4115 C   0  0  0  0  0  0  0  0  0  0  0  0
  -26.9480  -28.3563   18.9643 C   0  0  0  0  0  0  0  0  0  0  0  0
  -27.3461  -33.2143   23.3967 C   0  0  0  0  0  0  0  0  0  0  0  0
  -26.6618  -27.2159   19.7283 C   0  0  0  0  0  0  0  0  0  0  0  0
  -24.3679  -12.1833   20.7477 C   0  0  0  0  0  0  0  0  0  0  0  0
  -28.3208  -25.9675   18.4636 C   0  0  0  0  0  0  0  0  0  0  0  0
  -23.0828  -10.2342   21.0154 C   0  0  0  0  0  0  0  0  0  0  0  0
  -22.9708   -7.4770   21.4254 C   0  0  0  0  0  0  0  0  0  0  0  0
  -22.4304   -9.7218   22.1367 C   0  0  0  0  0  0  0  0  0  0  0  0
  -28.1887  -13.9893   20.5526 C   0  0  0  0  0  0  0  0  0  0  0  0
  -30.2890  -14.4576   20.1005 C   0  0  0  0  0  0  0  0  0  0  0  0
  -31.3692  -23.5061   22.3611 C   0  0  0  0  0  0  0  0  0  0  0  0
  -30.7751  -22.5264   20.2514 C   0  0  0  0  0  0  0  0  0  0  0  0
  -31.8401  -24.6259   21.7884 C   0  0  0  0  0  0  0  0  0  0  0  0
  -30.8209  -22.4226   21.5845 C   0  0  0  0  0  0  0  0  0  0  0  0
  -31.7894  -24.7434   20.2843 C   0  0  0  0  0  0  0  0  0  0  0  0
  -29.4615  -12.3588   19.0241 C   0  0  0  0  0  0  0  0  0  0  0  0
  -26.6515  -30.0346   21.6474 C   0  0  0  0  0  0  0  0  0  0  0  0
  -23.7344  -28.6196   21.7502 C   0  0  0  0  0  0  0  0  0  0  0  0
  -21.7451  -26.0107   20.8105 C   0  0  0  0  0  0  0  0  0  0  0  0
  -29.8128  -20.2113   21.5898 C   0  0  0  0  0  0  0  0  0  0  0  0
  -26.0091  -33.2434   25.5651 C   0  0  0  0  0  0  0  0  0  0  0  0
  -26.1977  -29.6386   19.1993 C   0  0  0  0  0  0  0  0  0  0  0  0
  -25.6286  -27.2342   20.8241 C   0  0  0  0  0  0  0  0  0  0  0  0
  -25.7215  -31.7670   25.3047 C   0  0  0  0  0  0  0  0  0  0  0  0
  -31.7059  -17.5989   23.3927 C   0  0  0  0  0  0  0  0  0  0  0  0
  -26.9486  -31.0803   24.7134 C   0  0  0  0  0  0  0  0  0  0  0  0
  -31.0670  -16.3330   22.8297 C   0  0  0  0  0  0  0  0  0  0  0  0
  -30.7029  -18.7464   23.5055 C   0  0  0  0  0  0  0  0  0  0  0  0
  -29.3571  -17.7784   21.6631 C   0  0  0  0  0  0  0  0  0  0  0  0
  -27.3321  -31.7014   23.3648 C   0  0  1  0  0  0  0  0  0  0  0  0
  -25.6114  -29.7390   20.6042 C   0  0  1  0  0  0  0  0  0  0  0  0
  -30.3626  -16.6285   21.4970 C   0  0  2  0  0  0  0  0  0  0  0  0
  -19.4182  -25.1107   21.0809 C   0  0  0  0  0  0  0  0  0  0  0  0
  -24.4276  -27.6810   24.5695 C   0  0  0  0  0  0  0  0  0  0  0  0
  -22.5401  -26.0436   24.4134 C   0  0  0  0  0  0  0  0  0  0  0  0
  -22.0786  -28.4919   24.2880 C   0  0  0  0  0  0  0  0  0  0  0  0
  -32.5825  -23.8590   17.5729 C   0  0  0  0  0  0  0  0  0  0  0  0
  -30.5499  -22.3926   17.6316 C   0  0  0  0  0  0  0  0  0  0  0  0
  -31.7845  -27.0175   22.3682 C   0  0  0  0  0  0  0  0  0  0  0  0
  -33.3819  -25.5020   23.4964 C   0  0  0  0  0  0  0  0  0  0  0  0
  -21.2185  -26.1763   17.9029 C   0  0  0  0  0  0  0  0  0  0  0  0
  -30.3172  -24.9141   17.7149 C   0  0  0  0  0  0  0  0  0  1  0  0
  -23.1877  -27.3379   22.3310 C   0  0  1  0  0  0  0  0  0  0  0  0
  -20.3419  -25.9711   20.2327 C   0  0  2  0  0  0  0  0  0  0  0  0
  -23.0794  -27.3885   23.8812 C   0  0  0  0  0  0  0  0  0  0  0  0
  -31.1654  -23.7024   18.1405 C   0  0  0  0  0  0  0  0  0  0  0  0
  -28.4273  -15.1263   21.2116 N   0  0  0  0  0  0  0  0  0  0  0  0
  -29.7127  -15.3855   20.9172 N   0  0  0  0  0  0  0  0  0  0  0  0
  -31.2428  -23.6514   19.5912 N   0  0  0  0  0  0  0  0  0  0  0  0
  -24.9263  -28.5133   21.0196 N   0  0  0  0  0  0  0  0  0  0  0  0
  -29.9924  -18.9719   22.2364 N   0  0  0  0  0  0  0  0  0  0  0  0
  -31.5755  -14.5651   19.7059 N   0  0  0  0  0  0  0  0  0  0  0  0
  -28.3584  -11.5089   18.8657 N   0  0  0  0  0  0  0  0  0  0  0  0
  -30.3611  -21.3143   22.2387 N   0  0  0  0  0  0  0  0  0  0  0  0
  -26.4511  -31.2249   22.3202 N   0  0  0  0  0  0  0  0  0  0  0  0
  -21.9210  -27.0893   21.6512 N   0  0  0  0  0  0  0  0  0  0  0  0
  -32.3702  -25.6862   22.4634 N   0  0  0  0  0  0  0  0  0  0  0  0
  -20.3662  -25.4135   18.8509 N   0  3  0  0  0  0  0  0  0  0  0  0
  -32.2174  -25.7632   19.7423 O   0  0  0  0  0  0  0  0  0  0  0  0
  -30.5454  -12.0688   18.4632 O   0  0  0  0  0  0  0  0  0  0  0  0
  -27.5672  -29.2408   21.8296 O   0  0  0  0  0  0  0  0  0  0  0  0
  -23.1224  -29.6752   21.9319 O   0  0  0  0  0  0  0  0  0  0  0  0
  -22.5985  -25.1669   20.5457 O   0  0  0  0  0  0  0  0  0  0  0  0
  -29.2007  -20.3177   20.5208 O   0  0  0  0  0  0  0  0  0  0  0  0
  -23.1386  -11.6025   20.8100 O   0  0  0  0  0  0  0  0  0  0  0  0
  -28.9892  -24.8062   18.2261 O   0  0  0  0  0  0  0  0  0  1  0  0
  -22.9157   -6.1531   21.6214 F   0  0  0  0  0  0  0  0  0  0  0  0
  -21.8545  -10.5489   23.0199 F   0  0  0  0  0  0  0  0  0  0  0  0
  1  2  1  0  0  0  0
  1  5  2  0  0  0  0
  2  6  2  0  0  0  0
  3  8  2  0  0  0  0
  3 15  1  0  0  0  0
  4  9  1  0  0  0  0
  4 15  2  0  0  0  0
  5 17  1  0  0  0  0
  6 19  1  0  0  0  0
  7 10  2  0  0  0  0
  7 18  1  0  0  0  0
  8 21  1  0  0  0  0
  9 21  2  0  0  0  0
 10 22  1  0  0  0  0
 11 12  2  0  0  0  0
 11 23  1  0  0  0  0
 12 24  1  0  0  0  0
 13 20  1  0  0  0  0
 13 22  2  0  0  0  0
 14 24  2  0  0  0  0
 14 25  1  0  0  0  0
 15 26  1  0  0  0  0
 16 26  1  0  0  0  0
 16 27  2  0  0  0  0
 16 33  1  0  0  0  0
 17 19  2  0  0  0  0
 17 38  1  0  0  0  0
 18 20  2  0  0  0  0
 18 39  1  0  0  0  0
 19 47  1  0  0  0  0
 20 40  1  0  0  0  0
 21 82  1  0  0  0  0
 22 83  1  0  0  0  0
 23 25  2  0  0  0  0
 23 82  1  0  0  0  0
 24 84  1  0  0  0  0
 25 85  1  0  0  0  0
 26 64  2  0  0  0  0
 27 65  1  0  0  0  0
 27 69  1  0  0  0  0
 28 30  2  0  0  0  0
 28 31  1  0  0  0  0
 29 31  2  0  0  0  0
 29 66  1  0  0  0  0
 30 32  1  0  0  0  0
 30 74  1  0  0  0  0
 31 71  1  0  0  0  0
 32 66  1  0  0  0  0
 32 76  2  0  0  0  0
 33 70  1  0  0  0  0
 33 77  2  0  0  0  0
 34 48  1  0  0  0  0
 34 72  1  0  0  0  0
 34 78  2  0  0  0  0
 35 60  1  0  0  0  0
 35 67  1  0  0  0  0
 35 79  2  0  0  0  0
 36 61  1  0  0  0  0
 36 73  1  0  0  0  0
 36 80  2  0  0  0  0
 37 68  1  0  0  0  0
 37 71  1  0  0  0  0
 37 81  2  0  0  0  0
 38 41  1  0  0  0  0
 39 48  1  0  0  0  0
 40 67  1  0  0  0  0
 41 43  1  0  0  0  0
 42 44  1  0  0  0  0
 42 45  1  0  0  0  0
 43 47  1  0  0  0  0
 44 49  1  0  0  0  0
 45 68  1  0  0  0  0
 46 49  1  0  0  0  0
 46 68  1  0  0  0  0
 47 72  1  0  0  0  0
 48 67  1  0  0  0  0
 49 65  1  0  0  0  0
 50 61  1  0  0  0  0
 51 62  1  0  0  0  0
 52 62  1  0  0  0  0
 53 62  1  0  0  0  0
 54 63  1  0  0  0  0
 55 63  1  0  0  0  0
 56 74  1  0  0  0  0
 57 74  1  0  0  0  0
 58 75  1  0  0  0  0
 59 63  1  0  0  0  0
 59 83  1  0  0  0  0
 60 62  1  0  0  0  0
 60 73  1  0  0  0  0
 61 75  1  0  0  0  0
 63 66  1  0  0  0  0
 64 65  1  0  0  0  0
M  CHG  1  75   1
M  ISO  4  37 100  59 101  71 100  83 101
M  END
> <Batch ID>
0008

> <Smiles>
CNC(C)C(=O)NC(C(=O)N1Cc2cc([101O:1][101CH2:1]C(C)(C)n3cc([100NH:0][100C:0](=O)N4CCCC(n5nc(-c6ccc(Oc7ccc(F)cc7F)cc6)c(C(N)=O)c5N)C4)cc(N(C)C)c3=O)ccc2CC1C(=O)NC1CCCc2ccccc21)C(C)(C)C

> <Shape>
0.326

> <Color>
0.086

> <Negative vol penalty>
0.000

$$$$

  -OEChem-04052315363D

 81 89  0     1  0  0  0  0  0999 V2000
  -27.1755  -30.0554   18.2535 C   0  0  0  0  0  0  0  0  0  0  0  0
  -27.0988  -28.6896   18.5066 C   0  0  0  0  0  0  0  0  0  0  0  0
  -30.5973  -23.0944   20.3947 C   0  0  0  0  0  0  0  0  0  0  0  0
  -29.0077  -23.0070   18.5774 C   0  0  0  0  0  0  0  0  0  0  0  0
  -26.4095  -30.9464   19.0040 C   0  0  0  0  0  0  0  0  0  0  0  0
  -26.2568  -28.2141   19.5113 C   0  0  0  0  0  0  0  0  0  0  0  0
  -23.1158  -22.9567   19.5002 C   0  0  0  0  0  0  0  0  0  0  0  0
  -24.7213  -13.5877   21.7621 C   0  0  0  0  0  0  0  0  0  0  0  0
  -31.2323  -24.1776   19.7873 C   0  0  0  0  0  0  0  0  0  0  0  0
  -29.6427  -24.0902   17.9699 C   0  0  0  0  0  0  0  0  0  0  0  0
  -23.3679  -21.7123   20.0759 C   0  0  0  0  0  0  0  0  0  0  0  0
  -30.7265  -27.5061   19.4741 C   0  0  0  0  0  0  0  0  0  0  0  0
  -31.0703  -28.5912   20.2801 C   0  0  0  0  0  0  0  0  0  0  0  0
  -23.7376  -13.0232   22.5740 C   0  0  0  0  0  0  0  0  0  0  0  0
  -21.9972  -22.3162   21.9669 C   0  0  0  0  0  0  0  0  0  0  0  0
  -22.3110  -14.9312   22.1720 C   0  0  0  0  0  0  0  0  0  0  0  0
  -33.3960  -28.2831   19.7028 C   0  0  0  0  0  0  0  0  0  0  0  0
  -29.4850  -22.5090   19.7898 C   0  0  0  0  0  0  0  0  0  0  0  0
  -27.7687  -21.4347   21.3415 C   0  0  0  0  0  0  0  0  0  0  0  0
  -25.5504  -30.4808   20.0119 C   0  0  0  0  0  0  0  0  0  0  0  0
  -22.3100  -23.8960   20.1596 C   0  0  0  0  0  0  0  0  0  0  0  0
  -25.4796  -29.0998   20.2769 C   0  0  0  0  0  0  0  0  0  0  0  0
  -21.7343  -23.5709   21.3962 C   0  0  0  0  0  0  0  0  0  0  0  0
  -24.5000  -14.8240   21.1552 C   0  0  0  0  0  0  0  0  0  0  0  0
  -30.7550  -24.6755   18.5749 C   0  0  0  0  0  0  0  0  0  0  0  0
  -22.8109  -21.3929   21.3108 C   0  0  0  0  0  0  0  0  0  0  0  0
  -31.7174  -26.8093   18.7824 C   0  0  0  0  0  0  0  0  0  0  0  0
  -23.2948  -15.4957   21.3602 C   0  0  0  0  0  0  0  0  0  0  0  0
  -32.4051  -28.9798   20.3944 C   0  0  0  0  0  0  0  0  0  0  0  0
  -33.0521  -27.1979   18.8967 C   0  0  0  0  0  0  0  0  0  0  0  0
  -22.5324  -13.6949   22.7789 C   0  0  0  0  0  0  0  0  0  0  0  0
  -28.8290  -21.3897   20.4165 C   0  0  0  0  0  0  0  0  0  0  0  0
  -27.5092  -20.1174   21.6307 C   0  0  0  0  0  0  0  0  0  0  0  0
  -27.0799  -22.5662   21.8901 C   0  0  0  0  0  0  0  0  0  0  0  0
  -22.7641  -26.8208   21.3186 C   0  0  0  0  0  0  0  0  0  0  0  0
  -19.5649  -26.6896   21.8383 C   0  0  0  0  0  0  0  0  0  0  0  0
  -16.7851  -24.7707   22.3255 C   0  0  0  0  0  0  0  0  0  0  0  0
  -26.7557  -14.8368   20.0336 C   0  0  0  0  0  0  0  0  0  0  0  0
  -24.7775  -31.4859   20.8285 C   0  0  0  0  0  0  0  0  0  0  0  0
  -22.0259  -25.2239   19.5128 C   0  0  0  0  0  0  0  0  0  0  0  0
  -20.8457  -24.5363   22.1355 C   0  0  0  0  0  0  0  0  0  0  0  0
  -23.6288  -30.8706   21.6236 C   0  0  0  0  0  0  0  0  0  0  0  0
  -30.1127  -15.9239   20.5090 C   0  0  0  0  0  0  0  0  0  0  0  0
  -24.0932  -29.6078   22.3423 C   0  0  0  0  0  0  0  0  0  0  0  0
  -29.9907  -17.4465   20.6034 C   0  0  0  0  0  0  0  0  0  0  0  0
  -29.1297  -15.3379   19.4970 C   0  0  0  0  0  0  0  0  0  0  0  0
  -27.6062  -17.2518   19.7890 C   0  0  0  0  0  0  0  0  0  0  0  0
  -24.5593  -28.5434   21.3417 C   0  0  1  0  0  0  0  0  0  0  0  0
  -21.6089  -26.2984   20.5122 C   0  0  1  0  0  0  0  0  0  0  0  0
  -28.5316  -17.8812   20.8431 C   0  0  2  0  0  0  0  0  0  0  0  0
  -14.3200  -24.9487   22.7602 C   0  0  0  0  0  0  0  0  0  0  0  0
  -20.1330  -27.4275   24.7439 C   0  0  0  0  0  0  0  0  0  0  0  0
  -17.8168  -26.6688   25.3166 C   0  0  0  0  0  0  0  0  0  0  0  0
  -18.1494  -28.5768   23.7444 C   0  0  0  0  0  0  0  0  0  0  0  0
  -16.1222  -23.3491   19.8158 C   0  0  0  0  0  0  0  0  0  0  0  0
  -23.2852  -19.0848   20.9886 C   0  0  0  0  0  0  0  0  0  1  0  0
  -22.8061  -17.8054   21.6468 C   0  0  0  0  0  0  0  0  0  0  0  0
  -18.6844  -26.2287   22.9746 C   0  0  1  0  0  0  0  0  0  0  0  0
  -15.4029  -24.8227   21.7000 C   0  0  2  0  0  0  0  0  0  0  0  0
  -18.7142  -27.2078   24.1821 C   0  0  0  0  0  0  0  0  0  0  0  0
  -29.2166  -20.1425   20.1368 N   0  0  0  0  0  0  0  0  0  0  0  0
  -28.3955  -19.3916   20.8905 N   0  0  0  0  0  0  0  0  0  0  0  0
  -20.6029  -25.8243   21.4649 N   0  0  0  0  0  0  0  0  0  0  0  0
  -27.7675  -15.7893   19.7893 N   0  0  0  0  0  0  0  0  0  0  0  0
  -26.6116  -19.5206   22.4435 N   0  0  0  0  0  0  0  0  0  0  0  0
  -27.4736  -23.8489   21.4851 N   0  0  0  0  0  0  0  0  0  0  0  0
  -25.5084  -15.3842   20.3325 N   0  0  0  0  0  0  0  0  0  0  0  0
  -23.4211  -27.8872   20.7349 N   0  0  0  0  0  0  0  0  0  0  0  0
  -17.3572  -26.0228   22.4050 N   0  0  0  0  0  0  0  0  0  0  0  0
  -15.1452  -23.5858   20.9096 N   0  3  0  0  0  0  0  0  0  0  0  0
  -26.1540  -22.4441   22.7276 O   0  0  0  0  0  0  0  0  0  0  0  0
  -23.0382  -26.2962   22.3916 O   0  0  0  0  0  0  0  0  0  0  0  0
  -19.3355  -27.7741   21.2970 O   0  0  0  0  0  0  0  0  0  0  0  0
  -17.3038  -23.7245   22.7090 O   0  0  0  0  0  0  0  0  0  0  0  0
  -26.9854  -13.6250   20.0082 O   0  0  0  0  0  0  0  0  0  0  0  0
  -31.3743  -25.7327   17.9820 O   0  0  0  0  0  0  0  0  0  0  0  0
  -23.0559  -20.1791   21.8753 O   0  0  0  0  0  0  0  0  0  1  0  0
  -23.0584  -16.7111   20.7737 O   0  0  0  0  0  0  0  0  0  0  0  0
  -32.7350  -30.0229   21.1673 F   0  0  0  0  0  0  0  0  0  0  0  0
  -34.0084  -26.5332   18.2337 F   0  0  0  0  0  0  0  0  0  0  0  0
  -21.3185  -12.9982   23.7806 Cl  0  0  0  0  0  0  0  0  0  0  0  0
  1  2  1  0  0  0  0
  1  5  2  0  0  0  0
  2  6  2  0  0  0  0
  3  9  2  0  0  0  0
  3 18  1  0  0  0  0
  4 10  1  0  0  0  0
  4 18  2  0  0  0  0
  5 20  1  0  0  0  0
  6 22  1  0  0  0  0
  7 11  2  0  0  0  0
  7 21  1  0  0  0  0
  8 14  2  0  0  0  0
  8 24  1  0  0  0  0
  9 25  1  0  0  0  0
 10 25  2  0  0  0  0
 11 26  1  0  0  0  0
 12 13  2  0  0  0  0
 12 27  1  0  0  0  0
 13 29  1  0  0  0  0
 14 31  1  0  0  0  0
 15 23  1  0  0  0  0
 15 26  2  0  0  0  0
 16 28  1  0  0  0  0
 16 31  2  0  0  0  0
 17 29  2  0  0  0  0
 17 30  1  0  0  0  0
 18 32  1  0  0  0  0
 19 32  1  0  0  0  0
 19 33  2  0  0  0  0
 19 34  1  0  0  0  0
 20 22  2  0  0  0  0
 20 39  1  0  0  0  0
 21 23  2  0  0  0  0
 21 40  1  0  0  0  0
 22 48  1  0  0  0  0
 23 41  1  0  0  0  0
 24 28  2  0  0  0  0
 24 67  1  0  0  0  0
 25 76  1  0  0  0  0
 26 77  1  0  0  0  0
 27 30  2  0  0  0  0
 27 76  1  0  0  0  0
 28 78  1  0  0  0  0
 29 79  1  0  0  0  0
 30 80  1  0  0  0  0
 31 81  1  0  0  0  0
 32 61  2  0  0  0  0
 33 62  1  0  0  0  0
 33 65  1  0  0  0  0
 34 66  1  0  0  0  0
 34 71  2  0  0  0  0
 35 49  1  0  0  0  0
 35 68  1  0  0  0  0
 35 72  2  0  0  0  0
 36 58  1  0  0  0  0
 36 63  1  0  0  0  0
 36 73  2  0  0  0  0
 37 59  1  0  0  0  0
 37 69  1  0  0  0  0
 37 74  2  0  0  0  0
 38 64  1  0  0  0  0
 38 67  1  0  0  0  0
 38 75  2  0  0  0  0
 39 42  1  0  0  0  0
 40 49  1  0  0  0  0
 41 63  1  0  0  0  0
 42 44  1  0  0  0  0
 43 45  1  0  0  0  0
 43 46  1  0  0  0  0
 44 48  1  0  0  0  0
 45 50  1  0  0  0  0
 46 64  1  0  0  0  0
 47 50  1  0  0  0  0
 47 64  1  0  0  0  0
 48 68  1  0  0  0  0
 49 63  1  0  0  0  0
 50 62  1  0  0  0  0
 51 59  1  0  0  0  0
 52 60  1  0  0  0  0
 53 60  1  0  0  0  0
 54 60  1  0  0  0  0
 55 70  1  0  0  0  0
 56 57  1  0  0  0  0
 56 77  1  0  0  0  0
 57 78  1  0  0  0  0
 58 60  1  0  0  0  0
 58 69  1  0  0  0  0
 59 70  1  0  0  0  0
 61 62  1  0  0  0  0
M  CHG  1  70   1
M  ISO  4  38 100  56 101  67 100  77 101
M  END
> <Batch ID>
0008

> <Smiles>
CNC(C)C(=O)NC(C(=O)N1Cc2cc([101O:1][101CH2:1]COc3cc(Cl)ccc3[100NH:0][100C:0](=O)N3CCCC(n4nc(-c5ccc(Oc6ccc(F)cc6F)cc5)c(C(N)=O)c4N)C3)ccc2CC1C(=O)NC1CCCc2ccccc21)C(C)(C)C

> <Shape>
0.224

> <Color>
0.057

> <Negative vol penalty>
0.000

$$$$

  -OEChem-04052315363D

 84 91  0     1  0  0  0  0  0999 V2000
  -22.7529  -10.5574   18.5948 C   0  0  0  0  0  0  0  0  0  0  0  0
  -22.2643  -11.8598   18.5706 C   0  0  0  0  0  0  0  0  0  0  0  0
  -30.4672  -27.1533   19.2290 C   0  0  0  0  0  0  0  0  0  0  0  0
  -29.4123  -25.2790   20.3295 C   0  0  0  0  0  0  0  0  0  0  0  0
  -23.8824  -10.2519   19.3530 C   0  0  0  0  0  0  0  0  0  0  0  0
  -22.9043  -12.8571   19.3055 C   0  0  0  0  0  0  0  0  0  0  0  0
  -23.5109  -18.7524   17.7618 C   0  0  0  0  0  0  0  0  0  0  0  0
  -31.7221  -26.6316   19.5434 C   0  0  0  0  0  0  0  0  0  0  0  0
  -30.6671  -24.7573   20.6439 C   0  0  0  0  0  0  0  0  0  0  0  0
  -22.8032  -19.8960   18.1296 C   0  0  0  0  0  0  0  0  0  0  0  0
  -33.7574  -26.4927   22.2383 C   0  0  0  0  0  0  0  0  0  0  0  0
  -34.7169  -27.3722   22.7397 C   0  0  0  0  0  0  0  0  0  0  0  0
  -24.4495  -20.3602   19.8307 C   0  0  0  0  0  0  0  0  0  0  0  0
  -36.1624  -26.8590   20.8730 C   0  0  0  0  0  0  0  0  0  0  0  0
  -29.3123  -26.4770   19.6221 C   0  0  0  0  0  0  0  0  0  0  0  0
  -27.2556  -26.7636   18.1404 C   0  0  0  0  0  0  0  0  0  0  0  0
  -24.5423  -11.2480   20.0899 C   0  0  0  0  0  0  0  0  0  0  0  0
  -24.6893  -18.3977   18.4340 C   0  0  0  0  0  0  0  0  0  0  0  0
  -24.0429  -12.5643   20.0753 C   0  0  0  0  0  0  0  0  0  0  0  0
  -25.1716  -19.2131   19.4677 C   0  0  0  0  0  0  0  0  0  0  0  0
  -31.8220  -25.4336   20.2508 C   0  0  0  0  0  0  0  0  0  0  0  0
  -23.2709  -20.6985   19.1661 C   0  0  0  0  0  0  0  0  0  0  0  0
  -34.0003  -25.7963   21.0544 C   0  0  0  0  0  0  0  0  0  0  0  0
  -35.9194  -27.5554   22.0570 C   0  0  0  0  0  0  0  0  0  0  0  0
  -35.2028  -25.9795   20.3717 C   0  0  0  0  0  0  0  0  0  0  0  0
  -28.0158  -27.0157   19.2982 C   0  0  0  0  0  0  0  0  0  0  0  0
  -26.1129  -27.5061   18.3116 C   0  0  0  0  0  0  0  0  0  0  0  0
  -27.5555  -25.9324   17.0113 C   0  0  0  0  0  0  0  0  0  0  0  0
  -25.6125  -15.9077   20.1809 C   0  0  0  0  0  0  0  0  0  0  0  0
  -28.4856  -17.4112   20.0990 C   0  0  0  0  0  0  0  0  0  0  0  0
  -19.7754  -25.8687   21.7730 C   0  0  0  0  0  0  0  0  0  0  0  0
  -30.2206  -20.3261   19.7247 C   0  0  0  0  0  0  0  0  0  0  0  0
  -23.2783  -29.5672   23.1663 C   0  0  0  0  0  0  0  0  0  0  0  0
  -25.7317  -10.8601   20.9321 C   0  0  0  0  0  0  0  0  0  0  0  0
  -25.4553  -17.1755   18.0074 C   0  0  0  0  0  0  0  0  0  0  0  0
  -26.4423  -18.8872   20.2076 C   0  0  0  0  0  0  0  0  0  0  0  0
  -26.5722  -12.0513   21.3846 C   0  0  0  0  0  0  0  0  0  0  0  0
  -24.5161  -31.4856   20.4342 C   0  0  0  0  0  0  0  0  0  0  0  0
  -25.6768  -13.1621   21.9243 C   0  0  0  0  0  0  0  0  0  0  0  0
  -25.4847  -30.5348   19.7288 C   0  0  0  0  0  0  0  0  0  0  0  0
  -24.5545  -31.3077   21.9504 C   0  0  0  0  0  0  0  0  0  0  0  0
  -25.3105  -28.9742   21.7119 C   0  0  0  0  0  0  0  0  0  0  0  0
  -24.7241  -13.6789   20.8395 C   0  0  1  0  0  0  0  0  0  0  0  0
  -26.3679  -16.6303   19.1016 C   0  0  1  0  0  0  0  0  0  0  0  0
  -25.2667  -29.0773   20.1777 C   0  0  2  0  0  0  0  0  0  0  0  0
  -32.5555  -21.2455   19.7470 C   0  0  0  0  0  0  0  0  0  0  0  0
  -28.5219  -17.2389   23.1451 C   0  0  0  0  0  0  0  0  0  0  0  0
  -30.3369  -18.9634   23.1516 C   0  0  0  0  0  0  0  0  0  0  0  0
  -30.7170  -16.7593   22.0470 C   0  0  0  0  0  0  0  0  0  0  0  0
  -17.6631  -23.8126   21.0611 C   0  0  0  0  0  0  0  0  0  0  0  0
  -30.0126  -21.2378   16.9168 C   0  0  0  0  0  0  0  0  0  0  0  0
  -21.0561  -26.2654   22.4961 C   0  0  0  0  0  0  0  0  0  0  0  0
  -20.8238  -27.3585   23.5434 C   0  0  0  0  0  0  0  0  0  0  0  0
  -21.3819  -22.9440   21.2723 C   0  0  0  0  0  0  0  0  0  0  0  0
  -22.0936  -27.7113   24.3114 C   0  0  0  0  0  0  0  0  0  0  0  0
  -21.1443  -24.1971   20.4404 C   0  0  0  0  0  0  0  0  0  0  0  0
  -22.6664  -22.2163   20.8944 C   0  0  0  0  0  0  0  0  0  1  0  0
  -29.1773  -18.4427   20.9572 C   0  0  1  0  0  0  0  0  0  0  0  0
  -31.4388  -20.6729   18.8879 C   0  0  2  0  0  0  0  0  0  0  0  0
  -29.6632  -17.8565   22.3128 C   0  0  0  0  0  0  0  0  0  0  0  0
  -18.6903  -24.4007   20.1109 C   0  0  0  0  0  0  0  0  0  0  0  0
  -27.4074  -27.8531   20.1423 N   0  0  0  0  0  0  0  0  0  0  0  0
  -26.2528  -28.1337   19.5144 N   0  0  0  0  0  0  0  0  0  0  0  0
  -27.1522  -17.6783   19.7578 N   0  0  0  0  0  0  0  0  0  0  0  0
  -24.3394  -29.9040   22.3097 N   0  0  0  0  0  0  0  0  0  0  0  0
  -25.0121  -27.6770   17.5490 N   0  0  0  0  0  0  0  0  0  0  0  0
  -28.7735  -25.2392   16.9968 N   0  0  0  0  0  0  0  0  0  0  0  0
  -25.4239  -14.5618   19.9311 N   0  0  0  0  0  0  0  0  0  0  0  0
  -30.2412  -19.0101   20.1358 N   0  0  0  0  0  0  0  0  0  0  0  0
  -23.1412  -28.2141   23.4509 N   0  0  0  0  0  0  0  0  0  0  0  0
  -19.9186  -24.8606   20.7894 N   0  0  0  0  0  0  0  0  0  0  0  0
  -31.0833  -21.6788   17.8475 N   0  3  0  0  0  0  0  0  0  0  0  0
  -26.7740  -25.8209   16.0365 O   0  0  0  0  0  0  0  0  0  0  0  0
  -25.2303  -16.5253   21.1679 O   0  0  0  0  0  0  0  0  0  0  0  0
  -29.1078  -16.4089   19.7386 O   0  0  0  0  0  0  0  0  0  0  0  0
  -18.7052  -26.4183   22.0475 O   0  0  0  0  0  0  0  0  0  0  0  0
  -29.3408  -21.1420   19.9904 O   0  0  0  0  0  0  0  0  0  0  0  0
  -22.5069  -30.4094   23.6380 O   0  0  0  0  0  0  0  0  0  0  0  0
  -33.0463  -24.9241   20.5576 O   0  0  0  0  0  0  0  0  0  0  0  0
  -22.5818  -21.8149   19.5276 O   0  0  0  0  0  0  0  0  0  1  0  0
  -36.8402  -28.4011   22.5377 F   0  0  0  0  0  0  0  0  0  0  0  0
  -35.4414  -25.3142   19.2332 F   0  0  0  0  0  0  0  0  0  0  0  0
  -19.0038  -23.4481   19.1880 F   0  0  0  0  0  0  0  0  0  0  0  0
  -18.1207  -25.4172   19.4087 F   0  0  0  0  0  0  0  0  0  0  0  0
  1  2  1  0  0  0  0
  1  5  2  0  0  0  0
  2  6  2  0  0  0  0
  3  8  2  0  0  0  0
  3 15  1  0  0  0  0
  4  9  1  0  0  0  0
  4 15  2  0  0  0  0
  5 17  1  0  0  0  0
  6 19  1  0  0  0  0
  7 10  2  0  0  0  0
  7 18  1  0  0  0  0
  8 21  1  0  0  0  0
  9 21  2  0  0  0  0
 10 22  1  0  0  0  0
 11 12  2  0  0  0  0
 11 23  1  0  0  0  0
 12 24  1  0  0  0  0
 13 20  1  0  0  0  0
 13 22  2  0  0  0  0
 14 24  2  0  0  0  0
 14 25  1  0  0  0  0
 15 26  1  0  0  0  0
 16 26  1  0  0  0  0
 16 27  2  0  0  0  0
 16 28  1  0  0  0  0
 17 19  2  0  0  0  0
 17 34  1  0  0  0  0
 18 20  2  0  0  0  0
 18 35  1  0  0  0  0
 19 43  1  0  0  0  0
 20 36  1  0  0  0  0
 21 79  1  0  0  0  0
 22 80  1  0  0  0  0
 23 25  2  0  0  0  0
 23 79  1  0  0  0  0
 24 81  1  0  0  0  0
 25 82  1  0  0  0  0
 26 62  2  0  0  0  0
 27 63  1  0  0  0  0
 27 66  1  0  0  0  0
 28 67  1  0  0  0  0
 28 73  2  0  0  0  0
 29 44  1  0  0  0  0
 29 68  1  0  0  0  0
 29 74  2  0  0  0  0
 30 58  1  0  0  0  0
 30 64  1  0  0  0  0
 30 75  2  0  0  0  0
 31 52  1  0  0  0  0
 31 71  1  0  0  0  0
 31 76  2  0  0  0  0
 32 59  1  0  0  0  0
 32 69  1  0  0  0  0
 32 77  2  0  0  0  0
 33 65  1  0  0  0  0
 33 70  1  0  0  0  0
 33 78  2  0  0  0  0
 34 37  1  0  0  0  0
 35 44  1  0  0  0  0
 36 64  1  0  0  0  0
 37 39  1  0  0  0  0
 38 40  1  0  0  0  0
 38 41  1  0  0  0  0
 39 43  1  0  0  0  0
 40 45  1  0  0  0  0
 41 65  1  0  0  0  0
 42 45  1  0  0  0  0
 42 65  1  0  0  0  0
 43 68  1  0  0  0  0
 44 64  1  0  0  0  0
 45 63  1  0  0  0  0
 46 59  1  0  0  0  0
 47 60  1  0  0  0  0
 48 60  1  0  0  0  0
 49 60  1  0  0  0  0
 50 61  1  0  0  0  0
 51 72  1  0  0  0  0
 52 53  1  0  0  0  0
 53 55  1  0  0  0  0
 54 56  1  0  0  0  0
 54 57  1  0  0  0  0
 55 70  1  0  0  0  0
 56 71  1  0  0  0  0
 57 80  1  0  0  0  0
 58 60  1  0  0  0  0
 58 69  1  0  0  0  0
 59 72  1  0  0  0  0
 61 71  1  0  0  0  0
 61 83  1  0  0  0  0
 61 84  1  0  0  0  0
 62 63  1  0  0  0  0
M  CHG  1  72   1
M  ISO  4  33 100  57 101  70 100  80 101
M  END
> <Batch ID>
0008

> <Smiles>
CNC(C)C(=O)NC(C(=O)N1Cc2cc([101O:1][101CH2:1]CCN(C(=O)CCC[100NH:0][100C:0](=O)N3CCCC(n4nc(-c5ccc(Oc6ccc(F)cc6F)cc5)c(C(N)=O)c4N)C3)C(C)(F)F)ccc2CC1C(=O)NC1CCCc2ccccc21)C(C)(C)C

> <Shape>
0.214

> <Color>
0.065

> <Negative vol penalty>
0.000

$$$$

  -OEChem-04052315363D

 82 90  0     1  0  0  0  0  0999 V2000
  -27.4765  -32.5784   27.6980 C   0  0  0  0  0  0  0  0  0  0  0  0
  -27.6940  -31.5320   26.8074 C   0  0  0  0  0  0  0  0  0  0  0  0
  -24.2629   -9.0646   21.4678 C   0  0  0  0  0  0  0  0  0  0  0  0
  -24.8122  -10.3470   23.4403 C   0  0  0  0  0  0  0  0  0  0  0  0
  -26.1825  -33.0496   27.9155 C   0  0  0  0  0  0  0  0  0  0  0  0
  -26.6172  -30.9555   26.1345 C   0  0  0  0  0  0  0  0  0  0  0  0
  -27.5682  -30.2223   21.2149 C   0  0  0  0  0  0  0  0  0  0  0  0
  -30.2016  -18.8225   19.9706 C   0  0  0  0  0  0  0  0  0  0  0  0
  -23.9433   -7.9687   22.2692 C   0  0  0  0  0  0  0  0  0  0  0  0
  -24.4926   -9.2510   24.2418 C   0  0  0  0  0  0  0  0  0  0  0  0
  -28.3584  -29.1248   20.8758 C   0  0  0  0  0  0  0  0  0  0  0  0
  -30.4104  -20.1541   20.3294 C   0  0  0  0  0  0  0  0  0  0  0  0
  -21.3523   -6.9615   24.1941 C   0  0  0  0  0  0  0  0  0  0  0  0
  -20.1776   -6.2674   23.9047 C   0  0  0  0  0  0  0  0  0  0  0  0
  -26.3734  -27.8817   20.2981 C   0  0  0  0  0  0  0  0  0  0  0  0
  -28.0384  -20.4265   20.6989 C   0  0  0  0  0  0  0  0  0  0  0  0
  -21.4598   -4.2547   23.5274 C   0  0  0  0  0  0  0  0  0  0  0  0
  -24.6974  -10.2538   22.0533 C   0  0  0  0  0  0  0  0  0  0  0  0
  -24.1613  -12.4109   20.8014 C   0  0  0  0  0  0  0  0  0  0  0  0
  -25.0905  -32.4850   27.2378 C   0  0  0  0  0  0  0  0  0  0  0  0
  -26.1716  -30.1539   21.1083 C   0  0  0  0  0  0  0  0  0  0  0  0
  -25.3072  -31.4187   26.3442 C   0  0  0  0  0  0  0  0  0  0  0  0
  -25.5679  -28.9805   20.6340 C   0  0  0  0  0  0  0  0  0  0  0  0
  -28.9112  -18.2929   19.9757 C   0  0  0  0  0  0  0  0  0  0  0  0
  -27.8296  -19.0948   20.3399 C   0  0  0  0  0  0  0  0  0  0  0  0
  -24.0581   -8.0618   23.6562 C   0  0  0  0  0  0  0  0  0  0  0  0
  -27.7609  -27.9534   20.4200 C   0  0  0  0  0  0  0  0  0  0  0  0
  -29.3288  -20.9561   20.6936 C   0  0  0  0  0  0  0  0  0  0  0  0
  -22.5808   -6.3023   24.1502 C   0  0  0  0  0  0  0  0  0  0  0  0
  -20.2313   -4.9140   23.5714 C   0  0  0  0  0  0  0  0  0  0  0  0
  -22.6346   -4.9489   23.8169 C   0  0  0  0  0  0  0  0  0  0  0  0
  -25.0282  -11.3861   21.2260 C   0  0  0  0  0  0  0  0  0  0  0  0
  -24.9534  -13.2386   20.0438 C   0  0  0  0  0  0  0  0  0  0  0  0
  -22.7650  -12.5979   21.0681 C   0  0  0  0  0  0  0  0  0  0  0  0
  -23.7518  -30.3828   23.1567 C   0  0  0  0  0  0  0  0  0  0  0  0
  -21.9617  -30.2422   20.4551 C   0  0  0  0  0  0  0  0  0  0  0  0
  -21.7146  -29.2800   17.1902 C   0  0  0  0  0  0  0  0  0  0  0  0
  -29.7046  -16.0234   19.2230 C   0  0  0  0  0  0  0  0  0  0  0  0
  -23.7045  -32.9965   27.5412 C   0  0  0  0  0  0  0  0  0  0  0  0
  -25.3350  -31.3554   21.4527 C   0  0  0  0  0  0  0  0  0  0  0  0
  -24.0741  -28.8628   20.4823 C   0  0  0  0  0  0  0  0  0  0  0  0
  -22.6617  -32.5804   26.5069 C   0  0  0  0  0  0  0  0  0  0  0  0
  -29.6526  -12.5912   18.2774 C   0  0  0  0  0  0  0  0  0  0  0  0
  -22.7942  -31.0958   26.1827 C   0  0  0  0  0  0  0  0  0  0  0  0
  -28.3735  -12.0560   18.9253 C   0  0  0  0  0  0  0  0  0  0  0  0
  -30.3476  -13.6239   19.1630 C   0  0  0  0  0  0  0  0  0  0  0  0
  -28.2163  -14.1982   20.2570 C   0  0  0  0  0  0  0  0  0  0  0  0
  -24.1679  -30.7838   25.5768 C   0  0  1  0  0  0  0  0  0  0  0  0
  -23.8911  -31.0003   21.7939 C   0  0  1  0  0  0  0  0  0  0  0  0
  -27.4465  -13.2028   19.3737 C   0  0  2  0  0  0  0  0  0  0  0  0
  -20.1156  -29.2663   15.2562 C   0  0  0  0  0  0  0  0  0  0  0  0
  -20.4367  -27.9303   21.7356 C   0  0  0  0  0  0  0  0  0  0  0  0
  -19.5413  -27.3572   19.4690 C   0  0  0  0  0  0  0  0  0  0  0  0
  -19.0056  -29.5656   20.4978 C   0  0  0  0  0  0  0  0  0  0  0  0
  -23.5178  -30.9461   15.5374 C   0  0  0  0  0  0  0  0  0  0  0  0
  -29.0442  -24.5702   20.5578 C   0  0  0  0  0  0  0  0  0  0  0  0
  -27.9522  -25.5878   20.2670 C   0  0  0  0  0  0  0  0  0  1  0  0
  -28.4787  -23.1756   20.7760 C   0  0  0  0  0  0  0  0  0  0  0  0
  -21.3437  -29.1329   19.6387 C   0  0  1  0  0  0  0  0  0  0  0  0
  -21.2355  -30.0213   15.9551 C   0  0  2  0  0  0  0  0  0  0  0  0
  -20.1099  -28.4977   20.3399 C   0  0  0  0  0  0  0  0  0  0  0  0
  -26.2753  -11.5460   20.7754 N   0  0  0  0  0  0  0  0  0  0  0  0
  -26.1979  -12.6809   20.0597 N   0  0  0  0  0  0  0  0  0  0  0  0
  -23.2986  -30.0627   20.8378 N   0  0  0  0  0  0  0  0  0  0  0  0
  -29.4096  -14.6818   19.5449 N   0  0  0  0  0  0  0  0  0  0  0  0
  -26.5145  -18.5785   20.3538 N   0  0  0  0  0  0  0  0  0  0  0  0
  -24.6997  -14.3819   19.3721 N   0  0  0  0  0  0  0  0  0  0  0  0
  -22.1047  -11.6530   21.8653 N   0  0  0  0  0  0  0  0  0  0  0  0
  -28.7241  -16.9375   19.6072 N   0  0  0  0  0  0  0  0  0  0  0  0
  -24.2094  -31.1829   24.1862 N   0  0  0  0  0  0  0  0  0  0  0  0
  -21.0577  -29.7026   18.3264 N   0  0  0  0  0  0  0  0  0  0  0  0
  -22.3568  -30.1983   14.9897 N   0  3  0  0  0  0  0  0  0  0  0  0
  -22.1183  -13.5651   20.5994 O   0  0  0  0  0  0  0  0  0  0  0  0
  -23.2639  -29.2640   23.2661 O   0  0  0  0  0  0  0  0  0  0  0  0
  -21.2855  -31.2347   20.7367 O   0  0  0  0  0  0  0  0  0  0  0  0
  -22.5820  -28.4103   17.1504 O   0  0  0  0  0  0  0  0  0  0  0  0
  -30.7374  -16.3353   18.6246 O   0  0  0  0  0  0  0  0  0  0  0  0
  -23.7461   -6.9926   24.4385 O   0  0  0  0  0  0  0  0  0  0  0  0
  -28.5298  -26.8805   20.0890 O   0  0  0  0  0  0  0  0  0  1  0  0
  -29.5345  -22.2641   21.0480 O   0  0  0  0  0  0  0  0  0  0  0  0
  -19.1030   -4.2472   23.2949 F   0  0  0  0  0  0  0  0  0  0  0  0
  -23.8117   -4.3099   23.7742 F   0  0  0  0  0  0  0  0  0  0  0  0
  1  2  1  0  0  0  0
  1  5  2  0  0  0  0
  2  6  2  0  0  0  0
  3  9  2  0  0  0  0
  3 18  1  0  0  0  0
  4 10  1  0  0  0  0
  4 18  2  0  0  0  0
  5 20  1  0  0  0  0
  6 22  1  0  0  0  0
  7 11  2  0  0  0  0
  7 21  1  0  0  0  0
  8 12  2  0  0  0  0
  8 24  1  0  0  0  0
  9 26  1  0  0  0  0
 10 26  2  0  0  0  0
 11 27  1  0  0  0  0
 12 28  1  0  0  0  0
 13 14  2  0  0  0  0
 13 29  1  0  0  0  0
 14 30  1  0  0  0  0
 15 23  1  0  0  0  0
 15 27  2  0  0  0  0
 16 25  1  0  0  0  0
 16 28  2  0  0  0  0
 17 30  2  0  0  0  0
 17 31  1  0  0  0  0
 18 32  1  0  0  0  0
 19 32  1  0  0  0  0
 19 33  2  0  0  0  0
 19 34  1  0  0  0  0
 20 22  2  0  0  0  0
 20 39  1  0  0  0  0
 21 23  2  0  0  0  0
 21 40  1  0  0  0  0
 22 48  1  0  0  0  0
 23 41  1  0  0  0  0
 24 25  2  0  0  0  0
 24 69  1  0  0  0  0
 25 66  1  0  0  0  0
 26 78  1  0  0  0  0
 27 79  1  0  0  0  0
 28 80  1  0  0  0  0
 29 31  2  0  0  0  0
 29 78  1  0  0  0  0
 30 81  1  0  0  0  0
 31 82  1  0  0  0  0
 32 62  2  0  0  0  0
 33 63  1  0  0  0  0
 33 67  1  0  0  0  0
 34 68  1  0  0  0  0
 34 73  2  0  0  0  0
 35 49  1  0  0  0  0
 35 70  1  0  0  0  0
 35 74  2  0  0  0  0
 36 59  1  0  0  0  0
 36 64  1  0  0  0  0
 36 75  2  0  0  0  0
 37 60  1  0  0  0  0
 37 71  1  0  0  0  0
 37 76  2  0  0  0  0
 38 65  1  0  0  0  0
 38 69  1  0  0  0  0
 38 77  2  0  0  0  0
 39 42  1  0  0  0  0
 40 49  1  0  0  0  0
 41 64  1  0  0  0  0
 42 44  1  0  0  0  0
 43 45  1  0  0  0  0
 43 46  1  0  0  0  0
 44 48  1  0  0  0  0
 45 50  1  0  0  0  0
 46 65  1  0  0  0  0
 47 50  1  0  0  0  0
 47 65  1  0  0  0  0
 48 70  1  0  0  0  0
 49 64  1  0  0  0  0
 50 63  1  0  0  0  0
 51 60  1  0  0  0  0
 52 61  1  0  0  0  0
 53 61  1  0  0  0  0
 54 61  1  0  0  0  0
 55 72  1  0  0  0  0
 56 57  1  0  0  0  0
 56 58  1  0  0  0  0
 57 79  1  0  0  0  0
 58 80  1  0  0  0  0
 59 61  1  0  0  0  0
 59 71  1  0  0  0  0
 60 72  1  0  0  0  0
 62 63  1  0  0  0  0
M  CHG  1  72   1
M  ISO  4  38 100  57 101  69 100  79 101
M  END
> <Batch ID>
0008

> <Smiles>
CNC(C)C(=O)NC(C(=O)N1Cc2cc([101O:1][101CH2:1]CCOc3ccc([100NH:0][100C:0](=O)N4CCCC(n5nc(-c6ccc(Oc7ccc(F)cc7F)cc6)c(C(N)=O)c5N)C4)c(N)c3)ccc2CC1C(=O)NC1CCCc2ccccc21)C(C)(C)C

> <Shape>
0.333

> <Color>
0.136

> <Negative vol penalty>
0.000

$$$$

  -OEChem-04052315363D

 82 90  0     1  0  0  0  0  0999 V2000
  -35.9589  -31.1499   20.0164 C   0  0  0  0  0  0  0  0  0  0  0  0
  -36.0381  -29.9896   20.7798 C   0  0  0  0  0  0  0  0  0  0  0  0
  -23.0504   -9.9530   19.8689 C   0  0  0  0  0  0  0  0  0  0  0  0
  -23.9076   -9.7548   22.1191 C   0  0  0  0  0  0  0  0  0  0  0  0
  -34.7303  -31.7854   19.8414 C   0  0  0  0  0  0  0  0  0  0  0  0
  -34.8887  -29.4647   21.3697 C   0  0  0  0  0  0  0  0  0  0  0  0
  -33.5665  -23.5472   22.2305 C   0  0  0  0  0  0  0  0  0  0  0  0
  -32.7725  -17.2581   23.6355 C   0  0  0  0  0  0  0  0  0  0  0  0
  -32.1302  -16.4650   22.6848 C   0  0  0  0  0  0  0  0  0  0  0  0
  -22.3199   -8.7777   20.0436 C   0  0  0  0  0  0  0  0  0  0  0  0
  -23.1770   -8.5794   22.2938 C   0  0  0  0  0  0  0  0  0  0  0  0
  -33.6842  -22.7116   23.3403 C   0  0  0  0  0  0  0  0  0  0  0  0
  -19.9789   -7.7118   22.9570 C   0  0  0  0  0  0  0  0  0  0  0  0
  -19.2727   -7.5608   24.1504 C   0  0  0  0  0  0  0  0  0  0  0  0
  -31.3703  -23.1205   23.8860 C   0  0  0  0  0  0  0  0  0  0  0  0
  -30.6302  -18.0559   24.4172 C   0  0  0  0  0  0  0  0  0  0  0  0
  -20.5478   -5.5712   24.6532 C   0  0  0  0  0  0  0  0  0  0  0  0
  -23.8443  -10.4415   20.9066 C   0  0  0  0  0  0  0  0  0  0  0  0
  -24.1764  -12.9690   21.0038 C   0  0  0  0  0  0  0  0  0  0  0  0
  -33.5637  -31.2626   20.4214 C   0  0  0  0  0  0  0  0  0  0  0  0
  -32.3508  -24.1855   21.9458 C   0  0  0  0  0  0  0  0  0  0  0  0
  -33.6436  -30.0945   21.2034 C   0  0  0  0  0  0  0  0  0  0  0  0
  -31.2391  -23.9617   22.7706 C   0  0  0  0  0  0  0  0  0  0  0  0
  -29.9879  -17.2628   23.4664 C   0  0  0  0  0  0  0  0  0  0  0  0
  -32.0225  -18.0536   24.5018 C   0  0  0  0  0  0  0  0  0  0  0  0
  -30.7379  -16.4673   22.6002 C   0  0  0  0  0  0  0  0  0  0  0  0
  -22.3832   -8.0909   21.2560 C   0  0  0  0  0  0  0  0  0  0  0  0
  -32.5869  -22.5004   24.1699 C   0  0  0  0  0  0  0  0  0  0  0  0
  -20.9695   -6.7924   22.6117 C   0  0  0  0  0  0  0  0  0  0  0  0
  -19.5572   -6.4906   24.9985 C   0  0  0  0  0  0  0  0  0  0  0  0
  -21.2540   -5.7222   23.4598 C   0  0  0  0  0  0  0  0  0  0  0  0
  -24.5996  -11.6553   20.7266 C   0  0  0  0  0  0  0  0  0  0  0  0
  -25.2507  -13.7546   20.6646 C   0  0  0  0  0  0  0  0  0  0  0  0
  -22.9241  -13.4372   21.5216 C   0  0  0  0  0  0  0  0  0  0  0  0
  -31.3980  -27.2116   21.7501 C   0  0  0  0  0  0  0  0  0  0  0  0
  -28.6318  -25.8662   20.7204 C   0  0  0  0  0  0  0  0  0  0  0  0
  -26.5888  -23.1334   20.6526 C   0  0  0  0  0  0  0  0  0  0  0  0
  -30.7176  -14.8106   20.7025 C   0  0  0  0  0  0  0  0  0  0  0  0
  -32.2664  -32.0109   20.2433 C   0  0  0  0  0  0  0  0  0  0  0  0
  -32.2328  -25.0627   20.7297 C   0  0  0  0  0  0  0  0  0  0  0  0
  -29.9061  -24.6073   22.4971 C   0  0  0  0  0  0  0  0  0  0  0  0
  -31.0326  -31.1823   20.5919 C   0  0  0  0  0  0  0  0  0  0  0  0
  -29.5072  -12.6170   18.1726 C   0  0  0  0  0  0  0  0  0  0  0  0
  -31.2344  -30.4561   21.9180 C   0  0  0  0  0  0  0  0  0  0  0  0
  -28.0877  -12.2793   18.6344 C   0  0  0  0  0  0  0  0  0  0  0  0
  -30.4724  -12.7402   19.3503 C   0  0  0  0  0  0  0  0  0  0  0  0
  -28.6249  -13.3247   20.8716 C   0  0  0  0  0  0  0  0  0  0  0  0
  -32.4149  -29.4807   21.8388 C   0  0  1  0  0  0  0  0  0  0  0  0
  -31.0889  -26.0675   20.8264 C   0  0  1  0  0  0  0  0  0  0  0  0
  -27.6030  -13.2543   19.7252 C   0  0  2  0  0  0  0  0  0  0  0  0
  -28.4952  -17.2838   23.3994 C   0  0  0  0  0  0  0  0  0  0  0  0
  -24.3780  -22.3482   19.7619 C   0  0  0  0  0  0  0  0  0  0  0  0
  -27.1944  -27.4650   22.8856 C   0  0  0  0  0  0  0  0  0  0  0  0
  -25.2156  -25.9609   22.5848 C   0  0  0  0  0  0  0  0  0  0  0  0
  -26.0027  -27.3779   20.6886 C   0  0  0  0  0  0  0  0  0  0  0  0
  -34.1283  -18.8484   25.5478 C   0  0  0  0  0  0  0  0  0  0  0  0
  -27.8623  -20.9961   19.0498 C   0  0  0  0  0  0  0  0  0  0  0  0
  -31.9213  -19.6955   26.3604 C   0  0  0  0  0  0  0  0  0  0  0  0
  -31.5248  -20.9880   25.6667 C   0  0  0  0  0  0  0  0  0  1  0  0
  -27.3713  -25.3701   21.3868 C   0  0  1  0  0  0  0  0  0  0  0  0
  -25.8747  -22.4377   19.5077 C   0  0  2  0  0  0  0  0  0  0  0  0
  -26.4715  -26.5327   21.8930 C   0  0  0  0  0  0  0  0  0  0  0  0
  -25.8456  -11.6052   20.2481 N   0  0  0  0  0  0  0  0  0  0  0  0
  -26.2145  -12.8972   20.2218 N   0  0  0  0  0  0  0  0  0  0  0  0
  -29.8428  -25.4614   21.2996 N   0  0  0  0  0  0  0  0  0  0  0  0
  -29.9496  -13.6834   20.3412 N   0  0  0  0  0  0  0  0  0  0  0  0
  -25.4555  -15.0884   20.7049 N   0  0  0  0  0  0  0  0  0  0  0  0
  -21.9290  -12.4954   21.8169 N   0  0  0  0  0  0  0  0  0  0  0  0
  -30.1042  -15.6534   21.6288 N   0  0  0  0  0  0  0  0  0  0  0  0
  -32.0290  -28.2762   21.1354 N   0  0  0  0  0  0  0  0  0  0  0  0
  -26.7214  -24.4868   20.4247 N   0  0  0  0  0  0  0  0  0  0  0  0
  -32.6679  -18.8499   25.4572 N   0  0  3  0  0  0  0  0  0  0  0  0
  -26.4046  -21.0562   19.3298 N   0  3  0  0  0  0  0  0  0  0  0  0
  -22.6883  -14.6561   21.7013 O   0  0  0  0  0  0  0  0  0  0  0  0
  -31.0857  -27.1348   22.9325 O   0  0  0  0  0  0  0  0  0  0  0  0
  -28.5451  -26.5806   19.7185 O   0  0  0  0  0  0  0  0  0  0  0  0
  -26.9857  -22.5365   21.6509 O   0  0  0  0  0  0  0  0  0  0  0  0
  -31.8254  -15.0277   20.2048 O   0  0  0  0  0  0  0  0  0  0  0  0
  -21.6702   -6.9441   21.4270 O   0  0  0  0  0  0  0  0  0  0  0  0
  -32.6992  -21.6858   25.2542 O   0  0  0  0  0  0  0  0  0  1  0  0
  -18.8800   -6.3466   26.1452 F   0  0  0  0  0  0  0  0  0  0  0  0
  -22.2053   -4.8364   23.1340 F   0  0  0  0  0  0  0  0  0  0  0  0
  1  2  1  0  0  0  0
  1  5  2  0  0  0  0
  2  6  2  0  0  0  0
  3 10  2  0  0  0  0
  3 18  1  0  0  0  0
  4 11  1  0  0  0  0
  4 18  2  0  0  0  0
  5 20  1  0  0  0  0
  6 22  1  0  0  0  0
  7 12  2  0  0  0  0
  7 21  1  0  0  0  0
  8  9  2  0  0  0  0
  8 25  1  0  0  0  0
  9 26  1  0  0  0  0
 10 27  1  0  0  0  0
 11 27  2  0  0  0  0
 12 28  1  0  0  0  0
 13 14  2  0  0  0  0
 13 29  1  0  0  0  0
 14 30  1  0  0  0  0
 15 23  1  0  0  0  0
 15 28  2  0  0  0  0
 16 24  1  0  0  0  0
 16 25  2  0  0  0  0
 17 30  2  0  0  0  0
 17 31  1  0  0  0  0
 18 32  1  0  0  0  0
 19 32  1  0  0  0  0
 19 33  2  0  0  0  0
 19 34  1  0  0  0  0
 20 22  2  0  0  0  0
 20 39  1  0  0  0  0
 21 23  2  0  0  0  0
 21 40  1  0  0  0  0
 22 48  1  0  0  0  0
 23 41  1  0  0  0  0
 24 26  2  0  0  0  0
 24 51  1  0  0  0  0
 25 72  1  0  0  0  0
 26 69  1  0  0  0  0
 27 79  1  0  0  0  0
 28 80  1  0  0  0  0
 29 31  2  0  0  0  0
 29 79  1  0  0  0  0
 30 81  1  0  0  0  0
 31 82  1  0  0  0  0
 32 63  2  0  0  0  0
 33 64  1  0  0  0  0
 33 67  1  0  0  0  0
 34 68  1  0  0  0  0
 34 74  2  0  0  0  0
 35 49  1  0  0  0  0
 35 70  1  0  0  0  0
 35 75  2  0  0  0  0
 36 60  1  0  0  0  0
 36 65  1  0  0  0  0
 36 76  2  0  0  0  0
 37 61  1  0  0  0  0
 37 71  1  0  0  0  0
 37 77  2  0  0  0  0
 38 66  1  0  0  0  0
 38 69  1  0  0  0  0
 38 78  2  0  0  0  0
 39 42  1  0  0  0  0
 40 49  1  0  0  0  0
 41 65  1  0  0  0  0
 42 44  1  0  0  0  0
 43 45  1  0  0  0  0
 43 46  1  0  0  0  0
 44 48  1  0  0  0  0
 45 50  1  0  0  0  0
 46 66  1  0  0  0  0
 47 50  1  0  0  0  0
 47 66  1  0  0  0  0
 48 70  1  0  0  0  0
 49 65  1  0  0  0  0
 50 64  1  0  0  0  0
 52 61  1  0  0  0  0
 53 62  1  0  0  0  0
 54 62  1  0  0  0  0
 55 62  1  0  0  0  0
 56 72  1  0  0  0  0
 57 73  1  0  0  0  0
 58 59  1  0  0  0  0
 58 72  1  0  0  0  0
 59 80  1  0  0  0  0
 60 62  1  0  0  0  0
 60 71  1  0  0  0  0
 61 73  1  0  0  0  0
 63 64  1  0  0  0  0
M  CHG  1  73   1
M  ISO  4  38 100  59 101  69 100  80 101
M  END
> <Batch ID>
0008

> <Smiles>
CNC(C)C(=O)NC(C(=O)N1Cc2cc([101O:1][101CH2:1]CN(C)c3ccc([100NH:0][100C:0](=O)N4CCCC(n5nc(-c6ccc(Oc7ccc(F)cc7F)cc6)c(C(N)=O)c5N)C4)c(C)c3)ccc2CC1C(=O)NC1CCCc2ccccc21)C(C)(C)C

> <Shape>
0.212

> <Color>
0.215

> <Negative vol penalty>
0.000

$$$$

  -OEChem-04052315363D

 81 89  0     1  0  0  0  0  0999 V2000
  -33.1483  -26.7325   26.9238 C   0  0  0  0  0  0  0  0  0  0  0  0
  -32.5201  -25.9619   25.9507 C   0  0  0  0  0  0  0  0  0  0  0  0
  -23.3447   -9.8443   21.9053 C   0  0  0  0  0  0  0  0  0  0  0  0
  -24.2274  -11.1459   23.7393 C   0  0  0  0  0  0  0  0  0  0  0  0
  -32.4798  -27.8159   27.4924 C   0  0  0  0  0  0  0  0  0  0  0  0
  -31.2225  -26.2736   25.5464 C   0  0  0  0  0  0  0  0  0  0  0  0
  -30.6679  -26.1295   20.5148 C   0  0  0  0  0  0  0  0  0  0  0  0
  -32.2413  -18.6929   19.7336 C   0  0  0  0  0  0  0  0  0  0  0  0
  -31.7006  -17.4260   19.5141 C   0  0  0  0  0  0  0  0  0  0  0  0
  -22.7423   -8.9735   22.8132 C   0  0  0  0  0  0  0  0  0  0  0  0
  -23.6249  -10.2751   24.6473 C   0  0  0  0  0  0  0  0  0  0  0  0
  -30.5424  -24.8731   19.9238 C   0  0  0  0  0  0  0  0  0  0  0  0
  -23.6779   -6.3915   24.7835 C   0  0  0  0  0  0  0  0  0  0  0  0
  -23.8004   -5.0224   24.5462 C   0  0  0  0  0  0  0  0  0  0  0  0
  -28.1517  -25.1729   19.8079 C   0  0  0  0  0  0  0  0  0  0  0  0
  -29.4757  -18.3296   19.7794 C   0  0  0  0  0  0  0  0  0  0  0  0
  -21.3957   -4.8304   24.4127 C   0  0  0  0  0  0  0  0  0  0  0  0
  -24.0873  -10.9305   22.3683 C   0  0  0  0  0  0  0  0  0  0  0  0
  -24.1528  -12.9958   20.8723 C   0  0  0  0  0  0  0  0  0  0  0  0
  -31.1770  -28.1469   27.0879 C   0  0  0  0  0  0  0  0  0  0  0  0
  -29.5332  -26.9139   20.7672 C   0  0  0  0  0  0  0  0  0  0  0  0
  -30.5354  -27.3617   26.1111 C   0  0  0  0  0  0  0  0  0  0  0  0
  -28.2656  -26.4401   20.3999 C   0  0  0  0  0  0  0  0  0  0  0  0
  -31.3992  -19.7782   19.9761 C   0  0  0  0  0  0  0  0  0  0  0  0
  -30.3178  -17.2444   19.5370 C   0  0  0  0  0  0  0  0  0  0  0  0
  -22.8823   -9.1889   24.1842 C   0  0  0  0  0  0  0  0  0  0  0  0
  -29.2839  -24.3934   19.5729 C   0  0  0  0  0  0  0  0  0  0  0  0
  -22.4143   -6.9800   24.8355 C   0  0  0  0  0  0  0  0  0  0  0  0
  -30.0164  -19.5965   19.9990 C   0  0  0  0  0  0  0  0  0  0  0  0
  -22.6594   -4.2419   24.3607 C   0  0  0  0  0  0  0  0  0  0  0  0
  -21.2733   -6.1995   24.6501 C   0  0  0  0  0  0  0  0  0  0  0  0
  -24.7104  -11.8301   21.4310 C   0  0  0  0  0  0  0  0  0  0  0  0
  -25.1373  -13.4876   20.0506 C   0  0  0  0  0  0  0  0  0  0  0  0
  -22.8604  -13.5817   21.0779 C   0  0  0  0  0  0  0  0  0  0  0  0
  -28.1600  -28.0975   23.3782 C   0  0  0  0  0  0  0  0  0  0  0  0
  -26.2378  -29.5765   21.2241 C   0  0  0  0  0  0  0  0  0  0  0  0
  -24.9012  -29.6207   18.0843 C   0  0  0  0  0  0  0  0  0  0  0  0
  -30.4633  -14.7749   19.0608 C   0  0  0  0  0  0  0  0  0  0  0  0
  -30.4771  -29.2985   27.7652 C   0  0  0  0  0  0  0  0  0  0  0  0
  -29.6879  -28.2783   21.3810 C   0  0  0  0  0  0  0  0  0  0  0  0
  -27.0181  -27.2517   20.6310 C   0  0  0  0  0  0  0  0  0  0  0  0
  -29.2431  -29.7891   27.0123 C   0  0  0  0  0  0  0  0  0  0  0  0
  -29.4791  -11.3998   18.4974 C   0  0  0  0  0  0  0  0  0  0  0  0
  -28.3757  -28.6100   26.5833 C   0  0  0  0  0  0  0  0  0  0  0  0
  -28.1048  -11.3068   19.1644 C   0  0  0  0  0  0  0  0  0  0  0  0
  -30.4310  -12.3001   19.2830 C   0  0  0  0  0  0  0  0  0  0  0  0
  -28.5388  -13.5486   20.2475 C   0  0  0  0  0  0  0  0  0  0  0  0
  -29.1377  -27.6832   25.6284 C   0  0  1  0  0  0  0  0  0  0  0  0
  -28.4162  -28.7750   22.0618 C   0  0  1  0  0  0  0  0  0  0  0  0
  -27.5251  -12.7044   19.4580 C   0  0  2  0  0  0  0  0  0  0  0  0
  -31.9956  -21.1269   20.2092 C   0  0  0  0  0  0  0  0  0  0  0  0
  -23.3343  -30.9335   16.6287 C   0  0  0  0  0  0  0  0  0  0  0  0
  -23.8580  -28.3942   22.7236 C   0  0  0  0  0  0  0  0  0  0  0  0
  -22.4315  -28.9227   20.7352 C   0  0  0  0  0  0  0  0  0  0  0  0
  -23.5540  -30.7649   21.9877 C   0  0  0  0  0  0  0  0  0  0  0  0
  -27.0341  -30.2076   16.1183 C   0  0  0  0  0  0  0  0  0  0  0  0
  -27.9483  -22.4531   19.2452 C   0  0  0  0  0  0  0  0  0  1  0  0
  -28.2362  -20.9645   19.2145 C   0  0  0  0  0  0  0  0  0  0  0  0
  -24.9407  -29.2302   20.5338 C   0  0  1  0  0  0  0  0  0  0  0  0
  -24.7795  -30.7316   17.0569 C   0  0  2  0  0  0  0  0  0  0  0  0
  -23.7192  -29.3116   21.4924 C   0  0  0  0  0  0  0  0  0  0  0  0
  -25.9527  -11.5953   21.0003 N   0  0  0  0  0  0  0  0  0  0  0  0
  -26.1839  -12.6201   20.1623 N   0  0  0  0  0  0  0  0  0  0  0  0
  -27.2207  -28.5768   21.2397 N   0  0  0  0  0  0  0  0  0  0  0  0
  -29.8163  -13.6081   19.5200 N   0  0  0  0  0  0  0  0  0  0  0  0
  -25.2012  -14.5730   19.2505 N   0  0  0  0  0  0  0  0  0  0  0  0
  -21.9710  -12.9469   21.9556 N   0  0  0  0  0  0  0  0  0  0  0  0
  -29.7688  -15.9571   19.3147 N   0  0  0  0  0  0  0  0  0  0  0  0
  -29.1794  -28.2519   24.2982 N   0  0  0  0  0  0  0  0  0  0  0  0
  -24.8488  -30.1088   19.3728 N   0  0  0  0  0  0  0  0  0  0  0  0
  -25.5875  -30.4088   15.8469 N   0  3  0  0  0  0  0  0  0  0  0  0
  -22.4989  -14.6280   20.4879 O   0  0  0  0  0  0  0  0  0  0  0  0
  -27.1141  -27.4816   23.5473 O   0  0  0  0  0  0  0  0  0  0  0  0
  -26.3765  -30.6954   21.7245 O   0  0  0  0  0  0  0  0  0  0  0  0
  -25.0261  -28.4379   17.7748 O   0  0  0  0  0  0  0  0  0  0  0  0
  -31.5401  -14.7264   18.4607 O   0  0  0  0  0  0  0  0  0  0  0  0
  -22.2944   -8.3394   25.0704 O   0  0  0  0  0  0  0  0  0  0  0  0
  -29.1586  -23.1670   18.9965 O   0  0  0  0  0  0  0  0  0  1  0  0
  -29.1754  -20.6518   20.2360 O   0  0  0  0  0  0  0  0  0  0  0  0
  -22.7772   -2.9275   24.1313 F   0  0  0  0  0  0  0  0  0  0  0  0
  -20.0567   -6.7594   24.6977 F   0  0  0  0  0  0  0  0  0  0  0  0
  1  2  1  0  0  0  0
  1  5  2  0  0  0  0
  2  6  2  0  0  0  0
  3 10  2  0  0  0  0
  3 18  1  0  0  0  0
  4 11  1  0  0  0  0
  4 18  2  0  0  0  0
  5 20  1  0  0  0  0
  6 22  1  0  0  0  0
  7 12  2  0  0  0  0
  7 21  1  0  0  0  0
  8  9  2  0  0  0  0
  8 24  1  0  0  0  0
  9 25  1  0  0  0  0
 10 26  1  0  0  0  0
 11 26  2  0  0  0  0
 12 27  1  0  0  0  0
 13 14  2  0  0  0  0
 13 28  1  0  0  0  0
 14 30  1  0  0  0  0
 15 23  1  0  0  0  0
 15 27  2  0  0  0  0
 16 25  2  0  0  0  0
 16 29  1  0  0  0  0
 17 30  2  0  0  0  0
 17 31  1  0  0  0  0
 18 32  1  0  0  0  0
 19 32  1  0  0  0  0
 19 33  2  0  0  0  0
 19 34  1  0  0  0  0
 20 22  2  0  0  0  0
 20 39  1  0  0  0  0
 21 23  2  0  0  0  0
 21 40  1  0  0  0  0
 22 48  1  0  0  0  0
 23 41  1  0  0  0  0
 24 29  2  0  0  0  0
 24 51  1  0  0  0  0
 25 68  1  0  0  0  0
 26 77  1  0  0  0  0
 27 78  1  0  0  0  0
 28 31  2  0  0  0  0
 28 77  1  0  0  0  0
 29 79  1  0  0  0  0
 30 80  1  0  0  0  0
 31 81  1  0  0  0  0
 32 62  2  0  0  0  0
 33 63  1  0  0  0  0
 33 66  1  0  0  0  0
 34 67  1  0  0  0  0
 34 72  2  0  0  0  0
 35 49  1  0  0  0  0
 35 69  1  0  0  0  0
 35 73  2  0  0  0  0
 36 59  1  0  0  0  0
 36 64  1  0  0  0  0
 36 74  2  0  0  0  0
 37 60  1  0  0  0  0
 37 70  1  0  0  0  0
 37 75  2  0  0  0  0
 38 65  1  0  0  0  0
 38 68  1  0  0  0  0
 38 76  2  0  0  0  0
 39 42  1  0  0  0  0
 40 49  1  0  0  0  0
 41 64  1  0  0  0  0
 42 44  1  0  0  0  0
 43 45  1  0  0  0  0
 43 46  1  0  0  0  0
 44 48  1  0  0  0  0
 45 50  1  0  0  0  0
 46 65  1  0  0  0  0
 47 50  1  0  0  0  0
 47 65  1  0  0  0  0
 48 69  1  0  0  0  0
 49 64  1  0  0  0  0
 50 63  1  0  0  0  0
 52 60  1  0  0  0  0
 53 61  1  0  0  0  0
 54 61  1  0  0  0  0
 55 61  1  0  0  0  0
 56 71  1  0  0  0  0
 57 58  1  0  0  0  0
 57 78  1  0  0  0  0
 58 79  1  0  0  0  0
 59 61  1  0  0  0  0
 59 70  1  0  0  0  0
 60 71  1  0  0  0  0
 62 63  1  0  0  0  0
M  CHG  1  71   1
M  ISO  4  38 100  57 101  68 100  78 101
M  END
> <Batch ID>
0008

> <Smiles>
CNC(C)C(=O)NC(C(=O)N1Cc2cc([101O:1][101CH2:1]COc3cc([100NH:0][100C:0](=O)N4CCCC(n5nc(-c6ccc(Oc7ccc(F)cc7F)cc6)c(C(N)=O)c5N)C4)ccc3C)ccc2CC1C(=O)NC1CCCc2ccccc21)C(C)(C)C

> <Shape>
0.269

> <Color>
0.145

> <Negative vol penalty>
0.000

$$$$

  -OEChem-04052315363D

 85 93  0     1  0  0  0  0  0999 V2000
  -27.3877  -37.6504   20.6375 C   0  0  0  0  0  0  0  0  0  0  0  0
  -27.9886  -36.4042   20.7833 C   0  0  0  0  0  0  0  0  0  0  0  0
  -24.6849  -10.0473   22.1966 C   0  0  0  0  0  0  0  0  0  0  0  0
  -24.7062  -11.4925   24.1326 C   0  0  0  0  0  0  0  0  0  0  0  0
  -26.1182  -37.8771   21.1675 C   0  0  0  0  0  0  0  0  0  0  0  0
  -27.3207  -35.3842   21.4600 C   0  0  0  0  0  0  0  0  0  0  0  0
  -27.5349  -29.3901   20.2229 C   0  0  0  0  0  0  0  0  0  0  0  0
  -24.3624   -8.9615   23.0107 C   0  0  0  0  0  0  0  0  0  0  0  0
  -24.3836  -10.4067   24.9467 C   0  0  0  0  0  0  0  0  0  0  0  0
  -28.2661  -28.3426   20.7814 C   0  0  0  0  0  0  0  0  0  0  0  0
  -21.6090   -7.7175   24.5287 C   0  0  0  0  0  0  0  0  0  0  0  0
  -20.6004   -6.8580   24.0934 C   0  0  0  0  0  0  0  0  0  0  0  0
  -26.3918  -27.7980   22.1990 C   0  0  0  0  0  0  0  0  0  0  0  0
  -27.2764  -21.8782   20.6672 C   0  0  0  0  0  0  0  0  0  0  0  0
  -29.3379  -21.6600   21.9080 C   0  0  0  0  0  0  0  0  0  0  0  0
  -22.1668   -5.0186   24.0957 C   0  0  0  0  0  0  0  0  0  0  0  0
  -24.8568  -11.3128   22.7576 C   0  0  0  0  0  0  0  0  0  0  0  0
  -24.2959  -13.3105   21.2736 C   0  0  0  0  0  0  0  0  0  0  0  0
  -25.4303  -36.8565   21.8426 C   0  0  0  0  0  0  0  0  0  0  0  0
  -26.2283  -29.6566   20.6567 C   0  0  0  0  0  0  0  0  0  0  0  0
  -26.0413  -35.5979   22.0006 C   0  0  0  0  0  0  0  0  0  0  0  0
  -25.6452  -28.8478   21.6426 C   0  0  0  0  0  0  0  0  0  0  0  0
  -27.3107  -20.5157   20.3705 C   0  0  0  0  0  0  0  0  0  0  0  0
  -28.3585  -19.7253   20.8426 C   0  0  0  0  0  0  0  0  0  0  0  0
  -24.2117   -9.1412   24.3857 C   0  0  0  0  0  0  0  0  0  0  0  0
  -27.6956  -27.5482   21.7717 C   0  0  0  0  0  0  0  0  0  0  0  0
  -22.8966   -7.2276   24.7474 C   0  0  0  0  0  0  0  0  0  0  0  0
  -28.2900  -22.4504   21.4359 C   0  0  0  0  0  0  0  0  0  0  0  0
  -20.8792   -5.5086   23.8769 C   0  0  0  0  0  0  0  0  0  0  0  0
  -29.3722  -20.2974   21.6113 C   0  0  0  0  0  0  0  0  0  0  0  0
  -23.1755   -5.8781   24.5309 C   0  0  0  0  0  0  0  0  0  0  0  0
  -25.1906  -12.4347   21.9173 C   0  0  0  0  0  0  0  0  0  0  0  0
  -25.1044  -14.1964   20.6044 C   0  0  0  0  0  0  0  0  0  0  0  0
  -22.8622  -13.3221   21.2801 C   0  0  0  0  0  0  0  0  0  0  0  0
  -24.7871  -32.1227   22.0514 C   0  0  0  0  0  0  0  0  0  0  0  0
  -22.1225  -30.3358   21.5725 C   0  0  0  0  0  0  0  0  0  0  0  0
  -20.7529  -27.2465   21.0951 C   0  0  0  0  0  0  0  0  0  0  0  0
  -29.5475  -17.5467   20.4108 C   0  0  0  0  0  0  0  0  0  0  0  0
  -24.0796  -37.1632   22.4394 C   0  0  0  0  0  0  0  0  0  0  0  0
  -25.4433  -30.7735   20.0253 C   0  0  0  0  0  0  0  0  0  0  0  0
  -24.2387  -29.0797   22.1288 C   0  0  0  0  0  0  0  0  0  0  0  0
  -23.2832  -35.9167   22.8166 C   0  0  0  0  0  0  0  0  0  0  0  0
  -30.0892  -14.0940   19.7307 C   0  0  0  0  0  0  0  0  0  0  0  0
  -24.1647  -34.9290   23.5744 C   0  0  0  0  0  0  0  0  0  0  0  0
  -28.7895  -13.4266   20.1860 C   0  0  0  0  0  0  0  0  0  0  0  0
  -30.4803  -15.2552   20.6431 C   0  0  0  0  0  0  0  0  0  0  0  0
  -28.1319  -15.5947   21.3058 C   0  0  0  0  0  0  0  0  0  0  0  0
  -25.3384  -34.4588   22.7067 C   0  0  1  0  0  0  0  0  0  0  0  0
  -24.3047  -31.2765   20.9073 C   0  0  1  0  0  0  0  0  0  0  0  0
  -27.6629  -14.4604   20.3800 C   0  0  2  0  0  0  0  0  0  0  0  0
  -18.5445  -26.0991   20.7734 C   0  0  0  0  0  0  0  0  0  0  0  0
  -21.5282  -30.6506   24.5486 C   0  0  0  0  0  0  0  0  0  0  0  0
  -19.9047  -28.7547   24.3539 C   0  0  0  0  0  0  0  0  0  0  0  0
  -19.5299  -30.8534   23.0586 C   0  0  0  0  0  0  0  0  0  0  0  0
  -21.5400  -26.2256   18.4310 C   0  0  0  0  0  0  0  0  0  0  0  0
  -29.3771  -25.8907   21.4865 C   0  0  0  0  0  0  0  0  0  1  0  0
  -29.5103  -24.4380   21.9007 C   0  0  0  0  0  0  0  0  0  0  0  0
  -21.3851  -29.2826   22.3637 C   0  0  1  0  0  0  0  0  0  0  0  0
  -19.7400  -26.7390   20.0848 C   0  0  2  0  0  0  0  0  0  0  0  0
  -26.2115  -19.9301   19.5448 C   0  0  0  0  0  0  0  0  0  0  0  0
  -20.6142  -29.8819   23.5736 C   0  0  0  0  0  0  0  0  0  0  0  0
  -26.4695  -12.7367   21.6784 N   0  0  0  0  0  0  0  0  0  0  0  0
  -26.3844  -13.8122   20.8770 N   0  0  0  0  0  0  0  0  0  0  0  0
  -23.5140  -30.1878   21.4850 N   0  0  0  0  0  0  0  0  0  0  0  0
  -29.3660  -16.1962   20.7766 N   0  0  0  0  0  0  0  0  0  0  0  0
  -24.8383  -15.2588   19.8151 N   0  0  0  0  0  0  0  0  0  0  0  0
  -22.1894  -12.3400   22.0197 N   0  0  0  0  0  0  0  0  0  0  0  0
  -28.4090  -18.3398   20.5500 N   0  0  0  0  0  0  0  0  0  0  0  0
  -24.8946  -33.4671   21.7506 N   0  0  0  0  0  0  0  0  0  0  0  0
  -20.5404  -28.5721   21.4096 N   0  0  0  0  0  0  0  0  0  0  0  0
  -20.3649  -25.7247   19.1894 N   0  3  0  0  0  0  0  0  0  0  0  0
  -22.1973  -14.1682   20.6354 O   0  0  0  0  0  0  0  0  0  0  0  0
  -25.0413  -31.5951   23.1278 O   0  0  0  0  0  0  0  0  0  0  0  0
  -21.4865  -31.2518   21.0453 O   0  0  0  0  0  0  0  0  0  0  0  0
  -21.6414  -26.5370   21.5616 O   0  0  0  0  0  0  0  0  0  0  0  0
  -30.6254  -17.9627   19.9783 O   0  0  0  0  0  0  0  0  0  0  0  0
  -23.8967   -8.0820   25.1803 O   0  0  0  0  0  0  0  0  0  0  0  0
  -28.4074  -26.5255   22.3189 O   0  0  0  0  0  0  0  0  0  1  0  0
  -28.2567  -23.7886   21.7275 O   0  0  0  0  0  0  0  0  0  0  0  0
  -19.9101   -4.6830   23.4604 F   0  0  0  0  0  0  0  0  0  0  0  0
  -30.3848  -19.5483   22.0709 F   0  0  0  0  0  0  0  0  0  0  0  0
  -24.4102   -5.4014   24.7404 F   0  0  0  0  0  0  0  0  0  0  0  0
  -25.2690  -20.8420   19.1670 F   0  0  0  0  0  0  0  0  0  0  0  0
  -26.6475  -19.3626   18.3827 F   0  0  0  0  0  0  0  0  0  0  0  0
  -25.5312  -18.9477   20.2021 F   0  0  0  0  0  0  0  0  0  0  0  0
  1  2  1  0  0  0  0
  1  5  2  0  0  0  0
  2  6  2  0  0  0  0
  3  8  2  0  0  0  0
  3 17  1  0  0  0  0
  4  9  1  0  0  0  0
  4 17  2  0  0  0  0
  5 19  1  0  0  0  0
  6 21  1  0  0  0  0
  7 10  2  0  0  0  0
  7 20  1  0  0  0  0
  8 25  1  0  0  0  0
  9 25  2  0  0  0  0
 10 26  1  0  0  0  0
 11 12  2  0  0  0  0
 11 27  1  0  0  0  0
 12 29  1  0  0  0  0
 13 22  1  0  0  0  0
 13 26  2  0  0  0  0
 14 23  1  0  0  0  0
 14 28  2  0  0  0  0
 15 28  1  0  0  0  0
 15 30  2  0  0  0  0
 16 29  2  0  0  0  0
 16 31  1  0  0  0  0
 17 32  1  0  0  0  0
 18 32  1  0  0  0  0
 18 33  2  0  0  0  0
 18 34  1  0  0  0  0
 19 21  2  0  0  0  0
 19 39  1  0  0  0  0
 20 22  2  0  0  0  0
 20 40  1  0  0  0  0
 21 48  1  0  0  0  0
 22 41  1  0  0  0  0
 23 24  2  0  0  0  0
 23 60  1  0  0  0  0
 24 30  1  0  0  0  0
 24 68  1  0  0  0  0
 25 77  1  0  0  0  0
 26 78  1  0  0  0  0
 27 31  2  0  0  0  0
 27 77  1  0  0  0  0
 28 79  1  0  0  0  0
 29 80  1  0  0  0  0
 30 81  1  0  0  0  0
 31 82  1  0  0  0  0
 32 62  2  0  0  0  0
 33 63  1  0  0  0  0
 33 66  1  0  0  0  0
 34 67  1  0  0  0  0
 34 72  2  0  0  0  0
 35 49  1  0  0  0  0
 35 69  1  0  0  0  0
 35 73  2  0  0  0  0
 36 58  1  0  0  0  0
 36 64  1  0  0  0  0
 36 74  2  0  0  0  0
 37 59  1  0  0  0  0
 37 70  1  0  0  0  0
 37 75  2  0  0  0  0
 38 65  1  0  0  0  0
 38 68  1  0  0  0  0
 38 76  2  0  0  0  0
 39 42  1  0  0  0  0
 40 49  1  0  0  0  0
 41 64  1  0  0  0  0
 42 44  1  0  0  0  0
 43 45  1  0  0  0  0
 43 46  1  0  0  0  0
 44 48  1  0  0  0  0
 45 50  1  0  0  0  0
 46 65  1  0  0  0  0
 47 50  1  0  0  0  0
 47 65  1  0  0  0  0
 48 69  1  0  0  0  0
 49 64  1  0  0  0  0
 50 63  1  0  0  0  0
 51 59  1  0  0  0  0
 52 61  1  0  0  0  0
 53 61  1  0  0  0  0
 54 61  1  0  0  0  0
 55 71  1  0  0  0  0
 56 57  1  0  0  0  0
 56 78  1  0  0  0  0
 57 79  1  0  0  0  0
 58 61  1  0  0  0  0
 58 70  1  0  0  0  0
 59 71  1  0  0  0  0
 60 83  1  0  0  0  0
 60 84  1  0  0  0  0
 60 85  1  0  0  0  0
 62 63  1  0  0  0  0
M  CHG  1  71   1
M  ISO  4  38 100  56 101  68 100  78 101
M  END
> <Batch ID>
0008

> <Smiles>
CNC(C)C(=O)NC(C(=O)N1Cc2cc([101O:1][101CH2:1]COc3cc(F)c([100NH:0][100C:0](=O)N4CCCC(n5nc(-c6ccc(Oc7ccc(F)cc7F)cc6)c(C(N)=O)c5N)C4)c(C(F)(F)F)c3)ccc2CC1C(=O)NC1CCCc2ccccc21)C(C)(C)C

> <Shape>
0.310

> <Color>
0.108

> <Negative vol penalty>
0.000

$$$$

  -OEChem-04052315363D

 97105  0     1  0  0  0  0  0999 V2000
  -27.8249  -23.8253   17.5575 C   0  0  0  0  0  0  0  0  0  0  0  0
  -26.7480  -24.0311   18.4139 C   0  0  0  0  0  0  0  0  0  0  0  0
  -34.3031  -17.3946   20.0891 C   0  0  0  0  0  0  0  0  0  0  0  0
  -32.3661  -18.7994   19.7554 C   0  0  0  0  0  0  0  0  0  0  0  0
  -29.0122  -24.5303   17.7506 C   0  0  0  0  0  0  0  0  0  0  0  0
  -26.8582  -24.9411   19.4646 C   0  0  0  0  0  0  0  0  0  0  0  0
  -22.7890  -27.9261   19.8843 C   0  0  0  0  0  0  0  0  0  0  0  0
  -35.0957  -18.3288   19.4223 C   0  0  0  0  0  0  0  0  0  0  0  0
  -33.1587  -19.7338   19.0886 C   0  0  0  0  0  0  0  0  0  0  0  0
  -21.6571  -27.3786   20.4867 C   0  0  0  0  0  0  0  0  0  0  0  0
  -35.3461  -22.1770   19.9048 C   0  0  0  0  0  0  0  0  0  0  0  0
  -35.1755  -23.5217   20.2337 C   0  0  0  0  0  0  0  0  0  0  0  0
  -22.2262  -28.4892   22.5512 C   0  0  0  0  0  0  0  0  0  0  0  0
  -34.5677  -24.0043   17.9457 C   0  0  0  0  0  0  0  0  0  0  0  0
  -32.9383  -17.6298   20.2556 C   0  0  0  0  0  0  0  0  0  0  0  0
  -32.2654  -16.2174   22.2706 C   0  0  0  0  0  0  0  0  0  0  0  0
  -29.1337  -25.4566   18.7984 C   0  0  0  0  0  0  0  0  0  0  0  0
  -23.6553  -28.7519   20.6150 C   0  0  0  0  0  0  0  0  0  0  0  0
  -28.0487  -25.6582   19.6727 C   0  0  0  0  0  0  0  0  0  0  0  0
  -23.3670  -29.0480   21.9549 C   0  0  0  0  0  0  0  0  0  0  0  0
  -34.5235  -19.4984   18.9221 C   0  0  0  0  0  0  0  0  0  0  0  0
  -21.3771  -27.6578   21.8212 C   0  0  0  0  0  0  0  0  0  0  0  0
  -35.1275  -21.7459   18.5963 C   0  0  0  0  0  0  0  0  0  0  0  0
  -34.7863  -24.4354   19.2542 C   0  0  0  0  0  0  0  0  0  0  0  0
  -34.7383  -22.6595   17.6168 C   0  0  0  0  0  0  0  0  0  0  0  0
  -32.1190  -16.6649   20.9439 C   0  0  0  0  0  0  0  0  0  0  0  0
  -31.2476  -15.3113   22.4416 C   0  0  0  0  0  0  0  0  0  0  0  0
  -33.2348  -16.5879   23.2599 C   0  0  0  0  0  0  0  0  0  0  0  0
  -26.7122  -28.5956   21.4721 C   0  0  0  0  0  0  0  0  0  0  0  0
  -26.1526  -31.5945   22.5748 C   0  0  0  0  0  0  0  0  0  0  0  0
  -19.5765  -15.1578   19.5780 C   0  0  0  0  0  0  0  0  0  0  0  0
  -18.2479  -25.8009   22.3930 C   0  0  0  0  0  0  0  0  0  0  0  0
  -24.8667  -34.5238   23.7632 C   0  0  0  0  0  0  0  0  0  0  0  0
  -25.9866  -14.7640   19.8191 C   0  0  0  0  0  0  0  0  0  0  0  0
  -30.4531  -26.1601   18.9959 C   0  0  0  0  0  0  0  0  0  0  0  0
  -24.8576  -29.3562   19.9430 C   0  0  0  0  0  0  0  0  0  0  0  0
  -24.2542  -29.9451   22.7774 C   0  0  0  0  0  0  0  0  0  0  0  0
  -30.3615  -27.3819   19.9064 C   0  0  0  0  0  0  0  0  0  0  0  0
  -28.5445  -12.2099   19.9958 C   0  0  0  0  0  0  0  0  0  0  0  0
  -29.5595  -27.0533   21.1617 C   0  0  0  0  0  0  0  0  0  0  0  0
  -29.7713  -13.0348   20.3889 C   0  0  0  0  0  0  0  0  0  0  0  0
  -22.7192  -13.0163   19.9902 C   0  0  0  0  0  0  0  0  0  0  0  0
  -23.0159  -14.9981   18.4426 C   0  0  0  0  0  0  0  0  0  0  0  0
  -27.6505  -12.9766   19.0257 C   0  0  0  0  0  0  0  0  0  0  0  0
  -21.2745  -13.4277   20.2784 C   0  0  0  0  0  0  0  0  0  0  0  0
  -21.5443  -14.6976   18.1541 C   0  0  0  0  0  0  0  0  0  0  0  0
  -28.4347  -15.1385   19.9116 C   0  0  0  0  0  0  0  0  0  0  0  0
  -28.1212  -26.6551   20.8089 C   0  0  1  0  0  0  0  0  0  0  0  0
  -25.9478  -29.7688   20.9272 C   0  0  1  0  0  0  0  0  0  0  0  0
  -29.3672  -14.4271   20.9088 C   0  0  2  0  0  0  0  0  0  0  0  0
  -23.5647  -14.2466   19.6647 C   0  0  0  0  0  0  0  0  0  0  0  0
  -25.5106  -36.5786   25.0520 C   0  0  0  0  0  0  0  0  0  0  0  0
  -26.1027  -29.9826   25.1650 C   0  0  0  0  0  0  0  0  0  0  0  0
  -25.7934  -32.1303   26.4139 C   0  0  0  0  0  0  0  0  0  0  0  0
  -27.8637  -31.7559   25.0736 C   0  0  0  0  0  0  0  0  0  0  0  0
  -16.6292  -13.9341   21.8124 C   0  0  0  0  0  0  0  0  0  0  0  0
  -17.3263  -13.0555   19.5748 C   0  0  0  0  0  0  0  0  0  0  0  0
  -16.5426  -15.4177   19.8140 C   0  0  0  0  0  0  0  0  0  0  0  0
  -24.2049  -36.2987   21.4893 C   0  0  0  0  0  0  0  0  0  0  0  0
  -20.0363  -15.9589   22.6172 C   0  0  0  0  0  0  0  0  0  0  0  0
  -19.4458  -26.2869   21.6054 C   0  0  0  0  0  0  0  0  0  1  0  0
  -17.1570  -20.6371   22.3547 C   0  0  0  0  0  0  0  0  0  0  0  0
  -16.9888  -22.0224   21.7268 C   0  0  0  0  0  0  0  0  0  0  0  0
  -17.7336  -19.6366   21.3501 C   0  0  0  0  0  0  0  0  0  0  0  0
  -16.4406  -23.0291   22.7424 C   0  0  0  0  0  0  0  0  0  0  0  0
  -17.9387  -18.2619   21.9931 C   0  0  0  0  0  0  0  0  0  0  0  0
  -16.2045  -24.4072   22.1330 C   0  0  0  0  0  0  0  0  0  0  0  0
  -18.5819  -17.2452   21.0581 C   0  0  0  0  0  0  0  0  0  0  0  0
  -25.6753  -32.1815   23.8812 C   0  0  1  0  0  0  0  0  0  0  0  0
  -18.7941  -14.7764   20.8115 C   0  0  2  0  0  0  0  0  0  0  0  0
  -25.3677  -35.9540   23.6728 C   0  0  2  0  0  0  0  0  0  0  0  0
  -26.3405  -31.5050   25.1130 C   0  0  0  0  0  0  0  0  0  0  0  0
  -17.3507  -14.2919   20.4946 C   0  0  0  0  0  0  0  0  0  0  0  0
  -31.0893  -16.0902   20.3166 N   0  0  0  0  0  0  0  0  0  0  0  0
  -30.5796  -15.2723   21.2532 N   0  0  0  0  0  0  0  0  0  0  0  0
  -25.4212  -30.5067   22.0772 N   0  0  0  0  0  0  0  0  0  0  0  0
  -20.7754  -14.4706   19.3744 N   0  0  0  0  0  0  0  0  0  0  0  0
  -27.2867  -14.2848   19.5884 N   0  0  0  0  0  0  0  0  0  0  0  0
  -30.8678  -14.5519   23.4912 N   0  0  0  0  0  0  0  0  0  0  0  0
  -32.9457  -17.6656   24.1079 N   0  0  0  0  0  0  0  0  0  0  0  0
  -27.3321  -27.8293   20.5037 N   0  0  0  0  0  0  0  0  0  0  0  0
  -17.4191  -25.0000   21.6230 N   0  0  0  0  0  0  0  0  0  0  0  0
  -25.9069  -33.6191   23.7915 N   0  0  0  0  0  0  0  0  0  0  0  0
  -24.9554  -13.8967   19.4796 N   0  0  0  0  0  0  0  0  0  0  0  0
  -24.4212  -36.7850   22.8762 N   0  3  0  0  0  0  0  0  0  0  0  0
  -18.7970  -15.9553   21.7548 N   0  3  1  0  0  0  0  0  0  0  0  0
  -34.3322  -15.9916   23.3773 O   0  0  0  0  0  0  0  0  0  0  0  0
  -26.7388  -28.4010   22.6817 O   0  0  0  0  0  0  0  0  0  0  0  0
  -27.1337  -32.0877   22.0128 O   0  0  0  0  0  0  0  0  0  0  0  0
  -19.1420  -16.0362   18.8296 O   0  0  0  0  0  0  0  0  0  0  0  0
  -18.0609  -26.0989   23.5695 O   0  0  0  0  0  0  0  0  0  0  0  0
  -23.6722  -34.2381   23.8083 O   0  0  0  0  0  0  0  0  0  0  0  0
  -25.7610  -15.8808   20.2977 O   0  0  0  0  0  0  0  0  0  0  0  0
  -35.2966  -20.4104   18.2715 O   0  0  0  0  0  0  0  0  0  0  0  0
  -20.2734  -27.1242   22.4119 O   0  0  0  0  0  0  0  0  0  1  0  0
  -34.6210  -25.7264   19.5706 F   0  0  0  0  0  0  0  0  0  0  0  0
  -34.5258  -22.2511   16.3583 F   0  0  0  0  0  0  0  0  0  0  0  0
  1  2  1  0  0  0  0
  1  5  2  0  0  0  0
  2  6  2  0  0  0  0
  3  8  2  0  0  0  0
  3 15  1  0  0  0  0
  4  9  1  0  0  0  0
  4 15  2  0  0  0  0
  5 17  1  0  0  0  0
  6 19  1  0  0  0  0
  7 10  2  0  0  0  0
  7 18  1  0  0  0  0
  8 21  1  0  0  0  0
  9 21  2  0  0  0  0
 10 22  1  0  0  0  0
 11 12  2  0  0  0  0
 11 23  1  0  0  0  0
 12 24  1  0  0  0  0
 13 20  1  0  0  0  0
 13 22  2  0  0  0  0
 14 24  2  0  0  0  0
 14 25  1  0  0  0  0
 15 26  1  0  0  0  0
 16 26  1  0  0  0  0
 16 27  2  0  0  0  0
 16 28  1  0  0  0  0
 17 19  2  0  0  0  0
 17 35  1  0  0  0  0
 18 20  2  0  0  0  0
 18 36  1  0  0  0  0
 19 48  1  0  0  0  0
 20 37  1  0  0  0  0
 21 94  1  0  0  0  0
 22 95  1  0  0  0  0
 23 25  2  0  0  0  0
 23 94  1  0  0  0  0
 24 96  1  0  0  0  0
 25 97  1  0  0  0  0
 26 74  2  0  0  0  0
 27 75  1  0  0  0  0
 27 79  1  0  0  0  0
 28 80  1  0  0  0  0
 28 87  2  0  0  0  0
 29 49  1  0  0  0  0
 29 81  1  0  0  0  0
 29 88  2  0  0  0  0
 30 69  1  0  0  0  0
 30 76  1  0  0  0  0
 30 89  2  0  0  0  0
 31 70  1  0  0  0  0
 31 77  1  0  0  0  0
 31 90  2  0  0  0  0
 32 61  1  0  0  0  0
 32 82  1  0  0  0  0
 32 91  2  0  0  0  0
 33 71  1  0  0  0  0
 33 83  1  0  0  0  0
 33 92  2  0  0  0  0
 34 78  1  0  0  0  0
 34 84  1  0  0  0  0
 34 93  2  0  0  0  0
 35 38  1  0  0  0  0
 36 49  1  0  0  0  0
 37 76  1  0  0  0  0
 38 40  1  0  0  0  0
 39 41  1  0  0  0  0
 39 44  1  0  0  0  0
 40 48  1  0  0  0  0
 41 50  1  0  0  0  0
 42 45  1  0  0  0  0
 42 51  1  0  0  0  0
 43 46  1  0  0  0  0
 43 51  1  0  0  0  0
 44 78  1  0  0  0  0
 45 77  1  0  0  0  0
 46 77  1  0  0  0  0
 47 50  1  0  0  0  0
 47 78  1  0  0  0  0
 48 81  1  0  0  0  0
 49 76  1  0  0  0  0
 50 75  1  0  0  0  0
 51 84  1  0  0  0  0
 52 71  1  0  0  0  0
 53 72  1  0  0  0  0
 54 72  1  0  0  0  0
 55 72  1  0  0  0  0
 56 73  1  0  0  0  0
 57 73  1  0  0  0  0
 58 73  1  0  0  0  0
 59 85  1  0  0  0  0
 60 86  1  0  0  0  0
 61 95  1  0  0  0  0
 62 63  1  0  0  0  0
 62 64  1  0  0  0  0
 63 65  1  0  0  0  0
 64 66  1  0  0  0  0
 65 67  1  0  0  0  0
 66 68  1  0  0  0  0
 67 82  1  0  0  0  0
 68 86  1  0  0  0  0
 69 72  1  0  0  0  0
 69 83  1  0  0  0  0
 70 73  1  0  0  0  0
 70 86  1  0  0  0  0
 71 85  1  0  0  0  0
 74 75  1  0  0  0  0
M  CHG  2  85   1  86   1
M  ISO  4  34 100  61 101  84 100  95 101
M  END
> <Batch ID>
0008

> <Smiles>
CNC(C)C(=O)NC(C(=O)N1Cc2cc([101O:1][101CH2:1]C(=O)NCCCCCCCN(C)C(C(=O)N3CCC([100NH:0][100C:0](=O)N4CCCC(n5nc(-c6ccc(Oc7ccc(F)cc7F)cc6)c(C(N)=O)c5N)C4)CC3)C(C)(C)C)ccc2CC1C(=O)NC1CCCc2ccccc21)C(C)(C)C

> <Shape>
0.278

> <Color>
0.058

> <Negative vol penalty>
0.000

$$$$

  -OEChem-04052315363D

 87 95  0     1  0  0  0  0  0999 V2000
  -30.8731  -24.3741   17.9881 C   0  0  0  0  0  0  0  0  0  0  0  0
  -29.5813  -24.3764   18.5045 C   0  0  0  0  0  0  0  0  0  0  0  0
  -31.2683  -17.6421   22.1136 C   0  0  0  0  0  0  0  0  0  0  0  0
  -29.1144  -17.5380   21.0241 C   0  0  0  0  0  0  0  0  0  0  0  0
  -31.8606  -25.1608   18.5796 C   0  0  0  0  0  0  0  0  0  0  0  0
  -29.2765  -25.1647   19.6136 C   0  0  0  0  0  0  0  0  0  0  0  0
  -24.9171  -27.6832   19.0680 C   0  0  0  0  0  0  0  0  0  0  0  0
  -31.6785  -16.5092   21.4108 C   0  0  0  0  0  0  0  0  0  0  0  0
  -29.5247  -16.4051   20.3212 C   0  0  0  0  0  0  0  0  0  0  0  0
  -23.7382  -26.9652   19.2634 C   0  0  0  0  0  0  0  0  0  0  0  0
  -29.8780  -13.2752   18.5078 C   0  0  0  0  0  0  0  0  0  0  0  0
  -28.9885  -12.2036   18.4290 C   0  0  0  0  0  0  0  0  0  0  0  0
  -23.5586  -27.8775   21.4893 C   0  0  0  0  0  0  0  0  0  0  0  0
  -21.8925  -21.5312   26.6769 C   0  0  0  0  0  0  0  0  0  0  0  0
  -20.0966  -22.2114   25.2110 C   0  0  0  0  0  0  0  0  0  0  0  0
  -22.3847  -22.3016   24.4405 C   0  0  0  0  0  0  0  0  0  0  0  0
  -28.9918  -12.0238   20.8383 C   0  0  0  0  0  0  0  0  0  0  0  0
  -29.9861  -18.1564   21.9203 C   0  0  0  0  0  0  0  0  0  0  0  0
  -29.6977  -20.6697   22.2485 C   0  0  0  0  0  0  0  0  0  0  0  0
  -31.5654  -25.9665   19.6906 C   0  0  0  0  0  0  0  0  0  0  0  0
  -25.4324  -28.4967   20.0874 C   0  0  0  0  0  0  0  0  0  0  0  0
  -30.2613  -25.9619   20.2214 C   0  0  0  0  0  0  0  0  0  0  0  0
  -24.7429  -28.6068   21.3034 C   0  0  0  0  0  0  0  0  0  0  0  0
  -20.5312  -21.7279   26.4451 C   0  0  0  0  0  0  0  0  0  0  0  0
  -22.8193  -21.8181   25.6746 C   0  0  0  0  0  0  0  0  0  0  0  0
  -21.0233  -22.4983   24.2087 C   0  0  0  0  0  0  0  0  0  0  0  0
  -30.8068  -15.8908   20.5146 C   0  0  0  0  0  0  0  0  0  0  0  0
  -23.0603  -27.0599   20.4752 C   0  0  0  0  0  0  0  0  0  0  0  0
  -30.3244  -13.7210   19.7518 C   0  0  0  0  0  0  0  0  0  0  0  0
  -28.5454  -11.5780   19.5942 C   0  0  0  0  0  0  0  0  0  0  0  0
  -29.8813  -13.0953   20.9171 C   0  0  0  0  0  0  0  0  0  0  0  0
  -29.5615  -19.3263   22.6464 C   0  0  0  0  0  0  0  0  0  0  0  0
  -29.1417  -21.3905   23.2770 C   0  0  0  0  0  0  0  0  0  0  0  0
  -30.2750  -21.2172   21.0557 C   0  0  0  0  0  0  0  0  0  0  0  0
  -28.1175  -28.5314   21.7882 C   0  0  0  0  0  0  0  0  0  0  0  0
  -26.9018  -31.3157   22.9250 C   0  0  0  0  0  0  0  0  0  0  0  0
  -21.3833  -23.8612   22.1522 C   0  0  0  0  0  0  0  0  0  0  0  0
  -24.1527  -33.2496   23.5156 C   0  0  0  0  0  0  0  0  0  0  0  0
  -24.8000  -21.1454   27.0783 C   0  0  0  0  0  0  0  0  0  0  0  0
  -32.6773  -26.7638   20.3251 C   0  0  0  0  0  0  0  0  0  0  0  0
  -26.6910  -29.2857   19.8512 C   0  0  0  0  0  0  0  0  0  0  0  0
  -25.2433  -29.4821   22.4223 C   0  0  0  0  0  0  0  0  0  0  0  0
  -32.1815  -27.8575   21.2675 C   0  0  0  0  0  0  0  0  0  0  0  0
  -28.1625  -20.4785   28.0407 C   0  0  0  0  0  0  0  0  0  0  0  0
  -31.1048  -27.3112   22.1997 C   0  0  0  0  0  0  0  0  0  0  0  0
  -28.8809  -20.2445   26.7098 C   0  0  0  0  0  0  0  0  0  0  0  0
  -26.7418  -19.9170   28.0247 C   0  0  0  0  0  0  0  0  0  0  0  0
  -26.6260  -20.1367   25.5736 C   0  0  0  0  0  0  0  0  0  0  0  0
  -29.8857  -26.8227   21.4081 C   0  0  1  0  0  0  0  0  0  0  0  0
  -27.3988  -29.6824   21.1431 C   0  0  1  0  0  0  0  0  0  0  0  0
  -28.0380  -20.7424   25.5193 C   0  0  2  0  0  0  0  0  0  0  0  0
  -23.4712  -35.4592   24.4906 C   0  0  0  0  0  0  0  0  0  0  0  0
  -27.2902  -30.1927   25.7353 C   0  0  0  0  0  0  0  0  0  0  0  0
  -25.7573  -31.9800   26.5860 C   0  0  0  0  0  0  0  0  0  0  0  0
  -27.9051  -32.6034   25.4810 C   0  0  0  0  0  0  0  0  0  0  0  0
  -19.2827  -22.4887   22.4380 C   0  0  0  0  0  0  0  0  0  0  0  0
  -23.0301  -34.1723   20.9374 C   0  0  0  0  0  0  0  0  0  0  0  0
  -20.8581  -24.1923   20.7549 C   0  0  0  0  0  0  0  0  0  0  0  0
  -21.7775  -25.1218   19.9712 C   0  0  0  0  0  0  0  0  0  1  0  0
  -26.0061  -31.6994   24.0779 C   0  0  1  0  0  0  0  0  0  0  0  0
  -23.8695  -34.7128   23.2269 C   0  0  2  0  0  0  0  0  0  0  0  0
  -19.5407  -21.4222   27.5176 C   0  0  0  0  0  0  0  0  0  0  0  0
  -26.7310  -31.6008   25.4499 C   0  0  0  0  0  0  0  0  0  0  0  0
  -28.9659  -19.1984   23.8351 N   0  0  0  0  0  0  0  0  0  0  0  0
  -28.7229  -20.4708   24.1929 N   0  0  0  0  0  0  0  0  0  0  0  0
  -26.4816  -30.2288   22.1453 N   0  0  0  0  0  0  0  0  0  0  0  0
  -26.0018  -20.4355   26.8721 N   0  0  0  0  0  0  0  0  0  0  0  0
  -28.9751  -22.7149   23.4782 N   0  0  0  0  0  0  0  0  0  0  0  0
  -30.8009  -20.3349   20.1021 N   0  0  0  0  0  0  0  0  0  0  0  0
  -24.2021  -21.6182   25.9107 N   0  0  0  0  0  0  0  0  0  0  0  0
  -29.0757  -27.9445   20.9840 N   0  0  0  0  0  0  0  0  0  0  0  0
  -25.4899  -33.0285   23.7690 N   0  0  0  0  0  0  0  0  0  0  0  0
  -20.5720  -23.0021   22.9270 N   0  0  0  0  0  0  0  0  0  0  0  0
  -22.7629  -34.8407   22.2370 N   0  3  0  0  0  0  0  0  0  0  0  0
  -30.3380  -22.4529   20.8494 O   0  0  0  0  0  0  0  0  0  0  0  0
  -27.8253  -28.2011   22.9316 O   0  0  0  0  0  0  0  0  0  0  0  0
  -27.9327  -31.9611   22.7192 O   0  0  0  0  0  0  0  0  0  0  0  0
  -22.4701  -24.3189   22.5140 O   0  0  0  0  0  0  0  0  0  0  0  0
  -23.2748  -32.3895   23.5199 O   0  0  0  0  0  0  0  0  0  0  0  0
  -24.3497  -21.3443   28.2095 O   0  0  0  0  0  0  0  0  0  0  0  0
  -31.2069  -14.7855   19.8284 O   0  0  0  0  0  0  0  0  0  0  0  0
  -21.9097  -26.3596   20.6689 O   0  0  0  0  0  0  0  0  0  1  0  0
  -27.6900  -10.5500   19.5185 F   0  0  0  0  0  0  0  0  0  0  0  0
  -30.3058  -13.5200   22.1151 F   0  0  0  0  0  0  0  0  0  0  0  0
  -20.1079  -20.9583   28.6703 F   0  0  0  0  0  0  0  0  0  0  0  0
  -18.7952  -22.5019   27.8970 F   0  0  0  0  0  0  0  0  0  0  0  0
  -18.6394  -20.4681   27.1433 F   0  0  0  0  0  0  0  0  0  0  0  0
  1  2  1  0  0  0  0
  1  5  2  0  0  0  0
  2  6  2  0  0  0  0
  3  8  2  0  0  0  0
  3 18  1  0  0  0  0
  4  9  1  0  0  0  0
  4 18  2  0  0  0  0
  5 20  1  0  0  0  0
  6 22  1  0  0  0  0
  7 10  2  0  0  0  0
  7 21  1  0  0  0  0
  8 27  1  0  0  0  0
  9 27  2  0  0  0  0
 10 28  1  0  0  0  0
 11 12  2  0  0  0  0
 11 29  1  0  0  0  0
 12 30  1  0  0  0  0
 13 23  1  0  0  0  0
 13 28  2  0  0  0  0
 14 24  2  0  0  0  0
 14 25  1  0  0  0  0
 15 24  1  0  0  0  0
 15 26  2  0  0  0  0
 16 25  2  0  0  0  0
 16 26  1  0  0  0  0
 17 30  2  0  0  0  0
 17 31  1  0  0  0  0
 18 32  1  0  0  0  0
 19 32  1  0  0  0  0
 19 33  2  0  0  0  0
 19 34  1  0  0  0  0
 20 22  2  0  0  0  0
 20 40  1  0  0  0  0
 21 23  2  0  0  0  0
 21 41  1  0  0  0  0
 22 49  1  0  0  0  0
 23 42  1  0  0  0  0
 24 62  1  0  0  0  0
 25 70  1  0  0  0  0
 26 73  1  0  0  0  0
 27 81  1  0  0  0  0
 28 82  1  0  0  0  0
 29 31  2  0  0  0  0
 29 81  1  0  0  0  0
 30 83  1  0  0  0  0
 31 84  1  0  0  0  0
 32 64  2  0  0  0  0
 33 65  1  0  0  0  0
 33 68  1  0  0  0  0
 34 69  1  0  0  0  0
 34 75  2  0  0  0  0
 35 50  1  0  0  0  0
 35 71  1  0  0  0  0
 35 76  2  0  0  0  0
 36 60  1  0  0  0  0
 36 66  1  0  0  0  0
 36 77  2  0  0  0  0
 37 58  1  0  0  0  0
 37 73  1  0  0  0  0
 37 78  2  0  0  0  0
 38 61  1  0  0  0  0
 38 72  1  0  0  0  0
 38 79  2  0  0  0  0
 39 67  1  0  0  0  0
 39 70  1  0  0  0  0
 39 80  2  0  0  0  0
 40 43  1  0  0  0  0
 41 50  1  0  0  0  0
 42 66  1  0  0  0  0
 43 45  1  0  0  0  0
 44 46  1  0  0  0  0
 44 47  1  0  0  0  0
 45 49  1  0  0  0  0
 46 51  1  0  0  0  0
 47 67  1  0  0  0  0
 48 51  1  0  0  0  0
 48 67  1  0  0  0  0
 49 71  1  0  0  0  0
 50 66  1  0  0  0  0
 51 65  1  0  0  0  0
 52 61  1  0  0  0  0
 53 63  1  0  0  0  0
 54 63  1  0  0  0  0
 55 63  1  0  0  0  0
 56 73  1  0  0  0  0
 57 74  1  0  0  0  0
 58 59  1  0  0  0  0
 59 82  1  0  0  0  0
 60 63  1  0  0  0  0
 60 72  1  0  0  0  0
 61 74  1  0  0  0  0
 62 85  1  0  0  0  0
 62 86  1  0  0  0  0
 62 87  1  0  0  0  0
 64 65  1  0  0  0  0
M  CHG  1  74   1
M  ISO  4  39 100  59 101  70 100  82 101
M  END
> <Batch ID>
0008

> <Smiles>
CNC(C)C(=O)NC(C(=O)N1Cc2cc([101O:1][101CH2:1]CC(=O)N(C)c3cc([100NH:0][100C:0](=O)N4CCCC(n5nc(-c6ccc(Oc7ccc(F)cc7F)cc6)c(C(N)=O)c5N)C4)cc(C(F)(F)F)c3)ccc2CC1C(=O)NC1CCCc2ccccc21)C(C)(C)C

> <Shape>
0.245

> <Color>
0.072

> <Negative vol penalty>
0.000

$$$$

  -OEChem-04052315363D

 84 92  0     1  0  0  0  0  0999 V2000
  -21.6235  -12.5428   21.7268 C   0  0  0  0  0  0  0  0  0  0  0  0
  -21.9307  -13.7781   22.2882 C   0  0  0  0  0  0  0  0  0  0  0  0
  -21.9627  -28.6504   22.0286 C   0  0  0  0  0  0  0  0  0  0  0  0
  -22.7327  -30.2802   23.6373 C   0  0  0  0  0  0  0  0  0  0  0  0
  -22.5937  -11.8434   21.0102 C   0  0  0  0  0  0  0  0  0  0  0  0
  -23.2088  -14.3141   22.1343 C   0  0  0  0  0  0  0  0  0  0  0  0
  -23.1204  -19.2276   20.9114 C   0  0  0  0  0  0  0  0  0  0  0  0
  -20.9226  -28.2945   22.8870 C   0  0  0  0  0  0  0  0  0  0  0  0
  -21.6925  -29.9243   24.4957 C   0  0  0  0  0  0  0  0  0  0  0  0
  -22.8713  -20.1353   21.9399 C   0  0  0  0  0  0  0  0  0  0  0  0
  -17.8513  -27.2092   24.5009 C   0  0  0  0  0  0  0  0  0  0  0  0
  -16.5788  -27.0581   23.9500 C   0  0  0  0  0  0  0  0  0  0  0  0
  -25.2339  -20.5966   22.0967 C   0  0  0  0  0  0  0  0  0  0  0  0
  -16.6211  -29.3609   23.2204 C   0  0  0  0  0  0  0  0  0  0  0  0
  -22.8679  -29.6432   22.4037 C   0  0  0  0  0  0  0  0  0  0  0  0
  -23.9210  -31.0052   20.5212 C   0  0  0  0  0  0  0  0  0  0  0  0
  -23.8814  -12.3756   20.8393 C   0  0  0  0  0  0  0  0  0  0  0  0
  -24.4313  -18.9890   20.4745 C   0  0  0  0  0  0  0  0  0  0  0  0
  -24.1975  -13.6205   21.4159 C   0  0  0  0  0  0  0  0  0  0  0  0
  -25.4967  -19.6872   21.0608 C   0  0  0  0  0  0  0  0  0  0  0  0
  -20.7874  -28.9314   24.1205 C   0  0  0  0  0  0  0  0  0  0  0  0
  -23.9284  -20.8178   22.5347 C   0  0  0  0  0  0  0  0  0  0  0  0
  -18.5087  -28.4363   24.4116 C   0  0  0  0  0  0  0  0  0  0  0  0
  -15.9637  -28.1339   23.3097 C   0  0  0  0  0  0  0  0  0  0  0  0
  -17.8936  -29.5121   23.7713 C   0  0  0  0  0  0  0  0  0  0  0  0
  -23.9430  -30.0109   21.5177 C   0  0  0  0  0  0  0  0  0  0  0  0
  -25.1763  -30.9620   19.9654 C   0  0  0  0  0  0  0  0  0  0  0  0
  -22.8608  -31.8888   20.1329 C   0  0  0  0  0  0  0  0  0  0  0  0
  -24.2901  -24.0354   25.5486 C   0  0  0  0  0  0  0  0  0  0  0  0
  -26.3436  -16.4511   20.3986 C   0  0  0  0  0  0  0  0  0  0  0  0
  -28.2985  -18.4592   18.7651 C   0  0  0  0  0  0  0  0  0  0  0  0
  -29.2302  -21.6683   18.0717 C   0  0  0  0  0  0  0  0  0  0  0  0
  -27.2680  -27.6105   23.5494 C   0  0  0  0  0  0  0  0  0  0  0  0
  -24.9109  -11.5610   20.0968 C   0  0  0  0  0  0  0  0  0  0  0  0
  -24.6806  -18.0266   19.3458 C   0  0  0  0  0  0  0  0  0  0  0  0
  -26.9205  -19.4821   20.6144 C   0  0  0  0  0  0  0  0  0  0  0  0
  -26.1297  -12.3704   19.6613 C   0  0  0  0  0  0  0  0  0  0  0  0
  -27.1689  -27.0055   19.8712 C   0  0  0  0  0  0  0  0  0  0  0  0
  -26.6333  -13.2374   20.8109 C   0  0  0  0  0  0  0  0  0  0  0  0
  -27.5155  -28.4105   19.3643 C   0  0  0  0  0  0  0  0  0  0  0  0
  -25.6817  -26.0087   26.1412 C   0  0  0  0  0  0  0  0  0  0  0  0
  -24.1845  -26.0560   24.0845 C   0  0  0  0  0  0  0  0  0  0  0  0
  -27.7703  -26.7177   21.2410 C   0  0  0  0  0  0  0  0  0  0  0  0
  -26.8747  -25.8167   25.2087 C   0  0  0  0  0  0  0  0  0  0  0  0
  -25.4332  -25.9009   23.2107 C   0  0  0  0  0  0  0  0  0  0  0  0
  -27.9822  -29.1236   21.7275 C   0  0  0  0  0  0  0  0  0  0  0  0
  -25.5653  -14.2465   21.2498 C   0  0  1  0  0  0  0  0  0  0  0  0
  -24.3690  -25.5341   25.5117 C   0  0  0  0  0  0  0  0  0  0  0  0
  -26.1049  -17.4802   19.3301 C   0  0  1  0  0  0  0  0  0  0  0  0
  -27.2884  -29.5271   20.4092 C   0  0  2  0  0  0  0  0  0  0  0  0
  -20.2334  -25.4863   27.4017 C   0  0  0  0  0  0  0  0  0  0  0  0
  -30.8844  -22.9925   16.7274 C   0  0  0  0  0  0  0  0  0  0  0  0
  -30.4846  -17.7673   20.7781 C   0  0  0  0  0  0  0  0  0  0  0  0
  -31.7535  -19.7745   19.9848 C   0  0  0  0  0  0  0  0  0  0  0  0
  -31.2591  -17.9089   18.4044 C   0  0  0  0  0  0  0  0  0  0  0  0
  -27.0849  -23.0009   16.5287 C   0  0  0  0  0  0  0  0  0  0  0  0
  -21.4978  -24.6498   27.2669 C   0  0  0  0  0  0  0  0  0  0  0  0
  -21.8195  -24.2976   25.8195 C   0  0  0  0  0  0  0  0  0  0  0  0
  -22.7995  -22.0361   25.7525 C   0  0  0  0  0  0  0  0  0  0  0  0
  -22.5581  -21.4523   24.3719 C   0  0  0  0  0  0  0  0  0  1  0  0
  -29.3851  -19.4364   19.1437 C   0  0  1  0  0  0  0  0  0  0  0  0
  -29.4932  -22.3789   16.7563 C   0  0  2  0  0  0  0  0  0  0  0  0
  -30.6940  -18.7244   19.5877 C   0  0  0  0  0  0  0  0  0  0  0  0
  -25.1189  -29.3820   21.5927 N   0  0  0  0  0  0  0  0  0  0  0  0
  -25.8475  -29.9825   20.6363 N   0  0  0  0  0  0  0  0  0  0  0  0
  -27.1136  -18.5261   19.5116 N   0  0  0  0  0  0  0  0  0  0  0  0
  -27.5235  -27.8128   22.1849 N   0  0  0  0  0  0  0  0  0  0  0  0
  -26.6196  -26.4172   23.9016 N   0  0  0  0  0  0  0  0  0  0  0  0
  -25.7603  -31.6667   18.9731 N   0  0  0  0  0  0  0  0  0  0  0  0
  -21.6358  -31.7999   20.8081 N   0  0  0  0  0  0  0  0  0  0  0  0
  -25.5056  -15.3551   20.3214 N   0  0  0  0  0  0  0  0  0  0  0  0
  -29.5482  -20.3285   18.0009 N   0  0  0  0  0  0  0  0  0  0  0  0
  -23.0195  -23.4792   25.7009 N   0  0  0  0  0  0  0  0  0  0  0  0
  -28.4957  -23.4660   16.5464 N   0  3  0  0  0  0  0  0  0  0  0  0
  -22.9904  -32.7209   19.2033 O   0  0  0  0  0  0  0  0  0  0  0  0
  -25.3275  -23.3754   25.4451 O   0  0  0  0  0  0  0  0  0  0  0  0
  -27.2240  -16.6370   21.2306 O   0  0  0  0  0  0  0  0  0  0  0  0
  -28.4912  -17.6706   17.8363 O   0  0  0  0  0  0  0  0  0  0  0  0
  -28.7903  -22.2449   19.0640 O   0  0  0  0  0  0  0  0  0  0  0  0
  -27.5914  -28.4477   24.4010 O   0  0  0  0  0  0  0  0  0  0  0  0
  -19.7723  -28.5845   24.9583 O   0  0  0  0  0  0  0  0  0  0  0  0
  -23.6865  -21.7101   23.5463 O   0  0  0  0  0  0  0  0  0  1  0  0
  -14.7424  -27.9881   22.7794 F   0  0  0  0  0  0  0  0  0  0  0  0
  -18.5207  -30.6929   23.6813 F   0  0  0  0  0  0  0  0  0  0  0  0
  1  2  1  0  0  0  0
  1  5  2  0  0  0  0
  2  6  2  0  0  0  0
  3  8  2  0  0  0  0
  3 15  1  0  0  0  0
  4  9  1  0  0  0  0
  4 15  2  0  0  0  0
  5 17  1  0  0  0  0
  6 19  1  0  0  0  0
  7 10  2  0  0  0  0
  7 18  1  0  0  0  0
  8 21  1  0  0  0  0
  9 21  2  0  0  0  0
 10 22  1  0  0  0  0
 11 12  2  0  0  0  0
 11 23  1  0  0  0  0
 12 24  1  0  0  0  0
 13 20  1  0  0  0  0
 13 22  2  0  0  0  0
 14 24  2  0  0  0  0
 14 25  1  0  0  0  0
 15 26  1  0  0  0  0
 16 26  1  0  0  0  0
 16 27  2  0  0  0  0
 16 28  1  0  0  0  0
 17 19  2  0  0  0  0
 17 34  1  0  0  0  0
 18 20  2  0  0  0  0
 18 35  1  0  0  0  0
 19 47  1  0  0  0  0
 20 36  1  0  0  0  0
 21 81  1  0  0  0  0
 22 82  1  0  0  0  0
 23 25  2  0  0  0  0
 23 81  1  0  0  0  0
 24 83  1  0  0  0  0
 25 84  1  0  0  0  0
 26 64  2  0  0  0  0
 27 65  1  0  0  0  0
 27 69  1  0  0  0  0
 28 70  1  0  0  0  0
 28 75  2  0  0  0  0
 29 48  1  0  0  0  0
 29 73  1  0  0  0  0
 29 76  2  0  0  0  0
 30 49  1  0  0  0  0
 30 71  1  0  0  0  0
 30 77  2  0  0  0  0
 31 61  1  0  0  0  0
 31 66  1  0  0  0  0
 31 78  2  0  0  0  0
 32 62  1  0  0  0  0
 32 72  1  0  0  0  0
 32 79  2  0  0  0  0
 33 67  1  0  0  0  0
 33 68  1  0  0  0  0
 33 80  2  0  0  0  0
 34 37  1  0  0  0  0
 35 49  1  0  0  0  0
 36 66  1  0  0  0  0
 37 39  1  0  0  0  0
 38 40  1  0  0  0  0
 38 43  1  0  0  0  0
 39 47  1  0  0  0  0
 40 50  1  0  0  0  0
 41 44  1  0  0  0  0
 41 48  1  0  0  0  0
 42 45  1  0  0  0  0
 42 48  1  0  0  0  0
 43 67  1  0  0  0  0
 44 68  1  0  0  0  0
 45 68  1  0  0  0  0
 46 50  1  0  0  0  0
 46 67  1  0  0  0  0
 47 71  1  0  0  0  0
 49 66  1  0  0  0  0
 50 65  1  0  0  0  0
 51 57  1  0  0  0  0
 52 62  1  0  0  0  0
 53 63  1  0  0  0  0
 54 63  1  0  0  0  0
 55 63  1  0  0  0  0
 56 74  1  0  0  0  0
 57 58  1  0  0  0  0
 58 73  1  0  0  0  0
 59 60  1  0  0  0  0
 59 73  1  0  0  0  0
 60 82  1  0  0  0  0
 61 63  1  0  0  0  0
 61 72  1  0  0  0  0
 62 74  1  0  0  0  0
 64 65  1  0  0  0  0
M  CHG  1  74   1
M  ISO  4  33 100  60 101  68 100  82 101
M  END
> <Batch ID>
0008

> <Smiles>
CCCN(C[101CH2:1][101O:1]c1ccc2c(c1)CN(C(=O)C(NC(=O)C(C)NC)C(C)(C)C)C(C(=O)NC1CCCc3ccccc31)C2)C(=O)C1CC[100N:0]([100C:0](=O)N2CCCC(n3nc(-c4ccc(Oc5ccc(F)cc5F)cc4)c(C(N)=O)c3N)C2)CC1

> <Shape>
0.224

> <Color>
0.071

> <Negative vol penalty>
0.000

$$$$

  -OEChem-04052315363D

 96103  0     1  0  0  0  0  0999 V2000
  -26.4454  -37.3917   22.3034 C   0  0  0  0  0  0  0  0  0  0  0  0
  -27.1136  -36.2343   21.9168 C   0  0  0  0  0  0  0  0  0  0  0  0
  -24.1533   -9.8454   22.4096 C   0  0  0  0  0  0  0  0  0  0  0  0
  -23.2266   -9.8947   20.1789 C   0  0  0  0  0  0  0  0  0  0  0  0
  -25.3367  -37.3073   23.1446 C   0  0  0  0  0  0  0  0  0  0  0  0
  -26.6740  -34.9918   22.3721 C   0  0  0  0  0  0  0  0  0  0  0  0
  -26.8202  -29.6880   19.3137 C   0  0  0  0  0  0  0  0  0  0  0  0
  -22.8699   -9.7134   22.9399 C   0  0  0  0  0  0  0  0  0  0  0  0
  -21.9432   -9.7626   20.7092 C   0  0  0  0  0  0  0  0  0  0  0  0
  -27.7078  -28.6132   19.3417 C   0  0  0  0  0  0  0  0  0  0  0  0
  -19.8670   -9.0008   24.8607 C   0  0  0  0  0  0  0  0  0  0  0  0
  -19.6751   -8.0536   25.8664 C   0  0  0  0  0  0  0  0  0  0  0  0
  -26.2623  -27.4677   20.8965 C   0  0  0  0  0  0  0  0  0  0  0  0
  -20.3928   -6.3074   24.3588 C   0  0  0  0  0  0  0  0  0  0  0  0
  -24.3316   -9.9361   21.0291 C   0  0  0  0  0  0  0  0  0  0  0  0
  -26.5288   -9.0369   20.0956 C   0  0  0  0  0  0  0  0  0  0  0  0
  -24.8775  -36.0623   23.6026 C   0  0  0  0  0  0  0  0  0  0  0  0
  -25.6503  -29.6653   20.0866 C   0  0  0  0  0  0  0  0  0  0  0  0
  -25.5589  -34.8907   23.2213 C   0  0  0  0  0  0  0  0  0  0  0  0
  -25.3602  -28.5423   20.8746 C   0  0  0  0  0  0  0  0  0  0  0  0
  -21.7649   -9.6720   22.0897 C   0  0  0  0  0  0  0  0  0  0  0  0
  -27.4304  -27.5041   20.1354 C   0  0  0  0  0  0  0  0  0  0  0  0
  -20.3217   -8.6013   23.6039 C   0  0  0  0  0  0  0  0  0  0  0  0
  -19.9380   -6.7069   25.6155 C   0  0  0  0  0  0  0  0  0  0  0  0
  -20.5846   -7.2546   23.3530 C   0  0  0  0  0  0  0  0  0  0  0  0
  -25.6571  -10.0730   20.4808 C   0  0  0  0  0  0  0  0  0  0  0  0
  -27.6522   -9.6842   19.6423 C   0  0  0  0  0  0  0  0  0  0  0  0
  -26.3400   -7.6164   20.1431 C   0  0  0  0  0  0  0  0  0  0  0  0
  -24.4970  -31.4339   22.4627 C   0  0  0  0  0  0  0  0  0  0  0  0
  -21.8709  -29.5744   22.0526 C   0  0  0  0  0  0  0  0  0  0  0  0
  -30.3072  -25.3009   19.4741 C   0  0  0  0  0  0  0  0  0  0  0  0
  -30.3135  -20.5268   17.3647 C   0  0  0  0  0  0  0  0  0  0  0  0
  -31.8763  -23.3345   17.5550 C   0  0  0  0  0  0  0  0  0  0  0  0
  -28.0416  -18.5159   15.3119 C   0  0  0  0  0  0  0  0  0  0  0  0
  -20.5521  -26.6255   20.9517 C   0  0  0  0  0  0  0  0  0  0  0  0
  -28.5741  -15.1492   17.3762 C   0  0  0  0  0  0  0  0  0  0  0  0
  -23.7033  -36.0249   24.5484 C   0  0  0  0  0  0  0  0  0  0  0  0
  -24.6899  -30.8211   20.0247 C   0  0  0  0  0  0  0  0  0  0  0  0
  -24.1078  -28.4599   21.7072 C   0  0  0  0  0  0  0  0  0  0  0  0
  -23.0749  -34.6404   24.6847 C   0  0  0  0  0  0  0  0  0  0  0  0
  -30.1419  -13.7261   20.2386 C   0  0  0  0  0  0  0  0  0  0  0  0
  -24.1546  -33.5811   24.8822 C   0  0  0  0  0  0  0  0  0  0  0  0
  -29.2490  -12.5350   20.5905 C   0  0  0  0  0  0  0  0  0  0  0  0
  -29.3264  -14.9103   19.7243 C   0  0  0  0  0  0  0  0  0  0  0  0
  -27.5320  -13.4084   18.9510 C   0  0  0  0  0  0  0  0  0  0  0  0
  -25.0974  -33.5225   23.6742 C   0  0  1  0  0  0  0  0  0  0  0  0
  -23.7832  -30.9107   21.2484 C   0  0  1  0  0  0  0  0  0  0  0  0
  -28.3143  -12.1702   19.4215 C   0  0  2  0  0  0  0  0  0  0  0  0
  -32.6821  -19.7418   17.1179 C   0  0  0  0  0  0  0  0  0  0  0  0
  -27.2387  -20.7326   16.1660 C   0  0  0  0  0  0  0  0  0  0  0  0
  -18.3805  -25.3790   20.7854 C   0  0  0  0  0  0  0  0  0  0  0  0
  -25.3061  -16.0395   15.1610 C   0  0  0  0  0  0  0  0  0  0  0  0
  -22.0130  -28.9340   25.0325 C   0  0  0  0  0  0  0  0  0  0  0  0
  -20.4694  -27.0063   24.6208 C   0  0  0  0  0  0  0  0  0  0  0  0
  -19.7036  -29.3354   24.1607 C   0  0  0  0  0  0  0  0  0  0  0  0
  -34.8373  -23.6182   18.3362 C   0  0  0  0  0  0  0  0  0  0  0  0
  -33.9407  -25.4748   16.9394 C   0  0  0  0  0  0  0  0  0  0  0  0
  -34.3323  -25.8325   19.3841 C   0  0  0  0  0  0  0  0  0  0  0  0
  -20.7018  -26.5262   17.9976 C   0  0  0  0  0  0  0  0  0  0  0  0
  -29.4680  -26.5555   19.3581 C   0  0  0  0  0  0  0  0  0  1  0  0
  -27.7240  -15.2586   15.0472 C   0  0  0  0  0  0  0  0  0  0  0  0
  -21.3934  -28.2589   22.6187 C   0  0  1  0  0  0  0  0  0  0  0  0
  -31.7362  -20.9264   16.9966 C   0  0  2  0  0  0  0  0  0  0  0  0
  -32.4144  -24.3026   18.6089 C   0  0  1  0  0  0  0  0  0  0  0  0
  -28.2362  -19.6016   16.3621 C   0  0  2  0  0  0  0  0  0  0  0  0
  -19.3435  -26.3243   20.0840 C   0  0  2  0  0  0  0  0  0  0  0  0
  -26.7548  -16.4321   14.8897 C   0  0  2  0  0  0  0  0  0  0  0  0
  -20.9195  -28.3857   24.0941 C   0  0  0  0  0  0  0  0  0  0  0  0
  -33.8590  -24.8134   18.3297 C   0  0  0  0  0  0  0  0  0  0  0  0
  -26.1816  -11.2863   20.2892 N   0  0  0  0  0  0  0  0  0  0  0  0
  -27.3952  -11.0167   19.7786 N   0  0  0  0  0  0  0  0  0  0  0  0
  -23.2031  -29.6180   21.6179 N   0  0  0  0  0  0  0  0  0  0  0  0
  -28.4624  -14.4977   18.6156 N   0  0  0  0  0  0  0  0  0  0  0  0
  -28.8250   -9.2379   19.1445 N   0  0  0  0  0  0  0  0  0  0  0  0
  -25.1261   -7.1200   20.6372 N   0  0  0  0  0  0  0  0  0  0  0  0
  -24.4730  -32.8105   22.5798 N   0  0  0  0  0  0  0  0  0  0  0  0
  -20.3699  -27.7677   21.7024 N   0  0  0  0  0  0  0  0  0  0  0  0
  -31.4433  -25.3696   18.6831 N   0  0  0  0  0  0  0  0  0  0  0  0
  -32.1345  -22.0076   17.8657 N   0  0  0  0  0  0  0  0  0  0  0  0
  -29.5963  -20.0776   16.2647 N   0  0  0  0  0  0  0  0  0  0  0  0
  -27.1401  -17.5452   15.7256 N   0  0  0  0  0  0  0  0  0  0  0  0
  -27.7228  -14.6924   16.3776 N   0  0  0  0  0  0  0  0  0  0  0  0
  -19.7700  -25.6948   18.8023 N   0  3  0  0  0  0  0  0  0  0  0  0
  -27.2280   -6.8110   19.7741 O   0  0  0  0  0  0  0  0  0  0  0  0
  -25.0288  -30.6467   23.2368 O   0  0  0  0  0  0  0  0  0  0  0  0
  -21.0884  -30.5261   21.9915 O   0  0  0  0  0  0  0  0  0  0  0  0
  -29.9915  -24.3542   20.1897 O   0  0  0  0  0  0  0  0  0  0  0  0
  -29.8814  -20.5682   18.5148 O   0  0  0  0  0  0  0  0  0  0  0  0
  -31.2983  -23.7106   16.5363 O   0  0  0  0  0  0  0  0  0  0  0  0
  -28.5980  -18.5354   14.2159 O   0  0  0  0  0  0  0  0  0  0  0  0
  -21.5558  -25.9164   20.9652 O   0  0  0  0  0  0  0  0  0  0  0  0
  -29.3769  -16.0664   17.1731 O   0  0  0  0  0  0  0  0  0  0  0  0
  -20.5125   -9.5430   22.6067 O   0  0  0  0  0  0  0  0  0  0  0  0
  -28.2954  -26.4540   20.1650 O   0  0  0  0  0  0  0  0  0  1  0  0
  -19.7551   -5.7976   26.5819 F   0  0  0  0  0  0  0  0  0  0  0  0
  -21.0228   -6.8650   22.1481 F   0  0  0  0  0  0  0  0  0  0  0  0
  1  2  1  0  0  0  0
  1  5  2  0  0  0  0
  2  6  2  0  0  0  0
  3  8  2  0  0  0  0
  3 15  1  0  0  0  0
  4  9  1  0  0  0  0
  4 15  2  0  0  0  0
  5 17  1  0  0  0  0
  6 19  1  0  0  0  0
  7 10  2  0  0  0  0
  7 18  1  0  0  0  0
  8 21  1  0  0  0  0
  9 21  2  0  0  0  0
 10 22  1  0  0  0  0
 11 12  2  0  0  0  0
 11 23  1  0  0  0  0
 12 24  1  0  0  0  0
 13 20  1  0  0  0  0
 13 22  2  0  0  0  0
 14 24  2  0  0  0  0
 14 25  1  0  0  0  0
 15 26  1  0  0  0  0
 16 26  1  0  0  0  0
 16 27  2  0  0  0  0
 16 28  1  0  0  0  0
 17 19  2  0  0  0  0
 17 37  1  0  0  0  0
 18 20  2  0  0  0  0
 18 38  1  0  0  0  0
 19 46  1  0  0  0  0
 20 39  1  0  0  0  0
 21 93  1  0  0  0  0
 22 94  1  0  0  0  0
 23 25  2  0  0  0  0
 23 93  1  0  0  0  0
 24 95  1  0  0  0  0
 25 96  1  0  0  0  0
 26 70  2  0  0  0  0
 27 71  1  0  0  0  0
 27 74  1  0  0  0  0
 28 75  1  0  0  0  0
 28 84  2  0  0  0  0
 29 47  1  0  0  0  0
 29 76  1  0  0  0  0
 29 85  2  0  0  0  0
 30 62  1  0  0  0  0
 30 72  1  0  0  0  0
 30 86  2  0  0  0  0
 31 60  1  0  0  0  0
 31 78  1  0  0  0  0
 31 87  2  0  0  0  0
 32 63  1  0  0  0  0
 32 80  1  0  0  0  0
 32 88  2  0  0  0  0
 33 64  1  0  0  0  0
 33 79  1  0  0  0  0
 33 89  2  0  0  0  0
 34 65  1  0  0  0  0
 34 81  1  0  0  0  0
 34 90  2  0  0  0  0
 35 66  1  0  0  0  0
 35 77  1  0  0  0  0
 35 91  2  0  0  0  0
 36 73  1  0  0  0  0
 36 82  1  0  0  0  0
 36 92  2  0  0  0  0
 37 40  1  0  0  0  0
 38 47  1  0  0  0  0
 39 72  1  0  0  0  0
 40 42  1  0  0  0  0
 41 43  1  0  0  0  0
 41 44  1  0  0  0  0
 42 46  1  0  0  0  0
 43 48  1  0  0  0  0
 44 73  1  0  0  0  0
 45 48  1  0  0  0  0
 45 73  1  0  0  0  0
 46 76  1  0  0  0  0
 47 72  1  0  0  0  0
 48 71  1  0  0  0  0
 49 63  1  0  0  0  0
 50 65  1  0  0  0  0
 51 66  1  0  0  0  0
 52 67  1  0  0  0  0
 53 68  1  0  0  0  0
 54 68  1  0  0  0  0
 55 68  1  0  0  0  0
 56 69  1  0  0  0  0
 57 69  1  0  0  0  0
 58 69  1  0  0  0  0
 59 83  1  0  0  0  0
 60 94  1  0  0  0  0
 61 67  1  0  0  0  0
 61 82  1  0  0  0  0
 62 68  1  0  0  0  0
 62 77  1  0  0  0  0
 63 79  1  0  0  0  0
 64 69  1  0  0  0  0
 64 78  1  0  0  0  0
 65 80  1  0  0  0  0
 66 83  1  0  0  0  0
 67 81  1  0  0  0  0
 70 71  1  0  0  0  0
M  CHG  1  83   1
M  ISO  4  36 100  60 101  82 100  94 101
M  END
> <Batch ID>
0008

> <Smiles>
CNC(C)C(=O)NC(C(=O)N1Cc2cc([101O:1][101CH2:1]C(=O)NC(C(=O)NC(C)C(=O)NC(C)C(=O)NC(C)C[100NH:0][100C:0](=O)N3CCCC(n4nc(-c5ccc(Oc6ccc(F)cc6F)cc5)c(C(N)=O)c4N)C3)C(C)(C)C)ccc2CC1C(=O)NC1CCCc2ccccc21)C(C)(C)C

> <Shape>
0.274

> <Color>
0.078

> <Negative vol penalty>
0.000

$$$$

  -OEChem-04052315363D

 86 94  0     1  0  0  0  0  0999 V2000
  -19.0385  -29.0648   22.2558 C   0  0  0  0  0  0  0  0  0  0  0  0
  -20.4120  -28.8474   22.2156 C   0  0  0  0  0  0  0  0  0  0  0  0
  -26.6557  -12.1229   20.6549 C   0  0  0  0  0  0  0  0  0  0  0  0
  -25.2235  -14.0621   20.4961 C   0  0  0  0  0  0  0  0  0  0  0  0
  -18.1752  -28.0102   22.5498 C   0  0  0  0  0  0  0  0  0  0  0  0
  -20.9231  -27.5753   22.4706 C   0  0  0  0  0  0  0  0  0  0  0  0
  -24.5118  -26.2246   19.1628 C   0  0  0  0  0  0  0  0  0  0  0  0
  -31.5805  -22.4868   21.8205 C   0  0  0  0  0  0  0  0  0  0  0  0
  -31.6594  -23.8110   21.3894 C   0  0  0  0  0  0  0  0  0  0  0  0
  -25.5344  -11.3068   20.8035 C   0  0  0  0  0  0  0  0  0  0  0  0
  -24.1021  -13.2460   20.6447 C   0  0  0  0  0  0  0  0  0  0  0  0
  -25.7838  -26.7648   19.3474 C   0  0  0  0  0  0  0  0  0  0  0  0
  -22.4698  -11.6894   23.1634 C   0  0  0  0  0  0  0  0  0  0  0  0
  -21.4729  -12.1117   24.0428 C   0  0  0  0  0  0  0  0  0  0  0  0
  -26.4968  -24.7122   20.3951 C   0  0  0  0  0  0  0  0  0  0  0  0
  -31.0895  -21.7811   19.5626 C   0  0  0  0  0  0  0  0  0  0  0  0
  -19.8813  -12.1395   22.2254 C   0  0  0  0  0  0  0  0  0  0  0  0
  -26.5003  -13.5006   20.5012 C   0  0  0  0  0  0  0  0  0  0  0  0
  -28.2892  -14.7119   19.1446 C   0  0  0  0  0  0  0  0  0  0  0  0
  -18.6754  -26.7224   22.7990 C   0  0  0  0  0  0  0  0  0  0  0  0
  -24.2192  -24.9259   19.6035 C   0  0  0  0  0  0  0  0  0  0  0  0
  -20.0658  -26.5028   22.7696 C   0  0  0  0  0  0  0  0  0  0  0  0
  -25.2211  -24.1569   20.2126 C   0  0  0  0  0  0  0  0  0  0  0  0
  -31.1684  -23.1053   19.1315 C   0  0  0  0  0  0  0  0  0  0  0  0
  -31.2956  -21.4718   20.9070 C   0  0  0  0  0  0  0  0  0  0  0  0
  -31.4533  -24.1203   20.0450 C   0  0  0  0  0  0  0  0  0  0  0  0
  -24.2575  -11.8683   20.7984 C   0  0  0  0  0  0  0  0  0  0  0  0
  -26.7757  -26.0097   19.9662 C   0  0  0  0  0  0  0  0  0  0  0  0
  -22.1725  -11.4923   21.8149 C   0  0  0  0  0  0  0  0  0  0  0  0
  -20.1786  -12.3367   23.5739 C   0  0  0  0  0  0  0  0  0  0  0  0
  -20.8782  -11.7173   21.3459 C   0  0  0  0  0  0  0  0  0  0  0  0
  -27.6583  -14.3442   20.3482 C   0  0  0  0  0  0  0  0  0  0  0  0
  -29.3323  -15.5154   19.5353 C   0  0  0  0  0  0  0  0  0  0  0  0
  -27.9615  -14.3587   17.7942 C   0  0  0  0  0  0  0  0  0  0  0  0
  -22.1972  -23.6754   21.7133 C   0  0  0  0  0  0  0  0  0  0  0  0
  -23.2931  -20.8675   20.5143 C   0  0  0  0  0  0  0  0  0  0  0  0
  -30.3766  -26.2985   19.6333 C   0  0  0  0  0  0  0  0  0  0  0  0
  -25.4039  -19.5256   18.6027 C   0  0  0  0  0  0  0  0  0  0  0  0
  -31.3987  -19.6483   22.6421 C   0  0  0  0  0  0  0  0  0  0  0  0
  -17.7062  -25.6244   23.1591 C   0  0  0  0  0  0  0  0  0  0  0  0
  -22.8498  -24.3480   19.3728 C   0  0  0  0  0  0  0  0  0  0  0  0
  -24.9638  -22.7503   20.6855 C   0  0  0  0  0  0  0  0  0  0  0  0
  -18.3039  -24.2241   23.0485 C   0  0  0  0  0  0  0  0  0  0  0  0
  -31.2540  -16.4171   24.1305 C   0  0  0  0  0  0  0  0  0  0  0  0
  -19.6779  -24.1764   23.7093 C   0  0  0  0  0  0  0  0  0  0  0  0
  -30.3575  -15.6200   23.1802 C   0  0  0  0  0  0  0  0  0  0  0  0
  -30.7912  -17.8667   24.2645 C   0  0  0  0  0  0  0  0  0  0  0  0
  -29.7266  -17.7876   22.0442 C   0  0  0  0  0  0  0  0  0  0  0  0
  -20.6569  -25.1317   23.0161 C   0  0  1  0  0  0  0  0  0  0  0  0
  -22.5170  -23.2022   20.3235 C   0  0  1  0  0  0  0  0  0  0  0  0
  -30.1915  -16.3384   21.8267 C   0  0  2  0  0  0  0  0  0  0  0  0
  -26.9036  -18.0918   17.1912 C   0  0  0  0  0  0  0  0  0  0  0  0
  -23.9352  -20.0386   23.3798 C   0  0  0  0  0  0  0  0  0  0  0  0
  -25.3848  -18.2190   22.4547 C   0  0  0  0  0  0  0  0  0  0  0  0
  -22.9379  -18.2302   21.9692 C   0  0  0  0  0  0  0  0  0  0  0  0
  -32.8421  -26.0313   19.1793 C   0  0  0  0  0  0  0  0  0  0  0  0
  -23.4154  -19.3977   16.4144 C   0  0  0  0  0  0  0  0  0  0  0  0
  -29.1149  -25.6222   20.1498 C   0  0  0  0  0  0  0  0  0  1  0  0
  -24.4318  -19.9343   20.8483 C   0  0  1  0  0  0  0  0  0  0  0  0
  -25.4668  -18.4797   17.5042 C   0  0  2  0  0  0  0  0  0  0  0  0
  -30.9454  -23.4077   17.6853 C   0  0  0  0  0  0  0  0  0  0  0  0
  -24.1770  -19.1327   22.1559 C   0  0  0  0  0  0  0  0  0  0  0  0
  -28.2513  -14.8708   21.4230 N   0  0  0  0  0  0  0  0  0  0  0  0
  -29.2657  -15.5775   20.8961 N   0  0  0  0  0  0  0  0  0  0  0  0
  -23.6073  -22.2321   20.4430 N   0  0  0  0  0  0  0  0  0  0  0  0
  -30.6603  -18.4842   22.9430 N   0  0  0  0  0  0  0  0  0  0  0  0
  -30.2910  -16.1678   18.8441 N   0  0  0  0  0  0  0  0  0  0  0  0
  -26.8577  -13.5243   17.5709 N   0  0  0  0  0  0  0  0  0  0  0  0
  -31.2182  -20.1263   21.3446 N   0  0  0  0  0  0  0  0  0  0  0  0
  -21.1337  -24.5553   21.7772 N   0  0  0  0  0  0  0  0  0  0  0  0
  -24.6372  -19.1021   19.6677 N   0  0  0  0  0  0  0  0  0  0  0  0
  -31.5414  -25.5019   19.6172 N   0  0  0  0  0  0  0  0  0  0  0  0
  -24.8381  -18.9998   16.2572 N   0  3  0  0  0  0  0  0  0  0  0  0
  -28.6375  -14.7576   16.8158 O   0  0  0  0  0  0  0  0  0  0  0  0
  -22.8649  -23.2708   22.6578 O   0  0  0  0  0  0  0  0  0  0  0  0
  -22.1679  -20.4022   20.3168 O   0  0  0  0  0  0  0  0  0  0  0  0
  -30.3188  -27.4835   19.2952 O   0  0  0  0  0  0  0  0  0  0  0  0
  -25.9804  -20.6082   18.5255 O   0  0  0  0  0  0  0  0  0  0  0  0
  -32.1576  -20.1662   23.4654 O   0  0  0  0  0  0  0  0  0  0  0  0
  -23.1631  -11.0722   20.9431 O   0  0  0  0  0  0  0  0  0  0  0  0
  -28.0179  -26.5348   20.1482 O   0  0  0  0  0  0  0  0  0  1  0  0
  -19.2210  -12.7408   24.4188 F   0  0  0  0  0  0  0  0  0  0  0  0
  -20.5863  -11.5284   20.0517 F   0  0  0  0  0  0  0  0  0  0  0  0
  -30.6802  -22.3008   16.9320 F   0  0  0  0  0  0  0  0  0  0  0  0
  -29.8974  -24.2529   17.4617 F   0  0  0  0  0  0  0  0  0  0  0  0
  -32.0271  -23.9995   17.1026 F   0  0  0  0  0  0  0  0  0  0  0  0
  1  2  1  0  0  0  0
  1  5  2  0  0  0  0
  2  6  2  0  0  0  0
  3 10  2  0  0  0  0
  3 18  1  0  0  0  0
  4 11  1  0  0  0  0
  4 18  2  0  0  0  0
  5 20  1  0  0  0  0
  6 22  1  0  0  0  0
  7 12  2  0  0  0  0
  7 21  1  0  0  0  0
  8  9  2  0  0  0  0
  8 25  1  0  0  0  0
  9 26  1  0  0  0  0
 10 27  1  0  0  0  0
 11 27  2  0  0  0  0
 12 28  1  0  0  0  0
 13 14  2  0  0  0  0
 13 29  1  0  0  0  0
 14 30  1  0  0  0  0
 15 23  1  0  0  0  0
 15 28  2  0  0  0  0
 16 24  1  0  0  0  0
 16 25  2  0  0  0  0
 17 30  2  0  0  0  0
 17 31  1  0  0  0  0
 18 32  1  0  0  0  0
 19 32  1  0  0  0  0
 19 33  2  0  0  0  0
 19 34  1  0  0  0  0
 20 22  2  0  0  0  0
 20 40  1  0  0  0  0
 21 23  2  0  0  0  0
 21 41  1  0  0  0  0
 22 49  1  0  0  0  0
 23 42  1  0  0  0  0
 24 26  2  0  0  0  0
 24 61  1  0  0  0  0
 25 69  1  0  0  0  0
 26 72  1  0  0  0  0
 27 80  1  0  0  0  0
 28 81  1  0  0  0  0
 29 31  2  0  0  0  0
 29 80  1  0  0  0  0
 30 82  1  0  0  0  0
 31 83  1  0  0  0  0
 32 63  2  0  0  0  0
 33 64  1  0  0  0  0
 33 67  1  0  0  0  0
 34 68  1  0  0  0  0
 34 74  2  0  0  0  0
 35 50  1  0  0  0  0
 35 70  1  0  0  0  0
 35 75  2  0  0  0  0
 36 59  1  0  0  0  0
 36 65  1  0  0  0  0
 36 76  2  0  0  0  0
 37 58  1  0  0  0  0
 37 72  1  0  0  0  0
 37 77  2  0  0  0  0
 38 60  1  0  0  0  0
 38 71  1  0  0  0  0
 38 78  2  0  0  0  0
 39 66  1  0  0  0  0
 39 69  1  0  0  0  0
 39 79  2  0  0  0  0
 40 43  1  0  0  0  0
 41 50  1  0  0  0  0
 42 65  1  0  0  0  0
 43 45  1  0  0  0  0
 44 46  1  0  0  0  0
 44 47  1  0  0  0  0
 45 49  1  0  0  0  0
 46 51  1  0  0  0  0
 47 66  1  0  0  0  0
 48 51  1  0  0  0  0
 48 66  1  0  0  0  0
 49 70  1  0  0  0  0
 50 65  1  0  0  0  0
 51 64  1  0  0  0  0
 52 60  1  0  0  0  0
 53 62  1  0  0  0  0
 54 62  1  0  0  0  0
 55 62  1  0  0  0  0
 56 72  1  0  0  0  0
 57 73  1  0  0  0  0
 58 81  1  0  0  0  0
 59 62  1  0  0  0  0
 59 71  1  0  0  0  0
 60 73  1  0  0  0  0
 61 84  1  0  0  0  0
 61 85  1  0  0  0  0
 61 86  1  0  0  0  0
 63 64  1  0  0  0  0
M  CHG  1  73   1
M  ISO  4  39 100  58 101  69 100  81 101
M  END
> <Batch ID>
0008

> <Smiles>
CNC(C)C(=O)NC(C(=O)N1Cc2cc([101O:1][101CH2:1]C(=O)N(C)c3ccc([100NH:0][100C:0](=O)N4CCCC(n5nc(-c6ccc(Oc7ccc(F)cc7F)cc6)c(C(N)=O)c5N)C4)cc3C(F)(F)F)ccc2CC1C(=O)NC1CCCc2ccccc21)C(C)(C)C

> <Shape>
0.202

> <Color>
0.053

> <Negative vol penalty>
0.000

$$$$

  -OEChem-04052315363D

 87 95  0     1  0  0  0  0  0999 V2000
  -16.6931  -30.8968   22.9820 C   0  0  0  0  0  0  0  0  0  0  0  0
  -17.8546  -31.6163   23.2440 C   0  0  0  0  0  0  0  0  0  0  0  0
  -26.2949  -12.6059   21.5326 C   0  0  0  0  0  0  0  0  0  0  0  0
  -24.7478  -13.9139   20.2162 C   0  0  0  0  0  0  0  0  0  0  0  0
  -16.7475  -29.5094   22.8554 C   0  0  0  0  0  0  0  0  0  0  0  0
  -19.0711  -30.9486   23.3805 C   0  0  0  0  0  0  0  0  0  0  0  0
  -26.0744  -31.7944   22.1336 C   0  0  0  0  0  0  0  0  0  0  0  0
  -27.1876  -23.5405   24.3683 C   0  0  0  0  0  0  0  0  0  0  0  0
  -25.8106  -11.4387   20.9422 C   0  0  0  0  0  0  0  0  0  0  0  0
  -24.2634  -12.7466   19.6258 C   0  0  0  0  0  0  0  0  0  0  0  0
  -27.3032  -31.7043   22.7862 C   0  0  0  0  0  0  0  0  0  0  0  0
  -28.1937  -24.4757   24.6104 C   0  0  0  0  0  0  0  0  0  0  0  0
  -23.1243   -9.4131   21.2671 C   0  0  0  0  0  0  0  0  0  0  0  0
  -22.8595   -8.3273   22.1017 C   0  0  0  0  0  0  0  0  0  0  0  0
  -27.2897  -29.3130   22.4686 C   0  0  0  0  0  0  0  0  0  0  0  0
  -24.4656   -6.9976   20.8812 C   0  0  0  0  0  0  0  0  0  0  0  0
  -25.7635  -13.8435   21.1696 C   0  0  0  0  0  0  0  0  0  0  0  0
  -27.5831  -15.5374   21.7421 C   0  0  0  0  0  0  0  0  0  0  0  0
  -17.9669  -28.8253   22.9809 C   0  0  0  0  0  0  0  0  0  0  0  0
  -25.4378  -30.6413   21.6525 C   0  0  0  0  0  0  0  0  0  0  0  0
  -19.1417  -29.5506   23.2568 C   0  0  0  0  0  0  0  0  0  0  0  0
  -26.0542  -29.3914   21.8081 C   0  0  0  0  0  0  0  0  0  0  0  0
  -27.2264  -22.7572   23.2147 C   0  0  0  0  0  0  0  0  0  0  0  0
  -24.7948  -11.5091   19.9888 C   0  0  0  0  0  0  0  0  0  0  0  0
  -27.9097  -30.4632   22.9563 C   0  0  0  0  0  0  0  0  0  0  0  0
  -24.0597   -9.2912   20.2395 C   0  0  0  0  0  0  0  0  0  0  0  0
  -29.2386  -24.6277   23.6989 C   0  0  0  0  0  0  0  0  0  0  0  0
  -23.5302   -7.1196   21.9087 C   0  0  0  0  0  0  0  0  0  0  0  0
  -24.7304   -8.0834   20.0466 C   0  0  0  0  0  0  0  0  0  0  0  0
  -28.2713  -22.9091   22.3033 C   0  0  0  0  0  0  0  0  0  0  0  0
  -29.2774  -23.8444   22.5454 C   0  0  0  0  0  0  0  0  0  0  0  0
  -26.2631  -15.0496   21.7796 C   0  0  0  0  0  0  0  0  0  0  0  0
  -27.5388  -16.7038   22.4659 C   0  0  0  0  0  0  0  0  0  0  0  0
  -28.7454  -14.9855   21.1096 C   0  0  0  0  0  0  0  0  0  0  0  0
  -22.6811  -29.1810   22.2622 C   0  0  0  0  0  0  0  0  0  0  0  0
  -23.5799  -27.2937   19.7818 C   0  0  0  0  0  0  0  0  0  0  0  0
  -26.1085  -26.0401   17.8630 C   0  0  0  0  0  0  0  0  0  0  0  0
  -25.0971  -21.5334   23.7762 C   0  0  0  0  0  0  0  0  0  0  0  0
  -17.9683  -27.3203   22.8829 C   0  0  0  0  0  0  0  0  0  0  0  0
  -24.1253  -30.7583   20.9272 C   0  0  0  0  0  0  0  0  0  0  0  0
  -25.4218  -28.1257   21.2920 C   0  0  0  0  0  0  0  0  0  0  0  0
  -19.3578  -26.7251   22.6696 C   0  0  0  0  0  0  0  0  0  0  0  0
  -23.8972  -18.6115   25.4192 C   0  0  0  0  0  0  0  0  0  0  0  0
  -20.3617  -27.3555   23.6296 C   0  0  0  0  0  0  0  0  0  0  0  0
  -24.5144  -17.4644   24.6157 C   0  0  0  0  0  0  0  0  0  0  0  0
  -23.4995  -19.7824   24.5224 C   0  0  0  0  0  0  0  0  0  0  0  0
  -25.1838  -19.1377   22.8440 C   0  0  0  0  0  0  0  0  0  0  0  0
  -20.4843  -28.8647   23.3870 C   0  0  1  0  0  0  0  0  0  0  0  0
  -23.3220  -29.4614   20.9324 C   0  0  1  0  0  0  0  0  0  0  0  0
  -25.6599  -17.9617   23.7123 C   0  0  2  0  0  0  0  0  0  0  0  0
  -26.5366  -24.4920   15.9350 C   0  0  0  0  0  0  0  0  0  0  0  0
  -28.0881  -29.5756   27.0409 C   0  0  0  0  0  0  0  0  0  0  0  0
  -29.5811  -31.4319   26.2333 C   0  0  0  0  0  0  0  0  0  0  0  0
  -23.1593  -24.8938   21.6185 C   0  0  0  0  0  0  0  0  0  0  0  0
  -24.4789  -23.5123   20.0004 C   0  0  0  0  0  0  0  0  0  0  0  0
  -22.3396  -24.5723   19.2778 C   0  0  0  0  0  0  0  0  0  0  0  0
  -27.2664  -28.2149   16.2234 C   0  0  0  0  0  0  0  0  0  0  0  0
  -30.7590  -27.8707   24.2925 C   0  0  0  0  0  0  0  0  0  0  0  0
  -30.4019  -29.1325   25.0716 C   0  0  0  0  0  0  0  0  0  0  0  0
  -29.8618  -26.7021   24.6809 C   0  0  0  0  0  0  0  0  0  0  0  0
  -24.3795  -26.0208   19.6419 C   0  0  1  0  0  0  0  0  0  0  0  0
  -26.2703  -25.9283   16.3578 C   0  0  2  0  0  0  0  0  0  0  0  0
  -28.5169  -30.4115   25.8393 C   0  0  0  0  0  0  0  0  0  0  0  0
  -23.6006  -24.7732   20.1462 C   0  0  0  0  0  0  0  0  0  0  0  0
  -25.4403  -15.8413   22.4725 N   0  0  0  0  0  0  0  0  0  0  0  0
  -26.2453  -16.8384   22.8772 N   0  0  0  0  0  0  0  0  0  0  0  0
  -24.1354  -28.2914   20.5953 N   0  0  0  0  0  0  0  0  0  0  0  0
  -24.6354  -20.2024   23.6988 N   0  0  0  0  0  0  0  0  0  0  0  0
  -28.4804  -17.6172   22.7844 N   0  0  0  0  0  0  0  0  0  0  0  0
  -29.0259  -15.3560   19.7873 N   0  0  0  0  0  0  0  0  0  0  0  0
  -26.2029  -21.8077   22.9720 N   0  0  0  0  0  0  0  0  0  0  0  0
  -21.3010  -29.1243   22.2207 N   0  0  0  0  0  0  0  0  0  0  0  0
  -24.7863  -25.9460   18.2429 N   0  0  0  0  0  0  0  0  0  0  0  0
  -29.0242  -29.5298   24.7899 N   0  0  1  0  0  0  0  0  0  1  0  0
  -27.4076  -26.7730   15.8949 N   0  3  0  0  0  0  0  0  0  0  0  0
  -29.5034  -14.1746   21.6939 O   0  0  0  0  0  0  0  0  0  0  0  0
  -23.3864  -29.0261   23.2522 O   0  0  0  0  0  0  0  0  0  0  0  0
  -22.5056  -27.4016   19.1853 O   0  0  0  0  0  0  0  0  0  0  0  0
  -27.0601  -26.1917   18.6259 O   0  0  0  0  0  0  0  0  0  0  0  0
  -24.5687  -22.3612   24.5228 O   0  0  0  0  0  0  0  0  0  0  0  0
  -24.3221  -10.3703   19.4123 O   0  0  0  0  0  0  0  0  0  0  0  0
  -30.2273  -25.5460   23.9393 O   0  0  0  0  0  0  0  0  0  0  0  0
  -29.1087  -30.3724   23.5935 O   0  0  0  0  0  0  0  0  0  1  0  0
  -23.2769   -6.0774   22.7112 F   0  0  0  0  0  0  0  0  0  0  0  0
  -25.6309   -7.9606   19.0619 F   0  0  0  0  0  0  0  0  0  0  0  0
  -28.3185  -22.1614   21.1914 F   0  0  0  0  0  0  0  0  0  0  0  0
  -30.2794  -23.9854   21.6669 F   0  0  0  0  0  0  0  0  0  0  0  0
  1  2  1  0  0  0  0
  1  5  2  0  0  0  0
  2  6  2  0  0  0  0
  3  9  2  0  0  0  0
  3 17  1  0  0  0  0
  4 10  1  0  0  0  0
  4 17  2  0  0  0  0
  5 19  1  0  0  0  0
  6 21  1  0  0  0  0
  7 11  2  0  0  0  0
  7 20  1  0  0  0  0
  8 12  2  0  0  0  0
  8 23  1  0  0  0  0
  9 24  1  0  0  0  0
 10 24  2  0  0  0  0
 11 25  1  0  0  0  0
 12 27  1  0  0  0  0
 13 14  2  0  0  0  0
 13 26  1  0  0  0  0
 14 28  1  0  0  0  0
 15 22  1  0  0  0  0
 15 25  2  0  0  0  0
 16 28  2  0  0  0  0
 16 29  1  0  0  0  0
 17 32  1  0  0  0  0
 18 32  1  0  0  0  0
 18 33  2  0  0  0  0
 18 34  1  0  0  0  0
 19 21  2  0  0  0  0
 19 39  1  0  0  0  0
 20 22  2  0  0  0  0
 20 40  1  0  0  0  0
 21 48  1  0  0  0  0
 22 41  1  0  0  0  0
 23 30  2  0  0  0  0
 23 71  1  0  0  0  0
 24 81  1  0  0  0  0
 25 83  1  0  0  0  0
 26 29  2  0  0  0  0
 26 81  1  0  0  0  0
 27 31  2  0  0  0  0
 27 82  1  0  0  0  0
 28 84  1  0  0  0  0
 29 85  1  0  0  0  0
 30 31  1  0  0  0  0
 30 86  1  0  0  0  0
 31 87  1  0  0  0  0
 32 65  2  0  0  0  0
 33 66  1  0  0  0  0
 33 69  1  0  0  0  0
 34 70  1  0  0  0  0
 34 76  2  0  0  0  0
 35 49  1  0  0  0  0
 35 72  1  0  0  0  0
 35 77  2  0  0  0  0
 36 61  1  0  0  0  0
 36 67  1  0  0  0  0
 36 78  2  0  0  0  0
 37 62  1  0  0  0  0
 37 73  1  0  0  0  0
 37 79  2  0  0  0  0
 38 68  1  0  0  0  0
 38 71  1  0  0  0  0
 38 80  2  0  0  0  0
 39 42  1  0  0  0  0
 40 49  1  0  0  0  0
 41 67  1  0  0  0  0
 42 44  1  0  0  0  0
 43 45  1  0  0  0  0
 43 46  1  0  0  0  0
 44 48  1  0  0  0  0
 45 50  1  0  0  0  0
 46 68  1  0  0  0  0
 47 50  1  0  0  0  0
 47 68  1  0  0  0  0
 48 72  1  0  0  0  0
 49 67  1  0  0  0  0
 50 66  1  0  0  0  0
 51 62  1  0  0  0  0
 52 63  1  0  0  0  0
 53 63  1  0  0  0  0
 54 64  1  0  0  0  0
 55 64  1  0  0  0  0
 56 64  1  0  0  0  0
 57 75  1  0  0  0  0
 58 59  1  0  0  0  0
 58 60  1  0  0  0  0
 59 74  1  0  0  0  0
 60 82  1  0  0  0  0
 61 64  1  0  0  0  0
 61 73  1  0  0  0  0
 62 75  1  0  0  0  0
 63 74  1  0  0  0  0
 65 66  1  0  0  0  0
 74 83  1  0  0  0  0
M  CHG  1  75   1
M  ISO  4  38 100  71 100  74 101  83 101
M  END
> <Batch ID>
0008

> <Smiles>
CNC(C)C(=O)NC(C(=O)N1Cc2cc([101O:1][101N:1](CCCOc3ccc([100NH:0][100C:0](=O)N4CCCC(n5nc(-c6ccc(Oc7ccc(F)cc7F)cc6)c(C(N)=O)c5N)C4)c(F)c3F)C(C)C)ccc2CC1C(=O)NC1CCCc2ccccc21)C(C)(C)C

> <Shape>
0.218

> <Color>
0.096

> <Negative vol penalty>
0.000

$$$$

  -OEChem-04052315363D

 87 95  0     1  0  0  0  0  0999 V2000
  -25.8756  -34.6344   22.9413 C   0  0  0  0  0  0  0  0  0  0  0  0
  -25.9839  -33.5598   22.0644 C   0  0  0  0  0  0  0  0  0  0  0  0
  -26.6217  -12.8614   21.7147 C   0  0  0  0  0  0  0  0  0  0  0  0
  -26.0781  -14.0794   19.7003 C   0  0  0  0  0  0  0  0  0  0  0  0
  -25.2817  -34.4565   24.1901 C   0  0  0  0  0  0  0  0  0  0  0  0
  -25.4992  -32.3063   22.4363 C   0  0  0  0  0  0  0  0  0  0  0  0
  -22.8542  -30.0714   18.7411 C   0  0  0  0  0  0  0  0  0  0  0  0
  -28.8870  -21.5967   18.3749 C   0  0  0  0  0  0  0  0  0  0  0  0
  -28.3694  -22.7181   17.7268 C   0  0  0  0  0  0  0  0  0  0  0  0
  -25.3373  -12.3177   21.7326 C   0  0  0  0  0  0  0  0  0  0  0  0
  -24.7937  -13.5357   19.7182 C   0  0  0  0  0  0  0  0  0  0  0  0
  -23.5791  -29.4770   17.7092 C   0  0  0  0  0  0  0  0  0  0  0  0
  -23.6570   -9.8447   20.1534 C   0  0  0  0  0  0  0  0  0  0  0  0
  -23.5349   -8.4784   20.4058 C   0  0  0  0  0  0  0  0  0  0  0  0
  -23.2612  -27.3182   18.7375 C   0  0  0  0  0  0  0  0  0  0  0  0
  -29.3654  -22.9434   20.3229 C   0  0  0  0  0  0  0  0  0  0  0  0
  -22.1958   -8.9587   22.3585 C   0  0  0  0  0  0  0  0  0  0  0  0
  -26.9921  -13.7423   20.6986 C   0  0  0  0  0  0  0  0  0  0  0  0
  -29.4590  -13.7718   20.0497 C   0  0  0  0  0  0  0  0  0  0  0  0
  -24.7809  -33.2024   24.5737 C   0  0  0  0  0  0  0  0  0  0  0  0
  -22.3358  -29.2938   19.7865 C   0  0  0  0  0  0  0  0  0  0  0  0
  -24.8993  -32.1112   23.6919 C   0  0  0  0  0  0  0  0  0  0  0  0
  -22.5279  -27.9048   19.7802 C   0  0  0  0  0  0  0  0  0  0  0  0
  -29.3850  -21.7093   19.6730 C   0  0  0  0  0  0  0  0  0  0  0  0
  -28.3498  -23.9522   18.3766 C   0  0  0  0  0  0  0  0  0  0  0  0
  -24.4233  -12.6548   20.7344 C   0  0  0  0  0  0  0  0  0  0  0  0
  -23.7852  -28.1005   17.7088 C   0  0  0  0  0  0  0  0  0  0  0  0
  -23.0485  -10.7681   21.0037 C   0  0  0  0  0  0  0  0  0  0  0  0
  -28.8478  -24.0648   19.6747 C   0  0  0  0  0  0  0  0  0  0  0  0
  -22.8043   -8.0353   21.5083 C   0  0  0  0  0  0  0  0  0  0  0  0
  -22.3179  -10.3251   22.1062 C   0  0  0  0  0  0  0  0  0  0  0  0
  -28.3185  -14.3047   20.6799 C   0  0  0  0  0  0  0  0  0  0  0  0
  -30.4569  -14.6745   20.3252 C   0  0  0  0  0  0  0  0  0  0  0  0
  -29.6035  -12.5685   19.2836 C   0  0  0  0  0  0  0  0  0  0  0  0
  -22.7792  -29.1819   22.9321 C   0  0  0  0  0  0  0  0  0  0  0  0
  -20.3569  -27.0281   22.8046 C   0  0  0  0  0  0  0  0  0  0  0  0
  -18.5928  -24.7574   20.9665 C   0  0  0  0  0  0  0  0  0  0  0  0
  -30.4412  -20.5081   21.6192 C   0  0  0  0  0  0  0  0  0  0  0  0
  -24.1897  -33.0477   25.9525 C   0  0  0  0  0  0  0  0  0  0  0  0
  -21.5332  -29.9468   20.8782 C   0  0  0  0  0  0  0  0  0  0  0  0
  -21.9748  -27.0228   20.8686 C   0  0  0  0  0  0  0  0  0  0  0  0
  -23.3642  -31.7749   26.1220 C   0  0  0  0  0  0  0  0  0  0  0  0
  -31.7962  -17.8882   23.6135 C   0  0  0  0  0  0  0  0  0  0  0  0
  -24.1124  -30.5736   25.5527 C   0  0  0  0  0  0  0  0  0  0  0  0
  -31.1666  -16.6229   23.0263 C   0  0  0  0  0  0  0  0  0  0  0  0
  -30.8203  -19.0635   23.6053 C   0  0  0  0  0  0  0  0  0  0  0  0
  -29.5779  -18.0871   21.7152 C   0  0  0  0  0  0  0  0  0  0  0  0
  -24.3632  -30.7418   24.0493 C   0  0  1  0  0  0  0  0  0  0  0  0
  -21.4902  -29.1239   22.1621 C   0  0  1  0  0  0  0  0  0  0  0  0
  -30.5439  -16.8933   21.6426 C   0  0  2  0  0  0  0  0  0  0  0  0
  -16.6937  -23.1270   21.1459 C   0  0  0  0  0  0  0  0  0  0  0  0
  -22.1650  -25.0927   24.3195 C   0  0  0  0  0  0  0  0  0  0  0  0
  -20.6286  -23.2359   23.6412 C   0  0  0  0  0  0  0  0  0  0  0  0
  -19.7793  -25.0961   25.0699 C   0  0  0  0  0  0  0  0  0  0  0  0
  -17.0256  -26.1770   18.8957 C   0  0  0  0  0  0  0  0  0  0  0  0
  -26.2037  -27.3658   20.8079 C   0  0  0  0  0  0  0  0  0  0  0  0
  -27.7446  -29.1252   21.6627 C   0  0  0  0  0  0  0  0  0  0  0  0
  -26.4373  -26.2444   16.1058 C   0  0  0  0  0  0  0  0  0  0  0  0
  -27.3005  -25.0187   16.3799 C   0  0  0  0  0  0  0  0  0  0  0  0
  -28.2151  -26.7248   22.1289 C   0  0  0  0  0  0  0  0  0  0  0  0
  -25.2242  -26.3352   17.0241 C   0  0  0  0  0  0  0  0  0  1  0  0
  -28.1040  -25.3297   21.5463 C   0  0  0  0  0  0  0  0  0  0  0  0
  -20.2651  -25.5318   22.6273 C   0  0  1  0  0  0  0  0  0  0  0  0
  -17.0999  -24.5480   20.7878 C   0  0  2  0  0  0  0  0  0  0  0  0
  -20.7217  -24.7557   23.8948 C   0  0  0  0  0  0  0  0  0  0  0  0
  -28.5676  -15.4565   21.3086 N   0  0  0  0  0  0  0  0  0  0  0  0
  -29.8761  -15.6548   21.0748 N   0  0  0  0  0  0  0  0  0  0  0  0
  -21.2023  -27.7092   21.9173 N   0  0  0  0  0  0  0  0  0  0  0  0
  -30.2739  -19.2628   22.2612 N   0  0  0  0  0  0  0  0  0  0  0  0
  -31.7656  -14.7173   19.9971 N   0  0  0  0  0  0  0  0  0  0  0  0
  -28.4769  -11.7559   19.0972 N   0  0  0  0  0  0  0  0  0  0  0  0
  -29.9084  -20.5693   20.3320 N   0  0  0  0  0  0  0  0  0  0  0  0
  -27.8325  -25.0583   17.7207 N   0  0  0  0  0  0  0  0  0  0  0  0
  -23.1573  -30.4588   23.3009 N   0  0  0  0  0  0  0  0  0  0  0  0
  -18.8929  -25.2527   22.2178 N   0  0  0  0  0  0  0  0  0  0  0  0
  -16.7061  -24.8073   19.3740 N   0  3  0  0  0  0  0  0  0  0  0  0
  -27.6273  -27.7014   21.1776 N   0  3  0  0  0  0  0  0  0  0  0  0
  -30.7028  -12.2157   18.7933 O   0  0  0  0  0  0  0  0  0  0  0  0
  -23.3851  -28.1447   23.1749 O   0  0  0  0  0  0  0  0  0  0  0  0
  -19.6972  -27.5735   23.6928 O   0  0  0  0  0  0  0  0  0  0  0  0
  -19.4112  -24.5033   20.0855 O   0  0  0  0  0  0  0  0  0  0  0  0
  -31.0389  -21.4420   22.1601 O   0  0  0  0  0  0  0  0  0  0  0  0
  -23.1700  -12.1243   20.7514 O   0  0  0  0  0  0  0  0  0  0  0  0
  -24.4929  -27.5178   16.7031 O   0  0  0  0  0  0  0  0  0  1  0  0
  -28.8388  -25.2619   20.3261 O   0  0  0  0  0  0  0  0  0  0  0  0
  -22.6859   -6.7231   21.7496 F   0  0  0  0  0  0  0  0  0  0  0  0
  -21.7301  -11.2073   22.9259 F   0  0  0  0  0  0  0  0  0  0  0  0
  1  2  1  0  0  0  0
  1  5  2  0  0  0  0
  2  6  2  0  0  0  0
  3 10  2  0  0  0  0
  3 18  1  0  0  0  0
  4 11  1  0  0  0  0
  4 18  2  0  0  0  0
  5 20  1  0  0  0  0
  6 22  1  0  0  0  0
  7 12  2  0  0  0  0
  7 21  1  0  0  0  0
  8  9  2  0  0  0  0
  8 24  1  0  0  0  0
  9 25  1  0  0  0  0
 10 26  1  0  0  0  0
 11 26  2  0  0  0  0
 12 27  1  0  0  0  0
 13 14  2  0  0  0  0
 13 28  1  0  0  0  0
 14 30  1  0  0  0  0
 15 23  1  0  0  0  0
 15 27  2  0  0  0  0
 16 24  2  0  0  0  0
 16 29  1  0  0  0  0
 17 30  2  0  0  0  0
 17 31  1  0  0  0  0
 18 32  1  0  0  0  0
 19 32  1  0  0  0  0
 19 33  2  0  0  0  0
 19 34  1  0  0  0  0
 20 22  2  0  0  0  0
 20 39  1  0  0  0  0
 21 23  2  0  0  0  0
 21 40  1  0  0  0  0
 22 48  1  0  0  0  0
 23 41  1  0  0  0  0
 24 72  1  0  0  0  0
 25 29  2  0  0  0  0
 25 73  1  0  0  0  0
 26 83  1  0  0  0  0
 27 84  1  0  0  0  0
 28 31  2  0  0  0  0
 28 83  1  0  0  0  0
 29 85  1  0  0  0  0
 30 86  1  0  0  0  0
 31 87  1  0  0  0  0
 32 66  2  0  0  0  0
 33 67  1  0  0  0  0
 33 70  1  0  0  0  0
 34 71  1  0  0  0  0
 34 78  2  0  0  0  0
 35 49  1  0  0  0  0
 35 74  1  0  0  0  0
 35 79  2  0  0  0  0
 36 63  1  0  0  0  0
 36 68  1  0  0  0  0
 36 80  2  0  0  0  0
 37 64  1  0  0  0  0
 37 75  1  0  0  0  0
 37 81  2  0  0  0  0
 38 69  1  0  0  0  0
 38 72  1  0  0  0  0
 38 82  2  0  0  0  0
 39 42  1  0  0  0  0
 40 49  1  0  0  0  0
 41 68  1  0  0  0  0
 42 44  1  0  0  0  0
 43 45  1  0  0  0  0
 43 46  1  0  0  0  0
 44 48  1  0  0  0  0
 45 50  1  0  0  0  0
 46 69  1  0  0  0  0
 47 50  1  0  0  0  0
 47 69  1  0  0  0  0
 48 74  1  0  0  0  0
 49 68  1  0  0  0  0
 50 67  1  0  0  0  0
 51 64  1  0  0  0  0
 52 65  1  0  0  0  0
 53 65  1  0  0  0  0
 54 65  1  0  0  0  0
 55 76  1  0  0  0  0
 56 77  1  0  0  0  0
 57 77  1  0  0  0  0
 58 59  1  0  0  0  0
 58 61  1  0  0  0  0
 59 73  1  0  0  0  0
 60 62  1  0  0  0  0
 60 77  1  0  0  0  0
 61 84  1  0  0  0  0
 62 85  1  0  0  0  0
 63 65  1  0  0  0  0
 63 75  1  0  0  0  0
 64 76  1  0  0  0  0
 66 67  1  0  0  0  0
M  CHG  2  76   1  77   1
M  ISO  4  38 100  61 101  72 100  84 101
M  END
> <Batch ID>
0008

> <Smiles>
CNC(C)C(=O)NC(C(=O)N1Cc2cc([101O:1][101CH2:1]CCNc3ccc([100NH:0][100C:0](=O)N4CCCC(n5nc(-c6ccc(Oc7ccc(F)cc7F)cc6)c(C(N)=O)c5N)C4)cc3OCCN(C)C)ccc2CC1C(=O)NC1CCCc2ccccc21)C(C)(C)C

> <Shape>
0.318

> <Color>
0.059

> <Negative vol penalty>
0.000

$$$$

  -OEChem-04052315363D

 82 90  0     1  0  0  0  0  0999 V2000
  -25.5123  -37.7306   22.2187 C   0  0  0  0  0  0  0  0  0  0  0  0
  -26.2941  -36.6714   21.7691 C   0  0  0  0  0  0  0  0  0  0  0  0
  -26.4696  -11.6758   21.2428 C   0  0  0  0  0  0  0  0  0  0  0  0
  -25.3628  -13.3324   19.8761 C   0  0  0  0  0  0  0  0  0  0  0  0
  -24.5164  -37.5066   23.1685 C   0  0  0  0  0  0  0  0  0  0  0  0
  -26.0812  -35.3875   22.2699 C   0  0  0  0  0  0  0  0  0  0  0  0
  -26.6628  -30.1053   19.2258 C   0  0  0  0  0  0  0  0  0  0  0  0
  -25.2345  -11.1068   21.5533 C   0  0  0  0  0  0  0  0  0  0  0  0
  -24.1277  -12.7633   20.1866 C   0  0  0  0  0  0  0  0  0  0  0  0
  -27.6908  -29.1654   19.1661 C   0  0  0  0  0  0  0  0  0  0  0  0
  -22.4018   -8.9983   22.4165 C   0  0  0  0  0  0  0  0  0  0  0  0
  -22.2962   -7.6085   22.3630 C   0  0  0  0  0  0  0  0  0  0  0  0
  -26.5837  -27.8558   20.8627 C   0  0  0  0  0  0  0  0  0  0  0  0
  -27.8525  -22.7448   19.7738 C   0  0  0  0  0  0  0  0  0  0  0  0
  -30.1447  -22.8067   19.0129 C   0  0  0  0  0  0  0  0  0  0  0  0
  -22.8935   -7.6533   20.0224 C   0  0  0  0  0  0  0  0  0  0  0  0
  -26.5337  -12.7886   20.4042 C   0  0  0  0  0  0  0  0  0  0  0  0
  -28.6498  -13.0480   19.0033 C   0  0  0  0  0  0  0  0  0  0  0  0
  -24.2848  -36.2176   23.6739 C   0  0  0  0  0  0  0  0  0  0  0  0
  -25.5912  -29.9327   20.1137 C   0  0  0  0  0  0  0  0  0  0  0  0
  -25.0822  -35.1462   23.2282 C   0  0  0  0  0  0  0  0  0  0  0  0
  -25.5421  -28.7936   20.9299 C   0  0  0  0  0  0  0  0  0  0  0  0
  -28.0649  -21.4750   20.3105 C   0  0  0  0  0  0  0  0  0  0  0  0
  -30.3571  -21.5368   19.5496 C   0  0  0  0  0  0  0  0  0  0  0  0
  -29.3172  -20.8710   20.1984 C   0  0  0  0  0  0  0  0  0  0  0  0
  -24.0636  -11.6505   21.0252 C   0  0  0  0  0  0  0  0  0  0  0  0
  -27.6528  -28.0419   19.9866 C   0  0  0  0  0  0  0  0  0  0  0  0
  -22.7531   -9.7157   21.2729 C   0  0  0  0  0  0  0  0  0  0  0  0
  -28.8924  -23.4106   19.1249 C   0  0  0  0  0  0  0  0  0  0  0  0
  -22.5421   -6.9360   21.1660 C   0  0  0  0  0  0  0  0  0  0  0  0
  -22.9990   -9.0431   20.0759 C   0  0  0  0  0  0  0  0  0  0  0  0
  -27.8092  -13.3772   20.0835 C   0  0  0  0  0  0  0  0  0  0  0  0
  -29.7301  -13.8850   19.1415 C   0  0  0  0  0  0  0  0  0  0  0  0
  -28.4703  -12.0730   17.9676 C   0  0  0  0  0  0  0  0  0  0  0  0
  -24.4453  -31.5629   22.5902 C   0  0  0  0  0  0  0  0  0  0  0  0
  -22.0784  -29.3489   22.4540 C   0  0  0  0  0  0  0  0  0  0  0  0
  -21.0828  -26.2270   21.5003 C   0  0  0  0  0  0  0  0  0  0  0  0
  -30.4540  -19.2229   21.7275 C   0  0  0  0  0  0  0  0  0  0  0  0
  -23.2283  -36.0327   24.7343 C   0  0  0  0  0  0  0  0  0  0  0  0
  -24.4767  -30.9423   20.1469 C   0  0  0  0  0  0  0  0  0  0  0  0
  -24.4036  -28.5515   21.8857 C   0  0  0  0  0  0  0  0  0  0  0  0
  -22.8173  -34.5766   24.9373 C   0  0  0  0  0  0  0  0  0  0  0  0
  -32.2438  -16.2363   22.4712 C   0  0  0  0  0  0  0  0  0  0  0  0
  -24.0493  -33.6816   25.0266 C   0  0  0  0  0  0  0  0  0  0  0  0
  -31.3894  -15.1348   21.8397 C   0  0  0  0  0  0  0  0  0  0  0  0
  -31.3840  -17.3489   23.0683 C   0  0  0  0  0  0  0  0  0  0  0  0
  -29.5404  -16.8276   21.5197 C   0  0  0  0  0  0  0  0  0  0  0  0
  -24.8651  -33.7348   23.7292 C   0  0  1  0  0  0  0  0  0  0  0  0
  -23.6938  -30.9251   21.4561 C   0  0  1  0  0  0  0  0  0  0  0  0
  -30.3634  -15.7165   20.8475 C   0  0  2  0  0  0  0  0  0  0  0  0
  -26.9317  -20.7870   21.0004 C   0  0  0  0  0  0  0  0  0  0  0  0
  -31.7094  -20.9155   19.4122 C   0  0  0  0  0  0  0  0  0  0  0  0
  -19.1020  -24.6874   21.5587 C   0  0  0  0  0  0  0  0  0  0  0  0
  -22.6072  -28.7845   25.4056 C   0  0  0  0  0  0  0  0  0  0  0  0
  -21.3160  -26.6539   25.1577 C   0  0  0  0  0  0  0  0  0  0  0  0
  -20.1886  -28.8455   24.7721 C   0  0  0  0  0  0  0  0  0  0  0  0
  -20.9479  -26.1000   18.5465 C   0  0  0  0  0  0  0  0  0  0  0  0
  -29.3208  -26.9634   18.6787 C   0  0  0  0  0  0  0  0  0  1  0  0
  -29.8043  -25.5316   18.5541 C   0  0  0  0  0  0  0  0  0  0  0  0
  -21.8495  -27.9894   23.0690 C   0  0  1  0  0  0  0  0  0  0  0  0
  -19.8476  -25.7457   20.7607 C   0  0  2  0  0  0  0  0  0  0  0  0
  -21.5129  -28.0736   24.5846 C   0  0  0  0  0  0  0  0  0  0  0  0
  -28.3122  -14.3475   20.8513 N   0  0  0  0  0  0  0  0  0  0  0  0
  -29.4807  -14.6351   20.2529 N   0  0  0  0  0  0  0  0  0  0  0  0
  -23.3410  -29.5705   21.8860 N   0  0  0  0  0  0  0  0  0  0  0  0
  -30.4392  -17.8543   22.0700 N   0  0  0  0  0  0  0  0  0  0  0  0
  -30.8595  -14.0450   18.4195 N   0  0  0  0  0  0  0  0  0  0  0  0
  -27.3026  -11.2978   17.9750 N   0  0  0  0  0  0  0  0  0  0  0  0
  -29.5330  -19.5810   20.7435 N   0  0  0  0  0  0  0  0  0  0  0  0
  -24.2402  -32.9245   22.7058 N   0  0  0  0  0  0  0  0  0  0  0  0
  -20.8184  -27.3450   22.2628 N   0  0  0  0  0  0  0  0  0  0  0  0
  -20.2275  -25.1605   19.4439 N   0  3  0  0  0  0  0  0  0  0  0  0
  -29.3276  -11.8830   17.0719 O   0  0  0  0  0  0  0  0  0  0  0  0
  -25.1573  -30.8706   23.3082 O   0  0  0  0  0  0  0  0  0  0  0  0
  -21.1680  -30.1811   22.4704 O   0  0  0  0  0  0  0  0  0  0  0  0
  -22.1724  -25.6650   21.4134 O   0  0  0  0  0  0  0  0  0  0  0  0
  -31.2453  -20.0136   22.2477 O   0  0  0  0  0  0  0  0  0  0  0  0
  -22.8583  -11.0954   21.3279 O   0  0  0  0  0  0  0  0  0  0  0  0
  -28.6552  -27.1233   19.9308 O   0  0  0  0  0  0  0  0  0  1  0  0
  -28.6832  -24.6572   18.5963 O   0  0  0  0  0  0  0  0  0  0  0  0
  -22.4423   -5.6012   21.1151 F   0  0  0  0  0  0  0  0  0  0  0  0
  -23.3381   -9.7267   18.9743 F   0  0  0  0  0  0  0  0  0  0  0  0
  1  2  1  0  0  0  0
  1  5  2  0  0  0  0
  2  6  2  0  0  0  0
  3  8  2  0  0  0  0
  3 17  1  0  0  0  0
  4  9  1  0  0  0  0
  4 17  2  0  0  0  0
  5 19  1  0  0  0  0
  6 21  1  0  0  0  0
  7 10  2  0  0  0  0
  7 20  1  0  0  0  0
  8 26  1  0  0  0  0
  9 26  2  0  0  0  0
 10 27  1  0  0  0  0
 11 12  2  0  0  0  0
 11 28  1  0  0  0  0
 12 30  1  0  0  0  0
 13 22  1  0  0  0  0
 13 27  2  0  0  0  0
 14 23  2  0  0  0  0
 14 29  1  0  0  0  0
 15 24  1  0  0  0  0
 15 29  2  0  0  0  0
 16 30  2  0  0  0  0
 16 31  1  0  0  0  0
 17 32  1  0  0  0  0
 18 32  1  0  0  0  0
 18 33  2  0  0  0  0
 18 34  1  0  0  0  0
 19 21  2  0  0  0  0
 19 39  1  0  0  0  0
 20 22  2  0  0  0  0
 20 40  1  0  0  0  0
 21 48  1  0  0  0  0
 22 41  1  0  0  0  0
 23 25  1  0  0  0  0
 23 51  1  0  0  0  0
 24 25  2  0  0  0  0
 24 52  1  0  0  0  0
 25 69  1  0  0  0  0
 26 78  1  0  0  0  0
 27 79  1  0  0  0  0
 28 31  2  0  0  0  0
 28 78  1  0  0  0  0
 29 80  1  0  0  0  0
 30 81  1  0  0  0  0
 31 82  1  0  0  0  0
 32 63  2  0  0  0  0
 33 64  1  0  0  0  0
 33 67  1  0  0  0  0
 34 68  1  0  0  0  0
 34 73  2  0  0  0  0
 35 49  1  0  0  0  0
 35 70  1  0  0  0  0
 35 74  2  0  0  0  0
 36 60  1  0  0  0  0
 36 65  1  0  0  0  0
 36 75  2  0  0  0  0
 37 61  1  0  0  0  0
 37 71  1  0  0  0  0
 37 76  2  0  0  0  0
 38 66  1  0  0  0  0
 38 69  1  0  0  0  0
 38 77  2  0  0  0  0
 39 42  1  0  0  0  0
 40 49  1  0  0  0  0
 41 65  1  0  0  0  0
 42 44  1  0  0  0  0
 43 45  1  0  0  0  0
 43 46  1  0  0  0  0
 44 48  1  0  0  0  0
 45 50  1  0  0  0  0
 46 66  1  0  0  0  0
 47 50  1  0  0  0  0
 47 66  1  0  0  0  0
 48 70  1  0  0  0  0
 49 65  1  0  0  0  0
 50 64  1  0  0  0  0
 53 61  1  0  0  0  0
 54 62  1  0  0  0  0
 55 62  1  0  0  0  0
 56 62  1  0  0  0  0
 57 72  1  0  0  0  0
 58 59  1  0  0  0  0
 58 79  1  0  0  0  0
 59 80  1  0  0  0  0
 60 62  1  0  0  0  0
 60 71  1  0  0  0  0
 61 72  1  0  0  0  0
 63 64  1  0  0  0  0
M  CHG  1  72   1
M  ISO  4  38 100  58 101  69 100  79 101
M  END
> <Batch ID>
0008

> <Smiles>
CNC(C)C(=O)NC(C(=O)N1Cc2cc([101O:1][101CH2:1]COc3cc(C)c([100NH:0][100C:0](=O)N4CCCC(n5nc(-c6ccc(Oc7ccc(F)cc7F)cc6)c(C(N)=O)c5N)C4)c(C)c3)ccc2CC1C(=O)NC1CCCc2ccccc21)C(C)(C)C

> <Shape>
0.384

> <Color>
0.070

> <Negative vol penalty>
0.000

$$$$

  -OEChem-04052315363D

 88 96  0     1  0  0  0  0  0999 V2000
  -28.8377   -9.1166   16.3381 C   0  0  0  0  0  0  0  0  0  0  0  0
  -27.8535   -9.6654   17.1540 C   0  0  0  0  0  0  0  0  0  0  0  0
  -24.7493  -30.0663   20.3905 C   0  0  0  0  0  0  0  0  0  0  0  0
  -24.5293  -28.5410   22.2512 C   0  0  0  0  0  0  0  0  0  0  0  0
  -30.1622   -9.5315   16.4700 C   0  0  0  0  0  0  0  0  0  0  0  0
  -28.1936  -10.6287   18.1031 C   0  0  0  0  0  0  0  0  0  0  0  0
  -24.9681  -14.5324   18.1506 C   0  0  0  0  0  0  0  0  0  0  0  0
  -24.3276  -31.1186   21.2031 C   0  0  0  0  0  0  0  0  0  0  0  0
  -24.1076  -29.5934   23.0639 C   0  0  0  0  0  0  0  0  0  0  0  0
  -23.7459  -14.3408   18.7936 C   0  0  0  0  0  0  0  0  0  0  0  0
  -23.6550  -34.2719   22.8822 C   0  0  0  0  0  0  0  0  0  0  0  0
  -24.3661  -35.4698   22.8130 C   0  0  0  0  0  0  0  0  0  0  0  0
  -24.5931  -15.4951   20.7350 C   0  0  0  0  0  0  0  0  0  0  0  0
  -20.3850  -20.5369   19.3418 C   0  0  0  0  0  0  0  0  0  0  0  0
  -21.0740  -20.0385   21.9987 C   0  0  0  0  0  0  0  0  0  0  0  0
  -26.3727  -34.3191   23.5107 C   0  0  0  0  0  0  0  0  0  0  0  0
  -24.8501  -28.7775   20.9145 C   0  0  0  0  0  0  0  0  0  0  0  0
  -26.6066  -27.2498   19.8712 C   0  0  0  0  0  0  0  0  0  0  0  0
  -30.5171  -10.5075   17.4146 C   0  0  0  0  0  0  0  0  0  0  0  0
  -26.0173  -15.1984   18.8002 C   0  0  0  0  0  0  0  0  0  0  0  0
  -29.5243  -11.0562   18.2487 C   0  0  0  0  0  0  0  0  0  0  0  0
  -25.8267  -15.6962   20.0971 C   0  0  0  0  0  0  0  0  0  0  0  0
  -19.6157  -19.6626   20.1095 C   0  0  0  0  0  0  0  0  0  0  0  0
  -21.8434  -20.9127   21.2310 C   0  0  0  0  0  0  0  0  0  0  0  0
  -21.4989  -21.1619   19.9025 C   0  0  0  0  0  0  0  0  0  0  0  0
  -19.9602  -19.4134   21.4380 C   0  0  0  0  0  0  0  0  0  0  0  0
  -24.0068  -30.8821   22.5399 C   0  0  0  0  0  0  0  0  0  0  0  0
  -23.5593  -14.8196   20.0871 C   0  0  0  0  0  0  0  0  0  0  0  0
  -24.3027  -33.0975   23.2658 C   0  0  0  0  0  0  0  0  0  0  0  0
  -25.7249  -35.4935   23.1272 C   0  0  0  0  0  0  0  0  0  0  0  0
  -25.6615  -33.1211   23.5800 C   0  0  0  0  0  0  0  0  0  0  0  0
  -25.2851  -27.6899   20.0754 C   0  0  0  0  0  0  0  0  0  0  0  0
  -26.4868  -26.1980   18.9960 C   0  0  0  0  0  0  0  0  0  0  0  0
  -27.8328  -27.7471   20.4232 C   0  0  0  0  0  0  0  0  0  0  0  0
  -28.9581  -14.4033   19.7077 C   0  0  0  0  0  0  0  0  0  0  0  0
  -29.1513  -17.5486   20.4774 C   0  0  0  0  0  0  0  0  0  0  0  0
  -19.0429  -17.1616   21.8410 C   0  0  0  0  0  0  0  0  0  0  0  0
  -27.5278  -20.4322   21.3116 C   0  0  0  0  0  0  0  0  0  0  0  0
  -22.0468  -22.3907   17.7727 C   0  0  0  0  0  0  0  0  0  0  0  0
  -31.9695  -10.8898   17.5527 C   0  0  0  0  0  0  0  0  0  0  0  0
  -27.3206  -15.4206   18.0829 C   0  0  0  0  0  0  0  0  0  0  0  0
  -26.9147  -16.4357   20.8305 C   0  0  0  0  0  0  0  0  0  0  0  0
  -32.1868  -12.1875   18.3267 C   0  0  0  0  0  0  0  0  0  0  0  0
  -23.6879  -24.5579   15.4732 C   0  0  0  0  0  0  0  0  0  0  0  0
  -31.3462  -12.1971   19.5995 C   0  0  0  0  0  0  0  0  0  0  0  0
  -24.4089  -25.5633   16.3739 C   0  0  0  0  0  0  0  0  0  0  0  0
  -22.3301  -24.1552   16.0459 C   0  0  0  0  0  0  0  0  0  0  0  0
  -23.0807  -24.6782   18.3334 C   0  0  0  0  0  0  0  0  0  0  0  0
  -29.8498  -12.1215   19.2730 C   0  0  1  0  0  0  0  0  0  0  0  0
  -28.4911  -15.6611   19.0313 C   0  0  1  0  0  0  0  0  0  0  0  0
  -24.4812  -25.0643   17.8304 C   0  0  2  0  0  0  0  0  0  0  0  0
  -18.4291  -19.0060   19.4823 C   0  0  0  0  0  0  0  0  0  0  0  0
  -23.0312  -21.5684   21.8569 C   0  0  0  0  0  0  0  0  0  0  0  0
  -16.4829  -20.1096   24.4803 C   0  0  0  0  0  0  0  0  0  0  0  0
  -27.9562  -22.8291   21.9187 C   0  0  0  0  0  0  0  0  0  0  0  0
  -30.0220  -16.6829   23.2707 C   0  0  0  0  0  0  0  0  0  0  0  0
  -29.5150  -19.0004   24.0711 C   0  0  0  0  0  0  0  0  0  0  0  0
  -31.2788  -18.6369   22.3449 C   0  0  0  0  0  0  0  0  0  0  0  0
  -26.0120  -21.4176   18.9684 C   0  0  0  0  0  0  0  0  0  0  0  0
  -20.2363  -16.5743   21.0909 C   0  0  0  0  0  0  0  0  0  0  0  0
  -17.1380  -19.5582   23.2219 C   0  0  0  0  0  0  0  0  0  0  0  0
  -20.0181  -15.1183   20.6819 C   0  0  0  0  0  0  0  0  0  0  0  0
  -18.5405  -19.0189   23.4760 C   0  0  0  0  0  0  0  0  0  0  0  0
  -21.2017  -14.5716   19.8967 C   0  0  0  0  0  0  0  0  0  1  0  0
  -28.8469  -18.3688   21.7077 C   0  0  1  0  0  0  0  0  0  0  0  0
  -27.6640  -21.8516   20.7909 C   0  0  2  0  0  0  0  0  0  0  0  0
  -29.8956  -18.1567   22.8358 C   0  0  0  0  0  0  0  0  0  0  0  0
  -24.3915  -26.9762   19.3854 N   0  0  0  0  0  0  0  0  0  0  0  0
  -25.1528  -26.0770   18.7390 N   0  0  0  0  0  0  0  0  0  0  0  0
  -28.1730  -16.6221   20.0893 N   0  0  0  0  0  0  0  0  0  0  0  0
  -22.4773  -23.6891   17.4265 N   0  0  0  0  0  0  0  0  0  0  0  0
  -27.3935  -25.3742   18.4288 N   0  0  0  0  0  0  0  0  0  0  0  0
  -27.7756  -28.8340   21.3063 N   0  0  0  0  0  0  0  0  0  0  0  0
  -22.2675  -22.0465   19.1059 N   0  0  0  0  0  0  0  0  0  0  0  0
  -29.3624  -13.4117   18.8344 N   0  0  0  0  0  0  0  0  0  0  0  0
  -28.7254  -19.7510   21.2570 N   0  0  0  0  0  0  0  0  0  0  0  0
  -19.1746  -18.5073   22.2509 N   0  0  0  0  0  0  0  0  0  0  0  0
  -26.4068  -22.2777   20.1136 N   0  3  0  0  0  0  0  0  0  0  0  0
  -28.9476  -27.2532   20.1290 O   0  0  0  0  0  0  0  0  0  0  0  0
  -28.9533  -14.3379   20.9314 O   0  0  0  0  0  0  0  0  0  0  0  0
  -30.2146  -17.7284   19.8785 O   0  0  0  0  0  0  0  0  0  0  0  0
  -18.0655  -16.4461   22.0739 O   0  0  0  0  0  0  0  0  0  0  0  0
  -26.4661  -19.9747   21.7288 O   0  0  0  0  0  0  0  0  0  0  0  0
  -21.5460  -21.6297   16.9408 O   0  0  0  0  0  0  0  0  0  0  0  0
  -23.5956  -31.9088   23.3332 O   0  0  0  0  0  0  0  0  0  0  0  0
  -22.3676  -14.6333   20.7172 O   0  0  0  0  0  0  0  0  0  1  0  0
  -26.4080  -36.6437   23.0592 F   0  0  0  0  0  0  0  0  0  0  0  0
  -26.2895  -31.9959   23.9479 F   0  0  0  0  0  0  0  0  0  0  0  0
  1  2  1  0  0  0  0
  1  5  2  0  0  0  0
  2  6  2  0  0  0  0
  3  8  2  0  0  0  0
  3 17  1  0  0  0  0
  4  9  1  0  0  0  0
  4 17  2  0  0  0  0
  5 19  1  0  0  0  0
  6 21  1  0  0  0  0
  7 10  2  0  0  0  0
  7 20  1  0  0  0  0
  8 27  1  0  0  0  0
  9 27  2  0  0  0  0
 10 28  1  0  0  0  0
 11 12  2  0  0  0  0
 11 29  1  0  0  0  0
 12 30  1  0  0  0  0
 13 22  1  0  0  0  0
 13 28  2  0  0  0  0
 14 23  1  0  0  0  0
 14 25  2  0  0  0  0
 15 24  2  0  0  0  0
 15 26  1  0  0  0  0
 16 30  2  0  0  0  0
 16 31  1  0  0  0  0
 17 32  1  0  0  0  0
 18 32  1  0  0  0  0
 18 33  2  0  0  0  0
 18 34  1  0  0  0  0
 19 21  2  0  0  0  0
 19 40  1  0  0  0  0
 20 22  2  0  0  0  0
 20 41  1  0  0  0  0
 21 49  1  0  0  0  0
 22 42  1  0  0  0  0
 23 26  2  0  0  0  0
 23 52  1  0  0  0  0
 24 25  1  0  0  0  0
 24 53  1  0  0  0  0
 25 74  1  0  0  0  0
 26 77  1  0  0  0  0
 27 85  1  0  0  0  0
 28 86  1  0  0  0  0
 29 31  2  0  0  0  0
 29 85  1  0  0  0  0
 30 87  1  0  0  0  0
 31 88  1  0  0  0  0
 32 68  2  0  0  0  0
 33 69  1  0  0  0  0
 33 72  1  0  0  0  0
 34 73  1  0  0  0  0
 34 79  2  0  0  0  0
 35 50  1  0  0  0  0
 35 75  1  0  0  0  0
 35 80  2  0  0  0  0
 36 65  1  0  0  0  0
 36 70  1  0  0  0  0
 36 81  2  0  0  0  0
 37 60  1  0  0  0  0
 37 77  1  0  0  0  0
 37 82  2  0  0  0  0
 38 66  1  0  0  0  0
 38 76  1  0  0  0  0
 38 83  2  0  0  0  0
 39 71  1  0  0  0  0
 39 74  1  0  0  0  0
 39 84  2  0  0  0  0
 40 43  1  0  0  0  0
 41 50  1  0  0  0  0
 42 70  1  0  0  0  0
 43 45  1  0  0  0  0
 44 46  1  0  0  0  0
 44 47  1  0  0  0  0
 45 49  1  0  0  0  0
 46 51  1  0  0  0  0
 47 71  1  0  0  0  0
 48 51  1  0  0  0  0
 48 71  1  0  0  0  0
 49 75  1  0  0  0  0
 50 70  1  0  0  0  0
 51 69  1  0  0  0  0
 54 61  1  0  0  0  0
 55 66  1  0  0  0  0
 56 67  1  0  0  0  0
 57 67  1  0  0  0  0
 58 67  1  0  0  0  0
 59 78  1  0  0  0  0
 60 62  1  0  0  0  0
 61 63  1  0  0  0  0
 62 64  1  0  0  0  0
 63 77  1  0  0  0  0
 64 86  1  0  0  0  0
 65 67  1  0  0  0  0
 65 76  1  0  0  0  0
 66 78  1  0  0  0  0
 68 69  1  0  0  0  0
M  CHG  1  78   1
M  ISO  4  39 100  64 101  74 100  86 101
M  END
> <Batch ID>
0008

> <Smiles>
CCCN(C(=O)CC[101CH2:1][101O:1]c1ccc2c(c1)CN(C(=O)C(NC(=O)C(C)NC)C(C)(C)C)C(C(=O)NC1CCCc3ccccc31)C2)c1cc(C)c([100NH:0][100C:0](=O)N2CCCC(n3nc(-c4ccc(Oc5ccc(F)cc5F)cc4)c(C(N)=O)c3N)C2)cc1C

> <Shape>
0.221

> <Color>
0.074

> <Negative vol penalty>
0.000

$$$$

  -OEChem-04052315363D

 84 92  0     1  0  0  0  0  0999 V2000
  -27.5957  -35.8384   21.8424 C   0  0  0  0  0  0  0  0  0  0  0  0
  -28.3304  -34.7800   21.3177 C   0  0  0  0  0  0  0  0  0  0  0  0
  -22.3201  -10.4224   22.6104 C   0  0  0  0  0  0  0  0  0  0  0  0
  -23.7957  -10.1607   20.7153 C   0  0  0  0  0  0  0  0  0  0  0  0
  -29.3138  -19.8704   19.8794 C   0  0  0  0  0  0  0  0  0  0  0  0
  -26.7412  -35.6242   22.9231 C   0  0  0  0  0  0  0  0  0  0  0  0
  -28.2120  -33.5069   21.8741 C   0  0  0  0  0  0  0  0  0  0  0  0
  -28.4819  -28.1542   18.9108 C   0  0  0  0  0  0  0  0  0  0  0  0
  -28.2692  -18.9482   19.9410 C   0  0  0  0  0  0  0  0  0  0  0  0
  -21.8691   -9.1136   22.4400 C   0  0  0  0  0  0  0  0  0  0  0  0
  -23.3447   -8.8518   20.5449 C   0  0  0  0  0  0  0  0  0  0  0  0
  -29.5107  -27.2296   18.7361 C   0  0  0  0  0  0  0  0  0  0  0  0
  -22.9579   -5.9916   23.1477 C   0  0  0  0  0  0  0  0  0  0  0  0
  -22.8481   -5.1906   24.2843 C   0  0  0  0  0  0  0  0  0  0  0  0
  -28.6678  -25.9489   20.5985 C   0  0  0  0  0  0  0  0  0  0  0  0
  -26.7367  -20.6299   19.1282 C   0  0  0  0  0  0  0  0  0  0  0  0
  -20.4845   -4.9185   23.8644 C   0  0  0  0  0  0  0  0  0  0  0  0
  -23.2834  -10.9460   21.7480 C   0  0  0  0  0  0  0  0  0  0  0  0
  -29.0700  -21.1724   19.4422 C   0  0  0  0  0  0  0  0  0  0  0  0
  -24.8353  -12.7280   22.7091 C   0  0  0  0  0  0  0  0  0  0  0  0
  -26.6049  -34.3459   23.4869 C   0  0  0  0  0  0  0  0  0  0  0  0
  -27.5432  -27.9886   19.9393 C   0  0  0  0  0  0  0  0  0  0  0  0
  -27.3559  -33.2757   22.9643 C   0  0  0  0  0  0  0  0  0  0  0  0
  -27.6266  -26.8714   20.7825 C   0  0  0  0  0  0  0  0  0  0  0  0
  -26.9806  -19.3280   19.5654 C   0  0  0  0  0  0  0  0  0  0  0  0
  -22.3813   -8.3282   21.4073 C   0  0  0  0  0  0  0  0  0  0  0  0
  -29.6055  -26.1283   19.5818 C   0  0  0  0  0  0  0  0  0  0  0  0
  -21.8309   -6.2562   22.3694 C   0  0  0  0  0  0  0  0  0  0  0  0
  -27.7814  -21.5521   19.0666 C   0  0  0  0  0  0  0  0  0  0  0  0
  -21.6115   -4.6541   24.6427 C   0  0  0  0  0  0  0  0  0  0  0  0
  -20.5942   -5.7196   22.7278 C   0  0  0  0  0  0  0  0  0  0  0  0
  -23.7493  -12.2982   21.9231 C   0  0  0  0  0  0  0  0  0  0  0  0
  -24.8626  -14.0909   22.5410 C   0  0  0  0  0  0  0  0  0  0  0  0
  -30.1971  -22.1385   19.3844 C   0  0  0  0  0  0  0  0  0  0  0  0
  -25.7387  -11.9637   23.5186 C   0  0  0  0  0  0  0  0  0  0  0  0
  -26.7092  -29.6667   22.5068 C   0  0  0  0  0  0  0  0  0  0  0  0
  -24.3892  -27.4121   22.7461 C   0  0  0  0  0  0  0  0  0  0  0  0
  -23.3357  -24.2499   22.0130 C   0  0  0  0  0  0  0  0  0  0  0  0
  -24.5829  -18.6047   19.2928 C   0  0  0  0  0  0  0  0  0  0  0  0
  -25.7045  -34.1729   24.6845 C   0  0  0  0  0  0  0  0  0  0  0  0
  -26.4237  -28.9806   20.0977 C   0  0  0  0  0  0  0  0  0  0  0  0
  -26.6320  -26.6370   21.8890 C   0  0  0  0  0  0  0  0  0  0  0  0
  -25.3531  -32.7164   24.9770 C   0  0  0  0  0  0  0  0  0  0  0  0
  -21.4999  -17.2144   20.4061 C   0  0  0  0  0  0  0  0  0  0  0  0
  -26.6032  -31.8441   24.9212 C   0  0  0  0  0  0  0  0  0  0  0  0
  -21.8996  -15.8468   20.9646 C   0  0  0  0  0  0  0  0  0  0  0  0
  -22.3202  -17.5847   19.1716 C   0  0  0  0  0  0  0  0  0  0  0  0
  -24.1758  -16.1402   19.9063 C   0  0  0  0  0  0  0  0  0  0  0  0
  -27.2358  -31.8751   23.5247 C   0  0  1  0  0  0  0  0  0  0  0  0
  -25.8245  -28.9864   21.5007 C   0  0  1  0  0  0  0  0  0  0  0  0
  -23.4216  -15.7526   21.1888 C   0  0  2  0  0  0  0  0  0  0  0  0
  -21.7775  -22.2875   21.8775 C   0  0  0  0  0  0  0  0  0  0  0  0
  -25.3213  -26.9366   25.6123 C   0  0  0  0  0  0  0  0  0  0  0  0
  -24.0504  -24.7795   25.5938 C   0  0  0  0  0  0  0  0  0  0  0  0
  -22.8387  -26.9415   25.3098 C   0  0  0  0  0  0  0  0  0  0  0  0
  -22.2335  -25.1562   19.4201 C   0  0  0  0  0  0  0  0  0  0  0  0
  -26.1770  -23.1183   18.2738 C   0  0  0  0  0  0  0  0  0  0  0  0
  -31.5549  -23.6029   17.9120 C   0  0  0  0  0  0  0  0  0  0  0  0
  -31.1031  -25.0417   18.0877 C   0  0  0  0  0  0  0  0  0  1  0  0
  -24.2718  -26.0662   23.4198 C   0  0  1  0  0  0  0  0  0  0  0  0
  -22.0218  -23.7290   21.4590 C   0  0  2  0  0  0  0  0  0  0  0  0
  -24.1406  -26.1861   24.9644 C   0  0  0  0  0  0  0  0  0  0  0  0
  -23.1313  -13.3063   21.3021 N   0  0  0  0  0  0  0  0  0  0  0  0
  -23.8312  -14.3832   21.6977 N   0  0  0  0  0  0  0  0  0  0  0  0
  -25.5593  -27.6384   22.0075 N   0  0  0  0  0  0  0  0  0  0  0  0
  -23.7520  -17.4767   19.4599 N   0  0  0  0  0  0  0  0  0  0  0  0
  -25.6678  -15.0558   23.0338 N   0  0  0  0  0  0  0  0  0  0  0  0
  -25.5688  -10.5738   23.5792 N   0  0  0  0  0  0  0  0  0  0  0  0
  -25.9194  -18.3911   19.6286 N   0  0  0  0  0  0  0  0  0  0  0  0
  -30.4790  -22.6736   18.1337 N   0  0  0  0  0  0  0  0  0  0  0  0
  -26.4949  -31.0275   22.6153 N   0  0  0  0  0  0  0  0  0  0  0  0
  -23.1544  -25.3838   22.7763 N   0  0  0  0  0  0  0  0  0  0  0  0
  -22.0262  -23.7918   19.9701 N   0  3  0  0  0  0  0  0  0  0  0  0
  -30.8209  -22.3948   20.4109 O   0  0  0  0  0  0  0  0  0  0  0  0
  -26.6589  -12.4992   24.1819 O   0  0  0  0  0  0  0  0  0  0  0  0
  -27.5247  -29.0056   23.1390 O   0  0  0  0  0  0  0  0  0  0  0  0
  -23.4732  -28.2297   22.8647 O   0  0  0  0  0  0  0  0  0  0  0  0
  -24.4144  -23.7034   21.7937 O   0  0  0  0  0  0  0  0  0  0  0  0
  -24.1363  -19.6883   18.9079 O   0  0  0  0  0  0  0  0  0  0  0  0
  -21.9416   -7.0509   21.2408 O   0  0  0  0  0  0  0  0  0  0  0  0
  -27.5231  -22.8196   18.6371 O   0  0  0  0  0  0  0  0  0  0  0  0
  -30.6091  -25.2247   19.4139 O   0  0  0  0  0  0  0  0  0  1  0  0
  -21.5066   -3.8836   25.7334 F   0  0  0  0  0  0  0  0  0  0  0  0
  -19.5083   -5.9692   21.9834 F   0  0  0  0  0  0  0  0  0  0  0  0
  1  2  1  0  0  0  0
  1  6  2  0  0  0  0
  2  7  2  0  0  0  0
  3 10  2  0  0  0  0
  3 18  1  0  0  0  0
  4 11  1  0  0  0  0
  4 18  2  0  0  0  0
  5  9  2  0  0  0  0
  5 19  1  0  0  0  0
  6 21  1  0  0  0  0
  7 23  1  0  0  0  0
  8 12  2  0  0  0  0
  8 22  1  0  0  0  0
  9 25  1  0  0  0  0
 10 26  1  0  0  0  0
 11 26  2  0  0  0  0
 12 27  1  0  0  0  0
 13 14  2  0  0  0  0
 13 28  1  0  0  0  0
 14 30  1  0  0  0  0
 15 24  1  0  0  0  0
 15 27  2  0  0  0  0
 16 25  2  0  0  0  0
 16 29  1  0  0  0  0
 17 30  2  0  0  0  0
 17 31  1  0  0  0  0
 18 32  1  0  0  0  0
 19 29  2  0  0  0  0
 19 34  1  0  0  0  0
 20 32  1  0  0  0  0
 20 33  2  0  0  0  0
 20 35  1  0  0  0  0
 21 23  2  0  0  0  0
 21 40  1  0  0  0  0
 22 24  2  0  0  0  0
 22 41  1  0  0  0  0
 23 49  1  0  0  0  0
 24 42  1  0  0  0  0
 25 69  1  0  0  0  0
 26 80  1  0  0  0  0
 27 82  1  0  0  0  0
 28 31  2  0  0  0  0
 28 80  1  0  0  0  0
 29 81  1  0  0  0  0
 30 83  1  0  0  0  0
 31 84  1  0  0  0  0
 32 63  2  0  0  0  0
 33 64  1  0  0  0  0
 33 67  1  0  0  0  0
 34 70  1  0  0  0  0
 34 74  2  0  0  0  0
 35 68  1  0  0  0  0
 35 75  2  0  0  0  0
 36 50  1  0  0  0  0
 36 71  1  0  0  0  0
 36 76  2  0  0  0  0
 37 60  1  0  0  0  0
 37 65  1  0  0  0  0
 37 77  2  0  0  0  0
 38 61  1  0  0  0  0
 38 72  1  0  0  0  0
 38 78  2  0  0  0  0
 39 66  1  0  0  0  0
 39 69  1  0  0  0  0
 39 79  2  0  0  0  0
 40 43  1  0  0  0  0
 41 50  1  0  0  0  0
 42 65  1  0  0  0  0
 43 45  1  0  0  0  0
 44 46  1  0  0  0  0
 44 47  1  0  0  0  0
 45 49  1  0  0  0  0
 46 51  1  0  0  0  0
 47 66  1  0  0  0  0
 48 51  1  0  0  0  0
 48 66  1  0  0  0  0
 49 71  1  0  0  0  0
 50 65  1  0  0  0  0
 51 64  1  0  0  0  0
 52 61  1  0  0  0  0
 53 62  1  0  0  0  0
 54 62  1  0  0  0  0
 55 62  1  0  0  0  0
 56 73  1  0  0  0  0
 57 81  1  0  0  0  0
 58 59  1  0  0  0  0
 58 70  1  0  0  0  0
 59 82  1  0  0  0  0
 60 62  1  0  0  0  0
 60 72  1  0  0  0  0
 61 73  1  0  0  0  0
 63 64  1  0  0  0  0
M  CHG  1  73   1
M  ISO  4  39 100  59 101  69 100  82 101
M  END
> <Batch ID>
0008

> <Smiles>
CNC(C)C(=O)NC(C(=O)N1Cc2cc([101O:1][101CH2:1]CNC(=O)c3ccc([100NH:0][100C:0](=O)N4CCCC(n5nc(-c6ccc(Oc7ccc(F)cc7F)cc6)c(C(N)=O)c5N)C4)cc3OC)ccc2CC1C(=O)NC1CCCc2ccccc21)C(C)(C)C

> <Shape>
0.237

> <Color>
0.085

> <Negative vol penalty>
0.000

$$$$

  -OEChem-04052315363D

 84 92  0     1  0  0  0  0  0999 V2000
  -30.3428  -33.7548   17.6521 C   0  0  0  0  0  0  0  0  0  0  0  0
  -30.7173  -32.7333   18.5191 C   0  0  0  0  0  0  0  0  0  0  0  0
  -22.9782   -9.9182   19.9828 C   0  0  0  0  0  0  0  0  0  0  0  0
  -23.7154   -9.9453   22.2834 C   0  0  0  0  0  0  0  0  0  0  0  0
  -29.0546  -33.7782   17.1194 C   0  0  0  0  0  0  0  0  0  0  0  0
  -29.8033  -31.7351   18.8548 C   0  0  0  0  0  0  0  0  0  0  0  0
  -31.0279  -25.8310   19.9262 C   0  0  0  0  0  0  0  0  0  0  0  0
  -22.2021   -8.7892   20.2448 C   0  0  0  0  0  0  0  0  0  0  0  0
  -22.9392   -8.8163   22.5454 C   0  0  0  0  0  0  0  0  0  0  0  0
  -31.2023  -25.1083   21.1056 C   0  0  0  0  0  0  0  0  0  0  0  0
  -23.1490   -5.4787   22.0480 C   0  0  0  0  0  0  0  0  0  0  0  0
  -23.7304   -4.4504   22.7897 C   0  0  0  0  0  0  0  0  0  0  0  0
  -28.8901  -24.4256   21.0221 C   0  0  0  0  0  0  0  0  0  0  0  0
  -32.0000  -18.2233   24.1684 C   0  0  0  0  0  0  0  0  0  0  0  0
  -32.1142  -16.4403   22.5421 C   0  0  0  0  0  0  0  0  0  0  0  0
  -22.0173   -4.6977   24.4754 C   0  0  0  0  0  0  0  0  0  0  0  0
  -23.7349  -10.4962   21.0021 C   0  0  0  0  0  0  0  0  0  0  0  0
  -24.1436  -13.0092   20.8425 C   0  0  0  0  0  0  0  0  0  0  0  0
  -28.1274  -32.7745   17.4412 C   0  0  0  0  0  0  0  0  0  0  0  0
  -29.7784  -25.8655   19.2907 C   0  0  0  0  0  0  0  0  0  0  0  0
  -28.5010  -31.7459   18.3270 C   0  0  0  0  0  0  0  0  0  0  0  0
  -28.7032  -25.1475   19.8333 C   0  0  0  0  0  0  0  0  0  0  0  0
  -32.7504  -17.3098   23.4281 C   0  0  0  0  0  0  0  0  0  0  0  0
  -30.6135  -18.2673   24.0228 C   0  0  0  0  0  0  0  0  0  0  0  0
  -30.7277  -16.4843   22.3965 C   0  0  0  0  0  0  0  0  0  0  0  0
  -22.1826   -8.2383   21.5261 C   0  0  0  0  0  0  0  0  0  0  0  0
  -30.1326  -24.4078   21.6553 C   0  0  0  0  0  0  0  0  0  0  0  0
  -22.0017   -6.1166   22.5200 C   0  0  0  0  0  0  0  0  0  0  0  0
  -23.1646   -4.0599   24.0034 C   0  0  0  0  0  0  0  0  0  0  0  0
  -21.4359   -5.7260   23.7337 C   0  0  0  0  0  0  0  0  0  0  0  0
  -29.9773  -17.3978   23.1368 C   0  0  0  0  0  0  0  0  0  0  0  0
  -24.5373  -11.6621   20.7320 C   0  0  0  0  0  0  0  0  0  0  0  0
  -25.2585  -13.7237   20.4777 C   0  0  0  0  0  0  0  0  0  0  0  0
  -22.8829  -13.5649   21.2394 C   0  0  0  0  0  0  0  0  0  0  0  0
  -27.6871  -28.1503   18.5768 C   0  0  0  0  0  0  0  0  0  0  0  0
  -26.1682  -25.7369   17.0306 C   0  0  0  0  0  0  0  0  0  0  0  0
  -30.1913  -21.5212   23.8490 C   0  0  0  0  0  0  0  0  0  0  0  0
  -25.6247  -22.3817   16.7234 C   0  0  0  0  0  0  0  0  0  0  0  0
  -30.7480  -14.6304   20.6909 C   0  0  0  0  0  0  0  0  0  0  0  0
  -26.7315  -32.8681   16.8778 C   0  0  0  0  0  0  0  0  0  0  0  0
  -29.6136  -26.6280   18.0047 C   0  0  0  0  0  0  0  0  0  0  0  0
  -27.3467  -25.1357   19.1790 C   0  0  0  0  0  0  0  0  0  0  0  0
  -25.9412  -31.5668   16.9891 C   0  0  0  0  0  0  0  0  0  0  0  0
  -29.5945  -12.2054   18.3529 C   0  0  0  0  0  0  0  0  0  0  0  0
  -26.0831  -30.9740   18.3874 C   0  0  0  0  0  0  0  0  0  0  0  0
  -28.1436  -11.9587   18.7725 C   0  0  0  0  0  0  0  0  0  0  0  0
  -30.5034  -12.4313   19.5598 C   0  0  0  0  0  0  0  0  0  0  0  0
  -28.6024  -13.2288   20.9088 C   0  0  0  0  0  0  0  0  0  0  0  0
  -27.5457  -30.6316   18.6956 C   0  0  1  0  0  0  0  0  0  0  0  0
  -28.1651  -27.0126   17.7196 C   0  0  1  0  0  0  0  0  0  0  0  0
  -27.6371  -13.0603   19.7241 C   0  0  2  0  0  0  0  0  0  0  0  0
  -34.2328  -17.2639   23.5835 C   0  0  0  0  0  0  0  0  0  0  0  0
  -24.3018  -20.7140   15.3945 C   0  0  0  0  0  0  0  0  0  0  0  0
  -23.6628  -26.4688   18.6109 C   0  0  0  0  0  0  0  0  0  0  0  0
  -22.6985  -24.2469   17.9770 C   0  0  0  0  0  0  0  0  0  0  0  0
  -23.2548  -25.9140   16.2067 C   0  0  0  0  0  0  0  0  0  0  0  0
  -28.0768  -21.0807   15.6967 C   0  0  0  0  0  0  0  0  0  0  0  0
  -29.8473  -19.2664   24.8406 C   0  0  0  0  0  0  0  0  0  0  0  0
  -29.4867  -22.5426   22.9818 C   0  0  0  0  0  0  0  0  0  1  0  0
  -25.1259  -24.7128   17.4101 C   0  0  1  0  0  0  0  0  0  0  0  0
  -25.6165  -21.4696   15.5100 C   0  0  2  0  0  0  0  0  0  0  0  0
  -23.7104  -25.3372   17.5648 C   0  0  0  0  0  0  0  0  0  0  0  0
  -25.8033  -11.5263   20.3285 N   0  0  0  0  0  0  0  0  0  0  0  0
  -26.2148  -12.7973   20.1821 N   0  0  0  0  0  0  0  0  0  0  0  0
  -27.2340  -25.9015   17.9266 N   0  0  0  0  0  0  0  0  0  0  0  0
  -29.9628  -13.4913   20.4136 N   0  0  0  0  0  0  0  0  0  0  0  0
  -25.5042  -15.0478   20.3841 N   0  0  0  0  0  0  0  0  0  0  0  0
  -21.8444  -12.6883   21.5817 N   0  0  0  0  0  0  0  0  0  0  0  0
  -30.1170  -15.5859   21.4867 N   0  0  0  0  0  0  0  0  0  0  0  0
  -27.9259  -29.4000   18.0376 N   0  0  0  0  0  0  0  0  0  0  0  0
  -29.4112  -20.3929   24.0482 N   0  0  0  0  0  0  0  0  0  0  0  0
  -25.2068  -23.6569   16.4066 N   0  0  0  0  0  0  0  0  0  0  0  0
  -26.7233  -20.4757   15.6015 N   0  3  0  0  0  0  0  0  0  0  0  0
  -22.6783  -14.8021   21.2732 O   0  0  0  0  0  0  0  0  0  0  0  0
  -27.1407  -27.9120   19.6475 O   0  0  0  0  0  0  0  0  0  0  0  0
  -26.0452  -26.3623   15.9746 O   0  0  0  0  0  0  0  0  0  0  0  0
  -31.3167  -21.7010   24.3061 O   0  0  0  0  0  0  0  0  0  0  0  0
  -25.9641  -22.0001   17.8413 O   0  0  0  0  0  0  0  0  0  0  0  0
  -31.8857  -14.7616   20.2321 O   0  0  0  0  0  0  0  0  0  0  0  0
  -21.4252   -7.1367   21.7821 O   0  0  0  0  0  0  0  0  0  0  0  0
  -30.2999  -23.7020   22.8067 O   0  0  0  0  0  0  0  0  0  1  0  0
  -23.7222   -3.0714   24.7148 F   0  0  0  0  0  0  0  0  0  0  0  0
  -20.3331   -6.3342   24.1917 F   0  0  0  0  0  0  0  0  0  0  0  0
  -28.2537  -17.4571   22.9608 Cl  0  0  0  0  0  0  0  0  0  0  0  0
  1  2  1  0  0  0  0
  1  5  2  0  0  0  0
  2  6  2  0  0  0  0
  3  8  2  0  0  0  0
  3 17  1  0  0  0  0
  4  9  1  0  0  0  0
  4 17  2  0  0  0  0
  5 19  1  0  0  0  0
  6 21  1  0  0  0  0
  7 10  2  0  0  0  0
  7 20  1  0  0  0  0
  8 26  1  0  0  0  0
  9 26  2  0  0  0  0
 10 27  1  0  0  0  0
 11 12  2  0  0  0  0
 11 28  1  0  0  0  0
 12 29  1  0  0  0  0
 13 22  1  0  0  0  0
 13 27  2  0  0  0  0
 14 23  2  0  0  0  0
 14 24  1  0  0  0  0
 15 23  1  0  0  0  0
 15 25  2  0  0  0  0
 16 29  2  0  0  0  0
 16 30  1  0  0  0  0
 17 32  1  0  0  0  0
 18 32  1  0  0  0  0
 18 33  2  0  0  0  0
 18 34  1  0  0  0  0
 19 21  2  0  0  0  0
 19 40  1  0  0  0  0
 20 22  2  0  0  0  0
 20 41  1  0  0  0  0
 21 49  1  0  0  0  0
 22 42  1  0  0  0  0
 23 52  1  0  0  0  0
 24 31  2  0  0  0  0
 24 58  1  0  0  0  0
 25 31  1  0  0  0  0
 25 69  1  0  0  0  0
 26 80  1  0  0  0  0
 27 81  1  0  0  0  0
 28 30  2  0  0  0  0
 28 80  1  0  0  0  0
 29 82  1  0  0  0  0
 30 83  1  0  0  0  0
 31 84  1  0  0  0  0
 32 63  2  0  0  0  0
 33 64  1  0  0  0  0
 33 67  1  0  0  0  0
 34 68  1  0  0  0  0
 34 74  2  0  0  0  0
 35 50  1  0  0  0  0
 35 70  1  0  0  0  0
 35 75  2  0  0  0  0
 36 60  1  0  0  0  0
 36 65  1  0  0  0  0
 36 76  2  0  0  0  0
 37 59  1  0  0  0  0
 37 71  1  0  0  0  0
 37 77  2  0  0  0  0
 38 61  1  0  0  0  0
 38 72  1  0  0  0  0
 38 78  2  0  0  0  0
 39 66  1  0  0  0  0
 39 69  1  0  0  0  0
 39 79  2  0  0  0  0
 40 43  1  0  0  0  0
 41 50  1  0  0  0  0
 42 65  1  0  0  0  0
 43 45  1  0  0  0  0
 44 46  1  0  0  0  0
 44 47  1  0  0  0  0
 45 49  1  0  0  0  0
 46 51  1  0  0  0  0
 47 66  1  0  0  0  0
 48 51  1  0  0  0  0
 48 66  1  0  0  0  0
 49 70  1  0  0  0  0
 50 65  1  0  0  0  0
 51 64  1  0  0  0  0
 53 61  1  0  0  0  0
 54 62  1  0  0  0  0
 55 62  1  0  0  0  0
 56 62  1  0  0  0  0
 57 73  1  0  0  0  0
 58 71  1  0  0  0  0
 59 81  1  0  0  0  0
 60 62  1  0  0  0  0
 60 72  1  0  0  0  0
 61 73  1  0  0  0  0
 63 64  1  0  0  0  0
M  CHG  1  73   1
M  ISO  4  39 100  59 101  69 100  81 101
M  END
> <Batch ID>
0008

> <Smiles>
CNC(C)C(=O)NC(C(=O)N1Cc2cc([101O:1][101CH2:1]C(=O)NCc3cc(C)cc([100NH:0][100C:0](=O)N4CCCC(n5nc(-c6ccc(Oc7ccc(F)cc7F)cc6)c(C(N)=O)c5N)C4)c3Cl)ccc2CC1C(=O)NC1CCCc2ccccc21)C(C)(C)C

> <Shape>
0.224

> <Color>
0.198

> <Negative vol penalty>
0.000

$$$$

  -OEChem-04052315363D

 85 93  0     1  0  0  0  0  0999 V2000
  -23.6351  -30.8047   20.2921 C   0  0  0  0  0  0  0  0  0  0  0  0
  -23.7982  -29.4302   20.4316 C   0  0  0  0  0  0  0  0  0  0  0  0
  -22.9671   -9.8606   20.0459 C   0  0  0  0  0  0  0  0  0  0  0  0
  -23.6148  -10.0622   22.3647 C   0  0  0  0  0  0  0  0  0  0  0  0
  -24.3852  -31.6779   21.0787 C   0  0  0  0  0  0  0  0  0  0  0  0
  -24.7122  -28.9280   21.3572 C   0  0  0  0  0  0  0  0  0  0  0  0
  -24.1650  -23.8015   24.6626 C   0  0  0  0  0  0  0  0  0  0  0  0
  -22.1719   -8.7597   20.3638 C   0  0  0  0  0  0  0  0  0  0  0  0
  -22.8195   -8.9613   22.6826 C   0  0  0  0  0  0  0  0  0  0  0  0
  -24.6791  -22.5167   24.4929 C   0  0  0  0  0  0  0  0  0  0  0  0
  -23.0198   -5.5941   22.4536 C   0  0  0  0  0  0  0  0  0  0  0  0
  -23.5633   -4.6233   23.2949 C   0  0  0  0  0  0  0  0  0  0  0  0
  -26.5061  -23.0589   25.9718 C   0  0  0  0  0  0  0  0  0  0  0  0
  -31.8199  -18.4457   23.9436 C   0  0  0  0  0  0  0  0  0  0  0  0
  -32.0494  -16.5422   22.4736 C   0  0  0  0  0  0  0  0  0  0  0  0
  -29.8703  -17.5078   22.8683 C   0  0  0  0  0  0  0  0  0  0  0  0
  -21.7884   -5.0101   24.8878 C   0  0  0  0  0  0  0  0  0  0  0  0
  -23.6887  -10.5119   21.0464 C   0  0  0  0  0  0  0  0  0  0  0  0
  -24.1247  -13.0026   20.7089 C   0  0  0  0  0  0  0  0  0  0  0  0
  -25.3019  -31.1861   22.0213 C   0  0  0  0  0  0  0  0  0  0  0  0
  -24.8247  -24.7297   25.4809 C   0  0  0  0  0  0  0  0  0  0  0  0
  -25.4762  -29.7955   22.1563 C   0  0  0  0  0  0  0  0  0  0  0  0
  -25.9970  -24.3540   26.1523 C   0  0  0  0  0  0  0  0  0  0  0  0
  -32.6228  -17.4893   23.3221 C   0  0  0  0  0  0  0  0  0  0  0  0
  -30.4436  -18.4549   23.7168 C   0  0  0  0  0  0  0  0  0  0  0  0
  -30.6731  -16.5514   22.2467 C   0  0  0  0  0  0  0  0  0  0  0  0
  -22.0980   -8.3100   21.6821 C   0  0  0  0  0  0  0  0  0  0  0  0
  -25.8513  -22.1461   25.1453 C   0  0  0  0  0  0  0  0  0  0  0  0
  -21.8607   -6.2729   22.8294 C   0  0  0  0  0  0  0  0  0  0  0  0
  -22.9476   -4.3313   24.5120 C   0  0  0  0  0  0  0  0  0  0  0  0
  -21.2450   -5.9809   24.0465 C   0  0  0  0  0  0  0  0  0  0  0  0
  -24.5108  -11.6488   20.7186 C   0  0  0  0  0  0  0  0  0  0  0  0
  -25.2589  -13.6805   20.3341 C   0  0  0  0  0  0  0  0  0  0  0  0
  -22.8544  -13.5944   21.0119 C   0  0  0  0  0  0  0  0  0  0  0  0
  -26.1892  -27.5620   25.0122 C   0  0  0  0  0  0  0  0  0  0  0  0
  -26.4814  -27.5201   28.2426 C   0  0  0  0  0  0  0  0  0  0  0  0
  -28.2518  -19.5779   24.2352 C   0  0  0  0  0  0  0  0  0  0  0  0
  -26.6600  -25.6810   31.1118 C   0  0  0  0  0  0  0  0  0  0  0  0
  -30.7437  -14.5706   20.6918 C   0  0  0  0  0  0  0  0  0  0  0  0
  -26.1244  -32.1695   22.8157 C   0  0  0  0  0  0  0  0  0  0  0  0
  -24.2428  -26.1031   25.6747 C   0  0  0  0  0  0  0  0  0  0  0  0
  -26.7322  -25.3067   27.0580 C   0  0  0  0  0  0  0  0  0  0  0  0
  -26.8003  -31.5517   24.0370 C   0  0  0  0  0  0  0  0  0  0  0  0
  -29.6609  -11.9778   18.5050 C   0  0  0  0  0  0  0  0  0  0  0  0
  -27.4700  -30.2323   23.6662 C   0  0  0  0  0  0  0  0  0  0  0  0
  -28.1928  -11.7725   18.8851 C   0  0  0  0  0  0  0  0  0  0  0  0
  -30.5242  -12.2917   19.7256 C   0  0  0  0  0  0  0  0  0  0  0  0
  -28.5794  -13.2020   20.9331 C   0  0  0  0  0  0  0  0  0  0  0  0
  -26.4399  -29.2120   23.1668 C   0  0  1  0  0  0  0  0  0  0  0  0
  -25.2757  -27.1316   26.1248 C   0  0  1  0  0  0  0  0  0  0  0  0
  -27.6592  -12.9474   19.7280 C   0  0  2  0  0  0  0  0  0  0  0  0
  -26.9365  -25.9250   33.5940 C   0  0  0  0  0  0  0  0  0  0  0  0
  -29.4587  -28.0637   27.8551 C   0  0  0  0  0  0  0  0  0  0  0  0
  -29.8251  -27.3596   30.2296 C   0  0  0  0  0  0  0  0  0  0  0  0
  -28.3993  -29.3432   29.7246 C   0  0  0  0  0  0  0  0  0  0  0  0
  -24.0286  -24.4357   31.6442 C   0  0  0  0  0  0  0  0  0  0  0  0
  -27.7715  -20.7446   25.0783 C   0  0  0  0  0  0  0  0  0  1  0  0
  -27.5249  -27.0263   29.2153 C   0  0  1  0  0  0  0  0  0  0  0  0
  -25.9465  -25.8214   32.4443 C   0  0  2  0  0  0  0  0  0  0  0  0
  -34.0943  -17.4790   23.5661 C   0  0  0  0  0  0  0  0  0  0  0  0
  -28.7895  -27.9306   29.2377 C   0  0  0  0  0  0  0  0  0  0  0  0
  -25.7903  -11.4751   20.3768 N   0  0  0  0  0  0  0  0  0  0  0  0
  -26.2180  -12.7286   20.1488 N   0  0  0  0  0  0  0  0  0  0  0  0
  -26.1269  -26.6401   27.2102 N   0  0  0  0  0  0  0  0  0  0  0  0
  -29.9601  -13.4178   20.4729 N   0  0  0  0  0  0  0  0  0  0  0  0
  -25.5194  -14.9919   20.1480 N   0  0  0  0  0  0  0  0  0  0  0  0
  -21.7959  -12.7527   21.3799 N   0  0  0  0  0  0  0  0  0  0  0  0
  -29.6295  -19.4253   24.3477 N   0  0  0  0  0  0  0  0  0  0  0  0
  -30.0905  -15.5885   21.3859 N   0  0  0  0  0  0  0  0  0  0  0  0
  -25.7181  -28.6357   24.2810 N   0  0  0  0  0  0  0  0  0  0  0  0
  -26.8549  -26.9040   30.5055 N   0  0  0  0  0  0  0  0  0  0  0  0
  -25.0660  -24.6438   32.6870 N   0  3  0  0  0  0  0  0  0  0  0  0
  -22.6592  -14.8315   20.9418 O   0  0  0  0  0  0  0  0  0  0  0  0
  -27.2441  -26.9652   24.8316 O   0  0  0  0  0  0  0  0  0  0  0  0
  -25.9935  -28.6424   28.3973 O   0  0  0  0  0  0  0  0  0  0  0  0
  -27.4736  -18.9036   23.5687 O   0  0  0  0  0  0  0  0  0  0  0  0
  -27.0129  -24.5954   30.6563 O   0  0  0  0  0  0  0  0  0  0  0  0
  -31.8994  -14.6596   20.2693 O   0  0  0  0  0  0  0  0  0  0  0  0
  -21.3219   -7.2359   21.9927 O   0  0  0  0  0  0  0  0  0  0  0  0
  -26.3556  -20.8929   24.9809 O   0  0  0  0  0  0  0  0  0  1  0  0
  -23.4688   -3.3979   25.3191 F   0  0  0  0  0  0  0  0  0  0  0  0
  -20.1305   -6.6290   24.4124 F   0  0  0  0  0  0  0  0  0  0  0  0
  -34.5148  -18.4608   24.4174 F   0  0  0  0  0  0  0  0  0  0  0  0
  -34.5493  -16.3136   24.1140 F   0  0  0  0  0  0  0  0  0  0  0  0
  -34.8173  -17.6524   22.4216 F   0  0  0  0  0  0  0  0  0  0  0  0
  1  2  1  0  0  0  0
  1  5  2  0  0  0  0
  2  6  2  0  0  0  0
  3  8  2  0  0  0  0
  3 18  1  0  0  0  0
  4  9  1  0  0  0  0
  4 18  2  0  0  0  0
  5 20  1  0  0  0  0
  6 22  1  0  0  0  0
  7 10  2  0  0  0  0
  7 21  1  0  0  0  0
  8 27  1  0  0  0  0
  9 27  2  0  0  0  0
 10 28  1  0  0  0  0
 11 12  2  0  0  0  0
 11 29  1  0  0  0  0
 12 30  1  0  0  0  0
 13 23  1  0  0  0  0
 13 28  2  0  0  0  0
 14 24  1  0  0  0  0
 14 25  2  0  0  0  0
 15 24  2  0  0  0  0
 15 26  1  0  0  0  0
 16 25  1  0  0  0  0
 16 26  2  0  0  0  0
 17 30  2  0  0  0  0
 17 31  1  0  0  0  0
 18 32  1  0  0  0  0
 19 32  1  0  0  0  0
 19 33  2  0  0  0  0
 19 34  1  0  0  0  0
 20 22  2  0  0  0  0
 20 40  1  0  0  0  0
 21 23  2  0  0  0  0
 21 41  1  0  0  0  0
 22 49  1  0  0  0  0
 23 42  1  0  0  0  0
 24 60  1  0  0  0  0
 25 68  1  0  0  0  0
 26 69  1  0  0  0  0
 27 79  1  0  0  0  0
 28 80  1  0  0  0  0
 29 31  2  0  0  0  0
 29 79  1  0  0  0  0
 30 81  1  0  0  0  0
 31 82  1  0  0  0  0
 32 62  2  0  0  0  0
 33 63  1  0  0  0  0
 33 66  1  0  0  0  0
 34 67  1  0  0  0  0
 34 73  2  0  0  0  0
 35 50  1  0  0  0  0
 35 70  1  0  0  0  0
 35 74  2  0  0  0  0
 36 58  1  0  0  0  0
 36 64  1  0  0  0  0
 36 75  2  0  0  0  0
 37 57  1  0  0  0  0
 37 68  1  0  0  0  0
 37 76  2  0  0  0  0
 38 59  1  0  0  0  0
 38 71  1  0  0  0  0
 38 77  2  0  0  0  0
 39 65  1  0  0  0  0
 39 69  1  0  0  0  0
 39 78  2  0  0  0  0
 40 43  1  0  0  0  0
 41 50  1  0  0  0  0
 42 64  1  0  0  0  0
 43 45  1  0  0  0  0
 44 46  1  0  0  0  0
 44 47  1  0  0  0  0
 45 49  1  0  0  0  0
 46 51  1  0  0  0  0
 47 65  1  0  0  0  0
 48 51  1  0  0  0  0
 48 65  1  0  0  0  0
 49 70  1  0  0  0  0
 50 64  1  0  0  0  0
 51 63  1  0  0  0  0
 52 59  1  0  0  0  0
 53 61  1  0  0  0  0
 54 61  1  0  0  0  0
 55 61  1  0  0  0  0
 56 72  1  0  0  0  0
 57 80  1  0  0  0  0
 58 61  1  0  0  0  0
 58 71  1  0  0  0  0
 59 72  1  0  0  0  0
 60 83  1  0  0  0  0
 60 84  1  0  0  0  0
 60 85  1  0  0  0  0
 62 63  1  0  0  0  0
M  CHG  1  72   1
M  ISO  4  39 100  57 101  69 100  80 101
M  END
> <Batch ID>
0008

> <Smiles>
CNC(C)C(=O)NC(C(=O)N1Cc2cc([101O:1][101CH2:1]C(=O)Nc3cc([100NH:0][100C:0](=O)N4CCCC(n5nc(-c6ccc(Oc7ccc(F)cc7F)cc6)c(C(N)=O)c5N)C4)cc(C(F)(F)F)c3)ccc2CC1C(=O)NC1CCCc2ccccc21)C(C)(C)C

> <Shape>
0.236

> <Color>
0.213

> <Negative vol penalty>
0.000

$$$$

  -OEChem-04052315363D

 84 92  0     1  0  0  0  0  0999 V2000
  -30.4614  -30.5376   14.6327 C   0  0  0  0  0  0  0  0  0  0  0  0
  -31.0904  -29.7182   15.5646 C   0  0  0  0  0  0  0  0  0  0  0  0
  -22.9156  -10.0713   19.9740 C   0  0  0  0  0  0  0  0  0  0  0  0
  -23.7213   -9.9474   22.2483 C   0  0  0  0  0  0  0  0  0  0  0  0
  -29.0959  -30.7968   14.7433 C   0  0  0  0  0  0  0  0  0  0  0  0
  -30.3544  -29.1584   16.6083 C   0  0  0  0  0  0  0  0  0  0  0  0
  -31.1922  -23.6578   19.1671 C   0  0  0  0  0  0  0  0  0  0  0  0
  -22.1078   -8.9567   20.1994 C   0  0  0  0  0  0  0  0  0  0  0  0
  -22.9135   -8.8328   22.4737 C   0  0  0  0  0  0  0  0  0  0  0  0
  -31.8468  -23.2541   20.3300 C   0  0  0  0  0  0  0  0  0  0  0  0
  -22.9891   -5.5223   21.7915 C   0  0  0  0  0  0  0  0  0  0  0  0
  -23.5553   -4.4357   22.4582 C   0  0  0  0  0  0  0  0  0  0  0  0
  -29.7462  -23.2840   21.5156 C   0  0  0  0  0  0  0  0  0  0  0  0
  -30.7676  -18.6000   23.3853 C   0  0  0  0  0  0  0  0  0  0  0  0
  -32.7701  -18.0997   22.1297 C   0  0  0  0  0  0  0  0  0  0  0  0
  -21.9030   -4.6484   24.2080 C   0  0  0  0  0  0  0  0  0  0  0  0
  -23.7224  -10.5667   20.9985 C   0  0  0  0  0  0  0  0  0  0  0  0
  -24.2155  -13.0693   20.9611 C   0  0  0  0  0  0  0  0  0  0  0  0
  -28.3409  -30.2321   15.7834 C   0  0  0  0  0  0  0  0  0  0  0  0
  -29.8090  -23.8885   19.1725 C   0  0  0  0  0  0  0  0  0  0  0  0
  -28.9778  -29.4113   16.7337 C   0  0  0  0  0  0  0  0  0  0  0  0
  -29.0760  -23.6881   20.3508 C   0  0  0  0  0  0  0  0  0  0  0  0
  -32.0643  -18.9350   22.9956 C   0  0  0  0  0  0  0  0  0  0  0  0
  -30.8824  -16.5943   22.0433 C   0  0  0  0  0  0  0  0  0  0  0  0
  -22.1067   -8.3375   21.4492 C   0  0  0  0  0  0  0  0  0  0  0  0
  -31.1242  -23.0700   21.5052 C   0  0  0  0  0  0  0  0  0  0  0  0
  -21.8799   -6.1719   22.3331 C   0  0  0  0  0  0  0  0  0  0  0  0
  -30.1766  -17.4296   22.9092 C   0  0  0  0  0  0  0  0  0  0  0  0
  -23.0123   -3.9988   23.6664 C   0  0  0  0  0  0  0  0  0  0  0  0
  -32.1791  -16.9293   21.6535 C   0  0  0  0  0  0  0  0  0  0  0  0
  -21.3369   -5.7350   23.5413 C   0  0  0  0  0  0  0  0  0  0  0  0
  -24.5574  -11.7176   20.7661 C   0  0  0  0  0  0  0  0  0  0  0  0
  -25.3438  -13.7644   20.6002 C   0  0  0  0  0  0  0  0  0  0  0  0
  -22.9878  -13.6450   21.4269 C   0  0  0  0  0  0  0  0  0  0  0  0
  -27.9540  -26.4132   18.6353 C   0  0  0  0  0  0  0  0  0  0  0  0
  -25.5690  -24.2338   18.9254 C   0  0  0  0  0  0  0  0  0  0  0  0
  -24.5240  -21.2300   20.1632 C   0  0  0  0  0  0  0  0  0  0  0  0
  -30.8661  -14.4708   20.6881 C   0  0  0  0  0  0  0  0  0  0  0  0
  -26.8770  -30.5792   15.8890 C   0  0  0  0  0  0  0  0  0  0  0  0
  -29.1136  -24.2978   17.9031 C   0  0  0  0  0  0  0  0  0  0  0  0
  -27.5862  -23.9029   20.4042 C   0  0  0  0  0  0  0  0  0  0  0  0
  -26.0944  -29.6453   16.8085 C   0  0  0  0  0  0  0  0  0  0  0  0
  -29.5579  -12.2181   18.2609 C   0  0  0  0  0  0  0  0  0  0  0  0
  -26.8487  -29.4284   18.1165 C   0  0  0  0  0  0  0  0  0  0  0  0
  -28.1122  -11.9983   18.7123 C   0  0  0  0  0  0  0  0  0  0  0  0
  -30.5097  -12.3465   19.4489 C   0  0  0  0  0  0  0  0  0  0  0  0
  -28.6793  -13.1331   20.8981 C   0  0  0  0  0  0  0  0  0  0  0  0
  -28.2086  -28.7656   17.8657 C   0  0  1  0  0  0  0  0  0  0  0  0
  -27.7828  -25.0012   18.1510 C   0  0  1  0  0  0  0  0  0  0  0  0
  -27.6738  -13.0627   19.7372 C   0  0  2  0  0  0  0  0  0  0  0  0
  -22.5109  -19.7355   20.2680 C   0  0  0  0  0  0  0  0  0  0  0  0
  -24.3263  -26.0595   21.0308 C   0  0  0  0  0  0  0  0  0  0  0  0
  -22.9008  -24.1342   21.7583 C   0  0  0  0  0  0  0  0  0  0  0  0
  -22.6897  -25.0346   19.4415 C   0  0  0  0  0  0  0  0  0  0  0  0
  -34.0189  -20.4629   23.0660 C   0  0  0  0  0  0  0  0  0  0  0  0
  -25.9295  -19.0434   18.7480 C   0  0  0  0  0  0  0  0  0  0  0  0
  -27.8418  -17.6123   22.4957 C   0  0  0  0  0  0  0  0  0  0  0  0
  -31.9508  -21.0042   24.3615 C   0  0  0  0  0  0  0  0  0  0  0  0
  -31.0089  -21.8966   23.5706 C   0  0  0  0  0  0  0  0  0  1  0  0
  -24.7425  -23.6994   20.0701 C   0  0  1  0  0  0  0  0  0  0  0  0
  -23.7864  -20.0739   19.5121 C   0  0  2  0  0  0  0  0  0  0  0  0
  -23.6932  -24.7297   20.5750 C   0  0  0  0  0  0  0  0  0  0  0  0
  -25.8052  -11.5612   20.3161 N   0  0  0  0  0  0  0  0  0  0  0  0
  -26.2572  -12.8235   20.2252 N   0  0  0  0  0  0  0  0  0  0  0  0
  -26.9528  -24.3087   19.1387 N   0  0  0  0  0  0  0  0  0  0  0  0
  -30.0329  -13.3760   20.3750 N   0  0  0  0  0  0  0  0  0  0  0  0
  -25.6337  -15.0825   20.5701 N   0  0  0  0  0  0  0  0  0  0  0  0
  -21.9293  -12.7867   21.7543 N   0  0  0  0  0  0  0  0  0  0  0  0
  -30.2935  -15.4022   21.5535 N   0  0  0  0  0  0  0  0  0  0  0  0
  -28.0430  -27.3487   17.6222 N   0  0  0  0  0  0  0  0  0  0  0  0
  -24.1690  -22.4406   19.6067 N   0  0  0  0  0  0  0  0  0  0  0  0
  -32.6587  -20.1103   23.4740 N   0  0  3  0  0  0  0  0  0  0  0  0
  -24.6504  -18.8600   19.4809 N   0  3  0  0  0  0  0  0  0  0  0  0
  -22.8285  -14.8846   21.5336 O   0  0  0  0  0  0  0  0  0  0  0  0
  -28.0004  -26.6376   19.8392 O   0  0  0  0  0  0  0  0  0  0  0  0
  -25.0083  -24.5656   17.8780 O   0  0  0  0  0  0  0  0  0  0  0  0
  -25.3315  -21.0750   21.0767 O   0  0  0  0  0  0  0  0  0  0  0  0
  -31.9936  -14.5882   20.2013 O   0  0  0  0  0  0  0  0  0  0  0  0
  -21.3185   -7.2500   21.6696 O   0  0  0  0  0  0  0  0  0  0  0  0
  -28.9089  -17.1206   23.3035 O   0  0  0  0  0  0  0  0  0  0  0  0
  -31.7608  -22.6766   22.6418 O   0  0  0  0  0  0  0  0  0  1  0  0
  -23.5551   -2.9544   24.3057 F   0  0  0  0  0  0  0  0  0  0  0  0
  -32.8676  -16.1345   20.8218 F   0  0  0  0  0  0  0  0  0  0  0  0
  -20.2706   -6.3543   24.0659 F   0  0  0  0  0  0  0  0  0  0  0  0
  1  2  1  0  0  0  0
  1  5  2  0  0  0  0
  2  6  2  0  0  0  0
  3  8  2  0  0  0  0
  3 17  1  0  0  0  0
  4  9  1  0  0  0  0
  4 17  2  0  0  0  0
  5 19  1  0  0  0  0
  6 21  1  0  0  0  0
  7 10  2  0  0  0  0
  7 20  1  0  0  0  0
  8 25  1  0  0  0  0
  9 25  2  0  0  0  0
 10 26  1  0  0  0  0
 11 12  2  0  0  0  0
 11 27  1  0  0  0  0
 12 29  1  0  0  0  0
 13 22  1  0  0  0  0
 13 26  2  0  0  0  0
 14 23  2  0  0  0  0
 14 28  1  0  0  0  0
 15 23  1  0  0  0  0
 15 30  2  0  0  0  0
 16 29  2  0  0  0  0
 16 31  1  0  0  0  0
 17 32  1  0  0  0  0
 18 32  1  0  0  0  0
 18 33  2  0  0  0  0
 18 34  1  0  0  0  0
 19 21  2  0  0  0  0
 19 39  1  0  0  0  0
 20 22  2  0  0  0  0
 20 40  1  0  0  0  0
 21 48  1  0  0  0  0
 22 41  1  0  0  0  0
 23 72  1  0  0  0  0
 24 28  2  0  0  0  0
 24 30  1  0  0  0  0
 24 69  1  0  0  0  0
 25 79  1  0  0  0  0
 26 81  1  0  0  0  0
 27 31  2  0  0  0  0
 27 79  1  0  0  0  0
 28 80  1  0  0  0  0
 29 82  1  0  0  0  0
 30 83  1  0  0  0  0
 31 84  1  0  0  0  0
 32 63  2  0  0  0  0
 33 64  1  0  0  0  0
 33 67  1  0  0  0  0
 34 68  1  0  0  0  0
 34 74  2  0  0  0  0
 35 49  1  0  0  0  0
 35 70  1  0  0  0  0
 35 75  2  0  0  0  0
 36 60  1  0  0  0  0
 36 65  1  0  0  0  0
 36 76  2  0  0  0  0
 37 61  1  0  0  0  0
 37 71  1  0  0  0  0
 37 77  2  0  0  0  0
 38 66  1  0  0  0  0
 38 69  1  0  0  0  0
 38 78  2  0  0  0  0
 39 42  1  0  0  0  0
 40 49  1  0  0  0  0
 41 65  1  0  0  0  0
 42 44  1  0  0  0  0
 43 45  1  0  0  0  0
 43 46  1  0  0  0  0
 44 48  1  0  0  0  0
 45 50  1  0  0  0  0
 46 66  1  0  0  0  0
 47 50  1  0  0  0  0
 47 66  1  0  0  0  0
 48 70  1  0  0  0  0
 49 65  1  0  0  0  0
 50 64  1  0  0  0  0
 51 61  1  0  0  0  0
 52 62  1  0  0  0  0
 53 62  1  0  0  0  0
 54 62  1  0  0  0  0
 55 72  1  0  0  0  0
 56 73  1  0  0  0  0
 57 80  1  0  0  0  0
 58 59  1  0  0  0  0
 58 72  1  0  0  0  0
 59 81  1  0  0  0  0
 60 62  1  0  0  0  0
 60 71  1  0  0  0  0
 61 73  1  0  0  0  0
 63 64  1  0  0  0  0
M  CHG  1  73   1
M  ISO  4  38 100  59 101  69 100  81 101
M  END
> <Batch ID>
0008

> <Smiles>
CNC(C)C(=O)NC(C(=O)N1Cc2cc([101O:1][101CH2:1]CN(C)c3cc(F)c([100NH:0][100C:0](=O)N4CCCC(n5nc(-c6ccc(Oc7ccc(F)cc7F)cc6)c(C(N)=O)c5N)C4)c(OC)c3)ccc2CC1C(=O)NC1CCCc2ccccc21)C(C)(C)C

> <Shape>
0.233

> <Color>
0.215

> <Negative vol penalty>
0.000

$$$$

  -OEChem-04052315363D

 83 91  0     1  0  0  0  0  0999 V2000
  -18.0687  -25.2641   21.6836 C   0  0  0  0  0  0  0  0  0  0  0  0
  -19.3245  -24.7822   22.0388 C   0  0  0  0  0  0  0  0  0  0  0  0
  -23.7083   -9.8697   21.6158 C   0  0  0  0  0  0  0  0  0  0  0  0
  -24.2526  -11.0010   23.6799 C   0  0  0  0  0  0  0  0  0  0  0  0
  -17.9467  -26.5231   21.0971 C   0  0  0  0  0  0  0  0  0  0  0  0
  -20.4592  -25.5588   21.8068 C   0  0  0  0  0  0  0  0  0  0  0  0
  -25.4953  -25.8481   25.2795 C   0  0  0  0  0  0  0  0  0  0  0  0
  -28.7651  -19.2707   21.2126 C   0  0  0  0  0  0  0  0  0  0  0  0
  -29.1069  -20.5524   21.6441 C   0  0  0  0  0  0  0  0  0  0  0  0
  -23.1600   -8.8114   22.3403 C   0  0  0  0  0  0  0  0  0  0  0  0
  -23.7043   -9.9427   24.4045 C   0  0  0  0  0  0  0  0  0  0  0  0
  -26.7413  -25.2308   25.1783 C   0  0  0  0  0  0  0  0  0  0  0  0
  -24.2799   -6.1161   24.0449 C   0  0  0  0  0  0  0  0  0  0  0  0
  -24.6083   -4.8202   23.6469 C   0  0  0  0  0  0  0  0  0  0  0  0
  -27.6138  -27.1874   24.0694 C   0  0  0  0  0  0  0  0  0  0  0  0
  -31.1073  -18.6995   21.0541 C   0  0  0  0  0  0  0  0  0  0  0  0
  -22.2716   -4.3489   23.2533 C   0  0  0  0  0  0  0  0  0  0  0  0
  -24.2546  -10.9645   22.2856 C   0  0  0  0  0  0  0  0  0  0  0  0
  -24.1559  -13.2112   21.0813 C   0  0  0  0  0  0  0  0  0  0  0  0
  -19.0795  -27.3195   20.8667 C   0  0  0  0  0  0  0  0  0  0  0  0
  -25.2960  -27.1377   24.7659 C   0  0  0  0  0  0  0  0  0  0  0  0
  -20.3524  -26.8291   21.2155 C   0  0  0  0  0  0  0  0  0  0  0  0
  -26.3650  -27.8199   24.1677 C   0  0  0  0  0  0  0  0  0  0  0  0
  -29.7653  -18.3442   20.9176 C   0  0  0  0  0  0  0  0  0  0  0  0
  -30.4488  -20.9076   21.7805 C   0  0  0  0  0  0  0  0  0  0  0  0
  -23.1580   -8.8479   23.7347 C   0  0  0  0  0  0  0  0  0  0  0  0
  -27.8000  -25.8993   24.5705 C   0  0  0  0  0  0  0  0  0  0  0  0
  -22.9473   -6.5284   24.0473 C   0  0  0  0  0  0  0  0  0  0  0  0
  -23.6042   -3.9367   23.2510 C   0  0  0  0  0  0  0  0  0  0  0  0
  -31.4491  -19.9811   21.4855 C   0  0  0  0  0  0  0  0  0  0  0  0
  -21.9432   -5.6448   23.6515 C   0  0  0  0  0  0  0  0  0  0  0  0
  -24.8216  -12.0578   21.5376 C   0  0  0  0  0  0  0  0  0  0  0  0
  -25.1265  -13.9331   20.4307 C   0  0  0  0  0  0  0  0  0  0  0  0
  -22.7829  -13.5957   21.2320 C   0  0  0  0  0  0  0  0  0  0  0  0
  -23.4401  -28.3917   22.5105 C   0  0  0  0  0  0  0  0  0  0  0  0
  -24.6415  -31.1909   23.6256 C   0  0  0  0  0  0  0  0  0  0  0  0
  -29.9282  -23.2481   22.5518 C   0  0  0  0  0  0  0  0  0  0  0  0
  -27.1596  -32.8181   25.2560 C   0  0  0  0  0  0  0  0  0  0  0  0
  -30.2871  -16.0040   20.1446 C   0  0  0  0  0  0  0  0  0  0  0  0
  -18.9026  -28.6541   20.1869 C   0  0  0  0  0  0  0  0  0  0  0  0
  -23.9530  -27.8002   24.9069 C   0  0  0  0  0  0  0  0  0  0  0  0
  -26.2084  -29.2135   23.6184 C   0  0  0  0  0  0  0  0  0  0  0  0
  -20.1166  -29.5701   20.3179 C   0  0  0  0  0  0  0  0  0  0  0  0
  -29.8252  -12.6451   19.0577 C   0  0  0  0  0  0  0  0  0  0  0  0
  -21.3993  -28.8037   20.0110 C   0  0  0  0  0  0  0  0  0  0  0  0
  -28.4275  -12.2877   19.5685 C   0  0  0  0  0  0  0  0  0  0  0  0
  -30.5777  -13.5382   20.0425 C   0  0  0  0  0  0  0  0  0  0  0  0
  -28.4602  -14.3917   20.9682 C   0  0  0  0  0  0  0  0  0  0  0  0
  -21.6044  -27.6520   21.0026 C   0  0  1  0  0  0  0  0  0  0  0  0
  -23.7266  -28.9144   23.8898 C   0  0  1  0  0  0  0  0  0  0  0  0
  -27.6393  -13.5465   19.9807 C   0  0  2  0  0  0  0  0  0  0  0  0
  -27.8786  -35.1104   25.9811 C   0  0  0  0  0  0  0  0  0  0  0  0
  -25.4513  -31.8418   20.7567 C   0  0  0  0  0  0  0  0  0  0  0  0
  -26.9610  -33.6227   21.6607 C   0  0  0  0  0  0  0  0  0  0  0  0
  -24.4990  -33.7691   22.0346 C   0  0  0  0  0  0  0  0  0  0  0  0
  -27.1364  -32.0480   28.1136 C   0  0  0  0  0  0  0  0  0  0  0  0
  -30.7164  -24.4830   22.9733 C   0  0  0  0  0  0  0  0  0  0  0  0
  -29.8281  -25.6584   23.3521 C   0  0  0  0  0  0  0  0  0  1  0  0
  -25.8445  -32.0430   23.3005 C   0  0  1  0  0  0  0  0  0  0  0  0
  -27.1375  -33.8425   26.3761 C   0  0  2  0  0  0  0  0  0  0  0  0
  -25.6917  -32.7921   21.9466 C   0  0  0  0  0  0  0  0  0  0  0  0
  -26.1151  -12.0434   21.2050 N   0  0  0  0  0  0  0  0  0  0  0  0
  -26.2700  -13.1967   20.5326 N   0  0  0  0  0  0  0  0  0  0  0  0
  -24.8744  -29.8164   23.7747 N   0  0  0  0  0  0  0  0  0  0  0  0
  -29.7719  -14.7125   20.3839 N   0  0  0  0  0  0  0  0  0  0  0  0
  -25.1049  -15.1195   19.7870 N   0  0  0  0  0  0  0  0  0  0  0  0
  -21.9213  -12.7375   21.9288 N   0  0  0  0  0  0  0  0  0  0  0  0
  -30.7925  -22.2089   22.2180 N   0  0  0  0  0  0  0  0  0  0  0  0
  -29.4184  -17.0424   20.4787 N   0  0  0  0  0  0  0  0  0  0  0  0
  -22.1010  -28.1549   22.2655 N   0  0  0  0  0  0  0  0  0  0  0  0
  -26.0462  -32.9197   24.4490 N   0  0  0  0  0  0  0  0  0  0  0  0
  -27.7790  -33.2852   27.6004 N   0  3  0  0  0  0  0  0  0  0  0  0
  -22.3297  -14.6609   20.7487 O   0  0  0  0  0  0  0  0  0  0  0  0
  -24.3654  -28.2177   21.7261 O   0  0  0  0  0  0  0  0  0  0  0  0
  -23.5371  -31.7262   23.7499 O   0  0  0  0  0  0  0  0  0  0  0  0
  -28.7020  -23.2326   22.5293 O   0  0  0  0  0  0  0  0  0  0  0  0
  -28.0749  -32.0111   25.1093 O   0  0  0  0  0  0  0  0  0  0  0  0
  -31.4052  -16.1757   19.6524 O   0  0  0  0  0  0  0  0  0  0  0  0
  -22.6229   -7.8155   24.4421 O   0  0  0  0  0  0  0  0  0  0  0  0
  -29.0170  -25.2988   24.4697 O   0  0  0  0  0  0  0  0  0  1  0  0
  -23.9198   -2.6928   22.8673 F   0  0  0  0  0  0  0  0  0  0  0  0
  -32.7423  -20.3120   21.6116 F   0  0  0  0  0  0  0  0  0  0  0  0
  -20.6613   -6.0355   23.6505 F   0  0  0  0  0  0  0  0  0  0  0  0
  1  2  1  0  0  0  0
  1  5  2  0  0  0  0
  2  6  2  0  0  0  0
  3 10  2  0  0  0  0
  3 18  1  0  0  0  0
  4 11  1  0  0  0  0
  4 18  2  0  0  0  0
  5 20  1  0  0  0  0
  6 22  1  0  0  0  0
  7 12  2  0  0  0  0
  7 21  1  0  0  0  0
  8  9  2  0  0  0  0
  8 24  1  0  0  0  0
  9 25  1  0  0  0  0
 10 26  1  0  0  0  0
 11 26  2  0  0  0  0
 12 27  1  0  0  0  0
 13 14  2  0  0  0  0
 13 28  1  0  0  0  0
 14 29  1  0  0  0  0
 15 23  1  0  0  0  0
 15 27  2  0  0  0  0
 16 24  2  0  0  0  0
 16 30  1  0  0  0  0
 17 29  2  0  0  0  0
 17 31  1  0  0  0  0
 18 32  1  0  0  0  0
 19 32  1  0  0  0  0
 19 33  2  0  0  0  0
 19 34  1  0  0  0  0
 20 22  2  0  0  0  0
 20 40  1  0  0  0  0
 21 23  2  0  0  0  0
 21 41  1  0  0  0  0
 22 49  1  0  0  0  0
 23 42  1  0  0  0  0
 24 69  1  0  0  0  0
 25 30  2  0  0  0  0
 25 68  1  0  0  0  0
 26 79  1  0  0  0  0
 27 80  1  0  0  0  0
 28 31  2  0  0  0  0
 28 79  1  0  0  0  0
 29 81  1  0  0  0  0
 30 82  1  0  0  0  0
 31 83  1  0  0  0  0
 32 62  2  0  0  0  0
 33 63  1  0  0  0  0
 33 66  1  0  0  0  0
 34 67  1  0  0  0  0
 34 73  2  0  0  0  0
 35 50  1  0  0  0  0
 35 70  1  0  0  0  0
 35 74  2  0  0  0  0
 36 59  1  0  0  0  0
 36 64  1  0  0  0  0
 36 75  2  0  0  0  0
 37 57  1  0  0  0  0
 37 68  1  0  0  0  0
 37 76  2  0  0  0  0
 38 60  1  0  0  0  0
 38 71  1  0  0  0  0
 38 77  2  0  0  0  0
 39 65  1  0  0  0  0
 39 69  1  0  0  0  0
 39 78  2  0  0  0  0
 40 43  1  0  0  0  0
 41 50  1  0  0  0  0
 42 64  1  0  0  0  0
 43 45  1  0  0  0  0
 44 46  1  0  0  0  0
 44 47  1  0  0  0  0
 45 49  1  0  0  0  0
 46 51  1  0  0  0  0
 47 65  1  0  0  0  0
 48 51  1  0  0  0  0
 48 65  1  0  0  0  0
 49 70  1  0  0  0  0
 50 64  1  0  0  0  0
 51 63  1  0  0  0  0
 52 60  1  0  0  0  0
 53 61  1  0  0  0  0
 54 61  1  0  0  0  0
 55 61  1  0  0  0  0
 56 72  1  0  0  0  0
 57 58  1  0  0  0  0
 58 80  1  0  0  0  0
 59 61  1  0  0  0  0
 59 71  1  0  0  0  0
 60 72  1  0  0  0  0
 62 63  1  0  0  0  0
M  CHG  1  72   1
M  ISO  4  39 100  58 101  69 100  80 101
M  END
> <Batch ID>
0008

> <Smiles>
CNC(C)C(=O)NC(C(=O)N1Cc2cc([101O:1][101CH2:1]CC(=O)Nc3ccc([100NH:0][100C:0](=O)N4CCCC(n5nc(-c6ccc(Oc7ccc(F)cc7F)cc6)c(C(N)=O)c5N)C4)cc3F)ccc2CC1C(=O)NC1CCCc2ccccc21)C(C)(C)C

> <Shape>
0.280

> <Color>
0.134

> <Negative vol penalty>
0.000

$$$$

  -OEChem-04052315363D

 86 94  0     1  0  0  0  0  0999 V2000
  -26.2312  -33.7280   25.4113 C   0  0  0  0  0  0  0  0  0  0  0  0
  -26.7270  -32.4364   25.2651 C   0  0  0  0  0  0  0  0  0  0  0  0
  -23.6248  -10.0812   22.2735 C   0  0  0  0  0  0  0  0  0  0  0  0
  -23.0172  -12.4192   22.3111 C   0  0  0  0  0  0  0  0  0  0  0  0
  -24.9758  -34.0536   24.8995 C   0  0  0  0  0  0  0  0  0  0  0  0
  -25.9671  -31.4693   24.6079 C   0  0  0  0  0  0  0  0  0  0  0  0
  -28.7035  -28.7440   21.3323 C   0  0  0  0  0  0  0  0  0  0  0  0
  -30.7365  -17.7627   21.0292 C   0  0  0  0  0  0  0  0  0  0  0  0
  -22.7980   -9.8486   23.3726 C   0  0  0  0  0  0  0  0  0  0  0  0
  -22.1903  -12.1867   23.4102 C   0  0  0  0  0  0  0  0  0  0  0  0
  -29.5128  -27.7390   21.8602 C   0  0  0  0  0  0  0  0  0  0  0  0
  -30.9260  -19.0677   21.4837 C   0  0  0  0  0  0  0  0  0  0  0  0
  -19.4933   -9.4432   23.9621 C   0  0  0  0  0  0  0  0  0  0  0  0
  -18.6590   -8.3262   23.9208 C   0  0  0  0  0  0  0  0  0  0  0  0
  -28.4138  -18.2554   20.5826 C   0  0  0  0  0  0  0  0  0  0  0  0
  -27.8489  -26.0961   21.2675 C   0  0  0  0  0  0  0  0  0  0  0  0
  -19.7312   -7.4521   25.9016 C   0  0  0  0  0  0  0  0  0  0  0  0
  -23.7344  -11.3665   21.7428 C   0  0  0  0  0  0  0  0  0  0  0  0
  -28.6033  -19.5605   21.0371 C   0  0  0  0  0  0  0  0  0  0  0  0
  -24.2346  -11.5375   19.2472 C   0  0  0  0  0  0  0  0  0  0  0  0
  -24.2043  -33.0927   24.2273 C   0  0  0  0  0  0  0  0  0  0  0  0
  -27.4539  -28.4334   20.7769 C   0  0  0  0  0  0  0  0  0  0  0  0
  -24.6997  -31.7821   24.0878 C   0  0  0  0  0  0  0  0  0  0  0  0
  -27.0267  -27.0987   20.7309 C   0  0  0  0  0  0  0  0  0  0  0  0
  -29.4804  -17.3565   20.5786 C   0  0  0  0  0  0  0  0  0  0  0  0
  -22.0808  -10.9013   23.9409 C   0  0  0  0  0  0  0  0  0  0  0  0
  -29.0843  -26.4151   21.8304 C   0  0  0  0  0  0  0  0  0  0  0  0
  -29.8594  -19.9666   21.4877 C   0  0  0  0  0  0  0  0  0  0  0  0
  -20.4467   -9.5647   24.9731 C   0  0  0  0  0  0  0  0  0  0  0  0
  -18.7780   -7.3307   24.8906 C   0  0  0  0  0  0  0  0  0  0  0  0
  -20.5656   -8.5692   25.9429 C   0  0  0  0  0  0  0  0  0  0  0  0
  -24.5888  -11.6075   20.6078 C   0  0  0  0  0  0  0  0  0  0  0  0
  -25.3909  -11.8497   18.5749 C   0  0  0  0  0  0  0  0  0  0  0  0
  -27.4768  -20.4833   21.0329 C   0  0  0  0  0  0  0  0  0  0  0  0
  -22.9731  -11.2189   18.6448 C   0  0  0  0  0  0  0  0  0  0  0  0
  -24.4453  -29.2077   21.4495 C   0  0  0  0  0  0  0  0  0  0  0  0
  -23.8281  -27.6070   18.6965 C   0  0  0  0  0  0  0  0  0  0  0  0
  -24.8129  -25.2522   16.4311 C   0  0  0  0  0  0  0  0  0  0  0  0
  -30.2410  -15.0145   20.0467 C   0  0  0  0  0  0  0  0  0  0  0  0
  -22.8330  -33.4792   23.7326 C   0  0  0  0  0  0  0  0  0  0  0  0
  -26.6045  -29.5259   20.1875 C   0  0  0  0  0  0  0  0  0  0  0  0
  -25.7026  -26.7102   20.1273 C   0  0  0  0  0  0  0  0  0  0  0  0
  -22.2508  -32.4955   22.7209 C   0  0  0  0  0  0  0  0  0  0  0  0
  -30.1544  -11.6105   19.0064 C   0  0  0  0  0  0  0  0  0  0  0  0
  -22.4304  -31.0608   23.2069 C   0  0  0  0  0  0  0  0  0  0  0  0
  -28.6840  -11.2189   19.1694 C   0  0  0  0  0  0  0  0  0  0  0  0
  -30.6147  -12.5587   20.1122 C   0  0  0  0  0  0  0  0  0  0  0  0
  -28.3114  -13.3632   20.4539 C   0  0  0  0  0  0  0  0  0  0  0  0
  -23.9159  -30.7120   23.3594 C   0  0  1  0  0  0  0  0  0  0  0  0
  -25.1260  -29.1576   20.1109 C   0  0  1  0  0  0  0  0  0  0  0  0
  -27.7842  -12.4603   19.3267 C   0  0  2  0  0  0  0  0  0  0  0  0
  -24.0822  -24.1368   14.3053 C   0  0  0  0  0  0  0  0  0  0  0  0
  -21.8249  -25.9268   20.2694 C   0  0  0  0  0  0  0  0  0  0  0  0
  -21.8455  -24.2706   18.3919 C   0  0  0  0  0  0  0  0  0  0  0  0
  -21.0558  -26.6020   17.9875 C   0  0  0  0  0  0  0  0  0  0  0  0
  -26.1326  -22.2021   19.8016 C   0  0  0  0  0  0  0  0  0  0  0  0
  -28.1093  -21.2001   18.7121 C   0  0  0  0  0  0  0  0  0  0  0  0
  -27.1866  -26.2361   14.9626 C   0  0  0  0  0  0  0  0  0  0  0  0
  -31.1001  -23.4169   21.8438 C   0  0  0  0  0  0  0  0  0  0  0  0
  -29.7638  -24.1373   21.7561 C   0  0  0  0  0  0  0  0  0  1  0  0
  -31.0338  -22.0204   21.2458 C   0  0  0  0  0  0  0  0  0  0  0  0
  -23.5223  -26.1724   18.3395 C   0  0  1  0  0  0  0  0  0  0  0  0
  -24.8800  -25.2791   14.9148 C   0  0  2  0  0  0  0  0  0  0  0  0
  -22.0863  -25.7502   18.7603 C   0  0  0  0  0  0  0  0  0  0  0  0
  -25.8699  -11.9380   20.7909 N   0  0  0  0  0  0  0  0  0  0  0  0
  -26.3309  -12.0785   19.5363 N   0  0  0  0  0  0  0  0  0  0  0  0
  -24.9052  -27.8150   19.5696 N   0  0  0  0  0  0  0  0  0  0  0  0
  -29.7178  -13.7131   20.1998 N   0  0  0  0  0  0  0  0  0  0  0  0
  -25.6852  -11.9481   17.2611 N   0  0  0  0  0  0  0  0  0  0  0  0
  -21.8888  -10.9228   19.4819 N   0  0  0  0  0  0  0  0  0  0  0  0
  -29.2886  -16.0307   20.1168 N   0  0  0  0  0  0  0  0  0  0  0  0
  -24.5072  -30.4427   22.0662 N   0  0  0  0  0  0  0  0  0  0  0  0
  -23.7892  -26.0414   16.9112 N   0  0  0  0  0  0  0  0  0  0  0  0
  -27.2464  -21.2683   19.8894 N   0  0  0  0  0  0  0  0  0  0  0  0
  -26.2932  -25.1624   14.4566 N   0  3  0  0  0  0  0  0  0  0  0  0
  -26.7717  -20.5105   22.0493 O   0  0  0  0  0  0  0  0  0  0  0  0
  -22.8165  -11.1813   17.4007 O   0  0  0  0  0  0  0  0  0  0  0  0
  -23.9028  -28.2009   21.8895 O   0  0  0  0  0  0  0  0  0  0  0  0
  -23.1412  -28.5102   18.2127 O   0  0  0  0  0  0  0  0  0  0  0  0
  -25.5886  -24.5938   17.1206 O   0  0  0  0  0  0  0  0  0  0  0  0
  -31.4411  -15.2113   19.8396 O   0  0  0  0  0  0  0  0  0  0  0  0
  -21.2737  -10.6747   25.0132 O   0  0  0  0  0  0  0  0  0  0  0  0
  -29.8720  -25.4323   22.3456 O   0  0  0  0  0  0  0  0  0  1  0  0
  -30.0657  -21.2443   21.9388 O   0  0  0  0  0  0  0  0  0  0  0  0
  -17.9757   -6.2588   24.8517 F   0  0  0  0  0  0  0  0  0  0  0  0
  -21.4788   -8.6809   26.9173 F   0  0  0  0  0  0  0  0  0  0  0  0
  1  2  1  0  0  0  0
  1  5  2  0  0  0  0
  2  6  2  0  0  0  0
  3  9  2  0  0  0  0
  3 18  1  0  0  0  0
  4 10  1  0  0  0  0
  4 18  2  0  0  0  0
  5 21  1  0  0  0  0
  6 23  1  0  0  0  0
  7 11  2  0  0  0  0
  7 22  1  0  0  0  0
  8 12  2  0  0  0  0
  8 25  1  0  0  0  0
  9 26  1  0  0  0  0
 10 26  2  0  0  0  0
 11 27  1  0  0  0  0
 12 28  1  0  0  0  0
 13 14  2  0  0  0  0
 13 29  1  0  0  0  0
 14 30  1  0  0  0  0
 15 19  1  0  0  0  0
 15 25  2  0  0  0  0
 16 24  1  0  0  0  0
 16 27  2  0  0  0  0
 17 30  2  0  0  0  0
 17 31  1  0  0  0  0
 18 32  1  0  0  0  0
 19 28  2  0  0  0  0
 19 34  1  0  0  0  0
 20 32  1  0  0  0  0
 20 33  2  0  0  0  0
 20 35  1  0  0  0  0
 21 23  2  0  0  0  0
 21 40  1  0  0  0  0
 22 24  2  0  0  0  0
 22 41  1  0  0  0  0
 23 49  1  0  0  0  0
 24 42  1  0  0  0  0
 25 71  1  0  0  0  0
 26 82  1  0  0  0  0
 27 83  1  0  0  0  0
 28 84  1  0  0  0  0
 29 31  2  0  0  0  0
 29 82  1  0  0  0  0
 30 85  1  0  0  0  0
 31 86  1  0  0  0  0
 32 65  2  0  0  0  0
 33 66  1  0  0  0  0
 33 69  1  0  0  0  0
 34 74  1  0  0  0  0
 34 76  2  0  0  0  0
 35 70  1  0  0  0  0
 35 77  2  0  0  0  0
 36 50  1  0  0  0  0
 36 72  1  0  0  0  0
 36 78  2  0  0  0  0
 37 62  1  0  0  0  0
 37 67  1  0  0  0  0
 37 79  2  0  0  0  0
 38 63  1  0  0  0  0
 38 73  1  0  0  0  0
 38 80  2  0  0  0  0
 39 68  1  0  0  0  0
 39 71  1  0  0  0  0
 39 81  2  0  0  0  0
 40 43  1  0  0  0  0
 41 50  1  0  0  0  0
 42 67  1  0  0  0  0
 43 45  1  0  0  0  0
 44 46  1  0  0  0  0
 44 47  1  0  0  0  0
 45 49  1  0  0  0  0
 46 51  1  0  0  0  0
 47 68  1  0  0  0  0
 48 51  1  0  0  0  0
 48 68  1  0  0  0  0
 49 72  1  0  0  0  0
 50 67  1  0  0  0  0
 51 66  1  0  0  0  0
 52 63  1  0  0  0  0
 53 64  1  0  0  0  0
 54 64  1  0  0  0  0
 55 64  1  0  0  0  0
 56 74  1  0  0  0  0
 57 74  1  0  0  0  0
 58 75  1  0  0  0  0
 59 60  1  0  0  0  0
 59 61  1  0  0  0  0
 60 83  1  0  0  0  0
 61 84  1  0  0  0  0
 62 64  1  0  0  0  0
 62 73  1  0  0  0  0
 63 75  1  0  0  0  0
 65 66  1  0  0  0  0
M  CHG  1  75   1
M  ISO  4  39 100  60 101  71 100  83 101
M  END
> <Batch ID>
0008

> <Smiles>
CNC(C)C(=O)NC(C(=O)N1Cc2cc([101O:1][101CH2:1]CCOc3ccc([100NH:0][100C:0](=O)N4CCCC(n5nc(-c6ccc(Oc7ccc(F)cc7F)cc6)c(C(N)=O)c5N)C4)cc3C(=O)N(C)C)ccc2CC1C(=O)NC1CCCc2ccccc21)C(C)(C)C

> <Shape>
0.255

> <Color>
0.070

> <Negative vol penalty>
0.000

$$$$

  -OEChem-04052315363D

 84 92  0     1  0  0  0  0  0999 V2000
  -32.9530  -29.3643   15.8147 C   0  0  0  0  0  0  0  0  0  0  0  0
  -32.2797  -28.3864   16.5398 C   0  0  0  0  0  0  0  0  0  0  0  0
  -23.2329  -16.1363   21.5254 C   0  0  0  0  0  0  0  0  0  0  0  0
  -22.4572  -15.1947   19.4401 C   0  0  0  0  0  0  0  0  0  0  0  0
  -33.0539  -30.6597   16.3203 C   0  0  0  0  0  0  0  0  0  0  0  0
  -31.7079  -28.7030   17.7715 C   0  0  0  0  0  0  0  0  0  0  0  0
  -27.0331  -26.8245   18.2834 C   0  0  0  0  0  0  0  0  0  0  0  0
  -22.2130  -17.0865   21.4758 C   0  0  0  0  0  0  0  0  0  0  0  0
  -21.4372  -16.1449   19.3904 C   0  0  0  0  0  0  0  0  0  0  0  0
  -26.9215  -25.4687   18.5883 C   0  0  0  0  0  0  0  0  0  0  0  0
  -20.0309  -19.9857   21.7141 C   0  0  0  0  0  0  0  0  0  0  0  0
  -20.3608  -21.3092   22.0057 C   0  0  0  0  0  0  0  0  0  0  0  0
  -26.5520  -26.0265   20.9060 C   0  0  0  0  0  0  0  0  0  0  0  0
  -28.8724  -19.0761   21.1134 C   0  0  0  0  0  0  0  0  0  0  0  0
  -30.3136  -17.5067   19.3127 C   0  0  0  0  0  0  0  0  0  0  0  0
  -21.9263  -21.3244   20.1656 C   0  0  0  0  0  0  0  0  0  0  0  0
  -23.3550  -15.1904   20.5076 C   0  0  0  0  0  0  0  0  0  0  0  0
  -24.3554  -12.9343   21.1532 C   0  0  0  0  0  0  0  0  0  0  0  0
  -32.4746  -30.9949   17.5543 C   0  0  0  0  0  0  0  0  0  0  0  0
  -26.9155  -27.7927   19.2910 C   0  0  0  0  0  0  0  0  0  0  0  0
  -31.8023  -30.0038   18.2947 C   0  0  0  0  0  0  0  0  0  0  0  0
  -26.6599  -27.3941   20.6108 C   0  0  0  0  0  0  0  0  0  0  0  0
  -29.0462  -19.5056   19.7978 C   0  0  0  0  0  0  0  0  0  0  0  0
  -30.1398  -17.0772   20.6283 C   0  0  0  0  0  0  0  0  0  0  0  0
  -21.3151  -17.0908   20.4083 C   0  0  0  0  0  0  0  0  0  0  0  0
  -26.6839  -25.0693   19.9002 C   0  0  0  0  0  0  0  0  0  0  0  0
  -20.6488  -19.3315   20.6483 C   0  0  0  0  0  0  0  0  0  0  0  0
  -21.3085  -21.9786   21.2314 C   0  0  0  0  0  0  0  0  0  0  0  0
  -29.4192  -17.8619   21.5287 C   0  0  0  0  0  0  0  0  0  0  0  0
  -21.5964  -20.0008   19.8741 C   0  0  0  0  0  0  0  0  0  0  0  0
  -29.7668  -18.7209   18.8974 C   0  0  0  0  0  0  0  0  0  0  0  0
  -24.4087  -14.2089   20.5580 C   0  0  0  0  0  0  0  0  0  0  0  0
  -25.6006  -12.3991   20.9307 C   0  0  0  0  0  0  0  0  0  0  0  0
  -23.2767  -12.2914   21.8452 C   0  0  0  0  0  0  0  0  0  0  0  0
  -28.8390  -30.0148   20.5019 C   0  0  0  0  0  0  0  0  0  0  0  0
  -26.1798  -30.8594   22.1565 C   0  0  0  0  0  0  0  0  0  0  0  0
  -27.7407  -21.6199   20.1968 C   0  0  0  0  0  0  0  0  0  0  0  0
  -23.1508  -29.9448   23.4353 C   0  0  0  0  0  0  0  0  0  0  0  0
  -30.8730  -14.7474   20.1534 C   0  0  0  0  0  0  0  0  0  0  0  0
  -32.6505  -32.3967   18.0820 C   0  0  0  0  0  0  0  0  0  0  0  0
  -27.0117  -29.2524   18.9412 C   0  0  0  0  0  0  0  0  0  0  0  0
  -26.5055  -28.3950   21.7256 C   0  0  0  0  0  0  0  0  0  0  0  0
  -31.6941  -32.7437   19.2201 C   0  0  0  0  0  0  0  0  0  0  0  0
  -29.2595  -12.5571   17.8638 C   0  0  0  0  0  0  0  0  0  0  0  0
  -31.6581  -31.6181   20.2489 C   0  0  0  0  0  0  0  0  0  0  0  0
  -27.8129  -12.6189   18.3529 C   0  0  0  0  0  0  0  0  0  0  0  0
  -29.9449  -13.9223   17.9298 C   0  0  0  0  0  0  0  0  0  0  0  0
  -28.4254  -14.6295   19.7506 C   0  0  0  0  0  0  0  0  0  0  0  0
  -31.1473  -30.3147   19.6231 C   0  0  1  0  0  0  0  0  0  0  0  0
  -27.3871  -30.1288   20.1322 C   0  0  1  0  0  0  0  0  0  0  0  0
  -27.7291  -13.2596   19.7496 C   0  0  1  0  0  0  0  0  0  0  0  0
  -21.2249  -30.8408   24.7715 C   0  0  0  0  0  0  0  0  0  0  0  0
  -27.8448  -30.6332   24.7034 C   0  0  0  0  0  0  0  0  0  0  0  0
  -25.7107  -30.5940   26.0120 C   0  0  0  0  0  0  0  0  0  0  0  0
  -26.2947  -32.5947   24.6413 C   0  0  0  0  0  0  0  0  0  0  0  0
  -31.3343  -15.7496   22.3801 C   0  0  0  0  0  0  0  0  0  0  0  0
  -21.2471  -29.4864   21.2161 C   0  0  0  0  0  0  0  0  0  0  0  0
  -27.3157  -22.8337   19.3915 C   0  0  0  0  0  0  0  0  0  1  0  0
  -25.5759  -30.4656   23.4829 C   0  0  1  0  0  0  0  0  0  0  0  0
  -21.7895  -30.6142   23.3778 C   0  0  2  0  0  0  0  0  0  0  0  0
  -26.3613  -31.0527   24.6894 C   0  0  0  0  0  0  0  0  0  0  0  0
  -25.5940  -14.4680   19.9995 N   0  0  0  0  0  0  0  0  0  0  0  0
  -26.2971  -13.3489   20.2429 N   0  0  0  0  0  0  0  0  0  0  0  0
  -26.6141  -29.8101   21.3343 N   0  0  0  0  0  0  0  0  0  0  0  0
  -29.8038  -14.5120   19.2686 N   0  0  0  0  0  0  0  0  0  0  0  0
  -26.1568  -11.2135   21.2583 N   0  0  0  0  0  0  0  0  0  0  0  0
  -22.0657  -12.9831   21.9842 N   0  0  0  0  0  0  0  0  0  0  0  0
  -28.4778  -20.7419   19.4094 N   0  0  0  0  0  0  0  0  0  0  0  0
  -29.7076  -30.3523   19.4815 N   0  0  0  0  0  0  0  0  0  0  0  0
  -24.1747  -30.8683   23.4290 N   0  0  0  0  0  0  0  0  0  0  0  0
  -30.7073  -15.8200   21.0558 N   0  0  0  0  0  0  0  0  0  0  0  0
  -20.8289  -29.7694   22.6132 N   0  3  0  0  0  0  0  0  0  0  0  0
  -23.3889  -11.1444   22.3403 O   0  0  0  0  0  0  0  0  0  0  0  0
  -29.1483  -29.6493   21.6299 O   0  0  0  0  0  0  0  0  0  0  0  0
  -26.2568  -32.0538   21.8580 O   0  0  0  0  0  0  0  0  0  0  0  0
  -27.4389  -21.4955   21.3792 O   0  0  0  0  0  0  0  0  0  0  0  0
  -23.2917  -28.7249   23.4849 O   0  0  0  0  0  0  0  0  0  0  0  0
  -31.8863  -14.0380   20.1551 O   0  0  0  0  0  0  0  0  0  0  0  0
  -20.3196  -18.0177   20.3597 O   0  0  0  0  0  0  0  0  0  0  0  0
  -26.5753  -23.7465   20.2008 O   0  0  0  0  0  0  0  0  0  1  0  0
  -21.6240  -23.2501   21.5106 F   0  0  0  0  0  0  0  0  0  0  0  0
  -29.2460  -17.4590   22.7957 F   0  0  0  0  0  0  0  0  0  0  0  0
  -22.1925  -19.3779   18.8481 F   0  0  0  0  0  0  0  0  0  0  0  0
  -30.0067  -19.2159   17.2595 Cl  0  0  0  0  0  0  0  0  0  0  0  0
  1  2  1  0  0  0  0
  1  5  2  0  0  0  0
  2  6  2  0  0  0  0
  3  8  2  0  0  0  0
  3 17  1  0  0  0  0
  4  9  1  0  0  0  0
  4 17  2  0  0  0  0
  5 19  1  0  0  0  0
  6 21  1  0  0  0  0
  7 10  2  0  0  0  0
  7 20  1  0  0  0  0
  8 25  1  0  0  0  0
  9 25  2  0  0  0  0
 10 26  1  0  0  0  0
 11 12  2  0  0  0  0
 11 27  1  0  0  0  0
 12 28  1  0  0  0  0
 13 22  1  0  0  0  0
 13 26  2  0  0  0  0
 14 23  1  0  0  0  0
 14 29  2  0  0  0  0
 15 24  2  0  0  0  0
 15 31  1  0  0  0  0
 16 28  2  0  0  0  0
 16 30  1  0  0  0  0
 17 32  1  0  0  0  0
 18 32  1  0  0  0  0
 18 33  2  0  0  0  0
 18 34  1  0  0  0  0
 19 21  2  0  0  0  0
 19 40  1  0  0  0  0
 20 22  2  0  0  0  0
 20 41  1  0  0  0  0
 21 49  1  0  0  0  0
 22 42  1  0  0  0  0
 23 31  2  0  0  0  0
 23 68  1  0  0  0  0
 24 29  1  0  0  0  0
 24 71  1  0  0  0  0
 25 79  1  0  0  0  0
 26 80  1  0  0  0  0
 27 30  2  0  0  0  0
 27 79  1  0  0  0  0
 28 81  1  0  0  0  0
 29 82  1  0  0  0  0
 30 83  1  0  0  0  0
 31 84  1  0  0  0  0
 32 62  2  0  0  0  0
 33 63  1  0  0  0  0
 33 66  1  0  0  0  0
 34 67  1  0  0  0  0
 34 73  2  0  0  0  0
 35 50  1  0  0  0  0
 35 69  1  0  0  0  0
 35 74  2  0  0  0  0
 36 59  1  0  0  0  0
 36 64  1  0  0  0  0
 36 75  2  0  0  0  0
 37 58  1  0  0  0  0
 37 68  1  0  0  0  0
 37 76  2  0  0  0  0
 38 60  1  0  0  0  0
 38 70  1  0  0  0  0
 38 77  2  0  0  0  0
 39 65  1  0  0  0  0
 39 71  1  0  0  0  0
 39 78  2  0  0  0  0
 40 43  1  0  0  0  0
 41 50  1  0  0  0  0
 42 64  1  0  0  0  0
 43 45  1  0  0  0  0
 44 46  1  0  0  0  0
 44 47  1  0  0  0  0
 45 49  1  0  0  0  0
 46 51  1  0  0  0  0
 47 65  1  0  0  0  0
 48 51  1  0  0  0  0
 48 65  1  0  0  0  0
 49 69  1  0  0  0  0
 50 64  1  0  0  0  0
 51 63  1  0  0  0  0
 52 60  1  0  0  0  0
 53 61  1  0  0  0  0
 54 61  1  0  0  0  0
 55 61  1  0  0  0  0
 56 71  1  0  0  0  0
 57 72  1  0  0  0  0
 58 80  1  0  0  0  0
 59 61  1  0  0  0  0
 59 70  1  0  0  0  0
 60 72  1  0  0  0  0
 62 63  1  0  0  0  0
M  CHG  1  72   1
M  ISO  4  39 100  58 101  71 100  80 101
M  END
> <Batch ID>
0008

> <Smiles>
CNC(C)C(=O)NC(C(=O)N1Cc2cc([101O:1][101CH2:1]C(=O)Nc3cc(F)c([100N:0](C)[100C:0](=O)N4CCCC(n5nc(-c6ccc(Oc7ccc(F)cc7F)cc6)c(C(N)=O)c5N)C4)cc3Cl)ccc2CC1C(=O)NC1CCCc2ccccc21)C(C)(C)C

> <Shape>
0.271

> <Color>
0.124

> <Negative vol penalty>
0.000

$$$$

  -OEChem-04052315363D

 81 89  0     1  0  0  0  0  0999 V2000
  -25.9048  -35.3833   23.5013 C   0  0  0  0  0  0  0  0  0  0  0  0
  -26.4772  -34.1446   23.2305 C   0  0  0  0  0  0  0  0  0  0  0  0
  -24.9139  -12.0741   21.6186 C   0  0  0  0  0  0  0  0  0  0  0  0
  -25.9344  -12.0588   19.4288 C   0  0  0  0  0  0  0  0  0  0  0  0
  -24.5960  -35.4563   23.9765 C   0  0  0  0  0  0  0  0  0  0  0  0
  -25.7414  -32.9780   23.4358 C   0  0  0  0  0  0  0  0  0  0  0  0
  -26.1888  -29.6993   19.6024 C   0  0  0  0  0  0  0  0  0  0  0  0
  -24.4264  -10.7855   21.4005 C   0  0  0  0  0  0  0  0  0  0  0  0
  -25.4469  -10.7702   19.2107 C   0  0  0  0  0  0  0  0  0  0  0  0
  -27.3585  -28.9429   19.5447 C   0  0  0  0  0  0  0  0  0  0  0  0
  -21.8703   -9.3401   19.7268 C   0  0  0  0  0  0  0  0  0  0  0  0
  -20.5441   -9.0824   20.0736 C   0  0  0  0  0  0  0  0  0  0  0  0
  -26.1898  -27.0722   20.5215 C   0  0  0  0  0  0  0  0  0  0  0  0
  -30.1953  -20.9574   18.7179 C   0  0  0  0  0  0  0  0  0  0  0  0
  -30.8826  -23.2383   18.3158 C   0  0  0  0  0  0  0  0  0  0  0  0
  -28.5336  -22.6924   18.4614 C   0  0  0  0  0  0  0  0  0  0  0  0
  -21.2800   -7.3816   21.6237 C   0  0  0  0  0  0  0  0  0  0  0  0
  -25.6679  -12.7107   20.6328 C   0  0  0  0  0  0  0  0  0  0  0  0
  -27.4067  -14.3983   21.4303 C   0  0  0  0  0  0  0  0  0  0  0  0
  -23.8406  -34.2905   24.1785 C   0  0  0  0  0  0  0  0  0  0  0  0
  -25.0116  -29.1505   20.1310 C   0  0  0  0  0  0  0  0  0  0  0  0
  -24.4218  -33.0354   23.9153 C   0  0  0  0  0  0  0  0  0  0  0  0
  -25.0058  -27.8230   20.5824 C   0  0  0  0  0  0  0  0  0  0  0  0
  -31.2074  -21.8996   18.5353 C   0  0  0  0  0  0  0  0  0  0  0  0
  -28.8584  -21.3537   18.6809 C   0  0  0  0  0  0  0  0  0  0  0  0
  -24.6929  -10.1336   20.1966 C   0  0  0  0  0  0  0  0  0  0  0  0
  -27.3599  -27.6301   20.0070 C   0  0  0  0  0  0  0  0  0  0  0  0
  -22.9014   -8.6185   20.3283 C   0  0  0  0  0  0  0  0  0  0  0  0
  -29.5457  -23.6347   18.2788 C   0  0  0  0  0  0  0  0  0  0  0  0
  -20.2490   -8.1031   21.0221 C   0  0  0  0  0  0  0  0  0  0  0  0
  -22.6063   -7.6393   21.2768 C   0  0  0  0  0  0  0  0  0  0  0  0
  -26.1712  -14.0420   20.8573 C   0  0  0  0  0  0  0  0  0  0  0  0
  -27.4068  -15.7718   21.4198 C   0  0  0  0  0  0  0  0  0  0  0  0
  -28.4602  -13.5625   21.9276 C   0  0  0  0  0  0  0  0  0  0  0  0
  -23.1309  -29.8323   22.6011 C   0  0  0  0  0  0  0  0  0  0  0  0
  -21.2677  -27.5033   21.3259 C   0  0  0  0  0  0  0  0  0  0  0  0
  -21.0486  -24.7116   19.3751 C   0  0  0  0  0  0  0  0  0  0  0  0
  -26.4540  -20.6232   18.8587 C   0  0  0  0  0  0  0  0  0  0  0  0
  -22.4459  -34.4171   24.7384 C   0  0  0  0  0  0  0  0  0  0  0  0
  -23.7513  -29.9709   20.1615 C   0  0  0  0  0  0  0  0  0  0  0  0
  -23.7631  -27.1805   21.1402 C   0  0  0  0  0  0  0  0  0  0  0  0
  -21.6061  -33.1531   24.5732 C   0  0  0  0  0  0  0  0  0  0  0  0
  -23.6808  -19.0585   20.4520 C   0  0  0  0  0  0  0  0  0  0  0  0
  -22.4069  -31.9224   24.9864 C   0  0  0  0  0  0  0  0  0  0  0  0
  -24.1832  -17.6432   20.7466 C   0  0  0  0  0  0  0  0  0  0  0  0
  -24.2123  -19.5830   19.1193 C   0  0  0  0  0  0  0  0  0  0  0  0
  -26.1729  -18.0976   19.2562 C   0  0  0  0  0  0  0  0  0  0  0  0
  -23.6473  -31.7487   24.1017 C   0  0  1  0  0  0  0  0  0  0  0  0
  -22.7421  -29.4777   21.1937 C   0  0  1  0  0  0  0  0  0  0  0  0
  -25.7164  -17.5515   20.6189 C   0  0  2  0  0  0  0  0  0  0  0  0
  -32.6367  -21.4761   18.5746 C   0  0  0  0  0  0  0  0  0  0  0  0
  -19.3999  -23.0084   18.5515 C   0  0  0  0  0  0  0  0  0  0  0  0
  -21.2978  -26.1543   24.0625 C   0  0  0  0  0  0  0  0  0  0  0  0
  -20.4791  -24.0600   22.9618 C   0  0  0  0  0  0  0  0  0  0  0  0
  -19.0791  -26.1239   22.9088 C   0  0  0  0  0  0  0  0  0  0  0  0
  -21.5214  -25.4505   16.5485 C   0  0  0  0  0  0  0  0  0  0  0  0
  -29.4166  -27.1848   18.8990 C   0  0  0  0  0  0  0  0  0  1  0  0
  -30.1613  -25.9190   18.5212 C   0  0  0  0  0  0  0  0  0  0  0  0
  -21.1672  -26.0058   21.4883 C   0  0  1  0  0  0  0  0  0  0  0  0
  -20.0880  -24.3333   18.2621 C   0  0  2  0  0  0  0  0  0  0  0  0
  -20.5299  -25.5984   22.8467 C   0  0  0  0  0  0  0  0  0  0  0  0
  -25.4395  -15.1035   20.5083 N   0  0  0  0  0  0  0  0  0  0  0  0
  -26.2175  -16.1403   20.8631 N   0  0  0  0  0  0  0  0  0  0  0  0
  -22.5576  -28.0255   21.1548 N   0  0  0  0  0  0  0  0  0  0  0  0
  -25.6716  -19.4685   19.0719 N   0  0  0  0  0  0  0  0  0  0  0  0
  -28.3081  -16.6881   21.8326 N   0  0  0  0  0  0  0  0  0  0  0  0
  -28.2972  -12.1720   21.8622 N   0  0  0  0  0  0  0  0  0  0  0  0
  -27.8300  -20.3967   18.8661 N   0  0  0  0  0  0  0  0  0  0  0  0
  -23.2789  -31.1888   22.8190 N   0  0  0  0  0  0  0  0  0  0  0  0
  -20.4455  -25.5159   20.3189 N   0  0  0  0  0  0  0  0  0  0  0  0
  -20.8169  -24.2116   16.9679 N   0  3  0  0  0  0  0  0  0  0  0  0
  -29.5078  -14.0348   22.4305 O   0  0  0  0  0  0  0  0  0  0  0  0
  -23.2838  -28.9414   23.4285 O   0  0  0  0  0  0  0  0  0  0  0  0
  -20.2390  -28.1838   21.3427 O   0  0  0  0  0  0  0  0  0  0  0  0
  -22.2160  -24.3286   19.4062 O   0  0  0  0  0  0  0  0  0  0  0  0
  -25.9420  -21.7356   18.7097 O   0  0  0  0  0  0  0  0  0  0  0  0
  -24.2176   -8.8761   19.9835 O   0  0  0  0  0  0  0  0  0  0  0  0
  -28.5004  -26.8897   19.9525 O   0  0  0  0  0  0  0  0  0  1  0  0
  -29.2268  -24.9495   18.0628 O   0  0  0  0  0  0  0  0  0  0  0  0
  -18.9754   -7.8568   21.3562 F   0  0  0  0  0  0  0  0  0  0  0  0
  -23.5927   -6.9437   21.8590 F   0  0  0  0  0  0  0  0  0  0  0  0
  1  2  1  0  0  0  0
  1  5  2  0  0  0  0
  2  6  2  0  0  0  0
  3  8  2  0  0  0  0
  3 18  1  0  0  0  0
  4  9  1  0  0  0  0
  4 18  2  0  0  0  0
  5 20  1  0  0  0  0
  6 22  1  0  0  0  0
  7 10  2  0  0  0  0
  7 21  1  0  0  0  0
  8 26  1  0  0  0  0
  9 26  2  0  0  0  0
 10 27  1  0  0  0  0
 11 12  2  0  0  0  0
 11 28  1  0  0  0  0
 12 30  1  0  0  0  0
 13 23  1  0  0  0  0
 13 27  2  0  0  0  0
 14 24  1  0  0  0  0
 14 25  2  0  0  0  0
 15 24  2  0  0  0  0
 15 29  1  0  0  0  0
 16 25  1  0  0  0  0
 16 29  2  0  0  0  0
 17 30  2  0  0  0  0
 17 31  1  0  0  0  0
 18 32  1  0  0  0  0
 19 32  1  0  0  0  0
 19 33  2  0  0  0  0
 19 34  1  0  0  0  0
 20 22  2  0  0  0  0
 20 39  1  0  0  0  0
 21 23  2  0  0  0  0
 21 40  1  0  0  0  0
 22 48  1  0  0  0  0
 23 41  1  0  0  0  0
 24 51  1  0  0  0  0
 25 68  1  0  0  0  0
 26 77  1  0  0  0  0
 27 78  1  0  0  0  0
 28 31  2  0  0  0  0
 28 77  1  0  0  0  0
 29 79  1  0  0  0  0
 30 80  1  0  0  0  0
 31 81  1  0  0  0  0
 32 62  2  0  0  0  0
 33 63  1  0  0  0  0
 33 66  1  0  0  0  0
 34 67  1  0  0  0  0
 34 72  2  0  0  0  0
 35 49  1  0  0  0  0
 35 69  1  0  0  0  0
 35 73  2  0  0  0  0
 36 59  1  0  0  0  0
 36 64  1  0  0  0  0
 36 74  2  0  0  0  0
 37 60  1  0  0  0  0
 37 70  1  0  0  0  0
 37 75  2  0  0  0  0
 38 65  1  0  0  0  0
 38 68  1  0  0  0  0
 38 76  2  0  0  0  0
 39 42  1  0  0  0  0
 40 49  1  0  0  0  0
 41 64  1  0  0  0  0
 42 44  1  0  0  0  0
 43 45  1  0  0  0  0
 43 46  1  0  0  0  0
 44 48  1  0  0  0  0
 45 50  1  0  0  0  0
 46 65  1  0  0  0  0
 47 50  1  0  0  0  0
 47 65  1  0  0  0  0
 48 69  1  0  0  0  0
 49 64  1  0  0  0  0
 50 63  1  0  0  0  0
 52 60  1  0  0  0  0
 53 61  1  0  0  0  0
 54 61  1  0  0  0  0
 55 61  1  0  0  0  0
 56 71  1  0  0  0  0
 57 58  1  0  0  0  0
 57 78  1  0  0  0  0
 58 79  1  0  0  0  0
 59 61  1  0  0  0  0
 59 70  1  0  0  0  0
 60 71  1  0  0  0  0
 62 63  1  0  0  0  0
M  CHG  1  71   1
M  ISO  4  38 100  57 101  68 100  78 101
M  END
> <Batch ID>
0008

> <Smiles>
CNC(C)C(=O)NC(C(=O)N1Cc2cc([101O:1][101CH2:1]COc3cc(C)cc([100NH:0][100C:0](=O)N4CCCC(n5nc(-c6ccc(Oc7ccc(F)cc7F)cc6)c(C(N)=O)c5N)C4)c3)ccc2CC1C(=O)NC1CCCc2ccccc21)C(C)(C)C

> <Shape>
0.278

> <Color>
0.082

> <Negative vol penalty>
0.000

$$$$

  -OEChem-04052315363D

 83 91  0     1  0  0  0  0  0999 V2000
  -29.2379  -33.8741   25.8863 C   0  0  0  0  0  0  0  0  0  0  0  0
  -28.9392  -32.5529   25.5691 C   0  0  0  0  0  0  0  0  0  0  0  0
  -24.2516   -9.5956   20.1048 C   0  0  0  0  0  0  0  0  0  0  0  0
  -24.8224  -10.0414   22.4097 C   0  0  0  0  0  0  0  0  0  0  0  0
  -28.2505  -34.8535   25.7888 C   0  0  0  0  0  0  0  0  0  0  0  0
  -27.6525  -32.2102   25.1552 C   0  0  0  0  0  0  0  0  0  0  0  0
  -27.6606  -29.1176   21.1452 C   0  0  0  0  0  0  0  0  0  0  0  0
  -23.9785   -8.2668   20.4294 C   0  0  0  0  0  0  0  0  0  0  0  0
  -24.5492   -8.7126   22.7344 C   0  0  0  0  0  0  0  0  0  0  0  0
  -27.9358  -27.7711   21.3801 C   0  0  0  0  0  0  0  0  0  0  0  0
  -21.8227   -6.8014   23.3121 C   0  0  0  0  0  0  0  0  0  0  0  0
  -21.0700   -6.5581   24.4609 C   0  0  0  0  0  0  0  0  0  0  0  0
  -25.5759  -27.2792   21.2894 C   0  0  0  0  0  0  0  0  0  0  0  0
  -27.7067  -20.4828   23.6891 C   0  0  0  0  0  0  0  0  0  0  0  0
  -29.9139  -19.3795   22.3876 C   0  0  0  0  0  0  0  0  0  0  0  0
  -22.9003   -5.2840   25.3903 C   0  0  0  0  0  0  0  0  0  0  0  0
  -24.6737  -10.4829   21.0949 C   0  0  0  0  0  0  0  0  0  0  0  0
  -24.0556  -12.9370   20.7742 C   0  0  0  0  0  0  0  0  0  0  0  0
  -26.9536  -34.5244   25.3643 C   0  0  0  0  0  0  0  0  0  0  0  0
  -26.3380  -29.5574   20.9913 C   0  0  0  0  0  0  0  0  0  0  0  0
  -26.6464  -33.1860   25.0532 C   0  0  0  0  0  0  0  0  0  0  0  0
  -25.2868  -28.6313   21.0501 C   0  0  0  0  0  0  0  0  0  0  0  0
  -28.9752  -21.0298   23.8819 C   0  0  0  0  0  0  0  0  0  0  0  0
  -28.6453  -18.8325   22.1949 C   0  0  0  0  0  0  0  0  0  0  0  0
  -24.1272   -7.8254   21.7442 C   0  0  0  0  0  0  0  0  0  0  0  0
  -26.8932  -26.8522   21.4551 C   0  0  0  0  0  0  0  0  0  0  0  0
  -23.1142   -6.2859   23.2023 C   0  0  0  0  0  0  0  0  0  0  0  0
  -21.6088   -5.7995   25.5000 C   0  0  0  0  0  0  0  0  0  0  0  0
  -27.5417  -19.3841   22.8456 C   0  0  0  0  0  0  0  0  0  0  0  0
  -23.6530   -5.5272   24.2414 C   0  0  0  0  0  0  0  0  0  0  0  0
  -30.0788  -20.4782   23.2311 C   0  0  0  0  0  0  0  0  0  0  0  0
  -24.9566  -11.8554   20.7601 C   0  0  0  0  0  0  0  0  0  0  0  0
  -24.8082  -14.0161   20.3800 C   0  0  0  0  0  0  0  0  0  0  0  0
  -22.6628  -12.9638   21.1135 C   0  0  0  0  0  0  0  0  0  0  0  0
  -24.4450  -31.5678   22.5656 C   0  0  0  0  0  0  0  0  0  0  0  0
  -22.4213  -30.9795   20.0997 C   0  0  0  0  0  0  0  0  0  0  0  0
  -21.4412  -28.8805   17.5936 C   0  0  0  0  0  0  0  0  0  0  0  0
  -29.4709  -17.0502   20.6175 C   0  0  0  0  0  0  0  0  0  0  0  0
  -25.9070  -35.6095   25.3197 C   0  0  0  0  0  0  0  0  0  0  0  0
  -26.0597  -31.0089   20.7118 C   0  0  0  0  0  0  0  0  0  0  0  0
  -23.8508  -29.0492   20.8715 C   0  0  0  0  0  0  0  0  0  0  0  0
  -24.6680  -35.2280   24.5137 C   0  0  0  0  0  0  0  0  0  0  0  0
  -29.4735  -14.2418   18.4289 C   0  0  0  0  0  0  0  0  0  0  0  0
  -24.1953  -33.8279   24.8920 C   0  0  0  0  0  0  0  0  0  0  0  0
  -28.2244  -13.4596   18.8414 C   0  0  0  0  0  0  0  0  0  0  0  0
  -30.1674  -14.8779   19.6320 C   0  0  0  0  0  0  0  0  0  0  0  0
  -28.0526  -14.9226   20.8950 C   0  0  0  0  0  0  0  0  0  0  0  0
  -25.2689  -32.7792   24.5767 C   0  0  1  0  0  0  0  0  0  0  0  0
  -24.6402  -31.4272   21.0824 C   0  0  1  0  0  0  0  0  0  0  0  0
  -27.2832  -14.3177   19.7094 C   0  0  2  0  0  0  0  0  0  0  0  0
  -19.7330  -28.6533   15.7694 C   0  0  0  0  0  0  0  0  0  0  0  0
  -20.3081  -30.2426   22.1736 C   0  0  0  0  0  0  0  0  0  0  0  0
  -18.9975  -29.1433   20.3455 C   0  0  0  0  0  0  0  0  0  0  0  0
  -19.4551  -31.5936   20.2497 C   0  0  0  0  0  0  0  0  0  0  0  0
  -23.5238  -28.8229   15.4916 C   0  0  0  0  0  0  0  0  0  0  0  0
  -29.1098  -22.2174   24.8012 C   0  0  0  0  0  0  0  0  0  0  0  0
  -29.2907  -23.5509   24.0676 C   0  0  0  0  0  0  0  0  0  0  0  0
  -28.0868  -23.9264   23.2025 C   0  0  0  0  0  0  0  0  0  0  0  0
  -28.3188  -25.2350   22.4593 C   0  0  0  0  0  0  0  0  0  1  0  0
  -21.3398  -29.9632   19.8234 C   0  0  1  0  0  0  0  0  0  0  0  0
  -21.1294  -29.1358   16.1300 C   0  0  2  0  0  0  0  0  0  0  0  0
  -20.0519  -30.2278   20.6534 C   0  0  0  0  0  0  0  0  0  0  0  0
  -26.1875  -12.2147   20.3863 N   0  0  0  0  0  0  0  0  0  0  0  0
  -26.0653  -13.5340   20.1618 N   0  0  0  0  0  0  0  0  0  0  0  0
  -23.6295  -30.4804   20.6066 N   0  0  0  0  0  0  0  0  0  0  0  0
  -29.2155  -15.6790   20.4047 N   0  0  0  0  0  0  0  0  0  0  0  0
  -24.5108  -15.3208   20.2020 N   0  0  0  0  0  0  0  0  0  0  0  0
  -22.0454  -11.7656   21.4974 N   0  0  0  0  0  0  0  0  0  0  0  0
  -28.4799  -17.7164   21.3377 N   0  0  0  0  0  0  0  0  0  0  0  0
  -25.2890  -32.4868   23.1595 N   0  0  0  0  0  0  0  0  0  0  0  0
  -21.1320  -29.9706   18.3794 N   0  0  0  0  0  0  0  0  0  0  0  0
  -22.1106  -28.4276   15.2602 N   0  3  0  0  0  0  0  0  0  0  0  0
  -21.9819  -14.0160   21.0615 O   0  0  0  0  0  0  0  0  0  0  0  0
  -23.5909  -30.8936   23.1292 O   0  0  0  0  0  0  0  0  0  0  0  0
  -22.2047  -32.1715   19.8673 O   0  0  0  0  0  0  0  0  0  0  0  0
  -21.9086  -27.8189   17.9997 O   0  0  0  0  0  0  0  0  0  0  0  0
  -30.4803  -17.5996   20.1687 O   0  0  0  0  0  0  0  0  0  0  0  0
  -23.8605   -6.5289   22.0614 O   0  0  0  0  0  0  0  0  0  0  0  0
  -27.1590  -25.5375   21.6849 O   0  0  0  0  0  0  0  0  0  1  0  0
  -20.8864   -5.5672   26.6039 F   0  0  0  0  0  0  0  0  0  0  0  0
  -26.3179  -18.8662   22.6677 F   0  0  0  0  0  0  0  0  0  0  0  0
  -24.8936   -5.0303   24.1422 F   0  0  0  0  0  0  0  0  0  0  0  0
  -31.6633  -21.1283   23.4468 Cl  0  0  0  0  0  0  0  0  0  0  0  0
  1  2  1  0  0  0  0
  1  5  2  0  0  0  0
  2  6  2  0  0  0  0
  3  8  2  0  0  0  0
  3 17  1  0  0  0  0
  4  9  1  0  0  0  0
  4 17  2  0  0  0  0
  5 19  1  0  0  0  0
  6 21  1  0  0  0  0
  7 10  2  0  0  0  0
  7 20  1  0  0  0  0
  8 25  1  0  0  0  0
  9 25  2  0  0  0  0
 10 26  1  0  0  0  0
 11 12  2  0  0  0  0
 11 27  1  0  0  0  0
 12 28  1  0  0  0  0
 13 22  1  0  0  0  0
 13 26  2  0  0  0  0
 14 23  1  0  0  0  0
 14 29  2  0  0  0  0
 15 24  2  0  0  0  0
 15 31  1  0  0  0  0
 16 28  2  0  0  0  0
 16 30  1  0  0  0  0
 17 32  1  0  0  0  0
 18 32  1  0  0  0  0
 18 33  2  0  0  0  0
 18 34  1  0  0  0  0
 19 21  2  0  0  0  0
 19 39  1  0  0  0  0
 20 22  2  0  0  0  0
 20 40  1  0  0  0  0
 21 48  1  0  0  0  0
 22 41  1  0  0  0  0
 23 31  2  0  0  0  0
 23 56  1  0  0  0  0
 24 29  1  0  0  0  0
 24 69  1  0  0  0  0
 25 78  1  0  0  0  0
 26 79  1  0  0  0  0
 27 30  2  0  0  0  0
 27 78  1  0  0  0  0
 28 80  1  0  0  0  0
 29 81  1  0  0  0  0
 30 82  1  0  0  0  0
 31 83  1  0  0  0  0
 32 63  2  0  0  0  0
 33 64  1  0  0  0  0
 33 67  1  0  0  0  0
 34 68  1  0  0  0  0
 34 73  2  0  0  0  0
 35 49  1  0  0  0  0
 35 70  1  0  0  0  0
 35 74  2  0  0  0  0
 36 60  1  0  0  0  0
 36 65  1  0  0  0  0
 36 75  2  0  0  0  0
 37 61  1  0  0  0  0
 37 71  1  0  0  0  0
 37 76  2  0  0  0  0
 38 66  1  0  0  0  0
 38 69  1  0  0  0  0
 38 77  2  0  0  0  0
 39 42  1  0  0  0  0
 40 49  1  0  0  0  0
 41 65  1  0  0  0  0
 42 44  1  0  0  0  0
 43 45  1  0  0  0  0
 43 46  1  0  0  0  0
 44 48  1  0  0  0  0
 45 50  1  0  0  0  0
 46 66  1  0  0  0  0
 47 50  1  0  0  0  0
 47 66  1  0  0  0  0
 48 70  1  0  0  0  0
 49 65  1  0  0  0  0
 50 64  1  0  0  0  0
 51 61  1  0  0  0  0
 52 62  1  0  0  0  0
 53 62  1  0  0  0  0
 54 62  1  0  0  0  0
 55 72  1  0  0  0  0
 56 57  1  0  0  0  0
 57 58  1  0  0  0  0
 58 59  1  0  0  0  0
 59 79  1  0  0  0  0
 60 62  1  0  0  0  0
 60 71  1  0  0  0  0
 61 72  1  0  0  0  0
 63 64  1  0  0  0  0
M  CHG  1  72   1
M  ISO  4  38 100  59 101  69 100  79 101
M  END
> <Batch ID>
0008

> <Smiles>
CNC(C)C(=O)NC(C(=O)N1Cc2cc([101O:1][101CH2:1]CCCc3cc(F)c([100NH:0][100C:0](=O)N4CCCC(n5nc(-c6ccc(Oc7ccc(F)cc7F)cc6)c(C(N)=O)c5N)C4)cc3Cl)ccc2CC1C(=O)NC1CCCc2ccccc21)C(C)(C)C

> <Shape>
0.277

> <Color>
0.123

> <Negative vol penalty>
0.000

$$$$

  -OEChem-04052315363D

 86 94  0     1  0  0  0  0  0999 V2000
  -30.0225  -24.8828   17.9857 C   0  0  0  0  0  0  0  0  0  0  0  0
  -28.6363  -24.9914   18.0329 C   0  0  0  0  0  0  0  0  0  0  0  0
  -25.9856  -14.3961   19.4339 C   0  0  0  0  0  0  0  0  0  0  0  0
  -24.2475  -14.1472   21.0933 C   0  0  0  0  0  0  0  0  0  0  0  0
  -30.7951  -25.3722   19.0380 C   0  0  0  0  0  0  0  0  0  0  0  0
  -28.0220  -25.5886   19.1331 C   0  0  0  0  0  0  0  0  0  0  0  0
  -22.9366  -29.0009   19.1073 C   0  0  0  0  0  0  0  0  0  0  0  0
  -26.3183  -13.0495   19.5803 C   0  0  0  0  0  0  0  0  0  0  0  0
  -24.5801  -12.8005   21.2398 C   0  0  0  0  0  0  0  0  0  0  0  0
  -21.6056  -28.7030   19.3965 C   0  0  0  0  0  0  0  0  0  0  0  0
  -26.9582  -10.9779   22.8062 C   0  0  0  0  0  0  0  0  0  0  0  0
  -27.0558  -10.4717   24.1023 C   0  0  0  0  0  0  0  0  0  0  0  0
  -21.9196  -29.5130   21.6469 C   0  0  0  0  0  0  0  0  0  0  0  0
  -21.8512  -24.7057   22.9333 C   0  0  0  0  0  0  0  0  0  0  0  0
  -19.3472  -24.2156   21.8052 C   0  0  0  0  0  0  0  0  0  0  0  0
  -25.3071   -8.8784   23.6117 C   0  0  0  0  0  0  0  0  0  0  0  0
  -24.9502  -14.9450   20.1904 C   0  0  0  0  0  0  0  0  0  0  0  0
  -23.6717  -16.8888   19.1441 C   0  0  0  0  0  0  0  0  0  0  0  0
  -30.1905  -25.9843   20.1472 C   0  0  0  0  0  0  0  0  0  0  0  0
  -23.7734  -29.5479   20.0906 C   0  0  0  0  0  0  0  0  0  0  0  0
  -28.7872  -26.0854   20.2019 C   0  0  0  0  0  0  0  0  0  0  0  0
  -23.2601  -29.8193   21.3669 C   0  0  0  0  0  0  0  0  0  0  0  0
  -21.5673  -23.4565   22.3816 C   0  0  0  0  0  0  0  0  0  0  0  0
  -19.6312  -25.4649   22.3570 C   0  0  0  0  0  0  0  0  0  0  0  0
  -25.6156  -12.2517   20.4832 C   0  0  0  0  0  0  0  0  0  0  0  0
  -21.0977  -28.9563   20.6673 C   0  0  0  0  0  0  0  0  0  0  0  0
  -26.0349  -10.4344   21.9129 C   0  0  0  0  0  0  0  0  0  0  0  0
  -20.3153  -23.2115   21.8175 C   0  0  0  0  0  0  0  0  0  0  0  0
  -20.8831  -25.7099   22.9211 C   0  0  0  0  0  0  0  0  0  0  0  0
  -26.2303   -9.4220   24.5051 C   0  0  0  0  0  0  0  0  0  0  0  0
  -25.2094   -9.3847   22.3157 C   0  0  0  0  0  0  0  0  0  0  0  0
  -24.6065  -16.3362   20.0400 C   0  0  0  0  0  0  0  0  0  0  0  0
  -23.7145  -18.2389   19.3927 C   0  0  0  0  0  0  0  0  0  0  0  0
  -22.8391  -16.2397   18.1740 C   0  0  0  0  0  0  0  0  0  0  0  0
  -26.4446  -28.6117   21.5370 C   0  0  0  0  0  0  0  0  0  0  0  0
  -26.3204  -31.5818   22.8353 C   0  0  0  0  0  0  0  0  0  0  0  0
  -24.4285  -34.2825   23.7148 C   0  0  0  0  0  0  0  0  0  0  0  0
  -23.8491  -22.5390   22.9274 C   0  0  0  0  0  0  0  0  0  0  0  0
  -31.0645  -26.4557   21.2823 C   0  0  0  0  0  0  0  0  0  0  0  0
  -25.1995  -29.8884   19.7549 C   0  0  0  0  0  0  0  0  0  0  0  0
  -24.1115  -30.4246   22.4519 C   0  0  0  0  0  0  0  0  0  0  0  0
  -30.3570  -27.4112   22.2397 C   0  0  0  0  0  0  0  0  0  0  0  0
  -26.9544  -20.9789   22.1526 C   0  0  0  0  0  0  0  0  0  0  0  0
  -28.9776  -26.8739   22.6076 C   0  0  0  0  0  0  0  0  0  0  0  0
  -26.5435  -19.6774   21.4602 C   0  0  0  0  0  0  0  0  0  0  0  0
  -25.9983  -21.3444   23.2866 C   0  0  0  0  0  0  0  0  0  0  0  0
  -24.1681  -20.0868   22.2198 C   0  0  0  0  0  0  0  0  0  0  0  0
  -28.0852  -26.7489   21.3668 C   0  0  1  0  0  0  0  0  0  0  0  0
  -26.1005  -29.9656   20.9836 C   0  0  1  0  0  0  0  0  0  0  0  0
  -25.0644  -19.7116   21.0283 C   0  0  2  0  0  0  0  0  0  0  0  0
  -21.7999  -28.1093   25.4500 C   0  0  0  0  0  0  0  0  0  0  0  0
  -24.6019  -36.5426   24.7915 C   0  0  0  0  0  0  0  0  0  0  0  0
  -26.5377  -30.2570   25.5753 C   0  0  0  0  0  0  0  0  0  0  0  0
  -25.7606  -32.4057   26.5986 C   0  0  0  0  0  0  0  0  0  0  0  0
  -27.8972  -32.3396   25.3128 C   0  0  0  0  0  0  0  0  0  0  0  0
  -18.1625  -27.0392   23.5918 C   0  0  0  0  0  0  0  0  0  0  0  0
  -23.4734  -35.6492   21.2696 C   0  0  0  0  0  0  0  0  0  0  0  0
  -20.3059  -21.8212   19.8880 C   0  0  0  0  0  0  0  0  0  0  0  0
  -18.1064  -26.9615   21.0939 C   0  0  0  0  0  0  0  0  0  0  0  0
  -22.1149  -26.9402   24.5413 C   0  0  0  0  0  0  0  0  0  0  0  0
  -19.2070  -27.5767   20.2458 C   0  0  0  0  0  0  0  0  0  1  0  0
  -25.6993  -32.1823   24.0733 C   0  0  1  0  0  0  0  0  0  0  0  0
  -24.6261  -35.7696   23.4821 C   0  0  2  0  0  0  0  0  0  0  0  0
  -26.4579  -31.7829   25.3704 C   0  0  0  0  0  0  0  0  0  0  0  0
  -25.1999  -17.2598   20.8008 N   0  0  0  0  0  0  0  0  0  0  0  0
  -24.6367  -18.4064   20.3835 N   0  0  0  0  0  0  0  0  0  0  0  0
  -25.5011  -30.7339   22.0766 N   0  0  0  0  0  0  0  0  0  0  0  0
  -24.6162  -21.3614   22.8025 N   0  0  0  0  0  0  0  0  0  0  0  0
  -23.0531  -19.2873   18.8581 N   0  0  0  0  0  0  0  0  0  0  0  0
  -22.9204  -14.8461   18.0491 N   0  0  0  0  0  0  0  0  0  0  0  0
  -22.5606  -22.4462   22.4024 N   0  0  0  0  0  0  0  0  0  0  0  0
  -27.5749  -28.0463   20.9784 N   0  0  0  0  0  0  0  0  0  0  0  0
  -25.6317  -33.6207   23.8394 N   0  0  0  0  0  0  0  0  0  0  0  0
  -18.6497  -26.4647   22.3373 N   0  0  3  0  0  0  0  0  0  0  0  0
  -23.5493  -36.3036   22.6011 N   0  3  0  0  0  0  0  0  0  0  0  0
  -22.0583  -16.8784   17.4283 O   0  0  0  0  0  0  0  0  0  0  0  0
  -25.7377  -28.1174   22.4075 O   0  0  0  0  0  0  0  0  0  0  0  0
  -27.4872  -31.8605   22.5481 O   0  0  0  0  0  0  0  0  0  0  0  0
  -23.3178  -33.7608   23.7831 O   0  0  0  0  0  0  0  0  0  0  0  0
  -24.3110  -23.5635   23.4364 O   0  0  0  0  0  0  0  0  0  0  0  0
  -25.9398  -10.9375   20.6262 O   0  0  0  0  0  0  0  0  0  0  0  0
  -20.0178  -21.9977   21.2732 O   0  0  0  0  0  0  0  0  0  0  0  0
  -19.7992  -28.6659   20.9524 O   0  0  0  0  0  0  0  0  0  1  0  0
  -21.1804  -26.9241   23.4644 O   0  0  0  0  0  0  0  0  0  0  0  0
  -26.3252   -8.9349   25.7492 F   0  0  0  0  0  0  0  0  0  0  0  0
  -24.3214   -8.8576   21.4615 F   0  0  0  0  0  0  0  0  0  0  0  0
  1  2  1  0  0  0  0
  1  5  2  0  0  0  0
  2  6  2  0  0  0  0
  3  8  2  0  0  0  0
  3 17  1  0  0  0  0
  4  9  1  0  0  0  0
  4 17  2  0  0  0  0
  5 19  1  0  0  0  0
  6 21  1  0  0  0  0
  7 10  2  0  0  0  0
  7 20  1  0  0  0  0
  8 25  1  0  0  0  0
  9 25  2  0  0  0  0
 10 26  1  0  0  0  0
 11 12  2  0  0  0  0
 11 27  1  0  0  0  0
 12 30  1  0  0  0  0
 13 22  1  0  0  0  0
 13 26  2  0  0  0  0
 14 23  2  0  0  0  0
 14 29  1  0  0  0  0
 15 24  1  0  0  0  0
 15 28  2  0  0  0  0
 16 30  2  0  0  0  0
 16 31  1  0  0  0  0
 17 32  1  0  0  0  0
 18 32  1  0  0  0  0
 18 33  2  0  0  0  0
 18 34  1  0  0  0  0
 19 21  2  0  0  0  0
 19 39  1  0  0  0  0
 20 22  2  0  0  0  0
 20 40  1  0  0  0  0
 21 48  1  0  0  0  0
 22 41  1  0  0  0  0
 23 28  1  0  0  0  0
 23 71  1  0  0  0  0
 24 29  2  0  0  0  0
 24 74  1  0  0  0  0
 25 81  1  0  0  0  0
 26 83  1  0  0  0  0
 27 31  2  0  0  0  0
 27 81  1  0  0  0  0
 28 82  1  0  0  0  0
 29 84  1  0  0  0  0
 30 85  1  0  0  0  0
 31 86  1  0  0  0  0
 32 65  2  0  0  0  0
 33 66  1  0  0  0  0
 33 69  1  0  0  0  0
 34 70  1  0  0  0  0
 34 76  2  0  0  0  0
 35 49  1  0  0  0  0
 35 72  1  0  0  0  0
 35 77  2  0  0  0  0
 36 62  1  0  0  0  0
 36 67  1  0  0  0  0
 36 78  2  0  0  0  0
 37 63  1  0  0  0  0
 37 73  1  0  0  0  0
 37 79  2  0  0  0  0
 38 68  1  0  0  0  0
 38 71  1  0  0  0  0
 38 80  2  0  0  0  0
 39 42  1  0  0  0  0
 40 49  1  0  0  0  0
 41 67  1  0  0  0  0
 42 44  1  0  0  0  0
 43 45  1  0  0  0  0
 43 46  1  0  0  0  0
 44 48  1  0  0  0  0
 45 50  1  0  0  0  0
 46 68  1  0  0  0  0
 47 50  1  0  0  0  0
 47 68  1  0  0  0  0
 48 72  1  0  0  0  0
 49 67  1  0  0  0  0
 50 66  1  0  0  0  0
 51 60  1  0  0  0  0
 52 63  1  0  0  0  0
 53 64  1  0  0  0  0
 54 64  1  0  0  0  0
 55 64  1  0  0  0  0
 56 74  1  0  0  0  0
 57 75  1  0  0  0  0
 58 82  1  0  0  0  0
 59 61  1  0  0  0  0
 59 74  1  0  0  0  0
 60 84  1  0  0  0  0
 61 83  1  0  0  0  0
 62 64  1  0  0  0  0
 62 73  1  0  0  0  0
 63 75  1  0  0  0  0
 65 66  1  0  0  0  0
M  CHG  1  75   1
M  ISO  4  38 100  61 101  71 100  83 101
M  END
> <Batch ID>
0008

> <Smiles>
CCOc1cc([100NH:0][100C:0](=O)N2CCCC(n3nc(-c4ccc(Oc5ccc(F)cc5F)cc4)c(C(N)=O)c3N)C2)c(OC)cc1N(C)C[101CH2:1][101O:1]c1ccc2c(c1)CN(C(=O)C(NC(=O)C(C)NC)C(C)(C)C)C(C(=O)NC1CCCc3ccccc31)C2

> <Shape>
0.279

> <Color>
0.069

> <Negative vol penalty>
0.000

$$$$

  -OEChem-04052315363D

 88 96  0     1  0  0  0  0  0999 V2000
  -18.2506  -30.2945   24.0671 C   0  0  0  0  0  0  0  0  0  0  0  0
  -19.2734  -29.7222   23.3176 C   0  0  0  0  0  0  0  0  0  0  0  0
  -23.1596   -9.8469   21.4817 C   0  0  0  0  0  0  0  0  0  0  0  0
  -23.8803  -10.8074   23.5782 C   0  0  0  0  0  0  0  0  0  0  0  0
  -18.3141  -31.6429   24.4159 C   0  0  0  0  0  0  0  0  0  0  0  0
  -20.3599  -30.4983   22.9156 C   0  0  0  0  0  0  0  0  0  0  0  0
  -24.7906  -28.1470   23.6120 C   0  0  0  0  0  0  0  0  0  0  0  0
  -22.4650   -8.8555   22.1746 C   0  0  0  0  0  0  0  0  0  0  0  0
  -23.1856   -9.8160   24.2712 C   0  0  0  0  0  0  0  0  0  0  0  0
  -25.1491  -27.1749   22.6792 C   0  0  0  0  0  0  0  0  0  0  0  0
  -23.1830   -5.9623   23.7679 C   0  0  0  0  0  0  0  0  0  0  0  0
  -23.3123   -4.6478   23.3197 C   0  0  0  0  0  0  0  0  0  0  0  0
  -26.5887  -28.7687   21.5806 C   0  0  0  0  0  0  0  0  0  0  0  0
  -30.1843  -19.9837   18.8752 C   0  0  0  0  0  0  0  0  0  0  0  0
  -30.8581  -17.6641   18.9244 C   0  0  0  0  0  0  0  0  0  0  0  0
  -20.9288   -4.5435   22.9383 C   0  0  0  0  0  0  0  0  0  0  0  0
  -23.8673  -10.8229   22.1835 C   0  0  0  0  0  0  0  0  0  0  0  0
  -24.0956  -13.1025   21.0616 C   0  0  0  0  0  0  0  0  0  0  0  0
  -19.4066  -32.4336   24.0262 C   0  0  0  0  0  0  0  0  0  0  0  0
  -25.3210  -29.4426   23.5296 C   0  0  0  0  0  0  0  0  0  0  0  0
  -20.4374  -31.8589   23.2584 C   0  0  0  0  0  0  0  0  0  0  0  0
  -26.2373  -29.7547   22.5152 C   0  0  0  0  0  0  0  0  0  0  0  0
  -30.9645  -18.9416   18.3744 C   0  0  0  0  0  0  0  0  0  0  0  0
  -29.2977  -19.7484   19.9261 C   0  0  0  0  0  0  0  0  0  0  0  0
  -29.9714  -17.4288   19.9752 C   0  0  0  0  0  0  0  0  0  0  0  0
  -22.4780   -8.8400   23.5693 C   0  0  0  0  0  0  0  0  0  0  0  0
  -26.0460  -27.4865   21.6615 C   0  0  0  0  0  0  0  0  0  0  0  0
  -21.9267   -6.5675   23.8014 C   0  0  0  0  0  0  0  0  0  0  0  0
  -22.1852   -3.9384   22.9049 C   0  0  0  0  0  0  0  0  0  0  0  0
  -20.7996   -5.8580   23.3866 C   0  0  0  0  0  0  0  0  0  0  0  0
  -29.1912  -18.4710   20.4760 C   0  0  0  0  0  0  0  0  0  0  0  0
  -24.5855  -11.8469   21.4682 C   0  0  0  0  0  0  0  0  0  0  0  0
  -25.1584  -13.6961   20.4254 C   0  0  0  0  0  0  0  0  0  0  0  0
  -22.7962  -13.6807   21.2429 C   0  0  0  0  0  0  0  0  0  0  0  0
  -24.0969  -32.3443   23.0992 C   0  0  0  0  0  0  0  0  0  0  0  0
  -27.1496  -33.2894   23.6563 C   0  0  0  0  0  0  0  0  0  0  0  0
  -28.4875  -22.1317   20.0038 C   0  0  0  0  0  0  0  0  0  0  0  0
  -30.4728  -32.5132   23.6328 C   0  0  0  0  0  0  0  0  0  0  0  0
  -30.5676  -14.9875   20.1502 C   0  0  0  0  0  0  0  0  0  0  0  0
  -19.4080  -33.8981   24.3868 C   0  0  0  0  0  0  0  0  0  0  0  0
  -24.9447  -30.4722   24.5595 C   0  0  0  0  0  0  0  0  0  0  0  0
  -26.8507  -31.1250   22.3948 C   0  0  0  0  0  0  0  0  0  0  0  0
  -20.7758  -34.5600   24.2405 C   0  0  0  0  0  0  0  0  0  0  0  0
  -29.6038  -11.7770   18.9496 C   0  0  0  0  0  0  0  0  0  0  0  0
  -21.4152  -34.1759   22.9099 C   0  0  0  0  0  0  0  0  0  0  0  0
  -28.1720  -11.6123   19.4644 C   0  0  0  0  0  0  0  0  0  0  0  0
  -30.4874  -12.5114   19.9564 C   0  0  0  0  0  0  0  0  0  0  0  0
  -28.5268  -13.6346   20.9380 C   0  0  0  0  0  0  0  0  0  0  0  0
  -21.6445  -32.6620   22.8247 C   0  0  1  0  0  0  0  0  0  0  0  0
  -25.1508  -31.9043   24.0756 C   0  0  1  0  0  0  0  0  0  0  0  0
  -27.5826  -12.9579   19.9310 C   0  0  2  0  0  0  0  0  0  0  0  0
  -32.7302  -33.5026   24.1045 C   0  0  0  0  0  0  0  0  0  0  0  0
  -27.0172  -34.8372   21.0301 C   0  0  0  0  0  0  0  0  0  0  0  0
  -29.5151  -34.9999   21.0807 C   0  0  0  0  0  0  0  0  0  0  0  0
  -28.1618  -36.0456   22.8967 C   0  0  0  0  0  0  0  0  0  0  0  0
  -31.0305  -30.5238   25.7518 C   0  0  0  0  0  0  0  0  0  0  0  0
  -27.4905  -22.9422   20.8204 C   0  0  0  0  0  0  0  0  0  0  0  0
  -27.4297  -24.4039   20.3905 C   0  0  0  0  0  0  0  0  0  0  0  0
  -26.3932  -25.1819   21.1881 C   0  0  0  0  0  0  0  0  0  1  0  0
  -28.3684  -33.5277   22.7981 C   0  0  1  0  0  0  0  0  0  0  0  0
  -31.5612  -32.7127   24.6720 C   0  0  2  0  0  0  0  0  0  0  0  0
  -31.9125  -19.1930   17.2506 C   0  0  0  0  0  0  0  0  0  0  0  0
  -28.2528  -34.8272   21.9522 C   0  0  0  0  0  0  0  0  0  0  0  0
  -25.8602  -11.6531   21.1194 N   0  0  0  0  0  0  0  0  0  0  0  0
  -26.1803  -12.7948   20.4869 N   0  0  0  0  0  0  0  0  0  0  0  0
  -26.4465  -32.0991   23.4219 N   0  0  0  0  0  0  0  0  0  0  0  0
  -29.8676  -13.7787   20.3495 N   0  0  0  0  0  0  0  0  0  0  0  0
  -25.3091  -14.8957   19.8248 N   0  0  0  0  0  0  0  0  0  0  0  0
  -21.8213  -12.9345   21.9190 N   0  0  0  0  0  0  0  0  0  0  0  0
  -28.5070  -20.8074   20.4322 N   0  0  0  0  0  0  0  0  0  0  0  0
  -29.8653  -16.1301   20.5319 N   0  0  0  0  0  0  0  0  0  0  0  0
  -22.8089  -32.2830   23.5959 N   0  0  0  0  0  0  0  0  0  0  0  0
  -29.5144  -33.5022   23.7005 N   0  0  0  0  0  0  0  0  0  0  0  0
  -32.0708  -31.3955   25.1478 N   0  3  0  0  0  0  0  0  0  0  0  0
  -22.5032  -14.8185   20.8035 O   0  0  0  0  0  0  0  0  0  0  0  0
  -24.4279  -32.7135   21.9785 O   0  0  0  0  0  0  0  0  0  0  0  0
  -26.8370  -34.1249   24.5082 O   0  0  0  0  0  0  0  0  0  0  0  0
  -29.1535  -22.6339   19.1045 O   0  0  0  0  0  0  0  0  0  0  0  0
  -30.4747  -31.5759   22.8377 O   0  0  0  0  0  0  0  0  0  0  0  0
  -31.6954  -15.0095   19.6507 O   0  0  0  0  0  0  0  0  0  0  0  0
  -21.8001   -7.8729   24.2459 O   0  0  0  0  0  0  0  0  0  0  0  0
  -26.3971  -26.5397   20.7493 O   0  0  0  0  0  0  0  0  0  1  0  0
  -22.3097   -2.6766   22.4731 F   0  0  0  0  0  0  0  0  0  0  0  0
  -19.5902   -6.4345   23.4153 F   0  0  0  0  0  0  0  0  0  0  0  0
  -28.3388  -18.2448   21.4874 F   0  0  0  0  0  0  0  0  0  0  0  0
  -31.9113  -20.4868   16.8127 F   0  0  0  0  0  0  0  0  0  0  0  0
  -33.2146  -18.9242   17.5634 F   0  0  0  0  0  0  0  0  0  0  0  0
  -31.6358  -18.4339   16.1507 F   0  0  0  0  0  0  0  0  0  0  0  0
  1  2  1  0  0  0  0
  1  5  2  0  0  0  0
  2  6  2  0  0  0  0
  3  8  2  0  0  0  0
  3 17  1  0  0  0  0
  4  9  1  0  0  0  0
  4 17  2  0  0  0  0
  5 19  1  0  0  0  0
  6 21  1  0  0  0  0
  7 10  2  0  0  0  0
  7 20  1  0  0  0  0
  8 26  1  0  0  0  0
  9 26  2  0  0  0  0
 10 27  1  0  0  0  0
 11 12  2  0  0  0  0
 11 28  1  0  0  0  0
 12 29  1  0  0  0  0
 13 22  1  0  0  0  0
 13 27  2  0  0  0  0
 14 23  2  0  0  0  0
 14 24  1  0  0  0  0
 15 23  1  0  0  0  0
 15 25  2  0  0  0  0
 16 29  2  0  0  0  0
 16 30  1  0  0  0  0
 17 32  1  0  0  0  0
 18 32  1  0  0  0  0
 18 33  2  0  0  0  0
 18 34  1  0  0  0  0
 19 21  2  0  0  0  0
 19 40  1  0  0  0  0
 20 22  2  0  0  0  0
 20 41  1  0  0  0  0
 21 49  1  0  0  0  0
 22 42  1  0  0  0  0
 23 62  1  0  0  0  0
 24 31  2  0  0  0  0
 24 70  1  0  0  0  0
 25 31  1  0  0  0  0
 25 71  1  0  0  0  0
 26 81  1  0  0  0  0
 27 82  1  0  0  0  0
 28 30  2  0  0  0  0
 28 81  1  0  0  0  0
 29 83  1  0  0  0  0
 30 84  1  0  0  0  0
 31 85  1  0  0  0  0
 32 64  2  0  0  0  0
 33 65  1  0  0  0  0
 33 68  1  0  0  0  0
 34 69  1  0  0  0  0
 34 75  2  0  0  0  0
 35 50  1  0  0  0  0
 35 72  1  0  0  0  0
 35 76  2  0  0  0  0
 36 60  1  0  0  0  0
 36 66  1  0  0  0  0
 36 77  2  0  0  0  0
 37 57  1  0  0  0  0
 37 70  1  0  0  0  0
 37 78  2  0  0  0  0
 38 61  1  0  0  0  0
 38 73  1  0  0  0  0
 38 79  2  0  0  0  0
 39 67  1  0  0  0  0
 39 71  1  0  0  0  0
 39 80  2  0  0  0  0
 40 43  1  0  0  0  0
 41 50  1  0  0  0  0
 42 66  1  0  0  0  0
 43 45  1  0  0  0  0
 44 46  1  0  0  0  0
 44 47  1  0  0  0  0
 45 49  1  0  0  0  0
 46 51  1  0  0  0  0
 47 67  1  0  0  0  0
 48 51  1  0  0  0  0
 48 67  1  0  0  0  0
 49 72  1  0  0  0  0
 50 66  1  0  0  0  0
 51 65  1  0  0  0  0
 52 61  1  0  0  0  0
 53 63  1  0  0  0  0
 54 63  1  0  0  0  0
 55 63  1  0  0  0  0
 56 74  1  0  0  0  0
 57 58  1  0  0  0  0
 58 59  1  0  0  0  0
 59 82  1  0  0  0  0
 60 63  1  0  0  0  0
 60 73  1  0  0  0  0
 61 74  1  0  0  0  0
 62 86  1  0  0  0  0
 62 87  1  0  0  0  0
 62 88  1  0  0  0  0
 64 65  1  0  0  0  0
M  CHG  1  74   1
M  ISO  4  39 100  59 101  71 100  82 101
M  END
> <Batch ID>
0008

> <Smiles>
CNC(C)C(=O)NC(C(=O)N1Cc2cc([101O:1][101CH2:1]CCC(=O)Nc3cc(C(F)(F)F)cc([100NH:0][100C:0](=O)N4CCCC(n5nc(-c6ccc(Oc7ccc(F)cc7F)cc6)c(C(N)=O)c5N)C4)c3F)ccc2CC1C(=O)NC1CCCc2ccccc21)C(C)(C)C

> <Shape>
0.296

> <Color>
0.169

> <Negative vol penalty>
0.000

$$$$

  -OEChem-04052315363D

 84 92  0     1  0  0  0  0  0999 V2000
  -28.7636  -36.9972   23.5044 C   0  0  0  0  0  0  0  0  0  0  0  0
  -29.1618  -35.7388   23.0649 C   0  0  0  0  0  0  0  0  0  0  0  0
  -24.0358   -9.2236   21.0694 C   0  0  0  0  0  0  0  0  0  0  0  0
  -25.8189   -9.5728   22.6617 C   0  0  0  0  0  0  0  0  0  0  0  0
  -27.5341  -37.1546   24.1427 C   0  0  0  0  0  0  0  0  0  0  0  0
  -28.3311  -34.6367   23.2644 C   0  0  0  0  0  0  0  0  0  0  0  0
  -27.6415  -29.8241   19.5403 C   0  0  0  0  0  0  0  0  0  0  0  0
  -23.9153   -7.9005   21.4944 C   0  0  0  0  0  0  0  0  0  0  0  0
  -25.6984   -8.2497   23.0868 C   0  0  0  0  0  0  0  0  0  0  0  0
  -28.1909  -28.5428   19.5518 C   0  0  0  0  0  0  0  0  0  0  0  0
  -22.5303   -6.2345   24.0903 C   0  0  0  0  0  0  0  0  0  0  0  0
  -21.2454   -5.7402   24.3148 C   0  0  0  0  0  0  0  0  0  0  0  0
  -26.2273  -27.7175   20.6842 C   0  0  0  0  0  0  0  0  0  0  0  0
  -28.7369  -20.7954   19.4966 C   0  0  0  0  0  0  0  0  0  0  0  0
  -29.9388  -20.1054   21.4757 C   0  0  0  0  0  0  0  0  0  0  0  0
  -21.6068   -4.0393   22.6374 C   0  0  0  0  0  0  0  0  0  0  0  0
  -24.9876  -10.0597   21.6530 C   0  0  0  0  0  0  0  0  0  0  0  0
  -24.4359  -12.5492   21.7262 C   0  0  0  0  0  0  0  0  0  0  0  0
  -26.6837  -36.0556   24.3416 C   0  0  0  0  0  0  0  0  0  0  0  0
  -26.3834  -30.0642   20.1113 C   0  0  0  0  0  0  0  0  0  0  0  0
  -27.0897  -34.7793   23.9072 C   0  0  0  0  0  0  0  0  0  0  0  0
  -25.6630  -29.0022   20.6763 C   0  0  0  0  0  0  0  0  0  0  0  0
  -28.4772  -19.4600   19.1888 C   0  0  0  0  0  0  0  0  0  0  0  0
  -29.6790  -18.7700   21.1678 C   0  0  0  0  0  0  0  0  0  0  0  0
  -29.4678  -21.1181   20.6401 C   0  0  0  0  0  0  0  0  0  0  0  0
  -28.9482  -18.4473   20.0243 C   0  0  0  0  0  0  0  0  0  0  0  0
  -24.7465   -7.4136   22.5031 C   0  0  0  0  0  0  0  0  0  0  0  0
  -27.4851  -27.4898   20.1264 C   0  0  0  0  0  0  0  0  0  0  0  0
  -23.3534   -5.6313   23.1394 C   0  0  0  0  0  0  0  0  0  0  0  0
  -20.7837   -4.6426   23.5883 C   0  0  0  0  0  0  0  0  0  0  0  0
  -22.8917   -4.5337   22.4129 C   0  0  0  0  0  0  0  0  0  0  0  0
  -25.1130  -11.4263   21.2140 C   0  0  0  0  0  0  0  0  0  0  0  0
  -24.9005  -13.6019   20.9763 C   0  0  0  0  0  0  0  0  0  0  0  0
  -23.4730  -12.6333   22.7852 C   0  0  0  0  0  0  0  0  0  0  0  0
  -25.3130  -31.8574   22.5076 C   0  0  0  0  0  0  0  0  0  0  0  0
  -22.4144  -30.8733   21.4343 C   0  0  0  0  0  0  0  0  0  0  0  0
  -29.3417  -23.6008   20.2349 C   0  0  0  0  0  0  0  0  0  0  0  0
  -20.5939  -28.5414   19.7328 C   0  0  0  0  0  0  0  0  0  0  0  0
  -29.0665  -16.3988   18.5627 C   0  0  0  0  0  0  0  0  0  0  0  0
  -25.3850  -36.2667   25.0788 C   0  0  0  0  0  0  0  0  0  0  0  0
  -25.7929  -31.4469   20.0669 C   0  0  0  0  0  0  0  0  0  0  0  0
  -24.2998  -29.2035   21.2843 C   0  0  0  0  0  0  0  0  0  0  0  0
  -24.3983  -35.1132   24.9170 C   0  0  0  0  0  0  0  0  0  0  0  0
  -27.6893  -13.6597   16.7524 C   0  0  0  0  0  0  0  0  0  0  0  0
  -25.1015  -33.7758   25.1262 C   0  0  0  0  0  0  0  0  0  0  0  0
  -26.8406  -12.9268   17.7939 C   0  0  0  0  0  0  0  0  0  0  0  0
  -28.9708  -14.2256   17.3616 C   0  0  0  0  0  0  0  0  0  0  0  0
  -27.9261  -14.3349   19.5899 C   0  0  0  0  0  0  0  0  0  0  0  0
  -26.2054  -33.5639   24.0832 C   0  0  1  0  0  0  0  0  0  0  0  0
  -24.7284  -31.6766   21.1353 C   0  0  1  0  0  0  0  0  0  0  0  0
  -26.5935  -13.8033   19.0374 C   0  0  2  0  0  0  0  0  0  0  0  0
  -27.6925  -19.1455   17.9562 C   0  0  0  0  0  0  0  0  0  0  0  0
  -30.1963  -17.7069   22.0824 C   0  0  0  0  0  0  0  0  0  0  0  0
  -18.2415  -27.9891   19.0556 C   0  0  0  0  0  0  0  0  0  0  0  0
  -21.8171  -29.9420   24.2779 C   0  0  0  0  0  0  0  0  0  0  0  0
  -19.9245  -28.5836   23.3609 C   0  0  0  0  0  0  0  0  0  0  0  0
  -19.9039  -31.0668   23.1249 C   0  0  0  0  0  0  0  0  0  0  0  0
  -21.2664  -28.6813   16.8540 C   0  0  0  0  0  0  0  0  0  0  0  0
  -29.8364  -24.8681   20.9229 C   0  0  0  0  0  0  0  0  0  0  0  0
  -29.4422  -26.1400   20.1876 C   0  0  0  0  0  0  0  0  0  1  0  0
  -21.5077  -29.7020   21.7259 C   0  0  1  0  0  0  0  0  0  0  0  0
  -19.5349  -28.6811   18.6542 C   0  0  2  0  0  0  0  0  0  0  0  0
  -20.8148  -29.8199   23.1128 C   0  0  0  0  0  0  0  0  0  0  0  0
  -25.9444  -11.7365   20.2157 N   0  0  0  0  0  0  0  0  0  0  0  0
  -25.7927  -13.0664   20.0946 N   0  0  0  0  0  0  0  0  0  0  0  0
  -23.7678  -30.5748   21.2221 N   0  0  0  0  0  0  0  0  0  0  0  0
  -28.6586  -15.0485   18.5321 N   0  0  0  0  0  0  0  0  0  0  0  0
  -24.6289  -14.9242   20.9916 N   0  0  0  0  0  0  0  0  0  0  0  0
  -23.1079  -11.4554   23.4513 N   0  0  0  0  0  0  0  0  0  0  0  0
  -29.7320  -22.4730   20.9520 N   0  0  0  0  0  0  0  0  0  0  0  0
  -28.6850  -17.0905   19.7120 N   0  0  0  0  0  0  0  0  0  0  0  0
  -25.6328  -33.1661   22.8150 N   0  0  0  0  0  0  0  0  0  0  0  0
  -20.5825  -29.6122   20.6014 N   0  0  0  0  0  0  0  0  0  0  0  0
  -20.0133  -28.0792   17.3775 N   0  3  0  0  0  0  0  0  0  0  0  0
  -22.9397  -13.7182   23.1197 O   0  0  0  0  0  0  0  0  0  0  0  0
  -25.4614  -30.8820   23.2344 O   0  0  0  0  0  0  0  0  0  0  0  0
  -21.9381  -32.0102   21.3891 O   0  0  0  0  0  0  0  0  0  0  0  0
  -28.6939  -23.6336   19.1939 O   0  0  0  0  0  0  0  0  0  0  0  0
  -21.3527  -27.5770   19.8003 O   0  0  0  0  0  0  0  0  0  0  0  0
  -29.6834  -16.9118   17.6255 O   0  0  0  0  0  0  0  0  0  0  0  0
  -24.6291   -6.1227   22.9183 O   0  0  0  0  0  0  0  0  0  0  0  0
  -28.0194  -26.2383   20.1396 O   0  0  0  0  0  0  0  0  0  1  0  0
  -19.5504   -4.1671   23.8050 F   0  0  0  0  0  0  0  0  0  0  0  0
  -23.6783   -3.9493   21.4989 F   0  0  0  0  0  0  0  0  0  0  0  0
  1  2  1  0  0  0  0
  1  5  2  0  0  0  0
  2  6  2  0  0  0  0
  3  8  2  0  0  0  0
  3 17  1  0  0  0  0
  4  9  1  0  0  0  0
  4 17  2  0  0  0  0
  5 19  1  0  0  0  0
  6 21  1  0  0  0  0
  7 10  2  0  0  0  0
  7 20  1  0  0  0  0
  8 27  1  0  0  0  0
  9 27  2  0  0  0  0
 10 28  1  0  0  0  0
 11 12  2  0  0  0  0
 11 29  1  0  0  0  0
 12 30  1  0  0  0  0
 13 22  1  0  0  0  0
 13 28  2  0  0  0  0
 14 23  2  0  0  0  0
 14 25  1  0  0  0  0
 15 24  1  0  0  0  0
 15 25  2  0  0  0  0
 16 30  2  0  0  0  0
 16 31  1  0  0  0  0
 17 32  1  0  0  0  0
 18 32  1  0  0  0  0
 18 33  2  0  0  0  0
 18 34  1  0  0  0  0
 19 21  2  0  0  0  0
 19 40  1  0  0  0  0
 20 22  2  0  0  0  0
 20 41  1  0  0  0  0
 21 49  1  0  0  0  0
 22 42  1  0  0  0  0
 23 26  1  0  0  0  0
 23 52  1  0  0  0  0
 24 26  2  0  0  0  0
 24 53  1  0  0  0  0
 25 70  1  0  0  0  0
 26 71  1  0  0  0  0
 27 81  1  0  0  0  0
 28 82  1  0  0  0  0
 29 31  2  0  0  0  0
 29 81  1  0  0  0  0
 30 83  1  0  0  0  0
 31 84  1  0  0  0  0
 32 64  2  0  0  0  0
 33 65  1  0  0  0  0
 33 68  1  0  0  0  0
 34 69  1  0  0  0  0
 34 75  2  0  0  0  0
 35 50  1  0  0  0  0
 35 72  1  0  0  0  0
 35 76  2  0  0  0  0
 36 61  1  0  0  0  0
 36 66  1  0  0  0  0
 36 77  2  0  0  0  0
 37 59  1  0  0  0  0
 37 70  1  0  0  0  0
 37 78  2  0  0  0  0
 38 62  1  0  0  0  0
 38 73  1  0  0  0  0
 38 79  2  0  0  0  0
 39 67  1  0  0  0  0
 39 71  1  0  0  0  0
 39 80  2  0  0  0  0
 40 43  1  0  0  0  0
 41 50  1  0  0  0  0
 42 66  1  0  0  0  0
 43 45  1  0  0  0  0
 44 46  1  0  0  0  0
 44 47  1  0  0  0  0
 45 49  1  0  0  0  0
 46 51  1  0  0  0  0
 47 67  1  0  0  0  0
 48 51  1  0  0  0  0
 48 67  1  0  0  0  0
 49 72  1  0  0  0  0
 50 66  1  0  0  0  0
 51 65  1  0  0  0  0
 54 62  1  0  0  0  0
 55 63  1  0  0  0  0
 56 63  1  0  0  0  0
 57 63  1  0  0  0  0
 58 74  1  0  0  0  0
 59 60  1  0  0  0  0
 60 82  1  0  0  0  0
 61 63  1  0  0  0  0
 61 73  1  0  0  0  0
 62 74  1  0  0  0  0
 64 65  1  0  0  0  0
M  CHG  1  74   1
M  ISO  4  39 100  60 101  71 100  82 101
M  END
> <Batch ID>
0008

> <Smiles>
CNC(C)C(=O)NC(C(=O)N1Cc2cc([101O:1][101CH2:1]CC(=O)Nc3cc(C)c([100NH:0][100C:0](=O)N4CCCC(n5nc(-c6ccc(Oc7ccc(F)cc7F)cc6)c(C(N)=O)c5N)C4)c(C)c3)ccc2CC1C(=O)NC1CCCc2ccccc21)C(C)(C)C

> <Shape>
0.354

> <Color>
0.115

> <Negative vol penalty>
0.000

$$$$

  -OEChem-04052315363D

 85 93  0     1  0  0  0  0  0999 V2000
  -33.1151  -20.9743   13.1108 C   0  0  0  0  0  0  0  0  0  0  0  0
  -32.3726  -20.4914   14.1836 C   0  0  0  0  0  0  0  0  0  0  0  0
  -23.0598   -9.8885   19.9140 C   0  0  0  0  0  0  0  0  0  0  0  0
  -23.8427   -9.8318   22.1989 C   0  0  0  0  0  0  0  0  0  0  0  0
  -33.4324  -22.3300   13.0380 C   0  0  0  0  0  0  0  0  0  0  0  0
  -31.9479  -21.3639   15.1850 C   0  0  0  0  0  0  0  0  0  0  0  0
  -26.7088  -21.0728   18.3430 C   0  0  0  0  0  0  0  0  0  0  0  0
  -22.3147   -8.7314   20.1406 C   0  0  0  0  0  0  0  0  0  0  0  0
  -23.0975   -8.6747   22.4256 C   0  0  0  0  0  0  0  0  0  0  0  0
  -26.4022  -20.5708   19.6070 C   0  0  0  0  0  0  0  0  0  0  0  0
  -19.8730   -7.8710   23.0393 C   0  0  0  0  0  0  0  0  0  0  0  0
  -19.1277   -7.8022   24.2163 C   0  0  0  0  0  0  0  0  0  0  0  0
  -26.6265  -22.7863   20.5347 C   0  0  0  0  0  0  0  0  0  0  0  0
  -31.1669  -17.6739   20.6977 C   0  0  0  0  0  0  0  0  0  0  0  0
  -30.6189  -19.8217   21.6586 C   0  0  0  0  0  0  0  0  0  0  0  0
  -29.5542  -17.8190   22.4908 C   0  0  0  0  0  0  0  0  0  0  0  0
  -20.3699   -5.8419   24.8882 C   0  0  0  0  0  0  0  0  0  0  0  0
  -23.8239  -10.4387   20.9431 C   0  0  0  0  0  0  0  0  0  0  0  0
  -24.1730  -12.9651   20.8871 C   0  0  0  0  0  0  0  0  0  0  0  0
  -33.0031  -23.2212   14.0340 C   0  0  0  0  0  0  0  0  0  0  0  0
  -26.9878  -22.4357   18.1669 C   0  0  0  0  0  0  0  0  0  0  0  0
  -32.2608  -22.7326   15.1262 C   0  0  0  0  0  0  0  0  0  0  0  0
  -26.9339  -23.3035   19.2670 C   0  0  0  0  0  0  0  0  0  0  0  0
  -31.3391  -19.0573   20.7406 C   0  0  0  0  0  0  0  0  0  0  0  0
  -30.2744  -17.0546   21.5728 C   0  0  0  0  0  0  0  0  0  0  0  0
  -22.3335   -8.1245   21.3964 C   0  0  0  0  0  0  0  0  0  0  0  0
  -26.3638  -21.4270   20.7036 C   0  0  0  0  0  0  0  0  0  0  0  0
  -20.8667   -6.9253   22.7866 C   0  0  0  0  0  0  0  0  0  0  0  0
  -29.7264  -19.2025   22.5337 C   0  0  0  0  0  0  0  0  0  0  0  0
  -19.3762   -6.7876   25.1408 C   0  0  0  0  0  0  0  0  0  0  0  0
  -21.1152   -5.9108   23.7111 C   0  0  0  0  0  0  0  0  0  0  0  0
  -24.5944  -11.6337   20.7095 C   0  0  0  0  0  0  0  0  0  0  0  0
  -25.2639  -13.7207   20.5329 C   0  0  0  0  0  0  0  0  0  0  0  0
  -22.9085  -13.4734   21.3325 C   0  0  0  0  0  0  0  0  0  0  0  0
  -29.5091  -24.0999   17.1784 C   0  0  0  0  0  0  0  0  0  0  0  0
  -27.4561  -26.6014   17.4016 C   0  0  0  0  0  0  0  0  0  0  0  0
  -24.6321  -27.9163   18.7956 C   0  0  0  0  0  0  0  0  0  0  0  0
  -30.7351  -14.7444   20.6801 C   0  0  0  0  0  0  0  0  0  0  0  0
  -33.4108  -24.6700   13.9365 C   0  0  0  0  0  0  0  0  0  0  0  0
  -27.2906  -22.9662   16.7924 C   0  0  0  0  0  0  0  0  0  0  0  0
  -27.2056  -24.7784   19.1277 C   0  0  0  0  0  0  0  0  0  0  0  0
  -32.6032  -25.5925   14.8459 C   0  0  0  0  0  0  0  0  0  0  0  0
  -29.5889  -12.3982   18.2596 C   0  0  0  0  0  0  0  0  0  0  0  0
  -32.4934  -24.9989   16.2467 C   0  0  0  0  0  0  0  0  0  0  0  0
  -28.1526  -12.0996   18.6958 C   0  0  0  0  0  0  0  0  0  0  0  0
  -30.5168  -12.5920   19.4576 C   0  0  0  0  0  0  0  0  0  0  0  0
  -28.6262  -13.2851   20.8770 C   0  0  0  0  0  0  0  0  0  0  0  0
  -31.7609  -23.6520   16.2193 C   0  0  1  0  0  0  0  0  0  0  0  0
  -28.0622  -24.2820   16.8164 C   0  0  1  0  0  0  0  0  0  0  0  0
  -27.6410  -13.1464   19.7049 C   0  0  2  0  0  0  0  0  0  0  0  0
  -23.2282  -29.9962   18.8122 C   0  0  0  0  0  0  0  0  0  0  0  0
  -29.5287  -27.9834   19.1636 C   0  0  0  0  0  0  0  0  0  0  0  0
  -27.7387  -29.5692   19.9051 C   0  0  0  0  0  0  0  0  0  0  0  0
  -28.4066  -29.4797   17.5033 C   0  0  0  0  0  0  0  0  0  0  0  0
  -22.2650  -26.4661   17.7696 C   0  0  0  0  0  0  0  0  0  0  0  0
  -26.8373  -20.6264   24.2031 C   0  0  0  0  0  0  0  0  0  0  0  0
  -26.6445  -21.6085   23.0582 C   0  0  0  0  0  0  0  0  0  1  0  0
  -27.7377  -19.4654   23.8111 C   0  0  0  0  0  0  0  0  0  0  0  0
  -27.0701  -27.5738   18.4900 C   0  0  1  0  0  0  0  0  0  0  0  0
  -23.4429  -28.6303   18.1789 C   0  0  2  0  0  0  0  0  0  0  0  0
  -32.2931  -19.7196   19.8050 C   0  0  0  0  0  0  0  0  0  0  0  0
  -28.1827  -28.6235   18.7688 C   0  0  0  0  0  0  0  0  0  0  0  0
  -25.8546  -11.5452   20.2760 N   0  0  0  0  0  0  0  0  0  0  0  0
  -26.2345  -12.8305   20.1782 N   0  0  0  0  0  0  0  0  0  0  0  0
  -27.5032  -25.2479   17.7644 N   0  0  0  0  0  0  0  0  0  0  0  0
  -29.9701  -13.6007   20.3678 N   0  0  0  0  0  0  0  0  0  0  0  0
  -25.4780  -15.0530   20.4933 N   0  0  0  0  0  0  0  0  0  0  0  0
  -21.8970  -12.5587   21.6556 N   0  0  0  0  0  0  0  0  0  0  0  0
  -30.0990  -15.6492   21.5294 N   0  0  0  0  0  0  0  0  0  0  0  0
  -30.3333  -23.8555   16.0965 N   0  0  0  0  0  0  0  0  0  0  0  0
  -25.7919  -28.1505   18.0875 N   0  0  0  0  0  0  0  0  0  0  0  0
  -22.2023  -27.8258   18.3648 N   0  3  0  0  0  0  0  0  0  0  0  0
  -22.6769  -14.7028   21.4250 O   0  0  0  0  0  0  0  0  0  0  0  0
  -29.8525  -24.1769   18.3522 O   0  0  0  0  0  0  0  0  0  0  0  0
  -27.6997  -27.0263   16.2695 O   0  0  0  0  0  0  0  0  0  0  0  0
  -24.5421  -27.2233   19.8066 O   0  0  0  0  0  0  0  0  0  0  0  0
  -31.8600  -14.9221   20.2057 O   0  0  0  0  0  0  0  0  0  0  0  0
  -21.6063   -6.9955   21.6180 O   0  0  0  0  0  0  0  0  0  0  0  0
  -26.0654  -20.9395   21.9386 O   0  0  0  0  0  0  0  0  0  1  0  0
  -29.0184  -19.9536   23.4355 O   0  0  0  0  0  0  0  0  0  0  0  0
  -18.6614   -6.7225   26.2717 F   0  0  0  0  0  0  0  0  0  0  0  0
  -22.0694   -5.0001   23.4744 F   0  0  0  0  0  0  0  0  0  0  0  0
  -32.9273  -18.8503   18.9635 F   0  0  0  0  0  0  0  0  0  0  0  0
  -31.7052  -20.6419   18.9868 F   0  0  0  0  0  0  0  0  0  0  0  0
  -33.2879  -20.3897   20.4565 F   0  0  0  0  0  0  0  0  0  0  0  0
  1  2  1  0  0  0  0
  1  5  2  0  0  0  0
  2  6  2  0  0  0  0
  3  8  2  0  0  0  0
  3 18  1  0  0  0  0
  4  9  1  0  0  0  0
  4 18  2  0  0  0  0
  5 20  1  0  0  0  0
  6 22  1  0  0  0  0
  7 10  2  0  0  0  0
  7 21  1  0  0  0  0
  8 26  1  0  0  0  0
  9 26  2  0  0  0  0
 10 27  1  0  0  0  0
 11 12  2  0  0  0  0
 11 28  1  0  0  0  0
 12 30  1  0  0  0  0
 13 23  1  0  0  0  0
 13 27  2  0  0  0  0
 14 24  2  0  0  0  0
 14 25  1  0  0  0  0
 15 24  1  0  0  0  0
 15 29  2  0  0  0  0
 16 25  2  0  0  0  0
 16 29  1  0  0  0  0
 17 30  2  0  0  0  0
 17 31  1  0  0  0  0
 18 32  1  0  0  0  0
 19 32  1  0  0  0  0
 19 33  2  0  0  0  0
 19 34  1  0  0  0  0
 20 22  2  0  0  0  0
 20 39  1  0  0  0  0
 21 23  2  0  0  0  0
 21 40  1  0  0  0  0
 22 48  1  0  0  0  0
 23 41  1  0  0  0  0
 24 61  1  0  0  0  0
 25 69  1  0  0  0  0
 26 78  1  0  0  0  0
 27 79  1  0  0  0  0
 28 31  2  0  0  0  0
 28 78  1  0  0  0  0
 29 80  1  0  0  0  0
 30 81  1  0  0  0  0
 31 82  1  0  0  0  0
 32 63  2  0  0  0  0
 33 64  1  0  0  0  0
 33 67  1  0  0  0  0
 34 68  1  0  0  0  0
 34 73  2  0  0  0  0
 35 49  1  0  0  0  0
 35 70  1  0  0  0  0
 35 74  2  0  0  0  0
 36 59  1  0  0  0  0
 36 65  1  0  0  0  0
 36 75  2  0  0  0  0
 37 60  1  0  0  0  0
 37 71  1  0  0  0  0
 37 76  2  0  0  0  0
 38 66  1  0  0  0  0
 38 69  1  0  0  0  0
 38 77  2  0  0  0  0
 39 42  1  0  0  0  0
 40 49  1  0  0  0  0
 41 65  1  0  0  0  0
 42 44  1  0  0  0  0
 43 45  1  0  0  0  0
 43 46  1  0  0  0  0
 44 48  1  0  0  0  0
 45 50  1  0  0  0  0
 46 66  1  0  0  0  0
 47 50  1  0  0  0  0
 47 66  1  0  0  0  0
 48 70  1  0  0  0  0
 49 65  1  0  0  0  0
 50 64  1  0  0  0  0
 51 60  1  0  0  0  0
 52 62  1  0  0  0  0
 53 62  1  0  0  0  0
 54 62  1  0  0  0  0
 55 72  1  0  0  0  0
 56 57  1  0  0  0  0
 56 58  1  0  0  0  0
 57 79  1  0  0  0  0
 58 80  1  0  0  0  0
 59 62  1  0  0  0  0
 59 71  1  0  0  0  0
 60 72  1  0  0  0  0
 61 83  1  0  0  0  0
 61 84  1  0  0  0  0
 61 85  1  0  0  0  0
 63 64  1  0  0  0  0
M  CHG  1  72   1
M  ISO  4  38 100  57 101  69 100  79 101
M  END
> <Batch ID>
0008

> <Smiles>
CNC(C)C(=O)NC(C(=O)N1Cc2cc([101O:1][101CH2:1]CCOc3cc([100NH:0][100C:0](=O)N4CCCC(n5nc(-c6ccc(Oc7ccc(F)cc7F)cc6)c(C(N)=O)c5N)C4)cc(C(F)(F)F)c3)ccc2CC1C(=O)NC1CCCc2ccccc21)C(C)(C)C

> <Shape>
0.241

> <Color>
0.198

> <Negative vol penalty>
0.000

$$$$

  -OEChem-04052315363D

 85 93  0     1  0  0  0  0  0999 V2000
  -28.3335  -37.0878   18.5985 C   0  0  0  0  0  0  0  0  0  0  0  0
  -28.6820  -35.7412   18.5758 C   0  0  0  0  0  0  0  0  0  0  0  0
  -26.8237   -7.3587   21.7916 C   0  0  0  0  0  0  0  0  0  0  0  0
  -25.0500   -6.9435   20.2045 C   0  0  0  0  0  0  0  0  0  0  0  0
  -27.4845  -37.5703   19.5937 C   0  0  0  0  0  0  0  0  0  0  0  0
  -28.1825  -34.8764   19.5490 C   0  0  0  0  0  0  0  0  0  0  0  0
  -26.6683  -28.9880   18.8141 C   0  0  0  0  0  0  0  0  0  0  0  0
  -26.2217   -6.4818   22.6938 C   0  0  0  0  0  0  0  0  0  0  0  0
  -24.4480   -6.0665   21.1068 C   0  0  0  0  0  0  0  0  0  0  0  0
  -27.3473  -27.8029   19.0939 C   0  0  0  0  0  0  0  0  0  0  0  0
  -22.5261   -6.2769   23.8803 C   0  0  0  0  0  0  0  0  0  0  0  0
  -21.1476   -6.3829   24.0654 C   0  0  0  0  0  0  0  0  0  0  0  0
  -28.2159  -19.0757   18.4067 C   0  0  0  0  0  0  0  0  0  0  0  0
  -26.1932  -27.6476   21.2066 C   0  0  0  0  0  0  0  0  0  0  0  0
  -28.8206  -20.9234   20.4075 C   0  0  0  0  0  0  0  0  0  0  0  0
  -20.8720   -4.1019   23.3181 C   0  0  0  0  0  0  0  0  0  0  0  0
  -26.2378   -7.5897   20.5469 C   0  0  0  0  0  0  0  0  0  0  0  0
  -28.5266  -18.6343   19.6928 C   0  0  0  0  0  0  0  0  0  0  0  0
  -27.8139   -8.1799   18.6298 C   0  0  0  0  0  0  0  0  0  0  0  0
  -26.9665  -36.7091   20.5738 C   0  0  0  0  0  0  0  0  0  0  0  0
  -25.7532  -29.5184   19.7348 C   0  0  0  0  0  0  0  0  0  0  0  0
  -27.3267  -35.3480   20.5589 C   0  0  0  0  0  0  0  0  0  0  0  0
  -25.5020  -28.8382   20.9349 C   0  0  0  0  0  0  0  0  0  0  0  0
  -28.5099  -21.3648   19.1213 C   0  0  0  0  0  0  0  0  0  0  0  0
  -25.0339   -5.8357   22.3514 C   0  0  0  0  0  0  0  0  0  0  0  0
  -27.1120  -27.1341   20.2915 C   0  0  0  0  0  0  0  0  0  0  0  0
  -23.0775   -5.0835   23.4140 C   0  0  0  0  0  0  0  0  0  0  0  0
  -20.3206   -5.2954   23.7844 C   0  0  0  0  0  0  0  0  0  0  0  0
  -28.2075  -20.4410   18.1209 C   0  0  0  0  0  0  0  0  0  0  0  0
  -22.2504   -3.9960   23.1330 C   0  0  0  0  0  0  0  0  0  0  0  0
  -28.8290  -19.5581   20.6932 C   0  0  0  0  0  0  0  0  0  0  0  0
  -26.8589   -8.4959   19.6146 C   0  0  0  0  0  0  0  0  0  0  0  0
  -28.0825   -9.3783   18.0148 C   0  0  0  0  0  0  0  0  0  0  0  0
  -28.5216  -17.1966   19.9378 C   0  0  0  0  0  0  0  0  0  0  0  0
  -27.4641  -16.3798   19.7616 C   0  0  0  0  0  0  0  0  0  0  0  0
  -28.4053   -6.9160   18.3002 C   0  0  0  0  0  0  0  0  0  0  0  0
  -27.6204  -14.9388   20.0445 C   0  0  0  0  0  0  0  0  0  0  0  0
  -25.5611  -32.2149   21.4068 C   0  0  0  0  0  0  0  0  0  0  0  0
  -22.6551  -31.0360   22.2361 C   0  0  0  0  0  0  0  0  0  0  0  0
  -28.1744  -23.6940   19.8536 C   0  0  0  0  0  0  0  0  0  0  0  0
  -20.6374  -28.3112   22.6247 C   0  0  0  0  0  0  0  0  0  0  0  0
  -26.0901  -37.2859   21.6572 C   0  0  0  0  0  0  0  0  0  0  0  0
  -25.0091  -30.7836   19.4062 C   0  0  0  0  0  0  0  0  0  0  0  0
  -24.5144  -29.3551   21.9477 C   0  0  0  0  0  0  0  0  0  0  0  0
  -25.3046  -36.2306   22.4316 C   0  0  0  0  0  0  0  0  0  0  0  0
  -26.1070  -13.5971   16.9881 C   0  0  0  0  0  0  0  0  0  0  0  0
  -26.2132  -35.0697   22.8235 C   0  0  0  0  0  0  0  0  0  0  0  0
  -26.1788  -12.0967   17.2591 C   0  0  0  0  0  0  0  0  0  0  0  0
  -25.8696  -14.3985   18.2672 C   0  0  0  0  0  0  0  0  0  0  0  0
  -26.9343  -12.6115   19.6138 C   0  0  0  0  0  0  0  0  0  0  0  0
  -26.7855  -34.3738   21.5827 C   0  0  1  0  0  0  0  0  0  0  0  0
  -24.4802  -31.5041   20.6426 C   0  0  1  0  0  0  0  0  0  0  0  0
  -27.2196  -11.7893   18.3473 C   0  0  1  0  0  0  0  0  0  0  0  0
  -18.3264  -27.6593   23.3537 C   0  0  0  0  0  0  0  0  0  0  0  0
  -23.4657  -31.4312   25.1510 C   0  0  0  0  0  0  0  0  0  0  0  0
  -21.5786  -29.9226   25.8077 C   0  0  0  0  0  0  0  0  0  0  0  0
  -21.1047  -32.0695   24.6291 C   0  0  0  0  0  0  0  0  0  0  0  0
  -28.8384  -23.2308   17.4659 C   0  0  0  0  0  0  0  0  0  0  0  0
  -19.9921  -27.1813   19.9665 C   0  0  0  0  0  0  0  0  0  0  0  0
  -28.1490  -25.1631   19.4573 C   0  0  0  0  0  0  0  0  0  1  0  0
  -22.1367  -30.1520   23.3445 C   0  0  1  0  0  0  0  0  0  0  0  0
  -19.2119  -28.0415   22.1779 C   0  0  2  0  0  0  0  0  0  0  0  0
  -22.0915  -30.8848   24.7151 C   0  0  0  0  0  0  0  0  0  0  0  0
  -26.5423   -9.7934   19.6283 N   0  0  0  0  0  0  0  0  0  0  0  0
  -27.3027  -10.3033   18.6444 N   0  0  0  0  0  0  0  0  0  0  0  0
  -26.8415  -14.0444   19.3125 N   0  0  0  0  0  0  0  0  0  0  0  0
  -23.8166  -30.5992   21.5833 N   0  0  0  0  0  0  0  0  0  0  0  0
  -28.9073   -9.7205   17.0024 N   0  0  0  0  0  0  0  0  0  0  0  0
  -28.0165   -5.7854   19.0316 N   0  0  0  0  0  0  0  0  0  0  0  0
  -25.7907  -33.5101   20.9836 N   0  0  0  0  0  0  0  0  0  0  0  0
  -20.8441  -29.6477   22.8937 N   0  0  0  0  0  0  0  0  0  0  0  0
  -28.5029  -22.7835   18.8266 N   0  0  0  0  0  0  0  0  0  0  0  0
  -19.1816  -26.9298   21.1859 N   0  3  0  0  0  0  0  0  0  0  0  0
  -29.2655   -6.7958   17.3952 O   0  0  0  0  0  0  0  0  0  0  0  0
  -28.4287  -14.6149   20.9165 O   0  0  0  0  0  0  0  0  0  0  0  0
  -26.1427  -31.6319   22.3143 O   0  0  0  0  0  0  0  0  0  0  0  0
  -22.0478  -32.0722   21.9549 O   0  0  0  0  0  0  0  0  0  0  0  0
  -27.8842  -23.3868   21.0125 O   0  0  0  0  0  0  0  0  0  0  0  0
  -21.4820  -27.4244   22.7286 O   0  0  0  0  0  0  0  0  0  0  0  0
  -24.4463   -4.9797   23.2315 O   0  0  0  0  0  0  0  0  0  0  0  0
  -27.7739  -25.9775   20.5675 O   0  0  0  0  0  0  0  0  0  1  0  0
  -18.9970   -5.3968   23.9636 F   0  0  0  0  0  0  0  0  0  0  0  0
  -27.9085  -20.8536   16.8808 F   0  0  0  0  0  0  0  0  0  0  0  0
  -22.7745   -2.8465   22.6859 F   0  0  0  0  0  0  0  0  0  0  0  0
  -29.2212  -19.0651   22.3037 Cl  0  0  0  0  0  0  0  0  0  0  0  0
  1  2  1  0  0  0  0
  1  5  2  0  0  0  0
  2  6  2  0  0  0  0
  3  8  2  0  0  0  0
  3 17  1  0  0  0  0
  4  9  1  0  0  0  0
  4 17  2  0  0  0  0
  5 20  1  0  0  0  0
  6 22  1  0  0  0  0
  7 10  2  0  0  0  0
  7 21  1  0  0  0  0
  8 25  1  0  0  0  0
  9 25  2  0  0  0  0
 10 26  1  0  0  0  0
 11 12  2  0  0  0  0
 11 27  1  0  0  0  0
 12 28  1  0  0  0  0
 13 18  2  0  0  0  0
 13 29  1  0  0  0  0
 14 23  1  0  0  0  0
 14 26  2  0  0  0  0
 15 24  1  0  0  0  0
 15 31  2  0  0  0  0
 16 28  2  0  0  0  0
 16 30  1  0  0  0  0
 17 32  1  0  0  0  0
 18 31  1  0  0  0  0
 18 34  1  0  0  0  0
 19 32  1  0  0  0  0
 19 33  2  0  0  0  0
 19 36  1  0  0  0  0
 20 22  2  0  0  0  0
 20 42  1  0  0  0  0
 21 23  2  0  0  0  0
 21 43  1  0  0  0  0
 22 51  1  0  0  0  0
 23 44  1  0  0  0  0
 24 29  2  0  0  0  0
 24 72  1  0  0  0  0
 25 80  1  0  0  0  0
 26 81  1  0  0  0  0
 27 30  2  0  0  0  0
 27 80  1  0  0  0  0
 28 82  1  0  0  0  0
 29 83  1  0  0  0  0
 30 84  1  0  0  0  0
 31 85  1  0  0  0  0
 32 64  2  0  0  0  0
 33 65  1  0  0  0  0
 33 68  1  0  0  0  0
 34 35  2  0  0  0  0
 35 37  1  0  0  0  0
 36 69  1  0  0  0  0
 36 74  2  0  0  0  0
 37 66  1  0  0  0  0
 37 75  2  0  0  0  0
 38 52  1  0  0  0  0
 38 70  1  0  0  0  0
 38 76  2  0  0  0  0
 39 61  1  0  0  0  0
 39 67  1  0  0  0  0
 39 77  2  0  0  0  0
 40 60  1  0  0  0  0
 40 72  1  0  0  0  0
 40 78  2  0  0  0  0
 41 62  1  0  0  0  0
 41 71  1  0  0  0  0
 41 79  2  0  0  0  0
 42 45  1  0  0  0  0
 43 52  1  0  0  0  0
 44 67  1  0  0  0  0
 45 47  1  0  0  0  0
 46 48  1  0  0  0  0
 46 49  1  0  0  0  0
 47 51  1  0  0  0  0
 48 53  1  0  0  0  0
 49 66  1  0  0  0  0
 50 53  1  0  0  0  0
 50 66  1  0  0  0  0
 51 70  1  0  0  0  0
 52 67  1  0  0  0  0
 53 65  1  0  0  0  0
 54 62  1  0  0  0  0
 55 63  1  0  0  0  0
 56 63  1  0  0  0  0
 57 63  1  0  0  0  0
 58 72  1  0  0  0  0
 59 73  1  0  0  0  0
 60 81  1  0  0  0  0
 61 63  1  0  0  0  0
 61 71  1  0  0  0  0
 62 73  1  0  0  0  0
 64 65  1  0  0  0  0
M  CHG  1  73   1
M  ISO  4  35 100  37 100  60 101  81 101
M  END
> <Batch ID>
0008

> <Smiles>
CNC(C)C(=O)NC(C(=O)N1Cc2cc([101O:1][101CH2:1]C(=O)N(C)c3cc(Cl)c(C=[100CH:0][100C:0](=O)N4CCCC(n5nc(-c6ccc(Oc7ccc(F)cc7F)cc6)c(C(N)=O)c5N)C4)cc3F)ccc2CC1C(=O)NC1CCCc2ccccc21)C(C)(C)C

> <Shape>
0.245

> <Color>
0.070

> <Negative vol penalty>
0.000

$$$$

  -OEChem-04052315363D

 84 92  0     1  0  0  0  0  0999 V2000
  -33.6841  -29.7954   17.9077 C   0  0  0  0  0  0  0  0  0  0  0  0
  -32.6604  -29.0185   18.4403 C   0  0  0  0  0  0  0  0  0  0  0  0
  -24.3007   -9.8099   21.4310 C   0  0  0  0  0  0  0  0  0  0  0  0
  -24.8604  -10.8605   23.5333 C   0  0  0  0  0  0  0  0  0  0  0  0
  -33.9993  -31.0236   18.4872 C   0  0  0  0  0  0  0  0  0  0  0  0
  -31.9519  -29.4690   19.5537 C   0  0  0  0  0  0  0  0  0  0  0  0
  -26.9523  -28.8282   19.0645 C   0  0  0  0  0  0  0  0  0  0  0  0
  -23.9563   -8.6397   22.1074 C   0  0  0  0  0  0  0  0  0  0  0  0
  -24.5160   -9.6903   24.2098 C   0  0  0  0  0  0  0  0  0  0  0  0
  -26.4514  -27.5442   19.2744 C   0  0  0  0  0  0  0  0  0  0  0  0
  -21.3354   -7.4784   23.9005 C   0  0  0  0  0  0  0  0  0  0  0  0
  -20.1502   -6.8417   23.5323 C   0  0  0  0  0  0  0  0  0  0  0  0
  -25.7791  -28.1771   21.5029 C   0  0  0  0  0  0  0  0  0  0  0  0
  -29.0373  -21.8924   20.2573 C   0  0  0  0  0  0  0  0  0  0  0  0
  -21.3983   -4.8582   22.9448 C   0  0  0  0  0  0  0  0  0  0  0  0
  -24.7528  -10.9203   22.1439 C   0  0  0  0  0  0  0  0  0  0  0  0
  -24.2638  -13.2099   21.1309 C   0  0  0  0  0  0  0  0  0  0  0  0
  -33.2879  -31.4938   19.6023 C   0  0  0  0  0  0  0  0  0  0  0  0
  -26.8801  -29.7948   20.0779 C   0  0  0  0  0  0  0  0  0  0  0  0
  -32.2587  -30.7041   20.1495 C   0  0  0  0  0  0  0  0  0  0  0  0
  -26.2775  -29.4735   21.3025 C   0  0  0  0  0  0  0  0  0  0  0  0
  -27.9406  -21.2768   20.8503 C   0  0  0  0  0  0  0  0  0  0  0  0
  -24.0640   -8.5799   23.4969 C   0  0  0  0  0  0  0  0  0  0  0  0
  -25.8673  -27.2176   20.4947 C   0  0  0  0  0  0  0  0  0  0  0  0
  -22.5521   -6.8051   23.7907 C   0  0  0  0  0  0  0  0  0  0  0  0
  -20.1816   -5.5316   23.0545 C   0  0  0  0  0  0  0  0  0  0  0  0
  -22.5835   -5.4950   23.3129 C   0  0  0  0  0  0  0  0  0  0  0  0
  -27.8849  -19.8895   20.9241 C   0  0  0  0  0  0  0  0  0  0  0  0
  -25.1093  -12.1292   21.4456 C   0  0  0  0  0  0  0  0  0  0  0  0
  -30.0439  -21.0822   19.7573 C   0  0  0  0  0  0  0  0  0  0  0  0
  -28.9430  -19.1689   20.3940 C   0  0  0  0  0  0  0  0  0  0  0  0
  -25.0754  -14.1000   20.4709 C   0  0  0  0  0  0  0  0  0  0  0  0
  -22.8694  -13.3929   21.4102 C   0  0  0  0  0  0  0  0  0  0  0  0
  -29.0129  -31.4610   21.7448 C   0  0  0  0  0  0  0  0  0  0  0  0
  -26.3710  -32.9481   22.8985 C   0  0  0  0  0  0  0  0  0  0  0  0
  -26.8349  -23.4823   21.3576 C   0  0  0  0  0  0  0  0  0  0  0  0
  -23.0185  -32.8257   23.5249 C   0  0  0  0  0  0  0  0  0  0  0  0
  -29.8813  -16.8683   19.9777 C   0  0  0  0  0  0  0  0  0  0  0  0
  -33.6962  -32.8063   20.2233 C   0  0  0  0  0  0  0  0  0  0  0  0
  -27.4010  -31.1833   19.8264 C   0  0  0  0  0  0  0  0  0  0  0  0
  -26.1571  -30.4810   22.4156 C   0  0  0  0  0  0  0  0  0  0  0  0
  -32.6489  -33.3829   21.1725 C   0  0  0  0  0  0  0  0  0  0  0  0
  -29.7734  -13.5603   18.6654 C   0  0  0  0  0  0  0  0  0  0  0  0
  -32.1329  -32.3027   22.1179 C   0  0  0  0  0  0  0  0  0  0  0  0
  -28.4808  -12.9820   19.2458 C   0  0  0  0  0  0  0  0  0  0  0  0
  -30.4813  -14.4778   19.6607 C   0  0  0  0  0  0  0  0  0  0  0  0
  -28.3537  -14.9699   20.8012 C   0  0  0  0  0  0  0  0  0  0  0  0
  -31.4508  -31.1699   21.3414 C   0  0  1  0  0  0  0  0  0  0  0  0
  -27.7372  -31.9369   21.1095 C   0  0  1  0  0  0  0  0  0  0  0  0
  -27.5717  -14.0905   19.8118 C   0  0  2  0  0  0  0  0  0  0  0  0
  -31.2362  -21.7083   19.1143 C   0  0  0  0  0  0  0  0  0  0  0  0
  -21.1479  -34.1779   24.5098 C   0  0  0  0  0  0  0  0  0  0  0  0
  -27.3895  -32.3098   25.7030 C   0  0  0  0  0  0  0  0  0  0  0  0
  -25.0960  -32.8094   26.5741 C   0  0  0  0  0  0  0  0  0  0  0  0
  -26.4156  -34.5986   25.4425 C   0  0  0  0  0  0  0  0  0  0  0  0
  -21.5396  -32.8615   20.9616 C   0  0  0  0  0  0  0  0  0  0  0  0
  -25.5445  -23.9555   22.0169 C   0  0  0  0  0  0  0  0  0  0  0  0
  -25.4061  -25.4702   22.0406 C   0  0  0  0  0  0  0  0  0  1  0  0
  -25.4379  -32.7190   24.0629 C   0  0  1  0  0  0  0  0  0  0  0  0
  -21.9038  -33.8163   23.2407 C   0  0  2  0  0  0  0  0  0  0  0  0
  -26.0886  -33.0894   25.4255 C   0  0  0  0  0  0  0  0  0  0  0  0
  -26.3619  -12.3137   21.0205 N   0  0  0  0  0  0  0  0  0  0  0  0
  -30.0250  -19.7315   19.8105 N   0  0  0  0  0  0  0  0  0  0  0  0
  -26.3096  -13.5207   20.4317 N   0  0  0  0  0  0  0  0  0  0  0  0
  -26.6869  -31.8232   22.1235 N   0  0  0  0  0  0  0  0  0  0  0  0
  -29.5600  -15.5054   20.1509 N   0  0  0  0  0  0  0  0  0  0  0  0
  -24.8467  -15.3137   19.9261 N   0  0  0  0  0  0  0  0  0  0  0  0
  -22.1871  -12.3797   22.0973 N   0  0  0  0  0  0  0  0  0  0  0  0
  -26.9047  -22.0918   21.3657 N   0  0  0  0  0  0  0  0  0  0  0  0
  -28.9150  -17.7535   20.4545 N   0  0  0  0  0  0  0  0  0  0  0  0
  -30.1224  -31.5688   20.9282 N   0  0  0  0  0  0  0  0  0  0  0  0
  -24.2189  -33.4616   23.7613 N   0  0  0  0  0  0  0  0  0  0  0  0
  -20.9357  -33.2407   22.2648 N   0  3  0  0  0  0  0  0  0  0  0  0
  -22.2432  -14.4171   21.0463 O   0  0  0  0  0  0  0  0  0  0  0  0
  -28.9925  -31.0293   22.8915 O   0  0  0  0  0  0  0  0  0  0  0  0
  -26.7980  -34.0846   22.6802 O   0  0  0  0  0  0  0  0  0  0  0  0
  -27.6606  -24.2663   20.9015 O   0  0  0  0  0  0  0  0  0  0  0  0
  -22.8411  -31.6096   23.5397 O   0  0  0  0  0  0  0  0  0  0  0  0
  -30.9233  -17.2238   19.4212 O   0  0  0  0  0  0  0  0  0  0  0  0
  -23.7278   -7.4383   24.1573 O   0  0  0  0  0  0  0  0  0  0  0  0
  -25.3782  -25.9648   20.7024 O   0  0  0  0  0  0  0  0  0  1  0  0
  -19.0432   -4.9198   22.7025 F   0  0  0  0  0  0  0  0  0  0  0  0
  -23.7491   -4.8425   23.2063 F   0  0  0  0  0  0  0  0  0  0  0  0
  -26.5310  -19.0995   21.6575 Cl  0  0  0  0  0  0  0  0  0  0  0  0
  1  2  1  0  0  0  0
  1  5  2  0  0  0  0
  2  6  2  0  0  0  0
  3  8  2  0  0  0  0
  3 16  1  0  0  0  0
  4  9  1  0  0  0  0
  4 16  2  0  0  0  0
  5 18  1  0  0  0  0
  6 20  1  0  0  0  0
  7 10  2  0  0  0  0
  7 19  1  0  0  0  0
  8 23  1  0  0  0  0
  9 23  2  0  0  0  0
 10 24  1  0  0  0  0
 11 12  2  0  0  0  0
 11 25  1  0  0  0  0
 12 26  1  0  0  0  0
 13 21  1  0  0  0  0
 13 24  2  0  0  0  0
 14 22  1  0  0  0  0
 14 30  2  0  0  0  0
 15 26  2  0  0  0  0
 15 27  1  0  0  0  0
 16 29  1  0  0  0  0
 17 29  1  0  0  0  0
 17 32  2  0  0  0  0
 17 33  1  0  0  0  0
 18 20  2  0  0  0  0
 18 39  1  0  0  0  0
 19 21  2  0  0  0  0
 19 40  1  0  0  0  0
 20 48  1  0  0  0  0
 21 41  1  0  0  0  0
 22 28  2  0  0  0  0
 22 69  1  0  0  0  0
 23 80  1  0  0  0  0
 24 81  1  0  0  0  0
 25 27  2  0  0  0  0
 25 80  1  0  0  0  0
 26 82  1  0  0  0  0
 27 83  1  0  0  0  0
 28 31  1  0  0  0  0
 28 84  1  0  0  0  0
 29 62  2  0  0  0  0
 30 51  1  0  0  0  0
 30 63  1  0  0  0  0
 31 63  2  0  0  0  0
 31 70  1  0  0  0  0
 32 64  1  0  0  0  0
 32 67  1  0  0  0  0
 33 68  1  0  0  0  0
 33 74  2  0  0  0  0
 34 49  1  0  0  0  0
 34 71  1  0  0  0  0
 34 75  2  0  0  0  0
 35 59  1  0  0  0  0
 35 65  1  0  0  0  0
 35 76  2  0  0  0  0
 36 57  1  0  0  0  0
 36 69  1  0  0  0  0
 36 77  2  0  0  0  0
 37 60  1  0  0  0  0
 37 72  1  0  0  0  0
 37 78  2  0  0  0  0
 38 66  1  0  0  0  0
 38 70  1  0  0  0  0
 38 79  2  0  0  0  0
 39 42  1  0  0  0  0
 40 49  1  0  0  0  0
 41 65  1  0  0  0  0
 42 44  1  0  0  0  0
 43 45  1  0  0  0  0
 43 46  1  0  0  0  0
 44 48  1  0  0  0  0
 45 50  1  0  0  0  0
 46 66  1  0  0  0  0
 47 50  1  0  0  0  0
 47 66  1  0  0  0  0
 48 71  1  0  0  0  0
 49 65  1  0  0  0  0
 50 64  1  0  0  0  0
 52 60  1  0  0  0  0
 53 61  1  0  0  0  0
 54 61  1  0  0  0  0
 55 61  1  0  0  0  0
 56 73  1  0  0  0  0
 57 58  1  0  0  0  0
 58 81  1  0  0  0  0
 59 61  1  0  0  0  0
 59 72  1  0  0  0  0
 60 73  1  0  0  0  0
 62 64  1  0  0  0  0
M  CHG  1  73   1
M  ISO  4  38 100  58 101  70 100  81 101
M  END
> <Batch ID>
0008

> <Smiles>
CNC(C)C(=O)NC(C(=O)N1Cc2cc([101O:1][101CH2:1]CC(=O)Nc3cc(C)nc([100NH:0][100C:0](=O)N4CCCC(n5nc(-c6ccc(Oc7ccc(F)cc7F)cc6)c(C(N)=O)c5N)C4)c3Cl)ccc2CC1C(=O)NC1CCCc2ccccc21)C(C)(C)C

> <Shape>
0.273

> <Color>
0.144

> <Negative vol penalty>
0.000

$$$$

  -OEChem-04052315363D

 84 92  0     1  0  0  0  0  0999 V2000
  -29.9016  -11.8663   20.2781 C   0  0  0  0  0  0  0  0  0  0  0  0
  -29.9809  -13.2372   20.5012 C   0  0  0  0  0  0  0  0  0  0  0  0
  -31.3080  -21.6571   19.3984 C   0  0  0  0  0  0  0  0  0  0  0  0
  -28.9831  -21.9439   18.8071 C   0  0  0  0  0  0  0  0  0  0  0  0
  -28.8783  -11.3483   19.4854 C   0  0  0  0  0  0  0  0  0  0  0  0
  -29.0375  -14.0910   19.9307 C   0  0  0  0  0  0  0  0  0  0  0  0
  -25.5623  -20.2233   21.2092 C   0  0  0  0  0  0  0  0  0  0  0  0
  -24.0247  -30.1972   19.8583 C   0  0  0  0  0  0  0  0  0  0  0  0
  -31.0721  -20.3100   19.6729 C   0  0  0  0  0  0  0  0  0  0  0  0
  -28.7472  -20.5968   19.0815 C   0  0  0  0  0  0  0  0  0  0  0  0
  -25.2949  -21.4545   20.6121 C   0  0  0  0  0  0  0  0  0  0  0  0
  -29.7435  -18.4752   22.1814 C   0  0  0  0  0  0  0  0  0  0  0  0
  -23.6314  -30.9897   20.9367 C   0  0  0  0  0  0  0  0  0  0  0  0
  -30.2877  -17.9482   23.3526 C   0  0  0  0  0  0  0  0  0  0  0  0
  -23.5251  -20.4391   19.3253 C   0  0  0  0  0  0  0  0  0  0  0  0
  -25.6782  -30.4320   22.0929 C   0  0  0  0  0  0  0  0  0  0  0  0
  -31.5484  -16.3521   22.0486 C   0  0  0  0  0  0  0  0  0  0  0  0
  -30.2635  -22.4741   18.9656 C   0  0  0  0  0  0  0  0  0  0  0  0
  -30.8892  -24.4284   17.4500 C   0  0  0  0  0  0  0  0  0  0  0  0
  -27.9163  -12.1952   18.9128 C   0  0  0  0  0  0  0  0  0  0  0  0
  -24.8190  -19.0866   20.8603 C   0  0  0  0  0  0  0  0  0  0  0  0
  -28.0012  -13.5839   19.1284 C   0  0  0  0  0  0  0  0  0  0  0  0
  -23.7833  -19.1953   19.9213 C   0  0  0  0  0  0  0  0  0  0  0  0
  -25.2446  -29.5220   19.8972 C   0  0  0  0  0  0  0  0  0  0  0  0
  -26.0714  -29.6395   21.0145 C   0  0  0  0  0  0  0  0  0  0  0  0
  -29.7916  -19.7799   19.5144 C   0  0  0  0  0  0  0  0  0  0  0  0
  -24.2781  -21.5619   19.6679 C   0  0  0  0  0  0  0  0  0  0  0  0
  -30.1017  -17.9406   20.9438 C   0  0  0  0  0  0  0  0  0  0  0  0
  -24.4582  -31.1072   22.0539 C   0  0  0  0  0  0  0  0  0  0  0  0
  -31.1902  -16.8866   23.2862 C   0  0  0  0  0  0  0  0  0  0  0  0
  -31.0041  -16.8790   20.8774 C   0  0  0  0  0  0  0  0  0  0  0  0
  -30.5066  -23.8658   18.6824 C   0  0  0  0  0  0  0  0  0  0  0  0
  -30.9899  -25.7745   17.7036 C   0  0  0  0  0  0  0  0  0  0  0  0
  -31.1319  -23.7911   16.1888 C   0  0  0  0  0  0  0  0  0  0  0  0
  -25.5041  -16.2755   19.5441 C   0  0  0  0  0  0  0  0  0  0  0  0
  -22.3931  -15.6440   20.2113 C   0  0  0  0  0  0  0  0  0  0  0  0
  -19.2546  -16.8473   20.8021 C   0  0  0  0  0  0  0  0  0  0  0  0
  -28.4632  -29.3653   21.7566 C   0  0  0  0  0  0  0  0  0  0  0  0
  -26.8563  -11.5937   18.0244 C   0  0  0  0  0  0  0  0  0  0  0  0
  -25.1023  -17.7715   21.5332 C   0  0  0  0  0  0  0  0  0  0  0  0
  -22.9428  -18.0093   19.5269 C   0  0  0  0  0  0  0  0  0  0  0  0
  -25.6780  -12.5284   17.7634 C   0  0  0  0  0  0  0  0  0  0  0  0
  -31.9493  -28.8574   21.2405 C   0  0  0  0  0  0  0  0  0  0  0  0
  -26.1742  -13.9239   17.3986 C   0  0  0  0  0  0  0  0  0  0  0  0
  -32.0095  -27.5743   20.4086 C   0  0  0  0  0  0  0  0  0  0  0  0
  -30.8284  -28.8090   22.2773 C   0  0  0  0  0  0  0  0  0  0  0  0
  -29.5610  -27.1989   20.9098 C   0  0  0  0  0  0  0  0  0  0  0  0
  -26.9822  -14.5399   18.5472 C   0  0  1  0  0  0  0  0  0  0  0  0
  -24.6220  -16.5707   20.7241 C   0  0  1  0  0  0  0  0  0  0  0  0
  -30.6331  -27.2268   19.8082 C   0  0  2  0  0  0  0  0  0  0  0  0
  -16.9107  -16.0873   21.2774 C   0  0  0  0  0  0  0  0  0  0  0  0
  -22.0499  -14.8762   17.2783 C   0  0  0  0  0  0  0  0  0  0  0  0
  -19.5725  -15.0519   17.5944 C   0  0  0  0  0  0  0  0  0  0  0  0
  -20.8778  -13.3704   18.8949 C   0  0  0  0  0  0  0  0  0  0  0  0
  -26.8493  -29.0315   18.0683 C   0  0  0  0  0  0  0  0  0  0  0  0
  -19.2116  -18.2335   23.4166 C   0  0  0  0  0  0  0  0  0  0  0  0
  -25.2251  -26.3371   19.1345 C   0  0  0  0  0  0  0  0  0  0  0  0
  -24.3729  -25.1272   18.7487 C   0  0  0  0  0  0  0  0  0  0  0  0
  -24.8224  -27.6024   18.3816 C   0  0  0  0  0  0  0  0  0  0  0  0
  -24.8206  -23.8701   19.4839 C   0  0  0  0  0  0  0  0  0  1  0  0
  -21.0852  -15.8216   19.4786 C   0  0  1  0  0  0  0  0  0  0  0  0
  -18.2375  -16.5214   21.8808 C   0  0  2  0  0  0  0  0  0  0  0  0
  -20.9133  -14.8021   18.3173 C   0  0  0  0  0  0  0  0  0  0  0  0
  -30.3734  -24.7798   19.6473 N   0  0  0  0  0  0  0  0  0  0  0  0
  -30.6741  -25.9303   19.0212 N   0  0  0  0  0  0  0  0  0  0  0  0
  -23.2625  -16.7440   20.2082 N   0  0  0  0  0  0  0  0  0  0  0  0
  -29.5542  -28.4788   21.6354 N   0  0  0  0  0  0  0  0  0  0  0  0
  -31.3171  -26.8282   16.9258 N   0  0  0  0  0  0  0  0  0  0  0  0
  -30.9828  -22.4001   16.1033 N   0  0  0  0  0  0  0  0  0  0  0  0
  -27.3142  -28.9618   21.0770 N   0  0  0  0  0  0  0  0  0  0  0  0
  -26.0970  -15.0280   19.5829 N   0  0  0  0  0  0  0  0  0  0  0  0
  -20.0375  -15.7554   20.4918 N   0  0  0  0  0  0  0  0  0  0  0  0
  -25.6192  -28.7301   18.8026 N   0  0  3  0  0  0  0  0  0  0  0  0
  -17.9948  -17.7139   22.7411 N   0  3  0  0  0  0  0  0  0  0  0  0
  -31.4869  -24.4341   15.1719 O   0  0  0  0  0  0  0  0  0  0  0  0
  -25.6359  -17.1168   18.6628 O   0  0  0  0  0  0  0  0  0  0  0  0
  -22.6314  -14.5714   20.7720 O   0  0  0  0  0  0  0  0  0  0  0  0
  -19.3432  -17.9581   20.2838 O   0  0  0  0  0  0  0  0  0  0  0  0
  -28.5507  -30.4190   22.3921 O   0  0  0  0  0  0  0  0  0  0  0  0
  -29.5611  -18.4654   19.7819 O   0  0  0  0  0  0  0  0  0  0  0  0
  -24.0154  -22.7623   19.0830 O   0  0  0  0  0  0  0  0  0  1  0  0
  -24.0804  -31.8684   23.0893 F   0  0  0  0  0  0  0  0  0  0  0  0
  -31.7139  -16.3817   24.4108 F   0  0  0  0  0  0  0  0  0  0  0  0
  -31.3529  -16.3621   19.6912 F   0  0  0  0  0  0  0  0  0  0  0  0
  1  2  1  0  0  0  0
  1  5  2  0  0  0  0
  2  6  2  0  0  0  0
  3  9  2  0  0  0  0
  3 18  1  0  0  0  0
  4 10  1  0  0  0  0
  4 18  2  0  0  0  0
  5 20  1  0  0  0  0
  6 22  1  0  0  0  0
  7 11  2  0  0  0  0
  7 21  1  0  0  0  0
  8 13  2  0  0  0  0
  8 24  1  0  0  0  0
  9 26  1  0  0  0  0
 10 26  2  0  0  0  0
 11 27  1  0  0  0  0
 12 14  2  0  0  0  0
 12 28  1  0  0  0  0
 13 29  1  0  0  0  0
 14 30  1  0  0  0  0
 15 23  1  0  0  0  0
 15 27  2  0  0  0  0
 16 25  1  0  0  0  0
 16 29  2  0  0  0  0
 17 30  2  0  0  0  0
 17 31  1  0  0  0  0
 18 32  1  0  0  0  0
 19 32  1  0  0  0  0
 19 33  2  0  0  0  0
 19 34  1  0  0  0  0
 20 22  2  0  0  0  0
 20 39  1  0  0  0  0
 21 23  2  0  0  0  0
 21 40  1  0  0  0  0
 22 48  1  0  0  0  0
 23 41  1  0  0  0  0
 24 25  2  0  0  0  0
 24 73  1  0  0  0  0
 25 70  1  0  0  0  0
 26 80  1  0  0  0  0
 27 81  1  0  0  0  0
 28 31  2  0  0  0  0
 28 80  1  0  0  0  0
 29 82  1  0  0  0  0
 30 83  1  0  0  0  0
 31 84  1  0  0  0  0
 32 64  2  0  0  0  0
 33 65  1  0  0  0  0
 33 68  1  0  0  0  0
 34 69  1  0  0  0  0
 34 75  2  0  0  0  0
 35 49  1  0  0  0  0
 35 71  1  0  0  0  0
 35 76  2  0  0  0  0
 36 61  1  0  0  0  0
 36 66  1  0  0  0  0
 36 77  2  0  0  0  0
 37 62  1  0  0  0  0
 37 72  1  0  0  0  0
 37 78  2  0  0  0  0
 38 67  1  0  0  0  0
 38 70  1  0  0  0  0
 38 79  2  0  0  0  0
 39 42  1  0  0  0  0
 40 49  1  0  0  0  0
 41 66  1  0  0  0  0
 42 44  1  0  0  0  0
 43 45  1  0  0  0  0
 43 46  1  0  0  0  0
 44 48  1  0  0  0  0
 45 50  1  0  0  0  0
 46 67  1  0  0  0  0
 47 50  1  0  0  0  0
 47 67  1  0  0  0  0
 48 71  1  0  0  0  0
 49 66  1  0  0  0  0
 50 65  1  0  0  0  0
 51 62  1  0  0  0  0
 52 63  1  0  0  0  0
 53 63  1  0  0  0  0
 54 63  1  0  0  0  0
 55 73  1  0  0  0  0
 56 74  1  0  0  0  0
 57 58  1  0  0  0  0
 57 59  1  0  0  0  0
 58 60  1  0  0  0  0
 59 73  1  0  0  0  0
 60 81  1  0  0  0  0
 61 63  1  0  0  0  0
 61 72  1  0  0  0  0
 62 74  1  0  0  0  0
 64 65  1  0  0  0  0
M  CHG  1  74   1
M  ISO  4  38 100  60 101  70 100  81 101
M  END
> <Batch ID>
0008

> <Smiles>
CNC(C)C(=O)NC(C(=O)N1Cc2cc([101O:1][101CH2:1]CCCN(C)c3ccc(F)cc3[100NH:0][100C:0](=O)N3CCCC(n4nc(-c5ccc(Oc6ccc(F)cc6F)cc5)c(C(N)=O)c4N)C3)ccc2CC1C(=O)NC1CCCc2ccccc21)C(C)(C)C

> <Shape>
0.237

> <Color>
0.082

> <Negative vol penalty>
0.000

$$$$

  -OEChem-04052315363D

 84 92  0     1  0  0  0  0  0999 V2000
  -17.9285  -25.3840   25.5339 C   0  0  0  0  0  0  0  0  0  0  0  0
  -18.6682  -24.2932   25.0885 C   0  0  0  0  0  0  0  0  0  0  0  0
  -31.7702  -21.0571   18.9808 C   0  0  0  0  0  0  0  0  0  0  0  0
  -29.3637  -21.0707   19.1938 C   0  0  0  0  0  0  0  0  0  0  0  0
  -18.0013  -26.5988   24.8535 C   0  0  0  0  0  0  0  0  0  0  0  0
  -19.4803  -24.4162   23.9617 C   0  0  0  0  0  0  0  0  0  0  0  0
  -24.8636  -21.6643   22.9853 C   0  0  0  0  0  0  0  0  0  0  0  0
  -23.7168  -12.0763   20.6731 C   0  0  0  0  0  0  0  0  0  0  0  0
  -31.6949  -22.1050   18.0633 C   0  0  0  0  0  0  0  0  0  0  0  0
  -29.2884  -22.1186   18.2763 C   0  0  0  0  0  0  0  0  0  0  0  0
  -25.2171  -20.5238   22.2655 C   0  0  0  0  0  0  0  0  0  0  0  0
  -23.8535  -13.4640   20.7083 C   0  0  0  0  0  0  0  0  0  0  0  0
  -29.4425  -22.5085   14.9214 C   0  0  0  0  0  0  0  0  0  0  0  0
  -28.4776  -22.4231   13.9178 C   0  0  0  0  0  0  0  0  0  0  0  0
  -25.7847  -21.9036   20.3699 C   0  0  0  0  0  0  0  0  0  0  0  0
  -26.1013  -11.8493   20.3573 C   0  0  0  0  0  0  0  0  0  0  0  0
  -27.4699  -24.4701   14.7124 C   0  0  0  0  0  0  0  0  0  0  0  0
  -30.6046  -20.5399   19.5460 C   0  0  0  0  0  0  0  0  0  0  0  0
  -30.8058  -19.5584   21.8920 C   0  0  0  0  0  0  0  0  0  0  0  0
  -18.8222  -26.7395   23.7234 C   0  0  0  0  0  0  0  0  0  0  0  0
  -24.9578  -22.9342   22.3982 C   0  0  0  0  0  0  0  0  0  0  0  0
  -19.5631  -25.6336   23.2647 C   0  0  0  0  0  0  0  0  0  0  0  0
  -25.4342  -23.0588   21.0853 C   0  0  0  0  0  0  0  0  0  0  0  0
  -24.8407  -11.2690   20.4976 C   0  0  0  0  0  0  0  0  0  0  0  0
  -26.2380  -13.2370   20.3926 C   0  0  0  0  0  0  0  0  0  0  0  0
  -30.4540  -22.6358   17.7110 C   0  0  0  0  0  0  0  0  0  0  0  0
  -25.6750  -20.6432   20.9566 C   0  0  0  0  0  0  0  0  0  0  0  0
  -25.1141  -14.0444   20.5681 C   0  0  0  0  0  0  0  0  0  0  0  0
  -29.4211  -23.5747   15.8206 C   0  0  0  0  0  0  0  0  0  0  0  0
  -27.4914  -23.4039   13.8132 C   0  0  0  0  0  0  0  0  0  0  0  0
  -28.4348  -24.5555   15.7160 C   0  0  0  0  0  0  0  0  0  0  0  0
  -30.6817  -19.4571   20.4934 C   0  0  0  0  0  0  0  0  0  0  0  0
  -30.8364  -18.2567   22.3292 C   0  0  0  0  0  0  0  0  0  0  0  0
  -30.8863  -20.7249   22.7218 C   0  0  0  0  0  0  0  0  0  0  0  0
  -22.8859  -25.2406   21.6970 C   0  0  0  0  0  0  0  0  0  0  0  0
  -25.5718  -26.8767   20.9022 C   0  0  0  0  0  0  0  0  0  0  0  0
  -28.8406  -26.7805   19.9262 C   0  0  0  0  0  0  0  0  0  0  0  0
  -28.7344  -13.1406   20.0682 C   0  0  0  0  0  0  0  0  0  0  0  0
  -18.8319  -28.0590   22.9930 C   0  0  0  0  0  0  0  0  0  0  0  0
  -24.5979  -24.1568   23.1971 C   0  0  0  0  0  0  0  0  0  0  0  0
  -25.5730  -24.4010   20.4161 C   0  0  0  0  0  0  0  0  0  0  0  0
  -20.0050  -28.2125   22.0284 C   0  0  0  0  0  0  0  0  0  0  0  0
  -32.1154  -13.8621   20.9201 C   0  0  0  0  0  0  0  0  0  0  0  0
  -20.1689  -26.9538   21.1824 C   0  0  0  0  0  0  0  0  0  0  0  0
  -32.1413  -15.3875   21.0406 C   0  0  0  0  0  0  0  0  0  0  0  0
  -31.1910  -13.3976   19.7960 C   0  0  0  0  0  0  0  0  0  0  0  0
  -29.8500  -15.4563   19.9764 C   0  0  0  0  0  0  0  0  0  0  0  0
  -20.4746  -25.7347   22.0609 C   0  0  1  0  0  0  0  0  0  0  0  0
  -24.2458  -25.3581   22.3252 C   0  0  1  0  0  0  0  0  0  0  0  0
  -30.7173  -15.9694   21.1375 C   0  0  2  0  0  0  0  0  0  0  0  0
  -30.7599  -28.2787   19.3186 C   0  0  0  0  0  0  0  0  0  0  0  0
  -24.2926  -27.4088   18.1836 C   0  0  0  0  0  0  0  0  0  0  0  0
  -26.5547  -28.0486   17.3223 C   0  0  0  0  0  0  0  0  0  0  0  0
  -25.5065  -29.3624   19.1657 C   0  0  0  0  0  0  0  0  0  0  0  0
  -23.3965   -9.2535   20.6086 C   0  0  0  0  0  0  0  0  0  0  0  0
  -25.8615   -9.0184   20.2672 C   0  0  0  0  0  0  0  0  0  0  0  0
  -30.4989  -25.7523   22.1515 C   0  0  0  0  0  0  0  0  0  0  0  0
  -25.2220  -17.4512   19.3259 C   0  0  0  0  0  0  0  0  0  0  0  0
  -25.3317  -18.3222   20.5675 C   0  0  0  0  0  0  0  0  0  1  0  0
  -24.5120  -16.1376   19.6134 C   0  0  0  0  0  0  0  0  0  0  0  0
  -26.3898  -27.0423   19.6442 C   0  0  1  0  0  0  0  0  0  0  0  0
  -30.0663  -27.5163   20.4368 C   0  0  2  0  0  0  0  0  0  0  0  0
  -25.6816  -27.9399   18.5906 C   0  0  0  0  0  0  0  0  0  0  0  0
  -30.6366  -18.1910   20.0702 N   0  0  0  0  0  0  0  0  0  0  0  0
  -30.7330  -17.4849   21.2095 N   0  0  0  0  0  0  0  0  0  0  0  0
  -25.2026  -25.5660   21.2364 N   0  0  0  0  0  0  0  0  0  0  0  0
  -29.8591  -13.9852   19.9558 N   0  0  0  0  0  0  0  0  0  0  0  0
  -30.9414  -17.7085   23.5584 N   0  0  0  0  0  0  0  0  0  0  0  0
  -30.8400  -21.9848   22.1096 N   0  0  0  0  0  0  0  0  0  0  0  0
  -27.5253  -13.8115   20.2490 N   0  0  0  0  0  0  0  0  0  0  0  0
  -21.8613  -25.7451   22.4749 N   0  0  0  0  0  0  0  0  0  0  0  0
  -27.6956  -27.5355   20.0684 N   0  0  0  0  0  0  0  0  0  0  0  0
  -24.7020   -9.8658   20.4629 N   0  0  0  0  0  0  0  0  0  0  0  0
  -31.0408  -26.5539   21.0242 N   0  3  0  0  0  0  0  0  0  0  0  0
  -31.0126  -20.6520   23.9677 O   0  0  0  0  0  0  0  0  0  0  0  0
  -22.7747  -24.7314   20.5879 O   0  0  0  0  0  0  0  0  0  0  0  0
  -25.2775  -27.8727   21.5676 O   0  0  0  0  0  0  0  0  0  0  0  0
  -28.8941  -25.6506   19.4456 O   0  0  0  0  0  0  0  0  0  0  0  0
  -28.8397  -11.9119   20.0356 O   0  0  0  0  0  0  0  0  0  0  0  0
  -30.3802  -23.6585   16.8160 O   0  0  0  0  0  0  0  0  0  0  0  0
  -26.0202  -19.5316   20.2515 O   0  0  0  0  0  0  0  0  0  1  0  0
  -25.2260  -15.4100   20.6036 O   0  0  0  0  0  0  0  0  0  0  0  0
  -26.5658  -23.3225   12.8484 F   0  0  0  0  0  0  0  0  0  0  0  0
  -28.4098  -25.5828   16.5762 F   0  0  0  0  0  0  0  0  0  0  0  0
  1  2  1  0  0  0  0
  1  5  2  0  0  0  0
  2  6  2  0  0  0  0
  3  9  2  0  0  0  0
  3 18  1  0  0  0  0
  4 10  1  0  0  0  0
  4 18  2  0  0  0  0
  5 20  1  0  0  0  0
  6 22  1  0  0  0  0
  7 11  2  0  0  0  0
  7 21  1  0  0  0  0
  8 12  2  0  0  0  0
  8 24  1  0  0  0  0
  9 26  1  0  0  0  0
 10 26  2  0  0  0  0
 11 27  1  0  0  0  0
 12 28  1  0  0  0  0
 13 14  2  0  0  0  0
 13 29  1  0  0  0  0
 14 30  1  0  0  0  0
 15 23  1  0  0  0  0
 15 27  2  0  0  0  0
 16 24  2  0  0  0  0
 16 25  1  0  0  0  0
 17 30  2  0  0  0  0
 17 31  1  0  0  0  0
 18 32  1  0  0  0  0
 19 32  1  0  0  0  0
 19 33  2  0  0  0  0
 19 34  1  0  0  0  0
 20 22  2  0  0  0  0
 20 39  1  0  0  0  0
 21 23  2  0  0  0  0
 21 40  1  0  0  0  0
 22 48  1  0  0  0  0
 23 41  1  0  0  0  0
 24 73  1  0  0  0  0
 25 28  2  0  0  0  0
 25 70  1  0  0  0  0
 26 80  1  0  0  0  0
 27 81  1  0  0  0  0
 28 82  1  0  0  0  0
 29 31  2  0  0  0  0
 29 80  1  0  0  0  0
 30 83  1  0  0  0  0
 31 84  1  0  0  0  0
 32 64  2  0  0  0  0
 33 65  1  0  0  0  0
 33 68  1  0  0  0  0
 34 69  1  0  0  0  0
 34 75  2  0  0  0  0
 35 49  1  0  0  0  0
 35 71  1  0  0  0  0
 35 76  2  0  0  0  0
 36 61  1  0  0  0  0
 36 66  1  0  0  0  0
 36 77  2  0  0  0  0
 37 62  1  0  0  0  0
 37 72  1  0  0  0  0
 37 78  2  0  0  0  0
 38 67  1  0  0  0  0
 38 70  1  0  0  0  0
 38 79  2  0  0  0  0
 39 42  1  0  0  0  0
 40 49  1  0  0  0  0
 41 66  1  0  0  0  0
 42 44  1  0  0  0  0
 43 45  1  0  0  0  0
 43 46  1  0  0  0  0
 44 48  1  0  0  0  0
 45 50  1  0  0  0  0
 46 67  1  0  0  0  0
 47 50  1  0  0  0  0
 47 67  1  0  0  0  0
 48 71  1  0  0  0  0
 49 66  1  0  0  0  0
 50 65  1  0  0  0  0
 51 62  1  0  0  0  0
 52 63  1  0  0  0  0
 53 63  1  0  0  0  0
 54 63  1  0  0  0  0
 55 73  1  0  0  0  0
 56 73  1  0  0  0  0
 57 74  1  0  0  0  0
 58 59  1  0  0  0  0
 58 60  1  0  0  0  0
 59 81  1  0  0  0  0
 60 82  1  0  0  0  0
 61 63  1  0  0  0  0
 61 72  1  0  0  0  0
 62 74  1  0  0  0  0
 64 65  1  0  0  0  0
M  CHG  1  74   1
M  ISO  4  38 100  59 101  70 100  81 101
M  END
> <Batch ID>
0008

> <Smiles>
CNC(C)C(=O)NC(C(=O)N1Cc2cc([101O:1][101CH2:1]CCOc3ccc(N(C)C)cc3[100NH:0][100C:0](=O)N3CCCC(n4nc(-c5ccc(Oc6ccc(F)cc6F)cc5)c(C(N)=O)c4N)C3)ccc2CC1C(=O)NC1CCCc2ccccc21)C(C)(C)C

> <Shape>
0.234

> <Color>
0.062

> <Negative vol penalty>
0.000

$$$$

  -OEChem-04052315363D

 82 90  0     1  0  0  0  0  0999 V2000
  -40.0633  -23.6973   19.7985 C   0  0  0  0  0  0  0  0  0  0  0  0
  -38.7050  -23.4670   19.9920 C   0  0  0  0  0  0  0  0  0  0  0  0
  -23.0959   -9.8268   19.9552 C   0  0  0  0  0  0  0  0  0  0  0  0
  -23.8450   -9.8732   22.2517 C   0  0  0  0  0  0  0  0  0  0  0  0
  -40.5675  -24.9946   19.8790 C   0  0  0  0  0  0  0  0  0  0  0  0
  -37.8503  -24.5339   20.2672 C   0  0  0  0  0  0  0  0  0  0  0  0
  -33.5601  -24.3281   17.5845 C   0  0  0  0  0  0  0  0  0  0  0  0
  -22.3662   -8.6671   20.2166 C   0  0  0  0  0  0  0  0  0  0  0  0
  -23.1152   -8.7136   22.5131 C   0  0  0  0  0  0  0  0  0  0  0  0
  -32.5787  -23.4389   18.0203 C   0  0  0  0  0  0  0  0  0  0  0  0
  -19.8952   -7.8806   23.1114 C   0  0  0  0  0  0  0  0  0  0  0  0
  -19.1334   -7.8456   24.2793 C   0  0  0  0  0  0  0  0  0  0  0  0
  -31.4001  -25.2635   19.0697 C   0  0  0  0  0  0  0  0  0  0  0  0
  -31.0639  -17.7684   20.5461 C   0  0  0  0  0  0  0  0  0  0  0  0
  -29.5741  -19.3503   22.2955 C   0  0  0  0  0  0  0  0  0  0  0  0
  -20.3970   -5.9344   25.0462 C   0  0  0  0  0  0  0  0  0  0  0  0
  -23.8353  -10.4298   20.9727 C   0  0  0  0  0  0  0  0  0  0  0  0
  -24.1442  -12.9576   20.8218 C   0  0  0  0  0  0  0  0  0  0  0  0
  -39.7171  -26.0792   20.1457 C   0  0  0  0  0  0  0  0  0  0  0  0
  -33.4744  -25.6923   17.8979 C   0  0  0  0  0  0  0  0  0  0  0  0
  -38.3439  -25.8468   20.3526 C   0  0  0  0  0  0  0  0  0  0  0  0
  -32.3804  -26.1683   18.6345 C   0  0  0  0  0  0  0  0  0  0  0  0
  -30.1674  -17.1728   21.4333 C   0  0  0  0  0  0  0  0  0  0  0  0
  -22.3759   -8.1105   21.4956 C   0  0  0  0  0  0  0  0  0  0  0  0
  -31.5000  -23.9061   18.7654 C   0  0  0  0  0  0  0  0  0  0  0  0
  -20.9078   -6.9425   22.9108 C   0  0  0  0  0  0  0  0  0  0  0  0
  -30.4706  -19.9459   21.4083 C   0  0  0  0  0  0  0  0  0  0  0  0
  -19.3843   -6.8725   25.2467 C   0  0  0  0  0  0  0  0  0  0  0  0
  -31.2155  -19.1550   20.5336 C   0  0  0  0  0  0  0  0  0  0  0  0
  -29.4225  -17.9637   22.3080 C   0  0  0  0  0  0  0  0  0  0  0  0
  -21.1587   -5.9694   23.8782 C   0  0  0  0  0  0  0  0  0  0  0  0
  -24.5897  -11.6275   20.7031 C   0  0  0  0  0  0  0  0  0  0  0  0
  -25.2280  -13.7168   20.4538 C   0  0  0  0  0  0  0  0  0  0  0  0
  -22.8650  -13.4617   21.2283 C   0  0  0  0  0  0  0  0  0  0  0  0
  -35.2702  -27.7323   19.5462 C   0  0  0  0  0  0  0  0  0  0  0  0
  -33.1470  -29.9091   18.4167 C   0  0  0  0  0  0  0  0  0  0  0  0
  -30.0229  -30.5484   17.2009 C   0  0  0  0  0  0  0  0  0  0  0  0
  -30.6790  -14.8373   20.6395 C   0  0  0  0  0  0  0  0  0  0  0  0
  -40.3159  -27.4578   20.2699 C   0  0  0  0  0  0  0  0  0  0  0  0
  -34.5274  -26.6427   17.3975 C   0  0  0  0  0  0  0  0  0  0  0  0
  -32.2313  -27.6267   18.9801 C   0  0  0  0  0  0  0  0  0  0  0  0
  -39.2832  -28.5795   20.1945 C   0  0  0  0  0  0  0  0  0  0  0  0
  -29.6077  -12.3787   18.2975 C   0  0  0  0  0  0  0  0  0  0  0  0
  -38.0861  -28.2638   21.0858 C   0  0  0  0  0  0  0  0  0  0  0  0
  -28.1701  -12.0735   18.7243 C   0  0  0  0  0  0  0  0  0  0  0  0
  -30.5141  -12.6350   19.5002 C   0  0  0  0  0  0  0  0  0  0  0  0
  -28.5913  -13.3517   20.8635 C   0  0  0  0  0  0  0  0  0  0  0  0
  -37.3810  -26.9811   20.6285 C   0  0  1  0  0  0  0  0  0  0  0  0
  -34.6066  -27.9298   18.2127 C   0  0  1  0  0  0  0  0  0  0  0  0
  -27.6263  -13.1504   19.6836 C   0  0  2  0  0  0  0  0  0  0  0  0
  -28.5673  -32.4295   16.4010 C   0  0  0  0  0  0  0  0  0  0  0  0
  -32.7107  -30.7957   21.3034 C   0  0  0  0  0  0  0  0  0  0  0  0
  -30.6228  -31.9585   20.5573 C   0  0  0  0  0  0  0  0  0  0  0  0
  -32.8349  -32.6641   19.6457 C   0  0  0  0  0  0  0  0  0  0  0  0
  -29.7537  -29.3494   14.5086 C   0  0  0  0  0  0  0  0  0  0  0  0
  -29.8739  -23.3603   20.4128 C   0  0  0  0  0  0  0  0  0  1  0  0
  -29.4565  -22.0750   21.1009 C   0  0  0  0  0  0  0  0  0  0  0  0
  -31.8300  -30.4678   18.8987 C   0  0  1  0  0  0  0  0  0  0  0  0
  -29.5542  -31.3453   15.9969 C   0  0  2  0  0  0  0  0  0  0  0  0
  -32.0031  -31.4437   20.0966 C   0  0  0  0  0  0  0  0  0  0  0  0
  -25.8577  -11.5431   20.2918 N   0  0  0  0  0  0  0  0  0  0  0  0
  -26.2181  -12.8299   20.1487 N   0  0  0  0  0  0  0  0  0  0  0  0
  -33.2901  -28.5155   18.4736 N   0  0  0  0  0  0  0  0  0  0  0  0
  -29.9374  -13.6695   20.3617 N   0  0  0  0  0  0  0  0  0  0  0  0
  -25.4211  -15.0499   20.3646 N   0  0  0  0  0  0  0  0  0  0  0  0
  -21.8637  -12.5436   21.5727 N   0  0  0  0  0  0  0  0  0  0  0  0
  -30.0156  -15.7640   21.4431 N   0  0  0  0  0  0  0  0  0  0  0  0
  -36.5599  -27.2428   19.4658 N   0  0  0  0  0  0  0  0  0  0  0  0
  -31.1872  -31.0622   17.7317 N   0  0  0  0  0  0  0  0  0  0  0  0
  -28.8893  -30.4489   15.0094 N   0  3  0  0  0  0  0  0  0  0  0  0
  -22.6122  -14.6897   21.2688 O   0  0  0  0  0  0  0  0  0  0  0  0
  -34.6580  -28.0053   20.5721 O   0  0  0  0  0  0  0  0  0  0  0  0
  -34.0142  -30.6802   17.9982 O   0  0  0  0  0  0  0  0  0  0  0  0
  -29.4149  -29.5703   17.6301 O   0  0  0  0  0  0  0  0  0  0  0  0
  -31.8079  -15.0150   20.1748 O   0  0  0  0  0  0  0  0  0  0  0  0
  -21.6638   -6.9791   21.7511 O   0  0  0  0  0  0  0  0  0  0  0  0
  -30.5410  -23.0402   19.1926 O   0  0  0  0  0  0  0  0  0  1  0  0
  -30.6174  -21.3080   21.3964 O   0  0  0  0  0  0  0  0  0  0  0  0
  -18.6537   -6.8400   26.3689 F   0  0  0  0  0  0  0  0  0  0  0  0
  -32.0780  -19.7218   19.6791 F   0  0  0  0  0  0  0  0  0  0  0  0
  -28.5584  -17.4016   23.1655 F   0  0  0  0  0  0  0  0  0  0  0  0
  -22.1310   -5.0663   23.6916 F   0  0  0  0  0  0  0  0  0  0  0  0
  1  2  1  0  0  0  0
  1  5  2  0  0  0  0
  2  6  2  0  0  0  0
  3  8  2  0  0  0  0
  3 17  1  0  0  0  0
  4  9  1  0  0  0  0
  4 17  2  0  0  0  0
  5 19  1  0  0  0  0
  6 21  1  0  0  0  0
  7 10  2  0  0  0  0
  7 20  1  0  0  0  0
  8 24  1  0  0  0  0
  9 24  2  0  0  0  0
 10 25  1  0  0  0  0
 11 12  2  0  0  0  0
 11 26  1  0  0  0  0
 12 28  1  0  0  0  0
 13 22  1  0  0  0  0
 13 25  2  0  0  0  0
 14 23  2  0  0  0  0
 14 29  1  0  0  0  0
 15 27  1  0  0  0  0
 15 30  2  0  0  0  0
 16 28  2  0  0  0  0
 16 31  1  0  0  0  0
 17 32  1  0  0  0  0
 18 32  1  0  0  0  0
 18 33  2  0  0  0  0
 18 34  1  0  0  0  0
 19 21  2  0  0  0  0
 19 39  1  0  0  0  0
 20 22  2  0  0  0  0
 20 40  1  0  0  0  0
 21 48  1  0  0  0  0
 22 41  1  0  0  0  0
 23 30  1  0  0  0  0
 23 67  1  0  0  0  0
 24 76  1  0  0  0  0
 25 77  1  0  0  0  0
 26 31  2  0  0  0  0
 26 76  1  0  0  0  0
 27 29  2  0  0  0  0
 27 78  1  0  0  0  0
 28 79  1  0  0  0  0
 29 80  1  0  0  0  0
 30 81  1  0  0  0  0
 31 82  1  0  0  0  0
 32 61  2  0  0  0  0
 33 62  1  0  0  0  0
 33 65  1  0  0  0  0
 34 66  1  0  0  0  0
 34 71  2  0  0  0  0
 35 49  1  0  0  0  0
 35 68  1  0  0  0  0
 35 72  2  0  0  0  0
 36 58  1  0  0  0  0
 36 63  1  0  0  0  0
 36 73  2  0  0  0  0
 37 59  1  0  0  0  0
 37 69  1  0  0  0  0
 37 74  2  0  0  0  0
 38 64  1  0  0  0  0
 38 67  1  0  0  0  0
 38 75  2  0  0  0  0
 39 42  1  0  0  0  0
 40 49  1  0  0  0  0
 41 63  1  0  0  0  0
 42 44  1  0  0  0  0
 43 45  1  0  0  0  0
 43 46  1  0  0  0  0
 44 48  1  0  0  0  0
 45 50  1  0  0  0  0
 46 64  1  0  0  0  0
 47 50  1  0  0  0  0
 47 64  1  0  0  0  0
 48 68  1  0  0  0  0
 49 63  1  0  0  0  0
 50 62  1  0  0  0  0
 51 59  1  0  0  0  0
 52 60  1  0  0  0  0
 53 60  1  0  0  0  0
 54 60  1  0  0  0  0
 55 70  1  0  0  0  0
 56 57  1  0  0  0  0
 56 77  1  0  0  0  0
 57 78  1  0  0  0  0
 58 60  1  0  0  0  0
 58 69  1  0  0  0  0
 59 70  1  0  0  0  0
 61 62  1  0  0  0  0
M  CHG  1  70   1
M  ISO  4  38 100  56 101  67 100  77 101
M  END
> <Batch ID>
0008

> <Smiles>
CNC(C)C(=O)NC(C(=O)N1Cc2cc([101O:1][101CH2:1]COc3cc(F)c([100NH:0][100C:0](=O)N4CCCC(n5nc(-c6ccc(Oc7ccc(F)cc7F)cc6)c(C(N)=O)c5N)C4)cc3F)ccc2CC1C(=O)NC1CCCc2ccccc21)C(C)(C)C

> <Shape>
0.216

> <Color>
0.197

> <Negative vol penalty>
0.000

$$$$

  -OEChem-04052315363D

 87 95  0     1  0  0  0  0  0999 V2000
  -21.8964  -29.7330   23.6352 C   0  0  0  0  0  0  0  0  0  0  0  0
  -21.7917  -28.5333   22.9386 C   0  0  0  0  0  0  0  0  0  0  0  0
  -24.7257  -18.1115   18.8377 C   0  0  0  0  0  0  0  0  0  0  0  0
  -22.6562  -16.9770   19.3546 C   0  0  0  0  0  0  0  0  0  0  0  0
  -22.8403  -30.6829   23.2472 C   0  0  0  0  0  0  0  0  0  0  0  0
  -22.6302  -28.2833   21.8529 C   0  0  0  0  0  0  0  0  0  0  0  0
  -27.0070  -22.5622   21.7876 C   0  0  0  0  0  0  0  0  0  0  0  0
  -30.0968  -13.9263   21.5906 C   0  0  0  0  0  0  0  0  0  0  0  0
  -30.2411  -15.0660   22.3817 C   0  0  0  0  0  0  0  0  0  0  0  0
  -24.0787  -18.8356   17.8364 C   0  0  0  0  0  0  0  0  0  0  0  0
  -22.0091  -17.7011   18.3532 C   0  0  0  0  0  0  0  0  0  0  0  0
  -27.7182  -21.3756   21.6081 C   0  0  0  0  0  0  0  0  0  0  0  0
  -19.7297  -19.5108   16.1744 C   0  0  0  0  0  0  0  0  0  0  0  0
  -18.4830  -20.0604   16.4729 C   0  0  0  0  0  0  0  0  0  0  0  0
  -28.5525  -22.1840   19.4871 C   0  0  0  0  0  0  0  0  0  0  0  0
  -30.2457  -15.2886   19.6008 C   0  0  0  0  0  0  0  0  0  0  0  0
  -19.4796  -21.3541   18.2534 C   0  0  0  0  0  0  0  0  0  0  0  0
  -24.0144  -17.1822   19.5968 C   0  0  0  0  0  0  0  0  0  0  0  0
  -24.8231  -16.7931   21.9848 C   0  0  0  0  0  0  0  0  0  0  0  0
  -23.6974  -30.4404   22.1622 C   0  0  0  0  0  0  0  0  0  0  0  0
  -27.0781  -23.5717   20.8236 C   0  0  0  0  0  0  0  0  0  0  0  0
  -23.5856  -29.2315   21.4492 C   0  0  0  0  0  0  0  0  0  0  0  0
  -27.8522  -23.3797   19.6674 C   0  0  0  0  0  0  0  0  0  0  0  0
  -30.0992  -14.0376   20.2001 C   0  0  0  0  0  0  0  0  0  0  0  0
  -30.3877  -16.3170   21.7824 C   0  0  0  0  0  0  0  0  0  0  0  0
  -22.7204  -18.6304   17.5941 C   0  0  0  0  0  0  0  0  0  0  0  0
  -28.4888  -21.1869   20.4606 C   0  0  0  0  0  0  0  0  0  0  0  0
  -20.8515  -19.8828   16.9154 C   0  0  0  0  0  0  0  0  0  0  0  0
  -30.3900  -16.4283   20.3919 C   0  0  0  0  0  0  0  0  0  0  0  0
  -18.3579  -20.9820   17.5124 C   0  0  0  0  0  0  0  0  0  0  0  0
  -20.7264  -20.8045   17.9549 C   0  0  0  0  0  0  0  0  0  0  0  0
  -24.6823  -16.4335   20.6310 C   0  0  0  0  0  0  0  0  0  0  0  0
  -25.5300  -15.7565   22.5436 C   0  0  0  0  0  0  0  0  0  0  0  0
  -24.3565  -17.9597   22.6754 C   0  0  0  0  0  0  0  0  0  0  0  0
  -26.0106  -27.0093   19.7657 C   0  0  0  0  0  0  0  0  0  0  0  0
  -28.9773  -26.7334   19.0355 C   0  0  0  0  0  0  0  0  0  0  0  0
  -31.6827  -18.3063   22.5420 C   0  0  0  0  0  0  0  0  0  0  0  0
  -32.3334  -26.1795   18.7772 C   0  0  0  0  0  0  0  0  0  0  0  0
  -29.2213  -11.7243   19.7888 C   0  0  0  0  0  0  0  0  0  0  0  0
  -24.6700  -31.5171   21.7506 C   0  0  0  0  0  0  0  0  0  0  0  0
  -26.2799  -24.8412   20.9461 C   0  0  0  0  0  0  0  0  0  0  0  0
  -27.8715  -24.4791   18.6407 C   0  0  0  0  0  0  0  0  0  0  0  0
  -25.7743  -31.0180   20.8224 C   0  0  0  0  0  0  0  0  0  0  0  0
  -26.3718  -11.0763   22.0588 C   0  0  0  0  0  0  0  0  0  0  0  0
  -25.1870  -30.1558   19.7094 C   0  0  0  0  0  0  0  0  0  0  0  0
  -25.5836  -12.3833   21.9956 C   0  0  0  0  0  0  0  0  0  0  0  0
  -27.1388  -10.8144   20.7662 C   0  0  0  0  0  0  0  0  0  0  0  0
  -27.2537  -13.2472   20.3086 C   0  0  0  0  0  0  0  0  0  0  0  0
  -24.4941  -28.9132   20.2815 C   0  0  1  0  0  0  0  0  0  0  0  0
  -27.0097  -26.0704   20.3755 C   0  0  1  0  0  0  0  0  0  0  0  0
  -26.5044  -13.5540   21.6139 C   0  0  1  0  0  0  0  0  0  0  0  0
  -32.8484  -17.8872   21.6758 C   0  0  0  0  0  0  0  0  0  0  0  0
  -32.1996  -12.2874   18.5591 C   0  0  0  0  0  0  0  0  0  0  0  0
  -34.4558  -27.2702   18.0003 C   0  0  0  0  0  0  0  0  0  0  0  0
  -28.1917  -26.1904   16.1387 C   0  0  0  0  0  0  0  0  0  0  0  0
  -30.6103  -26.3835   15.5210 C   0  0  0  0  0  0  0  0  0  0  0  0
  -29.4153  -28.3409   16.5025 C   0  0  0  0  0  0  0  0  0  0  0  0
  -29.3897  -17.8403   23.4719 C   0  0  0  0  0  0  0  0  0  0  0  0
  -33.5209  -26.0638   21.4856 C   0  0  0  0  0  0  0  0  0  0  0  0
  -30.7972  -12.7344   18.1989 C   0  0  0  0  0  0  0  0  0  0  0  0
  -29.3930  -19.5839   18.9538 C   0  0  0  0  0  0  0  0  0  1  0  0
  -29.4660  -18.0693   18.9396 C   0  0  0  0  0  0  0  0  0  0  0  0
  -29.9920  -26.3723   17.9804 C   0  0  1  0  0  0  0  0  0  0  0  0
  -33.5281  -27.0250   19.1802 C   0  0  2  0  0  0  0  0  0  0  0  0
  -29.5438  -26.8029   16.5552 C   0  0  0  0  0  0  0  0  0  0  0  0
  -25.2540  -15.2603   20.3469 N   0  0  0  0  0  0  0  0  0  0  0  0
  -25.7609  -14.8736   21.5300 N   0  0  0  0  0  0  0  0  0  0  0  0
  -27.9822  -25.7864   19.3066 N   0  0  0  0  0  0  0  0  0  0  0  0
  -27.9649  -11.9606   20.3835 N   0  0  0  0  0  0  0  0  0  0  0  0
  -25.9703  -15.5232   23.7982 N   0  0  0  0  0  0  0  0  0  0  0  0
  -23.6465  -18.9262   21.9502 N   0  0  0  0  0  0  0  0  0  0  0  0
  -25.4737  -27.9169   20.6587 N   0  0  0  0  0  0  0  0  0  0  0  0
  -31.2561  -26.9588   18.4120 N   0  0  0  0  0  0  0  0  0  0  0  0
  -30.5302  -17.4493   22.5878 N   0  0  0  0  0  0  0  0  0  0  0  0
  -29.9491  -12.8589   19.3822 N   0  0  0  0  0  0  0  0  0  0  0  0
  -34.3047  -26.3453   20.2553 N   0  3  0  0  0  0  0  0  0  0  0  0
  -24.5774  -18.1475   23.8958 O   0  0  0  0  0  0  0  0  0  0  0  0
  -25.7466  -26.9191   18.5725 O   0  0  0  0  0  0  0  0  0  0  0  0
  -29.0590  -27.8271   19.6016 O   0  0  0  0  0  0  0  0  0  0  0  0
  -31.7919  -19.3506   23.1896 O   0  0  0  0  0  0  0  0  0  0  0  0
  -32.3551  -24.9507   18.7820 O   0  0  0  0  0  0  0  0  0  0  0  0
  -29.6428  -10.5795   19.5825 O   0  0  0  0  0  0  0  0  0  0  0  0
  -22.0887  -19.3370   16.6172 O   0  0  0  0  0  0  0  0  0  0  0  0
  -29.1842  -20.0279   20.2938 O   0  0  0  0  0  0  0  0  0  1  0  0
  -30.5309  -17.6475   19.7830 O   0  0  0  0  0  0  0  0  0  0  0  0
  -17.1608  -21.5108   17.7980 F   0  0  0  0  0  0  0  0  0  0  0  0
  -21.8006  -21.1666   18.6695 F   0  0  0  0  0  0  0  0  0  0  0  0
  1  2  1  0  0  0  0
  1  5  2  0  0  0  0
  2  6  2  0  0  0  0
  3 10  2  0  0  0  0
  3 18  1  0  0  0  0
  4 11  1  0  0  0  0
  4 18  2  0  0  0  0
  5 20  1  0  0  0  0
  6 22  1  0  0  0  0
  7 12  2  0  0  0  0
  7 21  1  0  0  0  0
  8  9  2  0  0  0  0
  8 24  1  0  0  0  0
  9 25  1  0  0  0  0
 10 26  1  0  0  0  0
 11 26  2  0  0  0  0
 12 27  1  0  0  0  0
 13 14  2  0  0  0  0
 13 28  1  0  0  0  0
 14 30  1  0  0  0  0
 15 23  1  0  0  0  0
 15 27  2  0  0  0  0
 16 24  2  0  0  0  0
 16 29  1  0  0  0  0
 17 30  2  0  0  0  0
 17 31  1  0  0  0  0
 18 32  1  0  0  0  0
 19 32  1  0  0  0  0
 19 33  2  0  0  0  0
 19 34  1  0  0  0  0
 20 22  2  0  0  0  0
 20 40  1  0  0  0  0
 21 23  2  0  0  0  0
 21 41  1  0  0  0  0
 22 49  1  0  0  0  0
 23 42  1  0  0  0  0
 24 75  1  0  0  0  0
 25 29  2  0  0  0  0
 25 74  1  0  0  0  0
 26 83  1  0  0  0  0
 27 84  1  0  0  0  0
 28 31  2  0  0  0  0
 28 83  1  0  0  0  0
 29 85  1  0  0  0  0
 30 86  1  0  0  0  0
 31 87  1  0  0  0  0
 32 66  2  0  0  0  0
 33 67  1  0  0  0  0
 33 70  1  0  0  0  0
 34 71  1  0  0  0  0
 34 77  2  0  0  0  0
 35 50  1  0  0  0  0
 35 72  1  0  0  0  0
 35 78  2  0  0  0  0
 36 63  1  0  0  0  0
 36 68  1  0  0  0  0
 36 79  2  0  0  0  0
 37 52  1  0  0  0  0
 37 74  1  0  0  0  0
 37 80  2  0  0  0  0
 38 64  1  0  0  0  0
 38 73  1  0  0  0  0
 38 81  2  0  0  0  0
 39 69  1  0  0  0  0
 39 75  1  0  0  0  0
 39 82  2  0  0  0  0
 40 43  1  0  0  0  0
 41 50  1  0  0  0  0
 42 68  1  0  0  0  0
 43 45  1  0  0  0  0
 44 46  1  0  0  0  0
 44 47  1  0  0  0  0
 45 49  1  0  0  0  0
 46 51  1  0  0  0  0
 47 69  1  0  0  0  0
 48 51  1  0  0  0  0
 48 69  1  0  0  0  0
 49 72  1  0  0  0  0
 50 68  1  0  0  0  0
 51 67  1  0  0  0  0
 53 60  1  0  0  0  0
 54 64  1  0  0  0  0
 55 65  1  0  0  0  0
 56 65  1  0  0  0  0
 57 65  1  0  0  0  0
 58 74  1  0  0  0  0
 59 76  1  0  0  0  0
 60 75  1  0  0  0  0
 61 62  1  0  0  0  0
 61 84  1  0  0  0  0
 62 85  1  0  0  0  0
 63 65  1  0  0  0  0
 63 73  1  0  0  0  0
 64 76  1  0  0  0  0
 66 67  1  0  0  0  0
M  CHG  1  76   1
M  ISO  4  39 100  61 101  75 100  84 101
M  END
> <Batch ID>
0008

> <Smiles>
CC[100N:0](c1ccc(N(C)C(C)=O)c(OC[101CH2:1][101O:1]c2ccc3c(c2)CN(C(=O)C(NC(=O)C(C)NC)C(C)(C)C)C(C(=O)NC2CCCc4ccccc42)C3)c1)[100C:0](=O)N1CCCC(n2nc(-c3ccc(Oc4ccc(F)cc4F)cc3)c(C(N)=O)c2N)C1

> <Shape>
0.241

> <Color>
0.076

> <Negative vol penalty>
0.000

$$$$

  -OEChem-04052315363D

 82 90  0     1  0  0  0  0  0999 V2000
  -23.7778  -24.2849   31.4659 C   0  0  0  0  0  0  0  0  0  0  0  0
  -23.7640  -23.6849   30.2108 C   0  0  0  0  0  0  0  0  0  0  0  0
  -23.2760   -9.7097   19.9206 C   0  0  0  0  0  0  0  0  0  0  0  0
  -23.5103  -10.0007   22.3075 C   0  0  0  0  0  0  0  0  0  0  0  0
  -23.2581  -25.5682   31.6296 C   0  0  0  0  0  0  0  0  0  0  0  0
  -23.2295  -24.3677   29.1188 C   0  0  0  0  0  0  0  0  0  0  0  0
  -26.1404  -24.0109   24.9903 C   0  0  0  0  0  0  0  0  0  0  0  0
  -29.1831  -17.4009   20.4479 C   0  0  0  0  0  0  0  0  0  0  0  0
  -27.3285  -18.0440   19.0394 C   0  0  0  0  0  0  0  0  0  0  0  0
  -29.6132  -16.5025   19.4714 C   0  0  0  0  0  0  0  0  0  0  0  0
  -27.7587  -17.1457   18.0628 C   0  0  0  0  0  0  0  0  0  0  0  0
  -22.5247   -8.5543   20.1352 C   0  0  0  0  0  0  0  0  0  0  0  0
  -22.7589   -8.8453   22.5221 C   0  0  0  0  0  0  0  0  0  0  0  0
  -26.0772  -22.8203   24.2676 C   0  0  0  0  0  0  0  0  0  0  0  0
  -23.2496   -5.5014   22.4290 C   0  0  0  0  0  0  0  0  0  0  0  0
  -23.7171   -4.5911   23.3769 C   0  0  0  0  0  0  0  0  0  0  0  0
  -24.5949  -23.8696   22.6799 C   0  0  0  0  0  0  0  0  0  0  0  0
  -21.6771   -4.8615   24.6427 C   0  0  0  0  0  0  0  0  0  0  0  0
  -23.7688  -10.4329   21.0067 C   0  0  0  0  0  0  0  0  0  0  0  0
  -24.0648  -12.9446   20.6723 C   0  0  0  0  0  0  0  0  0  0  0  0
  -22.7258  -26.2709   30.5371 C   0  0  0  0  0  0  0  0  0  0  0  0
  -25.4214  -25.1385   24.5685 C   0  0  0  0  0  0  0  0  0  0  0  0
  -22.7010  -25.6611   29.2682 C   0  0  0  0  0  0  0  0  0  0  0  0
  -24.6527  -25.0741   23.3976 C   0  0  0  0  0  0  0  0  0  0  0  0
  -28.0407  -18.1716   20.2319 C   0  0  0  0  0  0  0  0  0  0  0  0
  -28.9010  -16.3749   18.2789 C   0  0  0  0  0  0  0  0  0  0  0  0
  -22.2661   -8.1221   21.4359 C   0  0  0  0  0  0  0  0  0  0  0  0
  -25.3021  -22.7486   23.1139 C   0  0  0  0  0  0  0  0  0  0  0  0
  -21.9959   -6.0918   22.5880 C   0  0  0  0  0  0  0  0  0  0  0  0
  -22.9309   -4.2711   24.4837 C   0  0  0  0  0  0  0  0  0  0  0  0
  -21.2096   -5.7718   23.6948 C   0  0  0  0  0  0  0  0  0  0  0  0
  -24.5455  -11.6263   20.7857 C   0  0  0  0  0  0  0  0  0  0  0  0
  -25.1909  -13.7045   20.4700 C   0  0  0  0  0  0  0  0  0  0  0  0
  -22.7205  -13.4381   20.7437 C   0  0  0  0  0  0  0  0  0  0  0  0
  -23.0918  -26.9078   25.8120 C   0  0  0  0  0  0  0  0  0  0  0  0
  -23.6292  -28.7540   23.1994 C   0  0  0  0  0  0  0  0  0  0  0  0
  -26.4956  -19.9213   21.1727 C   0  0  0  0  0  0  0  0  0  0  0  0
  -24.8026  -28.9792   20.0027 C   0  0  0  0  0  0  0  0  0  0  0  0
  -30.0355  -14.2549   17.5649 C   0  0  0  0  0  0  0  0  0  0  0  0
  -22.1324  -27.6374   30.7723 C   0  0  0  0  0  0  0  0  0  0  0  0
  -25.5213  -26.4232   25.3444 C   0  0  0  0  0  0  0  0  0  0  0  0
  -23.8781  -26.2623   22.8911 C   0  0  0  0  0  0  0  0  0  0  0  0
  -21.9252  -28.4403   29.4906 C   0  0  0  0  0  0  0  0  0  0  0  0
  -30.0912  -12.5621   20.8549 C   0  0  0  0  0  0  0  0  0  0  0  0
  -21.2662  -27.5763   28.4201 C   0  0  0  0  0  0  0  0  0  0  0  0
  -28.6232  -12.2027   21.0765 C   0  0  0  0  0  0  0  0  0  0  0  0
  -30.4438  -12.6149   19.3715 C   0  0  0  0  0  0  0  0  0  0  0  0
  -28.0971  -13.1751   18.8051 C   0  0  0  0  0  0  0  0  0  0  0  0
  -22.1523  -26.3794   28.0545 C   0  0  1  0  0  0  0  0  0  0  0  0
  -24.3396  -27.3583   25.1065 C   0  0  1  0  0  0  0  0  0  0  0  0
  -27.7070  -13.1552   20.2906 C   0  0  1  0  0  0  0  0  0  0  0  0
  -25.0731  -30.6091   18.1138 C   0  0  0  0  0  0  0  0  0  0  0  0
  -20.6490  -28.5316   22.5840 C   0  0  0  0  0  0  0  0  0  0  0  0
  -21.1393  -29.3342   20.2637 C   0  0  0  0  0  0  0  0  0  0  0  0
  -21.6227  -30.8060   22.2189 C   0  0  0  0  0  0  0  0  0  0  0  0
  -29.3085  -15.8814   15.8745 C   0  0  0  0  0  0  0  0  0  0  0  0
  -27.7473  -28.6834   20.0155 C   0  0  0  0  0  0  0  0  0  0  0  0
  -26.3852  -20.7395   22.4459 C   0  0  0  0  0  0  0  0  0  1  0  0
  -23.0915  -28.7936   21.7894 C   0  0  1  0  0  0  0  0  0  0  0  0
  -25.7256  -29.9839   19.3369 C   0  0  2  0  0  0  0  0  0  0  0  0
  -21.6386  -29.3432   21.7243 C   0  0  0  0  0  0  0  0  0  0  0  0
  -25.8735  -11.5495   20.6652 N   0  0  0  0  0  0  0  0  0  0  0  0
  -26.2368  -12.8292   20.4739 N   0  0  0  0  0  0  0  0  0  0  0  0
  -24.0028  -27.4940   23.6879 N   0  0  0  0  0  0  0  0  0  0  0  0
  -29.5265  -13.4782   18.6259 N   0  0  0  0  0  0  0  0  0  0  0  0
  -25.3785  -15.0293   20.2908 N   0  0  0  0  0  0  0  0  0  0  0  0
  -21.6824  -12.5209   20.9567 N   0  0  0  0  0  0  0  0  0  0  0  0
  -27.6040  -19.0828   21.2226 N   0  0  0  0  0  0  0  0  0  0  0  0
  -23.2295  -26.7958   27.1823 N   0  0  0  0  0  0  0  0  0  0  0  0
  -24.0555  -29.5589   21.0062 N   0  0  0  0  0  0  0  0  0  0  0  0
  -29.3456  -15.4460   17.2688 N   0  0  0  0  0  0  0  0  0  0  0  0
  -26.9896  -29.3210   18.9081 N   0  3  0  0  0  0  0  0  0  0  0  0
  -22.4464  -14.6544   20.6058 O   0  0  0  0  0  0  0  0  0  0  0  0
  -22.0786  -26.6803   25.1613 O   0  0  0  0  0  0  0  0  0  0  0  0
  -23.7212  -29.8034   23.8412 O   0  0  0  0  0  0  0  0  0  0  0  0
  -25.6812  -20.0359   20.2627 O   0  0  0  0  0  0  0  0  0  0  0  0
  -24.7469  -27.7992   19.6637 O   0  0  0  0  0  0  0  0  0  0  0  0
  -31.0048  -13.8861   16.8904 O   0  0  0  0  0  0  0  0  0  0  0  0
  -21.5328   -6.9947   21.6457 O   0  0  0  0  0  0  0  0  0  0  0  0
  -25.2382  -21.5876   22.4070 O   0  0  0  0  0  0  0  0  0  1  0  0
  -23.3793   -3.3958   25.3930 F   0  0  0  0  0  0  0  0  0  0  0  0
  -20.0038   -6.3348   23.8524 F   0  0  0  0  0  0  0  0  0  0  0  0
  1  2  1  0  0  0  0
  1  5  2  0  0  0  0
  2  6  2  0  0  0  0
  3 12  2  0  0  0  0
  3 19  1  0  0  0  0
  4 13  1  0  0  0  0
  4 19  2  0  0  0  0
  5 21  1  0  0  0  0
  6 23  1  0  0  0  0
  7 14  2  0  0  0  0
  7 22  1  0  0  0  0
  8 10  2  0  0  0  0
  8 25  1  0  0  0  0
  9 11  1  0  0  0  0
  9 25  2  0  0  0  0
 10 26  1  0  0  0  0
 11 26  2  0  0  0  0
 12 27  1  0  0  0  0
 13 27  2  0  0  0  0
 14 28  1  0  0  0  0
 15 16  2  0  0  0  0
 15 29  1  0  0  0  0
 16 30  1  0  0  0  0
 17 24  1  0  0  0  0
 17 28  2  0  0  0  0
 18 30  2  0  0  0  0
 18 31  1  0  0  0  0
 19 32  1  0  0  0  0
 20 32  1  0  0  0  0
 20 33  2  0  0  0  0
 20 34  1  0  0  0  0
 21 23  2  0  0  0  0
 21 40  1  0  0  0  0
 22 24  2  0  0  0  0
 22 41  1  0  0  0  0
 23 49  1  0  0  0  0
 24 42  1  0  0  0  0
 25 68  1  0  0  0  0
 26 71  1  0  0  0  0
 27 79  1  0  0  0  0
 28 80  1  0  0  0  0
 29 31  2  0  0  0  0
 29 79  1  0  0  0  0
 30 81  1  0  0  0  0
 31 82  1  0  0  0  0
 32 62  2  0  0  0  0
 33 63  1  0  0  0  0
 33 66  1  0  0  0  0
 34 67  1  0  0  0  0
 34 73  2  0  0  0  0
 35 50  1  0  0  0  0
 35 69  1  0  0  0  0
 35 74  2  0  0  0  0
 36 59  1  0  0  0  0
 36 64  1  0  0  0  0
 36 75  2  0  0  0  0
 37 58  1  0  0  0  0
 37 68  1  0  0  0  0
 37 76  2  0  0  0  0
 38 60  1  0  0  0  0
 38 70  1  0  0  0  0
 38 77  2  0  0  0  0
 39 65  1  0  0  0  0
 39 71  1  0  0  0  0
 39 78  2  0  0  0  0
 40 43  1  0  0  0  0
 41 50  1  0  0  0  0
 42 64  1  0  0  0  0
 43 45  1  0  0  0  0
 44 46  1  0  0  0  0
 44 47  1  0  0  0  0
 45 49  1  0  0  0  0
 46 51  1  0  0  0  0
 47 65  1  0  0  0  0
 48 51  1  0  0  0  0
 48 65  1  0  0  0  0
 49 69  1  0  0  0  0
 50 64  1  0  0  0  0
 51 63  1  0  0  0  0
 52 60  1  0  0  0  0
 53 61  1  0  0  0  0
 54 61  1  0  0  0  0
 55 61  1  0  0  0  0
 56 71  1  0  0  0  0
 57 72  1  0  0  0  0
 58 80  1  0  0  0  0
 59 61  1  0  0  0  0
 59 70  1  0  0  0  0
 60 72  1  0  0  0  0
 62 63  1  0  0  0  0
M  CHG  1  72   1
M  ISO  4  39 100  58 101  71 100  80 101
M  END
> <Batch ID>
0008

> <Smiles>
CNC(C)C(=O)NC(C(=O)N1Cc2cc([101O:1][101CH2:1]C(=O)Nc3ccc([100N:0](C)[100C:0](=O)N4CCCC(n5nc(-c6ccc(Oc7ccc(F)cc7F)cc6)c(C(N)=O)c5N)C4)cc3)ccc2CC1C(=O)NC1CCCc2ccccc21)C(C)(C)C

> <Shape>
0.238

> <Color>
0.189

> <Negative vol penalty>
0.000

$$$$

  -OEChem-04052315363D

 89 97  0     1  0  0  0  0  0999 V2000
  -16.6282  -27.1498   23.3018 C   0  0  0  0  0  0  0  0  0  0  0  0
  -17.4163  -26.9782   22.1683 C   0  0  0  0  0  0  0  0  0  0  0  0
  -26.5344  -15.4737   23.0415 C   0  0  0  0  0  0  0  0  0  0  0  0
  -25.7437  -14.9511   20.8191 C   0  0  0  0  0  0  0  0  0  0  0  0
  -16.7477  -28.3119   24.0630 C   0  0  0  0  0  0  0  0  0  0  0  0
  -18.3235  -27.9690   21.7946 C   0  0  0  0  0  0  0  0  0  0  0  0
  -25.3573  -26.5279   21.2120 C   0  0  0  0  0  0  0  0  0  0  0  0
  -25.6519  -14.5350   23.5761 C   0  0  0  0  0  0  0  0  0  0  0  0
  -24.8613  -14.0125   21.3537 C   0  0  0  0  0  0  0  0  0  0  0  0
  -26.6880  -26.2801   20.8741 C   0  0  0  0  0  0  0  0  0  0  0  0
  -25.0060  -10.8480   22.5308 C   0  0  0  0  0  0  0  0  0  0  0  0
  -24.9251   -9.6053   21.9024 C   0  0  0  0  0  0  0  0  0  0  0  0
  -27.0077  -28.6237   20.3707 C   0  0  0  0  0  0  0  0  0  0  0  0
  -31.2565  -20.9559   15.3374 C   0  0  0  0  0  0  0  0  0  0  0  0
  -32.9494  -22.6165   14.8756 C   0  0  0  0  0  0  0  0  0  0  0  0
  -30.9981  -23.2086   16.1713 C   0  0  0  0  0  0  0  0  0  0  0  0
  -22.5767   -9.9757   21.4724 C   0  0  0  0  0  0  0  0  0  0  0  0
  -26.5802  -15.6818   21.6629 C   0  0  0  0  0  0  0  0  0  0  0  0
  -28.8166  -16.4305   20.6904 C   0  0  0  0  0  0  0  0  0  0  0  0
  -17.6637  -29.3132   23.7039 C   0  0  0  0  0  0  0  0  0  0  0  0
  -24.8505  -27.8287   21.1452 C   0  0  0  0  0  0  0  0  0  0  0  0
  -18.4543  -29.1461   22.5509 C   0  0  0  0  0  0  0  0  0  0  0  0
  -25.6791  -28.8800   20.7199 C   0  0  0  0  0  0  0  0  0  0  0  0
  -32.4712  -21.3121   14.7515 C   0  0  0  0  0  0  0  0  0  0  0  0
  -30.5199  -21.9042   16.0472 C   0  0  0  0  0  0  0  0  0  0  0  0
  -32.2128  -23.5648   15.5855 C   0  0  0  0  0  0  0  0  0  0  0  0
  -24.8154  -13.8044   22.7323 C   0  0  0  0  0  0  0  0  0  0  0  0
  -27.5110  -27.3254   20.4543 C   0  0  0  0  0  0  0  0  0  0  0  0
  -23.8722  -11.6545   22.6301 C   0  0  0  0  0  0  0  0  0  0  0  0
  -23.7104   -9.1692   21.3732 C   0  0  0  0  0  0  0  0  0  0  0  0
  -22.6576  -11.2184   22.1009 C   0  0  0  0  0  0  0  0  0  0  0  0
  -27.4912  -16.6516   21.1101 C   0  0  0  0  0  0  0  0  0  0  0  0
  -29.2460  -17.6578   20.2481 C   0  0  0  0  0  0  0  0  0  0  0  0
  -29.5903  -15.2234   20.6994 C   0  0  0  0  0  0  0  0  0  0  0  0
  -21.9068  -30.1006   21.6441 C   0  0  0  0  0  0  0  0  0  0  0  0
  -24.3769  -31.6050   22.6668 C   0  0  0  0  0  0  0  0  0  0  0  0
  -31.7809  -25.9794   15.8296 C   0  0  0  0  0  0  0  0  0  0  0  0
  -27.2686  -32.7492   24.0689 C   0  0  0  0  0  0  0  0  0  0  0  0
  -28.4312  -22.3601   17.3798 C   0  0  0  0  0  0  0  0  0  0  0  0
  -17.7235  -30.5728   24.5311 C   0  0  0  0  0  0  0  0  0  0  0  0
  -23.4067  -28.1320   21.4406 C   0  0  0  0  0  0  0  0  0  0  0  0
  -25.0813  -30.2575   20.6300 C   0  0  0  0  0  0  0  0  0  0  0  0
  -18.9756  -31.4087   24.2782 C   0  0  0  0  0  0  0  0  0  0  0  0
  -27.1452  -22.2411   20.6978 C   0  0  0  0  0  0  0  0  0  0  0  0
  -19.2273  -31.5535   22.7808 C   0  0  0  0  0  0  0  0  0  0  0  0
  -27.2296  -20.7581   21.0663 C   0  0  0  0  0  0  0  0  0  0  0  0
  -26.7737  -22.4403   19.2295 C   0  0  0  0  0  0  0  0  0  0  0  0
  -27.7069  -20.2379   18.6397 C   0  0  0  0  0  0  0  0  0  0  0  0
  -19.4675  -30.1872   22.1271 C   0  0  1  0  0  0  0  0  0  0  0  0
  -23.2026  -29.5035   22.1087 C   0  0  1  0  0  0  0  0  0  0  0  0
  -28.1419  -19.9865   20.0927 C   0  0  2  0  0  0  0  0  0  0  0  0
  -28.2151  -34.7196   25.3014 C   0  0  0  0  0  0  0  0  0  0  0  0
  -24.4651  -33.1879   20.0609 C   0  0  0  0  0  0  0  0  0  0  0  0
  -26.2059  -34.6595   21.0965 C   0  0  0  0  0  0  0  0  0  0  0  0
  -23.9202  -34.5460   22.0890 C   0  0  0  0  0  0  0  0  0  0  0  0
  -34.1631  -25.1488   15.7177 C   0  0  0  0  0  0  0  0  0  0  0  0
  -27.9340  -31.0979   26.4331 C   0  0  0  0  0  0  0  0  0  0  0  0
  -32.2630  -27.2109   16.5942 C   0  0  0  0  0  0  0  0  0  0  0  0
  -31.1470  -27.9702   17.3175 C   0  0  0  0  0  0  0  0  0  0  0  0
  -30.4789  -27.1290   18.4064 C   0  0  0  0  0  0  0  0  0  0  0  0
  -29.4041  -27.9177   19.1417 C   0  0  0  0  0  0  0  0  0  1  0  0
  -25.4851  -32.5780   22.3530 C   0  0  1  0  0  0  0  0  0  0  0  0
  -27.5574  -33.3545   25.4307 C   0  0  2  0  0  0  0  0  0  0  0  0
  -33.2579  -20.2980   13.9914 C   0  0  0  0  0  0  0  0  0  0  0  0
  -25.0231  -33.7147   21.3982 C   0  0  0  0  0  0  0  0  0  0  0  0
  -27.1042  -17.9198   20.9491 N   0  0  0  0  0  0  0  0  0  0  0  0
  -28.1929  -18.5066   20.4233 N   0  0  0  0  0  0  0  0  0  0  0  0
  -24.2302  -30.5132   21.8026 N   0  0  0  0  0  0  0  0  0  0  0  0
  -27.6832  -21.6835   18.3664 N   0  0  0  0  0  0  0  0  0  0  0  0
  -30.4180  -18.0831   19.7304 N   0  0  0  0  0  0  0  0  0  0  0  0
  -28.9953  -14.0520   21.1873 N   0  0  0  0  0  0  0  0  0  0  0  0
  -29.2859  -21.5418   16.6420 N   0  0  0  0  0  0  0  0  0  0  0  0
  -20.8120  -29.7260   22.3994 N   0  0  0  0  0  0  0  0  0  0  0  0
  -25.9930  -33.0464   23.6379 N   0  0  0  0  0  0  0  0  0  0  0  0
  -32.7093  -24.9215   15.7134 N   0  0  0  0  0  0  0  0  0  0  0  0
  -28.4661  -32.4669   26.2100 N   0  3  0  0  0  0  0  0  0  0  0  0
  -30.7797  -15.1884   20.3023 O   0  0  0  0  0  0  0  0  0  0  0  0
  -21.8996  -30.8477   20.6728 O   0  0  0  0  0  0  0  0  0  0  0  0
  -23.6557  -31.8081   23.6476 O   0  0  0  0  0  0  0  0  0  0  0  0
  -30.6515  -25.9777   15.3332 O   0  0  0  0  0  0  0  0  0  0  0  0
  -28.0935  -32.0827   23.4477 O   0  0  0  0  0  0  0  0  0  0  0  0
  -28.3417  -23.5802   17.2207 O   0  0  0  0  0  0  0  0  0  0  0  0
  -23.9544  -12.8882   23.2536 O   0  0  0  0  0  0  0  0  0  0  0  0
  -28.8103  -27.0772   20.1303 O   0  0  0  0  0  0  0  0  0  1  0  0
  -23.6332   -7.9766   20.7684 F   0  0  0  0  0  0  0  0  0  0  0  0
  -21.5653  -11.9893   22.1922 F   0  0  0  0  0  0  0  0  0  0  0  0
  -32.6691  -19.0662   13.9514 F   0  0  0  0  0  0  0  0  0  0  0  0
  -33.4665  -20.6356   12.6845 F   0  0  0  0  0  0  0  0  0  0  0  0
  -34.4996  -20.0934   14.5196 F   0  0  0  0  0  0  0  0  0  0  0  0
  1  2  1  0  0  0  0
  1  5  2  0  0  0  0
  2  6  2  0  0  0  0
  3  8  2  0  0  0  0
  3 18  1  0  0  0  0
  4  9  1  0  0  0  0
  4 18  2  0  0  0  0
  5 20  1  0  0  0  0
  6 22  1  0  0  0  0
  7 10  2  0  0  0  0
  7 21  1  0  0  0  0
  8 27  1  0  0  0  0
  9 27  2  0  0  0  0
 10 28  1  0  0  0  0
 11 12  2  0  0  0  0
 11 29  1  0  0  0  0
 12 30  1  0  0  0  0
 13 23  1  0  0  0  0
 13 28  2  0  0  0  0
 14 24  2  0  0  0  0
 14 25  1  0  0  0  0
 15 24  1  0  0  0  0
 15 26  2  0  0  0  0
 16 25  2  0  0  0  0
 16 26  1  0  0  0  0
 17 30  2  0  0  0  0
 17 31  1  0  0  0  0
 18 32  1  0  0  0  0
 19 32  1  0  0  0  0
 19 33  2  0  0  0  0
 19 34  1  0  0  0  0
 20 22  2  0  0  0  0
 20 40  1  0  0  0  0
 21 23  2  0  0  0  0
 21 41  1  0  0  0  0
 22 49  1  0  0  0  0
 23 42  1  0  0  0  0
 24 64  1  0  0  0  0
 25 72  1  0  0  0  0
 26 75  1  0  0  0  0
 27 83  1  0  0  0  0
 28 84  1  0  0  0  0
 29 31  2  0  0  0  0
 29 83  1  0  0  0  0
 30 85  1  0  0  0  0
 31 86  1  0  0  0  0
 32 66  2  0  0  0  0
 33 67  1  0  0  0  0
 33 70  1  0  0  0  0
 34 71  1  0  0  0  0
 34 77  2  0  0  0  0
 35 50  1  0  0  0  0
 35 73  1  0  0  0  0
 35 78  2  0  0  0  0
 36 62  1  0  0  0  0
 36 68  1  0  0  0  0
 36 79  2  0  0  0  0
 37 58  1  0  0  0  0
 37 75  1  0  0  0  0
 37 80  2  0  0  0  0
 38 63  1  0  0  0  0
 38 74  1  0  0  0  0
 38 81  2  0  0  0  0
 39 69  1  0  0  0  0
 39 72  1  0  0  0  0
 39 82  2  0  0  0  0
 40 43  1  0  0  0  0
 41 50  1  0  0  0  0
 42 68  1  0  0  0  0
 43 45  1  0  0  0  0
 44 46  1  0  0  0  0
 44 47  1  0  0  0  0
 45 49  1  0  0  0  0
 46 51  1  0  0  0  0
 47 69  1  0  0  0  0
 48 51  1  0  0  0  0
 48 69  1  0  0  0  0
 49 73  1  0  0  0  0
 50 68  1  0  0  0  0
 51 67  1  0  0  0  0
 52 63  1  0  0  0  0
 53 65  1  0  0  0  0
 54 65  1  0  0  0  0
 55 65  1  0  0  0  0
 56 75  1  0  0  0  0
 57 76  1  0  0  0  0
 58 59  1  0  0  0  0
 59 60  1  0  0  0  0
 60 61  1  0  0  0  0
 61 84  1  0  0  0  0
 62 65  1  0  0  0  0
 62 74  1  0  0  0  0
 63 76  1  0  0  0  0
 64 87  1  0  0  0  0
 64 88  1  0  0  0  0
 64 89  1  0  0  0  0
 66 67  1  0  0  0  0
M  CHG  1  76   1
M  ISO  4  39 100  61 101  72 100  84 101
M  END
> <Batch ID>
0008

> <Smiles>
CNC(C)C(=O)NC(C(=O)N1Cc2cc([101O:1][101CH2:1]CCCC(=O)N(C)c3cc([100NH:0][100C:0](=O)N4CCCC(n5nc(-c6ccc(Oc7ccc(F)cc7F)cc6)c(C(N)=O)c5N)C4)cc(C(F)(F)F)c3)ccc2CC1C(=O)NC1CCCc2ccccc21)C(C)(C)C

> <Shape>
0.288

> <Color>
0.097

> <Negative vol penalty>
0.000

$$$$

  -OEChem-04052315363D

 83 91  0     1  0  0  0  0  0999 V2000
  -30.0240  -23.8169   17.5909 C   0  0  0  0  0  0  0  0  0  0  0  0
  -28.8193  -23.8381   18.2863 C   0  0  0  0  0  0  0  0  0  0  0  0
  -26.7394  -14.7557   19.5432 C   0  0  0  0  0  0  0  0  0  0  0  0
  -25.1178  -14.9283   21.3258 C   0  0  0  0  0  0  0  0  0  0  0  0
  -31.0692  -24.6518   17.9839 C   0  0  0  0  0  0  0  0  0  0  0  0
  -28.6594  -24.6936   19.3758 C   0  0  0  0  0  0  0  0  0  0  0  0
  -24.2155  -27.1208   19.3043 C   0  0  0  0  0  0  0  0  0  0  0  0
  -26.7031  -13.3651   19.6448 C   0  0  0  0  0  0  0  0  0  0  0  0
  -25.0815  -13.5376   21.4274 C   0  0  0  0  0  0  0  0  0  0  0  0
  -23.0916  -26.4035   19.7118 C   0  0  0  0  0  0  0  0  0  0  0  0
  -23.6550  -10.9576   19.7755 C   0  0  0  0  0  0  0  0  0  0  0  0
  -22.4041  -10.3494   19.8801 C   0  0  0  0  0  0  0  0  0  0  0  0
  -23.2122  -27.4570   21.8785 C   0  0  0  0  0  0  0  0  0  0  0  0
  -23.6762  -24.4355   22.8622 C   0  0  0  0  0  0  0  0  0  0  0  0
  -23.1898  -26.1778   24.4637 C   0  0  0  0  0  0  0  0  0  0  0  0
  -25.3430  -25.0823   24.4872 C   0  0  0  0  0  0  0  0  0  0  0  0
  -23.0373   -9.4140   22.0158 C   0  0  0  0  0  0  0  0  0  0  0  0
  -25.9468  -15.5374   20.3838 C   0  0  0  0  0  0  0  0  0  0  0  0
  -25.1752  -17.7887   19.4651 C   0  0  0  0  0  0  0  0  0  0  0  0
  -30.9187  -25.5250   19.0728 C   0  0  0  0  0  0  0  0  0  0  0  0
  -24.8538  -28.0050   20.1859 C   0  0  0  0  0  0  0  0  0  0  0  0
  -29.7040  -25.5401   19.7845 C   0  0  0  0  0  0  0  0  0  0  0  0
  -24.3426  -28.1863   21.4789 C   0  0  0  0  0  0  0  0  0  0  0  0
  -22.7963  -25.3814   23.3882 C   0  0  0  0  0  0  0  0  0  0  0  0
  -24.9496  -24.2859   23.4117 C   0  0  0  0  0  0  0  0  0  0  0  0
  -24.4632  -26.0282   25.0132 C   0  0  0  0  0  0  0  0  0  0  0  0
  -25.8742  -12.7560   20.5869 C   0  0  0  0  0  0  0  0  0  0  0  0
  -22.5915  -26.5694   21.0000 C   0  0  0  0  0  0  0  0  0  0  0  0
  -24.5971  -10.7939   20.7911 C   0  0  0  0  0  0  0  0  0  0  0  0
  -22.0952   -9.5776   21.0002 C   0  0  0  0  0  0  0  0  0  0  0  0
  -24.2883  -10.0222   21.9112 C   0  0  0  0  0  0  0  0  0  0  0  0
  -25.9843  -16.9740   20.2797 C   0  0  0  0  0  0  0  0  0  0  0  0
  -25.6002  -19.0678   19.7289 C   0  0  0  0  0  0  0  0  0  0  0  0
  -24.1327  -17.4220   18.5516 C   0  0  0  0  0  0  0  0  0  0  0  0
  -27.7526  -28.1814   21.4780 C   0  0  0  0  0  0  0  0  0  0  0  0
  -26.6539  -31.0199   22.5999 C   0  0  0  0  0  0  0  0  0  0  0  0
  -23.9776  -32.9565   23.4562 C   0  0  0  0  0  0  0  0  0  0  0  0
  -27.1412  -23.0484   23.3043 C   0  0  0  0  0  0  0  0  0  0  0  0
  -32.0930  -26.3747   19.4895 C   0  0  0  0  0  0  0  0  0  0  0  0
  -26.0492  -28.7913   19.7222 C   0  0  0  0  0  0  0  0  0  0  0  0
  -24.9791  -29.1384   22.4570 C   0  0  0  0  0  0  0  0  0  0  0  0
  -31.7140  -27.5218   20.4226 C   0  0  0  0  0  0  0  0  0  0  0  0
  -29.6449  -20.7358   22.2745 C   0  0  0  0  0  0  0  0  0  0  0  0
  -30.7927  -27.0252   21.5323 C   0  0  0  0  0  0  0  0  0  0  0  0
  -28.8492  -19.6180   21.5967 C   0  0  0  0  0  0  0  0  0  0  0  0
  -28.9046  -21.3067   23.4827 C   0  0  0  0  0  0  0  0  0  0  0  0
  -26.7326  -20.6269   22.5396 C   0  0  0  0  0  0  0  0  0  0  0  0
  -29.4836  -26.4720   20.9562 C   0  0  1  0  0  0  0  0  0  0  0  0
  -26.9256  -29.2796   20.8715 C   0  0  1  0  0  0  0  0  0  0  0  0
  -27.4088  -20.0647   21.2785 C   0  0  2  0  0  0  0  0  0  0  0  0
  -23.3963  -35.2170   24.3779 C   0  0  0  0  0  0  0  0  0  0  0  0
  -20.6082  -24.2362   22.8878 C   0  0  0  0  0  0  0  0  0  0  0  0
  -20.6408  -26.6934   23.4620 C   0  0  0  0  0  0  0  0  0  0  0  0
  -27.4621  -30.0873   25.3904 C   0  0  0  0  0  0  0  0  0  0  0  0
  -26.0293  -31.9086   26.3382 C   0  0  0  0  0  0  0  0  0  0  0  0
  -27.9843  -32.4832   24.8993 C   0  0  0  0  0  0  0  0  0  0  0  0
  -23.9538  -27.8197   26.6537 C   0  0  0  0  0  0  0  0  0  0  0  0
  -26.1766  -26.6768   26.6876 C   0  0  0  0  0  0  0  0  0  0  0  0
  -22.4801  -33.6959   21.0129 C   0  0  0  0  0  0  0  0  0  0  0  0
  -25.9239  -31.4677   23.8431 C   0  0  1  0  0  0  0  0  0  0  0  0
  -23.6259  -34.3943   23.1196 C   0  0  2  0  0  0  0  0  0  0  0  0
  -21.4026  -25.5450   22.7869 C   0  0  0  0  0  0  0  0  0  1  0  0
  -26.8389  -31.4672   25.1002 C   0  0  0  0  0  0  0  0  0  0  0  0
  -26.8573  -17.6766   21.0064 N   0  0  0  0  0  0  0  0  0  0  0  0
  -26.5993  -18.9463   20.6494 N   0  0  0  0  0  0  0  0  0  0  0  0
  -26.1494  -29.8797   21.9586 N   0  0  0  0  0  0  0  0  0  0  0  0
  -27.5491  -21.7125   23.1049 N   0  0  0  0  0  0  0  0  0  0  0  0
  -25.2131  -20.2735   19.2610 N   0  0  0  0  0  0  0  0  0  0  0  0
  -23.8237  -16.0632   18.4011 N   0  0  0  0  0  0  0  0  0  0  0  0
  -25.8429  -23.3247   22.8771 N   0  0  0  0  0  0  0  0  0  0  0  0
  -28.5984  -27.5544   20.5831 N   0  0  0  0  0  0  0  0  0  0  0  0
  -25.3415  -32.7678   23.5284 N   0  0  0  0  0  0  0  0  0  0  0  0
  -24.8609  -26.8340   26.1007 N   0  0  0  0  0  0  0  0  0  0  0  0
  -22.3870  -34.4446   22.2927 N   0  3  0  0  0  0  0  0  0  0  0  0
  -23.5053  -18.2728   17.8763 O   0  0  0  0  0  0  0  0  0  0  0  0
  -27.6332  -27.9231   22.6699 O   0  0  0  0  0  0  0  0  0  0  0  0
  -27.6314  -31.6623   22.2081 O   0  0  0  0  0  0  0  0  0  0  0  0
  -23.1273  -32.0884   23.6406 O   0  0  0  0  0  0  0  0  0  0  0  0
  -27.8981  -23.8922   23.7914 O   0  0  0  0  0  0  0  0  0  0  0  0
  -25.8383  -11.3990   20.6862 O   0  0  0  0  0  0  0  0  0  0  0  0
  -21.4950  -25.8700   21.4005 O   0  0  0  0  0  0  0  0  0  1  0  0
  -20.8934   -8.9949   21.1012 F   0  0  0  0  0  0  0  0  0  0  0  0
  -25.1888   -9.8623   22.8906 F   0  0  0  0  0  0  0  0  0  0  0  0
  1  2  1  0  0  0  0
  1  5  2  0  0  0  0
  2  6  2  0  0  0  0
  3  8  2  0  0  0  0
  3 18  1  0  0  0  0
  4  9  1  0  0  0  0
  4 18  2  0  0  0  0
  5 20  1  0  0  0  0
  6 22  1  0  0  0  0
  7 10  2  0  0  0  0
  7 21  1  0  0  0  0
  8 27  1  0  0  0  0
  9 27  2  0  0  0  0
 10 28  1  0  0  0  0
 11 12  2  0  0  0  0
 11 29  1  0  0  0  0
 12 30  1  0  0  0  0
 13 23  1  0  0  0  0
 13 28  2  0  0  0  0
 14 24  1  0  0  0  0
 14 25  2  0  0  0  0
 15 24  2  0  0  0  0
 15 26  1  0  0  0  0
 16 25  1  0  0  0  0
 16 26  2  0  0  0  0
 17 30  2  0  0  0  0
 17 31  1  0  0  0  0
 18 32  1  0  0  0  0
 19 32  1  0  0  0  0
 19 33  2  0  0  0  0
 19 34  1  0  0  0  0
 20 22  2  0  0  0  0
 20 39  1  0  0  0  0
 21 23  2  0  0  0  0
 21 40  1  0  0  0  0
 22 48  1  0  0  0  0
 23 41  1  0  0  0  0
 24 62  1  0  0  0  0
 25 70  1  0  0  0  0
 26 73  1  0  0  0  0
 27 80  1  0  0  0  0
 28 81  1  0  0  0  0
 29 31  2  0  0  0  0
 29 80  1  0  0  0  0
 30 82  1  0  0  0  0
 31 83  1  0  0  0  0
 32 64  2  0  0  0  0
 33 65  1  0  0  0  0
 33 68  1  0  0  0  0
 34 69  1  0  0  0  0
 34 75  2  0  0  0  0
 35 49  1  0  0  0  0
 35 71  1  0  0  0  0
 35 76  2  0  0  0  0
 36 60  1  0  0  0  0
 36 66  1  0  0  0  0
 36 77  2  0  0  0  0
 37 61  1  0  0  0  0
 37 72  1  0  0  0  0
 37 78  2  0  0  0  0
 38 67  1  0  0  0  0
 38 70  1  0  0  0  0
 38 79  2  0  0  0  0
 39 42  1  0  0  0  0
 40 49  1  0  0  0  0
 41 66  1  0  0  0  0
 42 44  1  0  0  0  0
 43 45  1  0  0  0  0
 43 46  1  0  0  0  0
 44 48  1  0  0  0  0
 45 50  1  0  0  0  0
 46 67  1  0  0  0  0
 47 50  1  0  0  0  0
 47 67  1  0  0  0  0
 48 71  1  0  0  0  0
 49 66  1  0  0  0  0
 50 65  1  0  0  0  0
 51 61  1  0  0  0  0
 52 62  1  0  0  0  0
 53 62  1  0  0  0  0
 54 63  1  0  0  0  0
 55 63  1  0  0  0  0
 56 63  1  0  0  0  0
 57 73  1  0  0  0  0
 58 73  1  0  0  0  0
 59 74  1  0  0  0  0
 60 63  1  0  0  0  0
 60 72  1  0  0  0  0
 61 74  1  0  0  0  0
 62 81  1  0  0  0  0
 64 65  1  0  0  0  0
M  CHG  1  74   1
M  ISO  4  38 100  62 101  70 100  81 101
M  END
> <Batch ID>
0008

> <Smiles>
CNC(C)C(=O)NC(C(=O)N1Cc2cc([101O:1][101C:1](C)(C)c3cc([100NH:0][100C:0](=O)N4CCCC(n5nc(-c6ccc(Oc7ccc(F)cc7F)cc6)c(C(N)=O)c5N)C4)cc(N(C)C)c3)ccc2CC1C(=O)NC1CCCc2ccccc21)C(C)(C)C

> <Shape>
0.263

> <Color>
0.067

> <Negative vol penalty>
0.000

$$$$

  -OEChem-04052315363D

 85 93  0     1  0  0  0  0  0999 V2000
  -17.4454  -26.1766   20.1541 C   0  0  0  0  0  0  0  0  0  0  0  0
  -18.2812  -26.7487   19.2004 C   0  0  0  0  0  0  0  0  0  0  0  0
  -24.2883  -13.7339   21.1454 C   0  0  0  0  0  0  0  0  0  0  0  0
  -26.5221  -13.5038   20.2541 C   0  0  0  0  0  0  0  0  0  0  0  0
  -17.6856  -26.3942   21.5102 C   0  0  0  0  0  0  0  0  0  0  0  0
  -19.3570  -27.5397   19.6022 C   0  0  0  0  0  0  0  0  0  0  0  0
  -26.9641  -26.8407   17.9678 C   0  0  0  0  0  0  0  0  0  0  0  0
  -31.0997  -21.9158   22.0177 C   0  0  0  0  0  0  0  0  0  0  0  0
  -32.3474  -22.5248   22.1517 C   0  0  0  0  0  0  0  0  0  0  0  0
  -23.9769  -12.4505   20.6963 C   0  0  0  0  0  0  0  0  0  0  0  0
  -26.2107  -12.2204   19.8051 C   0  0  0  0  0  0  0  0  0  0  0  0
  -28.3518  -26.7299   17.8785 C   0  0  0  0  0  0  0  0  0  0  0  0
  -22.7064   -9.0967   20.1026 C   0  0  0  0  0  0  0  0  0  0  0  0
  -22.0225   -8.2519   20.9768 C   0  0  0  0  0  0  0  0  0  0  0  0
  -28.5906  -27.8867   19.9887 C   0  0  0  0  0  0  0  0  0  0  0  0
  -30.6197  -23.3189   20.1104 C   0  0  0  0  0  0  0  0  0  0  0  0
  -23.8403   -8.4181   22.5595 C   0  0  0  0  0  0  0  0  0  0  0  0
  -25.5609  -14.2605   20.9242 C   0  0  0  0  0  0  0  0  0  0  0  0
  -26.4194  -15.9427   22.6392 C   0  0  0  0  0  0  0  0  0  0  0  0
  -18.7706  -27.1802   21.9291 C   0  0  0  0  0  0  0  0  0  0  0  0
  -26.3830  -27.4621   19.0767 C   0  0  0  0  0  0  0  0  0  0  0  0
  -19.6111  -27.7690   20.9651 C   0  0  0  0  0  0  0  0  0  0  0  0
  -27.2006  -27.9895   20.0897 C   0  0  0  0  0  0  0  0  0  0  0  0
  -30.2358  -22.3128   20.9970 C   0  0  0  0  0  0  0  0  0  0  0  0
  -32.7312  -23.5309   21.2651 C   0  0  0  0  0  0  0  0  0  0  0  0
  -31.8674  -23.9279   20.2444 C   0  0  0  0  0  0  0  0  0  0  0  0
  -24.9381  -11.6938   20.0262 C   0  0  0  0  0  0  0  0  0  0  0  0
  -29.1630  -27.2519   18.8864 C   0  0  0  0  0  0  0  0  0  0  0  0
  -23.9573   -9.6021   20.4568 C   0  0  0  0  0  0  0  0  0  0  0  0
  -22.5894   -7.9126   22.2053 C   0  0  0  0  0  0  0  0  0  0  0  0
  -24.5243   -9.2629   21.6853 C   0  0  0  0  0  0  0  0  0  0  0  0
  -25.8830  -15.5864   21.3873 C   0  0  0  0  0  0  0  0  0  0  0  0
  -26.5394  -17.3098   22.5848 C   0  0  0  0  0  0  0  0  0  0  0  0
  -26.7772  -15.1120   23.7517 C   0  0  0  0  0  0  0  0  0  0  0  0
  -23.2288  -28.5066   20.8191 C   0  0  0  0  0  0  0  0  0  0  0  0
  -25.1347  -27.4554   22.9808 C   0  0  0  0  0  0  0  0  0  0  0  0
  -27.3616  -25.8332   24.9925 C   0  0  0  0  0  0  0  0  0  0  0  0
  -27.9921  -21.9690   19.9044 C   0  0  0  0  0  0  0  0  0  0  0  0
  -18.9622  -27.4258   23.4047 C   0  0  0  0  0  0  0  0  0  0  0  0
  -24.8952  -27.6584   19.1850 C   0  0  0  0  0  0  0  0  0  0  0  0
  -26.5329  -28.6802   21.2473 C   0  0  0  0  0  0  0  0  0  0  0  0
  -20.3444  -27.9693   23.7574 C   0  0  0  0  0  0  0  0  0  0  0  0
  -24.7616  -20.6410   19.2136 C   0  0  0  0  0  0  0  0  0  0  0  0
  -20.7288  -29.1038   22.8130 C   0  0  0  0  0  0  0  0  0  0  0  0
  -24.8095  -19.2369   19.8206 C   0  0  0  0  0  0  0  0  0  0  0  0
  -26.0998  -21.0359   18.5916 C   0  0  0  0  0  0  0  0  0  0  0  0
  -27.3093  -19.4959   20.0866 C   0  0  0  0  0  0  0  0  0  0  0  0
  -20.8030  -28.6128   21.3622 C   0  0  1  0  0  0  0  0  0  0  0  0
  -24.3770  -27.5592   20.6309 C   0  0  1  0  0  0  0  0  0  0  0  0
  -26.0033  -19.0792   20.7825 C   0  0  2  0  0  0  0  0  0  0  0  0
  -27.7143  -25.1304   27.3755 C   0  0  0  0  0  0  0  0  0  0  0  0
  -33.7550  -25.0764   23.6178 C   0  0  0  0  0  0  0  0  0  0  0  0
  -35.9994  -24.9299   22.4832 C   0  0  0  0  0  0  0  0  0  0  0  0
  -25.8478  -30.3278   23.7186 C   0  0  0  0  0  0  0  0  0  0  0  0
  -27.0598  -29.4378   25.7203 C   0  0  0  0  0  0  0  0  0  0  0  0
  -24.6028  -29.0742   25.4885 C   0  0  0  0  0  0  0  0  0  0  0  0
  -32.3080  -24.6484   17.9105 C   0  0  0  0  0  0  0  0  0  0  0  0
  -27.4427  -22.9676   24.2570 C   0  0  0  0  0  0  0  0  0  0  0  0
  -32.5305  -26.2769   19.7939 C   0  0  0  0  0  0  0  0  0  0  0  0
  -31.2449  -27.0548   20.0198 C   0  0  0  0  0  0  0  0  0  1  0  0
  -26.1921  -27.7850   24.0038 C   0  0  1  0  0  0  0  0  0  0  0  0
  -27.1758  -24.7243   26.0124 C   0  0  2  0  0  0  0  0  0  0  0  0
  -34.6453  -24.2662   22.6868 C   0  0  0  0  0  0  0  0  0  0  0  0
  -25.9325  -29.1474   24.7066 C   0  0  0  0  0  0  0  0  0  0  0  0
  -25.6764  -16.6421   20.5956 N   0  0  0  0  0  0  0  0  0  0  0  0
  -26.0850  -17.6751   21.3518 N   0  0  0  0  0  0  0  0  0  0  0  0
  -25.3521  -27.9143   21.6760 N   0  0  0  0  0  0  0  0  0  0  0  0
  -27.1832  -20.8648   19.5620 N   0  0  0  0  0  0  0  0  0  0  0  0
  -26.9882  -18.2231   23.4718 N   0  0  0  0  0  0  0  0  0  0  0  0
  -26.5891  -13.7277   23.6397 N   0  0  0  0  0  0  0  0  0  0  0  0
  -28.9685  -21.6939   20.8613 N   0  0  0  0  0  0  0  0  0  0  0  0
  -33.9994  -24.1343   21.4191 N   0  0  0  0  0  0  0  0  0  0  0  0
  -22.0348  -27.8875   21.1364 N   0  0  0  0  0  0  0  0  0  0  0  0
  -26.2500  -26.6452   24.9127 N   0  0  0  0  0  0  0  0  0  0  0  0
  -32.2333  -24.9366   19.3431 N   0  0  3  0  0  0  0  0  0  0  0  0
  -27.8893  -23.4918   25.5734 N   0  3  0  0  0  0  0  0  0  0  0  0
  -27.2344  -15.5851   24.8198 O   0  0  0  0  0  0  0  0  0  0  0  0
  -23.4116  -29.7112   20.6879 O   0  0  0  0  0  0  0  0  0  0  0  0
  -24.1392  -26.8135   23.3276 O   0  0  0  0  0  0  0  0  0  0  0  0
  -28.3912  -25.9680   24.3351 O   0  0  0  0  0  0  0  0  0  0  0  0
  -27.8130  -23.0837   19.4069 O   0  0  0  0  0  0  0  0  0  0  0  0
  -24.6346  -10.4413   19.5882 O   0  0  0  0  0  0  0  0  0  0  0  0
  -30.5169  -27.1362   18.7952 O   0  0  0  0  0  0  0  0  0  1  0  0
  -21.9319   -7.1026   23.0453 F   0  0  0  0  0  0  0  0  0  0  0  0
  -25.7252   -9.7463   22.0316 F   0  0  0  0  0  0  0  0  0  0  0  0
  1  2  1  0  0  0  0
  1  5  2  0  0  0  0
  2  6  2  0  0  0  0
  3 10  2  0  0  0  0
  3 18  1  0  0  0  0
  4 11  1  0  0  0  0
  4 18  2  0  0  0  0
  5 20  1  0  0  0  0
  6 22  1  0  0  0  0
  7 12  2  0  0  0  0
  7 21  1  0  0  0  0
  8  9  2  0  0  0  0
  8 24  1  0  0  0  0
  9 25  1  0  0  0  0
 10 27  1  0  0  0  0
 11 27  2  0  0  0  0
 12 28  1  0  0  0  0
 13 14  2  0  0  0  0
 13 29  1  0  0  0  0
 14 30  1  0  0  0  0
 15 23  1  0  0  0  0
 15 28  2  0  0  0  0
 16 24  2  0  0  0  0
 16 26  1  0  0  0  0
 17 30  2  0  0  0  0
 17 31  1  0  0  0  0
 18 32  1  0  0  0  0
 19 32  1  0  0  0  0
 19 33  2  0  0  0  0
 19 34  1  0  0  0  0
 20 22  2  0  0  0  0
 20 39  1  0  0  0  0
 21 23  2  0  0  0  0
 21 40  1  0  0  0  0
 22 48  1  0  0  0  0
 23 41  1  0  0  0  0
 24 71  1  0  0  0  0
 25 26  2  0  0  0  0
 25 72  1  0  0  0  0
 26 75  1  0  0  0  0
 27 82  1  0  0  0  0
 28 83  1  0  0  0  0
 29 31  2  0  0  0  0
 29 82  1  0  0  0  0
 30 84  1  0  0  0  0
 31 85  1  0  0  0  0
 32 65  2  0  0  0  0
 33 66  1  0  0  0  0
 33 69  1  0  0  0  0
 34 70  1  0  0  0  0
 34 77  2  0  0  0  0
 35 49  1  0  0  0  0
 35 73  1  0  0  0  0
 35 78  2  0  0  0  0
 36 61  1  0  0  0  0
 36 67  1  0  0  0  0
 36 79  2  0  0  0  0
 37 62  1  0  0  0  0
 37 74  1  0  0  0  0
 37 80  2  0  0  0  0
 38 68  1  0  0  0  0
 38 71  1  0  0  0  0
 38 81  2  0  0  0  0
 39 42  1  0  0  0  0
 40 49  1  0  0  0  0
 41 67  1  0  0  0  0
 42 44  1  0  0  0  0
 43 45  1  0  0  0  0
 43 46  1  0  0  0  0
 44 48  1  0  0  0  0
 45 50  1  0  0  0  0
 46 68  1  0  0  0  0
 47 50  1  0  0  0  0
 47 68  1  0  0  0  0
 48 73  1  0  0  0  0
 49 67  1  0  0  0  0
 50 66  1  0  0  0  0
 51 62  1  0  0  0  0
 52 63  1  0  0  0  0
 53 63  1  0  0  0  0
 54 64  1  0  0  0  0
 55 64  1  0  0  0  0
 56 64  1  0  0  0  0
 57 75  1  0  0  0  0
 58 76  1  0  0  0  0
 59 60  1  0  0  0  0
 59 75  1  0  0  0  0
 60 83  1  0  0  0  0
 61 64  1  0  0  0  0
 61 74  1  0  0  0  0
 62 76  1  0  0  0  0
 63 72  1  0  0  0  0
 65 66  1  0  0  0  0
M  CHG  1  76   1
M  ISO  4  38 100  60 101  71 100  83 101
M  END
> <Batch ID>
0008

> <Smiles>
CNC(C)C(=O)NC(C(=O)N1Cc2cc([101O:1][101CH2:1]CN(C)c3cc([100NH:0][100C:0](=O)N4CCCC(n5nc(-c6ccc(Oc7ccc(F)cc7F)cc6)c(C(N)=O)c5N)C4)ccc3NC(C)C)ccc2CC1C(=O)NC1CCCc2ccccc21)C(C)(C)C

> <Shape>
0.247

> <Color>
0.066

> <Negative vol penalty>
0.000

$$$$

  -OEChem-04052315363D

 85 93  0     1  0  0  0  0  0999 V2000
  -19.2310  -33.8871   22.1327 C   0  0  0  0  0  0  0  0  0  0  0  0
  -20.5543  -33.6418   21.7804 C   0  0  0  0  0  0  0  0  0  0  0  0
  -23.6317  -15.0458   20.3744 C   0  0  0  0  0  0  0  0  0  0  0  0
  -24.6291  -13.9998   22.3104 C   0  0  0  0  0  0  0  0  0  0  0  0
  -29.5364  -25.0954   17.2677 C   0  0  0  0  0  0  0  0  0  0  0  0
  -18.5506  -32.9872   22.9519 C   0  0  0  0  0  0  0  0  0  0  0  0
  -21.1984  -32.4968   22.2481 C   0  0  0  0  0  0  0  0  0  0  0  0
  -25.3986  -29.1662   19.2866 C   0  0  0  0  0  0  0  0  0  0  0  0
  -28.7693  -24.0428   16.7687 C   0  0  0  0  0  0  0  0  0  0  0  0
  -22.7743  -13.9555   20.2270 C   0  0  0  0  0  0  0  0  0  0  0  0
  -23.7717  -12.9095   22.1630 C   0  0  0  0  0  0  0  0  0  0  0  0
  -26.7910  -29.1394   19.3518 C   0  0  0  0  0  0  0  0  0  0  0  0
  -22.0912   -9.6878   22.0839 C   0  0  0  0  0  0  0  0  0  0  0  0
  -22.6398   -8.4109   22.2029 C   0  0  0  0  0  0  0  0  0  0  0  0
  -30.4086  -23.6434   18.9905 C   0  0  0  0  0  0  0  0  0  0  0  0
  -26.6771  -27.2896   20.8960 C   0  0  0  0  0  0  0  0  0  0  0  0
  -24.1117   -8.8699   20.3428 C   0  0  0  0  0  0  0  0  0  0  0  0
  -24.5591  -15.0679   21.4161 C   0  0  0  0  0  0  0  0  0  0  0  0
  -30.3561  -24.8957   18.3785 C   0  0  0  0  0  0  0  0  0  0  0  0
  -25.2144  -17.3621   22.3191 C   0  0  0  0  0  0  0  0  0  0  0  0
  -19.1836  -31.8257   23.4220 C   0  0  0  0  0  0  0  0  0  0  0  0
  -24.6334  -28.2604   20.0352 C   0  0  0  0  0  0  0  0  0  0  0  0
  -20.5262  -31.5812   23.0755 C   0  0  0  0  0  0  0  0  0  0  0  0
  -25.2752  -27.3053   20.8365 C   0  0  0  0  0  0  0  0  0  0  0  0
  -28.8217  -22.7904   17.3807 C   0  0  0  0  0  0  0  0  0  0  0  0
  -29.6414  -22.5907   18.4915 C   0  0  0  0  0  0  0  0  0  0  0  0
  -22.8443  -12.8874   21.1213 C   0  0  0  0  0  0  0  0  0  0  0  0
  -27.4304  -28.2029   20.1588 C   0  0  0  0  0  0  0  0  0  0  0  0
  -22.5528  -10.5557   21.0943 C   0  0  0  0  0  0  0  0  0  0  0  0
  -23.6500   -8.0019   21.3324 C   0  0  0  0  0  0  0  0  0  0  0  0
  -23.5630  -10.1468   20.2238 C   0  0  0  0  0  0  0  0  0  0  0  0
  -25.4455  -16.1937   21.5685 C   0  0  0  0  0  0  0  0  0  0  0  0
  -26.3497  -18.1143   22.1416 C   0  0  0  0  0  0  0  0  0  0  0  0
  -31.1635  -26.0049   18.9023 C   0  0  0  0  0  0  0  0  0  0  0  0
  -24.0753  -17.7341   23.1063 C   0  0  0  0  0  0  0  0  0  0  0  0
  -30.7676  -26.8820   19.8461 C   0  0  0  0  0  0  0  0  0  0  0  0
  -31.7791  -27.9350   20.2136 C   0  0  0  0  0  0  0  0  0  0  0  0
  -22.4772  -28.5270   22.3554 C   0  0  0  0  0  0  0  0  0  0  0  0
  -22.1888  -25.3251   21.9233 C   0  0  0  0  0  0  0  0  0  0  0  0
  -23.5964  -22.4084   20.8469 C   0  0  0  0  0  0  0  0  0  0  0  0
  -30.1351  -20.1517   18.4382 C   0  0  0  0  0  0  0  0  0  0  0  0
  -18.4221  -30.9063   24.3436 C   0  0  0  0  0  0  0  0  0  0  0  0
  -23.1330  -28.2850   19.9332 C   0  0  0  0  0  0  0  0  0  0  0  0
  -24.4999  -26.2978   21.6442 C   0  0  0  0  0  0  0  0  0  0  0  0
  -19.0594  -29.5270   24.4910 C   0  0  0  0  0  0  0  0  0  0  0  0
  -30.8179  -16.9336   20.1080 C   0  0  0  0  0  0  0  0  0  0  0  0
  -20.5606  -29.6553   24.7294 C   0  0  0  0  0  0  0  0  0  0  0  0
  -29.4439  -16.5266   20.6377 C   0  0  0  0  0  0  0  0  0  0  0  0
  -30.7099  -17.7758   18.8403 C   0  0  0  0  0  0  0  0  0  0  0  0
  -28.4661  -18.5714   19.5205 C   0  0  0  0  0  0  0  0  0  0  0  0
  -21.2514  -30.3378   23.5426 C   0  0  1  0  0  0  0  0  0  0  0  0
  -22.4418  -27.6500   21.1359 C   0  0  1  0  0  0  0  0  0  0  0  0
  -28.5400  -17.7579   20.8215 C   0  0  1  0  0  0  0  0  0  0  0  0
  -27.9882  -21.6813   16.8255 C   0  0  0  0  0  0  0  0  0  0  0  0
  -23.1324  -19.9496   20.6572 C   0  0  0  0  0  0  0  0  0  0  0  0
  -22.6871  -25.0025   24.9162 C   0  0  0  0  0  0  0  0  0  0  0  0
  -23.1553  -22.5775   24.5062 C   0  0  0  0  0  0  0  0  0  0  0  0
  -20.9024  -23.5157   23.9896 C   0  0  0  0  0  0  0  0  0  0  0  0
  -29.5658  -21.2415   20.5964 C   0  0  0  0  0  0  0  0  0  0  0  0
  -23.8485  -22.4704   17.8988 C   0  0  0  0  0  0  0  0  0  0  0  0
  -29.4016  -26.9108   20.4763 C   0  0  0  0  0  0  0  0  0  1  0  0
  -22.8605  -24.1034   22.5022 C   0  0  1  0  0  0  0  0  0  0  0  0
  -23.0613  -21.2990   19.9596 C   0  0  2  0  0  0  0  0  0  0  0  0
  -22.4162  -23.8199   23.9650 C   0  0  0  0  0  0  0  0  0  0  0  0
  -26.6342  -16.1988   20.9595 N   0  0  0  0  0  0  0  0  0  0  0  0
  -27.1602  -17.3796   21.3270 N   0  0  0  0  0  0  0  0  0  0  0  0
  -23.0348  -26.3662   21.5158 N   0  0  0  0  0  0  0  0  0  0  0  0
  -29.8094  -18.9139   19.0283 N   0  0  0  0  0  0  0  0  0  0  0  0
  -26.7239  -19.3260   22.6044 N   0  0  0  0  0  0  0  0  0  0  0  0
  -22.9952  -16.8440   23.1810 N   0  0  0  0  0  0  0  0  0  0  0  0
  -31.3680  -28.8264   21.1772 N   0  0  0  0  0  0  0  0  0  0  0  0
  -21.4143  -29.4051   22.4480 N   0  0  0  0  0  0  0  0  0  0  0  0
  -22.5913  -23.0109   21.5736 N   0  0  0  0  0  0  0  0  0  0  0  0
  -29.7097  -21.3015   19.1382 N   0  0  0  0  0  0  0  0  0  0  0  0
  -23.8509  -21.2182   18.6982 N   0  3  0  0  0  0  0  0  0  0  0  0
  -24.0101  -18.8306   23.7120 O   0  0  0  0  0  0  0  0  0  0  0  0
  -32.8885  -27.9990   19.6879 O   0  0  0  0  0  0  0  0  0  0  0  0
  -23.3998  -28.4143   23.1541 O   0  0  0  0  0  0  0  0  0  0  0  0
  -20.9591  -25.3517   21.8293 O   0  0  0  0  0  0  0  0  0  0  0  0
  -24.7874  -22.7080   20.8937 O   0  0  0  0  0  0  0  0  0  0  0  0
  -30.7804  -20.2229   17.3855 O   0  0  0  0  0  0  0  0  0  0  0  0
  -22.0077  -11.8234   20.9779 O   0  0  0  0  0  0  0  0  0  0  0  0
  -28.7893  -28.1750   20.2249 O   0  0  0  0  0  0  0  0  0  1  0  0
  -24.1778   -6.7762   21.4478 F   0  0  0  0  0  0  0  0  0  0  0  0
  -24.0114  -10.9766   19.2719 F   0  0  0  0  0  0  0  0  0  0  0  0
  1  2  1  0  0  0  0
  1  6  2  0  0  0  0
  2  7  2  0  0  0  0
  3 10  2  0  0  0  0
  3 18  1  0  0  0  0
  4 11  1  0  0  0  0
  4 18  2  0  0  0  0
  5  9  2  0  0  0  0
  5 19  1  0  0  0  0
  6 21  1  0  0  0  0
  7 23  1  0  0  0  0
  8 12  2  0  0  0  0
  8 22  1  0  0  0  0
  9 25  1  0  0  0  0
 10 27  1  0  0  0  0
 11 27  2  0  0  0  0
 12 28  1  0  0  0  0
 13 14  2  0  0  0  0
 13 29  1  0  0  0  0
 14 30  1  0  0  0  0
 15 19  2  0  0  0  0
 15 26  1  0  0  0  0
 16 24  1  0  0  0  0
 16 28  2  0  0  0  0
 17 30  2  0  0  0  0
 17 31  1  0  0  0  0
 18 32  1  0  0  0  0
 19 34  1  0  0  0  0
 20 32  1  0  0  0  0
 20 33  2  0  0  0  0
 20 35  1  0  0  0  0
 21 23  2  0  0  0  0
 21 42  1  0  0  0  0
 22 24  2  0  0  0  0
 22 43  1  0  0  0  0
 23 51  1  0  0  0  0
 24 44  1  0  0  0  0
 25 26  2  0  0  0  0
 25 54  1  0  0  0  0
 26 74  1  0  0  0  0
 27 82  1  0  0  0  0
 28 83  1  0  0  0  0
 29 31  2  0  0  0  0
 29 82  1  0  0  0  0
 30 84  1  0  0  0  0
 31 85  1  0  0  0  0
 32 65  2  0  0  0  0
 33 66  1  0  0  0  0
 33 69  1  0  0  0  0
 34 36  2  0  0  0  0
 35 70  1  0  0  0  0
 35 76  2  0  0  0  0
 36 37  1  0  0  0  0
 36 61  1  0  0  0  0
 37 71  1  0  0  0  0
 37 77  2  0  0  0  0
 38 52  1  0  0  0  0
 38 72  1  0  0  0  0
 38 78  2  0  0  0  0
 39 62  1  0  0  0  0
 39 67  1  0  0  0  0
 39 79  2  0  0  0  0
 40 63  1  0  0  0  0
 40 73  1  0  0  0  0
 40 80  2  0  0  0  0
 41 68  1  0  0  0  0
 41 74  1  0  0  0  0
 41 81  2  0  0  0  0
 42 45  1  0  0  0  0
 43 52  1  0  0  0  0
 44 67  1  0  0  0  0
 45 47  1  0  0  0  0
 46 48  1  0  0  0  0
 46 49  1  0  0  0  0
 47 51  1  0  0  0  0
 48 53  1  0  0  0  0
 49 68  1  0  0  0  0
 50 53  1  0  0  0  0
 50 68  1  0  0  0  0
 51 72  1  0  0  0  0
 52 67  1  0  0  0  0
 53 66  1  0  0  0  0
 55 63  1  0  0  0  0
 56 64  1  0  0  0  0
 57 64  1  0  0  0  0
 58 64  1  0  0  0  0
 59 74  1  0  0  0  0
 60 75  1  0  0  0  0
 61 83  1  0  0  0  0
 62 64  1  0  0  0  0
 62 73  1  0  0  0  0
 63 75  1  0  0  0  0
 65 66  1  0  0  0  0
M  CHG  1  75   1
M  ISO  4  41 100  61 101  74 100  83 101
M  END
> <Batch ID>
0008

> <Smiles>
CNC(C)C(=O)NC(C(=O)N1Cc2cc([101O:1][101CH2:1]C(=Cc3ccc(C)c([100N:0](C)[100C:0](=O)N4CCCC(n5nc(-c6ccc(Oc7ccc(F)cc7F)cc6)c(C(N)=O)c5N)C4)c3)C(N)=O)ccc2CC1C(=O)NC1CCCc2ccccc21)C(C)(C)C

> <Shape>
0.239

> <Color>
0.078

> <Negative vol penalty>
0.000

$$$$

  -OEChem-04052315363D

 86 94  0     1  0  0  0  0  0999 V2000
  -20.8816  -25.4132   25.5073 C   0  0  0  0  0  0  0  0  0  0  0  0
  -21.8235  -25.2989   24.4898 C   0  0  0  0  0  0  0  0  0  0  0  0
  -24.1719  -16.4782   21.3833 C   0  0  0  0  0  0  0  0  0  0  0  0
  -22.7883  -15.8117   19.5182 C   0  0  0  0  0  0  0  0  0  0  0  0
  -19.8174  -26.3040   25.3738 C   0  0  0  0  0  0  0  0  0  0  0  0
  -21.7009  -26.0747   23.3376 C   0  0  0  0  0  0  0  0  0  0  0  0
  -26.0979  -28.1433   21.9117 C   0  0  0  0  0  0  0  0  0  0  0  0
  -30.4621  -16.6594   20.1014 C   0  0  0  0  0  0  0  0  0  0  0  0
  -30.1528  -17.9817   19.7829 C   0  0  0  0  0  0  0  0  0  0  0  0
  -23.4234  -17.6472   21.5208 C   0  0  0  0  0  0  0  0  0  0  0  0
  -22.0398  -16.9807   19.6558 C   0  0  0  0  0  0  0  0  0  0  0  0
  -27.0054  -27.3171   21.2503 C   0  0  0  0  0  0  0  0  0  0  0  0
  -23.2203  -20.6660   20.0143 C   0  0  0  0  0  0  0  0  0  0  0  0
  -23.9148  -21.8609   20.2029 C   0  0  0  0  0  0  0  0  0  0  0  0
  -26.3061  -28.2498   19.1384 C   0  0  0  0  0  0  0  0  0  0  0  0
  -30.7790  -16.1689   17.7570 C   0  0  0  0  0  0  0  0  0  0  0  0
  -22.7982  -22.1752   22.3222 C   0  0  0  0  0  0  0  0  0  0  0  0
  -23.8544  -15.5605   20.3819 C   0  0  0  0  0  0  0  0  0  0  0  0
  -24.3886  -13.1122   20.8594 C   0  0  0  0  0  0  0  0  0  0  0  0
  -19.6871  -27.0981   24.2235 C   0  0  0  0  0  0  0  0  0  0  0  0
  -25.2785  -29.0226   21.1894 C   0  0  0  0  0  0  0  0  0  0  0  0
  -20.6332  -26.9760   23.1880 C   0  0  0  0  0  0  0  0  0  0  0  0
  -25.3908  -29.0880   19.7932 C   0  0  0  0  0  0  0  0  0  0  0  0
  -30.7752  -15.7530   19.0885 C   0  0  0  0  0  0  0  0  0  0  0  0
  -30.1565  -18.3976   18.4515 C   0  0  0  0  0  0  0  0  0  0  0  0
  -22.3574  -17.8984   20.6571 C   0  0  0  0  0  0  0  0  0  0  0  0
  -27.1076  -27.3682   19.8632 C   0  0  0  0  0  0  0  0  0  0  0  0
  -22.3147  -20.2257   20.9796 C   0  0  0  0  0  0  0  0  0  0  0  0
  -23.7038  -22.6155   21.3569 C   0  0  0  0  0  0  0  0  0  0  0  0
  -22.1037  -20.9803   22.1336 C   0  0  0  0  0  0  0  0  0  0  0  0
  -30.4696  -17.4912   17.4385 C   0  0  0  0  0  0  0  0  0  0  0  0
  -24.6275  -14.3531   20.2389 C   0  0  0  0  0  0  0  0  0  0  0  0
  -25.3965  -12.2994   20.4010 C   0  0  0  0  0  0  0  0  0  0  0  0
  -23.3485  -12.7285   21.7686 C   0  0  0  0  0  0  0  0  0  0  0  0
  -22.1418  -29.3526   20.7945 C   0  0  0  0  0  0  0  0  0  0  0  0
  -23.0197  -32.0258   19.1802 C   0  0  0  0  0  0  0  0  0  0  0  0
  -29.5107  -20.7495   19.0654 C   0  0  0  0  0  0  0  0  0  0  0  0
  -25.4274  -33.6921   17.4272 C   0  0  0  0  0  0  0  0  0  0  0  0
  -30.8125  -13.3298   18.5243 C   0  0  0  0  0  0  0  0  0  0  0  0
  -18.4937  -28.0124   24.1040 C   0  0  0  0  0  0  0  0  0  0  0  0
  -24.3236  -29.9264   21.9199 C   0  0  0  0  0  0  0  0  0  0  0  0
  -24.5483  -30.0293   18.9731 C   0  0  0  0  0  0  0  0  0  0  0  0
  -18.6436  -29.0702   23.0136 C   0  0  0  0  0  0  0  0  0  0  0  0
  -28.2907  -11.6597   16.6551 C   0  0  0  0  0  0  0  0  0  0  0  0
  -19.1617  -28.4390   21.7251 C   0  0  0  0  0  0  0  0  0  0  0  0
  -27.0309  -12.0541   17.4252 C   0  0  0  0  0  0  0  0  0  0  0  0
  -29.2846  -12.8171   16.5522 C   0  0  0  0  0  0  0  0  0  0  0  0
  -28.3795  -13.8167   18.6274 C   0  0  0  0  0  0  0  0  0  0  0  0
  -20.5483  -27.8184   21.9336 C   0  0  1  0  0  0  0  0  0  0  0  0
  -23.1745  -30.4152   21.0434 C   0  0  1  0  0  0  0  0  0  0  0  0
  -27.3873  -12.6556   18.7961 C   0  0  1  0  0  0  0  0  0  0  0  0
  -25.8383  -35.8426   16.2008 C   0  0  0  0  0  0  0  0  0  0  0  0
  -21.3636  -31.0002   16.8317 C   0  0  0  0  0  0  0  0  0  0  0  0
  -22.5524  -32.6447   15.3653 C   0  0  0  0  0  0  0  0  0  0  0  0
  -21.1522  -33.4542   17.2644 C   0  0  0  0  0  0  0  0  0  0  0  0
  -31.9407  -14.1267   20.5901 C   0  0  0  0  0  0  0  0  0  0  0  0
  -27.6255  -34.4509   19.2578 C   0  0  0  0  0  0  0  0  0  0  0  0
  -29.2360  -22.0615   18.3632 C   0  0  0  0  0  0  0  0  0  0  0  0
  -28.2887  -25.3044   19.8200 C   0  0  0  0  0  0  0  0  0  1  0  0
  -28.6317  -24.3018   18.7352 C   0  0  0  0  0  0  0  0  0  0  0  0
  -23.3708  -32.3419   17.7464 C   0  0  1  0  0  0  0  0  0  0  0  0
  -25.9467  -35.1147   17.5317 C   0  0  2  0  0  0  0  0  0  0  0  0
  -22.1244  -32.3410   16.8170 C   0  0  0  0  0  0  0  0  0  0  0  0
  -25.7029  -14.3350   19.4470 N   0  0  0  0  0  0  0  0  0  0  0  0
  -26.1487  -13.0729   19.5667 N   0  0  0  0  0  0  0  0  0  0  0  0
  -23.6250  -30.8882   19.7329 N   0  0  0  0  0  0  0  0  0  0  0  0
  -29.5626  -13.3846   17.8792 N   0  0  0  0  0  0  0  0  0  0  0  0
  -25.7038  -11.0058   20.6344 N   0  0  0  0  0  0  0  0  0  0  0  0
  -22.3941  -13.6872   22.1350 N   0  0  0  0  0  0  0  0  0  0  0  0
  -29.8388  -19.7459   18.1627 N   0  0  0  0  0  0  0  0  0  0  0  0
  -21.5661  -28.8472   21.9445 N   0  0  0  0  0  0  0  0  0  0  0  0
  -24.0953  -33.6079   17.7732 N   0  0  0  0  0  0  0  0  0  0  0  0
  -31.0961  -14.3843   19.4188 N   0  0  0  0  0  0  0  0  0  0  0  0
  -27.3764  -35.1147   17.9523 N   0  3  0  0  0  0  0  0  0  0  0  0
  -23.2774  -11.5744   22.2549 O   0  0  0  0  0  0  0  0  0  0  0  0
  -21.8852  -29.0172   19.6441 O   0  0  0  0  0  0  0  0  0  0  0  0
  -22.2427  -32.7650   19.7896 O   0  0  0  0  0  0  0  0  0  0  0  0
  -29.4254  -20.6671   20.2869 O   0  0  0  0  0  0  0  0  0  0  0  0
  -26.1319  -32.7504   17.0704 O   0  0  0  0  0  0  0  0  0  0  0  0
  -31.6033  -12.3975   18.3361 O   0  0  0  0  0  0  0  0  0  0  0  0
  -21.6266  -19.0389   20.7912 O   0  0  0  0  0  0  0  0  0  0  0  0
  -27.9921  -26.5623   19.2150 O   0  0  0  0  0  0  0  0  0  1  0  0
  -28.9020  -23.0413   19.3363 O   0  0  0  0  0  0  0  0  0  0  0  0
  -24.3719  -23.7621   21.5386 F   0  0  0  0  0  0  0  0  0  0  0  0
  -21.2359  -20.5619   23.0650 F   0  0  0  0  0  0  0  0  0  0  0  0
  -30.4861  -17.9648   15.7771 Cl  0  0  0  0  0  0  0  0  0  0  0  0
  1  2  1  0  0  0  0
  1  5  2  0  0  0  0
  2  6  2  0  0  0  0
  3 10  2  0  0  0  0
  3 18  1  0  0  0  0
  4 11  1  0  0  0  0
  4 18  2  0  0  0  0
  5 20  1  0  0  0  0
  6 22  1  0  0  0  0
  7 12  2  0  0  0  0
  7 21  1  0  0  0  0
  8  9  2  0  0  0  0
  8 24  1  0  0  0  0
  9 25  1  0  0  0  0
 10 26  1  0  0  0  0
 11 26  2  0  0  0  0
 12 27  1  0  0  0  0
 13 14  2  0  0  0  0
 13 28  1  0  0  0  0
 14 29  1  0  0  0  0
 15 23  1  0  0  0  0
 15 27  2  0  0  0  0
 16 24  2  0  0  0  0
 16 31  1  0  0  0  0
 17 29  2  0  0  0  0
 17 30  1  0  0  0  0
 18 32  1  0  0  0  0
 19 32  1  0  0  0  0
 19 33  2  0  0  0  0
 19 34  1  0  0  0  0
 20 22  2  0  0  0  0
 20 40  1  0  0  0  0
 21 23  2  0  0  0  0
 21 41  1  0  0  0  0
 22 49  1  0  0  0  0
 23 42  1  0  0  0  0
 24 73  1  0  0  0  0
 25 31  2  0  0  0  0
 25 70  1  0  0  0  0
 26 81  1  0  0  0  0
 27 82  1  0  0  0  0
 28 30  2  0  0  0  0
 28 81  1  0  0  0  0
 29 84  1  0  0  0  0
 30 85  1  0  0  0  0
 31 86  1  0  0  0  0
 32 64  2  0  0  0  0
 33 65  1  0  0  0  0
 33 68  1  0  0  0  0
 34 69  1  0  0  0  0
 34 75  2  0  0  0  0
 35 50  1  0  0  0  0
 35 71  1  0  0  0  0
 35 76  2  0  0  0  0
 36 61  1  0  0  0  0
 36 66  1  0  0  0  0
 36 77  2  0  0  0  0
 37 58  1  0  0  0  0
 37 70  1  0  0  0  0
 37 78  2  0  0  0  0
 38 62  1  0  0  0  0
 38 72  1  0  0  0  0
 38 79  2  0  0  0  0
 39 67  1  0  0  0  0
 39 73  1  0  0  0  0
 39 80  2  0  0  0  0
 40 43  1  0  0  0  0
 41 50  1  0  0  0  0
 42 66  1  0  0  0  0
 43 45  1  0  0  0  0
 44 46  1  0  0  0  0
 44 47  1  0  0  0  0
 45 49  1  0  0  0  0
 46 51  1  0  0  0  0
 47 67  1  0  0  0  0
 48 51  1  0  0  0  0
 48 67  1  0  0  0  0
 49 71  1  0  0  0  0
 50 66  1  0  0  0  0
 51 65  1  0  0  0  0
 52 62  1  0  0  0  0
 53 63  1  0  0  0  0
 54 63  1  0  0  0  0
 55 63  1  0  0  0  0
 56 73  1  0  0  0  0
 57 74  1  0  0  0  0
 58 83  1  0  0  0  0
 59 60  1  0  0  0  0
 59 82  1  0  0  0  0
 60 83  1  0  0  0  0
 61 63  1  0  0  0  0
 61 72  1  0  0  0  0
 62 74  1  0  0  0  0
 64 65  1  0  0  0  0
M  CHG  1  74   1
M  ISO  4  39 100  59 101  73 100  82 101
M  END
> <Batch ID>
0008

> <Smiles>
CNC(C)C(=O)NC(C(=O)N1Cc2cc([101O:1][101CH2:1]COCC(=O)Nc3ccc([100N:0](C)[100C:0](=O)N4CCCC(n5nc(-c6ccc(Oc7ccc(F)cc7F)cc6)c(C(N)=O)c5N)C4)cc3Cl)ccc2CC1C(=O)NC1CCCc2ccccc21)C(C)(C)C

> <Shape>
0.235

> <Color>
0.131

> <Negative vol penalty>
0.000

$$$$

  -OEChem-04052315363D

 83 91  0     1  0  0  0  0  0999 V2000
  -30.4854  -33.4038   23.1682 C   0  0  0  0  0  0  0  0  0  0  0  0
  -30.6958  -32.1177   22.6813 C   0  0  0  0  0  0  0  0  0  0  0  0
  -22.8705  -10.4506   19.8604 C   0  0  0  0  0  0  0  0  0  0  0  0
  -23.8340   -9.7998   21.9782 C   0  0  0  0  0  0  0  0  0  0  0  0
  -29.2442  -33.7525   23.6990 C   0  0  0  0  0  0  0  0  0  0  0  0
  -29.6655  -31.1792   22.7259 C   0  0  0  0  0  0  0  0  0  0  0  0
  -28.5180  -26.7743   18.6288 C   0  0  0  0  0  0  0  0  0  0  0  0
  -30.4087  -17.8858   22.1195 C   0  0  0  0  0  0  0  0  0  0  0  0
  -32.4636  -17.6144   20.8782 C   0  0  0  0  0  0  0  0  0  0  0  0
  -30.2296  -19.1453   21.5475 C   0  0  0  0  0  0  0  0  0  0  0  0
  -32.2844  -18.8738   20.3061 C   0  0  0  0  0  0  0  0  0  0  0  0
  -21.9895   -9.3714   19.9295 C   0  0  0  0  0  0  0  0  0  0  0  0
  -22.9529   -8.7206   22.0474 C   0  0  0  0  0  0  0  0  0  0  0  0
  -28.8255  -25.4147   18.6024 C   0  0  0  0  0  0  0  0  0  0  0  0
  -19.7124   -8.2006   22.8533 C   0  0  0  0  0  0  0  0  0  0  0  0
  -19.0708   -7.9667   24.0695 C   0  0  0  0  0  0  0  0  0  0  0  0
  -26.6391  -24.9091   19.4875 C   0  0  0  0  0  0  0  0  0  0  0  0
  -20.0724   -5.7706   24.1756 C   0  0  0  0  0  0  0  0  0  0  0  0
  -23.7928  -10.6647   20.8847 C   0  0  0  0  0  0  0  0  0  0  0  0
  -24.4951  -13.0803   21.3085 C   0  0  0  0  0  0  0  0  0  0  0  0
  -28.1951  -32.8207   23.7413 C   0  0  0  0  0  0  0  0  0  0  0  0
  -27.2706  -27.2130   19.0958 C   0  0  0  0  0  0  0  0  0  0  0  0
  -28.4095  -31.5154   23.2590 C   0  0  0  0  0  0  0  0  0  0  0  0
  -26.3173  -26.2747   19.5164 C   0  0  0  0  0  0  0  0  0  0  0  0
  -31.5258  -17.1204   21.7849 C   0  0  0  0  0  0  0  0  0  0  0  0
  -31.1673  -19.6393   20.6408 C   0  0  0  0  0  0  0  0  0  0  0  0
  -22.0307   -8.5065   21.0231 C   0  0  0  0  0  0  0  0  0  0  0  0
  -27.8871  -24.4821   19.0345 C   0  0  0  0  0  0  0  0  0  0  0  0
  -20.5340   -7.2194   22.2982 C   0  0  0  0  0  0  0  0  0  0  0  0
  -19.2508   -6.7517   24.7307 C   0  0  0  0  0  0  0  0  0  0  0  0
  -20.7140   -6.0045   22.9593 C   0  0  0  0  0  0  0  0  0  0  0  0
  -24.7036  -11.7790   20.8136 C   0  0  0  0  0  0  0  0  0  0  0  0
  -25.6481  -13.7566   20.9927 C   0  0  0  0  0  0  0  0  0  0  0  0
  -23.3606  -13.6287   21.9925 C   0  0  0  0  0  0  0  0  0  0  0  0
  -26.2946  -29.0476   21.5011 C   0  0  0  0  0  0  0  0  0  0  0  0
  -23.3944  -28.6720   20.0976 C   0  0  0  0  0  0  0  0  0  0  0  0
  -29.6695  -21.4293   19.8495 C   0  0  0  0  0  0  0  0  0  0  0  0
  -21.3735  -26.8069   18.0767 C   0  0  0  0  0  0  0  0  0  0  0  0
  -31.2158  -14.0185   20.7153 C   0  0  0  0  0  0  0  0  0  0  0  0
  -26.8855  -33.2298   24.3676 C   0  0  0  0  0  0  0  0  0  0  0  0
  -26.9446  -28.6813   19.0929 C   0  0  0  0  0  0  0  0  0  0  0  0
  -24.9563  -26.6927   20.0078 C   0  0  0  0  0  0  0  0  0  0  0  0
  -25.7309  -32.2882   24.0353 C   0  0  0  0  0  0  0  0  0  0  0  0
  -29.5169  -12.4526   18.0064 C   0  0  0  0  0  0  0  0  0  0  0  0
  -26.1583  -30.8351   24.2156 C   0  0  0  0  0  0  0  0  0  0  0  0
  -28.0986  -12.2396   18.5383 C   0  0  0  0  0  0  0  0  0  0  0  0
  -30.5649  -12.2571   19.0998 C   0  0  0  0  0  0  0  0  0  0  0  0
  -28.9317  -12.8516   20.8470 C   0  0  0  0  0  0  0  0  0  0  0  0
  -27.3089  -30.4767   23.2673 C   0  0  1  0  0  0  0  0  0  0  0  0
  -25.8330  -29.0485   20.0712 C   0  0  1  0  0  0  0  0  0  0  0  0
  -27.8366  -13.0928   19.7939 C   0  0  2  0  0  0  0  0  0  0  0  0
  -19.0436  -26.7339   17.1474 C   0  0  0  0  0  0  0  0  0  0  0  0
  -22.3480  -27.7224   22.8019 C   0  0  0  0  0  0  0  0  0  0  0  0
  -20.3489  -26.7857   21.6212 C   0  0  0  0  0  0  0  0  0  0  0  0
  -20.7970  -29.2388   21.5572 C   0  0  0  0  0  0  0  0  0  0  0  0
  -32.1656  -21.7329   19.6659 C   0  0  0  0  0  0  0  0  0  0  0  0
  -22.3556  -26.9677   15.2895 C   0  0  0  0  0  0  0  0  0  0  0  0
  -31.7173  -15.7738   22.3966 C   0  0  0  0  0  0  0  0  0  0  0  0
  -29.5544  -22.7928   19.1833 C   0  0  0  0  0  0  0  0  0  1  0  0
  -22.2677  -27.6749   20.2217 C   0  0  1  0  0  0  0  0  0  0  0  0
  -20.4743  -27.1948   16.9167 C   0  0  2  0  0  0  0  0  0  0  0  0
  -21.4667  -27.8474   21.5431 C   0  0  0  0  0  0  0  0  0  0  0  0
  -25.8952  -11.6349   20.2278 N   0  0  0  0  0  0  0  0  0  0  0  0
  -26.4459  -12.8545   20.3525 N   0  0  0  0  0  0  0  0  0  0  0  0
  -24.6873  -28.1401   19.9918 N   0  0  0  0  0  0  0  0  0  0  0  0
  -30.2593  -13.0953   20.2616 N   0  0  0  0  0  0  0  0  0  0  0  0
  -26.0471  -15.0289   21.2030 N   0  0  0  0  0  0  0  0  0  0  0  0
  -22.2603  -12.7955   22.2362 N   0  0  0  0  0  0  0  0  0  0  0  0
  -26.8094  -30.2572   21.9269 N   0  0  0  0  0  0  0  0  0  0  0  0
  -21.4633  -27.8153   19.0127 N   0  0  0  0  0  0  0  0  0  0  0  0
  -30.8434  -14.7777   21.8179 N   0  0  0  0  0  0  0  0  0  0  0  0
  -30.9813  -20.9475   20.0462 N   0  0  0  0  0  0  0  0  0  0  0  0
  -20.9676  -26.5813   15.6513 N   0  3  0  0  0  0  0  0  0  0  0  0
  -23.3171  -14.8267   22.3618 O   0  0  0  0  0  0  0  0  0  0  0  0
  -26.1900  -28.0255   22.1691 O   0  0  0  0  0  0  0  0  0  0  0  0
  -23.1361  -29.8782   20.0874 O   0  0  0  0  0  0  0  0  0  0  0  0
  -28.6361  -20.8239   20.1447 O   0  0  0  0  0  0  0  0  0  0  0  0
  -21.9366  -25.7167   18.1473 O   0  0  0  0  0  0  0  0  0  0  0  0
  -32.3178  -14.1598   20.1744 O   0  0  0  0  0  0  0  0  0  0  0  0
  -21.1709   -7.4535   21.0910 O   0  0  0  0  0  0  0  0  0  0  0  0
  -28.1849  -23.1544   19.0103 O   0  0  0  0  0  0  0  0  0  1  0  0
  -18.6358   -6.5279   25.8994 F   0  0  0  0  0  0  0  0  0  0  0  0
  -21.5030   -5.0586   22.4315 F   0  0  0  0  0  0  0  0  0  0  0  0
  1  2  1  0  0  0  0
  1  5  2  0  0  0  0
  2  6  2  0  0  0  0
  3 12  2  0  0  0  0
  3 19  1  0  0  0  0
  4 13  1  0  0  0  0
  4 19  2  0  0  0  0
  5 21  1  0  0  0  0
  6 23  1  0  0  0  0
  7 14  2  0  0  0  0
  7 22  1  0  0  0  0
  8 10  2  0  0  0  0
  8 25  1  0  0  0  0
  9 11  1  0  0  0  0
  9 25  2  0  0  0  0
 10 26  1  0  0  0  0
 11 26  2  0  0  0  0
 12 27  1  0  0  0  0
 13 27  2  0  0  0  0
 14 28  1  0  0  0  0
 15 16  2  0  0  0  0
 15 29  1  0  0  0  0
 16 30  1  0  0  0  0
 17 24  1  0  0  0  0
 17 28  2  0  0  0  0
 18 30  2  0  0  0  0
 18 31  1  0  0  0  0
 19 32  1  0  0  0  0
 20 32  1  0  0  0  0
 20 33  2  0  0  0  0
 20 34  1  0  0  0  0
 21 23  2  0  0  0  0
 21 40  1  0  0  0  0
 22 24  2  0  0  0  0
 22 41  1  0  0  0  0
 23 49  1  0  0  0  0
 24 42  1  0  0  0  0
 25 58  1  0  0  0  0
 26 72  1  0  0  0  0
 27 80  1  0  0  0  0
 28 81  1  0  0  0  0
 29 31  2  0  0  0  0
 29 80  1  0  0  0  0
 30 82  1  0  0  0  0
 31 83  1  0  0  0  0
 32 63  2  0  0  0  0
 33 64  1  0  0  0  0
 33 67  1  0  0  0  0
 34 68  1  0  0  0  0
 34 74  2  0  0  0  0
 35 50  1  0  0  0  0
 35 69  1  0  0  0  0
 35 75  2  0  0  0  0
 36 60  1  0  0  0  0
 36 65  1  0  0  0  0
 36 76  2  0  0  0  0
 37 59  1  0  0  0  0
 37 72  1  0  0  0  0
 37 77  2  0  0  0  0
 38 61  1  0  0  0  0
 38 70  1  0  0  0  0
 38 78  2  0  0  0  0
 39 66  1  0  0  0  0
 39 71  1  0  0  0  0
 39 79  2  0  0  0  0
 40 43  1  0  0  0  0
 41 50  1  0  0  0  0
 42 65  1  0  0  0  0
 43 45  1  0  0  0  0
 44 46  1  0  0  0  0
 44 47  1  0  0  0  0
 45 49  1  0  0  0  0
 46 51  1  0  0  0  0
 47 66  1  0  0  0  0
 48 51  1  0  0  0  0
 48 66  1  0  0  0  0
 49 69  1  0  0  0  0
 50 65  1  0  0  0  0
 51 64  1  0  0  0  0
 52 61  1  0  0  0  0
 53 62  1  0  0  0  0
 54 62  1  0  0  0  0
 55 62  1  0  0  0  0
 56 72  1  0  0  0  0
 57 73  1  0  0  0  0
 58 71  1  0  0  0  0
 59 81  1  0  0  0  0
 60 62  1  0  0  0  0
 60 70  1  0  0  0  0
 61 73  1  0  0  0  0
 63 64  1  0  0  0  0
M  CHG  1  73   1
M  ISO  4  39 100  59 101  71 100  81 101
M  END
> <Batch ID>
0008

> <Smiles>
CNC(C)C(=O)NC(C(=O)N1Cc2cc([101O:1][101CH2:1]C(=O)N(C)c3ccc(C[100NH:0][100C:0](=O)N4CCCC(n5nc(-c6ccc(Oc7ccc(F)cc7F)cc6)c(C(N)=O)c5N)C4)cc3)ccc2CC1C(=O)NC1CCCc2ccccc21)C(C)(C)C

> <Shape>
0.336

> <Color>
0.166

> <Negative vol penalty>
0.000

$$$$

  -OEChem-04052315363D

 86 94  0     1  0  0  0  0  0999 V2000
  -31.5223  -34.6949   21.4792 C   0  0  0  0  0  0  0  0  0  0  0  0
  -31.2406  -33.4060   21.0379 C   0  0  0  0  0  0  0  0  0  0  0  0
  -25.1662   -8.1062   21.6160 C   0  0  0  0  0  0  0  0  0  0  0  0
  -24.0572  -10.2267   21.9487 C   0  0  0  0  0  0  0  0  0  0  0  0
  -30.8730  -35.2030   22.6035 C   0  0  0  0  0  0  0  0  0  0  0  0
  -30.3100  -32.6240   21.7213 C   0  0  0  0  0  0  0  0  0  0  0  0
  -26.4392  -28.5452   19.2954 C   0  0  0  0  0  0  0  0  0  0  0  0
  -23.9309   -7.4585   21.6264 C   0  0  0  0  0  0  0  0  0  0  0  0
  -22.8218   -9.5790   21.9591 C   0  0  0  0  0  0  0  0  0  0  0  0
  -26.4910  -27.1568   19.1792 C   0  0  0  0  0  0  0  0  0  0  0  0
  -21.6784   -6.4284   23.9264 C   0  0  0  0  0  0  0  0  0  0  0  0
  -21.5675   -5.2580   24.6770 C   0  0  0  0  0  0  0  0  0  0  0  0
  -25.1693  -26.9455   21.1861 C   0  0  0  0  0  0  0  0  0  0  0  0
  -20.9836   -4.0318   22.6789 C   0  0  0  0  0  0  0  0  0  0  0  0
  -25.2293   -9.4903   21.7772 C   0  0  0  0  0  0  0  0  0  0  0  0
  -27.5837   -9.9475   22.6464 C   0  0  0  0  0  0  0  0  0  0  0  0
  -29.9269  -34.4304   23.2954 C   0  0  0  0  0  0  0  0  0  0  0  0
  -25.7601  -29.1450   20.3657 C   0  0  0  0  0  0  0  0  0  0  0  0
  -29.6484  -33.1218   22.8567 C   0  0  0  0  0  0  0  0  0  0  0  0
  -25.1082  -28.3417   21.3122 C   0  0  0  0  0  0  0  0  0  0  0  0
  -22.7587   -8.1948   21.7980 C   0  0  0  0  0  0  0  0  0  0  0  0
  -25.8584  -26.3567   20.1261 C   0  0  0  0  0  0  0  0  0  0  0  0
  -21.4419   -6.4005   22.5519 C   0  0  0  0  0  0  0  0  0  0  0  0
  -21.2202   -4.0597   24.0533 C   0  0  0  0  0  0  0  0  0  0  0  0
  -21.0945   -5.2022   21.9282 C   0  0  0  0  0  0  0  0  0  0  0  0
  -26.5051  -10.1599   21.7671 C   0  0  0  0  0  0  0  0  0  0  0  0
  -28.5522  -10.8229   22.2198 C   0  0  0  0  0  0  0  0  0  0  0  0
  -27.6998   -9.0398   23.7502 C   0  0  0  0  0  0  0  0  0  0  0  0
  -27.9545  -17.5244   21.1112 C   0  0  0  0  0  0  0  0  0  0  0  0
  -26.6016  -31.0328   22.7806 C   0  0  0  0  0  0  0  0  0  0  0  0
  -27.2818  -22.5133   20.2633 C   0  0  0  0  0  0  0  0  0  0  0  0
  -23.4038  -31.1162   23.3187 C   0  0  0  0  0  0  0  0  0  0  0  0
  -20.0423  -30.5646   23.5258 C   0  0  0  0  0  0  0  0  0  0  0  0
  -28.3923  -15.9689   19.2591 C   0  0  0  0  0  0  0  0  0  0  0  0
  -29.2854  -35.0055   24.5333 C   0  0  0  0  0  0  0  0  0  0  0  0
  -25.6909  -30.6444   20.4621 C   0  0  0  0  0  0  0  0  0  0  0  0
  -24.3487  -28.9367   22.4688 C   0  0  0  0  0  0  0  0  0  0  0  0
  -28.0372  -34.2488   24.9801 C   0  0  0  0  0  0  0  0  0  0  0  0
  -30.1268  -13.0614   18.3043 C   0  0  0  0  0  0  0  0  0  0  0  0
  -28.2923  -32.7449   24.9697 C   0  0  0  0  0  0  0  0  0  0  0  0
  -29.4938  -11.9608   19.1551 C   0  0  0  0  0  0  0  0  0  0  0  0
  -27.9973  -19.1329   19.1951 C   0  0  0  0  0  0  0  0  0  0  0  0
  -29.1366  -19.6953   21.3970 C   0  0  0  0  0  0  0  0  0  0  0  0
  -29.0778  -14.0603   17.8286 C   0  0  0  0  0  0  0  0  0  0  0  0
  -26.8745  -20.1006   19.5715 C   0  0  0  0  0  0  0  0  0  0  0  0
  -27.9707  -20.6306   21.7127 C   0  0  0  0  0  0  0  0  0  0  0  0
  -27.6512  -13.5888   19.7965 C   0  0  0  0  0  0  0  0  0  0  0  0
  -28.6270  -32.2519   23.5568 C   0  0  1  0  0  0  0  0  0  0  0  0
  -28.7514  -18.5870   20.4120 C   0  0  0  0  0  0  0  0  0  0  0  0
  -25.4062  -31.1398   21.8766 C   0  0  1  0  0  0  0  0  0  0  0  0
  -28.6752  -12.5593   20.3125 C   0  0  1  0  0  0  0  0  0  0  0  0
  -18.0316  -31.1497   24.9086 C   0  0  0  0  0  0  0  0  0  0  0  0
  -27.0686  -14.7999   22.1080 C   0  0  0  0  0  0  0  0  0  0  0  0
  -25.2521  -16.1603   21.0250 C   0  0  0  0  0  0  0  0  0  0  0  0
  -24.3263  -29.1694   25.4794 C   0  0  0  0  0  0  0  0  0  0  0  0
  -21.9623  -29.0656   26.2972 C   0  0  0  0  0  0  0  0  0  0  0  0
  -23.2020  -31.2298   26.3427 C   0  0  0  0  0  0  0  0  0  0  0  0
  -18.6933  -31.8537   21.2286 C   0  0  0  0  0  0  0  0  0  0  0  0
  -26.6308  -22.9538   18.9766 C   0  0  0  0  0  0  0  0  0  0  0  0
  -26.6251  -24.4656   18.9047 C   0  0  0  0  0  0  0  0  0  1  0  0
  -22.4335  -30.2879   24.1258 C   0  0  1  0  0  0  0  0  0  0  0  0
  -18.8737  -31.5183   23.6971 C   0  0  2  0  0  0  0  0  0  0  0  0
  -26.5907  -15.4624   20.8220 C   0  0  0  0  0  0  0  0  0  0  0  0
  -22.9873  -29.9317   25.5343 C   0  0  0  0  0  0  0  0  0  0  0  0
  -26.7635  -11.0970   20.8510 N   0  0  0  0  0  0  0  0  0  0  0  0
  -28.0156  -11.4812   21.1525 N   0  0  0  0  0  0  0  0  0  0  0  0
  -24.3152  -30.4076   22.5230 N   0  0  0  0  0  0  0  0  0  0  0  0
  -27.3657  -21.1390   20.4823 N   0  0  0  0  0  0  0  0  0  0  0  0
  -28.3132  -14.5979   18.9544 N   0  0  0  0  0  0  0  0  0  0  0  0
  -29.8019  -11.0863   22.6572 N   0  0  0  0  0  0  0  0  0  0  0  0
  -26.6102   -8.2114   24.0515 N   0  0  0  0  0  0  0  0  0  0  0  0
  -27.4231  -32.1437   22.7608 N   0  0  0  0  0  0  0  0  0  0  0  0
  -21.1800  -31.0339   24.1478 N   0  0  0  0  0  0  0  0  0  0  0  0
  -27.5886  -16.4106   20.3322 N   0  0  0  0  0  0  0  0  0  0  0  0
  -17.9996  -31.4884   22.4905 N   0  3  0  0  0  0  0  0  0  0  0  0
  -28.7330   -8.9772   24.4588 O   0  0  0  0  0  0  0  0  0  0  0  0
  -27.6628  -17.6668   22.3012 O   0  0  0  0  0  0  0  0  0  0  0  0
  -26.7657  -30.0181   23.4478 O   0  0  0  0  0  0  0  0  0  0  0  0
  -27.7040  -23.3665   21.0480 O   0  0  0  0  0  0  0  0  0  0  0  0
  -23.3503  -32.3468   23.3860 O   0  0  0  0  0  0  0  0  0  0  0  0
  -19.9538  -29.5072   22.9057 O   0  0  0  0  0  0  0  0  0  0  0  0
  -29.0892  -16.7576   18.6105 O   0  0  0  0  0  0  0  0  0  0  0  0
  -21.5531   -7.5632   21.8080 O   0  0  0  0  0  0  0  0  0  0  0  0
  -25.9084  -24.9919   20.0147 O   0  0  0  0  0  0  0  0  0  1  0  0
  -21.1152   -2.9355   24.7740 F   0  0  0  0  0  0  0  0  0  0  0  0
  -20.8672   -5.1690   20.6080 F   0  0  0  0  0  0  0  0  0  0  0  0
  1  2  1  0  0  0  0
  1  5  2  0  0  0  0
  2  6  2  0  0  0  0
  3  8  2  0  0  0  0
  3 15  1  0  0  0  0
  4  9  1  0  0  0  0
  4 15  2  0  0  0  0
  5 17  1  0  0  0  0
  6 19  1  0  0  0  0
  7 10  2  0  0  0  0
  7 18  1  0  0  0  0
  8 21  1  0  0  0  0
  9 21  2  0  0  0  0
 10 22  1  0  0  0  0
 11 12  2  0  0  0  0
 11 23  1  0  0  0  0
 12 24  1  0  0  0  0
 13 20  1  0  0  0  0
 13 22  2  0  0  0  0
 14 24  2  0  0  0  0
 14 25  1  0  0  0  0
 15 26  1  0  0  0  0
 16 26  1  0  0  0  0
 16 27  2  0  0  0  0
 16 28  1  0  0  0  0
 17 19  2  0  0  0  0
 17 35  1  0  0  0  0
 18 20  2  0  0  0  0
 18 36  1  0  0  0  0
 19 48  1  0  0  0  0
 20 37  1  0  0  0  0
 21 83  1  0  0  0  0
 22 84  1  0  0  0  0
 23 25  2  0  0  0  0
 23 83  1  0  0  0  0
 24 85  1  0  0  0  0
 25 86  1  0  0  0  0
 26 65  2  0  0  0  0
 27 66  1  0  0  0  0
 27 70  1  0  0  0  0
 28 71  1  0  0  0  0
 28 76  2  0  0  0  0
 29 49  1  0  0  0  0
 29 74  1  0  0  0  0
 29 77  2  0  0  0  0
 30 50  1  0  0  0  0
 30 72  1  0  0  0  0
 30 78  2  0  0  0  0
 31 59  1  0  0  0  0
 31 68  1  0  0  0  0
 31 79  2  0  0  0  0
 32 61  1  0  0  0  0
 32 67  1  0  0  0  0
 32 80  2  0  0  0  0
 33 62  1  0  0  0  0
 33 73  1  0  0  0  0
 33 81  2  0  0  0  0
 34 69  1  0  0  0  0
 34 74  1  0  0  0  0
 34 82  2  0  0  0  0
 35 38  1  0  0  0  0
 36 50  1  0  0  0  0
 37 67  1  0  0  0  0
 38 40  1  0  0  0  0
 39 41  1  0  0  0  0
 39 44  1  0  0  0  0
 40 48  1  0  0  0  0
 41 51  1  0  0  0  0
 42 45  1  0  0  0  0
 42 49  1  0  0  0  0
 43 46  1  0  0  0  0
 43 49  1  0  0  0  0
 44 69  1  0  0  0  0
 45 68  1  0  0  0  0
 46 68  1  0  0  0  0
 47 51  1  0  0  0  0
 47 69  1  0  0  0  0
 48 72  1  0  0  0  0
 50 67  1  0  0  0  0
 51 66  1  0  0  0  0
 52 62  1  0  0  0  0
 53 63  1  0  0  0  0
 54 63  1  0  0  0  0
 55 64  1  0  0  0  0
 56 64  1  0  0  0  0
 57 64  1  0  0  0  0
 58 75  1  0  0  0  0
 59 60  1  0  0  0  0
 60 84  1  0  0  0  0
 61 64  1  0  0  0  0
 61 73  1  0  0  0  0
 62 75  1  0  0  0  0
 63 74  1  0  0  0  0
 65 66  1  0  0  0  0
M  CHG  1  75   1
M  ISO  4  34 100  60 101  74 100  84 101
M  END
> <Batch ID>
0008

> <Smiles>
CNC(C)C(=O)NC(C(=O)N1Cc2cc([101O:1][101CH2:1]CC(=O)N3CCC(C(=O)[100N:0](C(C)C)[100C:0](=O)N4CCCC(n5nc(-c6ccc(Oc7ccc(F)cc7F)cc6)c(C(N)=O)c5N)C4)CC3)ccc2CC1C(=O)NC1CCCc2ccccc21)C(C)(C)C

> <Shape>
0.278

> <Color>
0.092

> <Negative vol penalty>
0.000

$$$$

  -OEChem-04052315363D

 84 92  0     1  0  0  0  0  0999 V2000
  -29.1268  -26.0692   28.8037 C   0  0  0  0  0  0  0  0  0  0  0  0
  -29.7985  -24.8646   28.9858 C   0  0  0  0  0  0  0  0  0  0  0  0
  -23.1940   -9.8038   19.9342 C   0  0  0  0  0  0  0  0  0  0  0  0
  -23.5764   -9.9940   22.3122 C   0  0  0  0  0  0  0  0  0  0  0  0
  -28.1921  -26.1965   27.7771 C   0  0  0  0  0  0  0  0  0  0  0  0
  -29.5350  -23.7861   28.1421 C   0  0  0  0  0  0  0  0  0  0  0  0
  -33.5260  -19.5611   26.2116 C   0  0  0  0  0  0  0  0  0  0  0  0
  -32.7718  -11.9215   26.3372 C   0  0  0  0  0  0  0  0  0  0  0  0
  -22.4375   -8.6516   20.1480 C   0  0  0  0  0  0  0  0  0  0  0  0
  -22.8198   -8.8418   22.5260 C   0  0  0  0  0  0  0  0  0  0  0  0
  -33.8036  -18.2655   26.6454 C   0  0  0  0  0  0  0  0  0  0  0  0
  -23.2473   -5.4977   22.2704 C   0  0  0  0  0  0  0  0  0  0  0  0
  -31.4255  -12.2711   26.4418 C   0  0  0  0  0  0  0  0  0  0  0  0
  -23.7554   -4.5429   23.1512 C   0  0  0  0  0  0  0  0  0  0  0  0
  -32.3315  -17.3880   24.9478 C   0  0  0  0  0  0  0  0  0  0  0  0
  -32.6520  -12.1775   23.9378 C   0  0  0  0  0  0  0  0  0  0  0  0
  -21.8000   -4.7911   24.5483 C   0  0  0  0  0  0  0  0  0  0  0  0
  -23.7635  -10.4750   21.0163 C   0  0  0  0  0  0  0  0  0  0  0  0
  -24.0813  -12.9936   20.7647 C   0  0  0  0  0  0  0  0  0  0  0  0
  -27.9240  -25.1221   26.9142 C   0  0  0  0  0  0  0  0  0  0  0  0
  -32.6391  -19.7808   25.1478 C   0  0  0  0  0  0  0  0  0  0  0  0
  -28.5948  -23.8987   27.1038 C   0  0  0  0  0  0  0  0  0  0  0  0
  -32.0462  -18.6872   24.5007 C   0  0  0  0  0  0  0  0  0  0  0  0
  -33.3851  -11.8748   25.0852 C   0  0  0  0  0  0  0  0  0  0  0  0
  -31.3057  -12.5270   24.0423 C   0  0  0  0  0  0  0  0  0  0  0  0
  -22.2504   -8.1706   21.4439 C   0  0  0  0  0  0  0  0  0  0  0  0
  -33.2041  -17.1789   26.0154 C   0  0  0  0  0  0  0  0  0  0  0  0
  -22.0155   -6.0993   22.5286 C   0  0  0  0  0  0  0  0  0  0  0  0
  -23.0318   -4.1896   24.2901 C   0  0  0  0  0  0  0  0  0  0  0  0
  -30.6924  -12.5738   25.2943 C   0  0  0  0  0  0  0  0  0  0  0  0
  -21.2919   -5.7459   23.6676 C   0  0  0  0  0  0  0  0  0  0  0  0
  -24.5456  -11.6649   20.7961 C   0  0  0  0  0  0  0  0  0  0  0  0
  -25.2059  -13.7447   20.5247 C   0  0  0  0  0  0  0  0  0  0  0  0
  -22.7523  -13.5033   20.9372 C   0  0  0  0  0  0  0  0  0  0  0  0
  -29.8558  -21.2810   24.8212 C   0  0  0  0  0  0  0  0  0  0  0  0
  -35.6536  -12.4461   25.0335 C   0  0  0  0  0  0  0  0  0  0  0  0
  -30.2949  -20.5896   21.6825 C   0  0  0  0  0  0  0  0  0  0  0  0
  -31.7647  -18.5988   19.3324 C   0  0  0  0  0  0  0  0  0  0  0  0
  -31.0203  -12.8339   21.5582 C   0  0  0  0  0  0  0  0  0  0  0  0
  -26.8707  -25.2924   25.8483 C   0  0  0  0  0  0  0  0  0  0  0  0
  -32.3707  -21.1830   24.6745 C   0  0  0  0  0  0  0  0  0  0  0  0
  -31.1025  -18.8683   23.3409 C   0  0  0  0  0  0  0  0  0  0  0  0
  -26.9226  -24.2195   24.7637 C   0  0  0  0  0  0  0  0  0  0  0  0
  -29.4952  -13.4943   18.4094 C   0  0  0  0  0  0  0  0  0  0  0  0
  -27.0546  -22.8344   25.3889 C   0  0  0  0  0  0  0  0  0  0  0  0
  -28.0098  -13.2269   18.6629 C   0  0  0  0  0  0  0  0  0  0  0  0
  -30.3860  -12.5186   19.1764 C   0  0  0  0  0  0  0  0  0  0  0  0
  -28.6329  -12.1678   20.8713 C   0  0  0  0  0  0  0  0  0  0  0  0
  -28.3544  -22.7139   26.1936 C   0  0  1  0  0  0  0  0  0  0  0  0
  -31.0541  -21.3158   23.9154 C   0  0  1  0  0  0  0  0  0  0  0  0
  -27.6973  -13.1668   20.1710 C   0  0  2  0  0  0  0  0  0  0  0  0
  -37.1420  -12.1972   24.9331 C   0  0  0  0  0  0  0  0  0  0  0  0
  -31.9050  -18.2552   16.8506 C   0  0  0  0  0  0  0  0  0  0  0  0
  -27.5248  -19.3107   21.7055 C   0  0  0  0  0  0  0  0  0  0  0  0
  -28.1053  -18.1801   19.5484 C   0  0  0  0  0  0  0  0  0  0  0  0
  -28.0290  -20.6706   19.6682 C   0  0  0  0  0  0  0  0  0  0  0  0
  -34.6822  -19.0959   19.3116 C   0  0  0  0  0  0  0  0  0  0  0  0
  -35.1948  -13.8750   25.2656 C   0  0  0  0  0  0  0  0  0  0  0  0
  -35.1503  -14.2264   26.7491 C   0  0  0  0  0  0  0  0  0  0  0  0
  -34.7610  -15.6775   27.0042 C   0  0  0  0  0  0  0  0  0  1  0  0
  -29.9325  -19.4339   20.7815 C   0  0  1  0  0  0  0  0  0  0  0  0
  -32.5255  -18.9333   18.0621 C   0  0  2  0  0  0  0  0  0  0  0  0
  -28.4141  -19.3952   20.4490 C   0  0  0  0  0  0  0  0  0  0  0  0
  -25.8624  -11.5739   20.5922 N   0  0  0  0  0  0  0  0  0  0  0  0
  -34.7396  -11.5232   24.9805 N   0  0  0  0  0  0  0  0  0  0  0  0
  -26.2353  -12.8549   20.4303 N   0  0  0  0  0  0  0  0  0  0  0  0
  -30.8671  -20.2591   22.9191 N   0  0  0  0  0  0  0  0  0  0  0  0
  -30.0355  -12.5183   20.5984 N   0  0  0  0  0  0  0  0  0  0  0  0
  -25.4048  -15.0728   20.3872 N   0  0  0  0  0  0  0  0  0  0  0  0
  -21.7135  -12.5933   21.1762 N   0  0  0  0  0  0  0  0  0  0  0  0
  -30.5626  -12.8337   22.8754 N   0  0  0  0  0  0  0  0  0  0  0  0
  -29.4815  -22.5193   25.3069 N   0  0  0  0  0  0  0  0  0  0  0  0
  -30.7978  -19.5412   19.6118 N   0  0  0  0  0  0  0  0  0  0  0  0
  -33.9433  -18.4882   18.1750 N   0  3  0  0  0  0  0  0  0  0  0  0
  -22.4911  -14.7280   20.8646 O   0  0  0  0  0  0  0  0  0  0  0  0
  -29.3102  -20.2101   25.0605 O   0  0  0  0  0  0  0  0  0  0  0  0
  -30.0849  -21.7435   21.3002 O   0  0  0  0  0  0  0  0  0  0  0  0
  -32.0019  -17.5993   20.0072 O   0  0  0  0  0  0  0  0  0  0  0  0
  -32.1775  -13.1124   21.2334 O   0  0  0  0  0  0  0  0  0  0  0  0
  -21.5120   -7.0464   21.6528 O   0  0  0  0  0  0  0  0  0  0  0  0
  -33.4729  -15.9133   26.4372 O   0  0  0  0  0  0  0  0  0  1  0  0
  -23.5192   -3.2716   25.1350 F   0  0  0  0  0  0  0  0  0  0  0  0
  -29.3992  -12.9089   25.4069 F   0  0  0  0  0  0  0  0  0  0  0  0
  -20.1075   -6.3195   23.9203 F   0  0  0  0  0  0  0  0  0  0  0  0
  1  2  1  0  0  0  0
  1  5  2  0  0  0  0
  2  6  2  0  0  0  0
  3  9  2  0  0  0  0
  3 18  1  0  0  0  0
  4 10  1  0  0  0  0
  4 18  2  0  0  0  0
  5 20  1  0  0  0  0
  6 22  1  0  0  0  0
  7 11  2  0  0  0  0
  7 21  1  0  0  0  0
  8 13  2  0  0  0  0
  8 24  1  0  0  0  0
  9 26  1  0  0  0  0
 10 26  2  0  0  0  0
 11 27  1  0  0  0  0
 12 14  2  0  0  0  0
 12 28  1  0  0  0  0
 13 30  1  0  0  0  0
 14 29  1  0  0  0  0
 15 23  1  0  0  0  0
 15 27  2  0  0  0  0
 16 24  2  0  0  0  0
 16 25  1  0  0  0  0
 17 29  2  0  0  0  0
 17 31  1  0  0  0  0
 18 32  1  0  0  0  0
 19 32  1  0  0  0  0
 19 33  2  0  0  0  0
 19 34  1  0  0  0  0
 20 22  2  0  0  0  0
 20 40  1  0  0  0  0
 21 23  2  0  0  0  0
 21 41  1  0  0  0  0
 22 49  1  0  0  0  0
 23 42  1  0  0  0  0
 24 65  1  0  0  0  0
 25 30  2  0  0  0  0
 25 71  1  0  0  0  0
 26 80  1  0  0  0  0
 27 81  1  0  0  0  0
 28 31  2  0  0  0  0
 28 80  1  0  0  0  0
 29 82  1  0  0  0  0
 30 83  1  0  0  0  0
 31 84  1  0  0  0  0
 32 64  2  0  0  0  0
 33 66  1  0  0  0  0
 33 69  1  0  0  0  0
 34 70  1  0  0  0  0
 34 75  2  0  0  0  0
 35 50  1  0  0  0  0
 35 72  1  0  0  0  0
 35 76  2  0  0  0  0
 36 52  1  0  0  0  0
 36 58  1  0  0  0  0
 36 65  2  0  0  0  0
 37 61  1  0  0  0  0
 37 67  1  0  0  0  0
 37 77  2  0  0  0  0
 38 62  1  0  0  0  0
 38 73  1  0  0  0  0
 38 78  2  0  0  0  0
 39 68  1  0  0  0  0
 39 71  1  0  0  0  0
 39 79  2  0  0  0  0
 40 43  1  0  0  0  0
 41 50  1  0  0  0  0
 42 67  1  0  0  0  0
 43 45  1  0  0  0  0
 44 46  1  0  0  0  0
 44 47  1  0  0  0  0
 45 49  1  0  0  0  0
 46 51  1  0  0  0  0
 47 68  1  0  0  0  0
 48 51  1  0  0  0  0
 48 68  1  0  0  0  0
 49 72  1  0  0  0  0
 50 67  1  0  0  0  0
 51 66  1  0  0  0  0
 53 62  1  0  0  0  0
 54 63  1  0  0  0  0
 55 63  1  0  0  0  0
 56 63  1  0  0  0  0
 57 74  1  0  0  0  0
 58 59  1  0  0  0  0
 59 60  1  0  0  0  0
 60 81  1  0  0  0  0
 61 63  1  0  0  0  0
 61 73  1  0  0  0  0
 62 74  1  0  0  0  0
 64 66  1  0  0  0  0
M  CHG  1  74   1
M  ISO  4  39 100  60 101  71 100  81 101
M  END
> <Batch ID>
0008

> <Smiles>
CNC(C)C(=O)NC(C(=O)N1Cc2cc([101O:1][101CH2:1]CC=C(C)Nc3ccc(F)c([100NH:0][100C:0](=O)N4CCCC(n5nc(-c6ccc(Oc7ccc(F)cc7F)cc6)c(C(N)=O)c5N)C4)c3)ccc2CC1C(=O)NC1CCCc2ccccc21)C(C)(C)C

> <Shape>
0.179

> <Color>
0.188

> <Negative vol penalty>
0.000

$$$$

  -OEChem-04052315363D

 93101  0     1  0  0  0  0  0999 V2000
  -30.6962  -25.7801   17.2256 C   0  0  0  0  0  0  0  0  0  0  0  0
  -29.3158  -25.6663   17.3562 C   0  0  0  0  0  0  0  0  0  0  0  0
  -26.1162   -9.4988   21.7620 C   0  0  0  0  0  0  0  0  0  0  0  0
  -25.1511  -10.8452   23.5207 C   0  0  0  0  0  0  0  0  0  0  0  0
  -31.4514  -26.3207   18.2655 C   0  0  0  0  0  0  0  0  0  0  0  0
  -28.6900  -26.0921   18.5274 C   0  0  0  0  0  0  0  0  0  0  0  0
  -23.1506  -28.6573   19.0180 C   0  0  0  0  0  0  0  0  0  0  0  0
  -26.3395   -8.4675   22.6741 C   0  0  0  0  0  0  0  0  0  0  0  0
  -25.3743   -9.8138   24.4328 C   0  0  0  0  0  0  0  0  0  0  0  0
  -21.9027  -28.1369   19.3584 C   0  0  0  0  0  0  0  0  0  0  0  0
  -25.3612   -7.3979   27.1497 C   0  0  0  0  0  0  0  0  0  0  0  0
  -24.3289   -7.0754   28.0305 C   0  0  0  0  0  0  0  0  0  0  0  0
  -22.2344  -28.8493   21.6391 C   0  0  0  0  0  0  0  0  0  0  0  0
  -24.7644  -20.7529   19.6962 C   0  0  0  0  0  0  0  0  0  0  0  0
  -22.5896  -21.8008   19.7900 C   0  0  0  0  0  0  0  0  0  0  0  0
  -22.8940   -6.5543   26.1579 C   0  0  0  0  0  0  0  0  0  0  0  0
  -25.5220  -10.6878   22.1853 C   0  0  0  0  0  0  0  0  0  0  0  0
  -24.1428  -11.9590   20.4563 C   0  0  0  0  0  0  0  0  0  0  0  0
  -30.8334  -26.7622   19.4461 C   0  0  0  0  0  0  0  0  0  0  0  0
  -23.9557  -29.2689   19.9897 C   0  0  0  0  0  0  0  0  0  0  0  0
  -29.4378  -26.6378   19.5845 C   0  0  0  0  0  0  0  0  0  0  0  0
  -23.4910  -29.3789   21.3080 C   0  0  0  0  0  0  0  0  0  0  0  0
  -23.9805  -21.8993   19.8255 C   0  0  0  0  0  0  0  0  0  0  0  0
  -22.7665  -19.4093   19.4958 C   0  0  0  0  0  0  0  0  0  0  0  0
  -24.1574  -19.5079   19.5313 C   0  0  0  0  0  0  0  0  0  0  0  0
  -21.9826  -20.5558   19.6252 C   0  0  0  0  0  0  0  0  0  0  0  0
  -25.9685   -8.6249   24.0095 C   0  0  0  0  0  0  0  0  0  0  0  0
  -21.4457  -28.2303   20.6696 C   0  0  0  0  0  0  0  0  0  0  0  0
  -25.1599   -7.2988   25.7729 C   0  0  0  0  0  0  0  0  0  0  0  0
  -23.0953   -6.6535   27.5346 C   0  0  0  0  0  0  0  0  0  0  0  0
  -23.9263   -6.8769   25.2771 C   0  0  0  0  0  0  0  0  0  0  0  0
  -25.2916  -11.7538   21.2436 C   0  0  0  0  0  0  0  0  0  0  0  0
  -24.4179  -13.0966   19.7375 C   0  0  0  0  0  0  0  0  0  0  0  0
  -22.9349  -11.1902   20.3815 C   0  0  0  0  0  0  0  0  0  0  0  0
  -26.8272  -28.6792   21.2187 C   0  0  0  0  0  0  0  0  0  0  0  0
  -26.3337  -31.5092   22.7254 C   0  0  0  0  0  0  0  0  0  0  0  0
  -19.4525  -24.9165   21.5170 C   0  0  0  0  0  0  0  0  0  0  0  0
  -24.1112  -33.8208   23.8930 C   0  0  0  0  0  0  0  0  0  0  0  0
  -26.3665  -18.3026   19.4151 C   0  0  0  0  0  0  0  0  0  0  0  0
  -31.6968  -27.2960   20.5616 C   0  0  0  0  0  0  0  0  0  0  0  0
  -25.2879  -29.8491   19.6007 C   0  0  0  0  0  0  0  0  0  0  0  0
  -24.3082  -30.0441   22.3841 C   0  0  0  0  0  0  0  0  0  0  0  0
  -30.9148  -28.0690   21.6205 C   0  0  0  0  0  0  0  0  0  0  0  0
  -28.7425  -15.6631   19.1603 C   0  0  0  0  0  0  0  0  0  0  0  0
  -29.6610  -27.3003   22.0252 C   0  0  0  0  0  0  0  0  0  0  0  0
  -27.9620  -14.4276   19.6149 C   0  0  0  0  0  0  0  0  0  0  0  0
  -28.3498  -16.9065   19.9562 C   0  0  0  0  0  0  0  0  0  0  0  0
  -26.1294  -15.9574   20.4445 C   0  0  0  0  0  0  0  0  0  0  0  0
  -28.7196  -27.1113   20.8296 C   0  0  1  0  0  0  0  0  0  0  0  0
  -26.2443  -29.9930   20.7805 C   0  0  1  0  0  0  0  0  0  0  0  0
  -26.4438  -14.6933   19.6278 C   0  0  2  0  0  0  0  0  0  0  0  0
  -22.1141  -18.0731   19.3199 C   0  0  0  0  0  0  0  0  0  0  0  0
  -24.0055  -36.0111   25.1133 C   0  0  0  0  0  0  0  0  0  0  0  0
  -25.5525  -23.5760   18.7942 C   0  0  0  0  0  0  0  0  0  0  0  0
  -25.5097  -23.2629   21.2915 C   0  0  0  0  0  0  0  0  0  0  0  0
  -23.6492  -24.4425   20.1389 C   0  0  0  0  0  0  0  0  0  0  0  0
  -26.9293  -30.0726   25.3505 C   0  0  0  0  0  0  0  0  0  0  0  0
  -25.9000  -32.0068   26.5619 C   0  0  0  0  0  0  0  0  0  0  0  0
  -27.9333  -32.3551   25.1593 C   0  0  0  0  0  0  0  0  0  0  0  0
  -19.8794  -20.5941   18.3078 C   0  0  0  0  0  0  0  0  0  0  0  0
  -17.2874  -23.8702   22.2159 C   0  0  0  0  0  0  0  0  0  0  0  0
  -22.8008  -35.1649   21.6049 C   0  0  0  0  0  0  0  0  0  0  0  0
  -19.0397  -26.1210   22.3567 C   0  0  0  0  0  0  0  0  0  0  0  0
  -19.5462  -21.5697   21.5464 C   0  0  0  0  0  0  0  0  0  0  0  0
  -19.8070  -20.2714   20.7855 C   0  0  0  0  0  0  0  0  0  0  0  0
  -18.8069  -22.6260   20.7280 C   0  0  0  0  0  0  0  0  0  0  0  0
  -20.0693  -27.2438   22.3395 C   0  0  0  0  0  0  0  0  0  1  0  0
  -25.7096  -31.9289   24.0343 C   0  0  1  0  0  0  0  0  0  0  0  0
  -24.0628  -35.3317   23.7539 C   0  0  2  0  0  0  0  0  0  0  0  0
  -24.6295  -23.2305   20.0037 C   0  0  0  0  0  0  0  0  0  0  0  0
  -26.6032  -31.5765   25.2569 C   0  0  0  0  0  0  0  0  0  0  0  0
  -26.2269  -12.6861   21.0439 N   0  0  0  0  0  0  0  0  0  0  0  0
  -25.6663  -13.4882   20.1227 N   0  0  0  0  0  0  0  0  0  0  0  0
  -25.6066  -30.5903   21.9555 N   0  0  0  0  0  0  0  0  0  0  0  0
  -26.8981  -17.0972   19.9203 N   0  0  0  0  0  0  0  0  0  0  0  0
  -23.7113  -13.7902   18.8198 N   0  0  0  0  0  0  0  0  0  0  0  0
  -22.8173  -10.0504   21.1885 N   0  0  0  0  0  0  0  0  0  0  0  0
  -24.9732  -18.3567   19.4002 N   0  0  0  0  0  0  0  0  0  0  0  0
  -27.9922  -28.3333   20.5610 N   0  0  0  0  0  0  0  0  0  0  0  0
  -25.4072  -33.3503   23.9052 N   0  0  0  0  0  0  0  0  0  0  0  0
  -20.5799  -20.4774   19.5913 N   0  0  3  0  0  0  0  0  0  0  0  0
  -18.5506  -23.8470   21.4887 N   0  0  0  0  0  0  0  0  0  0  0  0
  -22.8619  -35.7418   22.9726 N   0  3  0  0  0  0  0  0  0  0  0  0
  -21.9946  -11.4954   19.6094 O   0  0  0  0  0  0  0  0  0  0  0  0
  -26.2627  -28.0284   22.0901 O   0  0  0  0  0  0  0  0  0  0  0  0
  -27.4228  -31.9848   22.3947 O   0  0  0  0  0  0  0  0  0  0  0  0
  -20.5256  -24.9146   20.9081 O   0  0  0  0  0  0  0  0  0  0  0  0
  -23.1004  -33.1278   23.9857 O   0  0  0  0  0  0  0  0  0  0  0  0
  -27.0934  -19.2085   18.9992 O   0  0  0  0  0  0  0  0  0  0  0  0
  -26.1861   -7.6186   24.8998 O   0  0  0  0  0  0  0  0  0  0  0  0
  -20.2284  -27.7226   21.0047 O   0  0  0  0  0  0  0  0  0  1  0  0
  -22.1045   -6.3423   28.3806 F   0  0  0  0  0  0  0  0  0  0  0  0
  -23.7274   -6.7785   23.9555 F   0  0  0  0  0  0  0  0  0  0  0  0
  1  2  1  0  0  0  0
  1  5  2  0  0  0  0
  2  6  2  0  0  0  0
  3  8  2  0  0  0  0
  3 17  1  0  0  0  0
  4  9  1  0  0  0  0
  4 17  2  0  0  0  0
  5 19  1  0  0  0  0
  6 21  1  0  0  0  0
  7 10  2  0  0  0  0
  7 20  1  0  0  0  0
  8 27  1  0  0  0  0
  9 27  2  0  0  0  0
 10 28  1  0  0  0  0
 11 12  2  0  0  0  0
 11 29  1  0  0  0  0
 12 30  1  0  0  0  0
 13 22  1  0  0  0  0
 13 28  2  0  0  0  0
 14 23  1  0  0  0  0
 14 25  2  0  0  0  0
 15 23  2  0  0  0  0
 15 26  1  0  0  0  0
 16 30  2  0  0  0  0
 16 31  1  0  0  0  0
 17 32  1  0  0  0  0
 18 32  1  0  0  0  0
 18 33  2  0  0  0  0
 18 34  1  0  0  0  0
 19 21  2  0  0  0  0
 19 40  1  0  0  0  0
 20 22  2  0  0  0  0
 20 41  1  0  0  0  0
 21 49  1  0  0  0  0
 22 42  1  0  0  0  0
 23 70  1  0  0  0  0
 24 25  1  0  0  0  0
 24 26  2  0  0  0  0
 24 52  1  0  0  0  0
 25 78  1  0  0  0  0
 26 81  1  0  0  0  0
 27 90  1  0  0  0  0
 28 91  1  0  0  0  0
 29 31  2  0  0  0  0
 29 90  1  0  0  0  0
 30 92  1  0  0  0  0
 31 93  1  0  0  0  0
 32 72  2  0  0  0  0
 33 73  1  0  0  0  0
 33 76  1  0  0  0  0
 34 77  1  0  0  0  0
 34 84  2  0  0  0  0
 35 50  1  0  0  0  0
 35 79  1  0  0  0  0
 35 85  2  0  0  0  0
 36 68  1  0  0  0  0
 36 74  1  0  0  0  0
 36 86  2  0  0  0  0
 37 63  1  0  0  0  0
 37 82  1  0  0  0  0
 37 87  2  0  0  0  0
 38 69  1  0  0  0  0
 38 80  1  0  0  0  0
 38 88  2  0  0  0  0
 39 75  1  0  0  0  0
 39 78  1  0  0  0  0
 39 89  2  0  0  0  0
 40 43  1  0  0  0  0
 41 50  1  0  0  0  0
 42 74  1  0  0  0  0
 43 45  1  0  0  0  0
 44 46  1  0  0  0  0
 44 47  1  0  0  0  0
 45 49  1  0  0  0  0
 46 51  1  0  0  0  0
 47 75  1  0  0  0  0
 48 51  1  0  0  0  0
 48 75  1  0  0  0  0
 49 79  1  0  0  0  0
 50 74  1  0  0  0  0
 51 73  1  0  0  0  0
 53 69  1  0  0  0  0
 54 70  1  0  0  0  0
 55 70  1  0  0  0  0
 56 70  1  0  0  0  0
 57 71  1  0  0  0  0
 58 71  1  0  0  0  0
 59 71  1  0  0  0  0
 60 81  1  0  0  0  0
 61 82  1  0  0  0  0
 62 83  1  0  0  0  0
 63 67  1  0  0  0  0
 64 65  1  0  0  0  0
 64 66  1  0  0  0  0
 65 81  1  0  0  0  0
 66 82  1  0  0  0  0
 67 91  1  0  0  0  0
 68 71  1  0  0  0  0
 68 80  1  0  0  0  0
 69 83  1  0  0  0  0
 72 73  1  0  0  0  0
M  CHG  1  83   1
M  ISO  4  39 100  67 101  78 100  91 101
M  END
> <Batch ID>
0008

> <Smiles>
CNC(C)C(=O)NC(C(=O)N1Cc2cc([101O:1][101CH2:1]CC(=O)N(C)CCCN(C)c3cc(C(C)(C)C)cc([100NH:0][100C:0](=O)N4CCCC(n5nc(-c6ccc(Oc7ccc(F)cc7F)cc6)c(C(N)=O)c5N)C4)c3C)ccc2CC1C(=O)NC1CCCc2ccccc21)C(C)(C)C

> <Shape>
0.269

> <Color>
0.078

> <Negative vol penalty>
0.000

$$$$

  -OEChem-04052315363D

 82 90  0     1  0  0  0  0  0999 V2000
  -29.5028  -33.9784   26.0407 C   0  0  0  0  0  0  0  0  0  0  0  0
  -29.6470  -32.8787   25.2008 C   0  0  0  0  0  0  0  0  0  0  0  0
  -24.6205   -9.0176   21.3632 C   0  0  0  0  0  0  0  0  0  0  0  0
  -23.3700  -10.8833   22.2534 C   0  0  0  0  0  0  0  0  0  0  0  0
  -28.2786  -34.2246   26.6609 C   0  0  0  0  0  0  0  0  0  0  0  0
  -28.5674  -32.0239   24.9816 C   0  0  0  0  0  0  0  0  0  0  0  0
  -27.2123  -29.0599   19.7966 C   0  0  0  0  0  0  0  0  0  0  0  0
  -28.2182  -19.1070   20.2807 C   0  0  0  0  0  0  0  0  0  0  0  0
  -27.7851  -20.4221   20.1123 C   0  0  0  0  0  0  0  0  0  0  0  0
  -24.0871   -8.1890   22.3504 C   0  0  0  0  0  0  0  0  0  0  0  0
  -22.8365  -10.0547   23.2406 C   0  0  0  0  0  0  0  0  0  0  0  0
  -27.4463  -27.7516   19.3754 C   0  0  0  0  0  0  0  0  0  0  0  0
  -21.1865   -6.5499   22.9269 C   0  0  0  0  0  0  0  0  0  0  0  0
  -20.7202   -5.2944   22.5371 C   0  0  0  0  0  0  0  0  0  0  0  0
  -25.2300  -27.1294   20.0964 C   0  0  0  0  0  0  0  0  0  0  0  0
  -26.2095  -18.6049   21.5258 C   0  0  0  0  0  0  0  0  0  0  0  0
  -22.3069   -4.2432   24.0253 C   0  0  0  0  0  0  0  0  0  0  0  0
  -24.2620  -10.3648   21.3147 C   0  0  0  0  0  0  0  0  0  0  0  0
  -24.2796  -11.4738   19.0175 C   0  0  0  0  0  0  0  0  0  0  0  0
  -27.1806  -33.3778   26.4415 C   0  0  0  0  0  0  0  0  0  0  0  0
  -25.9872  -29.4108   20.3818 C   0  0  0  0  0  0  0  0  0  0  0  0
  -27.3277  -32.2582   25.6005 C   0  0  0  0  0  0  0  0  0  0  0  0
  -24.9819  -28.4434   20.5218 C   0  0  0  0  0  0  0  0  0  0  0  0
  -25.7764  -19.9201   21.3574 C   0  0  0  0  0  0  0  0  0  0  0  0
  -27.4304  -18.1983   20.9875 C   0  0  0  0  0  0  0  0  0  0  0  0
  -26.5642  -20.8287   20.6506 C   0  0  0  0  0  0  0  0  0  0  0  0
  -23.1951   -8.7075   23.2890 C   0  0  0  0  0  0  0  0  0  0  0  0
  -26.4562  -26.7854   19.5279 C   0  0  0  0  0  0  0  0  0  0  0  0
  -22.2130   -6.6521   23.8658 C   0  0  0  0  0  0  0  0  0  0  0  0
  -21.2804   -4.1410   23.0863 C   0  0  0  0  0  0  0  0  0  0  0  0
  -22.7731   -5.4987   24.4150 C   0  0  0  0  0  0  0  0  0  0  0  0
  -24.8131  -11.2213   20.2956 C   0  0  0  0  0  0  0  0  0  0  0  0
  -25.1694  -12.3467   18.4404 C   0  0  0  0  0  0  0  0  0  0  0  0
  -23.0865  -10.9650   18.4066 C   0  0  0  0  0  0  0  0  0  0  0  0
  -25.0951  -30.5210   23.2235 C   0  0  0  0  0  0  0  0  0  0  0  0
  -22.1884  -30.7229   21.7977 C   0  0  0  0  0  0  0  0  0  0  0  0
  -26.8101  -23.1810   19.7902 C   0  0  0  0  0  0  0  0  0  0  0  0
  -20.0837  -29.6327   19.3424 C   0  0  0  0  0  0  0  0  0  0  0  0
  -29.0528  -16.2952   20.6839 C   0  0  0  0  0  0  0  0  0  0  0  0
  -25.8908  -33.6578   27.1712 C   0  0  0  0  0  0  0  0  0  0  0  0
  -25.7406  -30.8325   20.8064 C   0  0  0  0  0  0  0  0  0  0  0  0
  -23.6421  -28.7736   21.1254 C   0  0  0  0  0  0  0  0  0  0  0  0
  -24.6894  -32.9157   26.5914 C   0  0  0  0  0  0  0  0  0  0  0  0
  -29.7986  -13.5708   18.5163 C   0  0  0  0  0  0  0  0  0  0  0  0
  -25.0367  -31.4518   26.3399 C   0  0  0  0  0  0  0  0  0  0  0  0
  -28.5537  -12.6851   18.6056 C   0  0  0  0  0  0  0  0  0  0  0  0
  -30.1340  -14.2148   19.8603 C   0  0  0  0  0  0  0  0  0  0  0  0
  -27.7831  -14.0607   20.5807 C   0  0  0  0  0  0  0  0  0  0  0  0
  -26.1728  -31.3220   25.3182 C   0  0  1  0  0  0  0  0  0  0  0  0
  -24.6439  -30.9600   21.8592 C   0  0  1  0  0  0  0  0  0  0  0  0
  -27.3680  -13.4416   19.2360 C   0  0  2  0  0  0  0  0  0  0  0  0
  -24.4635  -20.3278   21.9429 C   0  0  0  0  0  0  0  0  0  0  0  0
  -17.7596  -29.9563   18.4529 C   0  0  0  0  0  0  0  0  0  0  0  0
  -21.0742  -29.0893   24.1215 C   0  0  0  0  0  0  0  0  0  0  0  0
  -19.0355  -28.6423   22.7386 C   0  0  0  0  0  0  0  0  0  0  0  0
  -19.6154  -30.9815   23.3825 C   0  0  0  0  0  0  0  0  0  0  0  0
  -21.0920  -30.5399   16.7119 C   0  0  0  0  0  0  0  0  0  0  0  0
  -26.0089  -24.4691   19.8286 C   0  0  0  0  0  0  0  0  0  1  0  0
  -21.0088  -29.7943   21.6386 C   0  0  1  0  0  0  0  0  0  0  0  0
  -19.2147  -30.3870   18.3523 C   0  0  2  0  0  0  0  0  0  0  0  0
  -20.2093  -29.6199   22.9606 C   0  0  0  0  0  0  0  0  0  0  0  0
  -25.9534  -11.8803   20.5177 N   0  0  0  0  0  0  0  0  0  0  0  0
  -26.1439  -12.5555   19.3715 N   0  0  0  0  0  0  0  0  0  0  0  0
  -23.4515  -30.1760   21.5309 N   0  0  0  0  0  0  0  0  0  0  0  0
  -28.9652  -14.9169   20.3948 N   0  0  0  0  0  0  0  0  0  0  0  0
  -25.2054  -12.9482   17.2324 N   0  0  0  0  0  0  0  0  0  0  0  0
  -22.2865  -10.0780   19.1398 N   0  0  0  0  0  0  0  0  0  0  0  0
  -26.1417  -22.1667   20.4674 N   0  0  0  0  0  0  0  0  0  0  0  0
  -27.8693  -16.8617   21.1561 N   0  0  0  0  0  0  0  0  0  0  0  0
  -25.6713  -31.5264   23.9761 N   0  0  0  0  0  0  0  0  0  0  0  0
  -20.2214  -30.3211   20.5292 N   0  0  0  0  0  0  0  0  0  0  0  0
  -19.6827  -30.1402   16.9592 N   0  3  0  0  0  0  0  0  0  0  0  0
  -22.7486  -11.2746   17.2389 O   0  0  0  0  0  0  0  0  0  0  0  0
  -24.9311  -29.3566   23.5684 O   0  0  0  0  0  0  0  0  0  0  0  0
  -21.9955  -31.8925   22.1391 O   0  0  0  0  0  0  0  0  0  0  0  0
  -27.8943  -23.1154   19.2204 O   0  0  0  0  0  0  0  0  0  0  0  0
  -20.5869  -28.5402   19.0897 O   0  0  0  0  0  0  0  0  0  0  0  0
  -30.0929  -16.9323   20.4984 O   0  0  0  0  0  0  0  0  0  0  0  0
  -22.6742   -7.8993   24.2523 O   0  0  0  0  0  0  0  0  0  0  0  0
  -26.6823  -25.5076   19.1183 O   0  0  0  0  0  0  0  0  0  1  0  0
  -20.8315   -2.9355   22.7130 F   0  0  0  0  0  0  0  0  0  0  0  0
  -23.7587   -5.5905   25.3183 F   0  0  0  0  0  0  0  0  0  0  0  0
  1  2  1  0  0  0  0
  1  5  2  0  0  0  0
  2  6  2  0  0  0  0
  3 10  2  0  0  0  0
  3 18  1  0  0  0  0
  4 11  1  0  0  0  0
  4 18  2  0  0  0  0
  5 20  1  0  0  0  0
  6 22  1  0  0  0  0
  7 12  2  0  0  0  0
  7 21  1  0  0  0  0
  8  9  2  0  0  0  0
  8 25  1  0  0  0  0
  9 26  1  0  0  0  0
 10 27  1  0  0  0  0
 11 27  2  0  0  0  0
 12 28  1  0  0  0  0
 13 14  2  0  0  0  0
 13 29  1  0  0  0  0
 14 30  1  0  0  0  0
 15 23  1  0  0  0  0
 15 28  2  0  0  0  0
 16 24  1  0  0  0  0
 16 25  2  0  0  0  0
 17 30  2  0  0  0  0
 17 31  1  0  0  0  0
 18 32  1  0  0  0  0
 19 32  1  0  0  0  0
 19 33  2  0  0  0  0
 19 34  1  0  0  0  0
 20 22  2  0  0  0  0
 20 40  1  0  0  0  0
 21 23  2  0  0  0  0
 21 41  1  0  0  0  0
 22 49  1  0  0  0  0
 23 42  1  0  0  0  0
 24 26  2  0  0  0  0
 24 52  1  0  0  0  0
 25 69  1  0  0  0  0
 26 68  1  0  0  0  0
 27 79  1  0  0  0  0
 28 80  1  0  0  0  0
 29 31  2  0  0  0  0
 29 79  1  0  0  0  0
 30 81  1  0  0  0  0
 31 82  1  0  0  0  0
 32 62  2  0  0  0  0
 33 63  1  0  0  0  0
 33 66  1  0  0  0  0
 34 67  1  0  0  0  0
 34 73  2  0  0  0  0
 35 50  1  0  0  0  0
 35 70  1  0  0  0  0
 35 74  2  0  0  0  0
 36 59  1  0  0  0  0
 36 64  1  0  0  0  0
 36 75  2  0  0  0  0
 37 58  1  0  0  0  0
 37 68  1  0  0  0  0
 37 76  2  0  0  0  0
 38 60  1  0  0  0  0
 38 71  1  0  0  0  0
 38 77  2  0  0  0  0
 39 65  1  0  0  0  0
 39 69  1  0  0  0  0
 39 78  2  0  0  0  0
 40 43  1  0  0  0  0
 41 50  1  0  0  0  0
 42 64  1  0  0  0  0
 43 45  1  0  0  0  0
 44 46  1  0  0  0  0
 44 47  1  0  0  0  0
 45 49  1  0  0  0  0
 46 51  1  0  0  0  0
 47 65  1  0  0  0  0
 48 51  1  0  0  0  0
 48 65  1  0  0  0  0
 49 70  1  0  0  0  0
 50 64  1  0  0  0  0
 51 63  1  0  0  0  0
 53 60  1  0  0  0  0
 54 61  1  0  0  0  0
 55 61  1  0  0  0  0
 56 61  1  0  0  0  0
 57 72  1  0  0  0  0
 58 80  1  0  0  0  0
 59 61  1  0  0  0  0
 59 71  1  0  0  0  0
 60 72  1  0  0  0  0
 62 63  1  0  0  0  0
M  CHG  1  72   1
M  ISO  4  39 100  58 101  69 100  80 101
M  END
> <Batch ID>
0008

> <Smiles>
CNC(C)C(=O)NC(C(=O)N1Cc2cc([101O:1][101CH2:1]C(=O)Nc3ccc([100NH:0][100C:0](=O)N4CCCC(n5nc(-c6ccc(Oc7ccc(F)cc7F)cc6)c(C(N)=O)c5N)C4)cc3C)ccc2CC1C(=O)NC1CCCc2ccccc21)C(C)(C)C

> <Shape>
0.307

> <Color>
0.100

> <Negative vol penalty>
0.000

$$$$

  -OEChem-04052315363D

 82 90  0     1  0  0  0  0  0999 V2000
  -29.2322  -25.4256   16.5978 C   0  0  0  0  0  0  0  0  0  0  0  0
  -28.0862  -25.3619   17.3840 C   0  0  0  0  0  0  0  0  0  0  0  0
  -26.3729  -12.7801   19.5749 C   0  0  0  0  0  0  0  0  0  0  0  0
  -24.3097  -13.4002   20.6683 C   0  0  0  0  0  0  0  0  0  0  0  0
  -30.3171  -26.1980   17.0104 C   0  0  0  0  0  0  0  0  0  0  0  0
  -28.0249  -26.0698   18.5839 C   0  0  0  0  0  0  0  0  0  0  0  0
  -23.6253  -28.5054   19.1801 C   0  0  0  0  0  0  0  0  0  0  0  0
  -24.2752  -23.0558   22.0068 C   0  0  0  0  0  0  0  0  0  0  0  0
  -23.2319  -23.9746   22.1208 C   0  0  0  0  0  0  0  0  0  0  0  0
  -26.3119  -11.5217   20.1735 C   0  0  0  0  0  0  0  0  0  0  0  0
  -24.2486  -12.1418   21.2669 C   0  0  0  0  0  0  0  0  0  0  0  0
  -22.5264  -27.7463   19.5802 C   0  0  0  0  0  0  0  0  0  0  0  0
  -23.3580   -9.0046   20.3809 C   0  0  0  0  0  0  0  0  0  0  0  0
  -22.1305   -8.3422   20.3699 C   0  0  0  0  0  0  0  0  0  0  0  0
  -22.8323  -28.5099   21.8479 C   0  0  0  0  0  0  0  0  0  0  0  0
  -22.7749  -21.2729   22.6450 C   0  0  0  0  0  0  0  0  0  0  0  0
  -22.1298   -8.3034   22.7856 C   0  0  0  0  0  0  0  0  0  0  0  0
  -25.3718  -13.7194   19.8224 C   0  0  0  0  0  0  0  0  0  0  0  0
  -24.8900  -15.3982   17.9630 C   0  0  0  0  0  0  0  0  0  0  0  0
  -30.2655  -26.9234   18.2111 C   0  0  0  0  0  0  0  0  0  0  0  0
  -24.3438  -29.2651   20.1145 C   0  0  0  0  0  0  0  0  0  0  0  0
  -29.1107  -26.8515   19.0135 C   0  0  0  0  0  0  0  0  0  0  0  0
  -23.9384  -29.2797   21.4567 C   0  0  0  0  0  0  0  0  0  0  0  0
  -21.7316  -22.1917   22.7590 C   0  0  0  0  0  0  0  0  0  0  0  0
  -24.0467  -21.7050   22.2689 C   0  0  0  0  0  0  0  0  0  0  0  0
  -21.9601  -23.5425   22.4969 C   0  0  0  0  0  0  0  0  0  0  0  0
  -25.2497  -11.2025   21.0194 C   0  0  0  0  0  0  0  0  0  0  0  0
  -22.1315  -27.7462   20.9148 C   0  0  0  0  0  0  0  0  0  0  0  0
  -23.9715   -9.3163   21.5942 C   0  0  0  0  0  0  0  0  0  0  0  0
  -21.5164   -7.9917   21.5723 C   0  0  0  0  0  0  0  0  0  0  0  0
  -23.3574   -8.9657   22.7966 C   0  0  0  0  0  0  0  0  0  0  0  0
  -25.4346  -15.0197   19.2048 C   0  0  0  0  0  0  0  0  0  0  0  0
  -25.2195  -16.7253   17.8338 C   0  0  0  0  0  0  0  0  0  0  0  0
  -24.1522  -14.6198   17.0115 C   0  0  0  0  0  0  0  0  0  0  0  0
  -27.3373  -29.2600   21.1832 C   0  0  0  0  0  0  0  0  0  0  0  0
  -26.3720  -31.9340   22.7452 C   0  0  0  0  0  0  0  0  0  0  0  0
  -23.7999  -33.7552   24.0545 C   0  0  0  0  0  0  0  0  0  0  0  0
  -26.4280  -21.0354   21.7920 C   0  0  0  0  0  0  0  0  0  0  0  0
  -31.4812  -27.7068   18.6388 C   0  0  0  0  0  0  0  0  0  0  0  0
  -25.5105  -30.0996   19.6620 C   0  0  0  0  0  0  0  0  0  0  0  0
  -24.6637  -30.0943   22.4953 C   0  0  0  0  0  0  0  0  0  0  0  0
  -31.1935  -28.7251   19.7391 C   0  0  0  0  0  0  0  0  0  0  0  0
  -28.5453  -19.9046   19.1623 C   0  0  0  0  0  0  0  0  0  0  0  0
  -30.3550  -28.0930   20.8455 C   0  0  0  0  0  0  0  0  0  0  0  0
  -27.9348  -18.5609   18.7577 C   0  0  0  0  0  0  0  0  0  0  0  0
  -28.4550  -20.1377   20.6694 C   0  0  0  0  0  0  0  0  0  0  0  0
  -26.4995  -18.6487   20.8360 C   0  0  0  0  0  0  0  0  0  0  0  0
  -28.9968  -27.6249   20.3093 C   0  0  1  0  0  0  0  0  0  0  0  0
  -26.4815  -30.4311   20.7911 C   0  0  1  0  0  0  0  0  0  0  0  0
  -26.5086  -18.3980   19.3191 C   0  0  2  0  0  0  0  0  0  0  0  0
  -20.3795  -21.7019   23.1647 C   0  0  0  0  0  0  0  0  0  0  0  0
  -23.3261  -35.8799   25.3029 C   0  0  0  0  0  0  0  0  0  0  0  0
  -27.3830  -30.6443   25.3190 C   0  0  0  0  0  0  0  0  0  0  0  0
  -26.0560  -32.3338   26.6046 C   0  0  0  0  0  0  0  0  0  0  0  0
  -27.9002  -33.0813   25.1003 C   0  0  0  0  0  0  0  0  0  0  0  0
  -20.6779  -25.1562   23.8797 C   0  0  0  0  0  0  0  0  0  0  0  0
  -22.1262  -34.8115   21.8540 C   0  0  0  0  0  0  0  0  0  0  0  0
  -20.0872  -24.8110   21.4755 C   0  0  0  0  0  0  0  0  0  0  0  0
  -20.7905  -25.8119   20.5741 C   0  0  0  0  0  0  0  0  0  1  0  0
  -25.7486  -32.2203   24.0899 C   0  0  1  0  0  0  0  0  0  0  0  0
  -23.4440  -35.2261   23.9349 C   0  0  2  0  0  0  0  0  0  0  0  0
  -26.7593  -32.0530   25.2595 C   0  0  0  0  0  0  0  0  0  0  0  0
  -26.0624  -16.0250   19.8205 N   0  0  0  0  0  0  0  0  0  0  0  0
  -25.9145  -17.0484   18.9620 N   0  0  0  0  0  0  0  0  0  0  0  0
  -25.8020  -30.8887   22.0048 N   0  0  0  0  0  0  0  0  0  0  0  0
  -27.0746  -19.9709   21.1292 N   0  0  0  0  0  0  0  0  0  0  0  0
  -24.9796  -17.6358   16.8664 N   0  0  0  0  0  0  0  0  0  0  0  0
  -23.9017  -13.2717   17.3017 N   0  0  0  0  0  0  0  0  0  0  0  0
  -25.1072  -20.7723   22.1535 N   0  0  0  0  0  0  0  0  0  0  0  0
  -28.1010  -28.7504   20.1504 N   0  0  0  0  0  0  0  0  0  0  0  0
  -25.1624  -33.5528   23.9928 N   0  0  0  0  0  0  0  0  0  0  0  0
  -20.9239  -24.4794   22.6060 N   0  0  3  0  0  0  0  0  0  0  0  0
  -22.1450  -35.3885   23.2228 N   0  3  0  0  0  0  0  0  0  0  0  0
  -23.7419  -15.1011   15.9282 O   0  0  0  0  0  0  0  0  0  0  0  0
  -27.3082  -28.8500   22.3376 O   0  0  0  0  0  0  0  0  0  0  0  0
  -27.3250  -32.6175   22.3627 O   0  0  0  0  0  0  0  0  0  0  0  0
  -22.9541  -32.8744   24.1928 O   0  0  0  0  0  0  0  0  0  0  0  0
  -26.9949  -22.1117   21.9979 O   0  0  0  0  0  0  0  0  0  0  0  0
  -25.1898   -9.9746   21.6035 O   0  0  0  0  0  0  0  0  0  0  0  0
  -21.0597  -27.0057   21.3081 O   0  0  0  0  0  0  0  0  0  1  0  0
  -20.3369   -7.3570   21.5616 F   0  0  0  0  0  0  0  0  0  0  0  0
  -23.9413   -9.2636   23.9654 F   0  0  0  0  0  0  0  0  0  0  0  0
  1  2  1  0  0  0  0
  1  5  2  0  0  0  0
  2  6  2  0  0  0  0
  3 10  2  0  0  0  0
  3 18  1  0  0  0  0
  4 11  1  0  0  0  0
  4 18  2  0  0  0  0
  5 20  1  0  0  0  0
  6 22  1  0  0  0  0
  7 12  2  0  0  0  0
  7 21  1  0  0  0  0
  8  9  2  0  0  0  0
  8 25  1  0  0  0  0
  9 26  1  0  0  0  0
 10 27  1  0  0  0  0
 11 27  2  0  0  0  0
 12 28  1  0  0  0  0
 13 14  2  0  0  0  0
 13 29  1  0  0  0  0
 14 30  1  0  0  0  0
 15 23  1  0  0  0  0
 15 28  2  0  0  0  0
 16 24  1  0  0  0  0
 16 25  2  0  0  0  0
 17 30  2  0  0  0  0
 17 31  1  0  0  0  0
 18 32  1  0  0  0  0
 19 32  1  0  0  0  0
 19 33  2  0  0  0  0
 19 34  1  0  0  0  0
 20 22  2  0  0  0  0
 20 39  1  0  0  0  0
 21 23  2  0  0  0  0
 21 40  1  0  0  0  0
 22 48  1  0  0  0  0
 23 41  1  0  0  0  0
 24 26  2  0  0  0  0
 24 51  1  0  0  0  0
 25 69  1  0  0  0  0
 26 72  1  0  0  0  0
 27 79  1  0  0  0  0
 28 80  1  0  0  0  0
 29 31  2  0  0  0  0
 29 79  1  0  0  0  0
 30 81  1  0  0  0  0
 31 82  1  0  0  0  0
 32 63  2  0  0  0  0
 33 64  1  0  0  0  0
 33 67  1  0  0  0  0
 34 68  1  0  0  0  0
 34 74  2  0  0  0  0
 35 49  1  0  0  0  0
 35 70  1  0  0  0  0
 35 75  2  0  0  0  0
 36 60  1  0  0  0  0
 36 65  1  0  0  0  0
 36 76  2  0  0  0  0
 37 61  1  0  0  0  0
 37 71  1  0  0  0  0
 37 77  2  0  0  0  0
 38 66  1  0  0  0  0
 38 69  1  0  0  0  0
 38 78  2  0  0  0  0
 39 42  1  0  0  0  0
 40 49  1  0  0  0  0
 41 65  1  0  0  0  0
 42 44  1  0  0  0  0
 43 45  1  0  0  0  0
 43 46  1  0  0  0  0
 44 48  1  0  0  0  0
 45 50  1  0  0  0  0
 46 66  1  0  0  0  0
 47 50  1  0  0  0  0
 47 66  1  0  0  0  0
 48 70  1  0  0  0  0
 49 65  1  0  0  0  0
 50 64  1  0  0  0  0
 52 61  1  0  0  0  0
 53 62  1  0  0  0  0
 54 62  1  0  0  0  0
 55 62  1  0  0  0  0
 56 72  1  0  0  0  0
 57 73  1  0  0  0  0
 58 59  1  0  0  0  0
 58 72  1  0  0  0  0
 59 80  1  0  0  0  0
 60 62  1  0  0  0  0
 60 71  1  0  0  0  0
 61 73  1  0  0  0  0
 63 64  1  0  0  0  0
M  CHG  1  73   1
M  ISO  4  38 100  59 101  69 100  80 101
M  END
> <Batch ID>
0008

> <Smiles>
CNC(C)C(=O)NC(C(=O)N1Cc2cc([101O:1][101CH2:1]CN(C)c3ccc([100NH:0][100C:0](=O)N4CCCC(n5nc(-c6ccc(Oc7ccc(F)cc7F)cc6)c(C(N)=O)c5N)C4)cc3C)ccc2CC1C(=O)NC1CCCc2ccccc21)C(C)(C)C

> <Shape>
0.269

> <Color>
0.084

> <Negative vol penalty>
0.000

$$$$

  -OEChem-04052315363D

 84 92  0     1  0  0  0  0  0999 V2000
  -30.2201  -31.5850   26.0195 C   0  0  0  0  0  0  0  0  0  0  0  0
  -29.7498  -30.5270   25.2482 C   0  0  0  0  0  0  0  0  0  0  0  0
  -24.3766   -9.4568   21.5462 C   0  0  0  0  0  0  0  0  0  0  0  0
  -24.7493  -10.6465   23.6157 C   0  0  0  0  0  0  0  0  0  0  0  0
  -29.3196  -32.4769   26.6003 C   0  0  0  0  0  0  0  0  0  0  0  0
  -28.3786  -30.3597   25.0581 C   0  0  0  0  0  0  0  0  0  0  0  0
  -27.1955  -29.3346   20.2421 C   0  0  0  0  0  0  0  0  0  0  0  0
  -30.0120  -20.8990   19.6728 C   0  0  0  0  0  0  0  0  0  0  0  0
  -29.9889  -19.5097   19.7952 C   0  0  0  0  0  0  0  0  0  0  0  0
  -24.0115   -8.3192   22.2659 C   0  0  0  0  0  0  0  0  0  0  0  0
  -24.3841   -9.5088   24.3354 C   0  0  0  0  0  0  0  0  0  0  0  0
  -27.4088  -28.0305   19.7978 C   0  0  0  0  0  0  0  0  0  0  0  0
  -22.6341   -5.2126   23.5570 C   0  0  0  0  0  0  0  0  0  0  0  0
  -21.4986   -4.5181   23.1400 C   0  0  0  0  0  0  0  0  0  0  0  0
  -25.0619  -27.5540   20.0883 C   0  0  0  0  0  0  0  0  0  0  0  0
  -27.7764  -21.0162   20.5813 C   0  0  0  0  0  0  0  0  0  0  0  0
  -20.1556   -6.4922   23.5091 C   0  0  0  0  0  0  0  0  0  0  0  0
  -24.7455  -10.6205   22.2211 C   0  0  0  0  0  0  0  0  0  0  0  0
  -24.2772  -12.8305   21.0361 C   0  0  0  0  0  0  0  0  0  0  0  0
  -27.9370  -32.3262   26.4093 C   0  0  0  0  0  0  0  0  0  0  0  0
  -25.9136  -29.7558   20.6238 C   0  0  0  0  0  0  0  0  0  0  0  0
  -27.4586  -31.2497   25.6381 C   0  0  0  0  0  0  0  0  0  0  0  0
  -24.8345  -28.8648   20.5347 C   0  0  0  0  0  0  0  0  0  0  0  0
  -28.9057  -21.6522   20.0659 C   0  0  0  0  0  0  0  0  0  0  0  0
  -28.8596  -18.8736   20.3105 C   0  0  0  0  0  0  0  0  0  0  0  0
  -24.0152   -8.3451   23.6605 C   0  0  0  0  0  0  0  0  0  0  0  0
  -26.3425  -27.1391   19.7236 C   0  0  0  0  0  0  0  0  0  0  0  0
  -22.5304   -6.5469   23.9501 C   0  0  0  0  0  0  0  0  0  0  0  0
  -27.7533  -19.6269   20.7036 C   0  0  0  0  0  0  0  0  0  0  0  0
  -20.2594   -5.1579   23.1160 C   0  0  0  0  0  0  0  0  0  0  0  0
  -21.2912   -7.1867   23.9261 C   0  0  0  0  0  0  0  0  0  0  0  0
  -25.1233  -11.7959   21.4782 C   0  0  0  0  0  0  0  0  0  0  0  0
  -25.1139  -13.7034   20.3845 C   0  0  0  0  0  0  0  0  0  0  0  0
  -22.8616  -12.9884   21.1997 C   0  0  0  0  0  0  0  0  0  0  0  0
  -24.6116  -30.8146   23.3234 C   0  0  0  0  0  0  0  0  0  0  0  0
  -22.0247  -31.3011   21.4277 C   0  0  0  0  0  0  0  0  0  0  0  0
  -27.7180  -23.7822   19.7106 C   0  0  0  0  0  0  0  0  0  0  0  0
  -20.3176  -30.4801   18.5889 C   0  0  0  0  0  0  0  0  0  0  0  0
  -29.8723  -16.5786   20.0790 C   0  0  0  0  0  0  0  0  0  0  0  0
  -27.0002  -33.2880   27.0962 C   0  0  0  0  0  0  0  0  0  0  0  0
  -25.6952  -31.1738   21.0756 C   0  0  0  0  0  0  0  0  0  0  0  0
  -23.4353  -29.2735   20.9135 C   0  0  0  0  0  0  0  0  0  0  0  0
  -25.5799  -33.2589   26.5373 C   0  0  0  0  0  0  0  0  0  0  0  0
  -29.9469  -13.1968   18.9678 C   0  0  0  0  0  0  0  0  0  0  0  0
  -25.0981  -31.8203   26.3785 C   0  0  0  0  0  0  0  0  0  0  0  0
  -28.6290  -12.6160   19.4855 C   0  0  0  0  0  0  0  0  0  0  0  0
  -30.5543  -14.1923   19.9545 C   0  0  0  0  0  0  0  0  0  0  0  0
  -28.3350  -14.6880   20.9022 C   0  0  0  0  0  0  0  0  0  0  0  0
  -25.9796  -31.0494   25.3884 C   0  0  1  0  0  0  0  0  0  0  0  0
  -24.4409  -31.3431   21.9272 C   0  0  1  0  0  0  0  0  0  0  0  0
  -27.6523  -13.7288   19.9136 C   0  0  2  0  0  0  0  0  0  0  0  0
  -18.2161  -31.0203   17.3283 C   0  0  0  0  0  0  0  0  0  0  0  0
  -20.4055  -29.6653   23.4309 C   0  0  0  0  0  0  0  0  0  0  0  0
  -18.6180  -29.4359   21.6929 C   0  0  0  0  0  0  0  0  0  0  0  0
  -19.2360  -31.6943   22.5534 C   0  0  0  0  0  0  0  0  0  0  0  0
  -30.2163  -23.7998   20.0489 C   0  0  0  0  0  0  0  0  0  0  0  0
  -21.8365  -31.4131   16.2265 C   0  0  0  0  0  0  0  0  0  0  0  0
  -25.6297  -18.6457   20.2752 C   0  0  0  0  0  0  0  0  0  0  0  0
  -27.8291  -25.2912   19.5470 C   0  0  0  0  0  0  0  0  0  1  0  0
  -20.8302  -30.4746   21.0162 C   0  0  1  0  0  0  0  0  0  0  0  0
  -19.6923  -31.3399   17.5054 C   0  0  2  0  0  0  0  0  0  0  0  0
  -19.7990  -30.3090   22.1680 C   0  0  0  0  0  0  0  0  0  0  0  0
  -26.3995  -11.9918   21.1363 N   0  0  0  0  0  0  0  0  0  0  0  0
  -26.3616  -13.1596   20.4723 N   0  0  0  0  0  0  0  0  0  0  0  0
  -23.2739  -30.6686   21.3551 N   0  0  0  0  0  0  0  0  0  0  0  0
  -29.5732  -15.2195   20.3113 N   0  0  0  0  0  0  0  0  0  0  0  0
  -24.8966  -14.8754   19.7508 N   0  0  0  0  0  0  0  0  0  0  0  0
  -22.1549  -11.9980   21.8954 N   0  0  0  0  0  0  0  0  0  0  0  0
  -28.8509  -17.4616   20.4278 N   0  0  0  0  0  0  0  0  0  0  0  0
  -25.6426  -31.4071   24.0272 N   0  0  0  0  0  0  0  0  0  0  0  0
  -20.2904  -31.1064   19.8171 N   0  0  0  0  0  0  0  0  0  0  0  0
  -28.9297  -23.0953   19.9379 N   0  0  0  0  0  0  0  0  0  0  0  0
  -20.3814  -31.1147   16.2033 N   0  3  0  0  0  0  0  0  0  0  0  0
  -22.2392  -13.9702   20.7284 O   0  0  0  0  0  0  0  0  0  0  0  0
  -23.8623  -29.9353   23.7324 O   0  0  0  0  0  0  0  0  0  0  0  0
  -21.8563  -32.4671   21.7932 O   0  0  0  0  0  0  0  0  0  0  0  0
  -26.6079  -23.2542   19.6076 O   0  0  0  0  0  0  0  0  0  0  0  0
  -20.7803  -29.3630   18.3687 O   0  0  0  0  0  0  0  0  0  0  0  0
  -30.9442  -16.9312   19.5802 O   0  0  0  0  0  0  0  0  0  0  0  0
  -23.6588   -7.2352   24.3631 O   0  0  0  0  0  0  0  0  0  0  0  0
  -26.6391  -19.0251   21.2081 O   0  0  0  0  0  0  0  0  0  0  0  0
  -26.5481  -25.8654   19.2908 O   0  0  0  0  0  0  0  0  0  1  0  0
  -19.1693   -4.4913   22.7141 F   0  0  0  0  0  0  0  0  0  0  0  0
  -21.1855   -8.4688   24.3015 F   0  0  0  0  0  0  0  0  0  0  0  0
  1  2  1  0  0  0  0
  1  5  2  0  0  0  0
  2  6  2  0  0  0  0
  3 10  2  0  0  0  0
  3 18  1  0  0  0  0
  4 11  1  0  0  0  0
  4 18  2  0  0  0  0
  5 20  1  0  0  0  0
  6 22  1  0  0  0  0
  7 12  2  0  0  0  0
  7 21  1  0  0  0  0
  8  9  2  0  0  0  0
  8 24  1  0  0  0  0
  9 25  1  0  0  0  0
 10 26  1  0  0  0  0
 11 26  2  0  0  0  0
 12 27  1  0  0  0  0
 13 14  2  0  0  0  0
 13 28  1  0  0  0  0
 14 30  1  0  0  0  0
 15 23  1  0  0  0  0
 15 27  2  0  0  0  0
 16 24  2  0  0  0  0
 16 29  1  0  0  0  0
 17 30  2  0  0  0  0
 17 31  1  0  0  0  0
 18 32  1  0  0  0  0
 19 32  1  0  0  0  0
 19 33  2  0  0  0  0
 19 34  1  0  0  0  0
 20 22  2  0  0  0  0
 20 40  1  0  0  0  0
 21 23  2  0  0  0  0
 21 41  1  0  0  0  0
 22 49  1  0  0  0  0
 23 42  1  0  0  0  0
 24 72  1  0  0  0  0
 25 29  2  0  0  0  0
 25 69  1  0  0  0  0
 26 80  1  0  0  0  0
 27 82  1  0  0  0  0
 28 31  2  0  0  0  0
 28 80  1  0  0  0  0
 29 81  1  0  0  0  0
 30 83  1  0  0  0  0
 31 84  1  0  0  0  0
 32 63  2  0  0  0  0
 33 64  1  0  0  0  0
 33 67  1  0  0  0  0
 34 68  1  0  0  0  0
 34 74  2  0  0  0  0
 35 50  1  0  0  0  0
 35 70  1  0  0  0  0
 35 75  2  0  0  0  0
 36 60  1  0  0  0  0
 36 65  1  0  0  0  0
 36 76  2  0  0  0  0
 37 59  1  0  0  0  0
 37 72  1  0  0  0  0
 37 77  2  0  0  0  0
 38 61  1  0  0  0  0
 38 71  1  0  0  0  0
 38 78  2  0  0  0  0
 39 66  1  0  0  0  0
 39 69  1  0  0  0  0
 39 79  2  0  0  0  0
 40 43  1  0  0  0  0
 41 50  1  0  0  0  0
 42 65  1  0  0  0  0
 43 45  1  0  0  0  0
 44 46  1  0  0  0  0
 44 47  1  0  0  0  0
 45 49  1  0  0  0  0
 46 51  1  0  0  0  0
 47 66  1  0  0  0  0
 48 51  1  0  0  0  0
 48 66  1  0  0  0  0
 49 70  1  0  0  0  0
 50 65  1  0  0  0  0
 51 64  1  0  0  0  0
 52 61  1  0  0  0  0
 53 62  1  0  0  0  0
 54 62  1  0  0  0  0
 55 62  1  0  0  0  0
 56 72  1  0  0  0  0
 57 73  1  0  0  0  0
 58 81  1  0  0  0  0
 59 82  1  0  0  0  0
 60 62  1  0  0  0  0
 60 71  1  0  0  0  0
 61 73  1  0  0  0  0
 63 64  1  0  0  0  0
M  CHG  1  73   1
M  ISO  4  39 100  59 101  69 100  82 101
M  END
> <Batch ID>
0008

> <Smiles>
CNC(C)C(=O)NC(C(=O)N1Cc2cc([101O:1][101CH2:1]C(=O)N(C)c3ccc([100NH:0][100C:0](=O)N4CCCC(n5nc(-c6ccc(Oc7ccc(F)cc7F)cc6)c(C(N)=O)c5N)C4)c(OC)c3)ccc2CC1C(=O)NC1CCCc2ccccc21)C(C)(C)C

> <Shape>
0.355

> <Color>
0.140

> <Negative vol penalty>
0.000

$$$$

  -OEChem-04052315363D

 82 90  0     1  0  0  0  0  0999 V2000
  -18.3116  -32.9387   20.6698 C   0  0  0  0  0  0  0  0  0  0  0  0
  -19.6670  -32.8319   20.3751 C   0  0  0  0  0  0  0  0  0  0  0  0
  -25.8200  -15.3503   21.5424 C   0  0  0  0  0  0  0  0  0  0  0  0
  -25.1822  -16.7905   19.7105 C   0  0  0  0  0  0  0  0  0  0  0  0
  -17.7763  -32.2353   21.7481 C   0  0  0  0  0  0  0  0  0  0  0  0
  -20.4881  -32.0224   21.1591 C   0  0  0  0  0  0  0  0  0  0  0  0
  -25.2910  -28.7246   19.2714 C   0  0  0  0  0  0  0  0  0  0  0  0
  -30.7269  -25.9113   17.1048 C   0  0  0  0  0  0  0  0  0  0  0  0
  -24.5199  -14.8484   21.6005 C   0  0  0  0  0  0  0  0  0  0  0  0
  -23.8820  -16.2886   19.7686 C   0  0  0  0  0  0  0  0  0  0  0  0
  -26.6640  -28.9645   19.3027 C   0  0  0  0  0  0  0  0  0  0  0  0
  -22.6358  -12.6099   19.9057 C   0  0  0  0  0  0  0  0  0  0  0  0
  -30.6250  -24.6067   16.6219 C   0  0  0  0  0  0  0  0  0  0  0  0
  -22.4787  -11.2291   20.0246 C   0  0  0  0  0  0  0  0  0  0  0  0
  -26.8319  -27.7004   21.3504 C   0  0  0  0  0  0  0  0  0  0  0  0
  -30.7851  -25.0689   19.3684 C   0  0  0  0  0  0  0  0  0  0  0  0
  -21.3020  -11.5426   22.1113 C   0  0  0  0  0  0  0  0  0  0  0  0
  -26.1511  -16.3214   20.5974 C   0  0  0  0  0  0  0  0  0  0  0  0
  -28.5648  -16.3416   19.7718 C   0  0  0  0  0  0  0  0  0  0  0  0
  -18.5894  -31.4092   22.5399 C   0  0  0  0  0  0  0  0  0  0  0  0
  -24.6753  -27.9788   20.2868 C   0  0  0  0  0  0  0  0  0  0  0  0
  -19.9635  -31.3083   22.2498 C   0  0  0  0  0  0  0  0  0  0  0  0
  -25.4513  -27.4504   21.3283 C   0  0  0  0  0  0  0  0  0  0  0  0
  -30.8069  -26.1425   18.4781 C   0  0  0  0  0  0  0  0  0  0  0  0
  -30.6832  -23.7643   18.8855 C   0  0  0  0  0  0  0  0  0  0  0  0
  -23.5509  -15.3176   20.7136 C   0  0  0  0  0  0  0  0  0  0  0  0
  -27.4343  -28.4548   20.3439 C   0  0  0  0  0  0  0  0  0  0  0  0
  -22.1261  -13.4571   20.8897 C   0  0  0  0  0  0  0  0  0  0  0  0
  -21.8117  -10.6954   21.1273 C   0  0  0  0  0  0  0  0  0  0  0  0
  -30.6032  -23.5332   17.5122 C   0  0  0  0  0  0  0  0  0  0  0  0
  -21.4591  -12.9235   21.9924 C   0  0  0  0  0  0  0  0  0  0  0  0
  -27.4939  -16.8406   20.5372 C   0  0  0  0  0  0  0  0  0  0  0  0
  -29.6143  -17.1784   20.0631 C   0  0  0  0  0  0  0  0  0  0  0  0
  -28.6071  -15.2219   18.8773 C   0  0  0  0  0  0  0  0  0  0  0  0
  -22.4399  -28.5745   22.4667 C   0  0  0  0  0  0  0  0  0  0  0  0
  -22.7302  -25.3998   23.0658 C   0  0  0  0  0  0  0  0  0  0  0  0
  -24.6580  -22.5876   22.9165 C   0  0  0  0  0  0  0  0  0  0  0  0
  -30.7315  -22.7332   21.1836 C   0  0  0  0  0  0  0  0  0  0  0  0
  -17.9748  -30.7053   23.7237 C   0  0  0  0  0  0  0  0  0  0  0  0
  -23.1974  -27.7064   20.2242 C   0  0  0  0  0  0  0  0  0  0  0  0
  -24.8419  -26.6263   22.4319 C   0  0  0  0  0  0  0  0  0  0  0  0
  -18.8397  -29.5757   24.2771 C   0  0  0  0  0  0  0  0  0  0  0  0
  -30.6704  -20.2843   23.7673 C   0  0  0  0  0  0  0  0  0  0  0  0
  -20.2876  -30.0336   24.4214 C   0  0  0  0  0  0  0  0  0  0  0  0
  -29.9500  -19.0969   23.1245 C   0  0  0  0  0  0  0  0  0  0  0  0
  -30.0852  -21.6187   23.3085 C   0  0  0  0  0  0  0  0  0  0  0  0
  -29.2852  -20.6065   21.2098 C   0  0  0  0  0  0  0  0  0  0  0  0
  -20.8818  -30.4209   23.0618 C   0  0  1  0  0  0  0  0  0  0  0  0
  -22.5940  -27.3684   21.5840 C   0  0  1  0  0  0  0  0  0  0  0  0
  -29.8817  -19.2419   21.5915 C   0  0  2  0  0  0  0  0  0  0  0  0
  -24.6381  -20.1515   23.5183 C   0  0  0  0  0  0  0  0  0  0  0  0
  -23.1910  -26.1219   25.9943 C   0  0  0  0  0  0  0  0  0  0  0  0
  -24.0889  -23.8121   26.3502 C   0  0  0  0  0  0  0  0  0  0  0  0
  -21.7222  -24.1309   25.6294 C   0  0  0  0  0  0  0  0  0  0  0  0
  -30.9336  -28.5805   18.0307 C   0  0  0  0  0  0  0  0  0  0  0  0
  -24.9801  -21.7680   20.0910 C   0  0  0  0  0  0  0  0  0  0  0  0
  -30.9810  -27.7277   20.3799 C   0  0  0  0  0  0  0  0  0  0  0  0
  -29.5916  -27.6939   20.9943 C   0  0  0  0  0  0  0  0  0  1  0  0
  -23.5889  -24.5582   23.9787 C   0  0  1  0  0  0  0  0  0  0  0  0
  -24.3515  -21.1807   22.4359 C   0  0  2  0  0  0  0  0  0  0  0  0
  -23.1592  -24.6729   25.4685 C   0  0  0  0  0  0  0  0  0  0  0  0
  -27.8320  -17.9113   21.2606 N   0  0  0  0  0  0  0  0  0  0  0  0
  -29.1273  -18.0919   20.9510 N   0  0  0  0  0  0  0  0  0  0  0  0
  -23.3919  -26.3928   22.3296 N   0  0  0  0  0  0  0  0  0  0  0  0
  -30.0560  -21.6864   21.8458 N   0  0  0  0  0  0  0  0  0  0  0  0
  -30.8970  -17.2144   19.6439 N   0  0  0  0  0  0  0  0  0  0  0  0
  -27.4391  -14.4693   18.6932 N   0  0  0  0  0  0  0  0  0  0  0  0
  -30.6611  -22.6755   19.7920 N   0  0  0  0  0  0  0  0  0  0  0  0
  -21.2372  -29.2366   22.3097 N   0  0  0  0  0  0  0  0  0  0  0  0
  -23.5423  -23.2008   23.4462 N   0  0  0  0  0  0  0  0  0  0  0  0
  -30.9099  -27.4531   18.9631 N   0  0  3  0  0  0  0  0  0  0  0  0
  -25.1790  -20.8495   21.2415 N   0  3  0  0  0  0  0  0  0  0  0  0
  -29.6540  -14.8884   18.2721 O   0  0  0  0  0  0  0  0  0  0  0  0
  -23.3446  -28.8810   23.2344 O   0  0  0  0  0  0  0  0  0  0  0  0
  -21.5181  -25.1793   23.0026 O   0  0  0  0  0  0  0  0  0  0  0  0
  -25.7762  -23.0910   22.8339 O   0  0  0  0  0  0  0  0  0  0  0  0
  -31.3513  -23.6006   21.8044 O   0  0  0  0  0  0  0  0  0  0  0  0
  -22.2822  -14.8279   20.7699 O   0  0  0  0  0  0  0  0  0  0  0  0
  -28.7746  -28.6880   20.3773 O   0  0  0  0  0  0  0  0  0  1  0  0
  -21.6596   -9.3694   21.2405 F   0  0  0  0  0  0  0  0  0  0  0  0
  -30.5048  -22.2835   17.0367 F   0  0  0  0  0  0  0  0  0  0  0  0
  -20.9663  -13.7324   22.9403 F   0  0  0  0  0  0  0  0  0  0  0  0
  1  2  1  0  0  0  0
  1  5  2  0  0  0  0
  2  6  2  0  0  0  0
  3  9  2  0  0  0  0
  3 18  1  0  0  0  0
  4 10  1  0  0  0  0
  4 18  2  0  0  0  0
  5 20  1  0  0  0  0
  6 22  1  0  0  0  0
  7 11  2  0  0  0  0
  7 21  1  0  0  0  0
  8 13  2  0  0  0  0
  8 24  1  0  0  0  0
  9 26  1  0  0  0  0
 10 26  2  0  0  0  0
 11 27  1  0  0  0  0
 12 14  2  0  0  0  0
 12 28  1  0  0  0  0
 13 30  1  0  0  0  0
 14 29  1  0  0  0  0
 15 23  1  0  0  0  0
 15 27  2  0  0  0  0
 16 24  2  0  0  0  0
 16 25  1  0  0  0  0
 17 29  2  0  0  0  0
 17 31  1  0  0  0  0
 18 32  1  0  0  0  0
 19 32  1  0  0  0  0
 19 33  2  0  0  0  0
 19 34  1  0  0  0  0
 20 22  2  0  0  0  0
 20 39  1  0  0  0  0
 21 23  2  0  0  0  0
 21 40  1  0  0  0  0
 22 48  1  0  0  0  0
 23 41  1  0  0  0  0
 24 71  1  0  0  0  0
 25 30  2  0  0  0  0
 25 68  1  0  0  0  0
 26 78  1  0  0  0  0
 27 79  1  0  0  0  0
 28 31  2  0  0  0  0
 28 78  1  0  0  0  0
 29 80  1  0  0  0  0
 30 81  1  0  0  0  0
 31 82  1  0  0  0  0
 32 62  2  0  0  0  0
 33 63  1  0  0  0  0
 33 66  1  0  0  0  0
 34 67  1  0  0  0  0
 34 73  2  0  0  0  0
 35 49  1  0  0  0  0
 35 69  1  0  0  0  0
 35 74  2  0  0  0  0
 36 59  1  0  0  0  0
 36 64  1  0  0  0  0
 36 75  2  0  0  0  0
 37 60  1  0  0  0  0
 37 70  1  0  0  0  0
 37 76  2  0  0  0  0
 38 65  1  0  0  0  0
 38 68  1  0  0  0  0
 38 77  2  0  0  0  0
 39 42  1  0  0  0  0
 40 49  1  0  0  0  0
 41 64  1  0  0  0  0
 42 44  1  0  0  0  0
 43 45  1  0  0  0  0
 43 46  1  0  0  0  0
 44 48  1  0  0  0  0
 45 50  1  0  0  0  0
 46 65  1  0  0  0  0
 47 50  1  0  0  0  0
 47 65  1  0  0  0  0
 48 69  1  0  0  0  0
 49 64  1  0  0  0  0
 50 63  1  0  0  0  0
 51 60  1  0  0  0  0
 52 61  1  0  0  0  0
 53 61  1  0  0  0  0
 54 61  1  0  0  0  0
 55 71  1  0  0  0  0
 56 72  1  0  0  0  0
 57 58  1  0  0  0  0
 57 71  1  0  0  0  0
 58 79  1  0  0  0  0
 59 61  1  0  0  0  0
 59 70  1  0  0  0  0
 60 72  1  0  0  0  0
 62 63  1  0  0  0  0
M  CHG  1  72   1
M  ISO  4  38 100  58 101  68 100  79 101
M  END
> <Batch ID>
0008

> <Smiles>
CNC(C)C(=O)NC(C(=O)N1Cc2cc([101O:1][101CH2:1]CN(C)c3ccc(F)c([100NH:0][100C:0](=O)N4CCCC(n5nc(-c6ccc(Oc7ccc(F)cc7F)cc6)c(C(N)=O)c5N)C4)c3)ccc2CC1C(=O)NC1CCCc2ccccc21)C(C)(C)C

> <Shape>
0.226

> <Color>
0.089

> <Negative vol penalty>
0.000

$$$$

  -OEChem-04052315363D

 76 83  0     1  0  0  0  0  0999 V2000
  -33.0392   -5.9105   28.4753 C   0  0  0  0  0  0  0  0  0  0  0  0
  -32.3001   -6.9593   27.9375 C   0  0  0  0  0  0  0  0  0  0  0  0
  -23.2263   -9.8325   19.9141 C   0  0  0  0  0  0  0  0  0  0  0  0
  -23.7982   -9.9276   22.2595 C   0  0  0  0  0  0  0  0  0  0  0  0
  -32.4003   -4.7291   28.8497 C   0  0  0  0  0  0  0  0  0  0  0  0
  -30.9218   -6.8269   27.7728 C   0  0  0  0  0  0  0  0  0  0  0  0
  -28.3791  -10.9286   29.3077 C   0  0  0  0  0  0  0  0  0  0  0  0
  -22.5036   -8.6607   20.1379 C   0  0  0  0  0  0  0  0  0  0  0  0
  -23.0754   -8.7558   22.4833 C   0  0  0  0  0  0  0  0  0  0  0  0
  -28.3686  -12.0287   28.4512 C   0  0  0  0  0  0  0  0  0  0  0  0
  -19.4761   -7.7987   21.3725 C   0  0  0  0  0  0  0  0  0  0  0  0
  -18.2149   -7.6931   20.7863 C   0  0  0  0  0  0  0  0  0  0  0  0
  -26.1672  -11.4049   27.6869 C   0  0  0  0  0  0  0  0  0  0  0  0
  -18.9438   -5.7366   19.5706 C   0  0  0  0  0  0  0  0  0  0  0  0
  -23.8737  -10.4660   20.9750 C   0  0  0  0  0  0  0  0  0  0  0  0
  -24.1398  -12.9976   20.8083 C   0  0  0  0  0  0  0  0  0  0  0  0
  -31.0120   -4.5858   28.6984 C   0  0  0  0  0  0  0  0  0  0  0  0
  -27.2865  -10.0508   29.3523 C   0  0  0  0  0  0  0  0  0  0  0  0
  -30.2639   -5.6421   28.1443 C   0  0  0  0  0  0  0  0  0  0  0  0
  -26.1653  -10.2959   28.5466 C   0  0  0  0  0  0  0  0  0  0  0  0
  -22.4281   -8.1224   21.4224 C   0  0  0  0  0  0  0  0  0  0  0  0
  -27.2637  -12.2654   27.6386 C   0  0  0  0  0  0  0  0  0  0  0  0
  -20.4712   -6.8733   21.0577 C   0  0  0  0  0  0  0  0  0  0  0  0
  -17.9487   -6.6621   19.8853 C   0  0  0  0  0  0  0  0  0  0  0  0
  -20.2050   -5.8423   20.1568 C   0  0  0  0  0  0  0  0  0  0  0  0
  -24.6210  -11.6761   20.7444 C   0  0  0  0  0  0  0  0  0  0  0  0
  -25.2321  -13.7755   20.5113 C   0  0  0  0  0  0  0  0  0  0  0  0
  -22.8232  -13.4789   21.1093 C   0  0  0  0  0  0  0  0  0  0  0  0
  -26.8629   -6.9629   28.7283 C   0  0  0  0  0  0  0  0  0  0  0  0
  -23.8922   -7.5334   29.8995 C   0  0  0  0  0  0  0  0  0  0  0  0
  -21.4107   -9.7898   30.5305 C   0  0  0  0  0  0  0  0  0  0  0  0
  -31.0492  -13.4662   21.5836 C   0  0  0  0  0  0  0  0  0  0  0  0
  -30.3726   -3.2724   29.0736 C   0  0  0  0  0  0  0  0  0  0  0  0
  -27.3022   -8.8837   30.3010 C   0  0  0  0  0  0  0  0  0  0  0  0
  -24.9585   -9.3950   28.5718 C   0  0  0  0  0  0  0  0  0  0  0  0
  -28.8547   -3.3520   29.2140 C   0  0  0  0  0  0  0  0  0  0  0  0
  -29.5447  -13.0291   18.2299 C   0  0  0  0  0  0  0  0  0  0  0  0
  -28.2480   -4.1028   28.0329 C   0  0  0  0  0  0  0  0  0  0  0  0
  -28.0923  -12.6876   18.5583 C   0  0  0  0  0  0  0  0  0  0  0  0
  -30.4949  -12.5950   19.3418 C   0  0  0  0  0  0  0  0  0  0  0  0
  -28.6819  -12.7857   21.0125 C   0  0  0  0  0  0  0  0  0  0  0  0
  -28.7634   -5.5458   27.9729 C   0  0  1  0  0  0  0  0  0  0  0  0
  -26.3488   -7.7662   29.8895 C   0  0  1  0  0  0  0  0  0  0  0  0
  -27.6935  -13.2517   19.9330 C   0  0  2  0  0  0  0  0  0  0  0  0
  -19.0852   -9.9519   31.4594 C   0  0  0  0  0  0  0  0  0  0  0  0
  -22.7821   -6.3332   27.3232 C   0  0  0  0  0  0  0  0  0  0  0  0
  -20.5709   -7.3693   27.8754 C   0  0  0  0  0  0  0  0  0  0  0  0
  -21.5605   -5.6597   29.3988 C   0  0  0  0  0  0  0  0  0  0  0  0
  -31.5813  -14.3604   23.8189 C   0  0  0  0  0  0  0  0  0  0  0  0
  -22.2756  -11.6210   32.6887 C   0  0  0  0  0  0  0  0  0  0  0  0
  -28.5758  -13.5889   24.2038 C   0  0  0  0  0  0  0  0  0  0  0  0
  -27.1466  -14.0477   24.4952 C   0  0  0  0  0  0  0  0  0  0  0  0
  -29.2280  -14.3872   23.0794 C   0  0  0  0  0  0  0  0  0  0  0  0
  -26.5029  -13.2099   25.5929 C   0  0  0  0  0  0  0  0  0  1  0  0
  -22.5755   -7.9734   29.3064 C   0  0  1  0  0  0  0  0  0  0  0  0
  -20.5711  -10.0434   31.7696 C   0  0  2  0  0  0  0  0  0  0  0  0
  -21.8956   -6.8500   28.4738 C   0  0  0  0  0  0  0  0  0  0  0  0
  -25.9179  -11.6142   20.4312 N   0  0  0  0  0  0  0  0  0  0  0  0
  -26.2610  -12.9065   20.2955 N   0  0  0  0  0  0  0  0  0  0  0  0
  -25.0245   -8.2636   29.5115 N   0  0  0  0  0  0  0  0  0  0  0  0
  -30.0683  -13.1091   20.6438 N   0  0  0  0  0  0  0  0  0  0  0  0
  -25.4033  -15.1111   20.4161 N   0  0  0  0  0  0  0  0  0  0  0  0
  -21.8183  -12.5436   21.3915 N   0  0  0  0  0  0  0  0  0  0  0  0
  -28.0877   -6.3652   28.9561 N   0  0  0  0  0  0  0  0  0  0  0  0
  -21.7696   -8.4631   30.4196 N   0  0  0  0  0  0  0  0  0  0  0  0
  -30.6022  -13.9657   22.8162 N   0  0  0  0  0  0  0  0  0  0  0  0
  -20.8541  -11.3999   32.3182 N   0  3  0  0  0  0  0  0  0  0  0  0
  -22.5423  -14.7014   21.1114 O   0  0  0  0  0  0  0  0  0  0  0  0
  -26.1969   -6.8896   27.7023 O   0  0  0  0  0  0  0  0  0  0  0  0
  -23.9142   -6.5816   30.6838 O   0  0  0  0  0  0  0  0  0  0  0  0
  -21.7145  -10.6789   29.7382 O   0  0  0  0  0  0  0  0  0  0  0  0
  -32.2558  -13.3544   21.3314 O   0  0  0  0  0  0  0  0  0  0  0  0
  -21.7227   -6.9791   21.6412 O   0  0  0  0  0  0  0  0  0  0  0  0
  -27.2511  -13.3380   26.8012 O   0  0  0  0  0  0  0  0  0  1  0  0
  -16.7370   -6.5599   19.3236 F   0  0  0  0  0  0  0  0  0  0  0  0
  -21.1567   -4.9496   19.8514 F   0  0  0  0  0  0  0  0  0  0  0  0
  1  2  1  0  0  0  0
  1  5  2  0  0  0  0
  2  6  2  0  0  0  0
  3  8  2  0  0  0  0
  3 15  1  0  0  0  0
  4  9  1  0  0  0  0
  4 15  2  0  0  0  0
  5 17  1  0  0  0  0
  6 19  1  0  0  0  0
  7 10  2  0  0  0  0
  7 18  1  0  0  0  0
  8 21  1  0  0  0  0
  9 21  2  0  0  0  0
 10 22  1  0  0  0  0
 11 12  2  0  0  0  0
 11 23  1  0  0  0  0
 12 24  1  0  0  0  0
 13 20  1  0  0  0  0
 13 22  2  0  0  0  0
 14 24  2  0  0  0  0
 14 25  1  0  0  0  0
 15 26  1  0  0  0  0
 16 26  1  0  0  0  0
 16 27  2  0  0  0  0
 16 28  1  0  0  0  0
 17 19  2  0  0  0  0
 17 33  1  0  0  0  0
 18 20  2  0  0  0  0
 18 34  1  0  0  0  0
 19 42  1  0  0  0  0
 20 35  1  0  0  0  0
 21 73  1  0  0  0  0
 22 74  1  0  0  0  0
 23 25  2  0  0  0  0
 23 73  1  0  0  0  0
 24 75  1  0  0  0  0
 25 76  1  0  0  0  0
 26 58  2  0  0  0  0
 27 59  1  0  0  0  0
 27 62  1  0  0  0  0
 28 63  1  0  0  0  0
 28 68  2  0  0  0  0
 29 43  1  0  0  0  0
 29 64  1  0  0  0  0
 29 69  2  0  0  0  0
 30 55  1  0  0  0  0
 30 60  1  0  0  0  0
 30 70  2  0  0  0  0
 31 56  1  0  0  0  0
 31 65  1  0  0  0  0
 31 71  2  0  0  0  0
 32 61  1  0  0  0  0
 32 66  1  0  0  0  0
 32 72  2  0  0  0  0
 33 36  1  0  0  0  0
 34 43  1  0  0  0  0
 35 60  1  0  0  0  0
 36 38  1  0  0  0  0
 37 39  1  0  0  0  0
 37 40  1  0  0  0  0
 38 42  1  0  0  0  0
 39 44  1  0  0  0  0
 40 61  1  0  0  0  0
 41 44  1  0  0  0  0
 41 61  1  0  0  0  0
 42 64  1  0  0  0  0
 43 60  1  0  0  0  0
 44 59  1  0  0  0  0
 45 56  1  0  0  0  0
 46 57  1  0  0  0  0
 47 57  1  0  0  0  0
 48 57  1  0  0  0  0
 49 66  1  0  0  0  0
 50 67  1  0  0  0  0
 51 52  1  0  0  0  0
 51 53  1  0  0  0  0
 52 54  1  0  0  0  0
 53 66  1  0  0  0  0
 54 74  1  0  0  0  0
 55 57  1  0  0  0  0
 55 65  1  0  0  0  0
 56 67  1  0  0  0  0
 58 59  1  0  0  0  0
M  CHG  1  67   1
M  ISO  4  32 100  54 101  66 100  74 101
M  END
> <Batch ID>
0008

> <Smiles>
CNC(C)C(=O)NC(C(=O)N1Cc2cc([101O:1][101CH2:1]CCC[100N:0](C)[100C:0](=O)N3CCCC(n4nc(-c5ccc(Oc6ccc(F)cc6F)cc5)c(C(N)=O)c4N)C3)ccc2CC1C(=O)NC1CCCc2ccccc21)C(C)(C)C

> <Shape>
0.129

> <Color>
0.190

> <Negative vol penalty>
0.000

$$$$

  -OEChem-04052315363D

 93101  0     1  0  0  0  0  0999 V2000
  -27.2242  -34.3310   25.2693 C   0  0  0  0  0  0  0  0  0  0  0  0
  -27.5482  -33.0985   24.7114 C   0  0  0  0  0  0  0  0  0  0  0  0
  -26.2629   -8.0771   19.1404 C   0  0  0  0  0  0  0  0  0  0  0  0
  -28.2199   -9.3942   19.6620 C   0  0  0  0  0  0  0  0  0  0  0  0
  -25.9213  -34.5795   25.6989 C   0  0  0  0  0  0  0  0  0  0  0  0
  -26.5697  -32.1132   24.5839 C   0  0  0  0  0  0  0  0  0  0  0  0
  -26.6753  -29.8444   20.0578 C   0  0  0  0  0  0  0  0  0  0  0  0
  -27.0128   -7.3188   18.2414 C   0  0  0  0  0  0  0  0  0  0  0  0
  -28.9699   -8.6358   18.7631 C   0  0  0  0  0  0  0  0  0  0  0  0
  -27.6619  -28.8812   19.8512 C   0  0  0  0  0  0  0  0  0  0  0  0
  -29.2396   -4.7779   18.3775 C   0  0  0  0  0  0  0  0  0  0  0  0
  -29.0866   -3.3920   18.4132 C   0  0  0  0  0  0  0  0  0  0  0  0
  -26.0439  -27.1423   20.2729 C   0  0  0  0  0  0  0  0  0  0  0  0
  -27.6001  -17.4589   21.5627 C   0  0  0  0  0  0  0  0  0  0  0  0
  -27.6550  -19.8570   21.8510 C   0  0  0  0  0  0  0  0  0  0  0  0
  -25.5928  -18.7617   21.2306 C   0  0  0  0  0  0  0  0  0  0  0  0
  -28.3452   -3.4146   16.1138 C   0  0  0  0  0  0  0  0  0  0  0  0
  -26.8664   -9.1149   19.8507 C   0  0  0  0  0  0  0  0  0  0  0  0
  -25.8974   -9.6456   22.1500 C   0  0  0  0  0  0  0  0  0  0  0  0
  -24.9241  -33.6003   25.5678 C   0  0  0  0  0  0  0  0  0  0  0  0
  -25.3660  -29.4635   20.3847 C   0  0  0  0  0  0  0  0  0  0  0  0
  -25.2526  -32.3484   25.0135 C   0  0  0  0  0  0  0  0  0  0  0  0
  -25.0420  -28.1026   20.4805 C   0  0  0  0  0  0  0  0  0  0  0  0
  -28.3058  -18.6234   21.8655 C   0  0  0  0  0  0  0  0  0  0  0  0
  -26.2436  -17.5281   21.2451 C   0  0  0  0  0  0  0  0  0  0  0  0
  -26.2984  -19.9262   21.5335 C   0  0  0  0  0  0  0  0  0  0  0  0
  -28.3663   -7.5981   18.0528 C   0  0  0  0  0  0  0  0  0  0  0  0
  -27.3469  -27.5300   19.9616 C   0  0  0  0  0  0  0  0  0  0  0  0
  -28.9453   -5.4823   17.2100 C   0  0  0  0  0  0  0  0  0  0  0  0
  -28.6394   -2.7103   17.2814 C   0  0  0  0  0  0  0  0  0  0  0  0
  -28.4981   -4.8006   16.0782 C   0  0  0  0  0  0  0  0  0  0  0  0
  -26.0921   -9.8989   20.7790 C   0  0  0  0  0  0  0  0  0  0  0  0
  -25.0928  -10.6731   22.5782 C   0  0  0  0  0  0  0  0  0  0  0  0
  -26.3991   -8.5771   22.9638 C   0  0  0  0  0  0  0  0  0  0  0  0
  -23.4491  -29.9331   22.8764 C   0  0  0  0  0  0  0  0  0  0  0  0
  -21.2671  -28.4622   20.9798 C   0  0  0  0  0  0  0  0  0  0  0  0
  -30.6774  -18.6734   20.9992 C   0  0  0  0  0  0  0  0  0  0  0  0
  -20.6516  -26.3480   18.3725 C   0  0  0  0  0  0  0  0  0  0  0  0
  -24.1782  -16.2374   20.6013 C   0  0  0  0  0  0  0  0  0  0  0  0
  -23.5409  -33.8982   26.0900 C   0  0  0  0  0  0  0  0  0  0  0  0
  -24.3071  -30.5141   20.5781 C   0  0  0  0  0  0  0  0  0  0  0  0
  -23.6465  -27.6409   20.8093 C   0  0  0  0  0  0  0  0  0  0  0  0
  -22.4749  -32.9340   25.5760 C   0  0  0  0  0  0  0  0  0  0  0  0
  -21.7221  -13.6924   21.0108 C   0  0  0  0  0  0  0  0  0  0  0  0
  -22.9600  -31.4922   25.6893 C   0  0  0  0  0  0  0  0  0  0  0  0
  -22.5466  -12.4085   21.1287 C   0  0  0  0  0  0  0  0  0  0  0  0
  -22.3388  -14.6730   20.0149 C   0  0  0  0  0  0  0  0  0  0  0  0
  -24.5772  -13.7070   20.3691 C   0  0  0  0  0  0  0  0  0  0  0  0
  -24.2131  -31.2631   24.8356 C   0  0  1  0  0  0  0  0  0  0  0  0
  -23.1264  -30.0260   21.4119 C   0  0  1  0  0  0  0  0  0  0  0  0
  -24.0307  -12.7155   21.4092 C   0  0  2  0  0  0  0  0  0  0  0  0
  -18.7672  -25.3103   17.0803 C   0  0  0  0  0  0  0  0  0  0  0  0
  -24.9195  -22.6098   23.3301 C   0  0  0  0  0  0  0  0  0  0  0  0
  -26.5202  -23.4252   21.5642 C   0  0  0  0  0  0  0  0  0  0  0  0
  -20.7628  -26.5207   23.2790 C   0  0  0  0  0  0  0  0  0  0  0  0
  -19.6305  -24.9940   21.6494 C   0  0  0  0  0  0  0  0  0  0  0  0
  -18.7026  -27.2700   22.0754 C   0  0  0  0  0  0  0  0  0  0  0  0
  -24.5192  -21.4020   20.6298 C   0  0  0  0  0  0  0  0  0  0  0  0
  -21.5266  -27.6223   15.8487 C   0  0  0  0  0  0  0  0  0  0  0  0
  -29.7702  -18.5487   22.2081 C   0  0  0  0  0  0  0  0  0  0  0  0
  -30.9000  -23.3612   18.6052 C   0  0  0  0  0  0  0  0  0  0  0  0
  -31.4252  -22.3797   19.6552 C   0  0  0  0  0  0  0  0  0  0  0  0
  -30.4265  -24.6643   19.2529 C   0  0  0  0  0  0  0  0  0  0  0  0
  -31.9000  -21.0517   19.0606 C   0  0  0  0  0  0  0  0  0  0  0  0
  -29.8713  -25.6332   18.2112 C   0  0  0  0  0  0  0  0  0  0  0  0
  -32.4956  -20.1039   20.0948 C   0  0  0  0  0  0  0  0  0  0  0  0
  -29.3588  -26.9148   18.8527 C   0  0  0  0  0  0  0  0  0  1  0  0
  -20.8420  -27.0320   20.7495 C   0  0  1  0  0  0  0  0  0  0  0  0
  -19.7401  -26.4761   17.1653 C   0  0  2  0  0  0  0  0  0  0  0  0
  -26.0686  -22.2392   22.4038 C   0  0  0  0  0  0  0  0  0  0  0  0
  -20.0113  -26.4626   21.9340 C   0  0  0  0  0  0  0  0  0  0  0  0
  -25.4618  -11.0009   20.3636 N   0  0  0  0  0  0  0  0  0  0  0  0
  -24.8632  -11.4490   21.4803 N   0  0  0  0  0  0  0  0  0  0  0  0
  -22.6476  -28.7063   20.9956 N   0  0  0  0  0  0  0  0  0  0  0  0
  -23.7440  -14.9194   20.3458 N   0  0  0  0  0  0  0  0  0  0  0  0
  -24.5664  -10.9795   23.7829 N   0  0  0  0  0  0  0  0  0  0  0  0
  -27.2119   -7.6054   22.3641 N   0  0  0  0  0  0  0  0  0  0  0  0
  -25.5274  -16.3449   20.9374 N   0  0  0  0  0  0  0  0  0  0  0  0
  -23.8559  -31.1276   23.4398 N   0  0  0  0  0  0  0  0  0  0  0  0
  -31.5318  -19.7660   21.1066 N   0  0  0  0  0  0  0  0  0  0  0  0
  -20.1450  -27.0147   19.4680 N   0  0  0  0  0  0  0  0  0  0  0  0
  -25.6404  -21.1740   21.5192 N   0  0  3  0  0  0  0  0  0  0  0  0
  -20.5438  -26.5100   15.9107 N   0  3  0  0  0  0  0  0  0  0  0  0
  -26.1209   -8.4775   24.1829 O   0  0  0  0  0  0  0  0  0  0  0  0
  -23.3360  -28.8578   23.4530 O   0  0  0  0  0  0  0  0  0  0  0  0
  -20.4057  -29.3319   21.1327 O   0  0  0  0  0  0  0  0  0  0  0  0
  -30.6526  -17.8944   20.0497 O   0  0  0  0  0  0  0  0  0  0  0  0
  -21.7056  -25.7163   18.3473 O   0  0  0  0  0  0  0  0  0  0  0  0
  -23.4038  -17.1965   20.5541 O   0  0  0  0  0  0  0  0  0  0  0  0
  -29.0985   -6.8582   17.1759 O   0  0  0  0  0  0  0  0  0  0  0  0
  -28.3081  -26.5877   19.7612 O   0  0  0  0  0  0  0  0  0  1  0  0
  -28.4940   -1.3792   17.3153 F   0  0  0  0  0  0  0  0  0  0  0  0
  -28.2150   -5.4717   14.9533 F   0  0  0  0  0  0  0  0  0  0  0  0
  1  2  1  0  0  0  0
  1  5  2  0  0  0  0
  2  6  2  0  0  0  0
  3  8  2  0  0  0  0
  3 18  1  0  0  0  0
  4  9  1  0  0  0  0
  4 18  2  0  0  0  0
  5 20  1  0  0  0  0
  6 22  1  0  0  0  0
  7 10  2  0  0  0  0
  7 21  1  0  0  0  0
  8 27  1  0  0  0  0
  9 27  2  0  0  0  0
 10 28  1  0  0  0  0
 11 12  2  0  0  0  0
 11 29  1  0  0  0  0
 12 30  1  0  0  0  0
 13 23  1  0  0  0  0
 13 28  2  0  0  0  0
 14 24  1  0  0  0  0
 14 25  2  0  0  0  0
 15 24  2  0  0  0  0
 15 26  1  0  0  0  0
 16 25  1  0  0  0  0
 16 26  2  0  0  0  0
 17 30  2  0  0  0  0
 17 31  1  0  0  0  0
 18 32  1  0  0  0  0
 19 32  1  0  0  0  0
 19 33  2  0  0  0  0
 19 34  1  0  0  0  0
 20 22  2  0  0  0  0
 20 40  1  0  0  0  0
 21 23  2  0  0  0  0
 21 41  1  0  0  0  0
 22 49  1  0  0  0  0
 23 42  1  0  0  0  0
 24 60  1  0  0  0  0
 25 78  1  0  0  0  0
 26 82  1  0  0  0  0
 27 90  1  0  0  0  0
 28 91  1  0  0  0  0
 29 31  2  0  0  0  0
 29 90  1  0  0  0  0
 30 92  1  0  0  0  0
 31 93  1  0  0  0  0
 32 72  2  0  0  0  0
 33 73  1  0  0  0  0
 33 76  1  0  0  0  0
 34 77  1  0  0  0  0
 34 84  2  0  0  0  0
 35 50  1  0  0  0  0
 35 79  1  0  0  0  0
 35 85  2  0  0  0  0
 36 68  1  0  0  0  0
 36 74  1  0  0  0  0
 36 86  2  0  0  0  0
 37 60  1  0  0  0  0
 37 80  1  0  0  0  0
 37 87  2  0  0  0  0
 38 69  1  0  0  0  0
 38 81  1  0  0  0  0
 38 88  2  0  0  0  0
 39 75  1  0  0  0  0
 39 78  1  0  0  0  0
 39 89  2  0  0  0  0
 40 43  1  0  0  0  0
 41 50  1  0  0  0  0
 42 74  1  0  0  0  0
 43 45  1  0  0  0  0
 44 46  1  0  0  0  0
 44 47  1  0  0  0  0
 45 49  1  0  0  0  0
 46 51  1  0  0  0  0
 47 75  1  0  0  0  0
 48 51  1  0  0  0  0
 48 75  1  0  0  0  0
 49 79  1  0  0  0  0
 50 74  1  0  0  0  0
 51 73  1  0  0  0  0
 52 69  1  0  0  0  0
 53 70  1  0  0  0  0
 54 70  1  0  0  0  0
 55 71  1  0  0  0  0
 56 71  1  0  0  0  0
 57 71  1  0  0  0  0
 58 82  1  0  0  0  0
 59 83  1  0  0  0  0
 61 62  1  0  0  0  0
 61 63  1  0  0  0  0
 62 64  1  0  0  0  0
 63 65  1  0  0  0  0
 64 66  1  0  0  0  0
 65 67  1  0  0  0  0
 66 80  1  0  0  0  0
 67 91  1  0  0  0  0
 68 71  1  0  0  0  0
 68 81  1  0  0  0  0
 69 83  1  0  0  0  0
 70 82  1  0  0  0  0
 72 73  1  0  0  0  0
M  CHG  1  83   1
M  ISO  4  39 100  67 101  78 100  91 101
M  END
> <Batch ID>
0008

> <Smiles>
CNC(C)C(=O)NC(C(=O)N1Cc2cc([101O:1][101CH2:1]CCCCCCNC(=O)Cc3cc([100NH:0][100C:0](=O)N4CCCC(n5nc(-c6ccc(Oc7ccc(F)cc7F)cc6)c(C(N)=O)c5N)C4)cc(N(C)C(C)C)c3)ccc2CC1C(=O)NC1CCCc2ccccc21)C(C)(C)C

> <Shape>
0.234

> <Color>
0.084

> <Negative vol penalty>
0.000

$$$$

  -OEChem-04052315363D

 82 90  0     1  0  0  0  0  0999 V2000
  -24.5381  -32.0498   29.0889 C   0  0  0  0  0  0  0  0  0  0  0  0
  -25.2960  -31.2010   28.2887 C   0  0  0  0  0  0  0  0  0  0  0  0
  -24.5931   -8.9874   21.5671 C   0  0  0  0  0  0  0  0  0  0  0  0
  -23.9124  -10.7040   23.1250 C   0  0  0  0  0  0  0  0  0  0  0  0
  -23.2195  -32.3406   28.7414 C   0  0  0  0  0  0  0  0  0  0  0  0
  -24.7355  -30.6417   27.1409 C   0  0  0  0  0  0  0  0  0  0  0  0
  -27.5943  -29.4318   21.8617 C   0  0  0  0  0  0  0  0  0  0  0  0
  -28.2880  -21.0361   19.7648 C   0  0  0  0  0  0  0  0  0  0  0  0
  -28.5347  -19.6632   19.7597 C   0  0  0  0  0  0  0  0  0  0  0  0
  -24.1596   -8.0063   22.4588 C   0  0  0  0  0  0  0  0  0  0  0  0
  -23.4788   -9.7229   24.0166 C   0  0  0  0  0  0  0  0  0  0  0  0
  -28.1342  -28.2594   21.3347 C   0  0  0  0  0  0  0  0  0  0  0  0
  -22.9012   -5.0572   24.1718 C   0  0  0  0  0  0  0  0  0  0  0  0
  -22.1543   -3.9976   23.6572 C   0  0  0  0  0  0  0  0  0  0  0  0
  -26.0932  -27.8786   20.1066 C   0  0  0  0  0  0  0  0  0  0  0  0
  -26.0111  -20.6295   19.0669 C   0  0  0  0  0  0  0  0  0  0  0  0
  -20.4769   -5.5552   22.8844 C   0  0  0  0  0  0  0  0  0  0  0  0
  -24.4696  -10.3363   21.9003 C   0  0  0  0  0  0  0  0  0  0  0  0
  -24.1638  -11.9715   19.9662 C   0  0  0  0  0  0  0  0  0  0  0  0
  -22.6456  -31.7923   27.5836 C   0  0  0  0  0  0  0  0  0  0  0  0
  -26.2934  -29.8313   21.5231 C   0  0  0  0  0  0  0  0  0  0  0  0
  -23.4076  -30.9244   26.7783 C   0  0  0  0  0  0  0  0  0  0  0  0
  -25.5400  -29.0578   20.6287 C   0  0  0  0  0  0  0  0  0  0  0  0
  -26.2578  -19.2566   19.0617 C   0  0  0  0  0  0  0  0  0  0  0  0
  -27.0262  -21.5192   19.4184 C   0  0  0  0  0  0  0  0  0  0  0  0
  -27.5196  -18.7735   19.4082 C   0  0  0  0  0  0  0  0  0  0  0  0
  -23.6024   -8.3740   23.6835 C   0  0  0  0  0  0  0  0  0  0  0  0
  -27.3826  -27.4811   20.4592 C   0  0  0  0  0  0  0  0  0  0  0  0
  -22.4359   -6.3659   24.0429 C   0  0  0  0  0  0  0  0  0  0  0  0
  -20.9422   -4.2466   23.0134 C   0  0  0  0  0  0  0  0  0  0  0  0
  -21.2238   -6.6149   23.3991 C   0  0  0  0  0  0  0  0  0  0  0  0
  -24.9178  -11.3503   20.9799 C   0  0  0  0  0  0  0  0  0  0  0  0
  -25.0385  -12.8526   19.3788 C   0  0  0  0  0  0  0  0  0  0  0  0
  -22.7952  -11.7701   19.5894 C   0  0  0  0  0  0  0  0  0  0  0  0
  -23.5981  -30.3002   23.1414 C   0  0  0  0  0  0  0  0  0  0  0  0
  -22.5265  -31.3870   20.2790 C   0  0  0  0  0  0  0  0  0  0  0  0
  -27.6645  -23.9309   19.7502 C   0  0  0  0  0  0  0  0  0  0  0  0
  -22.8241  -31.3739   16.8793 C   0  0  0  0  0  0  0  0  0  0  0  0
  -28.9931  -16.7562   19.7335 C   0  0  0  0  0  0  0  0  0  0  0  0
  -21.2015  -32.0983   27.2743 C   0  0  0  0  0  0  0  0  0  0  0  0
  -25.7354  -31.1126   22.0793 C   0  0  0  0  0  0  0  0  0  0  0  0
  -24.1461  -29.4535   20.2175 C   0  0  0  0  0  0  0  0  0  0  0  0
  -20.8013  -31.7621   25.8400 C   0  0  0  0  0  0  0  0  0  0  0  0
  -30.0481  -13.3595   19.8965 C   0  0  0  0  0  0  0  0  0  0  0  0
  -21.3117  -30.3774   25.4541 C   0  0  0  0  0  0  0  0  0  0  0  0
  -28.7454  -12.5851   20.1095 C   0  0  0  0  0  0  0  0  0  0  0  0
  -30.0425  -14.6941   20.6399 C   0  0  0  0  0  0  0  0  0  0  0  0
  -27.5812  -14.7789   20.5775 C   0  0  0  0  0  0  0  0  0  0  0  0
  -22.8429  -30.3179   25.5121 C   0  0  1  0  0  0  0  0  0  0  0  0
  -24.2104  -31.1548   22.0679 C   0  0  1  0  0  0  0  0  0  0  0  0
  -27.5138  -13.4569   19.7955 C   0  0  2  0  0  0  0  0  0  0  0  0
  -25.1515  -18.3263   18.6830 C   0  0  0  0  0  0  0  0  0  0  0  0
  -21.7817  -32.3309   14.8069 C   0  0  0  0  0  0  0  0  0  0  0  0
  -20.2014  -29.4295   20.5476 C   0  0  0  0  0  0  0  0  0  0  0  0
  -19.7540  -29.7337   18.1031 C   0  0  0  0  0  0  0  0  0  0  0  0
  -19.5731  -31.6792   19.6539 C   0  0  0  0  0  0  0  0  0  0  0  0
  -25.3330  -32.7418   16.1090 C   0  0  0  0  0  0  0  0  0  0  0  0
  -26.9925  -25.2862   19.6310 C   0  0  0  0  0  0  0  0  0  1  0  0
  -21.8573  -30.7599   19.0799 C   0  0  1  0  0  0  0  0  0  0  0  0
  -22.8584  -32.5045   15.8668 C   0  0  2  0  0  0  0  0  0  0  0  0
  -20.3720  -30.3918   19.3552 C   0  0  0  0  0  0  0  0  0  0  0  0
  -26.1747  -11.7986   21.0358 N   0  0  0  0  0  0  0  0  0  0  0  0
  -26.2173  -12.7109   20.0499 N   0  0  0  0  0  0  0  0  0  0  0  0
  -23.6423  -30.7114   20.7932 N   0  0  0  0  0  0  0  0  0  0  0  0
  -28.8492  -15.4676   20.2898 N   0  0  0  0  0  0  0  0  0  0  0  0
  -24.9065  -13.7270   18.3588 N   0  0  0  0  0  0  0  0  0  0  0  0
  -22.0391  -10.8263   20.2978 N   0  0  0  0  0  0  0  0  0  0  0  0
  -26.7753  -22.9119   19.4263 N   0  0  0  0  0  0  0  0  0  0  0  0
  -27.7897  -17.3825   19.4107 N   0  0  0  0  0  0  0  0  0  0  0  0
  -23.4179  -30.9532   24.3458 N   0  0  0  0  0  0  0  0  0  0  0  0
  -22.0469  -31.6913   17.9731 N   0  0  0  0  0  0  0  0  0  0  0  0
  -24.1838  -32.5511   15.1871 N   0  3  0  0  0  0  0  0  0  0  0  0
  -22.2633  -12.3964   18.6416 O   0  0  0  0  0  0  0  0  0  0  0  0
  -23.3090  -29.1352   22.8947 O   0  0  0  0  0  0  0  0  0  0  0  0
  -22.0801  -32.4413   20.7381 O   0  0  0  0  0  0  0  0  0  0  0  0
  -28.8377  -23.8233   20.0920 O   0  0  0  0  0  0  0  0  0  0  0  0
  -23.4237  -30.3138   16.7145 O   0  0  0  0  0  0  0  0  0  0  0  0
  -30.1029  -17.2555   19.5313 O   0  0  0  0  0  0  0  0  0  0  0  0
  -23.1790   -7.4169   24.5537 O   0  0  0  0  0  0  0  0  0  0  0  0
  -27.9070  -26.3360   19.9439 O   0  0  0  0  0  0  0  0  0  1  0  0
  -20.2258   -3.2290   22.5179 F   0  0  0  0  0  0  0  0  0  0  0  0
  -20.7723   -7.8701   23.2711 F   0  0  0  0  0  0  0  0  0  0  0  0
  1  2  1  0  0  0  0
  1  5  2  0  0  0  0
  2  6  2  0  0  0  0
  3 10  2  0  0  0  0
  3 18  1  0  0  0  0
  4 11  1  0  0  0  0
  4 18  2  0  0  0  0
  5 20  1  0  0  0  0
  6 22  1  0  0  0  0
  7 12  2  0  0  0  0
  7 21  1  0  0  0  0
  8  9  2  0  0  0  0
  8 25  1  0  0  0  0
  9 26  1  0  0  0  0
 10 27  1  0  0  0  0
 11 27  2  0  0  0  0
 12 28  1  0  0  0  0
 13 14  2  0  0  0  0
 13 29  1  0  0  0  0
 14 30  1  0  0  0  0
 15 23  1  0  0  0  0
 15 28  2  0  0  0  0
 16 24  1  0  0  0  0
 16 25  2  0  0  0  0
 17 30  2  0  0  0  0
 17 31  1  0  0  0  0
 18 32  1  0  0  0  0
 19 32  1  0  0  0  0
 19 33  2  0  0  0  0
 19 34  1  0  0  0  0
 20 22  2  0  0  0  0
 20 40  1  0  0  0  0
 21 23  2  0  0  0  0
 21 41  1  0  0  0  0
 22 49  1  0  0  0  0
 23 42  1  0  0  0  0
 24 26  2  0  0  0  0
 24 52  1  0  0  0  0
 25 68  1  0  0  0  0
 26 69  1  0  0  0  0
 27 79  1  0  0  0  0
 28 80  1  0  0  0  0
 29 31  2  0  0  0  0
 29 79  1  0  0  0  0
 30 81  1  0  0  0  0
 31 82  1  0  0  0  0
 32 62  2  0  0  0  0
 33 63  1  0  0  0  0
 33 66  1  0  0  0  0
 34 67  1  0  0  0  0
 34 73  2  0  0  0  0
 35 50  1  0  0  0  0
 35 70  1  0  0  0  0
 35 74  2  0  0  0  0
 36 59  1  0  0  0  0
 36 64  1  0  0  0  0
 36 75  2  0  0  0  0
 37 58  1  0  0  0  0
 37 68  1  0  0  0  0
 37 76  2  0  0  0  0
 38 60  1  0  0  0  0
 38 71  1  0  0  0  0
 38 77  2  0  0  0  0
 39 65  1  0  0  0  0
 39 69  1  0  0  0  0
 39 78  2  0  0  0  0
 40 43  1  0  0  0  0
 41 50  1  0  0  0  0
 42 64  1  0  0  0  0
 43 45  1  0  0  0  0
 44 46  1  0  0  0  0
 44 47  1  0  0  0  0
 45 49  1  0  0  0  0
 46 51  1  0  0  0  0
 47 65  1  0  0  0  0
 48 51  1  0  0  0  0
 48 65  1  0  0  0  0
 49 70  1  0  0  0  0
 50 64  1  0  0  0  0
 51 63  1  0  0  0  0
 53 60  1  0  0  0  0
 54 61  1  0  0  0  0
 55 61  1  0  0  0  0
 56 61  1  0  0  0  0
 57 72  1  0  0  0  0
 58 80  1  0  0  0  0
 59 61  1  0  0  0  0
 59 71  1  0  0  0  0
 60 72  1  0  0  0  0
 62 63  1  0  0  0  0
M  CHG  1  72   1
M  ISO  4  39 100  58 101  69 100  80 101
M  END
> <Batch ID>
0008

> <Smiles>
CNC(C)C(=O)NC(C(=O)N1Cc2cc([101O:1][101CH2:1]C(=O)Nc3ccc([100NH:0][100C:0](=O)N4CCCC(n5nc(-c6ccc(Oc7ccc(F)cc7F)cc6)c(C(N)=O)c5N)C4)c(C)c3)ccc2CC1C(=O)NC1CCCc2ccccc21)C(C)(C)C

> <Shape>
0.257

> <Color>
0.117

> <Negative vol penalty>
0.000

$$$$

  -OEChem-04052315363D

 78 85  0     1  0  0  0  0  0999 V2000
  -28.5054  -37.6074   22.2887 C   0  0  0  0  0  0  0  0  0  0  0  0
  -28.6658  -36.6335   21.3082 C   0  0  0  0  0  0  0  0  0  0  0  0
  -25.9725  -14.0117   21.6228 C   0  0  0  0  0  0  0  0  0  0  0  0
  -26.2267  -12.6409   19.6496 C   0  0  0  0  0  0  0  0  0  0  0  0
  -28.1818  -37.2353   23.5928 C   0  0  0  0  0  0  0  0  0  0  0  0
  -28.5036  -35.2868   21.6316 C   0  0  0  0  0  0  0  0  0  0  0  0
  -26.2309  -29.1039   18.8170 C   0  0  0  0  0  0  0  0  0  0  0  0
  -24.7744  -13.3621   21.9198 C   0  0  0  0  0  0  0  0  0  0  0  0
  -25.0286  -11.9912   19.9466 C   0  0  0  0  0  0  0  0  0  0  0  0
  -26.6499  -27.7875   18.6292 C   0  0  0  0  0  0  0  0  0  0  0  0
  -23.9673   -9.5624   22.0430 C   0  0  0  0  0  0  0  0  0  0  0  0
  -23.9422   -8.1718   21.9365 C   0  0  0  0  0  0  0  0  0  0  0  0
  -26.0131  -27.2675   20.8971 C   0  0  0  0  0  0  0  0  0  0  0  0
  -22.1963   -8.3307   20.2740 C   0  0  0  0  0  0  0  0  0  0  0  0
  -26.6986  -13.6511   20.4877 C   0  0  0  0  0  0  0  0  0  0  0  0
  -29.2288  -13.9564   20.6005 C   0  0  0  0  0  0  0  0  0  0  0  0
  -28.0061  -35.8840   23.9302 C   0  0  0  0  0  0  0  0  0  0  0  0
  -25.7090  -29.5154   20.0518 C   0  0  0  0  0  0  0  0  0  0  0  0
  -28.1787  -34.8962   22.9418 C   0  0  0  0  0  0  0  0  0  0  0  0
  -25.5858  -28.5890   21.0972 C   0  0  0  0  0  0  0  0  0  0  0  0
  -24.3025  -12.3518   21.0817 C   0  0  0  0  0  0  0  0  0  0  0  0
  -26.5438  -26.8698   19.6702 C   0  0  0  0  0  0  0  0  0  0  0  0
  -23.1069  -10.3371   21.2650 C   0  0  0  0  0  0  0  0  0  0  0  0
  -23.0567   -7.5560   21.0520 C   0  0  0  0  0  0  0  0  0  0  0  0
  -22.2214   -9.7213   20.3806 C   0  0  0  0  0  0  0  0  0  0  0  0
  -27.9360  -14.3222   20.1801 C   0  0  0  0  0  0  0  0  0  0  0  0
  -30.0517  -14.9060   20.0458 C   0  0  0  0  0  0  0  0  0  0  0  0
  -29.6483  -12.8566   21.4191 C   0  0  0  0  0  0  0  0  0  0  0  0
  -26.5646  -31.6450   22.2510 C   0  0  0  0  0  0  0  0  0  0  0  0
  -23.7330  -30.8129   23.5972 C   0  0  0  0  0  0  0  0  0  0  0  0
  -26.5004  -21.5371   19.3835 C   0  0  0  0  0  0  0  0  0  0  0  0
  -21.2642  -28.4825   23.9450 C   0  0  0  0  0  0  0  0  0  0  0  0
  -28.4268  -20.5521   18.0654 C   0  0  0  0  0  0  0  0  0  0  0  0
  -27.7031  -35.5272   25.3639 C   0  0  0  0  0  0  0  0  0  0  0  0
  -25.2367  -30.9323   20.2300 C   0  0  0  0  0  0  0  0  0  0  0  0
  -25.0137  -28.9754   22.4358 C   0  0  0  0  0  0  0  0  0  0  0  0
  -27.1805  -34.1038   25.5399 C   0  0  0  0  0  0  0  0  0  0  0  0
  -29.9916  -17.8062   16.1589 C   0  0  0  0  0  0  0  0  0  0  0  0
  -28.0365  -33.1192   24.7495 C   0  0  0  0  0  0  0  0  0  0  0  0
  -30.0272  -16.6096   17.1110 C   0  0  0  0  0  0  0  0  0  0  0  0
  -30.0680  -19.1409   16.8865 C   0  0  0  0  0  0  0  0  0  0  0  0
  -28.5768  -18.0814   18.5966 C   0  0  0  0  0  0  0  0  0  0  0  0
  -27.9867  -33.4267   23.2480 C   0  0  1  0  0  0  0  0  0  0  0  0
  -25.1977  -31.3699   21.6909 C   0  0  1  0  0  0  0  0  0  0  0  0
  -29.6417  -16.9747   18.5551 C   0  0  1  0  0  0  0  0  0  0  0  0
  -24.5128  -20.0531   19.7654 C   0  0  0  0  0  0  0  0  0  0  0  0
  -26.0880  -20.5855   21.6711 C   0  0  0  0  0  0  0  0  0  0  0  0
  -19.0973  -28.0721   25.1422 C   0  0  0  0  0  0  0  0  0  0  0  0
  -25.2663  -30.2511   26.1747 C   0  0  0  0  0  0  0  0  0  0  0  0
  -23.2756  -28.9757   26.9987 C   0  0  0  0  0  0  0  0  0  0  0  0
  -23.0740  -31.4108   26.4966 C   0  0  0  0  0  0  0  0  0  0  0  0
  -19.7690  -28.2503   21.4015 C   0  0  0  0  0  0  0  0  0  0  0  0
  -27.3120  -23.6049   18.1745 C   0  0  0  0  0  0  0  0  0  0  0  0
  -26.8541  -25.0492   18.1717 C   0  0  0  0  0  0  0  0  0  1  0  0
  -23.2875  -29.7655   24.5889 C   0  0  1  0  0  0  0  0  0  0  0  0
  -25.4489  -21.0940   20.3787 C   0  0  0  0  0  0  0  0  0  0  0  0
  -19.7522  -28.5987   23.8748 C   0  0  2  0  0  0  0  0  0  0  0  0
  -23.7385  -30.0937   26.0402 C   0  0  0  0  0  0  0  0  0  0  0  0
  -27.9328  -15.4187   19.4173 N   0  0  0  0  0  0  0  0  0  0  0  0
  -29.2337  -15.7501   19.3542 N   0  0  0  0  0  0  0  0  0  0  0  0
  -24.5716  -30.3739   22.5628 N   0  0  0  0  0  0  0  0  0  0  0  0
  -28.9838  -19.2868   17.8596 N   0  0  0  0  0  0  0  0  0  0  0  0
  -31.3880  -15.0929   20.0872 N   0  0  0  0  0  0  0  0  0  0  0  0
  -28.6727  -11.9760   21.9061 N   0  0  0  0  0  0  0  0  0  0  0  0
  -26.7472  -32.9475   22.6748 N   0  0  0  0  0  0  0  0  0  0  0  0
  -27.3152  -20.5447   18.9879 N   0  0  0  0  0  0  0  0  0  0  0  0
  -21.8434  -29.6376   24.4264 N   0  0  0  0  0  0  0  0  0  0  0  0
  -26.4595  -22.8436   19.0841 N   0  3  0  0  0  0  0  0  0  0  0  0
  -19.2263  -27.8223   22.7165 N   0  3  0  0  0  0  0  0  0  0  0  0
  -30.8508  -12.6700   21.7236 O   0  0  0  0  0  0  0  0  0  0  0  0
  -27.3918  -30.7420   22.2968 O   0  0  0  0  0  0  0  0  0  0  0  0
  -23.3453  -31.9763   23.7312 O   0  0  0  0  0  0  0  0  0  0  0  0
  -21.8705  -27.4673   23.6102 O   0  0  0  0  0  0  0  0  0  0  0  0
  -28.7685  -21.5785   17.4939 O   0  0  0  0  0  0  0  0  0  0  0  0
  -23.1336  -11.7175   21.3713 O   0  0  0  0  0  0  0  0  0  0  0  0
  -26.9556  -25.5752   19.4884 O   0  0  0  0  0  0  0  0  0  1  0  0
  -23.0338   -6.2207   20.9487 F   0  0  0  0  0  0  0  0  0  0  0  0
  -21.3932  -10.4603   19.6297 F   0  0  0  0  0  0  0  0  0  0  0  0
  1  2  1  0  0  0  0
  1  5  2  0  0  0  0
  2  6  2  0  0  0  0
  3  8  2  0  0  0  0
  3 15  1  0  0  0  0
  4  9  1  0  0  0  0
  4 15  2  0  0  0  0
  5 17  1  0  0  0  0
  6 19  1  0  0  0  0
  7 10  2  0  0  0  0
  7 18  1  0  0  0  0
  8 21  1  0  0  0  0
  9 21  2  0  0  0  0
 10 22  1  0  0  0  0
 11 12  2  0  0  0  0
 11 23  1  0  0  0  0
 12 24  1  0  0  0  0
 13 20  1  0  0  0  0
 13 22  2  0  0  0  0
 14 24  2  0  0  0  0
 14 25  1  0  0  0  0
 15 26  1  0  0  0  0
 16 26  1  0  0  0  0
 16 27  2  0  0  0  0
 16 28  1  0  0  0  0
 17 19  2  0  0  0  0
 17 34  1  0  0  0  0
 18 20  2  0  0  0  0
 18 35  1  0  0  0  0
 19 43  1  0  0  0  0
 20 36  1  0  0  0  0
 21 75  1  0  0  0  0
 22 76  1  0  0  0  0
 23 25  2  0  0  0  0
 23 75  1  0  0  0  0
 24 77  1  0  0  0  0
 25 78  1  0  0  0  0
 26 59  2  0  0  0  0
 27 60  1  0  0  0  0
 27 63  1  0  0  0  0
 28 64  1  0  0  0  0
 28 70  2  0  0  0  0
 29 44  1  0  0  0  0
 29 65  1  0  0  0  0
 29 71  2  0  0  0  0
 30 55  1  0  0  0  0
 30 61  1  0  0  0  0
 30 72  2  0  0  0  0
 31 56  1  0  0  0  0
 31 66  1  0  0  0  0
 31 68  2  0  0  0  0
 32 57  1  0  0  0  0
 32 67  1  0  0  0  0
 32 73  2  0  0  0  0
 33 62  1  0  0  0  0
 33 66  1  0  0  0  0
 33 74  2  0  0  0  0
 34 37  1  0  0  0  0
 35 44  1  0  0  0  0
 36 61  1  0  0  0  0
 37 39  1  0  0  0  0
 38 40  1  0  0  0  0
 38 41  1  0  0  0  0
 39 43  1  0  0  0  0
 40 45  1  0  0  0  0
 41 62  1  0  0  0  0
 42 45  1  0  0  0  0
 42 62  1  0  0  0  0
 43 65  1  0  0  0  0
 44 61  1  0  0  0  0
 45 60  1  0  0  0  0
 46 56  1  0  0  0  0
 47 56  1  0  0  0  0
 48 57  1  0  0  0  0
 49 58  1  0  0  0  0
 50 58  1  0  0  0  0
 51 58  1  0  0  0  0
 52 69  1  0  0  0  0
 53 54  1  0  0  0  0
 53 68  1  0  0  0  0
 54 76  1  0  0  0  0
 55 58  1  0  0  0  0
 55 67  1  0  0  0  0
 57 69  1  0  0  0  0
 59 60  1  0  0  0  0
M  CHG  2  68   1  69   1
M  ISO  4  33 100  54 101  66 100  76 101
M  END
> <Batch ID>
0008

> <Smiles>
CNC(C)C(=O)NC(C(=O)N1Cc2cc([101O:1][101CH2:1]CNC([100NH:0][100C:0](=O)N3CCCC(n4nc(-c5ccc(Oc6ccc(F)cc6F)cc5)c(C(N)=O)c4N)C3)=C(C)C)ccc2CC1C(=O)NC1CCCc2ccccc21)C(C)(C)C

> <Shape>
0.278

> <Color>
0.102

> <Negative vol penalty>
0.000

$$$$

  -OEChem-04052315363D

 82 90  0     1  0  0  0  0  0999 V2000
  -23.0500  -29.9069   30.3641 C   0  0  0  0  0  0  0  0  0  0  0  0
  -22.4443  -28.9500   29.5561 C   0  0  0  0  0  0  0  0  0  0  0  0
  -23.3309  -16.1565   22.0584 C   0  0  0  0  0  0  0  0  0  0  0  0
  -22.4674  -15.6372   19.8626 C   0  0  0  0  0  0  0  0  0  0  0  0
  -23.7531  -30.9625   29.7852 C   0  0  0  0  0  0  0  0  0  0  0  0
  -22.5405  -29.0488   28.1685 C   0  0  0  0  0  0  0  0  0  0  0  0
  -25.4690  -23.7482   24.2673 C   0  0  0  0  0  0  0  0  0  0  0  0
  -29.5781  -17.6401   22.1803 C   0  0  0  0  0  0  0  0  0  0  0  0
  -22.3480  -17.1338   22.2139 C   0  0  0  0  0  0  0  0  0  0  0  0
  -21.4844  -16.6145   20.0180 C   0  0  0  0  0  0  0  0  0  0  0  0
  -25.8235  -22.6883   23.4324 C   0  0  0  0  0  0  0  0  0  0  0  0
  -29.0677  -18.9272   22.0115 C   0  0  0  0  0  0  0  0  0  0  0  0
  -20.2872  -20.0133   23.0421 C   0  0  0  0  0  0  0  0  0  0  0  0
  -20.6756  -21.2496   23.5580 C   0  0  0  0  0  0  0  0  0  0  0  0
  -25.4977  -24.0940   21.4918 C   0  0  0  0  0  0  0  0  0  0  0  0
  -30.4011  -17.6687   19.9090 C   0  0  0  0  0  0  0  0  0  0  0  0
  -22.1943  -21.5467   21.7026 C   0  0  0  0  0  0  0  0  0  0  0  0
  -23.3907  -15.4082   20.8827 C   0  0  0  0  0  0  0  0  0  0  0  0
  -24.3181  -13.0397   21.0772 C   0  0  0  0  0  0  0  0  0  0  0  0
  -23.8661  -31.0690   28.3900 C   0  0  0  0  0  0  0  0  0  0  0  0
  -25.1420  -24.9909   23.7177 C   0  0  0  0  0  0  0  0  0  0  0  0
  -23.2446  -30.1076   27.5703 C   0  0  0  0  0  0  0  0  0  0  0  0
  -25.1539  -25.1629   22.3238 C   0  0  0  0  0  0  0  0  0  0  0  0
  -30.2449  -17.0109   21.1290 C   0  0  0  0  0  0  0  0  0  0  0  0
  -21.4247  -17.3628   21.1937 C   0  0  0  0  0  0  0  0  0  0  0  0
  -25.8376  -22.8608   22.0481 C   0  0  0  0  0  0  0  0  0  0  0  0
  -20.8524  -19.5435   21.8565 C   0  0  0  0  0  0  0  0  0  0  0  0
  -29.2239  -19.5850   20.7915 C   0  0  0  0  0  0  0  0  0  0  0  0
  -21.6291  -22.0164   22.8882 C   0  0  0  0  0  0  0  0  0  0  0  0
  -29.8907  -18.9558   19.7402 C   0  0  0  0  0  0  0  0  0  0  0  0
  -21.8059  -20.3103   21.1867 C   0  0  0  0  0  0  0  0  0  0  0  0
  -24.4063  -14.3989   20.7213 C   0  0  0  0  0  0  0  0  0  0  0  0
  -25.5356  -12.5122   20.7222 C   0  0  0  0  0  0  0  0  0  0  0  0
  -23.2327  -12.3185   21.6751 C   0  0  0  0  0  0  0  0  0  0  0  0
  -24.1103  -28.5447   24.3360 C   0  0  0  0  0  0  0  0  0  0  0  0
  -26.1766  -28.5982   22.0692 C   0  0  0  0  0  0  0  0  0  0  0  0
  -28.7854  -28.2666   19.8964 C   0  0  0  0  0  0  0  0  0  0  0  0
  -30.8746  -14.7831   20.2171 C   0  0  0  0  0  0  0  0  0  0  0  0
  -24.5963  -32.2539   27.8092 C   0  0  0  0  0  0  0  0  0  0  0  0
  -24.6945  -26.1431   24.5757 C   0  0  0  0  0  0  0  0  0  0  0  0
  -24.7612  -26.5075   21.7754 C   0  0  0  0  0  0  0  0  0  0  0  0
  -24.9682  -32.0794   26.3390 C   0  0  0  0  0  0  0  0  0  0  0  0
  -29.1204  -13.1023   17.6208 C   0  0  0  0  0  0  0  0  0  0  0  0
  -23.7786  -31.5456   25.5472 C   0  0  0  0  0  0  0  0  0  0  0  0
  -27.6899  -13.1229   18.1584 C   0  0  0  0  0  0  0  0  0  0  0  0
  -29.8599  -14.4087   17.9112 C   0  0  0  0  0  0  0  0  0  0  0  0
  -28.4150  -14.8234   19.8771 C   0  0  0  0  0  0  0  0  0  0  0  0
  -23.3476  -30.1668   26.0617 C   0  0  1  0  0  0  0  0  0  0  0  0
  -25.1556  -27.5100   24.0390 C   0  0  1  0  0  0  0  0  0  0  0  0
  -27.6660  -13.5010   19.6500 C   0  0  1  0  0  0  0  0  0  0  0  0
  -30.2877  -29.6113   18.4024 C   0  0  0  0  0  0  0  0  0  0  0  0
  -23.9136  -28.8670   20.0417 C   0  0  0  0  0  0  0  0  0  0  0  0
  -25.6379  -29.3177   18.2833 C   0  0  0  0  0  0  0  0  0  0  0  0
  -25.3986  -30.8714   20.2201 C   0  0  0  0  0  0  0  0  0  0  0  0
  -31.4299  -15.3467   22.5728 C   0  0  0  0  0  0  0  0  0  0  0  0
  -31.2039  -27.4347   21.3855 C   0  0  0  0  0  0  0  0  0  0  0  0
  -26.8140  -22.1508   19.9986 C   0  0  0  0  0  0  0  0  0  1  0  0
  -27.7510  -21.0258   19.6039 C   0  0  0  0  0  0  0  0  0  0  0  0
  -26.4230  -28.5885   20.5817 C   0  0  1  0  0  0  0  0  0  0  0  0
  -30.1055  -29.0079   19.7864 C   0  0  2  0  0  0  0  0  0  0  0  0
  -25.3442  -29.3872   19.7971 C   0  0  0  0  0  0  0  0  0  0  0  0
  -25.5865  -14.7152   20.1819 N   0  0  0  0  0  0  0  0  0  0  0  0
  -26.2512  -13.5472   20.1962 N   0  0  0  0  0  0  0  0  0  0  0  0
  -25.3689  -27.5765   22.5833 N   0  0  0  0  0  0  0  0  0  0  0  0
  -29.7753  -14.7491   19.3385 N   0  0  0  0  0  0  0  0  0  0  0  0
  -26.0531  -11.2686   20.8120 N   0  0  0  0  0  0  0  0  0  0  0  0
  -22.0534  -13.0138   21.9752 N   0  0  0  0  0  0  0  0  0  0  0  0
  -24.2460  -29.1421   25.5746 N   0  0  0  0  0  0  0  0  0  0  0  0
  -27.7845  -29.0762   20.3903 N   0  0  0  0  0  0  0  0  0  0  0  0
  -30.7734  -15.6784   21.3036 N   0  0  0  0  0  0  0  0  0  0  0  0
  -31.2432  -28.0817   20.0488 N   0  3  0  0  0  0  0  0  0  0  0  0
  -23.3124  -11.0973   21.9505 O   0  0  0  0  0  0  0  0  0  0  0  0
  -23.2447  -28.7856   23.5027 O   0  0  0  0  0  0  0  0  0  0  0  0
  -26.6806  -29.4896   22.7582 O   0  0  0  0  0  0  0  0  0  0  0  0
  -28.6542  -27.0882   19.5727 O   0  0  0  0  0  0  0  0  0  0  0  0
  -31.8592  -14.0514   20.0583 O   0  0  0  0  0  0  0  0  0  0  0  0
  -20.4652  -18.3162   21.3452 O   0  0  0  0  0  0  0  0  0  0  0  0
  -26.1890  -21.8232   21.2390 O   0  0  0  0  0  0  0  0  0  1  0  0
  -28.7225  -20.8495   20.6278 O   0  0  0  0  0  0  0  0  0  0  0  0
  -22.0009  -23.2043   23.3829 F   0  0  0  0  0  0  0  0  0  0  0  0
  -30.0450  -19.5832   18.5662 F   0  0  0  0  0  0  0  0  0  0  0  0
  -22.3515  -19.8649   20.0467 F   0  0  0  0  0  0  0  0  0  0  0  0
  1  2  1  0  0  0  0
  1  5  2  0  0  0  0
  2  6  2  0  0  0  0
  3  9  2  0  0  0  0
  3 18  1  0  0  0  0
  4 10  1  0  0  0  0
  4 18  2  0  0  0  0
  5 20  1  0  0  0  0
  6 22  1  0  0  0  0
  7 11  2  0  0  0  0
  7 21  1  0  0  0  0
  8 12  2  0  0  0  0
  8 24  1  0  0  0  0
  9 25  1  0  0  0  0
 10 25  2  0  0  0  0
 11 26  1  0  0  0  0
 12 28  1  0  0  0  0
 13 14  2  0  0  0  0
 13 27  1  0  0  0  0
 14 29  1  0  0  0  0
 15 23  1  0  0  0  0
 15 26  2  0  0  0  0
 16 24  2  0  0  0  0
 16 30  1  0  0  0  0
 17 29  2  0  0  0  0
 17 31  1  0  0  0  0
 18 32  1  0  0  0  0
 19 32  1  0  0  0  0
 19 33  2  0  0  0  0
 19 34  1  0  0  0  0
 20 22  2  0  0  0  0
 20 39  1  0  0  0  0
 21 23  2  0  0  0  0
 21 40  1  0  0  0  0
 22 48  1  0  0  0  0
 23 41  1  0  0  0  0
 24 70  1  0  0  0  0
 25 77  1  0  0  0  0
 26 78  1  0  0  0  0
 27 31  2  0  0  0  0
 27 77  1  0  0  0  0
 28 30  2  0  0  0  0
 28 79  1  0  0  0  0
 29 80  1  0  0  0  0
 30 81  1  0  0  0  0
 31 82  1  0  0  0  0
 32 62  2  0  0  0  0
 33 63  1  0  0  0  0
 33 66  1  0  0  0  0
 34 67  1  0  0  0  0
 34 72  2  0  0  0  0
 35 49  1  0  0  0  0
 35 68  1  0  0  0  0
 35 73  2  0  0  0  0
 36 59  1  0  0  0  0
 36 64  1  0  0  0  0
 36 74  2  0  0  0  0
 37 60  1  0  0  0  0
 37 69  1  0  0  0  0
 37 75  2  0  0  0  0
 38 65  1  0  0  0  0
 38 70  1  0  0  0  0
 38 76  2  0  0  0  0
 39 42  1  0  0  0  0
 40 49  1  0  0  0  0
 41 64  1  0  0  0  0
 42 44  1  0  0  0  0
 43 45  1  0  0  0  0
 43 46  1  0  0  0  0
 44 48  1  0  0  0  0
 45 50  1  0  0  0  0
 46 65  1  0  0  0  0
 47 50  1  0  0  0  0
 47 65  1  0  0  0  0
 48 68  1  0  0  0  0
 49 64  1  0  0  0  0
 50 63  1  0  0  0  0
 51 60  1  0  0  0  0
 52 61  1  0  0  0  0
 53 61  1  0  0  0  0
 54 61  1  0  0  0  0
 55 70  1  0  0  0  0
 56 71  1  0  0  0  0
 57 58  1  0  0  0  0
 57 78  1  0  0  0  0
 58 79  1  0  0  0  0
 59 61  1  0  0  0  0
 59 69  1  0  0  0  0
 60 71  1  0  0  0  0
 62 63  1  0  0  0  0
M  CHG  1  71   1
M  ISO  4  38 100  57 101  70 100  78 101
M  END
> <Batch ID>
0008

> <Smiles>
CNC(C)C(=O)NC(C(=O)N1Cc2cc([101O:1][101CH2:1]COc3ccc([100N:0](C)[100C:0](=O)N4CCCC(n5nc(-c6ccc(Oc7ccc(F)cc7F)cc6)c(C(N)=O)c5N)C4)cc3F)ccc2CC1C(=O)NC1CCCc2ccccc21)C(C)(C)C

> <Shape>
0.219

> <Color>
0.116

> <Negative vol penalty>
0.000

$$$$

  -OEChem-04052315363D

 81 89  0     1  0  0  0  0  0999 V2000
  -33.1483  -26.7325   26.9238 C   0  0  0  0  0  0  0  0  0  0  0  0
  -32.5201  -25.9619   25.9507 C   0  0  0  0  0  0  0  0  0  0  0  0
  -23.3447   -9.8443   21.9053 C   0  0  0  0  0  0  0  0  0  0  0  0
  -24.2274  -11.1459   23.7393 C   0  0  0  0  0  0  0  0  0  0  0  0
  -32.4798  -27.8159   27.4924 C   0  0  0  0  0  0  0  0  0  0  0  0
  -31.2225  -26.2736   25.5464 C   0  0  0  0  0  0  0  0  0  0  0  0
  -30.6679  -26.1295   20.5148 C   0  0  0  0  0  0  0  0  0  0  0  0
  -32.2413  -18.6929   19.7336 C   0  0  0  0  0  0  0  0  0  0  0  0
  -31.7006  -17.4260   19.5141 C   0  0  0  0  0  0  0  0  0  0  0  0
  -22.7423   -8.9735   22.8132 C   0  0  0  0  0  0  0  0  0  0  0  0
  -23.6249  -10.2751   24.6473 C   0  0  0  0  0  0  0  0  0  0  0  0
  -30.5424  -24.8731   19.9238 C   0  0  0  0  0  0  0  0  0  0  0  0
  -23.6779   -6.3915   24.7835 C   0  0  0  0  0  0  0  0  0  0  0  0
  -23.8004   -5.0224   24.5462 C   0  0  0  0  0  0  0  0  0  0  0  0
  -28.1517  -25.1729   19.8079 C   0  0  0  0  0  0  0  0  0  0  0  0
  -29.4757  -18.3296   19.7794 C   0  0  0  0  0  0  0  0  0  0  0  0
  -21.3957   -4.8304   24.4127 C   0  0  0  0  0  0  0  0  0  0  0  0
  -24.0873  -10.9305   22.3683 C   0  0  0  0  0  0  0  0  0  0  0  0
  -24.1528  -12.9958   20.8723 C   0  0  0  0  0  0  0  0  0  0  0  0
  -31.1770  -28.1469   27.0879 C   0  0  0  0  0  0  0  0  0  0  0  0
  -29.5332  -26.9139   20.7672 C   0  0  0  0  0  0  0  0  0  0  0  0
  -30.5354  -27.3617   26.1111 C   0  0  0  0  0  0  0  0  0  0  0  0
  -28.2656  -26.4401   20.3999 C   0  0  0  0  0  0  0  0  0  0  0  0
  -31.3992  -19.7782   19.9761 C   0  0  0  0  0  0  0  0  0  0  0  0
  -30.3178  -17.2444   19.5370 C   0  0  0  0  0  0  0  0  0  0  0  0
  -22.8823   -9.1889   24.1842 C   0  0  0  0  0  0  0  0  0  0  0  0
  -29.2839  -24.3934   19.5729 C   0  0  0  0  0  0  0  0  0  0  0  0
  -22.4143   -6.9800   24.8355 C   0  0  0  0  0  0  0  0  0  0  0  0
  -30.0164  -19.5965   19.9990 C   0  0  0  0  0  0  0  0  0  0  0  0
  -22.6594   -4.2419   24.3607 C   0  0  0  0  0  0  0  0  0  0  0  0
  -21.2733   -6.1995   24.6501 C   0  0  0  0  0  0  0  0  0  0  0  0
  -24.7104  -11.8301   21.4310 C   0  0  0  0  0  0  0  0  0  0  0  0
  -25.1373  -13.4876   20.0506 C   0  0  0  0  0  0  0  0  0  0  0  0
  -22.8604  -13.5817   21.0779 C   0  0  0  0  0  0  0  0  0  0  0  0
  -28.1600  -28.0975   23.3782 C   0  0  0  0  0  0  0  0  0  0  0  0
  -26.2378  -29.5765   21.2241 C   0  0  0  0  0  0  0  0  0  0  0  0
  -24.9012  -29.6207   18.0843 C   0  0  0  0  0  0  0  0  0  0  0  0
  -30.4633  -14.7749   19.0608 C   0  0  0  0  0  0  0  0  0  0  0  0
  -30.4771  -29.2985   27.7652 C   0  0  0  0  0  0  0  0  0  0  0  0
  -29.6879  -28.2783   21.3810 C   0  0  0  0  0  0  0  0  0  0  0  0
  -27.0181  -27.2517   20.6310 C   0  0  0  0  0  0  0  0  0  0  0  0
  -29.2431  -29.7891   27.0123 C   0  0  0  0  0  0  0  0  0  0  0  0
  -29.4791  -11.3998   18.4974 C   0  0  0  0  0  0  0  0  0  0  0  0
  -28.3757  -28.6100   26.5833 C   0  0  0  0  0  0  0  0  0  0  0  0
  -28.1048  -11.3068   19.1644 C   0  0  0  0  0  0  0  0  0  0  0  0
  -30.4310  -12.3001   19.2830 C   0  0  0  0  0  0  0  0  0  0  0  0
  -28.5388  -13.5486   20.2475 C   0  0  0  0  0  0  0  0  0  0  0  0
  -29.1377  -27.6832   25.6284 C   0  0  1  0  0  0  0  0  0  0  0  0
  -28.4162  -28.7750   22.0618 C   0  0  1  0  0  0  0  0  0  0  0  0
  -27.5251  -12.7044   19.4580 C   0  0  2  0  0  0  0  0  0  0  0  0
  -31.9956  -21.1269   20.2092 C   0  0  0  0  0  0  0  0  0  0  0  0
  -23.3343  -30.9335   16.6287 C   0  0  0  0  0  0  0  0  0  0  0  0
  -23.8580  -28.3942   22.7236 C   0  0  0  0  0  0  0  0  0  0  0  0
  -22.4315  -28.9227   20.7352 C   0  0  0  0  0  0  0  0  0  0  0  0
  -23.5540  -30.7649   21.9877 C   0  0  0  0  0  0  0  0  0  0  0  0
  -27.0341  -30.2076   16.1183 C   0  0  0  0  0  0  0  0  0  0  0  0
  -27.9483  -22.4531   19.2452 C   0  0  0  0  0  0  0  0  0  1  0  0
  -28.2362  -20.9645   19.2145 C   0  0  0  0  0  0  0  0  0  0  0  0
  -24.9407  -29.2302   20.5338 C   0  0  1  0  0  0  0  0  0  0  0  0
  -24.7795  -30.7316   17.0569 C   0  0  2  0  0  0  0  0  0  0  0  0
  -23.7192  -29.3116   21.4924 C   0  0  0  0  0  0  0  0  0  0  0  0
  -25.9527  -11.5953   21.0003 N   0  0  0  0  0  0  0  0  0  0  0  0
  -26.1839  -12.6201   20.1623 N   0  0  0  0  0  0  0  0  0  0  0  0
  -27.2207  -28.5768   21.2397 N   0  0  0  0  0  0  0  0  0  0  0  0
  -29.8163  -13.6081   19.5200 N   0  0  0  0  0  0  0  0  0  0  0  0
  -25.2012  -14.5730   19.2505 N   0  0  0  0  0  0  0  0  0  0  0  0
  -21.9710  -12.9469   21.9556 N   0  0  0  0  0  0  0  0  0  0  0  0
  -29.7688  -15.9571   19.3147 N   0  0  0  0  0  0  0  0  0  0  0  0
  -29.1794  -28.2519   24.2982 N   0  0  0  0  0  0  0  0  0  0  0  0
  -24.8488  -30.1088   19.3728 N   0  0  0  0  0  0  0  0  0  0  0  0
  -25.5875  -30.4088   15.8469 N   0  3  0  0  0  0  0  0  0  0  0  0
  -22.4989  -14.6280   20.4879 O   0  0  0  0  0  0  0  0  0  0  0  0
  -27.1141  -27.4816   23.5473 O   0  0  0  0  0  0  0  0  0  0  0  0
  -26.3765  -30.6954   21.7245 O   0  0  0  0  0  0  0  0  0  0  0  0
  -25.0261  -28.4379   17.7748 O   0  0  0  0  0  0  0  0  0  0  0  0
  -31.5401  -14.7264   18.4607 O   0  0  0  0  0  0  0  0  0  0  0  0
  -22.2944   -8.3394   25.0704 O   0  0  0  0  0  0  0  0  0  0  0  0
  -29.1586  -23.1670   18.9965 O   0  0  0  0  0  0  0  0  0  1  0  0
  -29.1754  -20.6518   20.2360 O   0  0  0  0  0  0  0  0  0  0  0  0
  -22.7772   -2.9275   24.1313 F   0  0  0  0  0  0  0  0  0  0  0  0
  -20.0567   -6.7594   24.6977 F   0  0  0  0  0  0  0  0  0  0  0  0
  1  2  1  0  0  0  0
  1  5  2  0  0  0  0
  2  6  2  0  0  0  0
  3 10  2  0  0  0  0
  3 18  1  0  0  0  0
  4 11  1  0  0  0  0
  4 18  2  0  0  0  0
  5 20  1  0  0  0  0
  6 22  1  0  0  0  0
  7 12  2  0  0  0  0
  7 21  1  0  0  0  0
  8  9  2  0  0  0  0
  8 24  1  0  0  0  0
  9 25  1  0  0  0  0
 10 26  1  0  0  0  0
 11 26  2  0  0  0  0
 12 27  1  0  0  0  0
 13 14  2  0  0  0  0
 13 28  1  0  0  0  0
 14 30  1  0  0  0  0
 15 23  1  0  0  0  0
 15 27  2  0  0  0  0
 16 25  2  0  0  0  0
 16 29  1  0  0  0  0
 17 30  2  0  0  0  0
 17 31  1  0  0  0  0
 18 32  1  0  0  0  0
 19 32  1  0  0  0  0
 19 33  2  0  0  0  0
 19 34  1  0  0  0  0
 20 22  2  0  0  0  0
 20 39  1  0  0  0  0
 21 23  2  0  0  0  0
 21 40  1  0  0  0  0
 22 48  1  0  0  0  0
 23 41  1  0  0  0  0
 24 29  2  0  0  0  0
 24 51  1  0  0  0  0
 25 68  1  0  0  0  0
 26 77  1  0  0  0  0
 27 78  1  0  0  0  0
 28 31  2  0  0  0  0
 28 77  1  0  0  0  0
 29 79  1  0  0  0  0
 30 80  1  0  0  0  0
 31 81  1  0  0  0  0
 32 62  2  0  0  0  0
 33 63  1  0  0  0  0
 33 66  1  0  0  0  0
 34 67  1  0  0  0  0
 34 72  2  0  0  0  0
 35 49  1  0  0  0  0
 35 69  1  0  0  0  0
 35 73  2  0  0  0  0
 36 59  1  0  0  0  0
 36 64  1  0  0  0  0
 36 74  2  0  0  0  0
 37 60  1  0  0  0  0
 37 70  1  0  0  0  0
 37 75  2  0  0  0  0
 38 65  1  0  0  0  0
 38 68  1  0  0  0  0
 38 76  2  0  0  0  0
 39 42  1  0  0  0  0
 40 49  1  0  0  0  0
 41 64  1  0  0  0  0
 42 44  1  0  0  0  0
 43 45  1  0  0  0  0
 43 46  1  0  0  0  0
 44 48  1  0  0  0  0
 45 50  1  0  0  0  0
 46 65  1  0  0  0  0
 47 50  1  0  0  0  0
 47 65  1  0  0  0  0
 48 69  1  0  0  0  0
 49 64  1  0  0  0  0
 50 63  1  0  0  0  0
 52 60  1  0  0  0  0
 53 61  1  0  0  0  0
 54 61  1  0  0  0  0
 55 61  1  0  0  0  0
 56 71  1  0  0  0  0
 57 58  1  0  0  0  0
 57 78  1  0  0  0  0
 58 79  1  0  0  0  0
 59 61  1  0  0  0  0
 59 70  1  0  0  0  0
 60 71  1  0  0  0  0
 62 63  1  0  0  0  0
M  CHG  1  71   1
M  ISO  4  38 100  57 101  68 100  78 101
M  END
> <Batch ID>
0008

> <Smiles>
CNC(C)C(=O)NC(C(=O)N1Cc2cc([101O:1][101CH2:1]COc3cc([100NH:0][100C:0](=O)N4CCCC(n5nc(-c6ccc(Oc7ccc(F)cc7F)cc6)c(C(N)=O)c5N)C4)ccc3C)ccc2CC1C(=O)NC1CCCc2ccccc21)C(C)(C)C

> <Shape>
0.269

> <Color>
0.145

> <Negative vol penalty>
0.000

$$$$

  -OEChem-04052315363D

 83 91  0     1  0  0  0  0  0999 V2000
  -18.7313  -27.0391   25.9742 C   0  0  0  0  0  0  0  0  0  0  0  0
  -19.9648  -26.5486   25.5579 C   0  0  0  0  0  0  0  0  0  0  0  0
  -24.5069   -9.2481   21.1146 C   0  0  0  0  0  0  0  0  0  0  0  0
  -22.5298  -10.5473   20.6243 C   0  0  0  0  0  0  0  0  0  0  0  0
  -17.9826  -27.8518   25.1240 C   0  0  0  0  0  0  0  0  0  0  0  0
  -20.4498  -26.8696   24.2905 C   0  0  0  0  0  0  0  0  0  0  0  0
  -26.2948  -27.7863   22.7090 C   0  0  0  0  0  0  0  0  0  0  0  0
  -28.2455  -20.8011   17.7018 C   0  0  0  0  0  0  0  0  0  0  0  0
  -27.1752  -20.0361   17.2383 C   0  0  0  0  0  0  0  0  0  0  0  0
  -23.7079   -8.1434   21.4092 C   0  0  0  0  0  0  0  0  0  0  0  0
  -21.7308   -9.4425   20.9189 C   0  0  0  0  0  0  0  0  0  0  0  0
  -27.2442  -26.9613   22.1074 C   0  0  0  0  0  0  0  0  0  0  0  0
  -21.8103   -7.0590   23.9875 C   0  0  0  0  0  0  0  0  0  0  0  0
  -22.1126   -6.3297   25.1374 C   0  0  0  0  0  0  0  0  0  0  0  0
  -26.7030  -27.9153   19.9589 C   0  0  0  0  0  0  0  0  0  0  0  0
  -27.9214  -19.9086   19.9234 C   0  0  0  0  0  0  0  0  0  0  0  0
  -22.4738   -4.3565   23.7910 C   0  0  0  0  0  0  0  0  0  0  0  0
  -23.9178  -10.4501   20.7222 C   0  0  0  0  0  0  0  0  0  0  0  0
  -25.2825  -11.9412   19.1660 C   0  0  0  0  0  0  0  0  0  0  0  0
  -18.4631  -28.1908   23.8493 C   0  0  0  0  0  0  0  0  0  0  0  0
  -25.5334  -28.6757   21.9372 C   0  0  0  0  0  0  0  0  0  0  0  0
  -19.7062  -27.6865   23.4219 C   0  0  0  0  0  0  0  0  0  0  0  0
  -25.7464  -28.7523   20.5534 C   0  0  0  0  0  0  0  0  0  0  0  0
  -28.6186  -20.7373   19.0443 C   0  0  0  0  0  0  0  0  0  0  0  0
  -26.4779  -19.2074   18.1173 C   0  0  0  0  0  0  0  0  0  0  0  0
  -26.8510  -19.1437   19.4599 C   0  0  0  0  0  0  0  0  0  0  0  0
  -22.3199   -8.2405   21.3114 C   0  0  0  0  0  0  0  0  0  0  0  0
  -27.4464  -27.0237   20.7318 C   0  0  0  0  0  0  0  0  0  0  0  0
  -21.8396   -6.4371   22.7393 C   0  0  0  0  0  0  0  0  0  0  0  0
  -22.4444   -4.9785   25.0392 C   0  0  0  0  0  0  0  0  0  0  0  0
  -22.1714   -5.0858   22.6410 C   0  0  0  0  0  0  0  0  0  0  0  0
  -24.7426  -11.5918   20.4182 C   0  0  0  0  0  0  0  0  0  0  0  0
  -25.9827  -13.0985   19.4048 C   0  0  0  0  0  0  0  0  0  0  0  0
  -25.1619  -11.2790   17.9000 C   0  0  0  0  0  0  0  0  0  0  0  0
  -22.4348  -29.0242   21.3200 C   0  0  0  0  0  0  0  0  0  0  0  0
  -23.4382  -31.7066   19.7968 C   0  0  0  0  0  0  0  0  0  0  0  0
  -29.0641  -23.9383   19.7261 C   0  0  0  0  0  0  0  0  0  0  0  0
  -25.9731  -33.3761   18.2367 C   0  0  0  0  0  0  0  0  0  0  0  0
  -26.4121  -18.1402   21.7285 C   0  0  0  0  0  0  0  0  0  0  0  0
  -17.5965  -29.0338   22.9474 C   0  0  0  0  0  0  0  0  0  0  0  0
  -24.5321  -29.5779   22.6049 C   0  0  0  0  0  0  0  0  0  0  0  0
  -24.9693  -29.7046   19.6830 C   0  0  0  0  0  0  0  0  0  0  0  0
  -18.3515  -29.6335   21.7639 C   0  0  0  0  0  0  0  0  0  0  0  0
  -27.2523  -15.3406   23.7617 C   0  0  0  0  0  0  0  0  0  0  0  0
  -19.2210  -28.5746   21.0935 C   0  0  0  0  0  0  0  0  0  0  0  0
  -26.7187  -14.1445   22.9701 C   0  0  0  0  0  0  0  0  0  0  0  0
  -26.3342  -16.5556   23.6412 C   0  0  0  0  0  0  0  0  0  0  0  0
  -25.4757  -15.7582   21.4741 C   0  0  0  0  0  0  0  0  0  0  0  0
  -20.2774  -28.0328   22.0640 C   0  0  1  0  0  0  0  0  0  0  0  0
  -23.4514  -30.0797   21.6521 C   0  0  1  0  0  0  0  0  0  0  0  0
  -26.4002  -14.5304   21.5123 C   0  0  2  0  0  0  0  0  0  0  0  0
  -25.3349  -18.3999   17.5932 C   0  0  0  0  0  0  0  0  0  0  0  0
  -26.4805  -35.5349   17.0622 C   0  0  0  0  0  0  0  0  0  0  0  0
  -21.9515  -30.7090   17.3261 C   0  0  0  0  0  0  0  0  0  0  0  0
  -23.2500  -32.3602   15.9638 C   0  0  0  0  0  0  0  0  0  0  0  0
  -21.7198  -33.1603   17.7640 C   0  0  0  0  0  0  0  0  0  0  0  0
  -28.0366  -34.1087   20.2278 C   0  0  0  0  0  0  0  0  0  0  0  0
  -29.7710  -21.5609   19.5423 C   0  0  0  0  0  0  0  0  0  0  0  0
  -28.6189  -24.9547   20.7558 C   0  0  0  0  0  0  0  0  0  1  0  0
  -23.8932  -32.0332   18.3949 C   0  0  1  0  0  0  0  0  0  0  0  0
  -26.4895  -34.7953   18.3910 C   0  0  2  0  0  0  0  0  0  0  0  0
  -22.7171  -32.0462   17.3781 C   0  0  0  0  0  0  0  0  0  0  0  0
  -25.0717  -12.4569   21.3812 N   0  0  0  0  0  0  0  0  0  0  0  0
  -25.8260  -13.3614   20.7339 N   0  0  0  0  0  0  0  0  0  0  0  0
  -23.9972  -30.5616   20.3817 N   0  0  0  0  0  0  0  0  0  0  0  0
  -26.0801  -16.8647   22.2323 N   0  0  0  0  0  0  0  0  0  0  0  0
  -26.7110  -13.9066   18.6055 N   0  0  0  0  0  0  0  0  0  0  0  0
  -24.4056  -10.1010   17.8316 N   0  0  0  0  0  0  0  0  0  0  0  0
  -26.1556  -18.3074   20.3681 N   0  0  0  0  0  0  0  0  0  0  0  0
  -21.3695  -28.9728   22.1986 N   0  0  0  0  0  0  0  0  0  0  0  0
  -29.3279  -22.7061   20.3033 N   0  0  0  0  0  0  0  0  0  0  0  0
  -24.6192  -33.2955   18.4850 N   0  0  0  0  0  0  0  0  0  0  0  0
  -27.8851  -34.7848   18.9136 N   0  3  0  0  0  0  0  0  0  0  0  0
  -25.7220  -11.7100   16.8637 O   0  0  0  0  0  0  0  0  0  0  0  0
  -22.6037  -28.3103   20.3384 O   0  0  0  0  0  0  0  0  0  0  0  0
  -22.6224  -32.4445   20.3551 O   0  0  0  0  0  0  0  0  0  0  0  0
  -29.1700  -24.2048   18.5321 O   0  0  0  0  0  0  0  0  0  0  0  0
  -26.6976  -32.4341   17.9234 O   0  0  0  0  0  0  0  0  0  0  0  0
  -26.9141  -19.0103   22.4447 O   0  0  0  0  0  0  0  0  0  0  0  0
  -21.5400   -7.1627   21.5985 O   0  0  0  0  0  0  0  0  0  0  0  0
  -28.3720  -26.2191   20.1421 O   0  0  0  0  0  0  0  0  0  1  0  0
  -22.7362   -4.2786   26.1433 F   0  0  0  0  0  0  0  0  0  0  0  0
  -22.2024   -4.4831   21.4445 F   0  0  0  0  0  0  0  0  0  0  0  0
  1  2  1  0  0  0  0
  1  5  2  0  0  0  0
  2  6  2  0  0  0  0
  3 10  2  0  0  0  0
  3 18  1  0  0  0  0
  4 11  1  0  0  0  0
  4 18  2  0  0  0  0
  5 20  1  0  0  0  0
  6 22  1  0  0  0  0
  7 12  2  0  0  0  0
  7 21  1  0  0  0  0
  8  9  2  0  0  0  0
  8 24  1  0  0  0  0
  9 25  1  0  0  0  0
 10 27  1  0  0  0  0
 11 27  2  0  0  0  0
 12 28  1  0  0  0  0
 13 14  2  0  0  0  0
 13 29  1  0  0  0  0
 14 30  1  0  0  0  0
 15 23  1  0  0  0  0
 15 28  2  0  0  0  0
 16 24  2  0  0  0  0
 16 26  1  0  0  0  0
 17 30  2  0  0  0  0
 17 31  1  0  0  0  0
 18 32  1  0  0  0  0
 19 32  1  0  0  0  0
 19 33  2  0  0  0  0
 19 34  1  0  0  0  0
 20 22  2  0  0  0  0
 20 40  1  0  0  0  0
 21 23  2  0  0  0  0
 21 41  1  0  0  0  0
 22 49  1  0  0  0  0
 23 42  1  0  0  0  0
 24 58  1  0  0  0  0
 25 26  2  0  0  0  0
 25 52  1  0  0  0  0
 26 69  1  0  0  0  0
 27 80  1  0  0  0  0
 28 81  1  0  0  0  0
 29 31  2  0  0  0  0
 29 80  1  0  0  0  0
 30 82  1  0  0  0  0
 31 83  1  0  0  0  0
 32 63  2  0  0  0  0
 33 64  1  0  0  0  0
 33 67  1  0  0  0  0
 34 68  1  0  0  0  0
 34 74  2  0  0  0  0
 35 50  1  0  0  0  0
 35 70  1  0  0  0  0
 35 75  2  0  0  0  0
 36 60  1  0  0  0  0
 36 65  1  0  0  0  0
 36 76  2  0  0  0  0
 37 59  1  0  0  0  0
 37 71  1  0  0  0  0
 37 77  2  0  0  0  0
 38 61  1  0  0  0  0
 38 72  1  0  0  0  0
 38 78  2  0  0  0  0
 39 66  1  0  0  0  0
 39 69  1  0  0  0  0
 39 79  2  0  0  0  0
 40 43  1  0  0  0  0
 41 50  1  0  0  0  0
 42 65  1  0  0  0  0
 43 45  1  0  0  0  0
 44 46  1  0  0  0  0
 44 47  1  0  0  0  0
 45 49  1  0  0  0  0
 46 51  1  0  0  0  0
 47 66  1  0  0  0  0
 48 51  1  0  0  0  0
 48 66  1  0  0  0  0
 49 70  1  0  0  0  0
 50 65  1  0  0  0  0
 51 64  1  0  0  0  0
 53 61  1  0  0  0  0
 54 62  1  0  0  0  0
 55 62  1  0  0  0  0
 56 62  1  0  0  0  0
 57 73  1  0  0  0  0
 58 71  1  0  0  0  0
 59 81  1  0  0  0  0
 60 62  1  0  0  0  0
 60 72  1  0  0  0  0
 61 73  1  0  0  0  0
 63 64  1  0  0  0  0
M  CHG  1  73   1
M  ISO  4  39 100  59 101  69 100  81 101
M  END
> <Batch ID>
0008

> <Smiles>
CNC(C)C(=O)NC(C(=O)N1Cc2cc([101O:1][101CH2:1]C(=O)NCc3ccc(C)c([100NH:0][100C:0](=O)N4CCCC(n5nc(-c6ccc(Oc7ccc(F)cc7F)cc6)c(C(N)=O)c5N)C4)c3)ccc2CC1C(=O)NC1CCCc2ccccc21)C(C)(C)C

> <Shape>
0.253

> <Color>
0.131

> <Negative vol penalty>
0.000

$$$$

  -OEChem-04052315363D

 85 93  0     1  0  0  0  0  0999 V2000
  -28.3340  -37.1107   19.5645 C   0  0  0  0  0  0  0  0  0  0  0  0
  -28.6862  -35.7817   19.3523 C   0  0  0  0  0  0  0  0  0  0  0  0
  -25.4003  -10.2922   19.9561 C   0  0  0  0  0  0  0  0  0  0  0  0
  -24.6686  -10.3283   22.2584 C   0  0  0  0  0  0  0  0  0  0  0  0
  -27.5128  -37.4500   20.6390 C   0  0  0  0  0  0  0  0  0  0  0  0
  -28.2185  -34.7913   20.2152 C   0  0  0  0  0  0  0  0  0  0  0  0
  -26.7035  -29.0425   18.7445 C   0  0  0  0  0  0  0  0  0  0  0  0
  -25.2465   -8.9061   19.9290 C   0  0  0  0  0  0  0  0  0  0  0  0
  -24.5147   -8.9422   22.2312 C   0  0  0  0  0  0  0  0  0  0  0  0
  -27.3945  -27.8357   18.8441 C   0  0  0  0  0  0  0  0  0  0  0  0
  -22.7135   -6.6865   19.6289 C   0  0  0  0  0  0  0  0  0  0  0  0
  -22.0779   -6.1264   18.5207 C   0  0  0  0  0  0  0  0  0  0  0  0
  -26.3035  -27.3917   20.9493 C   0  0  0  0  0  0  0  0  0  0  0  0
  -29.3516  -19.7990   16.1687 C   0  0  0  0  0  0  0  0  0  0  0  0
  -28.6307  -20.7664   18.6841 C   0  0  0  0  0  0  0  0  0  0  0  0
  -24.0627   -4.8379   18.0335 C   0  0  0  0  0  0  0  0  0  0  0  0
  -25.1114  -11.0033   21.1209 C   0  0  0  0  0  0  0  0  0  0  0  0
  -24.3026  -13.4048   20.8270 C   0  0  0  0  0  0  0  0  0  0  0  0
  -27.0269  -36.4620   21.5099 C   0  0  0  0  0  0  0  0  0  0  0  0
  -25.8140  -29.4388   19.7536 C   0  0  0  0  0  0  0  0  0  0  0  0
  -27.3911  -35.1178   21.3031 C   0  0  0  0  0  0  0  0  0  0  0  0
  -25.6006  -28.6028   20.8589 C   0  0  0  0  0  0  0  0  0  0  0  0
  -29.1588  -18.9122   17.2280 C   0  0  0  0  0  0  0  0  0  0  0  0
  -28.7983  -19.3959   18.4856 C   0  0  0  0  0  0  0  0  0  0  0  0
  -28.8236  -21.6532   17.6248 C   0  0  0  0  0  0  0  0  0  0  0  0
  -24.8036   -8.2311   21.0665 C   0  0  0  0  0  0  0  0  0  0  0  0
  -27.1968  -27.0114   19.9480 C   0  0  0  0  0  0  0  0  0  0  0  0
  -24.0237   -6.3223   19.9393 C   0  0  0  0  0  0  0  0  0  0  0  0
  -29.1841  -21.1695   16.3671 C   0  0  0  0  0  0  0  0  0  0  0  0
  -22.7525   -5.2021   17.7231 C   0  0  0  0  0  0  0  0  0  0  0  0
  -24.6983   -5.3980   19.1416 C   0  0  0  0  0  0  0  0  0  0  0  0
  -25.2707  -12.4350   21.1498 C   0  0  0  0  0  0  0  0  0  0  0  0
  -24.9438  -14.6051   21.0129 C   0  0  0  0  0  0  0  0  0  0  0  0
  -22.9451  -13.2356   20.3977 C   0  0  0  0  0  0  0  0  0  0  0  0
  -25.6619  -31.8868   21.7755 C   0  0  0  0  0  0  0  0  0  0  0  0
  -22.7856  -30.5866   22.5229 C   0  0  0  0  0  0  0  0  0  0  0  0
  -28.2944  -23.6747   19.0274 C   0  0  0  0  0  0  0  0  0  0  0  0
  -20.7895  -27.8196   22.6020 C   0  0  0  0  0  0  0  0  0  0  0  0
  -29.6325  -17.6537   20.0553 C   0  0  0  0  0  0  0  0  0  0  0  0
  -26.1807  -36.8829   22.6852 C   0  0  0  0  0  0  0  0  0  0  0  0
  -25.0563  -30.7310   19.6183 C   0  0  0  0  0  0  0  0  0  0  0  0
  -24.6413  -28.9729   21.9596 C   0  0  0  0  0  0  0  0  0  0  0  0
  -25.4219  -35.7280   23.3340 C   0  0  0  0  0  0  0  0  0  0  0  0
  -29.3794  -15.6893   23.1677 C   0  0  0  0  0  0  0  0  0  0  0  0
  -26.3456  -34.5319   23.5413 C   0  0  0  0  0  0  0  0  0  0  0  0
  -28.2507  -14.7069   22.8595 C   0  0  0  0  0  0  0  0  0  0  0  0
  -30.1416  -16.0903   21.9082 C   0  0  0  0  0  0  0  0  0  0  0  0
  -28.1409  -15.6499   20.5177 C   0  0  0  0  0  0  0  0  0  0  0  0
  -26.8835  -34.0118   22.2027 C   0  0  1  0  0  0  0  0  0  0  0  0
  -24.5615  -31.2763   20.9545 C   0  0  1  0  0  0  0  0  0  0  0  0
  -27.3268  -15.2600   21.7607 C   0  0  1  0  0  0  0  0  0  0  0  0
  -29.3454  -17.4494   16.9870 C   0  0  0  0  0  0  0  0  0  0  0  0
  -18.5031  -27.0594   23.3033 C   0  0  0  0  0  0  0  0  0  0  0  0
  -23.6801  -30.5955   25.4400 C   0  0  0  0  0  0  0  0  0  0  0  0
  -21.8182  -28.9992   25.9432 C   0  0  0  0  0  0  0  0  0  0  0  0
  -21.3026  -31.2805   25.0758 C   0  0  0  0  0  0  0  0  0  0  0  0
  -27.3750  -18.6323   20.3956 C   0  0  0  0  0  0  0  0  0  0  0  0
  -20.0703  -27.0496   19.8364 C   0  0  0  0  0  0  0  0  0  0  0  0
  -28.2414  -22.3180   14.5102 C   0  0  0  0  0  0  0  0  0  0  0  0
  -28.2156  -25.1770   18.8288 C   0  0  0  0  0  0  0  0  0  1  0  0
  -22.3030  -29.5589   23.5178 C   0  0  1  0  0  0  0  0  0  0  0  0
  -19.3524  -27.6015   22.1642 C   0  0  2  0  0  0  0  0  0  0  0  0
  -22.2956  -30.1022   24.9746 C   0  0  0  0  0  0  0  0  0  0  0  0
  -26.4382  -12.9728   21.5129 N   0  0  0  0  0  0  0  0  0  0  0  0
  -26.2078  -14.2935   21.4194 N   0  0  0  0  0  0  0  0  0  0  0  0
  -23.9288  -30.2493   21.7846 N   0  0  0  0  0  0  0  0  0  0  0  0
  -29.2356  -16.5695   20.8636 N   0  0  0  0  0  0  0  0  0  0  0  0
  -24.5440  -15.8862   20.8664 N   0  0  0  0  0  0  0  0  0  0  0  0
  -22.4457  -11.9335   20.2586 N   0  0  0  0  0  0  0  0  0  0  0  0
  -28.6493  -23.0407   17.8416 N   0  0  0  0  0  0  0  0  0  0  0  0
  -25.8745  -33.2285   21.5225 N   0  0  0  0  0  0  0  0  0  0  0  0
  -20.9994  -29.1098   23.0409 N   0  0  0  0  0  0  0  0  0  0  0  0
  -28.5956  -18.4936   19.5945 N   0  0  0  0  0  0  0  0  0  0  0  0
  -19.2968  -26.6317   21.0339 N   0  3  0  0  0  0  0  0  0  0  0  0
  -22.2022  -14.2100   20.1292 O   0  0  0  0  0  0  0  0  0  0  0  0
  -26.2719  -31.1923   22.5800 O   0  0  0  0  0  0  0  0  0  0  0  0
  -22.1667  -31.6466   22.4000 O   0  0  0  0  0  0  0  0  0  0  0  0
  -28.0630  -23.1574   20.1153 O   0  0  0  0  0  0  0  0  0  0  0  0
  -21.6398  -26.9331   22.5623 O   0  0  0  0  0  0  0  0  0  0  0  0
  -30.8214  -17.8701   19.7918 O   0  0  0  0  0  0  0  0  0  0  0  0
  -24.6531   -6.8786   21.0402 O   0  0  0  0  0  0  0  0  0  0  0  0
  -29.3770  -22.0195   15.3193 O   0  0  0  0  0  0  0  0  0  0  0  0
  -27.8704  -25.8333   20.0480 O   0  0  0  0  0  0  0  0  0  1  0  0
  -22.1415   -4.6632   16.6599 F   0  0  0  0  0  0  0  0  0  0  0  0
  -25.9568   -5.0434   19.4356 F   0  0  0  0  0  0  0  0  0  0  0  0
  1  2  1  0  0  0  0
  1  5  2  0  0  0  0
  2  6  2  0  0  0  0
  3  8  2  0  0  0  0
  3 17  1  0  0  0  0
  4  9  1  0  0  0  0
  4 17  2  0  0  0  0
  5 19  1  0  0  0  0
  6 21  1  0  0  0  0
  7 10  2  0  0  0  0
  7 20  1  0  0  0  0
  8 26  1  0  0  0  0
  9 26  2  0  0  0  0
 10 27  1  0  0  0  0
 11 12  2  0  0  0  0
 11 28  1  0  0  0  0
 12 30  1  0  0  0  0
 13 22  1  0  0  0  0
 13 27  2  0  0  0  0
 14 23  2  0  0  0  0
 14 29  1  0  0  0  0
 15 24  2  0  0  0  0
 15 25  1  0  0  0  0
 16 30  2  0  0  0  0
 16 31  1  0  0  0  0
 17 32  1  0  0  0  0
 18 32  1  0  0  0  0
 18 33  2  0  0  0  0
 18 34  1  0  0  0  0
 19 21  2  0  0  0  0
 19 40  1  0  0  0  0
 20 22  2  0  0  0  0
 20 41  1  0  0  0  0
 21 49  1  0  0  0  0
 22 42  1  0  0  0  0
 23 24  1  0  0  0  0
 23 52  1  0  0  0  0
 24 73  1  0  0  0  0
 25 29  2  0  0  0  0
 25 70  1  0  0  0  0
 26 81  1  0  0  0  0
 27 83  1  0  0  0  0
 28 31  2  0  0  0  0
 28 81  1  0  0  0  0
 29 82  1  0  0  0  0
 30 84  1  0  0  0  0
 31 85  1  0  0  0  0
 32 64  2  0  0  0  0
 33 65  1  0  0  0  0
 33 68  1  0  0  0  0
 34 69  1  0  0  0  0
 34 75  2  0  0  0  0
 35 50  1  0  0  0  0
 35 71  1  0  0  0  0
 35 76  2  0  0  0  0
 36 61  1  0  0  0  0
 36 66  1  0  0  0  0
 36 77  2  0  0  0  0
 37 60  1  0  0  0  0
 37 70  1  0  0  0  0
 37 78  2  0  0  0  0
 38 62  1  0  0  0  0
 38 72  1  0  0  0  0
 38 79  2  0  0  0  0
 39 67  1  0  0  0  0
 39 73  1  0  0  0  0
 39 80  2  0  0  0  0
 40 43  1  0  0  0  0
 41 50  1  0  0  0  0
 42 66  1  0  0  0  0
 43 45  1  0  0  0  0
 44 46  1  0  0  0  0
 44 47  1  0  0  0  0
 45 49  1  0  0  0  0
 46 51  1  0  0  0  0
 47 67  1  0  0  0  0
 48 51  1  0  0  0  0
 48 67  1  0  0  0  0
 49 71  1  0  0  0  0
 50 66  1  0  0  0  0
 51 65  1  0  0  0  0
 53 62  1  0  0  0  0
 54 63  1  0  0  0  0
 55 63  1  0  0  0  0
 56 63  1  0  0  0  0
 57 73  1  0  0  0  0
 58 74  1  0  0  0  0
 59 82  1  0  0  0  0
 60 83  1  0  0  0  0
 61 63  1  0  0  0  0
 61 72  1  0  0  0  0
 62 74  1  0  0  0  0
 64 65  1  0  0  0  0
M  CHG  1  74   1
M  ISO  4  39 100  60 101  73 100  83 101
M  END
> <Batch ID>
0008

> <Smiles>
CNC(C)C(=O)NC(C(=O)N1Cc2cc([101O:1][101CH2:1]C(=O)Nc3cc([100N:0](C)[100C:0](=O)N4CCCC(n5nc(-c6ccc(Oc7ccc(F)cc7F)cc6)c(C(N)=O)c5N)C4)c(C)cc3OC)ccc2CC1C(=O)NC1CCCc2ccccc21)C(C)(C)C

> <Shape>
0.277

> <Color>
0.096

> <Negative vol penalty>
0.000

$$$$

  -OEChem-04052315363D

 89 97  0     1  0  0  0  0  0999 V2000
  -32.0516  -13.9821   14.5224 C   0  0  0  0  0  0  0  0  0  0  0  0
  -31.5082  -14.7723   15.5303 C   0  0  0  0  0  0  0  0  0  0  0  0
  -32.6162  -17.5986   23.2098 C   0  0  0  0  0  0  0  0  0  0  0  0
  -23.0690   -9.7945   20.0286 C   0  0  0  0  0  0  0  0  0  0  0  0
  -23.8048   -9.9294   22.3259 C   0  0  0  0  0  0  0  0  0  0  0  0
  -33.4069  -13.6561   14.5481 C   0  0  0  0  0  0  0  0  0  0  0  0
  -32.3198  -15.2362   16.5650 C   0  0  0  0  0  0  0  0  0  0  0  0
  -31.5235  -20.1256   17.6158 C   0  0  0  0  0  0  0  0  0  0  0  0
  -31.8115  -18.5065   23.8980 C   0  0  0  0  0  0  0  0  0  0  0  0
  -32.0369  -16.6651   22.3503 C   0  0  0  0  0  0  0  0  0  0  0  0
  -22.3211   -8.6577   20.3349 C   0  0  0  0  0  0  0  0  0  0  0  0
  -23.0568   -8.7926   22.6322 C   0  0  0  0  0  0  0  0  0  0  0  0
  -30.3942  -20.4389   18.3709 C   0  0  0  0  0  0  0  0  0  0  0  0
  -19.3567   -7.9457   21.7973 C   0  0  0  0  0  0  0  0  0  0  0  0
  -18.0550   -7.8732   21.3016 C   0  0  0  0  0  0  0  0  0  0  0  0
  -31.7709  -20.6208   20.3434 C   0  0  0  0  0  0  0  0  0  0  0  0
  -29.8480  -17.5474   22.8674 C   0  0  0  0  0  0  0  0  0  0  0  0
  -18.6260   -5.8588   20.0962 C   0  0  0  0  0  0  0  0  0  0  0  0
  -23.8109  -10.4303   21.0241 C   0  0  0  0  0  0  0  0  0  0  0  0
  -24.1572  -12.9446   20.7665 C   0  0  0  0  0  0  0  0  0  0  0  0
  -34.2376  -14.1242   15.5784 C   0  0  0  0  0  0  0  0  0  0  0  0
  -32.7856  -20.0468   18.2219 C   0  0  0  0  0  0  0  0  0  0  0  0
  -33.6873  -14.9150   16.6051 C   0  0  0  0  0  0  0  0  0  0  0  0
  -32.9150  -20.3088   19.5933 C   0  0  0  0  0  0  0  0  0  0  0  0
  -30.4274  -18.4809   23.7269 C   0  0  0  0  0  0  0  0  0  0  0  0
  -30.6528  -16.6395   22.1791 C   0  0  0  0  0  0  0  0  0  0  0  0
  -22.3149   -8.1567   21.6367 C   0  0  0  0  0  0  0  0  0  0  0  0
  -30.5173  -20.6837   19.7354 C   0  0  0  0  0  0  0  0  0  0  0  0
  -20.2932   -6.9747   21.4424 C   0  0  0  0  0  0  0  0  0  0  0  0
  -17.6896   -6.8298   20.4511 C   0  0  0  0  0  0  0  0  0  0  0  0
  -19.9279   -5.9312   20.5919 C   0  0  0  0  0  0  0  0  0  0  0  0
  -24.5842  -11.6044   20.7082 C   0  0  0  0  0  0  0  0  0  0  0  0
  -25.2541  -13.6717   20.3734 C   0  0  0  0  0  0  0  0  0  0  0  0
  -22.8831  -13.4839   21.1424 C   0  0  0  0  0  0  0  0  0  0  0  0
  -34.9437  -17.7470   18.6187 C   0  0  0  0  0  0  0  0  0  0  0  0
  -36.7299  -20.1687   19.8299 C   0  0  0  0  0  0  0  0  0  0  0  0
  -36.8208  -23.2503   21.2935 C   0  0  0  0  0  0  0  0  0  0  0  0
  -27.3009  -20.9116   25.1990 C   0  0  0  0  0  0  0  0  0  0  0  0
  -30.7195  -14.7217   20.5470 C   0  0  0  0  0  0  0  0  0  0  0  0
  -35.6867  -13.7064   15.5890 C   0  0  0  0  0  0  0  0  0  0  0  0
  -33.9979  -19.7339   17.3884 C   0  0  0  0  0  0  0  0  0  0  0  0
  -34.2504  -20.2568   20.2880 C   0  0  0  0  0  0  0  0  0  0  0  0
  -36.5566  -14.5485   16.5187 C   0  0  0  0  0  0  0  0  0  0  0  0
  -29.6270  -12.1798   18.3060 C   0  0  0  0  0  0  0  0  0  0  0  0
  -35.8779  -14.7213   17.8738 C   0  0  0  0  0  0  0  0  0  0  0  0
  -28.1825  -11.9137   18.7360 C   0  0  0  0  0  0  0  0  0  0  0  0
  -30.5297  -12.4749   19.5025 C   0  0  0  0  0  0  0  0  0  0  0  0
  -28.6092  -13.2769   20.8208 C   0  0  0  0  0  0  0  0  0  0  0  0
  -34.5405  -15.4578   17.7310 C   0  0  1  0  0  0  0  0  0  0  0  0
  -35.1581  -19.1760   18.2070 C   0  0  1  0  0  0  0  0  0  0  0  0
  -27.6486  -13.0386   19.6443 C   0  0  2  0  0  0  0  0  0  0  0  0
  -38.4248  -24.9535   22.2012 C   0  0  0  0  0  0  0  0  0  0  0  0
  -28.5865  -20.2864   27.2874 C   0  0  0  0  0  0  0  0  0  0  0  0
  -26.5168  -18.9841   26.6401 C   0  0  0  0  0  0  0  0  0  0  0  0
  -37.1292  -18.4591   22.3254 C   0  0  0  0  0  0  0  0  0  0  0  0
  -37.8934  -20.5175   23.5284 C   0  0  0  0  0  0  0  0  0  0  0  0
  -39.1733  -19.6788   21.5584 C   0  0  0  0  0  0  0  0  0  0  0  0
  -35.9409  -25.2910   19.3389 C   0  0  0  0  0  0  0  0  0  0  0  0
  -29.5622  -19.4576   24.4674 C   0  0  0  0  0  0  0  0  0  0  0  0
  -26.9534  -21.5651   21.9464 C   0  0  0  0  0  0  0  0  0  0  0  0
  -27.2539  -20.2397   21.2458 C   0  0  0  0  0  0  0  0  0  0  0  0
  -26.0024  -21.3993   23.1275 C   0  0  0  0  0  0  0  0  0  0  0  0
  -28.1725  -20.4366   20.0464 C   0  0  0  0  0  0  0  0  0  1  0  0
  -36.9228  -20.7734   21.1996 C   0  0  1  0  0  0  0  0  0  0  0  0
  -37.6415  -24.4891   20.9832 C   0  0  2  0  0  0  0  0  0  0  0  0
  -27.7267  -19.7704   26.1323 C   0  0  0  0  0  0  0  0  0  0  0  0
  -37.7541  -19.8564   22.1405 C   0  0  0  0  0  0  0  0  0  0  0  0
  -25.8533  -11.4844   20.3094 N   0  0  0  0  0  0  0  0  0  0  0  0
  -26.2331  -12.7585   20.1133 N   0  0  0  0  0  0  0  0  0  0  0  0
  -35.4052  -19.9406   19.4312 N   0  0  0  0  0  0  0  0  0  0  0  0
  -29.9628  -13.5536   20.3148 N   0  0  0  0  0  0  0  0  0  0  0  0
  -25.4670  -14.9969   20.2281 N   0  0  0  0  0  0  0  0  0  0  0  0
  -21.8665  -12.5958   21.5194 N   0  0  0  0  0  0  0  0  0  0  0  0
  -30.0648  -15.6916   21.3054 N   0  0  0  0  0  0  0  0  0  0  0  0
  -34.7612  -16.8779   17.5600 N   0  0  0  0  0  0  0  0  0  0  0  0
  -26.5147  -20.5023   24.1267 N   0  0  0  0  0  0  0  0  0  0  0  0
  -37.5049  -22.0937   20.9847 N   0  0  0  0  0  0  0  0  0  0  0  0
  -36.7535  -25.6020   20.5431 N   0  3  0  0  0  0  0  0  0  0  0  0
  -28.5782  -18.8021   25.3573 N   0  3  0  0  0  0  0  0  0  0  0  0
  -22.6478  -14.7160   21.1283 O   0  0  0  0  0  0  0  0  0  0  0  0
  -34.9452  -17.4543   19.8087 O   0  0  0  0  0  0  0  0  0  0  0  0
  -37.7178  -19.9150   19.1363 O   0  0  0  0  0  0  0  0  0  0  0  0
  -35.6876  -23.3034   21.7664 O   0  0  0  0  0  0  0  0  0  0  0  0
  -27.6360  -22.0788   25.4001 O   0  0  0  0  0  0  0  0  0  0  0  0
  -31.8537  -14.8632   20.0826 O   0  0  0  0  0  0  0  0  0  0  0  0
  -21.5850   -7.0476   21.9359 O   0  0  0  0  0  0  0  0  0  0  0  0
  -29.4165  -20.9890   20.4749 O   0  0  0  0  0  0  0  0  0  1  0  0
  -16.4390   -6.7595   19.9764 F   0  0  0  0  0  0  0  0  0  0  0  0
  -20.8228   -4.9948   20.2484 F   0  0  0  0  0  0  0  0  0  0  0  0
  1  2  1  0  0  0  0
  1  6  2  0  0  0  0
  2  7  2  0  0  0  0
  3  9  2  0  0  0  0
  3 10  1  0  0  0  0
  4 11  2  0  0  0  0
  4 19  1  0  0  0  0
  5 12  1  0  0  0  0
  5 19  2  0  0  0  0
  6 21  1  0  0  0  0
  7 23  1  0  0  0  0
  8 13  2  0  0  0  0
  8 22  1  0  0  0  0
  9 25  1  0  0  0  0
 10 26  2  0  0  0  0
 11 27  1  0  0  0  0
 12 27  2  0  0  0  0
 13 28  1  0  0  0  0
 14 15  2  0  0  0  0
 14 29  1  0  0  0  0
 15 30  1  0  0  0  0
 16 24  1  0  0  0  0
 16 28  2  0  0  0  0
 17 25  2  0  0  0  0
 17 26  1  0  0  0  0
 18 30  2  0  0  0  0
 18 31  1  0  0  0  0
 19 32  1  0  0  0  0
 20 32  1  0  0  0  0
 20 33  2  0  0  0  0
 20 34  1  0  0  0  0
 21 23  2  0  0  0  0
 21 40  1  0  0  0  0
 22 24  2  0  0  0  0
 22 41  1  0  0  0  0
 23 49  1  0  0  0  0
 24 42  1  0  0  0  0
 25 59  1  0  0  0  0
 26 74  1  0  0  0  0
 27 86  1  0  0  0  0
 28 87  1  0  0  0  0
 29 31  2  0  0  0  0
 29 86  1  0  0  0  0
 30 88  1  0  0  0  0
 31 89  1  0  0  0  0
 32 68  2  0  0  0  0
 33 69  1  0  0  0  0
 33 72  1  0  0  0  0
 34 73  1  0  0  0  0
 34 80  2  0  0  0  0
 35 50  1  0  0  0  0
 35 75  1  0  0  0  0
 35 81  2  0  0  0  0
 36 64  1  0  0  0  0
 36 70  1  0  0  0  0
 36 82  2  0  0  0  0
 37 65  1  0  0  0  0
 37 77  1  0  0  0  0
 37 83  2  0  0  0  0
 38 66  1  0  0  0  0
 38 76  1  0  0  0  0
 38 84  2  0  0  0  0
 39 71  1  0  0  0  0
 39 74  1  0  0  0  0
 39 85  2  0  0  0  0
 40 43  1  0  0  0  0
 41 50  1  0  0  0  0
 42 70  1  0  0  0  0
 43 45  1  0  0  0  0
 44 46  1  0  0  0  0
 44 47  1  0  0  0  0
 45 49  1  0  0  0  0
 46 51  1  0  0  0  0
 47 71  1  0  0  0  0
 48 51  1  0  0  0  0
 48 71  1  0  0  0  0
 49 75  1  0  0  0  0
 50 70  1  0  0  0  0
 51 69  1  0  0  0  0
 52 65  1  0  0  0  0
 53 66  1  0  0  0  0
 54 66  1  0  0  0  0
 55 67  1  0  0  0  0
 56 67  1  0  0  0  0
 57 67  1  0  0  0  0
 58 78  1  0  0  0  0
 59 79  1  0  0  0  0
 60 61  1  0  0  0  0
 60 62  1  0  0  0  0
 61 63  1  0  0  0  0
 62 76  1  0  0  0  0
 63 87  1  0  0  0  0
 64 67  1  0  0  0  0
 64 77  1  0  0  0  0
 65 78  1  0  0  0  0
 66 79  1  0  0  0  0
 68 69  1  0  0  0  0
M  CHG  2  78   1  79   1
M  ISO  4  39 100  63 101  74 100  87 101
M  END
> <Batch ID>
0008

> <Smiles>
CNC(C)C(=O)NC(C(=O)N1Cc2cc([101O:1][101CH2:1]CCCNC(=O)C(C)(C)NCc3cccc([100NH:0][100C:0](=O)N4CCCC(n5nc(-c6ccc(Oc7ccc(F)cc7F)cc6)c(C(N)=O)c5N)C4)c3)ccc2CC1C(=O)NC1CCCc2ccccc21)C(C)(C)C

> <Shape>
0.168

> <Color>
0.189

> <Negative vol penalty>
0.000

$$$$

  -OEChem-04052315363D

 90 98  0     1  0  0  0  0  0999 V2000
  -20.9463  -17.8101   17.4378 C   0  0  0  0  0  0  0  0  0  0  0  0
  -21.8383  -18.8774   17.4631 C   0  0  0  0  0  0  0  0  0  0  0  0
  -26.9320  -12.1024   21.8435 C   0  0  0  0  0  0  0  0  0  0  0  0
  -26.0873  -13.9545   20.5423 C   0  0  0  0  0  0  0  0  0  0  0  0
  -19.5765  -18.0452   17.5490 C   0  0  0  0  0  0  0  0  0  0  0  0
  -21.3609  -20.1805   17.5985 C   0  0  0  0  0  0  0  0  0  0  0  0
  -24.0291  -22.8892   20.9434 C   0  0  0  0  0  0  0  0  0  0  0  0
  -25.6424  -11.5790   21.9359 C   0  0  0  0  0  0  0  0  0  0  0  0
  -24.7976  -13.4311   20.6346 C   0  0  0  0  0  0  0  0  0  0  0  0
  -25.2588  -23.3915   20.5197 C   0  0  0  0  0  0  0  0  0  0  0  0
  -23.5219   -9.8195   19.9761 C   0  0  0  0  0  0  0  0  0  0  0  0
  -23.3598   -8.4521   19.7537 C   0  0  0  0  0  0  0  0  0  0  0  0
  -24.2422  -25.5465   20.1434 C   0  0  0  0  0  0  0  0  0  0  0  0
  -29.4191  -22.8638   20.7014 C   0  0  0  0  0  0  0  0  0  0  0  0
  -31.0595  -22.1419   22.8393 C   0  0  0  0  0  0  0  0  0  0  0  0
  -22.4653   -8.1956   21.9833 C   0  0  0  0  0  0  0  0  0  0  0  0
  -27.1545  -13.2901   21.1468 C   0  0  0  0  0  0  0  0  0  0  0  0
  -29.4425  -13.5662   20.0528 C   0  0  0  0  0  0  0  0  0  0  0  0
  -19.0827  -19.3510   17.6956 C   0  0  0  0  0  0  0  0  0  0  0  0
  -22.8925  -23.7103   20.9599 C   0  0  0  0  0  0  0  0  0  0  0  0
  -19.9831  -20.4334   17.7104 C   0  0  0  0  0  0  0  0  0  0  0  0
  -22.9998  -25.0530   20.5701 C   0  0  0  0  0  0  0  0  0  0  0  0
  -30.1667  -23.8359   21.3660 C   0  0  0  0  0  0  0  0  0  0  0  0
  -30.3119  -21.1698   22.1747 C   0  0  0  0  0  0  0  0  0  0  0  0
  -24.5752  -12.2434   21.3314 C   0  0  0  0  0  0  0  0  0  0  0  0
  -25.3649  -24.7194   20.1169 C   0  0  0  0  0  0  0  0  0  0  0  0
  -23.1558  -10.3750   21.2022 C   0  0  0  0  0  0  0  0  0  0  0  0
  -29.4917  -21.5307   21.1057 C   0  0  0  0  0  0  0  0  0  0  0  0
  -22.8314   -7.6401   20.7573 C   0  0  0  0  0  0  0  0  0  0  0  0
  -22.6275   -9.5630   22.2057 C   0  0  0  0  0  0  0  0  0  0  0  0
  -30.9869  -23.4750   22.4349 C   0  0  0  0  0  0  0  0  0  0  0  0
  -28.4864  -13.8316   21.0515 C   0  0  0  0  0  0  0  0  0  0  0  0
  -30.5336  -14.3184   20.4136 C   0  0  0  0  0  0  0  0  0  0  0  0
  -29.3523  -12.7160   18.9019 C   0  0  0  0  0  0  0  0  0  0  0  0
  -20.0762  -23.6722   19.4865 C   0  0  0  0  0  0  0  0  0  0  0  0
  -19.4517  -26.1752   21.4531 C   0  0  0  0  0  0  0  0  0  0  0  0
  -28.8612  -25.6575   20.3408 C   0  0  0  0  0  0  0  0  0  0  0  0
  -20.6617  -28.7363   23.3565 C   0  0  0  0  0  0  0  0  0  0  0  0
  -31.1659  -19.3076   23.6406 C   0  0  0  0  0  0  0  0  0  0  0  0
  -17.5906  -19.5594   17.7647 C   0  0  0  0  0  0  0  0  0  0  0  0
  -21.5791  -23.1607   21.4449 C   0  0  0  0  0  0  0  0  0  0  0  0
  -21.8140  -25.9813   20.5885 C   0  0  0  0  0  0  0  0  0  0  0  0
  -17.1916  -20.9393   18.2816 C   0  0  0  0  0  0  0  0  0  0  0  0
  -32.7057  -16.1585   24.2646 C   0  0  0  0  0  0  0  0  0  0  0  0
  -18.0091  -22.0254   17.5898 C   0  0  0  0  0  0  0  0  0  0  0  0
  -31.8893  -15.1812   23.4158 C   0  0  0  0  0  0  0  0  0  0  0  0
  -31.8288  -17.2527   24.8707 C   0  0  0  0  0  0  0  0  0  0  0  0
  -30.1767  -17.0054   23.0600 C   0  0  0  0  0  0  0  0  0  0  0  0
  -19.5055  -21.8592   17.8808 C   0  0  1  0  0  0  0  0  0  0  0  0
  -20.3764  -23.9473   20.9328 C   0  0  1  0  0  0  0  0  0  0  0  0
  -31.0269  -15.9226   22.3755 C   0  0  2  0  0  0  0  0  0  0  0  0
  -19.9070  -30.6342   24.8145 C   0  0  0  0  0  0  0  0  0  0  0  0
  -32.2246  -24.8921   17.0510 C   0  0  0  0  0  0  0  0  0  0  0  0
  -31.5090  -27.2367   16.4655 C   0  0  0  0  0  0  0  0  0  0  0  0
  -18.6751  -27.7703   18.9706 C   0  0  0  0  0  0  0  0  0  0  0  0
  -18.8558  -29.8579   20.3408 C   0  0  0  0  0  0  0  0  0  0  0  0
  -17.1763  -28.1144   20.9428 C   0  0  0  0  0  0  0  0  0  0  0  0
  -22.0563  -27.6280   25.7199 C   0  0  0  0  0  0  0  0  0  0  0  0
  -29.3672  -19.9617   19.3230 C   0  0  0  0  0  0  0  0  0  0  0  0
  -27.7363  -24.6346   20.2752 C   0  0  0  0  0  0  0  0  0  1  0  0
  -31.2294  -26.0989   21.0845 C   0  0  0  0  0  0  0  0  0  0  0  0
  -32.1086  -26.0214   19.8497 C   0  0  0  0  0  0  0  0  0  0  0  0
  -19.6290  -27.6719   21.3678 C   0  0  1  0  0  0  0  0  0  0  0  0
  -20.3409  -29.1772   24.7732 C   0  0  2  0  0  0  0  0  0  0  0  0
  -32.1323  -26.3359   17.5209 C   0  0  0  0  0  0  0  0  0  0  0  0
  -18.6062  -28.3359   20.4032 C   0  0  0  0  0  0  0  0  0  0  0  0
  -28.9311  -14.6854   21.9773 N   0  0  0  0  0  0  0  0  0  0  0  0
  -30.1787  -14.9632   21.5619 N   0  0  0  0  0  0  0  0  0  0  0  0
  -20.5502  -25.3952   21.0649 N   0  0  0  0  0  0  0  0  0  0  0  0
  -31.0440  -17.9142   23.8260 N   0  0  0  0  0  0  0  0  0  0  0  0
  -31.7524  -14.4846   19.8575 N   0  0  0  0  0  0  0  0  0  0  0  0
  -28.1588  -12.0153   18.6808 N   0  0  0  0  0  0  0  0  0  0  0  0
  -30.3962  -19.8198   22.5967 N   0  0  0  0  0  0  0  0  0  0  0  0
  -19.8191  -22.3433   19.2081 N   0  0  0  0  0  0  0  0  0  0  0  0
  -19.5677  -28.1689   22.7381 N   0  0  0  0  0  0  0  0  0  0  0  0
  -30.0682  -25.2109   20.9199 N   0  0  0  0  0  0  0  0  0  0  0  0
  -21.5364  -29.0179   25.6486 N   0  3  0  0  0  0  0  0  0  0  0  0
  -30.3077  -12.5689   18.1025 O   0  0  0  0  0  0  0  0  0  0  0  0
  -20.0763  -24.5973   18.6829 O   0  0  0  0  0  0  0  0  0  0  0  0
  -18.3805  -25.7151   21.8561 O   0  0  0  0  0  0  0  0  0  0  0  0
  -28.6506  -26.7989   19.9230 O   0  0  0  0  0  0  0  0  0  0  0  0
  -21.7708  -28.8841   22.8479 O   0  0  0  0  0  0  0  0  0  0  0  0
  -31.9197  -19.9915   24.3377 O   0  0  0  0  0  0  0  0  0  0  0  0
  -23.3167  -11.7329   21.4211 O   0  0  0  0  0  0  0  0  0  0  0  0
  -28.7533  -20.5964   20.4425 O   0  0  0  0  0  0  0  0  0  0  0  0
  -26.5638  -25.2120   19.7023 O   0  0  0  0  0  0  0  0  0  1  0  0
  -31.3501  -26.3929   18.7058 O   0  0  0  0  0  0  0  0  0  0  0  0
  -22.6744   -6.3273   20.5430 F   0  0  0  0  0  0  0  0  0  0  0  0
  -22.2728  -10.0911   23.3852 F   0  0  0  0  0  0  0  0  0  0  0  0
  -31.9283  -24.6473   23.2862 Cl  0  0  0  0  0  0  0  0  0  0  0  0
  1  2  1  0  0  0  0
  1  5  2  0  0  0  0
  2  6  2  0  0  0  0
  3  8  2  0  0  0  0
  3 17  1  0  0  0  0
  4  9  1  0  0  0  0
  4 17  2  0  0  0  0
  5 19  1  0  0  0  0
  6 21  1  0  0  0  0
  7 10  2  0  0  0  0
  7 20  1  0  0  0  0
  8 25  1  0  0  0  0
  9 25  2  0  0  0  0
 10 26  1  0  0  0  0
 11 12  2  0  0  0  0
 11 27  1  0  0  0  0
 12 29  1  0  0  0  0
 13 22  1  0  0  0  0
 13 26  2  0  0  0  0
 14 23  1  0  0  0  0
 14 28  2  0  0  0  0
 15 24  2  0  0  0  0
 15 31  1  0  0  0  0
 16 29  2  0  0  0  0
 16 30  1  0  0  0  0
 17 32  1  0  0  0  0
 18 32  1  0  0  0  0
 18 33  2  0  0  0  0
 18 34  1  0  0  0  0
 19 21  2  0  0  0  0
 19 40  1  0  0  0  0
 20 22  2  0  0  0  0
 20 41  1  0  0  0  0
 21 49  1  0  0  0  0
 22 42  1  0  0  0  0
 23 31  2  0  0  0  0
 23 76  1  0  0  0  0
 24 28  1  0  0  0  0
 24 73  1  0  0  0  0
 25 84  1  0  0  0  0
 26 86  1  0  0  0  0
 27 30  2  0  0  0  0
 27 84  1  0  0  0  0
 28 85  1  0  0  0  0
 29 88  1  0  0  0  0
 30 89  1  0  0  0  0
 31 90  1  0  0  0  0
 32 67  2  0  0  0  0
 33 68  1  0  0  0  0
 33 71  1  0  0  0  0
 34 72  1  0  0  0  0
 34 78  2  0  0  0  0
 35 50  1  0  0  0  0
 35 74  1  0  0  0  0
 35 79  2  0  0  0  0
 36 63  1  0  0  0  0
 36 69  1  0  0  0  0
 36 80  2  0  0  0  0
 37 60  1  0  0  0  0
 37 76  1  0  0  0  0
 37 81  2  0  0  0  0
 38 64  1  0  0  0  0
 38 75  1  0  0  0  0
 38 82  2  0  0  0  0
 39 70  1  0  0  0  0
 39 73  1  0  0  0  0
 39 83  2  0  0  0  0
 40 43  1  0  0  0  0
 41 50  1  0  0  0  0
 42 69  1  0  0  0  0
 43 45  1  0  0  0  0
 44 46  1  0  0  0  0
 44 47  1  0  0  0  0
 45 49  1  0  0  0  0
 46 51  1  0  0  0  0
 47 70  1  0  0  0  0
 48 51  1  0  0  0  0
 48 70  1  0  0  0  0
 49 74  1  0  0  0  0
 50 69  1  0  0  0  0
 51 68  1  0  0  0  0
 52 64  1  0  0  0  0
 53 65  1  0  0  0  0
 54 65  1  0  0  0  0
 55 66  1  0  0  0  0
 56 66  1  0  0  0  0
 57 66  1  0  0  0  0
 58 77  1  0  0  0  0
 59 85  1  0  0  0  0
 60 86  1  0  0  0  0
 61 62  1  0  0  0  0
 61 76  1  0  0  0  0
 62 87  1  0  0  0  0
 63 66  1  0  0  0  0
 63 75  1  0  0  0  0
 64 77  1  0  0  0  0
 65 87  1  0  0  0  0
 67 68  1  0  0  0  0
M  CHG  1  77   1
M  ISO  4  39 100  60 101  73 100  86 101
M  END
> <Batch ID>
0008

> <Smiles>
CNC(C)C(=O)NC(C(=O)N1Cc2cc([101O:1][101CH2:1]C(=O)N(CCOC(C)C)c3cc(OC)c([100NH:0][100C:0](=O)N4CCCC(n5nc(-c6ccc(Oc7ccc(F)cc7F)cc6)c(C(N)=O)c5N)C4)cc3Cl)ccc2CC1C(=O)NC1CCCc2ccccc21)C(C)(C)C

> <Shape>
0.238

> <Color>
0.073

> <Negative vol penalty>
0.000

$$$$

  -OEChem-04052315363D

 83 91  0     1  0  0  0  0  0999 V2000
  -28.0667  -31.6684   28.1077 C   0  0  0  0  0  0  0  0  0  0  0  0
  -28.2617  -30.7530   27.0784 C   0  0  0  0  0  0  0  0  0  0  0  0
  -24.3972   -9.0445   21.4349 C   0  0  0  0  0  0  0  0  0  0  0  0
  -23.9346  -10.8276   22.9982 C   0  0  0  0  0  0  0  0  0  0  0  0
  -26.7779  -32.0965   28.4233 C   0  0  0  0  0  0  0  0  0  0  0  0
  -27.1679  -30.2643   26.3648 C   0  0  0  0  0  0  0  0  0  0  0  0
  -27.0031  -28.8122   20.4175 C   0  0  0  0  0  0  0  0  0  0  0  0
  -23.8859   -8.1165   22.3421 C   0  0  0  0  0  0  0  0  0  0  0  0
  -23.4232   -9.8995   23.9053 C   0  0  0  0  0  0  0  0  0  0  0  0
  -27.1092  -27.5951   19.7459 C   0  0  0  0  0  0  0  0  0  0  0  0
  -22.3706   -5.3192   24.1010 C   0  0  0  0  0  0  0  0  0  0  0  0
  -21.5063   -4.3407   23.6100 C   0  0  0  0  0  0  0  0  0  0  0  0
  -24.7035  -27.4371   19.6646 C   0  0  0  0  0  0  0  0  0  0  0  0
  -29.3845  -19.2371   19.4764 C   0  0  0  0  0  0  0  0  0  0  0  0
  -26.9720  -20.4832   18.8363 C   0  0  0  0  0  0  0  0  0  0  0  0
  -19.9809   -6.0608   22.8673 C   0  0  0  0  0  0  0  0  0  0  0  0
  -24.4216  -10.4000   21.7630 C   0  0  0  0  0  0  0  0  0  0  0  0
  -24.2407  -12.0515   19.8271 C   0  0  0  0  0  0  0  0  0  0  0  0
  -25.6686  -31.6201   27.7069 C   0  0  0  0  0  0  0  0  0  0  0  0
  -25.7443  -29.3465   20.7280 C   0  0  0  0  0  0  0  0  0  0  0  0
  -25.8629  -30.6854   26.6721 C   0  0  0  0  0  0  0  0  0  0  0  0
  -24.5841  -28.6624   20.3380 C   0  0  0  0  0  0  0  0  0  0  0  0
  -28.2670  -18.4681   19.1518 C   0  0  0  0  0  0  0  0  0  0  0  0
  -28.0896  -21.2522   19.1610 C   0  0  0  0  0  0  0  0  0  0  0  0
  -23.3989   -8.5440   23.5773 C   0  0  0  0  0  0  0  0  0  0  0  0
  -25.9594  -26.9059   19.3719 C   0  0  0  0  0  0  0  0  0  0  0  0
  -22.0401   -6.6685   23.9753 C   0  0  0  0  0  0  0  0  0  0  0  0
  -20.3115   -4.7115   22.9931 C   0  0  0  0  0  0  0  0  0  0  0  0
  -29.2958  -20.6292   19.4811 C   0  0  0  0  0  0  0  0  0  0  0  0
  -20.8453   -7.0393   23.3584 C   0  0  0  0  0  0  0  0  0  0  0  0
  -27.0608  -19.0912   18.8317 C   0  0  0  0  0  0  0  0  0  0  0  0
  -24.9503  -11.3591   20.8266 C   0  0  0  0  0  0  0  0  0  0  0  0
  -25.1875  -12.8354   19.2144 C   0  0  0  0  0  0  0  0  0  0  0  0
  -22.8501  -11.9914   19.4833 C   0  0  0  0  0  0  0  0  0  0  0  0
  -24.2190  -30.0764   23.4195 C   0  0  0  0  0  0  0  0  0  0  0  0
  -22.0097  -31.2924   21.3792 C   0  0  0  0  0  0  0  0  0  0  0  0
  -26.8803  -23.4407   18.8743 C   0  0  0  0  0  0  0  0  0  0  0  0
  -20.6310  -31.2781   18.2574 C   0  0  0  0  0  0  0  0  0  0  0  0
  -29.5315  -16.3104   19.4545 C   0  0  0  0  0  0  0  0  0  0  0  0
  -24.2902  -32.0759   28.1157 C   0  0  0  0  0  0  0  0  0  0  0  0
  -25.6467  -30.6735   21.4293 C   0  0  0  0  0  0  0  0  0  0  0  0
  -23.2089  -29.2030   20.6296 C   0  0  0  0  0  0  0  0  0  0  0  0
  -23.2192  -31.7951   27.0648 C   0  0  0  0  0  0  0  0  0  0  0  0
  -30.2336  -12.8234   19.6128 C   0  0  0  0  0  0  0  0  0  0  0  0
  -23.3474  -30.3686   26.5399 C   0  0  0  0  0  0  0  0  0  0  0  0
  -28.8633  -12.1885   19.8605 C   0  0  0  0  0  0  0  0  0  0  0  0
  -30.3835  -14.1539   20.3483 C   0  0  0  0  0  0  0  0  0  0  0  0
  -27.9433  -14.4925   20.3425 C   0  0  0  0  0  0  0  0  0  0  0  0
  -24.7040  -30.1512   25.8588 C   0  0  1  0  0  0  0  0  0  0  0  0
  -24.3164  -30.8726   22.1490 C   0  0  1  0  0  0  0  0  0  0  0  0
  -27.7212  -13.1819   19.5701 C   0  0  2  0  0  0  0  0  0  0  0  0
  -18.8152  -32.3552   16.9009 C   0  0  0  0  0  0  0  0  0  0  0  0
  -19.9282  -29.5824   22.8122 C   0  0  0  0  0  0  0  0  0  0  0  0
  -18.3901  -29.9522   20.8716 C   0  0  0  0  0  0  0  0  0  0  0  0
  -19.1629  -31.8925   22.2358 C   0  0  0  0  0  0  0  0  0  0  0  0
  -22.5754  -32.3870   16.3213 C   0  0  0  0  0  0  0  0  0  0  0  0
  -27.2083  -24.9172   18.9958 C   0  0  0  0  0  0  0  0  0  1  0  0
  -20.7901  -30.7479   20.6756 C   0  0  1  0  0  0  0  0  0  0  0  0
  -20.2801  -32.4078   17.3060 C   0  0  2  0  0  0  0  0  0  0  0  0
  -19.5936  -30.5323   21.6449 C   0  0  0  0  0  0  0  0  0  0  0  0
  -26.2477  -11.6752   20.8507 N   0  0  0  0  0  0  0  0  0  0  0  0
  -26.3610  -12.5749   19.8588 N   0  0  0  0  0  0  0  0  0  0  0  0
  -23.1657  -30.5010   21.3230 N   0  0  0  0  0  0  0  0  0  0  0  0
  -29.2685  -15.0454   20.0215 N   0  0  0  0  0  0  0  0  0  0  0  0
  -25.1225  -13.7153   18.1926 N   0  0  0  0  0  0  0  0  0  0  0  0
  -22.0175  -11.1333   20.2146 N   0  0  0  0  0  0  0  0  0  0  0  0
  -27.9968  -22.6643   19.1653 N   0  0  0  0  0  0  0  0  0  0  0  0
  -28.3920  -17.0567   19.1561 N   0  0  0  0  0  0  0  0  0  0  0  0
  -24.7035  -30.7340   24.5341 N   0  0  0  0  0  0  0  0  0  0  0  0
  -20.5103  -31.6643   19.5755 N   0  0  0  0  0  0  0  0  0  0  0  0
  -21.1121  -32.3236   16.0725 N   0  3  0  0  0  0  0  0  0  0  0  0
  -22.3634  -12.6661   18.5445 O   0  0  0  0  0  0  0  0  0  0  0  0
  -23.7384  -28.9495   23.3910 O   0  0  0  0  0  0  0  0  0  0  0  0
  -21.9412  -32.3831   21.9513 O   0  0  0  0  0  0  0  0  0  0  0  0
  -25.7597  -23.0554   18.5574 O   0  0  0  0  0  0  0  0  0  0  0  0
  -20.9740  -30.1633   17.8699 O   0  0  0  0  0  0  0  0  0  0  0  0
  -30.6819  -16.6916   19.2238 O   0  0  0  0  0  0  0  0  0  0  0  0
  -22.8996   -7.6388   24.4626 O   0  0  0  0  0  0  0  0  0  0  0  0
  -26.0601  -25.7174   18.7168 O   0  0  0  0  0  0  0  0  0  1  0  0
  -19.4823   -3.7718   22.5203 F   0  0  0  0  0  0  0  0  0  0  0  0
  -30.3763  -21.3584   19.7948 F   0  0  0  0  0  0  0  0  0  0  0  0
  -20.5229   -8.3340   23.2336 F   0  0  0  0  0  0  0  0  0  0  0  0
  -25.6525  -18.1766   18.4248 Cl  0  0  0  0  0  0  0  0  0  0  0  0
  1  2  1  0  0  0  0
  1  5  2  0  0  0  0
  2  6  2  0  0  0  0
  3  8  2  0  0  0  0
  3 17  1  0  0  0  0
  4  9  1  0  0  0  0
  4 17  2  0  0  0  0
  5 19  1  0  0  0  0
  6 21  1  0  0  0  0
  7 10  2  0  0  0  0
  7 20  1  0  0  0  0
  8 25  1  0  0  0  0
  9 25  2  0  0  0  0
 10 26  1  0  0  0  0
 11 12  2  0  0  0  0
 11 27  1  0  0  0  0
 12 28  1  0  0  0  0
 13 22  1  0  0  0  0
 13 26  2  0  0  0  0
 14 23  2  0  0  0  0
 14 29  1  0  0  0  0
 15 24  1  0  0  0  0
 15 31  2  0  0  0  0
 16 28  2  0  0  0  0
 16 30  1  0  0  0  0
 17 32  1  0  0  0  0
 18 32  1  0  0  0  0
 18 33  2  0  0  0  0
 18 34  1  0  0  0  0
 19 21  2  0  0  0  0
 19 40  1  0  0  0  0
 20 22  2  0  0  0  0
 20 41  1  0  0  0  0
 21 49  1  0  0  0  0
 22 42  1  0  0  0  0
 23 31  1  0  0  0  0
 23 68  1  0  0  0  0
 24 29  2  0  0  0  0
 24 67  1  0  0  0  0
 25 78  1  0  0  0  0
 26 79  1  0  0  0  0
 27 30  2  0  0  0  0
 27 78  1  0  0  0  0
 28 80  1  0  0  0  0
 29 81  1  0  0  0  0
 30 82  1  0  0  0  0
 31 83  1  0  0  0  0
 32 61  2  0  0  0  0
 33 62  1  0  0  0  0
 33 65  1  0  0  0  0
 34 66  1  0  0  0  0
 34 72  2  0  0  0  0
 35 50  1  0  0  0  0
 35 69  1  0  0  0  0
 35 73  2  0  0  0  0
 36 58  1  0  0  0  0
 36 63  1  0  0  0  0
 36 74  2  0  0  0  0
 37 57  1  0  0  0  0
 37 67  1  0  0  0  0
 37 75  2  0  0  0  0
 38 59  1  0  0  0  0
 38 70  1  0  0  0  0
 38 76  2  0  0  0  0
 39 64  1  0  0  0  0
 39 68  1  0  0  0  0
 39 77  2  0  0  0  0
 40 43  1  0  0  0  0
 41 50  1  0  0  0  0
 42 63  1  0  0  0  0
 43 45  1  0  0  0  0
 44 46  1  0  0  0  0
 44 47  1  0  0  0  0
 45 49  1  0  0  0  0
 46 51  1  0  0  0  0
 47 64  1  0  0  0  0
 48 51  1  0  0  0  0
 48 64  1  0  0  0  0
 49 69  1  0  0  0  0
 50 63  1  0  0  0  0
 51 62  1  0  0  0  0
 52 59  1  0  0  0  0
 53 60  1  0  0  0  0
 54 60  1  0  0  0  0
 55 60  1  0  0  0  0
 56 71  1  0  0  0  0
 57 79  1  0  0  0  0
 58 60  1  0  0  0  0
 58 70  1  0  0  0  0
 59 71  1  0  0  0  0
 61 62  1  0  0  0  0
M  CHG  1  71   1
M  ISO  4  39 100  57 101  68 100  79 101
M  END
> <Batch ID>
0008

> <Smiles>
CNC(C)C(=O)NC(C(=O)N1Cc2cc([101O:1][101CH2:1]C(=O)Nc3cc(Cl)c([100NH:0][100C:0](=O)N4CCCC(n5nc(-c6ccc(Oc7ccc(F)cc7F)cc6)c(C(N)=O)c5N)C4)cc3F)ccc2CC1C(=O)NC1CCCc2ccccc21)C(C)(C)C

> <Shape>
0.284

> <Color>
0.106

> <Negative vol penalty>
0.000

$$$$

  -OEChem-04052315363D

 83 91  0     1  0  0  0  0  0999 V2000
  -22.9409  -26.8400   19.8920 C   0  0  0  0  0  0  0  0  0  0  0  0
  -23.9372  -26.1478   20.5729 C   0  0  0  0  0  0  0  0  0  0  0  0
  -32.2881  -17.9757   23.2894 C   0  0  0  0  0  0  0  0  0  0  0  0
  -23.1037   -9.7715   20.0596 C   0  0  0  0  0  0  0  0  0  0  0  0
  -23.6837  -10.0793   22.3846 C   0  0  0  0  0  0  0  0  0  0  0  0
  -22.9353  -28.2343   19.8956 C   0  0  0  0  0  0  0  0  0  0  0  0
  -24.9292  -26.8495   21.2570 C   0  0  0  0  0  0  0  0  0  0  0  0
  -25.8340  -24.9431   25.8605 C   0  0  0  0  0  0  0  0  0  0  0  0
  -31.4361  -18.9162   23.8683 C   0  0  0  0  0  0  0  0  0  0  0  0
  -31.7685  -16.9795   22.4627 C   0  0  0  0  0  0  0  0  0  0  0  0
  -22.3591   -8.6407   20.3950 C   0  0  0  0  0  0  0  0  0  0  0  0
  -22.9390   -8.9485   22.7201 C   0  0  0  0  0  0  0  0  0  0  0  0
  -26.6128  -23.7888   25.9298 C   0  0  0  0  0  0  0  0  0  0  0  0
  -23.3191   -5.5910   22.6052 C   0  0  0  0  0  0  0  0  0  0  0  0
  -23.8916   -4.6769   23.4896 C   0  0  0  0  0  0  0  0  0  0  0  0
  -28.5337  -25.1270   26.5117 C   0  0  0  0  0  0  0  0  0  0  0  0
  -22.0610   -5.0195   25.0287 C   0  0  0  0  0  0  0  0  0  0  0  0
  -23.7661  -10.4907   21.0544 C   0  0  0  0  0  0  0  0  0  0  0  0
  -24.0805  -12.9892   20.6461 C   0  0  0  0  0  0  0  0  0  0  0  0
  -23.9222  -28.9534   20.5881 C   0  0  0  0  0  0  0  0  0  0  0  0
  -26.4027  -26.2012   26.1060 C   0  0  0  0  0  0  0  0  0  0  0  0
  -24.9376  -28.2547   21.2688 C   0  0  0  0  0  0  0  0  0  0  0  0
  -27.7594  -26.2955   26.4474 C   0  0  0  0  0  0  0  0  0  0  0  0
  -30.0645  -18.8605   23.6207 C   0  0  0  0  0  0  0  0  0  0  0  0
  -30.3970  -16.9238   22.2151 C   0  0  0  0  0  0  0  0  0  0  0  0
  -22.2767   -8.2293   21.7252 C   0  0  0  0  0  0  0  0  0  0  0  0
  -27.9635  -23.8809   26.2526 C   0  0  0  0  0  0  0  0  0  0  0  0
  -22.1175   -6.2194   22.9325 C   0  0  0  0  0  0  0  0  0  0  0  0
  -29.5449  -17.8642   22.7941 C   0  0  0  0  0  0  0  0  0  0  0  0
  -23.2626   -4.3912   24.7014 C   0  0  0  0  0  0  0  0  0  0  0  0
  -21.4885   -5.9336   24.1442 C   0  0  0  0  0  0  0  0  0  0  0  0
  -24.5359  -11.6586   20.7084 C   0  0  0  0  0  0  0  0  0  0  0  0
  -25.1868  -13.7137   20.2751 C   0  0  0  0  0  0  0  0  0  0  0  0
  -22.7742  -13.5226   20.9008 C   0  0  0  0  0  0  0  0  0  0  0  0
  -26.8112  -28.8502   24.3973 C   0  0  0  0  0  0  0  0  0  0  0  0
  -27.8810  -30.0396   27.2192 C   0  0  0  0  0  0  0  0  0  0  0  0
  -29.5767  -20.8695   25.0559 C   0  0  0  0  0  0  0  0  0  0  0  0
  -29.2332  -29.4317   30.2932 C   0  0  0  0  0  0  0  0  0  0  0  0
  -30.6077  -14.9017   20.7274 C   0  0  0  0  0  0  0  0  0  0  0  0
  -23.9019  -30.4601   20.5240 C   0  0  0  0  0  0  0  0  0  0  0  0
  -25.5429  -27.4343   26.0533 C   0  0  0  0  0  0  0  0  0  0  0  0
  -28.4133  -27.6204   26.7398 C   0  0  0  0  0  0  0  0  0  0  0  0
  -24.7741  -31.1266   21.5849 C   0  0  0  0  0  0  0  0  0  0  0  0
  -29.7141  -12.1885   18.6021 C   0  0  0  0  0  0  0  0  0  0  0  0
  -26.1429  -30.4566   21.6487 C   0  0  0  0  0  0  0  0  0  0  0  0
  -28.2498  -11.9182   18.9555 C   0  0  0  0  0  0  0  0  0  0  0  0
  -30.5302  -12.5853   19.8310 C   0  0  0  0  0  0  0  0  0  0  0  0
  -28.5120  -13.4294   20.9641 C   0  0  0  0  0  0  0  0  0  0  0  0
  -26.0167  -28.9801   22.0430 C   0  0  1  0  0  0  0  0  0  0  0  0
  -26.3437  -28.7114   25.8185 C   0  0  1  0  0  0  0  0  0  0  0  0
  -27.6358  -13.0893   19.7475 C   0  0  2  0  0  0  0  0  0  0  0  0
  -30.0304  -30.6073   32.3619 C   0  0  0  0  0  0  0  0  0  0  0  0
  -30.4207  -30.8874   25.7559 C   0  0  0  0  0  0  0  0  0  0  0  0
  -31.5269  -31.1697   27.9841 C   0  0  0  0  0  0  0  0  0  0  0  0
  -29.5480  -32.5675   27.3899 C   0  0  0  0  0  0  0  0  0  0  0  0
  -27.2374  -28.0510   31.9871 C   0  0  0  0  0  0  0  0  0  0  0  0
  -27.4181  -17.0245   23.4476 C   0  0  0  0  0  0  0  0  0  0  0  0
  -28.3562  -21.6686   25.4734 C   0  0  0  0  0  0  0  0  0  1  0  0
  -29.2222  -30.1145   27.9082 C   0  0  1  0  0  0  0  0  0  0  0  0
  -28.8544  -29.9292   31.6765 C   0  0  2  0  0  0  0  0  0  0  0  0
  -30.1679  -31.1598   27.2522 C   0  0  0  0  0  0  0  0  0  0  0  0
  -25.8306  -11.5418   20.4015 N   0  0  0  0  0  0  0  0  0  0  0  0
  -26.1981  -12.8082   20.1425 N   0  0  0  0  0  0  0  0  0  0  0  0
  -27.5322  -28.7979   26.6694 N   0  0  0  0  0  0  0  0  0  0  0  0
  -29.8905  -13.7031   20.5284 N   0  0  0  0  0  0  0  0  0  0  0  0
  -25.3834  -15.0306   20.0524 N   0  0  0  0  0  0  0  0  0  0  0  0
  -21.7522  -12.6383   21.2721 N   0  0  0  0  0  0  0  0  0  0  0  0
  -29.2141  -19.8223   24.2157 N   0  0  0  0  0  0  0  0  0  0  0  0
  -29.8860  -15.9051   21.3731 N   0  0  0  0  0  0  0  0  0  0  0  0
  -25.7896  -28.8549   23.4668 N   0  0  0  0  0  0  0  0  0  0  0  0
  -28.9433  -30.3630   29.3184 N   0  0  0  0  0  0  0  0  0  0  0  0
  -28.4039  -28.7935   32.5299 N   0  3  0  0  0  0  0  0  0  0  0  0
  -22.5169  -14.7449   20.7862 O   0  0  0  0  0  0  0  0  0  0  0  0
  -28.0100  -28.9474   24.1624 O   0  0  0  0  0  0  0  0  0  0  0  0
  -27.1660  -31.0439   27.1769 O   0  0  0  0  0  0  0  0  0  0  0  0
  -30.7018  -21.1643   25.4455 O   0  0  0  0  0  0  0  0  0  0  0  0
  -29.7392  -28.3290   30.0973 O   0  0  0  0  0  0  0  0  0  0  0  0
  -31.7671  -15.0381   20.3284 O   0  0  0  0  0  0  0  0  0  0  0  0
  -21.5500   -7.1261   22.0530 O   0  0  0  0  0  0  0  0  0  0  0  0
  -28.2021  -17.8091   22.5532 O   0  0  0  0  0  0  0  0  0  0  0  0
  -28.7261  -22.7559   26.3203 O   0  0  0  0  0  0  0  0  0  1  0  0
  -23.8117   -3.5122   25.5499 F   0  0  0  0  0  0  0  0  0  0  0  0
  -20.3334   -6.5333   24.4636 F   0  0  0  0  0  0  0  0  0  0  0  0
  1  2  1  0  0  0  0
  1  6  2  0  0  0  0
  2  7  2  0  0  0  0
  3  9  2  0  0  0  0
  3 10  1  0  0  0  0
  4 11  2  0  0  0  0
  4 18  1  0  0  0  0
  5 12  1  0  0  0  0
  5 18  2  0  0  0  0
  6 20  1  0  0  0  0
  7 22  1  0  0  0  0
  8 13  2  0  0  0  0
  8 21  1  0  0  0  0
  9 24  1  0  0  0  0
 10 25  2  0  0  0  0
 11 26  1  0  0  0  0
 12 26  2  0  0  0  0
 13 27  1  0  0  0  0
 14 15  2  0  0  0  0
 14 28  1  0  0  0  0
 15 30  1  0  0  0  0
 16 23  1  0  0  0  0
 16 27  2  0  0  0  0
 17 30  2  0  0  0  0
 17 31  1  0  0  0  0
 18 32  1  0  0  0  0
 19 32  1  0  0  0  0
 19 33  2  0  0  0  0
 19 34  1  0  0  0  0
 20 22  2  0  0  0  0
 20 40  1  0  0  0  0
 21 23  2  0  0  0  0
 21 41  1  0  0  0  0
 22 49  1  0  0  0  0
 23 42  1  0  0  0  0
 24 29  2  0  0  0  0
 24 68  1  0  0  0  0
 25 29  1  0  0  0  0
 25 69  1  0  0  0  0
 26 79  1  0  0  0  0
 27 81  1  0  0  0  0
 28 31  2  0  0  0  0
 28 79  1  0  0  0  0
 29 80  1  0  0  0  0
 30 82  1  0  0  0  0
 31 83  1  0  0  0  0
 32 62  2  0  0  0  0
 33 63  1  0  0  0  0
 33 66  1  0  0  0  0
 34 67  1  0  0  0  0
 34 73  2  0  0  0  0
 35 50  1  0  0  0  0
 35 70  1  0  0  0  0
 35 74  2  0  0  0  0
 36 59  1  0  0  0  0
 36 64  1  0  0  0  0
 36 75  2  0  0  0  0
 37 58  1  0  0  0  0
 37 68  1  0  0  0  0
 37 76  2  0  0  0  0
 38 60  1  0  0  0  0
 38 71  1  0  0  0  0
 38 77  2  0  0  0  0
 39 65  1  0  0  0  0
 39 69  1  0  0  0  0
 39 78  2  0  0  0  0
 40 43  1  0  0  0  0
 41 50  1  0  0  0  0
 42 64  1  0  0  0  0
 43 45  1  0  0  0  0
 44 46  1  0  0  0  0
 44 47  1  0  0  0  0
 45 49  1  0  0  0  0
 46 51  1  0  0  0  0
 47 65  1  0  0  0  0
 48 51  1  0  0  0  0
 48 65  1  0  0  0  0
 49 70  1  0  0  0  0
 50 64  1  0  0  0  0
 51 63  1  0  0  0  0
 52 60  1  0  0  0  0
 53 61  1  0  0  0  0
 54 61  1  0  0  0  0
 55 61  1  0  0  0  0
 56 72  1  0  0  0  0
 57 80  1  0  0  0  0
 58 81  1  0  0  0  0
 59 61  1  0  0  0  0
 59 71  1  0  0  0  0
 60 72  1  0  0  0  0
 62 63  1  0  0  0  0
M  CHG  1  72   1
M  ISO  4  39 100  58 101  69 100  81 101
M  END
> <Batch ID>
0008

> <Smiles>
CNC(C)C(=O)NC(C(=O)N1Cc2cc([101O:1][101CH2:1]C(=O)Nc3cccc([100NH:0][100C:0](=O)N4CCCC(n5nc(-c6ccc(Oc7ccc(F)cc7F)cc6)c(C(N)=O)c5N)C4)c3OC)ccc2CC1C(=O)NC1CCCc2ccccc21)C(C)(C)C

> <Shape>
0.237

> <Color>
0.199

> <Negative vol penalty>
0.000

$$$$

  -OEChem-04052315363D

 87 95  0     1  0  0  0  0  0999 V2000
  -28.1821  -31.6317   30.3401 C   0  0  0  0  0  0  0  0  0  0  0  0
  -28.5543  -30.8182   29.2747 C   0  0  0  0  0  0  0  0  0  0  0  0
  -24.0380   -9.2581   22.4161 C   0  0  0  0  0  0  0  0  0  0  0  0
  -25.0329   -7.4987   21.0927 C   0  0  0  0  0  0  0  0  0  0  0  0
  -26.9344  -32.2538   30.3380 C   0  0  0  0  0  0  0  0  0  0  0  0
  -27.6784  -30.6255   28.2069 C   0  0  0  0  0  0  0  0  0  0  0  0
  -29.1646  -29.9108   22.3089 C   0  0  0  0  0  0  0  0  0  0  0  0
  -27.6963  -18.4839   20.1174 C   0  0  0  0  0  0  0  0  0  0  0  0
  -29.3491  -18.0517   21.8258 C   0  0  0  0  0  0  0  0  0  0  0  0
  -22.7917   -8.6432   22.2968 C   0  0  0  0  0  0  0  0  0  0  0  0
  -23.7867   -6.8837   20.9734 C   0  0  0  0  0  0  0  0  0  0  0  0
  -29.2988  -28.7790   21.5059 C   0  0  0  0  0  0  0  0  0  0  0  0
  -28.2759  -19.7286   19.8715 C   0  0  0  0  0  0  0  0  0  0  0  0
  -29.9287  -19.2964   21.5799 C   0  0  0  0  0  0  0  0  0  0  0  0
  -20.9326   -4.6589   20.6234 C   0  0  0  0  0  0  0  0  0  0  0  0
  -20.8687   -3.2787   20.8150 C   0  0  0  0  0  0  0  0  0  0  0  0
  -27.0410  -29.0819   20.7122 C   0  0  0  0  0  0  0  0  0  0  0  0
  -21.7155   -3.5514   23.0613 C   0  0  0  0  0  0  0  0  0  0  0  0
  -25.1586   -8.6860   21.8140 C   0  0  0  0  0  0  0  0  0  0  0  0
  -27.4072   -9.1074   22.9426 C   0  0  0  0  0  0  0  0  0  0  0  0
  -26.0466  -32.0763   29.2652 C   0  0  0  0  0  0  0  0  0  0  0  0
  -27.9618  -30.6316   22.3279 C   0  0  0  0  0  0  0  0  0  0  0  0
  -26.4171  -31.2448   28.1911 C   0  0  0  0  0  0  0  0  0  0  0  0
  -26.8950  -30.2239   21.5144 C   0  0  0  0  0  0  0  0  0  0  0  0
  -28.2329  -17.6455   21.0946 C   0  0  0  0  0  0  0  0  0  0  0  0
  -22.6661   -7.4559   21.5755 C   0  0  0  0  0  0  0  0  0  0  0  0
  -29.3921  -20.1348   20.6027 C   0  0  0  0  0  0  0  0  0  0  0  0
  -28.2359  -28.3627   20.7096 C   0  0  0  0  0  0  0  0  0  0  0  0
  -21.3881   -5.4853   21.6507 C   0  0  0  0  0  0  0  0  0  0  0  0
  -21.2601   -2.7250   22.0340 C   0  0  0  0  0  0  0  0  0  0  0  0
  -21.7795   -4.9316   22.8696 C   0  0  0  0  0  0  0  0  0  0  0  0
  -26.4461   -9.3211   21.9363 C   0  0  0  0  0  0  0  0  0  0  0  0
  -28.4447   -9.9436   22.6095 C   0  0  0  0  0  0  0  0  0  0  0  0
  -27.3659   -8.2315   24.0768 C   0  0  0  0  0  0  0  0  0  0  0  0
  -25.7964  -31.3239   24.5494 C   0  0  0  0  0  0  0  0  0  0  0  0
  -24.5292  -33.1525   22.1888 C   0  0  0  0  0  0  0  0  0  0  0  0
  -26.2471  -15.1307   19.7045 C   0  0  0  0  0  0  0  0  0  0  0  0
  -24.2024  -33.7479   18.8444 C   0  0  0  0  0  0  0  0  0  0  0  0
  -28.7604  -14.9613   19.6834 C   0  0  0  0  0  0  0  0  0  0  0  0
  -24.6897  -32.7316   29.3297 C   0  0  0  0  0  0  0  0  0  0  0  0
  -27.8422  -31.8657   23.1793 C   0  0  0  0  0  0  0  0  0  0  0  0
  -25.5897  -30.9747   21.4832 C   0  0  0  0  0  0  0  0  0  0  0  0
  -23.9700  -32.7757   27.9843 C   0  0  0  0  0  0  0  0  0  0  0  0
  -30.5266  -12.0157   18.8335 C   0  0  0  0  0  0  0  0  0  0  0  0
  -24.0492  -31.4188   27.2918 C   0  0  0  0  0  0  0  0  0  0  0  0
  -29.7699  -10.9613   19.6429 C   0  0  0  0  0  0  0  0  0  0  0  0
  -29.5778  -13.0447   18.2198 C   0  0  0  0  0  0  0  0  0  0  0  0
  -27.9221  -12.6486   20.0112 C   0  0  0  0  0  0  0  0  0  0  0  0
  -25.5045  -31.0310   27.0030 C   0  0  1  0  0  0  0  0  0  0  0  0
  -26.3970  -32.2264   23.5090 C   0  0  1  0  0  0  0  0  0  0  0  0
  -28.8423  -11.6163   20.6834 C   0  0  1  0  0  0  0  0  0  0  0  0
  -26.1396  -14.6376   18.2806 C   0  0  0  0  0  0  0  0  0  0  0  0
  -28.3271  -15.5339   22.4708 C   0  0  0  0  0  0  0  0  0  0  0  0
  -23.0723  -35.2905   17.2193 C   0  0  0  0  0  0  0  0  0  0  0  0
  -21.8829  -31.7093   22.6627 C   0  0  0  0  0  0  0  0  0  0  0  0
  -21.0942  -32.5758   20.4502 C   0  0  0  0  0  0  0  0  0  0  0  0
  -21.6740  -34.1715   22.2778 C   0  0  0  0  0  0  0  0  0  0  0  0
  -26.7901  -34.6870   17.7577 C   0  0  0  0  0  0  0  0  0  0  0  0
  -29.6316  -23.7411   20.3518 C   0  0  0  0  0  0  0  0  0  0  0  0
  -28.7274  -24.8826   19.9000 C   0  0  0  0  0  0  0  0  0  0  0  0
  -29.0951  -22.3883   19.9031 C   0  0  0  0  0  0  0  0  0  0  0  0
  -29.2399  -26.2314   20.3847 C   0  0  0  0  0  0  0  0  0  1  0  0
  -27.6048  -16.2951   21.3610 C   0  0  2  0  0  0  0  0  0  0  0  0
  -23.5240  -32.9276   21.0852 C   0  0  1  0  0  0  0  0  0  0  0  0
  -24.3302  -35.0233   18.0311 C   0  0  2  0  0  0  0  0  0  0  0  0
  -22.0676  -32.8306   21.6208 C   0  0  0  0  0  0  0  0  0  0  0  0
  -26.8381  -10.2224   21.0319 N   0  0  0  0  0  0  0  0  0  0  0  0
  -28.0570  -10.5826   21.4686 N   0  0  0  0  0  0  0  0  0  0  0  0
  -25.5195  -32.1713   22.3381 N   0  0  0  0  0  0  0  0  0  0  0  0
  -28.7118  -13.6229   19.2558 N   0  0  0  0  0  0  0  0  0  0  0  0
  -29.6417  -10.1872   23.1841 N   0  0  0  0  0  0  0  0  0  0  0  0
  -26.2242   -7.4417   24.2698 N   0  0  0  0  0  0  0  0  0  0  0  0
  -25.9994  -31.7496   25.8483 N   0  0  0  0  0  0  0  0  0  0  0  0
  -23.7344  -33.9985   20.1170 N   0  0  0  0  0  0  0  0  0  0  0  0
  -27.5379  -15.4982   20.1447 N   0  0  0  0  0  0  0  0  0  0  0  0
  -25.4835  -34.9256   17.0922 N   0  3  0  0  0  0  0  0  0  0  0  0
  -28.3064   -8.1635   24.9041 O   0  0  0  0  0  0  0  0  0  0  0  0
  -25.1923  -30.3167   24.1996 O   0  0  0  0  0  0  0  0  0  0  0  0
  -24.4432  -34.1651   22.8880 O   0  0  0  0  0  0  0  0  0  0  0  0
  -25.2391  -15.1776   20.4138 O   0  0  0  0  0  0  0  0  0  0  0  0
  -24.4854  -32.6398   18.3944 O   0  0  0  0  0  0  0  0  0  0  0  0
  -29.7930  -15.6396   19.6718 O   0  0  0  0  0  0  0  0  0  0  0  0
  -21.4502   -6.8554   21.4591 O   0  0  0  0  0  0  0  0  0  0  0  0
  -29.9582  -21.3489   20.3618 O   0  0  0  0  0  0  0  0  0  0  0  0
  -28.3649  -27.2498   19.9196 O   0  0  0  0  0  0  0  0  0  1  0  0
  -21.1972   -1.3998   22.2184 F   0  0  0  0  0  0  0  0  0  0  0  0
  -22.2168   -5.7206   23.8606 F   0  0  0  0  0  0  0  0  0  0  0  0
  1  2  1  0  0  0  0
  1  5  2  0  0  0  0
  2  6  2  0  0  0  0
  3 10  2  0  0  0  0
  3 19  1  0  0  0  0
  4 11  1  0  0  0  0
  4 19  2  0  0  0  0
  5 21  1  0  0  0  0
  6 23  1  0  0  0  0
  7 12  2  0  0  0  0
  7 22  1  0  0  0  0
  8 13  2  0  0  0  0
  8 25  1  0  0  0  0
  9 14  1  0  0  0  0
  9 25  2  0  0  0  0
 10 26  1  0  0  0  0
 11 26  2  0  0  0  0
 12 28  1  0  0  0  0
 13 27  1  0  0  0  0
 14 27  2  0  0  0  0
 15 16  2  0  0  0  0
 15 29  1  0  0  0  0
 16 30  1  0  0  0  0
 17 24  1  0  0  0  0
 17 28  2  0  0  0  0
 18 30  2  0  0  0  0
 18 31  1  0  0  0  0
 19 32  1  0  0  0  0
 20 32  1  0  0  0  0
 20 33  2  0  0  0  0
 20 34  1  0  0  0  0
 21 23  2  0  0  0  0
 21 40  1  0  0  0  0
 22 24  2  0  0  0  0
 22 41  1  0  0  0  0
 23 49  1  0  0  0  0
 24 42  1  0  0  0  0
 25 63  1  0  0  0  0
 26 83  1  0  0  0  0
 27 84  1  0  0  0  0
 28 85  1  0  0  0  0
 29 31  2  0  0  0  0
 29 83  1  0  0  0  0
 30 86  1  0  0  0  0
 31 87  1  0  0  0  0
 32 67  2  0  0  0  0
 33 68  1  0  0  0  0
 33 71  1  0  0  0  0
 34 72  1  0  0  0  0
 34 77  2  0  0  0  0
 35 50  1  0  0  0  0
 35 73  1  0  0  0  0
 35 78  2  0  0  0  0
 36 64  1  0  0  0  0
 36 69  1  0  0  0  0
 36 79  2  0  0  0  0
 37 52  1  0  0  0  0
 37 75  1  0  0  0  0
 37 80  2  0  0  0  0
 38 65  1  0  0  0  0
 38 74  1  0  0  0  0
 38 81  2  0  0  0  0
 39 70  1  0  0  0  0
 39 75  1  0  0  0  0
 39 82  2  0  0  0  0
 40 43  1  0  0  0  0
 41 50  1  0  0  0  0
 42 69  1  0  0  0  0
 43 45  1  0  0  0  0
 44 46  1  0  0  0  0
 44 47  1  0  0  0  0
 45 49  1  0  0  0  0
 46 51  1  0  0  0  0
 47 70  1  0  0  0  0
 48 51  1  0  0  0  0
 48 70  1  0  0  0  0
 49 73  1  0  0  0  0
 50 69  1  0  0  0  0
 51 68  1  0  0  0  0
 53 63  1  0  0  0  0
 54 65  1  0  0  0  0
 55 66  1  0  0  0  0
 56 66  1  0  0  0  0
 57 66  1  0  0  0  0
 58 76  1  0  0  0  0
 59 60  1  0  0  0  0
 59 61  1  0  0  0  0
 60 62  1  0  0  0  0
 61 84  1  0  0  0  0
 62 85  1  0  0  0  0
 63 75  1  0  0  0  0
 64 66  1  0  0  0  0
 64 74  1  0  0  0  0
 65 76  1  0  0  0  0
 67 68  1  0  0  0  0
M  CHG  1  76   1
M  ISO  4  39 100  62 101  75 100  85 101
M  END
> <Batch ID>
0008

> <Smiles>
CNC(C)C(=O)NC(C(=O)N1Cc2cc([101O:1][101CH2:1]CCCOc3ccc(C(C)[100N:0](C(C)=O)[100C:0](=O)N4CCCC(n5nc(-c6ccc(Oc7ccc(F)cc7F)cc6)c(C(N)=O)c5N)C4)cc3)ccc2CC1C(=O)NC1CCCc2ccccc21)C(C)(C)C

> <Shape>
0.264

> <Color>
0.077

> <Negative vol penalty>
0.000

$$$$

  -OEChem-04052315363D

 91 99  0     1  0  0  0  0  0999 V2000
  -32.2074  -13.1965   21.5079 C   0  0  0  0  0  0  0  0  0  0  0  0
  -31.4246  -14.2117   22.0460 C   0  0  0  0  0  0  0  0  0  0  0  0
  -28.2127  -25.2446   18.7443 C   0  0  0  0  0  0  0  0  0  0  0  0
  -27.5613  -24.2725   20.8580 C   0  0  0  0  0  0  0  0  0  0  0  0
  -31.6657  -12.3327   20.5584 C   0  0  0  0  0  0  0  0  0  0  0  0
  -30.0964  -14.3560   21.6437 C   0  0  0  0  0  0  0  0  0  0  0  0
  -25.9567  -18.5869   23.0896 C   0  0  0  0  0  0  0  0  0  0  0  0
  -20.6920  -25.0287   25.0430 C   0  0  0  0  0  0  0  0  0  0  0  0
  -29.3965  -24.5072   18.7700 C   0  0  0  0  0  0  0  0  0  0  0  0
  -28.7450  -23.5350   20.8837 C   0  0  0  0  0  0  0  0  0  0  0  0
  -25.5182  -19.8114   22.5876 C   0  0  0  0  0  0  0  0  0  0  0  0
  -21.5001  -24.0446   24.4738 C   0  0  0  0  0  0  0  0  0  0  0  0
  -29.9573  -20.7229   19.4545 C   0  0  0  0  0  0  0  0  0  0  0  0
  -29.8725  -19.3760   19.8070 C   0  0  0  0  0  0  0  0  0  0  0  0
  -23.7104  -18.6905   21.4497 C   0  0  0  0  0  0  0  0  0  0  0  0
  -21.0889  -24.9746   22.2822 C   0  0  0  0  0  0  0  0  0  0  0  0
  -31.3427  -19.7743   21.6824 C   0  0  0  0  0  0  0  0  0  0  0  0
  -27.2951  -25.1273   19.7884 C   0  0  0  0  0  0  0  0  0  0  0  0
  -24.8401  -25.5003   19.2042 C   0  0  0  0  0  0  0  0  0  0  0  0
  -30.3338  -12.4750   20.1356 C   0  0  0  0  0  0  0  0  0  0  0  0
  -25.2807  -17.4017   22.7660 C   0  0  0  0  0  0  0  0  0  0  0  0
  -29.5242  -13.4793   20.7042 C   0  0  0  0  0  0  0  0  0  0  0  0
  -24.1409  -17.4526   21.9510 C   0  0  0  0  0  0  0  0  0  0  0  0
  -20.2807  -25.9587   22.8514 C   0  0  0  0  0  0  0  0  0  0  0  0
  -20.0823  -25.9858   24.2318 C   0  0  0  0  0  0  0  0  0  0  0  0
  -29.6626  -23.6524   19.8396 C   0  0  0  0  0  0  0  0  0  0  0  0
  -24.3965  -19.8630   21.7651 C   0  0  0  0  0  0  0  0  0  0  0  0
  -21.6986  -24.0175   23.0934 C   0  0  0  0  0  0  0  0  0  0  0  0
  -30.7349  -21.5955   20.2158 C   0  0  0  0  0  0  0  0  0  0  0  0
  -30.5651  -18.9017   20.9210 C   0  0  0  0  0  0  0  0  0  0  0  0
  -31.4276  -21.1212   21.3297 C   0  0  0  0  0  0  0  0  0  0  0  0
  -26.0725  -25.8891   19.7627 C   0  0  0  0  0  0  0  0  0  0  0  0
  -24.0057  -26.5659   19.4381 C   0  0  0  0  0  0  0  0  0  0  0  0
  -24.4817  -24.2845   18.5341 C   0  0  0  0  0  0  0  0  0  0  0  0
  -26.0558  -14.7211   21.2437 C   0  0  0  0  0  0  0  0  0  0  0  0
  -23.1059  -13.7797   22.2100 C   0  0  0  0  0  0  0  0  0  0  0  0
  -19.7850  -28.2297   25.2766 C   0  0  0  0  0  0  0  0  0  0  0  0
  -19.9606  -14.6644   23.1957 C   0  0  0  0  0  0  0  0  0  0  0  0
  -24.0024  -30.9158   23.5526 C   0  0  0  0  0  0  0  0  0  0  0  0
  -29.7961  -11.5074   19.1109 C   0  0  0  0  0  0  0  0  0  0  0  0
  -25.7507  -16.0921   23.3374 C   0  0  0  0  0  0  0  0  0  0  0  0
  -23.3678  -16.2113   21.5903 C   0  0  0  0  0  0  0  0  0  0  0  0
  -28.5300  -12.0104   18.4252 C   0  0  0  0  0  0  0  0  0  0  0  0
  -24.0687  -31.3150   20.0152 C   0  0  0  0  0  0  0  0  0  0  0  0
  -27.5282  -12.4851   19.4672 C   0  0  0  0  0  0  0  0  0  0  0  0
  -24.4786  -29.9346   19.4990 C   0  0  0  0  0  0  0  0  0  0  0  0
  -24.7787  -31.6625   21.3218 C   0  0  0  0  0  0  0  0  0  0  0  0
  -25.0464  -29.2757   21.8743 C   0  0  0  0  0  0  0  0  0  0  0  0
  -28.0861  -13.6744   20.2591 C   0  0  1  0  0  0  0  0  0  0  0  0
  -25.2891  -14.8859   22.5253 C   0  0  1  0  0  0  0  0  0  0  0  0
  -24.3142  -28.8572   20.5878 C   0  0  2  0  0  0  0  0  0  0  0  0
  -17.7596  -13.6735   23.8822 C   0  0  0  0  0  0  0  0  0  0  0  0
  -22.5045  -13.1029   19.2962 C   0  0  0  0  0  0  0  0  0  0  0  0
  -20.0722  -13.0372   19.8861 C   0  0  0  0  0  0  0  0  0  0  0  0
  -21.6561  -11.4316   20.9519 C   0  0  0  0  0  0  0  0  0  0  0  0
  -17.8005  -26.7175   24.8889 C   0  0  0  0  0  0  0  0  0  0  0  0
  -20.0902  -15.9338   25.8661 C   0  0  0  0  0  0  0  0  0  0  0  0
  -21.2964  -28.4463   25.2303 C   0  0  0  0  0  0  0  0  0  0  0  0
  -21.7437  -29.8235   25.7351 C   0  0  0  0  0  0  0  0  0  0  0  0
  -23.2596  -30.0146   25.7424 C   0  0  0  0  0  0  0  0  0  0  0  0
  -22.5675  -21.1922   21.0276 C   0  0  0  0  0  0  0  0  0  1  0  0
  -22.1710  -22.6445   21.2100 C   0  0  0  0  0  0  0  0  0  0  0  0
  -21.7137  -13.8658   21.6326 C   0  0  1  0  0  0  0  0  0  0  0  0
  -19.1028  -14.2030   24.3601 C   0  0  2  0  0  0  0  0  0  0  0  0
  -19.6403  -26.9708   21.9579 C   0  0  0  0  0  0  0  0  0  0  0  0
  -21.5021  -12.8827   20.4467 C   0  0  0  0  0  0  0  0  0  0  0  0
  -26.0293  -27.1068   20.3100 N   0  0  0  0  0  0  0  0  0  0  0  0
  -24.7597  -27.4923   20.0965 N   0  0  0  0  0  0  0  0  0  0  0  0
  -23.8706  -14.9542   22.1685 N   0  0  0  0  0  0  0  0  0  0  0  0
  -24.5823  -30.6014   22.3125 N   0  0  0  0  0  0  0  0  0  0  0  0
  -22.7079  -26.7915   19.1427 N   0  0  0  0  0  0  0  0  0  0  0  0
  -25.4605  -23.2934   18.3791 N   0  0  0  0  0  0  0  0  0  0  0  0
  -27.2022  -13.9596   21.3678 N   0  0  0  0  0  0  0  0  0  0  0  0
  -20.7958  -13.6626   22.7482 N   0  0  0  0  0  0  0  0  0  0  0  0
  -23.8463  -29.8506   24.4310 N   0  0  0  0  0  0  0  0  0  0  0  0
  -19.2748  -26.9621   24.8206 N   0  0  0  0  0  0  0  0  0  0  0  0
  -18.8552  -15.3323   25.3005 N   0  3  0  0  0  0  0  0  0  0  0  0
  -23.3321  -24.0897   18.0715 O   0  0  0  0  0  0  0  0  0  0  0  0
  -25.6375  -15.2448   20.2178 O   0  0  0  0  0  0  0  0  0  0  0  0
  -23.4978  -12.7117   22.6869 O   0  0  0  0  0  0  0  0  0  0  0  0
  -19.0579  -29.1217   25.7209 O   0  0  0  0  0  0  0  0  0  0  0  0
  -19.8937  -15.7987   22.7275 O   0  0  0  0  0  0  0  0  0  0  0  0
  -23.6450  -32.0601   23.8525 O   0  0  0  0  0  0  0  0  0  0  0  0
  -30.8174  -22.9326   19.8649 O   0  0  0  0  0  0  0  0  0  0  0  0
  -23.9667  -21.0568   21.2733 O   0  0  0  0  0  0  0  0  0  1  0  0
  -22.4929  -23.0512   22.5344 O   0  0  0  0  0  0  0  0  0  0  0  0
  -30.4824  -17.6086   21.2603 F   0  0  0  0  0  0  0  0  0  0  0  0
  -32.1752  -21.9550   22.0657 F   0  0  0  0  0  0  0  0  0  0  0  0
  -19.9393  -26.7983   20.6374 F   0  0  0  0  0  0  0  0  0  0  0  0
  -18.2770  -26.9662   22.0203 F   0  0  0  0  0  0  0  0  0  0  0  0
  -20.0188  -28.2462   22.2579 F   0  0  0  0  0  0  0  0  0  0  0  0
  1  2  1  0  0  0  0
  1  5  2  0  0  0  0
  2  6  2  0  0  0  0
  3  9  2  0  0  0  0
  3 18  1  0  0  0  0
  4 10  1  0  0  0  0
  4 18  2  0  0  0  0
  5 20  1  0  0  0  0
  6 22  1  0  0  0  0
  7 11  2  0  0  0  0
  7 21  1  0  0  0  0
  8 12  2  0  0  0  0
  8 25  1  0  0  0  0
  9 26  1  0  0  0  0
 10 26  2  0  0  0  0
 11 27  1  0  0  0  0
 12 28  1  0  0  0  0
 13 14  2  0  0  0  0
 13 29  1  0  0  0  0
 14 30  1  0  0  0  0
 15 23  1  0  0  0  0
 15 27  2  0  0  0  0
 16 24  1  0  0  0  0
 16 28  2  0  0  0  0
 17 30  2  0  0  0  0
 17 31  1  0  0  0  0
 18 32  1  0  0  0  0
 19 32  1  0  0  0  0
 19 33  2  0  0  0  0
 19 34  1  0  0  0  0
 20 22  2  0  0  0  0
 20 40  1  0  0  0  0
 21 23  2  0  0  0  0
 21 41  1  0  0  0  0
 22 49  1  0  0  0  0
 23 42  1  0  0  0  0
 24 25  2  0  0  0  0
 24 65  1  0  0  0  0
 25 76  1  0  0  0  0
 26 84  1  0  0  0  0
 27 85  1  0  0  0  0
 28 86  1  0  0  0  0
 29 31  2  0  0  0  0
 29 84  1  0  0  0  0
 30 87  1  0  0  0  0
 31 88  1  0  0  0  0
 32 67  2  0  0  0  0
 33 68  1  0  0  0  0
 33 71  1  0  0  0  0
 34 72  1  0  0  0  0
 34 78  2  0  0  0  0
 35 50  1  0  0  0  0
 35 73  1  0  0  0  0
 35 79  2  0  0  0  0
 36 63  1  0  0  0  0
 36 69  1  0  0  0  0
 36 80  2  0  0  0  0
 37 58  1  0  0  0  0
 37 76  1  0  0  0  0
 37 81  2  0  0  0  0
 38 64  1  0  0  0  0
 38 74  1  0  0  0  0
 38 82  2  0  0  0  0
 39 70  1  0  0  0  0
 39 75  1  0  0  0  0
 39 83  2  0  0  0  0
 40 43  1  0  0  0  0
 41 50  1  0  0  0  0
 42 69  1  0  0  0  0
 43 45  1  0  0  0  0
 44 46  1  0  0  0  0
 44 47  1  0  0  0  0
 45 49  1  0  0  0  0
 46 51  1  0  0  0  0
 47 70  1  0  0  0  0
 48 51  1  0  0  0  0
 48 70  1  0  0  0  0
 49 73  1  0  0  0  0
 50 69  1  0  0  0  0
 51 68  1  0  0  0  0
 52 64  1  0  0  0  0
 53 66  1  0  0  0  0
 54 66  1  0  0  0  0
 55 66  1  0  0  0  0
 56 76  1  0  0  0  0
 57 77  1  0  0  0  0
 58 59  1  0  0  0  0
 59 60  1  0  0  0  0
 60 75  1  0  0  0  0
 61 62  1  0  0  0  0
 61 85  1  0  0  0  0
 62 86  1  0  0  0  0
 63 66  1  0  0  0  0
 63 74  1  0  0  0  0
 64 77  1  0  0  0  0
 65 89  1  0  0  0  0
 65 90  1  0  0  0  0
 65 91  1  0  0  0  0
 67 68  1  0  0  0  0
M  CHG  1  77   1
M  ISO  4  39 100  61 101  75 100  85 101
M  END
> <Batch ID>
0008

> <Smiles>
CNC(C)C(=O)NC(C(=O)N1Cc2cc([101O:1][101CH2:1]COc3ccc(N(C)C(=O)CCC[100NH:0][100C:0](=O)N4CCCC(n5nc(-c6ccc(Oc7ccc(F)cc7F)cc6)c(C(N)=O)c5N)C4)c(C(F)(F)F)c3)ccc2CC1C(=O)NC1CCCc2ccccc21)C(C)(C)C

> <Shape>
0.240

> <Color>
0.075

> <Negative vol penalty>
0.000

$$$$

  -OEChem-04052315363D

 82 90  0     1  0  0  0  0  0999 V2000
  -19.9627  -20.5352   27.5875 C   0  0  0  0  0  0  0  0  0  0  0  0
  -20.6870  -20.3534   26.4137 C   0  0  0  0  0  0  0  0  0  0  0  0
  -23.3408  -16.0876   21.1135 C   0  0  0  0  0  0  0  0  0  0  0  0
  -22.8922  -14.9449   19.0326 C   0  0  0  0  0  0  0  0  0  0  0  0
  -19.3744  -21.7700   27.8580 C   0  0  0  0  0  0  0  0  0  0  0  0
  -20.8224  -21.4059   25.5091 C   0  0  0  0  0  0  0  0  0  0  0  0
  -25.5622  -21.8967   23.7951 C   0  0  0  0  0  0  0  0  0  0  0  0
  -30.7776  -16.8689   20.1242 C   0  0  0  0  0  0  0  0  0  0  0  0
  -29.5259  -17.5166   22.0865 C   0  0  0  0  0  0  0  0  0  0  0  0
  -22.4117  -17.0709   20.7739 C   0  0  0  0  0  0  0  0  0  0  0  0
  -21.9629  -15.9282   18.6930 C   0  0  0  0  0  0  0  0  0  0  0  0
  -25.9779  -21.0044   22.8078 C   0  0  0  0  0  0  0  0  0  0  0  0
  -30.3941  -18.0503   19.4896 C   0  0  0  0  0  0  0  0  0  0  0  0
  -29.1424  -18.6981   21.4519 C   0  0  0  0  0  0  0  0  0  0  0  0
  -22.2886  -19.7998   18.7834 C   0  0  0  0  0  0  0  0  0  0  0  0
  -22.6511  -21.1311   18.9877 C   0  0  0  0  0  0  0  0  0  0  0  0
  -25.5893  -22.6914   21.1279 C   0  0  0  0  0  0  0  0  0  0  0  0
  -20.7842  -21.4080   20.4960 C   0  0  0  0  0  0  0  0  0  0  0  0
  -23.5812  -15.0246   20.2429 C   0  0  0  0  0  0  0  0  0  0  0  0
  -24.2976  -12.8163   21.3000 C   0  0  0  0  0  0  0  0  0  0  0  0
  -19.5108  -22.8411   26.9609 C   0  0  0  0  0  0  0  0  0  0  0  0
  -25.1459  -23.1918   23.4544 C   0  0  0  0  0  0  0  0  0  0  0  0
  -20.2342  -22.6558   25.7673 C   0  0  0  0  0  0  0  0  0  0  0  0
  -25.1713  -23.5991   22.1129 C   0  0  0  0  0  0  0  0  0  0  0  0
  -30.3434  -16.6020   21.4227 C   0  0  0  0  0  0  0  0  0  0  0  0
  -21.7227  -16.9912   19.5637 C   0  0  0  0  0  0  0  0  0  0  0  0
  -29.5766  -18.9649   20.1535 C   0  0  0  0  0  0  0  0  0  0  0  0
  -25.9887  -21.4007   21.4737 C   0  0  0  0  0  0  0  0  0  0  0  0
  -21.1739  -19.2725   19.4354 C   0  0  0  0  0  0  0  0  0  0  0  0
  -21.8989  -21.9352   19.8440 C   0  0  0  0  0  0  0  0  0  0  0  0
  -20.4217  -20.0766   20.2917 C   0  0  0  0  0  0  0  0  0  0  0  0
  -24.5413  -14.0088   20.5928 C   0  0  0  0  0  0  0  0  0  0  0  0
  -25.5243  -12.2026   21.3715 C   0  0  0  0  0  0  0  0  0  0  0  0
  -23.0719  -12.3085   21.8437 C   0  0  0  0  0  0  0  0  0  0  0  0
  -22.4311  -24.8214   23.7334 C   0  0  0  0  0  0  0  0  0  0  0  0
  -24.2443  -27.2738   22.6286 C   0  0  0  0  0  0  0  0  0  0  0  0
  -26.9955  -28.2843   20.8803 C   0  0  0  0  0  0  0  0  0  0  0  0
  -30.9943  -14.2017   21.3435 C   0  0  0  0  0  0  0  0  0  0  0  0
  -18.8171  -24.1431   27.2741 C   0  0  0  0  0  0  0  0  0  0  0  0
  -24.7258  -24.1511   24.5340 C   0  0  0  0  0  0  0  0  0  0  0  0
  -24.7533  -24.9850   21.6970 C   0  0  0  0  0  0  0  0  0  0  0  0
  -19.3231  -25.3184   26.4417 C   0  0  0  0  0  0  0  0  0  0  0  0
  -29.6773  -11.8345   19.0403 C   0  0  0  0  0  0  0  0  0  0  0  0
  -19.4245  -24.9265   24.9710 C   0  0  0  0  0  0  0  0  0  0  0  0
  -28.1737  -12.0188   19.2422 C   0  0  0  0  0  0  0  0  0  0  0  0
  -30.4285  -13.1654   19.0868 C   0  0  0  0  0  0  0  0  0  0  0  0
  -28.6566  -14.1490   20.5071 C   0  0  0  0  0  0  0  0  0  0  0  0
  -20.4244  -23.7808   24.7731 C   0  0  1  0  0  0  0  0  0  0  0  0
  -23.8342  -25.2768   24.0191 C   0  0  1  0  0  0  0  0  0  0  0  0
  -27.8827  -12.8215   20.5224 C   0  0  1  0  0  0  0  0  0  0  0  0
  -28.1934  -30.3525   20.1156 C   0  0  0  0  0  0  0  0  0  0  0  0
  -28.3344  -20.3905   17.3271 C   0  0  0  0  0  0  0  0  0  0  0  0
  -22.1393  -27.6877   20.4589 C   0  0  0  0  0  0  0  0  0  0  0  0
  -23.8042  -29.0759   19.2061 C   0  0  0  0  0  0  0  0  0  0  0  0
  -23.0294  -29.7973   21.4649 C   0  0  0  0  0  0  0  0  0  0  0  0
  -31.1129  -15.4353   23.4975 C   0  0  0  0  0  0  0  0  0  0  0  0
  -29.4364  -27.5705   22.3941 C   0  0  0  0  0  0  0  0  0  0  0  0
  -27.0048  -21.0902   19.3460 C   0  0  0  0  0  0  0  0  0  1  0  0
  -24.5892  -27.8178   21.2633 C   0  0  1  0  0  0  0  0  0  0  0  0
  -28.0789  -29.2970   21.2044 C   0  0  2  0  0  0  0  0  0  0  0  0
  -27.9915  -20.0794   18.7746 C   0  0  2  0  0  0  0  0  0  0  0  0
  -23.3966  -28.5678   20.6056 C   0  0  0  0  0  0  0  0  0  0  0  0
  -25.8222  -14.1467   20.2404 N   0  0  0  0  0  0  0  0  0  0  0  0
  -26.3944  -13.0328   20.7282 N   0  0  0  0  0  0  0  0  0  0  0  0
  -24.3448  -25.8845   22.7886 N   0  0  0  0  0  0  0  0  0  0  0  0
  -30.0883  -13.9134   20.3054 N   0  0  0  0  0  0  0  0  0  0  0  0
  -25.9328  -11.0394   21.9214 N   0  0  0  0  0  0  0  0  0  0  0  0
  -21.9041  -13.0660   21.6804 N   0  0  0  0  0  0  0  0  0  0  0  0
  -21.7818  -24.2797   24.8263 N   0  0  0  0  0  0  0  0  0  0  0  0
  -25.7849  -28.6349   21.4396 N   0  0  0  0  0  0  0  0  0  0  0  0
  -30.7403  -15.3789   22.0798 N   0  0  0  0  0  0  0  0  0  0  0  0
  -29.3985  -28.6179   21.3413 N   0  3  0  0  0  0  0  0  0  0  0  0
  -23.0171  -11.2233   22.4704 O   0  0  0  0  0  0  0  0  0  0  0  0
  -21.9711  -24.9530   22.6052 O   0  0  0  0  0  0  0  0  0  0  0  0
  -23.9052  -28.0535   23.5223 O   0  0  0  0  0  0  0  0  0  0  0  0
  -27.2015  -27.2843   20.1961 O   0  0  0  0  0  0  0  0  0  0  0  0
  -31.9415  -13.4520   21.6094 O   0  0  0  0  0  0  0  0  0  0  0  0
  -20.8158  -17.9504   19.2321 O   0  0  0  0  0  0  0  0  0  0  0  0
  -26.3934  -20.5315   20.5080 O   0  0  0  0  0  0  0  0  0  1  0  0
  -29.2004  -20.1238   19.5310 O   0  0  0  0  0  0  0  0  0  0  0  0
  -22.2480  -23.2132   20.0413 F   0  0  0  0  0  0  0  0  0  0  0  0
  -19.3504  -19.5754   20.9217 F   0  0  0  0  0  0  0  0  0  0  0  0
  1  2  1  0  0  0  0
  1  5  2  0  0  0  0
  2  6  2  0  0  0  0
  3 10  2  0  0  0  0
  3 19  1  0  0  0  0
  4 11  1  0  0  0  0
  4 19  2  0  0  0  0
  5 21  1  0  0  0  0
  6 23  1  0  0  0  0
  7 12  2  0  0  0  0
  7 22  1  0  0  0  0
  8 13  2  0  0  0  0
  8 25  1  0  0  0  0
  9 14  1  0  0  0  0
  9 25  2  0  0  0  0
 10 26  1  0  0  0  0
 11 26  2  0  0  0  0
 12 28  1  0  0  0  0
 13 27  1  0  0  0  0
 14 27  2  0  0  0  0
 15 16  2  0  0  0  0
 15 29  1  0  0  0  0
 16 30  1  0  0  0  0
 17 24  1  0  0  0  0
 17 28  2  0  0  0  0
 18 30  2  0  0  0  0
 18 31  1  0  0  0  0
 19 32  1  0  0  0  0
 20 32  1  0  0  0  0
 20 33  2  0  0  0  0
 20 34  1  0  0  0  0
 21 23  2  0  0  0  0
 21 39  1  0  0  0  0
 22 24  2  0  0  0  0
 22 40  1  0  0  0  0
 23 48  1  0  0  0  0
 24 41  1  0  0  0  0
 25 71  1  0  0  0  0
 26 78  1  0  0  0  0
 27 80  1  0  0  0  0
 28 79  1  0  0  0  0
 29 31  2  0  0  0  0
 29 78  1  0  0  0  0
 30 81  1  0  0  0  0
 31 82  1  0  0  0  0
 32 63  2  0  0  0  0
 33 64  1  0  0  0  0
 33 67  1  0  0  0  0
 34 68  1  0  0  0  0
 34 73  2  0  0  0  0
 35 49  1  0  0  0  0
 35 69  1  0  0  0  0
 35 74  2  0  0  0  0
 36 59  1  0  0  0  0
 36 65  1  0  0  0  0
 36 75  2  0  0  0  0
 37 60  1  0  0  0  0
 37 70  1  0  0  0  0
 37 76  2  0  0  0  0
 38 66  1  0  0  0  0
 38 71  1  0  0  0  0
 38 77  2  0  0  0  0
 39 42  1  0  0  0  0
 40 49  1  0  0  0  0
 41 65  1  0  0  0  0
 42 44  1  0  0  0  0
 43 45  1  0  0  0  0
 43 46  1  0  0  0  0
 44 48  1  0  0  0  0
 45 50  1  0  0  0  0
 46 66  1  0  0  0  0
 47 50  1  0  0  0  0
 47 66  1  0  0  0  0
 48 69  1  0  0  0  0
 49 65  1  0  0  0  0
 50 64  1  0  0  0  0
 51 60  1  0  0  0  0
 52 61  1  0  0  0  0
 53 62  1  0  0  0  0
 54 62  1  0  0  0  0
 55 62  1  0  0  0  0
 56 71  1  0  0  0  0
 57 72  1  0  0  0  0
 58 61  1  0  0  0  0
 58 79  1  0  0  0  0
 59 62  1  0  0  0  0
 59 70  1  0  0  0  0
 60 72  1  0  0  0  0
 61 80  1  0  0  0  0
 63 64  1  0  0  0  0
M  CHG  1  72   1
M  ISO  4  38 100  58 101  71 100  79 101
M  END
> <Batch ID>
0008

> <Smiles>
CNC(C)C(=O)NC(C(=O)N1Cc2cc([101O:1][101CH2:1]C(C)Oc3ccc([100N:0](C)[100C:0](=O)N4CCCC(n5nc(-c6ccc(Oc7ccc(F)cc7F)cc6)c(C(N)=O)c5N)C4)cc3)ccc2CC1C(=O)NC1CCCc2ccccc21)C(C)(C)C

> <Shape>
0.199

> <Color>
0.083

> <Negative vol penalty>
0.000

$$$$

  -OEChem-04052315363D

 81 89  0     1  0  0  0  0  0999 V2000
  -17.7155  -33.3419   18.0836 C   0  0  0  0  0  0  0  0  0  0  0  0
  -18.9138  -32.9824   17.4751 C   0  0  0  0  0  0  0  0  0  0  0  0
  -24.8012  -10.2786   22.6259 C   0  0  0  0  0  0  0  0  0  0  0  0
  -24.4888  -11.7693   24.5013 C   0  0  0  0  0  0  0  0  0  0  0  0
  -17.7254  -33.9232   19.3508 C   0  0  0  0  0  0  0  0  0  0  0  0
  -20.1229  -33.2051   18.1332 C   0  0  0  0  0  0  0  0  0  0  0  0
  -24.6112  -27.7615   19.5870 C   0  0  0  0  0  0  0  0  0  0  0  0
  -29.5131  -20.7821   21.9189 C   0  0  0  0  0  0  0  0  0  0  0  0
  -24.3855   -9.2034   23.4112 C   0  0  0  0  0  0  0  0  0  0  0  0
  -24.0729  -10.6941   25.2866 C   0  0  0  0  0  0  0  0  0  0  0  0
  -25.6185  -26.8047   19.7133 C   0  0  0  0  0  0  0  0  0  0  0  0
  -29.3851  -22.1504   22.1577 C   0  0  0  0  0  0  0  0  0  0  0  0
  -21.4645   -7.9153   24.5255 C   0  0  0  0  0  0  0  0  0  0  0  0
  -20.5567   -7.0164   23.9656 C   0  0  0  0  0  0  0  0  0  0  0  0
  -27.0248  -28.4182   20.8389 C   0  0  0  0  0  0  0  0  0  0  0  0
  -27.1423  -20.6374   21.4769 C   0  0  0  0  0  0  0  0  0  0  0  0
  -22.1505   -5.2245   24.2582 C   0  0  0  0  0  0  0  0  0  0  0  0
  -24.8529  -11.5615   23.1710 C   0  0  0  0  0  0  0  0  0  0  0  0
  -24.4755  -13.5061   21.5635 C   0  0  0  0  0  0  0  0  0  0  0  0
  -18.9346  -34.1443   20.0288 C   0  0  0  0  0  0  0  0  0  0  0  0
  -24.8012  -29.0475   20.1004 C   0  0  0  0  0  0  0  0  0  0  0  0
  -20.1490  -33.7912   19.4101 C   0  0  0  0  0  0  0  0  0  0  0  0
  -26.0146  -29.3772   20.7264 C   0  0  0  0  0  0  0  0  0  0  0  0
  -28.3917  -20.0256   21.5784 C   0  0  0  0  0  0  0  0  0  0  0  0
  -24.0213   -9.4111   24.7416 C   0  0  0  0  0  0  0  0  0  0  0  0
  -26.8224  -27.1323   20.3375 C   0  0  0  0  0  0  0  0  0  0  0  0
  -22.7154   -7.4688   24.9517 C   0  0  0  0  0  0  0  0  0  0  0  0
  -28.1357  -22.7621   22.0562 C   0  0  0  0  0  0  0  0  0  0  0  0
  -20.8997   -5.6710   23.8320 C   0  0  0  0  0  0  0  0  0  0  0  0
  -27.0143  -22.0057   21.7158 C   0  0  0  0  0  0  0  0  0  0  0  0
  -23.0584   -6.1234   24.8181 C   0  0  0  0  0  0  0  0  0  0  0  0
  -25.2829  -12.6725   22.3604 C   0  0  0  0  0  0  0  0  0  0  0  0
  -25.3542  -14.3993   21.0010 C   0  0  0  0  0  0  0  0  0  0  0  0
  -23.0579  -13.4758   21.3509 C   0  0  0  0  0  0  0  0  0  0  0  0
  -23.3724  -32.4735   20.6455 C   0  0  0  0  0  0  0  0  0  0  0  0
  -24.8881  -31.7227   23.2046 C   0  0  0  0  0  0  0  0  0  0  0  0
  -26.3005  -30.3471   25.9886 C   0  0  0  0  0  0  0  0  0  0  0  0
  -29.6878  -17.8733   21.3941 C   0  0  0  0  0  0  0  0  0  0  0  0
  -18.8980  -34.8190   21.3772 C   0  0  0  0  0  0  0  0  0  0  0  0
  -23.7676  -30.1278   19.9324 C   0  0  0  0  0  0  0  0  0  0  0  0
  -26.1880  -30.7830   21.2329 C   0  0  0  0  0  0  0  0  0  0  0  0
  -20.1981  -34.6777   22.1645 C   0  0  0  0  0  0  0  0  0  0  0  0
  -30.4150  -14.4228   20.9013 C   0  0  0  0  0  0  0  0  0  0  0  0
  -21.3979  -34.9814   21.2727 C   0  0  0  0  0  0  0  0  0  0  0  0
  -29.0782  -13.7284   21.1714 C   0  0  0  0  0  0  0  0  0  0  0  0
  -30.6319  -15.6163   21.8299 C   0  0  0  0  0  0  0  0  0  0  0  0
  -28.2019  -15.9022   22.1169 C   0  0  0  0  0  0  0  0  0  0  0  0
  -21.4794  -33.9940   20.1023 C   0  0  1  0  0  0  0  0  0  0  0  0
  -23.7025  -31.0923   21.1301 C   0  0  1  0  0  0  0  0  0  0  0  0
  -27.9093  -14.7331   21.1623 C   0  0  2  0  0  0  0  0  0  0  0  0
  -26.8460  -30.8668   28.3823 C   0  0  0  0  0  0  0  0  0  0  0  0
  -27.2368  -33.4417   22.2923 C   0  0  0  0  0  0  0  0  0  0  0  0
  -28.2509  -33.1347   24.5607 C   0  0  0  0  0  0  0  0  0  0  0  0
  -26.0517  -34.2882   24.3254 C   0  0  0  0  0  0  0  0  0  0  0  0
  -24.5818  -28.1504   26.9783 C   0  0  0  0  0  0  0  0  0  0  0  0
  -28.6649  -26.3010   21.5911 C   0  0  0  0  0  0  0  0  0  1  0  0
  -29.1408  -24.9163   21.9857 C   0  0  0  0  0  0  0  0  0  0  0  0
  -26.1840  -31.7882   23.9726 C   0  0  1  0  0  0  0  0  0  0  0  0
  -25.8232  -30.2708   27.4276 C   0  0  2  0  0  0  0  0  0  0  0  0
  -26.9242  -33.1407   23.7717 C   0  0  0  0  0  0  0  0  0  0  0  0
  -26.5752  -13.0063   22.3111 N   0  0  0  0  0  0  0  0  0  0  0  0
  -26.5866  -14.0595   21.4764 N   0  0  0  0  0  0  0  0  0  0  0  0
  -24.9536  -31.2347   21.8939 N   0  0  0  0  0  0  0  0  0  0  0  0
  -29.4868  -16.5270   21.7655 N   0  0  0  0  0  0  0  0  0  0  0  0
  -25.1853  -15.4344   20.1511 N   0  0  0  0  0  0  0  0  0  0  0  0
  -22.3048  -12.4921   22.0063 N   0  0  0  0  0  0  0  0  0  0  0  0
  -28.5216  -18.6356   21.3358 N   0  0  0  0  0  0  0  0  0  0  0  0
  -22.0175  -32.7263   20.5470 N   0  0  0  0  0  0  0  0  0  0  0  0
  -25.8510  -31.4898   25.3613 N   0  0  0  0  0  0  0  0  0  0  0  0
  -25.5846  -28.8529   27.8197 N   0  3  0  0  0  0  0  0  0  0  0  0
  -22.4784  -14.2864   20.5889 O   0  0  0  0  0  0  0  0  0  0  0  0
  -24.2795  -33.2539   20.3813 O   0  0  0  0  0  0  0  0  0  0  0  0
  -23.8455  -32.0986   23.7477 O   0  0  0  0  0  0  0  0  0  0  0  0
  -27.0049  -29.4816   25.4736 O   0  0  0  0  0  0  0  0  0  0  0  0
  -30.8084  -18.3104   21.1197 O   0  0  0  0  0  0  0  0  0  0  0  0
  -23.6153   -8.3622   25.5081 O   0  0  0  0  0  0  0  0  0  0  0  0
  -27.7998  -26.1921   20.4615 O   0  0  0  0  0  0  0  0  0  1  0  0
  -28.0119  -24.1064   22.2905 O   0  0  0  0  0  0  0  0  0  0  0  0
  -20.0272   -4.8077   23.2957 F   0  0  0  0  0  0  0  0  0  0  0  0
  -25.8115  -22.5881   21.6156 F   0  0  0  0  0  0  0  0  0  0  0  0
  -24.2582   -5.6883   25.2268 F   0  0  0  0  0  0  0  0  0  0  0  0
  1  2  1  0  0  0  0
  1  5  2  0  0  0  0
  2  6  2  0  0  0  0
  3  9  2  0  0  0  0
  3 18  1  0  0  0  0
  4 10  1  0  0  0  0
  4 18  2  0  0  0  0
  5 20  1  0  0  0  0
  6 22  1  0  0  0  0
  7 11  2  0  0  0  0
  7 21  1  0  0  0  0
  8 12  2  0  0  0  0
  8 24  1  0  0  0  0
  9 25  1  0  0  0  0
 10 25  2  0  0  0  0
 11 26  1  0  0  0  0
 12 28  1  0  0  0  0
 13 14  2  0  0  0  0
 13 27  1  0  0  0  0
 14 29  1  0  0  0  0
 15 23  1  0  0  0  0
 15 26  2  0  0  0  0
 16 24  2  0  0  0  0
 16 30  1  0  0  0  0
 17 29  2  0  0  0  0
 17 31  1  0  0  0  0
 18 32  1  0  0  0  0
 19 32  1  0  0  0  0
 19 33  2  0  0  0  0
 19 34  1  0  0  0  0
 20 22  2  0  0  0  0
 20 39  1  0  0  0  0
 21 23  2  0  0  0  0
 21 40  1  0  0  0  0
 22 48  1  0  0  0  0
 23 41  1  0  0  0  0
 24 67  1  0  0  0  0
 25 76  1  0  0  0  0
 26 77  1  0  0  0  0
 27 31  2  0  0  0  0
 27 76  1  0  0  0  0
 28 30  2  0  0  0  0
 28 78  1  0  0  0  0
 29 79  1  0  0  0  0
 30 80  1  0  0  0  0
 31 81  1  0  0  0  0
 32 61  2  0  0  0  0
 33 62  1  0  0  0  0
 33 65  1  0  0  0  0
 34 66  1  0  0  0  0
 34 71  2  0  0  0  0
 35 49  1  0  0  0  0
 35 68  1  0  0  0  0
 35 72  2  0  0  0  0
 36 58  1  0  0  0  0
 36 63  1  0  0  0  0
 36 73  2  0  0  0  0
 37 59  1  0  0  0  0
 37 69  1  0  0  0  0
 37 74  2  0  0  0  0
 38 64  1  0  0  0  0
 38 67  1  0  0  0  0
 38 75  2  0  0  0  0
 39 42  1  0  0  0  0
 40 49  1  0  0  0  0
 41 63  1  0  0  0  0
 42 44  1  0  0  0  0
 43 45  1  0  0  0  0
 43 46  1  0  0  0  0
 44 48  1  0  0  0  0
 45 50  1  0  0  0  0
 46 64  1  0  0  0  0
 47 50  1  0  0  0  0
 47 64  1  0  0  0  0
 48 68  1  0  0  0  0
 49 63  1  0  0  0  0
 50 62  1  0  0  0  0
 51 59  1  0  0  0  0
 52 60  1  0  0  0  0
 53 60  1  0  0  0  0
 54 60  1  0  0  0  0
 55 70  1  0  0  0  0
 56 57  1  0  0  0  0
 56 77  1  0  0  0  0
 57 78  1  0  0  0  0
 58 60  1  0  0  0  0
 58 69  1  0  0  0  0
 59 70  1  0  0  0  0
 61 62  1  0  0  0  0
M  CHG  1  70   1
M  ISO  4  38 100  56 101  67 100  77 101
M  END
> <Batch ID>
0008

> <Smiles>
CNC(C)C(=O)NC(C(=O)N1Cc2cc([101O:1][101CH2:1]COc3ccc([100NH:0][100C:0](=O)N4CCCC(n5nc(-c6ccc(Oc7ccc(F)cc7F)cc6)c(C(N)=O)c5N)C4)cc3F)ccc2CC1C(=O)NC1CCCc2ccccc21)C(C)(C)C

> <Shape>
0.265

> <Color>
0.145

> <Negative vol penalty>
0.000

$$$$

  -OEChem-04052315363D

 83 91  0     1  0  0  0  0  0999 V2000
  -28.2456  -33.1743   26.1480 C   0  0  0  0  0  0  0  0  0  0  0  0
  -28.3441  -31.9707   25.4573 C   0  0  0  0  0  0  0  0  0  0  0  0
  -22.9455  -11.6257   22.0538 C   0  0  0  0  0  0  0  0  0  0  0  0
  -22.5677  -13.6862   20.8503 C   0  0  0  0  0  0  0  0  0  0  0  0
  -26.9944  -33.6588   26.5271 C   0  0  0  0  0  0  0  0  0  0  0  0
  -27.1914  -31.2502   25.1464 C   0  0  0  0  0  0  0  0  0  0  0  0
  -27.1984  -29.5354   20.3815 C   0  0  0  0  0  0  0  0  0  0  0  0
  -30.8206  -18.1023   19.3767 C   0  0  0  0  0  0  0  0  0  0  0  0
  -21.8491  -11.9017   22.8707 C   0  0  0  0  0  0  0  0  0  0  0  0
  -21.4712  -13.9622   21.6671 C   0  0  0  0  0  0  0  0  0  0  0  0
  -27.9688  -28.4048   20.1128 C   0  0  0  0  0  0  0  0  0  0  0  0
  -31.0084  -19.4747   19.2136 C   0  0  0  0  0  0  0  0  0  0  0  0
  -18.2435  -12.9915   21.9131 C   0  0  0  0  0  0  0  0  0  0  0  0
  -17.0757  -13.4417   21.2975 C   0  0  0  0  0  0  0  0  0  0  0  0
  -25.9844  -27.0367   20.2107 C   0  0  0  0  0  0  0  0  0  0  0  0
  -28.7431  -18.2410   18.1511 C   0  0  0  0  0  0  0  0  0  0  0  0
  -17.1848  -15.4839   22.5838 C   0  0  0  0  0  0  0  0  0  0  0  0
  -23.3048  -12.5180   21.0437 C   0  0  0  0  0  0  0  0  0  0  0  0
  -24.4354  -11.5235   18.9844 C   0  0  0  0  0  0  0  0  0  0  0  0
  -25.8251  -32.9487   26.2122 C   0  0  0  0  0  0  0  0  0  0  0  0
  -25.8145  -29.4234   20.5779 C   0  0  0  0  0  0  0  0  0  0  0  0
  -25.9235  -31.7250   25.5229 C   0  0  0  0  0  0  0  0  0  0  0  0
  -25.1983  -28.1677   20.4792 C   0  0  0  0  0  0  0  0  0  0  0  0
  -28.9309  -19.6135   17.9881 C   0  0  0  0  0  0  0  0  0  0  0  0
  -29.6879  -17.4853   18.8454 C   0  0  0  0  0  0  0  0  0  0  0  0
  -21.1119  -13.0699   22.6773 C   0  0  0  0  0  0  0  0  0  0  0  0
  -27.3623  -27.1549   20.0302 C   0  0  0  0  0  0  0  0  0  0  0  0
  -30.0636  -20.2304   18.5194 C   0  0  0  0  0  0  0  0  0  0  0  0
  -18.8820  -13.7875   22.8642 C   0  0  0  0  0  0  0  0  0  0  0  0
  -16.5463  -14.6879   21.6327 C   0  0  0  0  0  0  0  0  0  0  0  0
  -18.3526  -15.0337   23.1995 C   0  0  0  0  0  0  0  0  0  0  0  0
  -24.4377  -12.2337   20.1999 C   0  0  0  0  0  0  0  0  0  0  0  0
  -25.7482  -11.5295   18.5808 C   0  0  0  0  0  0  0  0  0  0  0  0
  -23.3441  -10.9131   18.2829 C   0  0  0  0  0  0  0  0  0  0  0  0
  -23.8350  -30.0292   22.9900 C   0  0  0  0  0  0  0  0  0  0  0  0
  -21.5604  -29.3056   20.7934 C   0  0  0  0  0  0  0  0  0  0  0  0
  -20.7330  -27.6877   17.9048 C   0  0  0  0  0  0  0  0  0  0  0  0
  -30.3380  -15.1964   19.6728 C   0  0  0  0  0  0  0  0  0  0  0  0
  -24.4985  -33.4887   26.6845 C   0  0  0  0  0  0  0  0  0  0  0  0
  -24.9936  -30.6561   20.8405 C   0  0  0  0  0  0  0  0  0  0  0  0
  -23.7132  -27.9965   20.6620 C   0  0  0  0  0  0  0  0  0  0  0  0
  -23.2988  -32.8514   25.9883 C   0  0  0  0  0  0  0  0  0  0  0  0
  -30.2031  -11.6997   20.3301 C   0  0  0  0  0  0  0  0  0  0  0  0
  -23.4507  -31.3342   25.9449 C   0  0  0  0  0  0  0  0  0  0  0  0
  -28.7096  -11.3741   20.2547 C   0  0  0  0  0  0  0  0  0  0  0  0
  -30.4536  -13.0710   20.9551 C   0  0  0  0  0  0  0  0  0  0  0  0
  -28.2239  -13.8542   20.2594 C   0  0  0  0  0  0  0  0  0  0  0  0
  -24.6943  -30.9269   25.1456 C   0  0  1  0  0  0  0  0  0  0  0  0
  -23.6679  -30.3550   21.5328 C   0  0  1  0  0  0  0  0  0  0  0  0
  -27.9185  -12.5105   19.5777 C   0  0  2  0  0  0  0  0  0  0  0  0
  -27.9095  -20.4070   17.2421 C   0  0  0  0  0  0  0  0  0  0  0  0
  -18.7887  -27.2494   16.3799 C   0  0  0  0  0  0  0  0  0  0  0  0
  -20.4530  -27.2821   22.7908 C   0  0  0  0  0  0  0  0  0  0  0  0
  -19.1645  -26.2397   20.9143 C   0  0  0  0  0  0  0  0  0  0  0  0
  -18.7144  -28.6035   21.5719 C   0  0  0  0  0  0  0  0  0  0  0  0
  -22.0769  -29.0072   15.6219 C   0  0  0  0  0  0  0  0  0  0  0  0
  -29.9242  -24.6397   20.5160 C   0  0  0  0  0  0  0  0  0  0  0  0
  -29.8624  -23.7587   19.2731 C   0  0  0  0  0  0  0  0  0  0  0  0
  -29.4657  -26.0615   20.2199 C   0  0  0  0  0  0  0  0  0  1  0  0
  -30.3610  -22.3490   19.5579 C   0  0  0  0  0  0  0  0  0  0  0  0
  -20.8593  -28.0419   20.3569 C   0  0  1  0  0  0  0  0  0  0  0  0
  -19.9785  -28.1507   16.6715 C   0  0  2  0  0  0  0  0  0  0  0  0
  -19.8261  -27.5444   21.4069 C   0  0  0  0  0  0  0  0  0  0  0  0
  -25.6554  -12.6597   20.5460 N   0  0  0  0  0  0  0  0  0  0  0  0
  -26.4306  -12.2158   19.5418 N   0  0  0  0  0  0  0  0  0  0  0  0
  -22.9545  -29.2309   20.9230 N   0  0  0  0  0  0  0  0  0  0  0  0
  -29.6748  -14.0981   20.2597 N   0  0  0  0  0  0  0  0  0  0  0  0
  -26.3740  -11.0145   17.5012 N   0  0  0  0  0  0  0  0  0  0  0  0
  -22.0602  -11.0011   18.8380 N   0  0  0  0  0  0  0  0  0  0  0  0
  -29.4975  -16.0911   19.0112 N   0  0  0  0  0  0  0  0  0  0  0  0
  -24.4387  -31.0316   23.7250 N   0  0  0  0  0  0  0  0  0  0  0  0
  -20.2886  -28.3243   19.0443 N   0  0  0  0  0  0  0  0  0  0  0  0
  -20.8762  -28.1436   15.4820 N   0  3  0  0  0  0  0  0  0  0  0  0
  -23.5054  -10.2935   17.2042 O   0  0  0  0  0  0  0  0  0  0  0  0
  -23.4436  -28.9490   23.4164 O   0  0  0  0  0  0  0  0  0  0  0  0
  -20.8963  -30.3235   21.0046 O   0  0  0  0  0  0  0  0  0  0  0  0
  -21.6245  -26.8428   17.8621 O   0  0  0  0  0  0  0  0  0  0  0  0
  -31.5644  -15.3191   19.7280 O   0  0  0  0  0  0  0  0  0  0  0  0
  -20.0418  -13.3395   23.4740 O   0  0  0  0  0  0  0  0  0  0  0  0
  -28.1120  -26.0497   19.7687 O   0  0  0  0  0  0  0  0  0  1  0  0
  -30.2640  -21.5780   18.3684 O   0  0  0  0  0  0  0  0  0  0  0  0
  -15.4257  -15.1208   21.0403 F   0  0  0  0  0  0  0  0  0  0  0  0
  -18.9622  -15.8034   24.1116 F   0  0  0  0  0  0  0  0  0  0  0  0
  1  2  1  0  0  0  0
  1  5  2  0  0  0  0
  2  6  2  0  0  0  0
  3  9  2  0  0  0  0
  3 18  1  0  0  0  0
  4 10  1  0  0  0  0
  4 18  2  0  0  0  0
  5 20  1  0  0  0  0
  6 22  1  0  0  0  0
  7 11  2  0  0  0  0
  7 21  1  0  0  0  0
  8 12  2  0  0  0  0
  8 25  1  0  0  0  0
  9 26  1  0  0  0  0
 10 26  2  0  0  0  0
 11 27  1  0  0  0  0
 12 28  1  0  0  0  0
 13 14  2  0  0  0  0
 13 29  1  0  0  0  0
 14 30  1  0  0  0  0
 15 23  1  0  0  0  0
 15 27  2  0  0  0  0
 16 24  1  0  0  0  0
 16 25  2  0  0  0  0
 17 30  2  0  0  0  0
 17 31  1  0  0  0  0
 18 32  1  0  0  0  0
 19 32  1  0  0  0  0
 19 33  2  0  0  0  0
 19 34  1  0  0  0  0
 20 22  2  0  0  0  0
 20 39  1  0  0  0  0
 21 23  2  0  0  0  0
 21 40  1  0  0  0  0
 22 48  1  0  0  0  0
 23 41  1  0  0  0  0
 24 28  2  0  0  0  0
 24 51  1  0  0  0  0
 25 70  1  0  0  0  0
 26 79  1  0  0  0  0
 27 80  1  0  0  0  0
 28 81  1  0  0  0  0
 29 31  2  0  0  0  0
 29 79  1  0  0  0  0
 30 82  1  0  0  0  0
 31 83  1  0  0  0  0
 32 64  2  0  0  0  0
 33 65  1  0  0  0  0
 33 68  1  0  0  0  0
 34 69  1  0  0  0  0
 34 74  2  0  0  0  0
 35 49  1  0  0  0  0
 35 71  1  0  0  0  0
 35 75  2  0  0  0  0
 36 61  1  0  0  0  0
 36 66  1  0  0  0  0
 36 76  2  0  0  0  0
 37 62  1  0  0  0  0
 37 72  1  0  0  0  0
 37 77  2  0  0  0  0
 38 67  1  0  0  0  0
 38 70  1  0  0  0  0
 38 78  2  0  0  0  0
 39 42  1  0  0  0  0
 40 49  1  0  0  0  0
 41 66  1  0  0  0  0
 42 44  1  0  0  0  0
 43 45  1  0  0  0  0
 43 46  1  0  0  0  0
 44 48  1  0  0  0  0
 45 50  1  0  0  0  0
 46 67  1  0  0  0  0
 47 50  1  0  0  0  0
 47 67  1  0  0  0  0
 48 71  1  0  0  0  0
 49 66  1  0  0  0  0
 50 65  1  0  0  0  0
 52 62  1  0  0  0  0
 53 63  1  0  0  0  0
 54 63  1  0  0  0  0
 55 63  1  0  0  0  0
 56 73  1  0  0  0  0
 57 58  1  0  0  0  0
 57 59  1  0  0  0  0
 58 60  1  0  0  0  0
 59 80  1  0  0  0  0
 60 81  1  0  0  0  0
 61 63  1  0  0  0  0
 61 72  1  0  0  0  0
 62 73  1  0  0  0  0
 64 65  1  0  0  0  0
M  CHG  1  73   1
M  ISO  4  38 100  59 101  70 100  80 101
M  END
> <Batch ID>
0008

> <Smiles>
CNC(C)C(=O)NC(C(=O)N1Cc2cc([101O:1][101CH2:1]CCCOc3ccc([100NH:0][100C:0](=O)N4CCCC(n5nc(-c6ccc(Oc7ccc(F)cc7F)cc6)c(C(N)=O)c5N)C4)cc3C)ccc2CC1C(=O)NC1CCCc2ccccc21)C(C)(C)C

> <Shape>
0.299

> <Color>
0.088

> <Negative vol penalty>
0.000

$$$$

  -OEChem-04052315363D

 88 96  0     1  0  0  0  0  0999 V2000
  -25.6862  -35.7987   21.9191 C   0  0  0  0  0  0  0  0  0  0  0  0
  -26.2972  -34.5498   21.8700 C   0  0  0  0  0  0  0  0  0  0  0  0
  -25.6291  -11.3374   20.7157 C   0  0  0  0  0  0  0  0  0  0  0  0
  -25.9433  -11.9573   18.4018 C   0  0  0  0  0  0  0  0  0  0  0  0
  -24.4185  -35.9316   22.4839 C   0  0  0  0  0  0  0  0  0  0  0  0
  -25.6411  -33.4332   22.3867 C   0  0  0  0  0  0  0  0  0  0  0  0
  -25.9418  -29.4125   19.3226 C   0  0  0  0  0  0  0  0  0  0  0  0
  -25.2332  -10.0599   20.3197 C   0  0  0  0  0  0  0  0  0  0  0  0
  -25.5474  -10.6798   18.0058 C   0  0  0  0  0  0  0  0  0  0  0  0
  -27.1401  -28.6998   19.3231 C   0  0  0  0  0  0  0  0  0  0  0  0
  -26.7145   -7.2011   19.2871 C   0  0  0  0  0  0  0  0  0  0  0  0
  -27.2482   -6.1136   19.9784 C   0  0  0  0  0  0  0  0  0  0  0  0
  -29.9785  -22.1978   19.6045 C   0  0  0  0  0  0  0  0  0  0  0  0
  -26.1517  -27.0511   20.7806 C   0  0  0  0  0  0  0  0  0  0  0  0
  -27.3901  -22.4644   20.6104 C   0  0  0  0  0  0  0  0  0  0  0  0
  -25.0224   -5.4333   20.6265 C   0  0  0  0  0  0  0  0  0  0  0  0
  -25.9842  -12.2861   19.7568 C   0  0  0  0  0  0  0  0  0  0  0  0
  -29.6581  -23.2770   20.4281 C   0  0  0  0  0  0  0  0  0  0  0  0
  -27.6998  -14.0388   20.4584 C   0  0  0  0  0  0  0  0  0  0  0  0
  -23.7425  -34.8144   22.9991 C   0  0  0  0  0  0  0  0  0  0  0  0
  -24.8411  -28.9549   20.0611 C   0  0  0  0  0  0  0  0  0  0  0  0
  -24.3637  -33.5514   22.9602 C   0  0  0  0  0  0  0  0  0  0  0  0
  -24.9399  -27.7585   20.7857 C   0  0  0  0  0  0  0  0  0  0  0  0
  -27.7106  -21.3852   19.7868 C   0  0  0  0  0  0  0  0  0  0  0  0
  -25.1924   -9.7311   18.9647 C   0  0  0  0  0  0  0  0  0  0  0  0
  -27.2461  -27.5204   20.0545 C   0  0  0  0  0  0  0  0  0  0  0  0
  -25.3347   -7.4048   19.2655 C   0  0  0  0  0  0  0  0  0  0  0  0
  -26.4022   -5.2297   20.6481 C   0  0  0  0  0  0  0  0  0  0  0  0
  -29.0048  -21.2520   19.2838 C   0  0  0  0  0  0  0  0  0  0  0  0
  -28.3639  -23.4103   20.9311 C   0  0  0  0  0  0  0  0  0  0  0  0
  -24.4887   -6.5208   19.9351 C   0  0  0  0  0  0  0  0  0  0  0  0
  -26.3927  -13.6061   20.1652 C   0  0  0  0  0  0  0  0  0  0  0  0
  -27.5562  -15.3632   20.7929 C   0  0  0  0  0  0  0  0  0  0  0  0
  -30.6886  -24.2722   20.7643 C   0  0  0  0  0  0  0  0  0  0  0  0
  -28.9336  -13.3088   20.4308 C   0  0  0  0  0  0  0  0  0  0  0  0
  -23.1353  -30.0989   22.4870 C   0  0  0  0  0  0  0  0  0  0  0  0
  -21.2959  -27.4888   21.9158 C   0  0  0  0  0  0  0  0  0  0  0  0
  -21.0615  -24.3329   20.6382 C   0  0  0  0  0  0  0  0  0  0  0  0
  -25.3895  -20.4104   19.8795 C   0  0  0  0  0  0  0  0  0  0  0  0
  -22.3934  -35.0154   23.6427 C   0  0  0  0  0  0  0  0  0  0  0  0
  -23.5472  -29.7212   20.0286 C   0  0  0  0  0  0  0  0  0  0  0  0
  -23.7810  -27.2137   21.5787 C   0  0  0  0  0  0  0  0  0  0  0  0
  -21.6085  -33.7194   23.8296 C   0  0  0  0  0  0  0  0  0  0  0  0
  -23.3957  -18.0967   21.7094 C   0  0  0  0  0  0  0  0  0  0  0  0
  -22.5021  -32.6350   24.4233 C   0  0  0  0  0  0  0  0  0  0  0  0
  -24.1052  -16.7577   21.4949 C   0  0  0  0  0  0  0  0  0  0  0  0
  -23.4473  -18.9726   20.4589 C   0  0  0  0  0  0  0  0  0  0  0  0
  -25.5002  -17.8476   19.6913 C   0  0  0  0  0  0  0  0  0  0  0  0
  -23.6736  -32.3123   23.4879 C   0  0  1  0  0  0  0  0  0  0  0  0
  -22.6519  -29.4331   21.2298 C   0  0  1  0  0  0  0  0  0  0  0  0
  -25.5309  -16.9573   20.9443 C   0  0  2  0  0  0  0  0  0  0  0  0
  -19.4404  -22.4388   20.3523 C   0  0  0  0  0  0  0  0  0  0  0  0
  -30.0967  -25.8206   16.1824 C   0  0  0  0  0  0  0  0  0  0  0  0
  -31.8627  -24.4495   17.3167 C   0  0  0  0  0  0  0  0  0  0  0  0
  -21.6174  -26.7719   24.8641 C   0  0  0  0  0  0  0  0  0  0  0  0
  -20.8198  -24.4624   24.3176 C   0  0  0  0  0  0  0  0  0  0  0  0
  -19.3167  -26.4189   23.9495 C   0  0  0  0  0  0  0  0  0  0  0  0
  -31.8403  -26.3887   20.2467 C   0  0  0  0  0  0  0  0  0  0  0  0
  -21.2643  -24.4515   17.6880 C   0  0  0  0  0  0  0  0  0  0  0  0
  -29.2258  -26.9103   18.8864 C   0  0  0  0  0  0  0  0  0  1  0  0
  -21.2855  -26.0605   22.4044 C   0  0  1  0  0  0  0  0  0  0  0  0
  -20.0341  -23.6900   19.7240 C   0  0  2  0  0  0  0  0  0  0  0  0
  -30.9415  -25.6658   17.4520 C   0  0  0  0  0  0  0  0  0  0  0  0
  -30.0535  -25.6319   18.7191 C   0  0  1  0  0  0  0  0  0  0  0  0
  -20.7825  -25.9394   23.8706 C   0  0  0  0  0  0  0  0  0  0  0  0
  -25.4855  -14.5769   20.3016 N   0  0  0  0  0  0  0  0  0  0  0  0
  -26.2237  -15.6327   20.6843 N   0  0  0  0  0  0  0  0  0  0  0  0
  -22.5392  -28.0024   21.5205 N   0  0  0  0  0  0  0  0  0  0  0  0
  -24.8292  -19.1208   19.9971 N   0  0  0  0  0  0  0  0  0  0  0  0
  -28.4411  -16.3118   21.1665 N   0  0  0  0  0  0  0  0  0  0  0  0
  -28.9016  -11.9563   20.0649 N   0  0  0  0  0  0  0  0  0  0  0  0
  -26.7202  -20.4251   19.4628 N   0  0  0  0  0  0  0  0  0  0  0  0
  -23.2311  -31.4743   22.3942 N   0  0  0  0  0  0  0  0  0  0  0  0
  -20.4970  -25.3041   21.4378 N   0  0  0  0  0  0  0  0  0  0  0  0
  -30.8302  -25.3848   19.9152 N   0  0  0  0  0  0  0  0  0  0  0  0
  -20.6605  -23.3121   18.4257 N   0  3  0  0  0  0  0  0  0  0  0  0
  -31.3449  -24.0537   21.7819 O   0  0  0  0  0  0  0  0  0  0  0  0
  -30.0296  -13.8360   20.7379 O   0  0  0  0  0  0  0  0  0  0  0  0
  -23.4003  -29.4155   23.4691 O   0  0  0  0  0  0  0  0  0  0  0  0
  -20.2385  -28.1231   21.8792 O   0  0  0  0  0  0  0  0  0  0  0  0
  -22.2456  -24.0038   20.6450 O   0  0  0  0  0  0  0  0  0  0  0  0
  -24.7454  -21.4255   20.1562 O   0  0  0  0  0  0  0  0  0  0  0  0
  -24.8063   -8.4845   18.5780 O   0  0  0  0  0  0  0  0  0  0  0  0
  -28.4147  -26.8231   20.0573 O   0  0  0  0  0  0  0  0  0  1  0  0
  -26.9147   -4.1845   21.3107 F   0  0  0  0  0  0  0  0  0  0  0  0
  -29.3241  -20.2189   18.4911 F   0  0  0  0  0  0  0  0  0  0  0  0
  -28.0445  -24.4428   21.7246 F   0  0  0  0  0  0  0  0  0  0  0  0
  -23.1622   -6.7106   19.9170 F   0  0  0  0  0  0  0  0  0  0  0  0
  1  2  1  0  0  0  0
  1  5  2  0  0  0  0
  2  6  2  0  0  0  0
  3  8  2  0  0  0  0
  3 17  1  0  0  0  0
  4  9  1  0  0  0  0
  4 17  2  0  0  0  0
  5 20  1  0  0  0  0
  6 22  1  0  0  0  0
  7 10  2  0  0  0  0
  7 21  1  0  0  0  0
  8 25  1  0  0  0  0
  9 25  2  0  0  0  0
 10 26  1  0  0  0  0
 11 12  2  0  0  0  0
 11 27  1  0  0  0  0
 12 28  1  0  0  0  0
 13 18  1  0  0  0  0
 13 29  2  0  0  0  0
 14 23  1  0  0  0  0
 14 26  2  0  0  0  0
 15 24  2  0  0  0  0
 15 30  1  0  0  0  0
 16 28  2  0  0  0  0
 16 31  1  0  0  0  0
 17 32  1  0  0  0  0
 18 30  2  0  0  0  0
 18 34  1  0  0  0  0
 19 32  1  0  0  0  0
 19 33  2  0  0  0  0
 19 35  1  0  0  0  0
 20 22  2  0  0  0  0
 20 40  1  0  0  0  0
 21 23  2  0  0  0  0
 21 41  1  0  0  0  0
 22 49  1  0  0  0  0
 23 42  1  0  0  0  0
 24 29  1  0  0  0  0
 24 72  1  0  0  0  0
 25 83  1  0  0  0  0
 26 84  1  0  0  0  0
 27 31  2  0  0  0  0
 27 83  1  0  0  0  0
 28 85  1  0  0  0  0
 29 86  1  0  0  0  0
 30 87  1  0  0  0  0
 31 88  1  0  0  0  0
 32 66  2  0  0  0  0
 33 67  1  0  0  0  0
 33 70  1  0  0  0  0
 34 75  1  0  0  0  0
 34 77  2  0  0  0  0
 35 71  1  0  0  0  0
 35 78  2  0  0  0  0
 36 50  1  0  0  0  0
 36 73  1  0  0  0  0
 36 79  2  0  0  0  0
 37 61  1  0  0  0  0
 37 68  1  0  0  0  0
 37 80  2  0  0  0  0
 38 62  1  0  0  0  0
 38 74  1  0  0  0  0
 38 81  2  0  0  0  0
 39 69  1  0  0  0  0
 39 72  1  0  0  0  0
 39 82  2  0  0  0  0
 40 43  1  0  0  0  0
 41 50  1  0  0  0  0
 42 68  1  0  0  0  0
 43 45  1  0  0  0  0
 44 46  1  0  0  0  0
 44 47  1  0  0  0  0
 45 49  1  0  0  0  0
 46 51  1  0  0  0  0
 47 69  1  0  0  0  0
 48 51  1  0  0  0  0
 48 69  1  0  0  0  0
 49 73  1  0  0  0  0
 50 68  1  0  0  0  0
 51 67  1  0  0  0  0
 52 62  1  0  0  0  0
 53 63  1  0  0  0  0
 54 63  1  0  0  0  0
 55 65  1  0  0  0  0
 56 65  1  0  0  0  0
 57 65  1  0  0  0  0
 58 75  1  0  0  0  0
 59 76  1  0  0  0  0
 60 64  1  0  0  0  0
 60 84  1  0  0  0  0
 61 65  1  0  0  0  0
 61 74  1  0  0  0  0
 62 76  1  0  0  0  0
 63 64  1  0  0  0  0
 64 75  1  0  0  0  0
 66 67  1  0  0  0  0
M  CHG  1  76   1
M  ISO  4  39 100  60 101  72 100  84 101
M  END
> <Batch ID>
0008

> <Smiles>
CNC(C)C(=O)NC(C(=O)N1Cc2cc([101O:1][101CH2:1]C(C(C)C)N(C)C(=O)c3cc(F)c([100NH:0][100C:0](=O)N4CCCC(n5nc(-c6ccc(Oc7ccc(F)cc7F)cc6)c(C(N)=O)c5N)C4)cc3F)ccc2CC1C(=O)NC1CCCc2ccccc21)C(C)(C)C

> <Shape>
0.251

> <Color>
0.065

> <Negative vol penalty>
0.000

$$$$

  -OEChem-04052315363D

 85 93  0     1  0  0  0  0  0999 V2000
  -18.0772  -26.6704   23.3875 C   0  0  0  0  0  0  0  0  0  0  0  0
  -19.3640  -26.1616   23.2435 C   0  0  0  0  0  0  0  0  0  0  0  0
  -22.6628  -11.6028   18.9582 C   0  0  0  0  0  0  0  0  0  0  0  0
  -23.2772   -9.8271   20.4770 C   0  0  0  0  0  0  0  0  0  0  0  0
  -17.7454  -27.8967   22.8130 C   0  0  0  0  0  0  0  0  0  0  0  0
  -20.3195  -26.8783   22.5239 C   0  0  0  0  0  0  0  0  0  0  0  0
  -26.3293  -27.1741   23.6643 C   0  0  0  0  0  0  0  0  0  0  0  0
  -21.6552  -10.7986   18.4256 C   0  0  0  0  0  0  0  0  0  0  0  0
  -22.2696   -9.0230   19.9445 C   0  0  0  0  0  0  0  0  0  0  0  0
  -27.4221  -26.5037   23.1163 C   0  0  0  0  0  0  0  0  0  0  0  0
  -18.9165   -8.7158   20.2328 C   0  0  0  0  0  0  0  0  0  0  0  0
  -18.1091   -8.0135   21.1275 C   0  0  0  0  0  0  0  0  0  0  0  0
  -27.7997  -28.3564   21.6182 C   0  0  0  0  0  0  0  0  0  0  0  0
  -29.5515  -20.1377   18.7318 C   0  0  0  0  0  0  0  0  0  0  0  0
  -30.8750  -18.7496   20.7576 C   0  0  0  0  0  0  0  0  0  0  0  0
  -18.8160   -5.9298   20.1297 C   0  0  0  0  0  0  0  0  0  0  0  0
  -23.4739  -11.1170   19.9839 C   0  0  0  0  0  0  0  0  0  0  0  0
  -24.4083  -12.8377   21.6189 C   0  0  0  0  0  0  0  0  0  0  0  0
  -18.7000  -28.6333   22.0941 C   0  0  0  0  0  0  0  0  0  0  0  0
  -25.9563  -28.4381   23.1850 C   0  0  0  0  0  0  0  0  0  0  0  0
  -19.9997  -28.1149   21.9381 C   0  0  0  0  0  0  0  0  0  0  0  0
  -26.7034  -29.0418   22.1635 C   0  0  0  0  0  0  0  0  0  0  0  0
  -30.4298  -20.8118   19.5802 C   0  0  0  0  0  0  0  0  0  0  0  0
  -29.3349  -18.7696   18.8963 C   0  0  0  0  0  0  0  0  0  0  0  0
  -31.0915  -20.1177   20.5931 C   0  0  0  0  0  0  0  0  0  0  0  0
  -29.9967  -18.0755   19.9092 C   0  0  0  0  0  0  0  0  0  0  0  0
  -21.4586   -9.5087   18.9187 C   0  0  0  0  0  0  0  0  0  0  0  0
  -28.1557  -27.0936   22.0912 C   0  0  0  0  0  0  0  0  0  0  0  0
  -19.6736   -8.0252   19.2865 C   0  0  0  0  0  0  0  0  0  0  0  0
  -18.0589   -6.6205   21.0760 C   0  0  0  0  0  0  0  0  0  0  0  0
  -19.6234   -6.6322   19.2350 C   0  0  0  0  0  0  0  0  0  0  0  0
  -24.5152  -11.9470   20.5341 C   0  0  0  0  0  0  0  0  0  0  0  0
  -25.6647  -13.3785   21.7443 C   0  0  0  0  0  0  0  0  0  0  0  0
  -23.2748  -13.1485   22.4400 C   0  0  0  0  0  0  0  0  0  0  0  0
  -23.3664  -29.6291   21.7787 C   0  0  0  0  0  0  0  0  0  0  0  0
  -24.9485  -32.4399   22.1232 C   0  0  0  0  0  0  0  0  0  0  0  0
  -29.9749  -24.4556   20.3943 C   0  0  0  0  0  0  0  0  0  0  0  0
  -27.9291  -34.0604   22.4937 C   0  0  0  0  0  0  0  0  0  0  0  0
  -30.0817  -15.7331   19.0721 C   0  0  0  0  0  0  0  0  0  0  0  0
  -18.2813  -29.9317   21.4510 C   0  0  0  0  0  0  0  0  0  0  0  0
  -24.7911  -29.1596   23.8049 C   0  0  0  0  0  0  0  0  0  0  0  0
  -26.3564  -30.4059   21.6274 C   0  0  0  0  0  0  0  0  0  0  0  0
  -19.4569  -30.8058   21.0218 C   0  0  0  0  0  0  0  0  0  0  0  0
  -30.0534  -12.0834   19.6099 C   0  0  0  0  0  0  0  0  0  0  0  0
  -20.4989  -29.9731   20.2816 C   0  0  0  0  0  0  0  0  0  0  0  0
  -28.5855  -11.7965   19.9216 C   0  0  0  0  0  0  0  0  0  0  0  0
  -30.2121  -13.2892   18.6885 C   0  0  0  0  0  0  0  0  0  0  0  0
  -28.0754  -14.2362   19.5057 C   0  0  0  0  0  0  0  0  0  0  0  0
  -21.0708  -28.8745   21.1858 C   0  0  1  0  0  0  0  0  0  0  0  0
  -24.1890  -30.2202   22.8885 C   0  0  1  0  0  0  0  0  0  0  0  0
  -27.8847  -13.0530   20.4667 C   0  0  1  0  0  0  0  0  0  0  0  0
  -28.3887  -18.0732   17.9729 C   0  0  0  0  0  0  0  0  0  0  0  0
  -32.0362  -20.8183   21.5137 C   0  0  0  0  0  0  0  0  0  0  0  0
  -28.9067  -36.3615   22.7099 C   0  0  0  0  0  0  0  0  0  0  0  0
  -24.5461  -32.8893   19.1322 C   0  0  0  0  0  0  0  0  0  0  0  0
  -26.3134  -34.6599   19.2313 C   0  0  0  0  0  0  0  0  0  0  0  0
  -24.2107  -34.9239   20.5472 C   0  0  0  0  0  0  0  0  0  0  0  0
  -29.4913  -16.1673   21.4454 C   0  0  0  0  0  0  0  0  0  0  0  0
  -29.0458  -33.4608   25.1681 C   0  0  0  0  0  0  0  0  0  0  0  0
  -30.6467  -22.2844   19.3842 C   0  0  0  0  0  0  0  0  0  0  0  0
  -29.1784  -25.0149   21.5537 C   0  0  0  0  0  0  0  0  0  1  0  0
  -25.9301  -33.2239   21.2860 C   0  0  1  0  0  0  0  0  0  0  0  0
  -28.3712  -35.1488   23.4552 C   0  0  2  0  0  0  0  0  0  0  0  0
  -25.2557  -33.8977   20.0577 C   0  0  0  0  0  0  0  0  0  0  0  0
  -25.7425  -11.9206   20.0076 N   0  0  0  0  0  0  0  0  0  0  0  0
  -26.4182  -12.8016   20.7648 N   0  0  0  0  0  0  0  0  0  0  0  0
  -25.2049  -31.0685   22.2618 N   0  0  0  0  0  0  0  0  0  0  0  0
  -29.4987  -14.4570   19.2069 N   0  0  0  0  0  0  0  0  0  0  0  0
  -26.1872  -14.2866   22.5956 N   0  0  0  0  0  0  0  0  0  0  0  0
  -22.0600  -12.5019   22.1744 N   0  0  0  0  0  0  0  0  0  0  0  0
  -22.0388  -29.4308   22.1066 N   0  0  0  0  0  0  0  0  0  0  0  0
  -29.9617  -23.0696   20.3848 N   0  0  0  0  0  0  0  0  0  0  0  0
  -26.5867  -34.1579   22.1943 N   0  0  0  0  0  0  0  0  0  0  0  0
  -29.7861  -16.6593   20.0956 N   0  0  0  0  0  0  0  0  0  0  0  0
  -29.4434  -34.6397   24.3563 N   0  3  0  0  0  0  0  0  0  0  0  0
  -23.3331  -13.9872   23.3710 O   0  0  0  0  0  0  0  0  0  0  0  0
  -23.8966  -29.3734   20.7039 O   0  0  0  0  0  0  0  0  0  0  0  0
  -23.9936  -33.0243   22.6413 O   0  0  0  0  0  0  0  0  0  0  0  0
  -30.5524  -25.1697   19.5791 O   0  0  0  0  0  0  0  0  0  0  0  0
  -28.6985  -33.2111   22.0497 O   0  0  0  0  0  0  0  0  0  0  0  0
  -30.8305  -16.0118   18.1280 O   0  0  0  0  0  0  0  0  0  0  0  0
  -20.4753   -8.7238   18.3995 O   0  0  0  0  0  0  0  0  0  0  0  0
  -29.2224  -26.4412   21.5542 O   0  0  0  0  0  0  0  0  0  1  0  0
  -17.2847   -5.9461   21.9362 F   0  0  0  0  0  0  0  0  0  0  0  0
  -20.3494   -5.9630   18.3289 F   0  0  0  0  0  0  0  0  0  0  0  0
  1  2  1  0  0  0  0
  1  5  2  0  0  0  0
  2  6  2  0  0  0  0
  3  8  2  0  0  0  0
  3 17  1  0  0  0  0
  4  9  1  0  0  0  0
  4 17  2  0  0  0  0
  5 19  1  0  0  0  0
  6 21  1  0  0  0  0
  7 10  2  0  0  0  0
  7 20  1  0  0  0  0
  8 27  1  0  0  0  0
  9 27  2  0  0  0  0
 10 28  1  0  0  0  0
 11 12  2  0  0  0  0
 11 29  1  0  0  0  0
 12 30  1  0  0  0  0
 13 22  1  0  0  0  0
 13 28  2  0  0  0  0
 14 23  1  0  0  0  0
 14 24  2  0  0  0  0
 15 25  1  0  0  0  0
 15 26  2  0  0  0  0
 16 30  2  0  0  0  0
 16 31  1  0  0  0  0
 17 32  1  0  0  0  0
 18 32  1  0  0  0  0
 18 33  2  0  0  0  0
 18 34  1  0  0  0  0
 19 21  2  0  0  0  0
 19 40  1  0  0  0  0
 20 22  2  0  0  0  0
 20 41  1  0  0  0  0
 21 49  1  0  0  0  0
 22 42  1  0  0  0  0
 23 25  2  0  0  0  0
 23 60  1  0  0  0  0
 24 26  1  0  0  0  0
 24 52  1  0  0  0  0
 25 53  1  0  0  0  0
 26 74  1  0  0  0  0
 27 82  1  0  0  0  0
 28 83  1  0  0  0  0
 29 31  2  0  0  0  0
 29 82  1  0  0  0  0
 30 84  1  0  0  0  0
 31 85  1  0  0  0  0
 32 65  2  0  0  0  0
 33 66  1  0  0  0  0
 33 69  1  0  0  0  0
 34 70  1  0  0  0  0
 34 76  2  0  0  0  0
 35 50  1  0  0  0  0
 35 71  1  0  0  0  0
 35 77  2  0  0  0  0
 36 62  1  0  0  0  0
 36 67  1  0  0  0  0
 36 78  2  0  0  0  0
 37 61  1  0  0  0  0
 37 72  1  0  0  0  0
 37 79  2  0  0  0  0
 38 63  1  0  0  0  0
 38 73  1  0  0  0  0
 38 80  2  0  0  0  0
 39 68  1  0  0  0  0
 39 74  1  0  0  0  0
 39 81  2  0  0  0  0
 40 43  1  0  0  0  0
 41 50  1  0  0  0  0
 42 67  1  0  0  0  0
 43 45  1  0  0  0  0
 44 46  1  0  0  0  0
 44 47  1  0  0  0  0
 45 49  1  0  0  0  0
 46 51  1  0  0  0  0
 47 68  1  0  0  0  0
 48 51  1  0  0  0  0
 48 68  1  0  0  0  0
 49 71  1  0  0  0  0
 50 67  1  0  0  0  0
 51 66  1  0  0  0  0
 54 63  1  0  0  0  0
 55 64  1  0  0  0  0
 56 64  1  0  0  0  0
 57 64  1  0  0  0  0
 58 74  1  0  0  0  0
 59 75  1  0  0  0  0
 60 72  1  0  0  0  0
 61 83  1  0  0  0  0
 62 64  1  0  0  0  0
 62 73  1  0  0  0  0
 63 75  1  0  0  0  0
 65 66  1  0  0  0  0
M  CHG  1  75   1
M  ISO  4  39 100  61 101  74 100  83 101
M  END
> <Batch ID>
0008

> <Smiles>
CNC(C)C(=O)NC(C(=O)N1Cc2cc([101O:1][101CH2:1]C(=O)NCc3cc(C)c([100N:0](C)[100C:0](=O)N4CCCC(n5nc(-c6ccc(Oc7ccc(F)cc7F)cc6)c(C(N)=O)c5N)C4)cc3C)ccc2CC1C(=O)NC1CCCc2ccccc21)C(C)(C)C

> <Shape>
0.276

> <Color>
0.120

> <Negative vol penalty>
0.000

$$$$

  -OEChem-04052315363D

 82 90  0     1  0  0  0  0  0999 V2000
  -29.8893  -33.2483   25.4534 C   0  0  0  0  0  0  0  0  0  0  0  0
  -29.6271  -32.0062   24.8842 C   0  0  0  0  0  0  0  0  0  0  0  0
  -24.4956   -9.6972   21.7714 C   0  0  0  0  0  0  0  0  0  0  0  0
  -24.7104  -11.0320   23.7737 C   0  0  0  0  0  0  0  0  0  0  0  0
  -28.8358  -34.0481   25.8943 C   0  0  0  0  0  0  0  0  0  0  0  0
  -28.3112  -31.5628   24.7565 C   0  0  0  0  0  0  0  0  0  0  0  0
  -27.3785  -29.5301   20.2131 C   0  0  0  0  0  0  0  0  0  0  0  0
  -24.1455   -8.5914   22.5461 C   0  0  0  0  0  0  0  0  0  0  0  0
  -24.3601   -9.9262   24.5484 C   0  0  0  0  0  0  0  0  0  0  0  0
  -27.8304  -28.2298   19.9924 C   0  0  0  0  0  0  0  0  0  0  0  0
  -21.3987   -7.4414   24.1479 C   0  0  0  0  0  0  0  0  0  0  0  0
  -20.3153   -6.6711   23.7257 C   0  0  0  0  0  0  0  0  0  0  0  0
  -25.6076  -27.3923   20.4128 C   0  0  0  0  0  0  0  0  0  0  0  0
  -29.7302  -19.8880   19.6332 C   0  0  0  0  0  0  0  0  0  0  0  0
  -27.4501  -19.9288   20.4308 C   0  0  0  0  0  0  0  0  0  0  0  0
  -21.7568   -4.7402   23.5495 C   0  0  0  0  0  0  0  0  0  0  0  0
  -24.7781  -10.9175   22.3852 C   0  0  0  0  0  0  0  0  0  0  0  0
  -24.2728  -13.0232   21.0367 C   0  0  0  0  0  0  0  0  0  0  0  0
  -27.5058  -33.6185   25.7631 C   0  0  0  0  0  0  0  0  0  0  0  0
  -26.0378  -29.7707   20.5465 C   0  0  0  0  0  0  0  0  0  0  0  0
  -27.2391  -32.3571   25.1972 C   0  0  0  0  0  0  0  0  0  0  0  0
  -25.1406  -28.6968   20.6347 C   0  0  0  0  0  0  0  0  0  0  0  0
  -28.6137  -19.2189   20.1344 C   0  0  0  0  0  0  0  0  0  0  0  0
  -24.0777   -8.7059   23.9346 C   0  0  0  0  0  0  0  0  0  0  0  0
  -26.9456  -27.1604   20.0950 C   0  0  0  0  0  0  0  0  0  0  0  0
  -22.6613   -6.8612   24.2708 C   0  0  0  0  0  0  0  0  0  0  0  0
  -28.5197  -21.9768   19.7248 C   0  0  0  0  0  0  0  0  0  0  0  0
  -20.4943   -5.3205   23.4265 C   0  0  0  0  0  0  0  0  0  0  0  0
  -29.6833  -21.2670   19.4285 C   0  0  0  0  0  0  0  0  0  0  0  0
  -27.4031  -21.3078   20.2260 C   0  0  0  0  0  0  0  0  0  0  0  0
  -22.8403   -5.5106   23.9716 C   0  0  0  0  0  0  0  0  0  0  0  0
  -25.1405  -12.0600   21.5855 C   0  0  0  0  0  0  0  0  0  0  0  0
  -25.1017  -13.8918   20.3697 C   0  0  0  0  0  0  0  0  0  0  0  0
  -22.8451  -13.1238   21.1222 C   0  0  0  0  0  0  0  0  0  0  0  0
  -24.5402  -31.0223   23.0554 C   0  0  0  0  0  0  0  0  0  0  0  0
  -21.9251  -30.6990   21.1636 C   0  0  0  0  0  0  0  0  0  0  0  0
  -20.4222  -29.1077   18.5453 C   0  0  0  0  0  0  0  0  0  0  0  0
  -29.7375  -16.9645   20.1024 C   0  0  0  0  0  0  0  0  0  0  0  0
  -26.4029  -34.4976   26.2974 C   0  0  0  0  0  0  0  0  0  0  0  0
  -25.5601  -31.1816   20.7553 C   0  0  0  0  0  0  0  0  0  0  0  0
  -23.6869  -28.9035   20.9700 C   0  0  0  0  0  0  0  0  0  0  0  0
  -25.0170  -34.1158   25.7838 C   0  0  0  0  0  0  0  0  0  0  0  0
  -30.0178  -13.5264   19.2205 C   0  0  0  0  0  0  0  0  0  0  0  0
  -24.8075  -32.6081   25.8830 C   0  0  0  0  0  0  0  0  0  0  0  0
  -28.7025  -12.9176   19.7120 C   0  0  0  0  0  0  0  0  0  0  0  0
  -30.5299  -14.6102   20.1675 C   0  0  0  0  0  0  0  0  0  0  0  0
  -28.2458  -15.0590   20.9741 C   0  0  0  0  0  0  0  0  0  0  0  0
  -25.8238  -31.8519   25.0188 C   0  0  1  0  0  0  0  0  0  0  0  0
  -24.2884  -31.2639   21.5939 C   0  0  1  0  0  0  0  0  0  0  0  0
  -27.6571  -14.0077   20.0192 C   0  0  2  0  0  0  0  0  0  0  0  0
  -18.2687  -29.0333   17.2590 C   0  0  0  0  0  0  0  0  0  0  0  0
  -20.6141  -29.1645   23.4520 C   0  0  0  0  0  0  0  0  0  0  0  0
  -18.9142  -28.3201   21.8193 C   0  0  0  0  0  0  0  0  0  0  0  0
  -19.1015  -30.7666   22.2688 C   0  0  0  0  0  0  0  0  0  0  0  0
  -21.7662  -29.8819   16.0247 C   0  0  0  0  0  0  0  0  0  0  0  0
  -28.7463  -25.6105   20.2018 C   0  0  0  0  0  0  0  0  0  1  0  0
  -28.8699  -24.1556   20.6114 C   0  0  0  0  0  0  0  0  0  0  0  0
  -20.9054  -29.6115   20.9258 C   0  0  1  0  0  0  0  0  0  0  0  0
  -19.6601  -29.6411   17.3456 C   0  0  2  0  0  0  0  0  0  0  0  0
  -19.9116  -29.4613   22.1120 C   0  0  0  0  0  0  0  0  0  0  0  0
  -26.4224  -12.2943   21.2925 N   0  0  0  0  0  0  0  0  0  0  0  0
  -26.3663  -13.4145   20.5522 N   0  0  0  0  0  0  0  0  0  0  0  0
  -23.2694  -30.3009   21.1713 N   0  0  0  0  0  0  0  0  0  0  0  0
  -29.4875  -15.6101   20.4090 N   0  0  0  0  0  0  0  0  0  0  0  0
  -24.8650  -15.0096   19.6508 N   0  0  0  0  0  0  0  0  0  0  0  0
  -22.1487  -12.1471   21.8471 N   0  0  0  0  0  0  0  0  0  0  0  0
  -28.6616  -17.8183   20.3436 N   0  0  0  0  0  0  0  0  0  0  0  0
  -25.4393  -31.9039   23.6245 N   0  0  0  0  0  0  0  0  0  0  0  0
  -20.2700  -29.9197   19.6493 N   0  0  0  0  0  0  0  0  0  0  0  0
  -20.3904  -29.3249   16.0856 N   0  3  0  0  0  0  0  0  0  0  0  0
  -22.2044  -14.0431   20.5584 O   0  0  0  0  0  0  0  0  0  0  0  0
  -23.9606  -30.1050   23.6248 O   0  0  0  0  0  0  0  0  0  0  0  0
  -21.5432  -31.8603   21.3291 O   0  0  0  0  0  0  0  0  0  0  0  0
  -21.0831  -28.0722   18.5079 O   0  0  0  0  0  0  0  0  0  0  0  0
  -30.8165  -17.3352   19.6331 O   0  0  0  0  0  0  0  0  0  0  0  0
  -23.7358   -7.6272   24.6908 O   0  0  0  0  0  0  0  0  0  0  0  0
  -27.3843  -25.8901   19.8808 O   0  0  0  0  0  0  0  0  0  1  0  0
  -28.4733  -23.3311   19.5223 O   0  0  0  0  0  0  0  0  0  0  0  0
  -19.4534   -4.5804   23.0226 F   0  0  0  0  0  0  0  0  0  0  0  0
  -30.7594  -21.9047   18.9476 F   0  0  0  0  0  0  0  0  0  0  0  0
  -26.2827  -21.9843   20.5139 F   0  0  0  0  0  0  0  0  0  0  0  0
  -24.0506   -4.9474   24.0890 F   0  0  0  0  0  0  0  0  0  0  0  0
  1  2  1  0  0  0  0
  1  5  2  0  0  0  0
  2  6  2  0  0  0  0
  3  8  2  0  0  0  0
  3 17  1  0  0  0  0
  4  9  1  0  0  0  0
  4 17  2  0  0  0  0
  5 19  1  0  0  0  0
  6 21  1  0  0  0  0
  7 10  2  0  0  0  0
  7 20  1  0  0  0  0
  8 24  1  0  0  0  0
  9 24  2  0  0  0  0
 10 25  1  0  0  0  0
 11 12  2  0  0  0  0
 11 26  1  0  0  0  0
 12 28  1  0  0  0  0
 13 22  1  0  0  0  0
 13 25  2  0  0  0  0
 14 23  1  0  0  0  0
 14 29  2  0  0  0  0
 15 23  2  0  0  0  0
 15 30  1  0  0  0  0
 16 28  2  0  0  0  0
 16 31  1  0  0  0  0
 17 32  1  0  0  0  0
 18 32  1  0  0  0  0
 18 33  2  0  0  0  0
 18 34  1  0  0  0  0
 19 21  2  0  0  0  0
 19 39  1  0  0  0  0
 20 22  2  0  0  0  0
 20 40  1  0  0  0  0
 21 48  1  0  0  0  0
 22 41  1  0  0  0  0
 23 67  1  0  0  0  0
 24 76  1  0  0  0  0
 25 77  1  0  0  0  0
 26 31  2  0  0  0  0
 26 76  1  0  0  0  0
 27 29  1  0  0  0  0
 27 30  2  0  0  0  0
 27 78  1  0  0  0  0
 28 79  1  0  0  0  0
 29 80  1  0  0  0  0
 30 81  1  0  0  0  0
 31 82  1  0  0  0  0
 32 61  2  0  0  0  0
 33 62  1  0  0  0  0
 33 65  1  0  0  0  0
 34 66  1  0  0  0  0
 34 71  2  0  0  0  0
 35 49  1  0  0  0  0
 35 68  1  0  0  0  0
 35 72  2  0  0  0  0
 36 58  1  0  0  0  0
 36 63  1  0  0  0  0
 36 73  2  0  0  0  0
 37 59  1  0  0  0  0
 37 69  1  0  0  0  0
 37 74  2  0  0  0  0
 38 64  1  0  0  0  0
 38 67  1  0  0  0  0
 38 75  2  0  0  0  0
 39 42  1  0  0  0  0
 40 49  1  0  0  0  0
 41 63  1  0  0  0  0
 42 44  1  0  0  0  0
 43 45  1  0  0  0  0
 43 46  1  0  0  0  0
 44 48  1  0  0  0  0
 45 50  1  0  0  0  0
 46 64  1  0  0  0  0
 47 50  1  0  0  0  0
 47 64  1  0  0  0  0
 48 68  1  0  0  0  0
 49 63  1  0  0  0  0
 50 62  1  0  0  0  0
 51 59  1  0  0  0  0
 52 60  1  0  0  0  0
 53 60  1  0  0  0  0
 54 60  1  0  0  0  0
 55 70  1  0  0  0  0
 56 57  1  0  0  0  0
 56 77  1  0  0  0  0
 57 78  1  0  0  0  0
 58 60  1  0  0  0  0
 58 69  1  0  0  0  0
 59 70  1  0  0  0  0
 61 62  1  0  0  0  0
M  CHG  1  70   1
M  ISO  4  38 100  56 101  67 100  77 101
M  END
> <Batch ID>
0008

> <Smiles>
CNC(C)C(=O)NC(C(=O)N1Cc2cc([101O:1][101CH2:1]COc3c(F)cc([100NH:0][100C:0](=O)N4CCCC(n5nc(-c6ccc(Oc7ccc(F)cc7F)cc6)c(C(N)=O)c5N)C4)cc3F)ccc2CC1C(=O)NC1CCCc2ccccc21)C(C)(C)C

> <Shape>
0.350

> <Color>
0.145

> <Negative vol penalty>
0.000

$$$$

  -OEChem-04052315363D

 84 92  0     1  0  0  0  0  0999 V2000
  -17.7561  -31.4876   20.0413 C   0  0  0  0  0  0  0  0  0  0  0  0
  -19.0536  -31.3568   19.5568 C   0  0  0  0  0  0  0  0  0  0  0  0
  -26.2613  -13.0192   19.4724 C   0  0  0  0  0  0  0  0  0  0  0  0
  -26.2411  -14.2626   21.5438 C   0  0  0  0  0  0  0  0  0  0  0  0
  -17.4971  -31.2956   21.3978 C   0  0  0  0  0  0  0  0  0  0  0  0
  -20.0931  -31.0348   20.4288 C   0  0  0  0  0  0  0  0  0  0  0  0
  -25.0011  -27.5869   19.1922 C   0  0  0  0  0  0  0  0  0  0  0  0
  -25.8071  -11.8865   20.1479 C   0  0  0  0  0  0  0  0  0  0  0  0
  -25.7870  -13.1299   22.2193 C   0  0  0  0  0  0  0  0  0  0  0  0
  -26.3125  -27.9112   18.8473 C   0  0  0  0  0  0  0  0  0  0  0  0
  -24.3086   -8.7680   21.2633 C   0  0  0  0  0  0  0  0  0  0  0  0
  -23.2801   -8.0313   20.6757 C   0  0  0  0  0  0  0  0  0  0  0  0
  -26.9678  -27.6934   21.1586 C   0  0  0  0  0  0  0  0  0  0  0  0
  -29.4775  -24.6522   18.8130 C   0  0  0  0  0  0  0  0  0  0  0  0
  -31.8299  -23.1967   18.4517 C   0  0  0  0  0  0  0  0  0  0  0  0
  -21.8432   -9.9718   20.7578 C   0  0  0  0  0  0  0  0  0  0  0  0
  -26.4783  -14.2073   20.1704 C   0  0  0  0  0  0  0  0  0  0  0  0
  -26.1643  -16.3770   18.8660 C   0  0  0  0  0  0  0  0  0  0  0  0
  -18.5323  -30.9616   22.2851 C   0  0  0  0  0  0  0  0  0  0  0  0
  -24.6605  -27.3237   20.5268 C   0  0  0  0  0  0  0  0  0  0  0  0
  -19.8479  -30.8394   21.7986 C   0  0  0  0  0  0  0  0  0  0  0  0
  -25.6520  -27.3635   21.5175 C   0  0  0  0  0  0  0  0  0  0  0  0
  -30.6616  -25.3113   18.4829 C   0  0  0  0  0  0  0  0  0  0  0  0
  -30.6458  -22.5376   18.7819 C   0  0  0  0  0  0  0  0  0  0  0  0
  -25.5700  -11.9418   21.5214 C   0  0  0  0  0  0  0  0  0  0  0  0
  -27.2955  -27.9674   19.8310 C   0  0  0  0  0  0  0  0  0  0  0  0
  -24.1043  -10.1066   21.5982 C   0  0  0  0  0  0  0  0  0  0  0  0
  -29.4696  -23.2653   18.9625 C   0  0  0  0  0  0  0  0  0  0  0  0
  -22.0475   -8.6332   20.4229 C   0  0  0  0  0  0  0  0  0  0  0  0
  -22.8716  -10.7085   21.3455 C   0  0  0  0  0  0  0  0  0  0  0  0
  -31.8378  -24.5836   18.3022 C   0  0  0  0  0  0  0  0  0  0  0  0
  -26.9480  -15.3776   19.4733 C   0  0  0  0  0  0  0  0  0  0  0  0
  -27.0779  -17.2606   18.3454 C   0  0  0  0  0  0  0  0  0  0  0  0
  -24.7381  -16.4960   18.7802 C   0  0  0  0  0  0  0  0  0  0  0  0
  -22.7085  -28.6609   22.6493 C   0  0  0  0  0  0  0  0  0  0  0  0
  -23.5540  -26.1035   24.4567 C   0  0  0  0  0  0  0  0  0  0  0  0
  -25.8358  -23.6552   25.1248 C   0  0  0  0  0  0  0  0  0  0  0  0
  -31.7421  -20.2695   18.7868 C   0  0  0  0  0  0  0  0  0  0  0  0
  -18.2113  -30.8102   23.7510 C   0  0  0  0  0  0  0  0  0  0  0  0
  -23.2468  -26.9491   20.8785 C   0  0  0  0  0  0  0  0  0  0  0  0
  -25.3421  -27.0694   22.9618 C   0  0  0  0  0  0  0  0  0  0  0  0
  -19.3071  -30.1032   24.5446 C   0  0  0  0  0  0  0  0  0  0  0  0
  -32.0941  -16.8688   17.7925 C   0  0  0  0  0  0  0  0  0  0  0  0
  -20.6759  -30.6776   24.1932 C   0  0  0  0  0  0  0  0  0  0  0  0
  -30.7222  -16.2599   18.0912 C   0  0  0  0  0  0  0  0  0  0  0  0
  -32.4966  -17.9025   18.8428 C   0  0  0  0  0  0  0  0  0  0  0  0
  -30.1352  -18.3515   19.3825 C   0  0  0  0  0  0  0  0  0  0  0  0
  -20.9980  -30.4669   22.7088 C   0  0  1  0  0  0  0  0  0  0  0  0
  -22.9084  -27.2033   22.3442 C   0  0  1  0  0  0  0  0  0  0  0  0
  -29.6580  -17.3518   18.3165 C   0  0  2  0  0  0  0  0  0  0  0  0
  -26.2684  -21.7384   26.6855 C   0  0  0  0  0  0  0  0  0  0  0  0
  -24.3301  -28.0718   26.6552 C   0  0  0  0  0  0  0  0  0  0  0  0
  -25.6048  -26.2238   27.7634 C   0  0  0  0  0  0  0  0  0  0  0  0
  -23.1367  -26.0266   27.4598 C   0  0  0  0  0  0  0  0  0  0  0  0
  -30.3560  -27.3052   17.0369 C   0  0  0  0  0  0  0  0  0  0  0  0
  -25.8550  -21.6996   22.9035 C   0  0  0  0  0  0  0  0  0  0  0  0
  -27.1509  -23.4663   19.4514 C   0  0  0  0  0  0  0  0  0  0  0  0
  -30.8768  -27.5800   19.4662 C   0  0  0  0  0  0  0  0  0  0  0  0
  -29.6143  -27.7233   20.2996 C   0  0  0  0  0  0  0  0  0  1  0  0
  -24.6540  -25.8122   25.4488 C   0  0  1  0  0  0  0  0  0  0  0  0
  -25.6748  -22.1628   25.3513 C   0  0  2  0  0  0  0  0  0  0  0  0
  -24.4372  -26.5411   26.8050 C   0  0  0  0  0  0  0  0  0  0  0  0
  -28.2585  -15.6043   19.3505 N   0  0  0  0  0  0  0  0  0  0  0  0
  -28.3054  -16.7563   18.6600 N   0  0  0  0  0  0  0  0  0  0  0  0
  -23.9441  -26.7142   23.2565 N   0  0  0  0  0  0  0  0  0  0  0  0
  -31.4426  -18.9072   18.9993 N   0  0  0  0  0  0  0  0  0  0  0  0
  -26.9429  -18.4121   17.6538 N   0  0  0  0  0  0  0  0  0  0  0  0
  -23.9478  -15.4998   19.3696 N   0  0  0  0  0  0  0  0  0  0  0  0
  -30.6534  -21.1287   18.9322 N   0  0  0  0  0  0  0  0  0  0  0  0
  -21.4107  -29.1004   22.4702 N   0  0  0  0  0  0  0  0  0  0  0  0
  -24.7319  -24.3594   25.5570 N   0  0  0  0  0  0  0  0  0  0  0  0
  -30.6387  -26.7051   18.3411 N   0  0  3  0  0  0  0  0  0  0  0  0
  -26.3565  -21.3981   24.2690 N   0  3  0  0  0  0  0  0  0  0  0  0
  -24.1811  -17.4487   18.1839 O   0  0  0  0  0  0  0  0  0  0  0  0
  -23.6609  -29.3365   23.0212 O   0  0  0  0  0  0  0  0  0  0  0  0
  -22.3925  -25.7938   24.7334 O   0  0  0  0  0  0  0  0  0  0  0  0
  -26.8419  -24.1474   24.6187 O   0  0  0  0  0  0  0  0  0  0  0  0
  -32.8744  -20.6433   18.4705 O   0  0  0  0  0  0  0  0  0  0  0  0
  -25.1266  -10.8368   22.1808 O   0  0  0  0  0  0  0  0  0  0  0  0
  -28.3020  -22.6411   19.2868 O   0  0  0  0  0  0  0  0  0  0  0  0
  -28.5761  -28.2843   19.4972 O   0  0  0  0  0  0  0  0  0  1  0  0
  -21.0605   -7.9261   19.8573 F   0  0  0  0  0  0  0  0  0  0  0  0
  -22.6699  -11.9944   21.6639 F   0  0  0  0  0  0  0  0  0  0  0  0
  -33.3253  -25.3603   17.8915 Cl  0  0  0  0  0  0  0  0  0  0  0  0
  1  2  1  0  0  0  0
  1  5  2  0  0  0  0
  2  6  2  0  0  0  0
  3  8  2  0  0  0  0
  3 17  1  0  0  0  0
  4  9  1  0  0  0  0
  4 17  2  0  0  0  0
  5 19  1  0  0  0  0
  6 21  1  0  0  0  0
  7 10  2  0  0  0  0
  7 20  1  0  0  0  0
  8 25  1  0  0  0  0
  9 25  2  0  0  0  0
 10 26  1  0  0  0  0
 11 12  2  0  0  0  0
 11 27  1  0  0  0  0
 12 29  1  0  0  0  0
 13 22  1  0  0  0  0
 13 26  2  0  0  0  0
 14 23  1  0  0  0  0
 14 28  2  0  0  0  0
 15 24  2  0  0  0  0
 15 31  1  0  0  0  0
 16 29  2  0  0  0  0
 16 30  1  0  0  0  0
 17 32  1  0  0  0  0
 18 32  1  0  0  0  0
 18 33  2  0  0  0  0
 18 34  1  0  0  0  0
 19 21  2  0  0  0  0
 19 39  1  0  0  0  0
 20 22  2  0  0  0  0
 20 40  1  0  0  0  0
 21 48  1  0  0  0  0
 22 41  1  0  0  0  0
 23 31  2  0  0  0  0
 23 72  1  0  0  0  0
 24 28  1  0  0  0  0
 24 69  1  0  0  0  0
 25 79  1  0  0  0  0
 26 81  1  0  0  0  0
 27 30  2  0  0  0  0
 27 79  1  0  0  0  0
 28 80  1  0  0  0  0
 29 82  1  0  0  0  0
 30 83  1  0  0  0  0
 31 84  1  0  0  0  0
 32 63  2  0  0  0  0
 33 64  1  0  0  0  0
 33 67  1  0  0  0  0
 34 68  1  0  0  0  0
 34 74  2  0  0  0  0
 35 49  1  0  0  0  0
 35 70  1  0  0  0  0
 35 75  2  0  0  0  0
 36 60  1  0  0  0  0
 36 65  1  0  0  0  0
 36 76  2  0  0  0  0
 37 61  1  0  0  0  0
 37 71  1  0  0  0  0
 37 77  2  0  0  0  0
 38 66  1  0  0  0  0
 38 69  1  0  0  0  0
 38 78  2  0  0  0  0
 39 42  1  0  0  0  0
 40 49  1  0  0  0  0
 41 65  1  0  0  0  0
 42 44  1  0  0  0  0
 43 45  1  0  0  0  0
 43 46  1  0  0  0  0
 44 48  1  0  0  0  0
 45 50  1  0  0  0  0
 46 66  1  0  0  0  0
 47 50  1  0  0  0  0
 47 66  1  0  0  0  0
 48 70  1  0  0  0  0
 49 65  1  0  0  0  0
 50 64  1  0  0  0  0
 51 61  1  0  0  0  0
 52 62  1  0  0  0  0
 53 62  1  0  0  0  0
 54 62  1  0  0  0  0
 55 72  1  0  0  0  0
 56 73  1  0  0  0  0
 57 80  1  0  0  0  0
 58 59  1  0  0  0  0
 58 72  1  0  0  0  0
 59 81  1  0  0  0  0
 60 62  1  0  0  0  0
 60 71  1  0  0  0  0
 61 73  1  0  0  0  0
 63 64  1  0  0  0  0
M  CHG  1  73   1
M  ISO  4  38 100  59 101  69 100  81 101
M  END
> <Batch ID>
0008

> <Smiles>
CNC(C)C(=O)NC(C(=O)N1Cc2cc([101O:1][101CH2:1]CN(C)c3cc(OC)c([100NH:0][100C:0](=O)N4CCCC(n5nc(-c6ccc(Oc7ccc(F)cc7F)cc6)c(C(N)=O)c5N)C4)cc3Cl)ccc2CC1C(=O)NC1CCCc2ccccc21)C(C)(C)C

> <Shape>
0.214

> <Color>
0.084

> <Negative vol penalty>
0.000

$$$$

  -OEChem-04052315363D

 86 94  0     1  0  0  0  0  0999 V2000
  -25.5531  -36.0441   15.5307 C   0  0  0  0  0  0  0  0  0  0  0  0
  -25.9968  -34.7323   15.6633 C   0  0  0  0  0  0  0  0  0  0  0  0
  -24.3111   -9.3179   21.1504 C   0  0  0  0  0  0  0  0  0  0  0  0
  -25.2877  -10.0560   23.2333 C   0  0  0  0  0  0  0  0  0  0  0  0
  -25.4362  -36.8565   16.6578 C   0  0  0  0  0  0  0  0  0  0  0  0
  -26.3250  -34.2323   16.9230 C   0  0  0  0  0  0  0  0  0  0  0  0
  -25.5130  -28.5062   18.9373 C   0  0  0  0  0  0  0  0  0  0  0  0
  -24.0340   -8.0754   21.7206 C   0  0  0  0  0  0  0  0  0  0  0  0
  -25.0106   -8.8136   23.8036 C   0  0  0  0  0  0  0  0  0  0  0  0
  -26.3769  -27.4168   19.0404 C   0  0  0  0  0  0  0  0  0  0  0  0
  -21.7183   -6.7482   23.7965 C   0  0  0  0  0  0  0  0  0  0  0  0
  -20.4561   -6.1989   23.5718 C   0  0  0  0  0  0  0  0  0  0  0  0
  -26.7966  -27.9757   21.3492 C   0  0  0  0  0  0  0  0  0  0  0  0
  -27.8140  -20.2465   18.6844 C   0  0  0  0  0  0  0  0  0  0  0  0
  -28.7792  -20.8732   20.8087 C   0  0  0  0  0  0  0  0  0  0  0  0
  -21.4784   -4.2827   22.5133 C   0  0  0  0  0  0  0  0  0  0  0  0
  -24.9381  -10.3082   21.9067 C   0  0  0  0  0  0  0  0  0  0  0  0
  -24.3927  -12.7268   21.3063 C   0  0  0  0  0  0  0  0  0  0  0  0
  -25.7539  -36.3633   17.9332 C   0  0  0  0  0  0  0  0  0  0  0  0
  -25.2925  -29.3464   20.0382 C   0  0  0  0  0  0  0  0  0  0  0  0
  -26.2135  -35.0393   18.0680 C   0  0  0  0  0  0  0  0  0  0  0  0
  -25.9275  -29.0736   21.2582 C   0  0  0  0  0  0  0  0  0  0  0  0
  -28.1221  -18.9101   18.9387 C   0  0  0  0  0  0  0  0  0  0  0  0
  -29.0873  -19.5367   21.0630 C   0  0  0  0  0  0  0  0  0  0  0  0
  -28.1426  -21.2281   19.6195 C   0  0  0  0  0  0  0  0  0  0  0  0
  -28.7587  -18.5552   20.1279 C   0  0  0  0  0  0  0  0  0  0  0  0
  -24.3837   -7.8233   23.0472 C   0  0  0  0  0  0  0  0  0  0  0  0
  -27.0210  -27.1530   20.2456 C   0  0  0  0  0  0  0  0  0  0  0  0
  -22.8607   -6.0648   23.3795 C   0  0  0  0  0  0  0  0  0  0  0  0
  -20.3361   -4.9661   22.9302 C   0  0  0  0  0  0  0  0  0  0  0  0
  -22.7407   -4.8321   22.7380 C   0  0  0  0  0  0  0  0  0  0  0  0
  -25.2251  -11.5916   21.3181 C   0  0  0  0  0  0  0  0  0  0  0  0
  -25.1179  -13.6774   20.6303 C   0  0  0  0  0  0  0  0  0  0  0  0
  -23.0812  -12.9060   21.8572 C   0  0  0  0  0  0  0  0  0  0  0  0
  -25.7948  -32.4256   20.6460 C   0  0  0  0  0  0  0  0  0  0  0  0
  -24.2070  -31.7420   23.3908 C   0  0  0  0  0  0  0  0  0  0  0  0
  -28.0850  -23.6818   20.1761 C   0  0  0  0  0  0  0  0  0  0  0  0
  -23.2540  -29.3965   25.6793 C   0  0  0  0  0  0  0  0  0  0  0  0
  -29.8927  -16.3614   19.6304 C   0  0  0  0  0  0  0  0  0  0  0  0
  -25.6568  -37.2937   19.1162 C   0  0  0  0  0  0  0  0  0  0  0  0
  -24.3370  -30.5018   19.9183 C   0  0  0  0  0  0  0  0  0  0  0  0
  -25.7089  -29.9332   22.4755 C   0  0  0  0  0  0  0  0  0  0  0  0
  -25.6672  -36.5719   20.4612 C   0  0  0  0  0  0  0  0  0  0  0  0
  -29.3869  -13.2680   17.9416 C   0  0  0  0  0  0  0  0  0  0  0  0
  -26.7750  -35.5238   20.4961 C   0  0  0  0  0  0  0  0  0  0  0  0
  -28.1906  -12.6494   18.6685 C   0  0  0  0  0  0  0  0  0  0  0  0
  -30.3057  -14.0220   18.9012 C   0  0  0  0  0  0  0  0  0  0  0  0
  -28.4422  -14.4084   20.4656 C   0  0  0  0  0  0  0  0  0  0  0  0
  -26.5555  -34.4531   19.4206 C   0  0  1  0  0  0  0  0  0  0  0  0
  -24.5841  -31.5917   20.9568 C   0  0  1  0  0  0  0  0  0  0  0  0
  -27.4536  -13.6934   19.5302 C   0  0  2  0  0  0  0  0  0  0  0  0
  -27.7585  -17.8813   17.9173 C   0  0  0  0  0  0  0  0  0  0  0  0
  -21.9943  -29.1456   27.8351 C   0  0  0  0  0  0  0  0  0  0  0  0
  -30.0238  -20.4580   23.2124 C   0  0  0  0  0  0  0  0  0  0  0  0
  -31.1486  -18.5093   22.0839 C   0  0  0  0  0  0  0  0  0  0  0  0
  -28.9864  -18.1993   23.2713 C   0  0  0  0  0  0  0  0  0  0  0  0
  -26.5702  -32.9353   24.9078 C   0  0  0  0  0  0  0  0  0  0  0  0
  -25.7145  -31.8193   26.9791 C   0  0  0  0  0  0  0  0  0  0  0  0
  -24.3256  -33.5426   25.8285 C   0  0  0  0  0  0  0  0  0  0  0  0
  -21.2786  -27.5695   24.4469 C   0  0  0  0  0  0  0  0  0  0  0  0
  -27.5890  -24.9592   19.5243 C   0  0  0  0  0  0  0  0  0  1  0  0
  -24.6062  -31.2654   24.7665 C   0  0  1  0  0  0  0  0  0  0  0  0
  -21.9089  -29.1001   26.3174 C   0  0  2  0  0  0  0  0  0  0  0  0
  -29.7693  -19.1870   22.3462 C   0  0  0  0  0  0  0  0  0  0  0  0
  -25.3100  -32.3754   25.5972 C   0  0  0  0  0  0  0  0  0  0  0  0
  -26.3900  -11.7999   20.6986 N   0  0  0  0  0  0  0  0  0  0  0  0
  -26.2947  -13.0771   20.2912 N   0  0  0  0  0  0  0  0  0  0  0  0
  -24.7704  -31.0548   22.3063 N   0  0  0  0  0  0  0  0  0  0  0  0
  -29.5392  -14.9964   19.6809 N   0  0  0  0  0  0  0  0  0  0  0  0
  -24.8573  -14.9598   20.2988 N   0  0  0  0  0  0  0  0  0  0  0  0
  -22.4817  -11.8264   22.5200 N   0  0  0  0  0  0  0  0  0  0  0  0
  -27.8307  -22.5840   19.3611 N   0  0  0  0  0  0  0  0  0  0  0  0
  -29.0723  -17.1978   20.3866 N   0  0  0  0  0  0  0  0  0  0  0  0
  -25.5342  -33.5173   19.8400 N   0  0  0  0  0  0  0  0  0  0  0  0
  -23.3944  -30.7357   25.3825 N   0  0  0  0  0  0  0  0  0  0  0  0
  -21.4310  -27.7474   25.9139 N   0  3  0  0  0  0  0  0  0  0  0  0
  -22.4526  -13.9862   21.7501 O   0  0  0  0  0  0  0  0  0  0  0  0
  -26.8844  -32.1033   21.1049 O   0  0  0  0  0  0  0  0  0  0  0  0
  -23.4186  -32.6846   23.2825 O   0  0  0  0  0  0  0  0  0  0  0  0
  -28.6278  -23.6907   21.2761 O   0  0  0  0  0  0  0  0  0  0  0  0
  -24.0974  -28.5277   25.4688 O   0  0  0  0  0  0  0  0  0  0  0  0
  -30.8358  -16.7625   18.9436 O   0  0  0  0  0  0  0  0  0  0  0  0
  -24.1132   -6.6112   23.6041 O   0  0  0  0  0  0  0  0  0  0  0  0
  -27.8653  -26.0907   20.3487 O   0  0  0  0  0  0  0  0  0  1  0  0
  -19.1239   -4.4380   22.7159 F   0  0  0  0  0  0  0  0  0  0  0  0
  -23.8345   -4.1703   22.3363 F   0  0  0  0  0  0  0  0  0  0  0  0
  1  2  1  0  0  0  0
  1  5  2  0  0  0  0
  2  6  2  0  0  0  0
  3  8  2  0  0  0  0
  3 17  1  0  0  0  0
  4  9  1  0  0  0  0
  4 17  2  0  0  0  0
  5 19  1  0  0  0  0
  6 21  1  0  0  0  0
  7 10  2  0  0  0  0
  7 20  1  0  0  0  0
  8 27  1  0  0  0  0
  9 27  2  0  0  0  0
 10 28  1  0  0  0  0
 11 12  2  0  0  0  0
 11 29  1  0  0  0  0
 12 30  1  0  0  0  0
 13 22  1  0  0  0  0
 13 28  2  0  0  0  0
 14 23  2  0  0  0  0
 14 25  1  0  0  0  0
 15 24  1  0  0  0  0
 15 25  2  0  0  0  0
 16 30  2  0  0  0  0
 16 31  1  0  0  0  0
 17 32  1  0  0  0  0
 18 32  1  0  0  0  0
 18 33  2  0  0  0  0
 18 34  1  0  0  0  0
 19 21  2  0  0  0  0
 19 40  1  0  0  0  0
 20 22  2  0  0  0  0
 20 41  1  0  0  0  0
 21 49  1  0  0  0  0
 22 42  1  0  0  0  0
 23 26  1  0  0  0  0
 23 52  1  0  0  0  0
 24 26  2  0  0  0  0
 24 64  1  0  0  0  0
 25 72  1  0  0  0  0
 26 73  1  0  0  0  0
 27 83  1  0  0  0  0
 28 84  1  0  0  0  0
 29 31  2  0  0  0  0
 29 83  1  0  0  0  0
 30 85  1  0  0  0  0
 31 86  1  0  0  0  0
 32 66  2  0  0  0  0
 33 67  1  0  0  0  0
 33 70  1  0  0  0  0
 34 71  1  0  0  0  0
 34 77  2  0  0  0  0
 35 50  1  0  0  0  0
 35 74  1  0  0  0  0
 35 78  2  0  0  0  0
 36 62  1  0  0  0  0
 36 68  1  0  0  0  0
 36 79  2  0  0  0  0
 37 61  1  0  0  0  0
 37 72  1  0  0  0  0
 37 80  2  0  0  0  0
 38 63  1  0  0  0  0
 38 75  1  0  0  0  0
 38 81  2  0  0  0  0
 39 69  1  0  0  0  0
 39 73  1  0  0  0  0
 39 82  2  0  0  0  0
 40 43  1  0  0  0  0
 41 50  1  0  0  0  0
 42 68  1  0  0  0  0
 43 45  1  0  0  0  0
 44 46  1  0  0  0  0
 44 47  1  0  0  0  0
 45 49  1  0  0  0  0
 46 51  1  0  0  0  0
 47 69  1  0  0  0  0
 48 51  1  0  0  0  0
 48 69  1  0  0  0  0
 49 74  1  0  0  0  0
 50 68  1  0  0  0  0
 51 67  1  0  0  0  0
 53 63  1  0  0  0  0
 54 64  1  0  0  0  0
 55 64  1  0  0  0  0
 56 64  1  0  0  0  0
 57 65  1  0  0  0  0
 58 65  1  0  0  0  0
 59 65  1  0  0  0  0
 60 76  1  0  0  0  0
 61 84  1  0  0  0  0
 62 65  1  0  0  0  0
 62 75  1  0  0  0  0
 63 76  1  0  0  0  0
 66 67  1  0  0  0  0
M  CHG  1  76   1
M  ISO  4  39 100  61 101  73 100  84 101
M  END
> <Batch ID>
0008

> <Smiles>
CNC(C)C(=O)NC(C(=O)N1Cc2cc([101O:1][101CH2:1]C(=O)Nc3cc(C)c([100NH:0][100C:0](=O)N4CCCC(n5nc(-c6ccc(Oc7ccc(F)cc7F)cc6)c(C(N)=O)c5N)C4)c(C(C)(C)C)c3)ccc2CC1C(=O)NC1CCCc2ccccc21)C(C)(C)C

> <Shape>
0.311

> <Color>
0.153

> <Negative vol penalty>
0.000

$$$$

  -OEChem-04052315363D

 85 93  0     1  0  0  0  0  0999 V2000
  -23.6351  -30.8047   20.2921 C   0  0  0  0  0  0  0  0  0  0  0  0
  -23.7982  -29.4302   20.4316 C   0  0  0  0  0  0  0  0  0  0  0  0
  -22.9671   -9.8606   20.0459 C   0  0  0  0  0  0  0  0  0  0  0  0
  -23.6148  -10.0622   22.3647 C   0  0  0  0  0  0  0  0  0  0  0  0
  -24.3852  -31.6779   21.0787 C   0  0  0  0  0  0  0  0  0  0  0  0
  -24.7122  -28.9280   21.3572 C   0  0  0  0  0  0  0  0  0  0  0  0
  -24.1650  -23.8015   24.6626 C   0  0  0  0  0  0  0  0  0  0  0  0
  -22.1719   -8.7597   20.3638 C   0  0  0  0  0  0  0  0  0  0  0  0
  -22.8195   -8.9613   22.6826 C   0  0  0  0  0  0  0  0  0  0  0  0
  -24.6791  -22.5167   24.4929 C   0  0  0  0  0  0  0  0  0  0  0  0
  -23.0198   -5.5941   22.4536 C   0  0  0  0  0  0  0  0  0  0  0  0
  -23.5633   -4.6233   23.2949 C   0  0  0  0  0  0  0  0  0  0  0  0
  -26.5061  -23.0589   25.9718 C   0  0  0  0  0  0  0  0  0  0  0  0
  -31.8199  -18.4457   23.9436 C   0  0  0  0  0  0  0  0  0  0  0  0
  -32.0494  -16.5422   22.4736 C   0  0  0  0  0  0  0  0  0  0  0  0
  -29.8703  -17.5078   22.8683 C   0  0  0  0  0  0  0  0  0  0  0  0
  -21.7884   -5.0101   24.8878 C   0  0  0  0  0  0  0  0  0  0  0  0
  -23.6887  -10.5119   21.0464 C   0  0  0  0  0  0  0  0  0  0  0  0
  -24.1247  -13.0026   20.7089 C   0  0  0  0  0  0  0  0  0  0  0  0
  -25.3019  -31.1861   22.0213 C   0  0  0  0  0  0  0  0  0  0  0  0
  -24.8247  -24.7297   25.4809 C   0  0  0  0  0  0  0  0  0  0  0  0
  -25.4762  -29.7955   22.1563 C   0  0  0  0  0  0  0  0  0  0  0  0
  -25.9970  -24.3540   26.1523 C   0  0  0  0  0  0  0  0  0  0  0  0
  -32.6228  -17.4893   23.3221 C   0  0  0  0  0  0  0  0  0  0  0  0
  -30.4436  -18.4549   23.7168 C   0  0  0  0  0  0  0  0  0  0  0  0
  -30.6731  -16.5514   22.2467 C   0  0  0  0  0  0  0  0  0  0  0  0
  -22.0980   -8.3100   21.6821 C   0  0  0  0  0  0  0  0  0  0  0  0
  -25.8513  -22.1461   25.1453 C   0  0  0  0  0  0  0  0  0  0  0  0
  -21.8607   -6.2729   22.8294 C   0  0  0  0  0  0  0  0  0  0  0  0
  -22.9476   -4.3313   24.5120 C   0  0  0  0  0  0  0  0  0  0  0  0
  -21.2450   -5.9809   24.0465 C   0  0  0  0  0  0  0  0  0  0  0  0
  -24.5108  -11.6488   20.7186 C   0  0  0  0  0  0  0  0  0  0  0  0
  -25.2589  -13.6805   20.3341 C   0  0  0  0  0  0  0  0  0  0  0  0
  -22.8544  -13.5944   21.0119 C   0  0  0  0  0  0  0  0  0  0  0  0
  -26.1892  -27.5620   25.0122 C   0  0  0  0  0  0  0  0  0  0  0  0
  -26.4814  -27.5201   28.2426 C   0  0  0  0  0  0  0  0  0  0  0  0
  -28.2518  -19.5779   24.2352 C   0  0  0  0  0  0  0  0  0  0  0  0
  -26.6600  -25.6810   31.1118 C   0  0  0  0  0  0  0  0  0  0  0  0
  -30.7437  -14.5706   20.6918 C   0  0  0  0  0  0  0  0  0  0  0  0
  -26.1244  -32.1695   22.8157 C   0  0  0  0  0  0  0  0  0  0  0  0
  -24.2428  -26.1031   25.6747 C   0  0  0  0  0  0  0  0  0  0  0  0
  -26.7322  -25.3067   27.0580 C   0  0  0  0  0  0  0  0  0  0  0  0
  -26.8003  -31.5517   24.0370 C   0  0  0  0  0  0  0  0  0  0  0  0
  -29.6609  -11.9778   18.5050 C   0  0  0  0  0  0  0  0  0  0  0  0
  -27.4700  -30.2323   23.6662 C   0  0  0  0  0  0  0  0  0  0  0  0
  -28.1928  -11.7725   18.8851 C   0  0  0  0  0  0  0  0  0  0  0  0
  -30.5242  -12.2917   19.7256 C   0  0  0  0  0  0  0  0  0  0  0  0
  -28.5794  -13.2020   20.9331 C   0  0  0  0  0  0  0  0  0  0  0  0
  -26.4399  -29.2120   23.1668 C   0  0  1  0  0  0  0  0  0  0  0  0
  -25.2757  -27.1316   26.1248 C   0  0  1  0  0  0  0  0  0  0  0  0
  -27.6592  -12.9474   19.7280 C   0  0  2  0  0  0  0  0  0  0  0  0
  -26.9365  -25.9250   33.5940 C   0  0  0  0  0  0  0  0  0  0  0  0
  -29.4587  -28.0637   27.8551 C   0  0  0  0  0  0  0  0  0  0  0  0
  -29.8251  -27.3596   30.2296 C   0  0  0  0  0  0  0  0  0  0  0  0
  -28.3993  -29.3432   29.7246 C   0  0  0  0  0  0  0  0  0  0  0  0
  -24.0286  -24.4357   31.6442 C   0  0  0  0  0  0  0  0  0  0  0  0
  -27.7715  -20.7446   25.0783 C   0  0  0  0  0  0  0  0  0  1  0  0
  -27.5249  -27.0263   29.2153 C   0  0  1  0  0  0  0  0  0  0  0  0
  -25.9465  -25.8214   32.4443 C   0  0  2  0  0  0  0  0  0  0  0  0
  -34.0943  -17.4790   23.5661 C   0  0  0  0  0  0  0  0  0  0  0  0
  -28.7895  -27.9306   29.2377 C   0  0  0  0  0  0  0  0  0  0  0  0
  -25.7903  -11.4751   20.3768 N   0  0  0  0  0  0  0  0  0  0  0  0
  -26.2180  -12.7286   20.1488 N   0  0  0  0  0  0  0  0  0  0  0  0
  -26.1269  -26.6401   27.2102 N   0  0  0  0  0  0  0  0  0  0  0  0
  -29.9601  -13.4178   20.4729 N   0  0  0  0  0  0  0  0  0  0  0  0
  -25.5194  -14.9919   20.1480 N   0  0  0  0  0  0  0  0  0  0  0  0
  -21.7959  -12.7527   21.3799 N   0  0  0  0  0  0  0  0  0  0  0  0
  -29.6295  -19.4253   24.3477 N   0  0  0  0  0  0  0  0  0  0  0  0
  -30.0905  -15.5885   21.3859 N   0  0  0  0  0  0  0  0  0  0  0  0
  -25.7181  -28.6357   24.2810 N   0  0  0  0  0  0  0  0  0  0  0  0
  -26.8549  -26.9040   30.5055 N   0  0  0  0  0  0  0  0  0  0  0  0
  -25.0660  -24.6438   32.6870 N   0  3  0  0  0  0  0  0  0  0  0  0
  -22.6592  -14.8315   20.9418 O   0  0  0  0  0  0  0  0  0  0  0  0
  -27.2441  -26.9652   24.8316 O   0  0  0  0  0  0  0  0  0  0  0  0
  -25.9935  -28.6424   28.3973 O   0  0  0  0  0  0  0  0  0  0  0  0
  -27.4736  -18.9036   23.5687 O   0  0  0  0  0  0  0  0  0  0  0  0
  -27.0129  -24.5954   30.6563 O   0  0  0  0  0  0  0  0  0  0  0  0
  -31.8994  -14.6596   20.2693 O   0  0  0  0  0  0  0  0  0  0  0  0
  -21.3219   -7.2359   21.9927 O   0  0  0  0  0  0  0  0  0  0  0  0
  -26.3556  -20.8929   24.9809 O   0  0  0  0  0  0  0  0  0  1  0  0
  -23.4688   -3.3979   25.3191 F   0  0  0  0  0  0  0  0  0  0  0  0
  -20.1305   -6.6290   24.4124 F   0  0  0  0  0  0  0  0  0  0  0  0
  -34.5148  -18.4608   24.4174 F   0  0  0  0  0  0  0  0  0  0  0  0
  -34.5493  -16.3136   24.1140 F   0  0  0  0  0  0  0  0  0  0  0  0
  -34.8173  -17.6524   22.4216 F   0  0  0  0  0  0  0  0  0  0  0  0
  1  2  1  0  0  0  0
  1  5  2  0  0  0  0
  2  6  2  0  0  0  0
  3  8  2  0  0  0  0
  3 18  1  0  0  0  0
  4  9  1  0  0  0  0
  4 18  2  0  0  0  0
  5 20  1  0  0  0  0
  6 22  1  0  0  0  0
  7 10  2  0  0  0  0
  7 21  1  0  0  0  0
  8 27  1  0  0  0  0
  9 27  2  0  0  0  0
 10 28  1  0  0  0  0
 11 12  2  0  0  0  0
 11 29  1  0  0  0  0
 12 30  1  0  0  0  0
 13 23  1  0  0  0  0
 13 28  2  0  0  0  0
 14 24  1  0  0  0  0
 14 25  2  0  0  0  0
 15 24  2  0  0  0  0
 15 26  1  0  0  0  0
 16 25  1  0  0  0  0
 16 26  2  0  0  0  0
 17 30  2  0  0  0  0
 17 31  1  0  0  0  0
 18 32  1  0  0  0  0
 19 32  1  0  0  0  0
 19 33  2  0  0  0  0
 19 34  1  0  0  0  0
 20 22  2  0  0  0  0
 20 40  1  0  0  0  0
 21 23  2  0  0  0  0
 21 41  1  0  0  0  0
 22 49  1  0  0  0  0
 23 42  1  0  0  0  0
 24 60  1  0  0  0  0
 25 68  1  0  0  0  0
 26 69  1  0  0  0  0
 27 79  1  0  0  0  0
 28 80  1  0  0  0  0
 29 31  2  0  0  0  0
 29 79  1  0  0  0  0
 30 81  1  0  0  0  0
 31 82  1  0  0  0  0
 32 62  2  0  0  0  0
 33 63  1  0  0  0  0
 33 66  1  0  0  0  0
 34 67  1  0  0  0  0
 34 73  2  0  0  0  0
 35 50  1  0  0  0  0
 35 70  1  0  0  0  0
 35 74  2  0  0  0  0
 36 58  1  0  0  0  0
 36 64  1  0  0  0  0
 36 75  2  0  0  0  0
 37 57  1  0  0  0  0
 37 68  1  0  0  0  0
 37 76  2  0  0  0  0
 38 59  1  0  0  0  0
 38 71  1  0  0  0  0
 38 77  2  0  0  0  0
 39 65  1  0  0  0  0
 39 69  1  0  0  0  0
 39 78  2  0  0  0  0
 40 43  1  0  0  0  0
 41 50  1  0  0  0  0
 42 64  1  0  0  0  0
 43 45  1  0  0  0  0
 44 46  1  0  0  0  0
 44 47  1  0  0  0  0
 45 49  1  0  0  0  0
 46 51  1  0  0  0  0
 47 65  1  0  0  0  0
 48 51  1  0  0  0  0
 48 65  1  0  0  0  0
 49 70  1  0  0  0  0
 50 64  1  0  0  0  0
 51 63  1  0  0  0  0
 52 59  1  0  0  0  0
 53 61  1  0  0  0  0
 54 61  1  0  0  0  0
 55 61  1  0  0  0  0
 56 72  1  0  0  0  0
 57 80  1  0  0  0  0
 58 61  1  0  0  0  0
 58 71  1  0  0  0  0
 59 72  1  0  0  0  0
 60 83  1  0  0  0  0
 60 84  1  0  0  0  0
 60 85  1  0  0  0  0
 62 63  1  0  0  0  0
M  CHG  1  72   1
M  ISO  4  39 100  57 101  69 100  80 101
M  END
> <Batch ID>
0008

> <Smiles>
CNC(C)C(=O)NC(C(=O)N1Cc2cc([101O:1][101CH2:1]C(=O)Nc3cc([100NH:0][100C:0](=O)N4CCCC(n5nc(-c6ccc(Oc7ccc(F)cc7F)cc6)c(C(N)=O)c5N)C4)cc(C(F)(F)F)c3)ccc2CC1C(=O)NC1CCCc2ccccc21)C(C)(C)C

> <Shape>
0.236

> <Color>
0.213

> <Negative vol penalty>
0.000

$$$$

  -OEChem-04052315363D

 84 92  0     1  0  0  0  0  0999 V2000
  -18.7985  -26.7218   20.4996 C   0  0  0  0  0  0  0  0  0  0  0  0
  -19.4881  -26.5683   21.6980 C   0  0  0  0  0  0  0  0  0  0  0  0
  -23.1160   -9.8042   20.0249 C   0  0  0  0  0  0  0  0  0  0  0  0
  -23.8449   -9.9408   22.3243 C   0  0  0  0  0  0  0  0  0  0  0  0
  -19.2723  -26.1085   19.3405 C   0  0  0  0  0  0  0  0  0  0  0  0
  -20.6515  -25.8005   21.7383 C   0  0  0  0  0  0  0  0  0  0  0  0
  -26.9817  -25.4277   25.0709 C   0  0  0  0  0  0  0  0  0  0  0  0
  -31.3143  -19.2867   21.1714 C   0  0  0  0  0  0  0  0  0  0  0  0
  -31.4211  -19.6002   22.5263 C   0  0  0  0  0  0  0  0  0  0  0  0
  -22.3883   -8.6525   20.3240 C   0  0  0  0  0  0  0  0  0  0  0  0
  -23.1171   -8.7891   22.6235 C   0  0  0  0  0  0  0  0  0  0  0  0
  -27.7750  -24.5255   25.7783 C   0  0  0  0  0  0  0  0  0  0  0  0
  -20.0477   -5.8811   20.5621 C   0  0  0  0  0  0  0  0  0  0  0  0
  -18.7497   -5.7857   20.0605 C   0  0  0  0  0  0  0  0  0  0  0  0
  -28.5430  -23.5782   23.6970 C   0  0  0  0  0  0  0  0  0  0  0  0
  -18.1345   -7.7830   21.2728 C   0  0  0  0  0  0  0  0  0  0  0  0
  -23.8444  -10.4484   21.0251 C   0  0  0  0  0  0  0  0  0  0  0  0
  -24.1455  -12.9697   20.7807 C   0  0  0  0  0  0  0  0  0  0  0  0
  -20.4474  -25.3408   19.3646 C   0  0  0  0  0  0  0  0  0  0  0  0
  -26.9547  -25.4047   23.6690 C   0  0  0  0  0  0  0  0  0  0  0  0
  -21.1407  -25.1754   20.5788 C   0  0  0  0  0  0  0  0  0  0  0  0
  -27.7505  -24.4828   22.9741 C   0  0  0  0  0  0  0  0  0  0  0  0
  -30.8431  -18.0334   20.7805 C   0  0  0  0  0  0  0  0  0  0  0  0
  -30.5855  -17.4070   23.0996 C   0  0  0  0  0  0  0  0  0  0  0  0
  -31.0567  -18.6604   23.4904 C   0  0  0  0  0  0  0  0  0  0  0  0
  -30.4787  -17.0935   21.7446 C   0  0  0  0  0  0  0  0  0  0  0  0
  -22.3887   -8.1449   21.6233 C   0  0  0  0  0  0  0  0  0  0  0  0
  -28.5536  -23.5986   25.0915 C   0  0  0  0  0  0  0  0  0  0  0  0
  -20.3892   -6.9274   21.4191 C   0  0  0  0  0  0  0  0  0  0  0  0
  -17.7931   -6.7366   20.4158 C   0  0  0  0  0  0  0  0  0  0  0  0
  -19.4326   -7.8784   21.7744 C   0  0  0  0  0  0  0  0  0  0  0  0
  -24.5968  -11.6378   20.7166 C   0  0  0  0  0  0  0  0  0  0  0  0
  -25.2297  -13.7187   20.3934 C   0  0  0  0  0  0  0  0  0  0  0  0
  -22.8611  -13.4840   21.1569 C   0  0  0  0  0  0  0  0  0  0  0  0
  -24.7129  -24.8825   21.4769 C   0  0  0  0  0  0  0  0  0  0  0  0
  -27.0755  -25.7299   19.4220 C   0  0  0  0  0  0  0  0  0  0  0  0
  -30.4213  -26.0121   18.8116 C   0  0  0  0  0  0  0  0  0  0  0  0
  -30.6748  -14.8667   20.5831 C   0  0  0  0  0  0  0  0  0  0  0  0
  -20.8947  -24.6583   18.0963 C   0  0  0  0  0  0  0  0  0  0  0  0
  -26.1142  -26.4023   22.9201 C   0  0  0  0  0  0  0  0  0  0  0  0
  -27.7726  -24.4303   21.4690 C   0  0  0  0  0  0  0  0  0  0  0  0
  -22.3401  -24.1697   18.1447 C   0  0  0  0  0  0  0  0  0  0  0  0
  -29.6328  -12.3167   18.3272 C   0  0  0  0  0  0  0  0  0  0  0  0
  -22.6128  -23.4385   19.4554 C   0  0  0  0  0  0  0  0  0  0  0  0
  -28.1926  -12.0223   18.7530 C   0  0  0  0  0  0  0  0  0  0  0  0
  -30.5278  -12.6221   19.5270 C   0  0  0  0  0  0  0  0  0  0  0  0
  -28.5906  -13.3825   20.8455 C   0  0  0  0  0  0  0  0  0  0  0  0
  -22.4200  -24.3707   20.6576 C   0  0  1  0  0  0  0  0  0  0  0  0
  -25.7698  -25.9502   21.5044 C   0  0  1  0  0  0  0  0  0  0  0  0
  -27.6367  -13.1328   19.6660 C   0  0  2  0  0  0  0  0  0  0  0  0
  -30.7401  -17.7272   19.3214 C   0  0  0  0  0  0  0  0  0  0  0  0
  -30.1963  -16.3995   24.1372 C   0  0  0  0  0  0  0  0  0  0  0  0
  -32.0472  -26.7003   17.0283 C   0  0  0  0  0  0  0  0  0  0  0  0
  -26.5537  -23.1142   17.9402 C   0  0  0  0  0  0  0  0  0  0  0  0
  -28.7646  -23.3997   16.8006 C   0  0  0  0  0  0  0  0  0  0  0  0
  -26.9605  -25.0885   16.4600 C   0  0  0  0  0  0  0  0  0  0  0  0
  -32.4790  -19.3527   25.4030 C   0  0  0  0  0  0  0  0  0  0  0  0
  -31.5499  -28.1596   20.5067 C   0  0  0  0  0  0  0  0  0  0  0  0
  -29.7789  -20.4102   26.2668 C   0  0  0  0  0  0  0  0  0  0  0  0
  -30.0234  -19.0090   25.7200 C   0  0  0  0  0  0  0  0  0  0  0  0
  -29.5649  -21.4476   25.1709 C   0  0  0  0  0  0  0  0  0  1  0  0
  -28.1640  -24.9914   18.6813 C   0  0  1  0  0  0  0  0  0  0  0  0
  -31.2488  -27.1502   18.2420 C   0  0  2  0  0  0  0  0  0  0  0  0
  -27.6090  -24.1479   17.4989 C   0  0  0  0  0  0  0  0  0  0  0  0
  -25.8686  -11.5429   20.3197 N   0  0  0  0  0  0  0  0  0  0  0  0
  -26.2257  -12.8246   20.1308 N   0  0  0  0  0  0  0  0  0  0  0  0
  -26.9290  -25.4222   20.7820 N   0  0  0  0  0  0  0  0  0  0  0  0
  -29.9399  -13.6863   20.3436 N   0  0  0  0  0  0  0  0  0  0  0  0
  -25.4188  -15.0482   20.2553 N   0  0  0  0  0  0  0  0  0  0  0  0
  -21.8601  -12.5756   21.5273 N   0  0  0  0  0  0  0  0  0  0  0  0
  -30.0012  -15.8207   21.3451 N   0  0  0  0  0  0  0  0  0  0  0  0
  -23.5617  -25.2477   20.8054 N   0  0  0  0  0  0  0  0  0  0  0  0
  -29.1454  -25.9970   18.2890 N   0  0  0  0  0  0  0  0  0  0  0  0
  -31.1725  -18.9947   24.8473 N   0  0  3  0  0  0  0  0  0  0  0  0
  -32.2012  -27.6620   19.2677 N   0  3  0  0  0  0  0  0  0  0  0  0
  -22.6035  -14.7116   21.1484 O   0  0  0  0  0  0  0  0  0  0  0  0
  -24.9267  -23.8066   22.0231 O   0  0  0  0  0  0  0  0  0  0  0  0
  -26.3854  -26.5549   18.8179 O   0  0  0  0  0  0  0  0  0  0  0  0
  -30.8637  -25.2140   19.6349 O   0  0  0  0  0  0  0  0  0  0  0  0
  -31.8071  -15.0310   20.1217 O   0  0  0  0  0  0  0  0  0  0  0  0
  -21.6785   -7.0212   21.9155 O   0  0  0  0  0  0  0  0  0  0  0  0
  -29.3283  -22.7164   25.7795 O   0  0  0  0  0  0  0  0  0  1  0  0
  -16.5470   -6.6457   19.9329 F   0  0  0  0  0  0  0  0  0  0  0  0
  -19.7549   -8.8865   22.5963 F   0  0  0  0  0  0  0  0  0  0  0  0
  1  2  1  0  0  0  0
  1  5  2  0  0  0  0
  2  6  2  0  0  0  0
  3 10  2  0  0  0  0
  3 17  1  0  0  0  0
  4 11  1  0  0  0  0
  4 17  2  0  0  0  0
  5 19  1  0  0  0  0
  6 21  1  0  0  0  0
  7 12  2  0  0  0  0
  7 20  1  0  0  0  0
  8  9  2  0  0  0  0
  8 23  1  0  0  0  0
  9 25  1  0  0  0  0
 10 27  1  0  0  0  0
 11 27  2  0  0  0  0
 12 28  1  0  0  0  0
 13 14  2  0  0  0  0
 13 29  1  0  0  0  0
 14 30  1  0  0  0  0
 15 22  1  0  0  0  0
 15 28  2  0  0  0  0
 16 30  2  0  0  0  0
 16 31  1  0  0  0  0
 17 32  1  0  0  0  0
 18 32  1  0  0  0  0
 18 33  2  0  0  0  0
 18 34  1  0  0  0  0
 19 21  2  0  0  0  0
 19 39  1  0  0  0  0
 20 22  2  0  0  0  0
 20 40  1  0  0  0  0
 21 48  1  0  0  0  0
 22 41  1  0  0  0  0
 23 26  2  0  0  0  0
 23 51  1  0  0  0  0
 24 25  2  0  0  0  0
 24 26  1  0  0  0  0
 24 52  1  0  0  0  0
 25 74  1  0  0  0  0
 26 71  1  0  0  0  0
 27 81  1  0  0  0  0
 28 82  1  0  0  0  0
 29 31  2  0  0  0  0
 29 81  1  0  0  0  0
 30 83  1  0  0  0  0
 31 84  1  0  0  0  0
 32 65  2  0  0  0  0
 33 66  1  0  0  0  0
 33 69  1  0  0  0  0
 34 70  1  0  0  0  0
 34 76  2  0  0  0  0
 35 49  1  0  0  0  0
 35 72  1  0  0  0  0
 35 77  2  0  0  0  0
 36 62  1  0  0  0  0
 36 67  1  0  0  0  0
 36 78  2  0  0  0  0
 37 63  1  0  0  0  0
 37 73  1  0  0  0  0
 37 79  2  0  0  0  0
 38 68  1  0  0  0  0
 38 71  1  0  0  0  0
 38 80  2  0  0  0  0
 39 42  1  0  0  0  0
 40 49  1  0  0  0  0
 41 67  1  0  0  0  0
 42 44  1  0  0  0  0
 43 45  1  0  0  0  0
 43 46  1  0  0  0  0
 44 48  1  0  0  0  0
 45 50  1  0  0  0  0
 46 68  1  0  0  0  0
 47 50  1  0  0  0  0
 47 68  1  0  0  0  0
 48 72  1  0  0  0  0
 49 67  1  0  0  0  0
 50 66  1  0  0  0  0
 53 63  1  0  0  0  0
 54 64  1  0  0  0  0
 55 64  1  0  0  0  0
 56 64  1  0  0  0  0
 57 74  1  0  0  0  0
 58 75  1  0  0  0  0
 59 60  1  0  0  0  0
 59 61  1  0  0  0  0
 60 74  1  0  0  0  0
 61 82  1  0  0  0  0
 62 64  1  0  0  0  0
 62 73  1  0  0  0  0
 63 75  1  0  0  0  0
 65 66  1  0  0  0  0
M  CHG  1  75   1
M  ISO  4  38 100  61 101  71 100  82 101
M  END
> <Batch ID>
0008

> <Smiles>
CNC(C)C(=O)NC(C(=O)N1Cc2cc([101O:1][101CH2:1]CCN(C)c3ccc(C)c([100NH:0][100C:0](=O)N4CCCC(n5nc(-c6ccc(Oc7ccc(F)cc7F)cc6)c(C(N)=O)c5N)C4)c3C)ccc2CC1C(=O)NC1CCCc2ccccc21)C(C)(C)C

> <Shape>
0.229

> <Color>
0.222

> <Negative vol penalty>
0.000

$$$$

  -OEChem-04052315363D

 83 91  0     1  0  0  0  0  0999 V2000
  -32.0418  -23.5754   18.0447 C   0  0  0  0  0  0  0  0  0  0  0  0
  -30.8106  -23.3853   18.6640 C   0  0  0  0  0  0  0  0  0  0  0  0
  -27.0748  -17.6544   19.0888 C   0  0  0  0  0  0  0  0  0  0  0  0
  -28.0122  -17.2376   21.2762 C   0  0  0  0  0  0  0  0  0  0  0  0
  -32.8279  -24.6764   18.3821 C   0  0  0  0  0  0  0  0  0  0  0  0
  -30.3654  -24.2956   19.6220 C   0  0  0  0  0  0  0  0  0  0  0  0
  -25.5022  -25.5584   18.9895 C   0  0  0  0  0  0  0  0  0  0  0  0
  -19.8813  -16.3134   20.9249 C   0  0  0  0  0  0  0  0  0  0  0  0
  -27.6447  -18.9275   19.0871 C   0  0  0  0  0  0  0  0  0  0  0  0
  -28.5822  -18.5107   21.2745 C   0  0  0  0  0  0  0  0  0  0  0  0
  -24.5449  -24.6430   19.4248 C   0  0  0  0  0  0  0  0  0  0  0  0
  -19.8901  -17.6703   21.2477 C   0  0  0  0  0  0  0  0  0  0  0  0
  -29.9840  -21.7842   22.0018 C   0  0  0  0  0  0  0  0  0  0  0  0
  -29.8681  -22.5480   23.1631 C   0  0  0  0  0  0  0  0  0  0  0  0
  -24.2346  -25.9343   21.4386 C   0  0  0  0  0  0  0  0  0  0  0  0
  -20.7248  -18.1899   19.0408 C   0  0  0  0  0  0  0  0  0  0  0  0
  -27.4605  -22.4566   22.9828 C   0  0  0  0  0  0  0  0  0  0  0  0
  -27.2585  -16.8095   20.1834 C   0  0  0  0  0  0  0  0  0  0  0  0
  -27.2487  -14.3026   19.7108 C   0  0  0  0  0  0  0  0  0  0  0  0
  -32.3877  -25.6058   19.3376 C   0  0  0  0  0  0  0  0  0  0  0  0
  -25.8414  -26.6645   19.7818 C   0  0  0  0  0  0  0  0  0  0  0  0
  -31.1469  -25.4093   19.9734 C   0  0  0  0  0  0  0  0  0  0  0  0
  -25.1947  -26.8636   21.0100 C   0  0  0  0  0  0  0  0  0  0  0  0
  -20.2944  -15.8947   19.6601 C   0  0  0  0  0  0  0  0  0  0  0  0
  -28.3985  -19.3556   20.1799 C   0  0  0  0  0  0  0  0  0  0  0  0
  -23.9130  -24.8293   20.6508 C   0  0  0  0  0  0  0  0  0  0  0  0
  -20.3118  -18.6086   20.3057 C   0  0  0  0  0  0  0  0  0  0  0  0
  -28.8382  -21.3566   21.3309 C   0  0  0  0  0  0  0  0  0  0  0  0
  -28.6064  -22.8842   23.6537 C   0  0  0  0  0  0  0  0  0  0  0  0
  -20.7161  -16.8330   18.7181 C   0  0  0  0  0  0  0  0  0  0  0  0
  -27.5765  -21.6928   21.8214 C   0  0  0  0  0  0  0  0  0  0  0  0
  -26.6695  -15.4945   20.1860 C   0  0  0  0  0  0  0  0  0  0  0  0
  -26.2935  -13.3422   19.9381 C   0  0  0  0  0  0  0  0  0  0  0  0
  -28.5352  -14.0832   19.1172 C   0  0  0  0  0  0  0  0  0  0  0  0
  -28.5005  -27.6790   21.1973 C   0  0  0  0  0  0  0  0  0  0  0  0
  -26.6831  -30.2786   21.8765 C   0  0  0  0  0  0  0  0  0  0  0  0
  -23.5682  -31.5992   22.3239 C   0  0  0  0  0  0  0  0  0  0  0  0
  -20.4843  -13.5027   20.3187 C   0  0  0  0  0  0  0  0  0  0  0  0
  -33.2935  -26.7548   19.7038 C   0  0  0  0  0  0  0  0  0  0  0  0
  -26.8567  -27.6572   19.2859 C   0  0  0  0  0  0  0  0  0  0  0  0
  -25.5083  -28.0459   21.8888 C   0  0  0  0  0  0  0  0  0  0  0  0
  -32.5815  -27.8757   20.4567 C   0  0  0  0  0  0  0  0  0  0  0  0
  -22.6599  -12.2792   22.8510 C   0  0  0  0  0  0  0  0  0  0  0  0
  -31.7101  -27.3018   21.5694 C   0  0  0  0  0  0  0  0  0  0  0  0
  -24.0004  -12.8644   22.4081 C   0  0  0  0  0  0  0  0  0  0  0  0
  -21.5080  -13.2620   22.6383 C   0  0  0  0  0  0  0  0  0  0  0  0
  -22.7561  -14.3749   20.8140 C   0  0  0  0  0  0  0  0  0  0  0  0
  -30.6184  -26.3881   20.9994 C   0  0  1  0  0  0  0  0  0  0  0  0
  -27.4957  -28.4696   20.4080 C   0  0  1  0  0  0  0  0  0  0  0  0
  -23.9241  -13.3875   20.9629 C   0  0  1  0  0  0  0  0  0  0  0  0
  -22.4031  -33.7434   22.9089 C   0  0  0  0  0  0  0  0  0  0  0  0
  -27.4468  -29.8917   24.8052 C   0  0  0  0  0  0  0  0  0  0  0  0
  -25.5561  -31.4107   25.4266 C   0  0  0  0  0  0  0  0  0  0  0  0
  -27.4390  -32.2710   24.0346 C   0  0  0  0  0  0  0  0  0  0  0  0
  -19.8224  -14.0875   17.9959 C   0  0  0  0  0  0  0  0  0  0  0  0
  -22.1520  -31.6736   19.7263 C   0  0  0  0  0  0  0  0  0  0  0  0
  -21.6520  -21.9331   20.8650 C   0  0  0  0  0  0  0  0  0  0  0  0
  -22.6946  -22.8328   20.2203 C   0  0  0  0  0  0  0  0  0  1  0  0
  -21.2977  -20.7482   19.9803 C   0  0  0  0  0  0  0  0  0  0  0  0
  -25.7669  -30.6763   23.0085 C   0  0  1  0  0  0  0  0  0  0  0  0
  -22.9225  -32.8623   21.7835 C   0  0  2  0  0  0  0  0  0  0  0  0
  -26.5475  -31.0390   24.3033 C   0  0  0  0  0  0  0  0  0  0  0  0
  -25.4413  -15.3106   20.6778 N   0  0  0  0  0  0  0  0  0  0  0  0
  -25.2410  -13.9920   20.5129 N   0  0  0  0  0  0  0  0  0  0  0  0
  -26.5127  -28.9851   21.3630 N   0  0  0  0  0  0  0  0  0  0  0  0
  -21.5002  -13.7646   21.2572 N   0  0  0  0  0  0  0  0  0  0  0  0
  -26.2595  -12.0138   19.7003 N   0  0  0  0  0  0  0  0  0  0  0  0
  -29.3932  -15.1799   18.9576 N   0  0  0  0  0  0  0  0  0  0  0  0
  -29.5411  -27.1761   20.4399 N   0  0  0  0  0  0  0  0  0  0  0  0
  -24.9277  -31.7536   22.4951 N   0  0  0  0  0  0  0  0  0  0  0  0
  -20.2843  -14.4891   19.3291 N   0  0  0  0  0  0  0  0  0  0  0  0
  -21.7802  -32.5187   20.8902 N   0  3  0  0  0  0  0  0  0  0  0  0
  -28.9063  -12.9512   18.7244 O   0  0  0  0  0  0  0  0  0  0  0  0
  -28.3441  -27.5370   22.4044 O   0  0  0  0  0  0  0  0  0  0  0  0
  -27.5145  -31.0884   21.4585 O   0  0  0  0  0  0  0  0  0  0  0  0
  -22.9299  -30.5790   22.5731 O   0  0  0  0  0  0  0  0  0  0  0  0
  -19.8245  -12.4568   20.3466 O   0  0  0  0  0  0  0  0  0  0  0  0
  -28.9550  -20.5977   20.1785 O   0  0  0  0  0  0  0  0  0  0  0  0
  -22.9787  -23.9371   21.0784 O   0  0  0  0  0  0  0  0  0  1  0  0
  -20.3192  -19.9421   20.6226 O   0  0  0  0  0  0  0  0  0  0  0  0
  -28.4952  -23.6164   24.7698 F   0  0  0  0  0  0  0  0  0  0  0  0
  -21.1157  -16.4418   17.4995 F   0  0  0  0  0  0  0  0  0  0  0  0
  -26.4721  -21.2840   21.1819 F   0  0  0  0  0  0  0  0  0  0  0  0
  1  2  1  0  0  0  0
  1  5  2  0  0  0  0
  2  6  2  0  0  0  0
  3  9  2  0  0  0  0
  3 18  1  0  0  0  0
  4 10  1  0  0  0  0
  4 18  2  0  0  0  0
  5 20  1  0  0  0  0
  6 22  1  0  0  0  0
  7 11  2  0  0  0  0
  7 21  1  0  0  0  0
  8 12  2  0  0  0  0
  8 24  1  0  0  0  0
  9 25  1  0  0  0  0
 10 25  2  0  0  0  0
 11 26  1  0  0  0  0
 12 27  1  0  0  0  0
 13 14  2  0  0  0  0
 13 28  1  0  0  0  0
 14 29  1  0  0  0  0
 15 23  1  0  0  0  0
 15 26  2  0  0  0  0
 16 27  2  0  0  0  0
 16 30  1  0  0  0  0
 17 29  2  0  0  0  0
 17 31  1  0  0  0  0
 18 32  1  0  0  0  0
 19 32  1  0  0  0  0
 19 33  2  0  0  0  0
 19 34  1  0  0  0  0
 20 22  2  0  0  0  0
 20 39  1  0  0  0  0
 21 23  2  0  0  0  0
 21 40  1  0  0  0  0
 22 48  1  0  0  0  0
 23 41  1  0  0  0  0
 24 30  2  0  0  0  0
 24 71  1  0  0  0  0
 25 78  1  0  0  0  0
 26 79  1  0  0  0  0
 27 80  1  0  0  0  0
 28 31  2  0  0  0  0
 28 78  1  0  0  0  0
 29 81  1  0  0  0  0
 30 82  1  0  0  0  0
 31 83  1  0  0  0  0
 32 63  2  0  0  0  0
 33 64  1  0  0  0  0
 33 67  1  0  0  0  0
 34 68  1  0  0  0  0
 34 73  2  0  0  0  0
 35 49  1  0  0  0  0
 35 69  1  0  0  0  0
 35 74  2  0  0  0  0
 36 60  1  0  0  0  0
 36 65  1  0  0  0  0
 36 75  2  0  0  0  0
 37 61  1  0  0  0  0
 37 70  1  0  0  0  0
 37 76  2  0  0  0  0
 38 66  1  0  0  0  0
 38 71  1  0  0  0  0
 38 77  2  0  0  0  0
 39 42  1  0  0  0  0
 40 49  1  0  0  0  0
 41 65  1  0  0  0  0
 42 44  1  0  0  0  0
 43 45  1  0  0  0  0
 43 46  1  0  0  0  0
 44 48  1  0  0  0  0
 45 50  1  0  0  0  0
 46 66  1  0  0  0  0
 47 50  1  0  0  0  0
 47 66  1  0  0  0  0
 48 69  1  0  0  0  0
 49 65  1  0  0  0  0
 50 64  1  0  0  0  0
 51 61  1  0  0  0  0
 52 62  1  0  0  0  0
 53 62  1  0  0  0  0
 54 62  1  0  0  0  0
 55 71  1  0  0  0  0
 56 72  1  0  0  0  0
 57 58  1  0  0  0  0
 57 59  1  0  0  0  0
 58 79  1  0  0  0  0
 59 80  1  0  0  0  0
 60 62  1  0  0  0  0
 60 70  1  0  0  0  0
 61 72  1  0  0  0  0
 63 64  1  0  0  0  0
M  CHG  1  72   1
M  ISO  4  38 100  58 101  71 100  79 101
M  END
> <Batch ID>
0008

> <Smiles>
CNC(C)C(=O)NC(C(=O)N1Cc2cc([101O:1][101CH2:1]CCOc3ccc([100N:0](C)[100C:0](=O)N4CCCC(n5nc(-c6ccc(Oc7ccc(F)cc7F)cc6)c(C(N)=O)c5N)C4)c(F)c3)ccc2CC1C(=O)NC1CCCc2ccccc21)C(C)(C)C

> <Shape>
0.251

> <Color>
0.064

> <Negative vol penalty>
0.000

$$$$

  -OEChem-04052315363D

 82 90  0     1  0  0  0  0  0999 V2000
  -28.4165  -25.2005    8.7487 C   0  0  0  0  0  0  0  0  0  0  0  0
  -28.9803  -24.4423    9.7698 C   0  0  0  0  0  0  0  0  0  0  0  0
  -23.0699   -9.8772   19.9570 C   0  0  0  0  0  0  0  0  0  0  0  0
  -23.8250   -9.8947   22.2519 C   0  0  0  0  0  0  0  0  0  0  0  0
  -28.1245  -26.5471    8.9616 C   0  0  0  0  0  0  0  0  0  0  0  0
  -29.2535  -25.0306   11.0042 C   0  0  0  0  0  0  0  0  0  0  0  0
  -28.8718  -22.3791   16.5114 C   0  0  0  0  0  0  0  0  0  0  0  0
  -22.3177   -8.7309   20.2132 C   0  0  0  0  0  0  0  0  0  0  0  0
  -23.0727   -8.7484   22.5082 C   0  0  0  0  0  0  0  0  0  0  0  0
  -29.8317  -21.8092   17.3466 C   0  0  0  0  0  0  0  0  0  0  0  0
  -19.8380   -7.9768   23.1092 C   0  0  0  0  0  0  0  0  0  0  0  0
  -19.0783   -7.9501   24.2787 C   0  0  0  0  0  0  0  0  0  0  0  0
  -30.0006  -23.8872   18.5602 C   0  0  0  0  0  0  0  0  0  0  0  0
  -31.2556  -18.3745   23.7256 C   0  0  0  0  0  0  0  0  0  0  0  0
  -20.3049   -6.0093   25.0311 C   0  0  0  0  0  0  0  0  0  0  0  0
  -23.8237  -10.4591   20.9763 C   0  0  0  0  0  0  0  0  0  0  0  0
  -24.1830  -12.9810   20.8397 C   0  0  0  0  0  0  0  0  0  0  0  0
  -28.3853  -27.1498   10.2023 C   0  0  0  0  0  0  0  0  0  0  0  0
  -28.4763  -23.7128   16.6877 C   0  0  0  0  0  0  0  0  0  0  0  0
  -28.9660  -26.3869   11.2334 C   0  0  0  0  0  0  0  0  0  0  0  0
  -29.0336  -24.4708   17.7275 C   0  0  0  0  0  0  0  0  0  0  0  0
  -31.6373  -19.3490   22.8036 C   0  0  0  0  0  0  0  0  0  0  0  0
  -30.7485  -17.1536   23.2805 C   0  0  0  0  0  0  0  0  0  0  0  0
  -31.5120  -19.1026   21.4363 C   0  0  0  0  0  0  0  0  0  0  0  0
  -31.0049  -17.8818   20.9912 C   0  0  0  0  0  0  0  0  0  0  0  0
  -30.6232  -16.9073   21.9133 C   0  0  0  0  0  0  0  0  0  0  0  0
  -22.3190   -8.1665   21.4888 C   0  0  0  0  0  0  0  0  0  0  0  0
  -30.3983  -22.5641   18.3694 C   0  0  0  0  0  0  0  0  0  0  0  0
  -20.8310   -7.0198   22.9006 C   0  0  0  0  0  0  0  0  0  0  0  0
  -19.3118   -6.9664   25.2397 C   0  0  0  0  0  0  0  0  0  0  0  0
  -21.0645   -6.0360   23.8615 C   0  0  0  0  0  0  0  0  0  0  0  0
  -24.6014  -11.6429   20.7121 C   0  0  0  0  0  0  0  0  0  0  0  0
  -25.2810  -13.7205   20.4737 C   0  0  0  0  0  0  0  0  0  0  0  0
  -22.9152  -13.5083   21.2524 C   0  0  0  0  0  0  0  0  0  0  0  0
  -28.6077  -26.3451   14.9108 C   0  0  0  0  0  0  0  0  0  0  0  0
  -26.8784  -27.6076   17.3476 C   0  0  0  0  0  0  0  0  0  0  0  0
  -25.9868  -27.4770   20.6392 C   0  0  0  0  0  0  0  0  0  0  0  0
  -30.7539  -14.7300   20.6530 C   0  0  0  0  0  0  0  0  0  0  0  0
  -28.0962  -28.6205   10.3700 C   0  0  0  0  0  0  0  0  0  0  0  0
  -27.4202  -24.3046   15.7951 C   0  0  0  0  0  0  0  0  0  0  0  0
  -28.6285  -25.9008   17.9716 C   0  0  0  0  0  0  0  0  0  0  0  0
  -28.0701  -29.0738   11.8274 C   0  0  0  0  0  0  0  0  0  0  0  0
  -29.6280  -12.3076   18.2989 C   0  0  0  0  0  0  0  0  0  0  0  0
  -29.2732  -28.5162   12.5815 C   0  0  0  0  0  0  0  0  0  0  0  0
  -28.1854  -12.0288   18.7273 C   0  0  0  0  0  0  0  0  0  0  0  0
  -30.5421  -12.5384   19.5009 C   0  0  0  0  0  0  0  0  0  0  0  0
  -28.6372  -13.2853   20.8731 C   0  0  0  0  0  0  0  0  0  0  0  0
  -29.2541  -26.9830   12.5943 C   0  0  1  0  0  0  0  0  0  0  0  0
  -27.4678  -25.8285   15.7422 C   0  0  1  0  0  0  0  0  0  0  0  0
  -27.6657  -13.1106   19.6944 C   0  0  2  0  0  0  0  0  0  0  0  0
  -32.1786  -20.6471   23.3065 C   0  0  0  0  0  0  0  0  0  0  0  0
  -30.3494  -16.1291   24.2929 C   0  0  0  0  0  0  0  0  0  0  0  0
  -30.8723  -17.6225   19.5228 C   0  0  0  0  0  0  0  0  0  0  0  0
  -24.5867  -28.6652   22.3495 C   0  0  0  0  0  0  0  0  0  0  0  0
  -28.9737  -29.8187   17.5231 C   0  0  0  0  0  0  0  0  0  0  0  0
  -28.0700  -30.3999   19.7844 C   0  0  0  0  0  0  0  0  0  0  0  0
  -26.6106  -30.5988   17.7711 C   0  0  0  0  0  0  0  0  0  0  0  0
  -24.3178  -25.0785   21.1089 C   0  0  0  0  0  0  0  0  0  0  0  0
  -31.9249  -20.1567   20.4437 C   0  0  0  0  0  0  0  0  0  0  0  0
  -27.2101  -28.3035   18.6455 C   0  0  1  0  0  0  0  0  0  0  0  0
  -24.6314  -27.5475   21.3192 C   0  0  2  0  0  0  0  0  0  0  0  0
  -27.7254  -29.7539   18.4255 C   0  0  0  0  0  0  0  0  0  0  0  0
  -25.8665  -11.5356   20.2972 N   0  0  0  0  0  0  0  0  0  0  0  0
  -26.2524  -12.8157   20.1609 N   0  0  0  0  0  0  0  0  0  0  0  0
  -27.5967  -26.4363   17.0682 N   0  0  0  0  0  0  0  0  0  0  0  0
  -29.9883  -13.5790   20.3700 N   0  0  0  0  0  0  0  0  0  0  0  0
  -25.5007  -15.0500   20.3920 N   0  0  0  0  0  0  0  0  0  0  0  0
  -21.8964  -12.6084   21.5937 N   0  0  0  0  0  0  0  0  0  0  0  0
  -30.1111  -15.6650   21.4636 N   0  0  0  0  0  0  0  0  0  0  0  0
  -28.3034  -26.4975   13.5715 N   0  0  0  0  0  0  0  0  0  0  0  0
  -26.0127  -28.2141   19.4742 N   0  0  0  0  0  0  0  0  0  0  0  0
  -30.7759  -20.8539   19.8839 N   0  0  0  0  0  0  0  0  0  1  0  0
  -24.3300  -26.2609   22.0082 N   0  3  0  0  0  0  0  0  0  0  0  0
  -22.6873  -14.7409   21.3008 O   0  0  0  0  0  0  0  0  0  0  0  0
  -29.6833  -26.5889   15.4450 O   0  0  0  0  0  0  0  0  0  0  0  0
  -26.0089  -28.0817   16.6122 O   0  0  0  0  0  0  0  0  0  0  0  0
  -26.9295  -26.8353   21.0977 O   0  0  0  0  0  0  0  0  0  0  0  0
  -31.8851  -14.8878   20.1866 O   0  0  0  0  0  0  0  0  0  0  0  0
  -21.5849   -7.0481   21.7393 O   0  0  0  0  0  0  0  0  0  0  0  0
  -31.3360  -22.0106   19.1857 O   0  0  0  0  0  0  0  0  0  1  0  0
  -18.5832   -6.9418   26.3634 F   0  0  0  0  0  0  0  0  0  0  0  0
  -22.0180   -5.1147   23.6672 F   0  0  0  0  0  0  0  0  0  0  0  0
  1  2  1  0  0  0  0
  1  5  2  0  0  0  0
  2  6  2  0  0  0  0
  3  8  2  0  0  0  0
  3 16  1  0  0  0  0
  4  9  1  0  0  0  0
  4 16  2  0  0  0  0
  5 18  1  0  0  0  0
  6 20  1  0  0  0  0
  7 10  2  0  0  0  0
  7 19  1  0  0  0  0
  8 27  1  0  0  0  0
  9 27  2  0  0  0  0
 10 28  1  0  0  0  0
 11 12  2  0  0  0  0
 11 29  1  0  0  0  0
 12 30  1  0  0  0  0
 13 21  1  0  0  0  0
 13 28  2  0  0  0  0
 14 22  2  0  0  0  0
 14 23  1  0  0  0  0
 15 30  2  0  0  0  0
 15 31  1  0  0  0  0
 16 32  1  0  0  0  0
 17 32  1  0  0  0  0
 17 33  2  0  0  0  0
 17 34  1  0  0  0  0
 18 20  2  0  0  0  0
 18 39  1  0  0  0  0
 19 21  2  0  0  0  0
 19 40  1  0  0  0  0
 20 48  1  0  0  0  0
 21 41  1  0  0  0  0
 22 24  1  0  0  0  0
 22 51  1  0  0  0  0
 23 26  2  0  0  0  0
 23 52  1  0  0  0  0
 24 25  2  0  0  0  0
 24 59  1  0  0  0  0
 25 26  1  0  0  0  0
 25 53  1  0  0  0  0
 26 69  1  0  0  0  0
 27 79  1  0  0  0  0
 28 80  1  0  0  0  0
 29 31  2  0  0  0  0
 29 79  1  0  0  0  0
 30 81  1  0  0  0  0
 31 82  1  0  0  0  0
 32 63  2  0  0  0  0
 33 64  1  0  0  0  0
 33 67  1  0  0  0  0
 34 68  1  0  0  0  0
 34 74  2  0  0  0  0
 35 49  1  0  0  0  0
 35 70  1  0  0  0  0
 35 75  2  0  0  0  0
 36 60  1  0  0  0  0
 36 65  1  0  0  0  0
 36 76  2  0  0  0  0
 37 61  1  0  0  0  0
 37 71  1  0  0  0  0
 37 77  2  0  0  0  0
 38 66  1  0  0  0  0
 38 69  1  0  0  0  0
 38 78  2  0  0  0  0
 39 42  1  0  0  0  0
 40 49  1  0  0  0  0
 41 65  1  0  0  0  0
 42 44  1  0  0  0  0
 43 45  1  0  0  0  0
 43 46  1  0  0  0  0
 44 48  1  0  0  0  0
 45 50  1  0  0  0  0
 46 66  1  0  0  0  0
 47 50  1  0  0  0  0
 47 66  1  0  0  0  0
 48 70  1  0  0  0  0
 49 65  1  0  0  0  0
 50 64  1  0  0  0  0
 54 61  1  0  0  0  0
 55 62  1  0  0  0  0
 56 62  1  0  0  0  0
 57 62  1  0  0  0  0
 58 73  1  0  0  0  0
 59 72  1  0  0  0  0
 60 62  1  0  0  0  0
 60 71  1  0  0  0  0
 61 73  1  0  0  0  0
 63 64  1  0  0  0  0
 72 80  1  0  0  0  0
M  CHG  1  73   1
M  ISO  4  38 100  69 100  72 101  80 101
M  END
> <Batch ID>
0008

> <Smiles>
CNC(C)C(=O)NC(C(=O)N1Cc2cc([101O:1][101NH:1]Cc3c(C)cc(C)c([100NH:0][100C:0](=O)N4CCCC(n5nc(-c6ccc(Oc7ccc(F)cc7F)cc6)c(C(N)=O)c5N)C4)c3C)ccc2CC1C(=O)NC1CCCc2ccccc21)C(C)(C)C

> <Shape>
0.239

> <Color>
0.205

> <Negative vol penalty>
0.000

$$$$

  -OEChem-04052315363D

 91 99  0     1  0  0  0  0  0999 V2000
  -37.8525  -25.0208   25.7700 C   0  0  0  0  0  0  0  0  0  0  0  0
  -36.6827  -24.4536   25.2749 C   0  0  0  0  0  0  0  0  0  0  0  0
  -23.0058   -9.8755   19.9830 C   0  0  0  0  0  0  0  0  0  0  0  0
  -23.7261   -9.9419   22.2882 C   0  0  0  0  0  0  0  0  0  0  0  0
  -38.2411  -26.2924   25.3506 C   0  0  0  0  0  0  0  0  0  0  0  0
  -35.9000  -25.1583   24.3609 C   0  0  0  0  0  0  0  0  0  0  0  0
  -34.3563  -22.2743   20.4951 C   0  0  0  0  0  0  0  0  0  0  0  0
  -32.6318  -17.4661   23.4165 C   0  0  0  0  0  0  0  0  0  0  0  0
  -32.0281  -16.5710   22.5334 C   0  0  0  0  0  0  0  0  0  0  0  0
  -22.2441   -8.7388   20.2538 C   0  0  0  0  0  0  0  0  0  0  0  0
  -22.9643   -8.8053   22.5590 C   0  0  0  0  0  0  0  0  0  0  0  0
  -33.2884  -21.4100   20.7323 C   0  0  0  0  0  0  0  0  0  0  0  0
  -23.2252   -5.4651   22.1051 C   0  0  0  0  0  0  0  0  0  0  0  0
  -23.8160   -4.4546   22.8637 C   0  0  0  0  0  0  0  0  0  0  0  0
  -30.4657  -18.3830   23.9681 C   0  0  0  0  0  0  0  0  0  0  0  0
  -31.7915  -22.9796   19.6764 C   0  0  0  0  0  0  0  0  0  0  0  0
  -22.0876   -4.6982   24.5342 C   0  0  0  0  0  0  0  0  0  0  0  0
  -23.7468  -10.4770   21.0002 C   0  0  0  0  0  0  0  0  0  0  0  0
  -29.8620  -17.4880   23.0849 C   0  0  0  0  0  0  0  0  0  0  0  0
  -24.1207  -12.9934   20.8118 C   0  0  0  0  0  0  0  0  0  0  0  0
  -37.4678  -27.0091   24.4237 C   0  0  0  0  0  0  0  0  0  0  0  0
  -34.1478  -23.5047   19.8555 C   0  0  0  0  0  0  0  0  0  0  0  0
  -36.2779  -26.4413   23.9298 C   0  0  0  0  0  0  0  0  0  0  0  0
  -32.8589  -23.8566   19.4300 C   0  0  0  0  0  0  0  0  0  0  0  0
  -31.8506  -18.3721   24.1340 C   0  0  0  0  0  0  0  0  0  0  0  0
  -30.6432  -16.5820   22.3675 C   0  0  0  0  0  0  0  0  0  0  0  0
  -22.2233   -8.2037   21.5417 C   0  0  0  0  0  0  0  0  0  0  0  0
  -32.0053  -21.7639   20.3255 C   0  0  0  0  0  0  0  0  0  0  0  0
  -22.0657   -6.0922   22.5611 C   0  0  0  0  0  0  0  0  0  0  0  0
  -23.2472   -4.0711   24.0783 C   0  0  0  0  0  0  0  0  0  0  0  0
  -21.4968   -5.7087   23.7756 C   0  0  0  0  0  0  0  0  0  0  0  0
  -24.5344  -11.6509   20.7210 C   0  0  0  0  0  0  0  0  0  0  0  0
  -25.2278  -13.7193   20.4458 C   0  0  0  0  0  0  0  0  0  0  0  0
  -28.3988  -17.5255   22.9331 C   0  0  0  0  0  0  0  0  0  0  0  0
  -22.8494  -13.5359   21.1929 C   0  0  0  0  0  0  0  0  0  0  0  0
  -34.5392  -26.5518   20.6714 C   0  0  0  0  0  0  0  0  0  0  0  0
  -33.7462  -27.0789   17.5705 C   0  0  0  0  0  0  0  0  0  0  0  0
  -32.1795  -25.9643   14.7509 C   0  0  0  0  0  0  0  0  0  0  0  0
  -30.7022  -14.7074   20.6857 C   0  0  0  0  0  0  0  0  0  0  0  0
  -37.9037  -28.4000   24.0362 C   0  0  0  0  0  0  0  0  0  0  0  0
  -35.3146  -24.4139   19.5831 C   0  0  0  0  0  0  0  0  0  0  0  0
  -32.5853  -25.1570   18.7211 C   0  0  0  0  0  0  0  0  0  0  0  0
  -37.2143  -28.9264   22.7800 C   0  0  0  0  0  0  0  0  0  0  0  0
  -29.6002  -12.2371   18.3704 C   0  0  0  0  0  0  0  0  0  0  0  0
  -35.7126  -28.6668   22.8466 C   0  0  0  0  0  0  0  0  0  0  0  0
  -28.1500  -11.9748   18.7830 C   0  0  0  0  0  0  0  0  0  0  0  0
  -30.4971  -12.4911   19.5807 C   0  0  0  0  0  0  0  0  0  0  0  0
  -28.5754  -13.2779   20.9062 C   0  0  0  0  0  0  0  0  0  0  0  0
  -35.4152  -27.1642   22.9182 C   0  0  1  0  0  0  0  0  0  0  0  0
  -34.9040  -25.8695   19.3833 C   0  0  1  0  0  0  0  0  0  0  0  0
  -27.6210  -13.0808   19.7171 C   0  0  2  0  0  0  0  0  0  0  0  0
  -31.6691  -26.6318   12.3863 C   0  0  0  0  0  0  0  0  0  0  0  0
  -31.5866  -28.9849   18.5771 C   0  0  0  0  0  0  0  0  0  0  0  0
  -30.5285  -28.8719   16.3109 C   0  0  0  0  0  0  0  0  0  0  0  0
  -32.8337  -29.7908   16.5648 C   0  0  0  0  0  0  0  0  0  0  0  0
  -31.6591  -20.2223   25.7772 C   0  0  0  0  0  0  0  0  0  0  0  0
  -26.4098  -18.4068   21.7750 C   0  0  0  0  0  0  0  0  0  0  0  0
  -33.6624  -23.6495   13.6547 C   0  0  0  0  0  0  0  0  0  0  0  0
  -36.6375  -18.6921   24.4664 C   0  0  0  0  0  0  0  0  0  0  0  0
  -36.7846  -20.8987   23.3221 C   0  0  0  0  0  0  0  0  0  0  0  0
  -28.8496  -20.6138   21.6541 C   0  0  0  0  0  0  0  0  0  0  0  0
  -28.6285  -19.2269   21.0656 C   0  0  0  0  0  0  0  0  0  0  0  0
  -33.8985  -19.2637   25.2163 C   0  0  0  0  0  0  0  0  0  0  0  0
  -34.5810  -20.0516   24.1141 C   0  0  0  0  0  0  0  0  0  0  0  0
  -29.6780  -21.5170   20.7485 C   0  0  0  0  0  0  0  0  0  1  0  0
  -32.4555  -27.3041   16.8204 C   0  0  1  0  0  0  0  0  0  0  0  0
  -32.6351  -25.8991   13.3043 C   0  0  2  0  0  0  0  0  0  0  0  0
  -31.8556  -28.7142   17.0834 C   0  0  0  0  0  0  0  0  0  0  0  0
  -25.8050  -11.5283   20.3280 N   0  0  0  0  0  0  0  0  0  0  0  0
  -26.1993  -12.8031   20.1685 N   0  0  0  0  0  0  0  0  0  0  0  0
  -33.7579  -26.0150   18.4836 N   0  0  0  0  0  0  0  0  0  0  0  0
  -29.9354  -13.5538   20.4173 N   0  0  0  0  0  0  0  0  0  0  0  0
  -25.4553  -15.0455   20.3372 N   0  0  0  0  0  0  0  0  0  0  0  0
  -21.8211  -12.6487   21.5390 N   0  0  0  0  0  0  0  0  0  0  0  0
  -30.0519  -15.6636   21.4649 N   0  0  0  0  0  0  0  0  0  0  0  0
  -35.5525  -26.5589   21.6108 N   0  0  0  0  0  0  0  0  0  0  0  0
  -32.7458  -27.0304   15.4171 N   0  0  0  0  0  0  0  0  0  0  0  0
  -32.4615  -19.2768   25.0269 N   0  0  3  0  0  0  0  0  0  0  0  0
  -27.8672  -18.3773   21.9390 N   0  0  0  0  0  0  0  0  0  0  0  0
  -32.7279  -24.4815   12.8539 N   0  3  0  0  0  0  0  0  0  0  0  0
  -36.0460  -20.0753   24.3486 N   0  3  0  0  0  0  0  0  0  0  0  0
  -27.7545  -16.7958   23.6857 O   0  0  0  0  0  0  0  0  0  0  0  0
  -22.6269  -14.7703   21.2097 O   0  0  0  0  0  0  0  0  0  0  0  0
  -33.4216  -27.0371   20.8026 O   0  0  0  0  0  0  0  0  0  0  0  0
  -34.7107  -27.8152   17.3489 O   0  0  0  0  0  0  0  0  0  0  0  0
  -31.3964  -25.1529   15.2398 O   0  0  0  0  0  0  0  0  0  0  0  0
  -31.8411  -14.8493   20.2332 O   0  0  0  0  0  0  0  0  0  0  0  0
  -21.4799   -7.0947   21.8064 O   0  0  0  0  0  0  0  0  0  0  0  0
  -30.9610  -20.9224   20.5563 O   0  0  0  0  0  0  0  0  0  1  0  0
  -23.8138   -3.0997   24.8059 F   0  0  0  0  0  0  0  0  0  0  0  0
  -20.3822   -6.3067   24.2182 F   0  0  0  0  0  0  0  0  0  0  0  0
  1  2  1  0  0  0  0
  1  5  2  0  0  0  0
  2  6  2  0  0  0  0
  3 10  2  0  0  0  0
  3 18  1  0  0  0  0
  4 11  1  0  0  0  0
  4 18  2  0  0  0  0
  5 21  1  0  0  0  0
  6 23  1  0  0  0  0
  7 12  2  0  0  0  0
  7 22  1  0  0  0  0
  8  9  2  0  0  0  0
  8 25  1  0  0  0  0
  9 26  1  0  0  0  0
 10 27  1  0  0  0  0
 11 27  2  0  0  0  0
 12 28  1  0  0  0  0
 13 14  2  0  0  0  0
 13 29  1  0  0  0  0
 14 30  1  0  0  0  0
 15 19  1  0  0  0  0
 15 25  2  0  0  0  0
 16 24  1  0  0  0  0
 16 28  2  0  0  0  0
 17 30  2  0  0  0  0
 17 31  1  0  0  0  0
 18 32  1  0  0  0  0
 19 26  2  0  0  0  0
 19 34  1  0  0  0  0
 20 32  1  0  0  0  0
 20 33  2  0  0  0  0
 20 35  1  0  0  0  0
 21 23  2  0  0  0  0
 21 40  1  0  0  0  0
 22 24  2  0  0  0  0
 22 41  1  0  0  0  0
 23 49  1  0  0  0  0
 24 42  1  0  0  0  0
 25 78  1  0  0  0  0
 26 75  1  0  0  0  0
 27 88  1  0  0  0  0
 28 89  1  0  0  0  0
 29 31  2  0  0  0  0
 29 88  1  0  0  0  0
 30 90  1  0  0  0  0
 31 91  1  0  0  0  0
 32 69  2  0  0  0  0
 33 70  1  0  0  0  0
 33 73  1  0  0  0  0
 34 79  1  0  0  0  0
 34 82  2  0  0  0  0
 35 74  1  0  0  0  0
 35 83  2  0  0  0  0
 36 50  1  0  0  0  0
 36 76  1  0  0  0  0
 36 84  2  0  0  0  0
 37 66  1  0  0  0  0
 37 71  1  0  0  0  0
 37 85  2  0  0  0  0
 38 67  1  0  0  0  0
 38 77  1  0  0  0  0
 38 86  2  0  0  0  0
 39 72  1  0  0  0  0
 39 75  1  0  0  0  0
 39 87  2  0  0  0  0
 40 43  1  0  0  0  0
 41 50  1  0  0  0  0
 42 71  1  0  0  0  0
 43 45  1  0  0  0  0
 44 46  1  0  0  0  0
 44 47  1  0  0  0  0
 45 49  1  0  0  0  0
 46 51  1  0  0  0  0
 47 72  1  0  0  0  0
 48 51  1  0  0  0  0
 48 72  1  0  0  0  0
 49 76  1  0  0  0  0
 50 71  1  0  0  0  0
 51 70  1  0  0  0  0
 52 67  1  0  0  0  0
 53 68  1  0  0  0  0
 54 68  1  0  0  0  0
 55 68  1  0  0  0  0
 56 78  1  0  0  0  0
 57 79  1  0  0  0  0
 58 80  1  0  0  0  0
 59 81  1  0  0  0  0
 60 81  1  0  0  0  0
 61 62  1  0  0  0  0
 61 65  1  0  0  0  0
 62 79  1  0  0  0  0
 63 64  1  0  0  0  0
 63 78  1  0  0  0  0
 64 81  1  0  0  0  0
 65 89  1  0  0  0  0
 66 68  1  0  0  0  0
 66 77  1  0  0  0  0
 67 80  1  0  0  0  0
 69 70  1  0  0  0  0
M  CHG  2  80   1  81   1
M  ISO  4  39 100  65 101  75 100  89 101
M  END
> <Batch ID>
0008

> <Smiles>
CNC(C)C(=O)NC(C(=O)N1Cc2cc([101O:1][101CH2:1]CCN(C)C(=O)c3cc(N(C)CCN(C)C)ccc3[100NH:0][100C:0](=O)N3CCCC(n4nc(-c5ccc(Oc6ccc(F)cc6F)cc5)c(C(N)=O)c4N)C3)ccc2CC1C(=O)NC1CCCc2ccccc21)C(C)(C)C

> <Shape>
0.198

> <Color>
0.194

> <Negative vol penalty>
0.000

$$$$

  -OEChem-04052315363D

 80 88  0     1  0  0  0  0  0999 V2000
  -19.4636  -33.5002   16.0796 C   0  0  0  0  0  0  0  0  0  0  0  0
  -20.0329  -32.2439   16.2617 C   0  0  0  0  0  0  0  0  0  0  0  0
  -27.9364  -22.3148   16.7328 C   0  0  0  0  0  0  0  0  0  0  0  0
  -26.4809  -12.8129   21.6065 C   0  0  0  0  0  0  0  0  0  0  0  0
  -26.0190  -13.7829   19.4425 C   0  0  0  0  0  0  0  0  0  0  0  0
  -20.2184  -34.6477   16.3193 C   0  0  0  0  0  0  0  0  0  0  0  0
  -21.3578  -32.1345   16.6825 C   0  0  0  0  0  0  0  0  0  0  0  0
  -23.7136  -27.8275   20.3439 C   0  0  0  0  0  0  0  0  0  0  0  0
  -28.4670  -21.3005   17.5299 C   0  0  0  0  0  0  0  0  0  0  0  0
  -25.2335  -12.1890   21.5931 C   0  0  0  0  0  0  0  0  0  0  0  0
  -24.7716  -13.1589   19.4290 C   0  0  0  0  0  0  0  0  0  0  0  0
  -24.4241  -26.6574   20.0793 C   0  0  0  0  0  0  0  0  0  0  0  0
  -23.8271   -9.4627   20.1710 C   0  0  0  0  0  0  0  0  0  0  0  0
  -23.7680   -8.1235   20.5567 C   0  0  0  0  0  0  0  0  0  0  0  0
  -27.7974  -23.6044   17.2460 C   0  0  0  0  0  0  0  0  0  0  0  0
  -26.4951  -27.8403   20.4411 C   0  0  0  0  0  0  0  0  0  0  0  0
  -28.7192  -22.8653   19.3533 C   0  0  0  0  0  0  0  0  0  0  0  0
  -22.2593   -8.7071   22.3513 C   0  0  0  0  0  0  0  0  0  0  0  0
  -26.8737  -13.6100   20.5312 C   0  0  0  0  0  0  0  0  0  0  0  0
  -29.3763  -13.7393   20.0540 C   0  0  0  0  0  0  0  0  0  0  0  0
  -21.5502  -34.5523   16.7526 C   0  0  0  0  0  0  0  0  0  0  0  0
  -24.3901  -29.0173   20.6489 C   0  0  0  0  0  0  0  0  0  0  0  0
  -22.1315  -33.2818   16.9270 C   0  0  0  0  0  0  0  0  0  0  0  0
  -25.7908  -29.0234   20.7117 C   0  0  0  0  0  0  0  0  0  0  0  0
  -28.8583  -21.5757   18.8401 C   0  0  0  0  0  0  0  0  0  0  0  0
  -24.3788  -12.3620   20.5044 C   0  0  0  0  0  0  0  0  0  0  0  0
  -25.8151  -26.6644   20.1250 C   0  0  0  0  0  0  0  0  0  0  0  0
  -23.1024  -10.4241   20.8755 C   0  0  0  0  0  0  0  0  0  0  0  0
  -22.9841   -7.7457   21.6468 C   0  0  0  0  0  0  0  0  0  0  0  0
  -22.3185  -10.0463   21.9656 C   0  0  0  0  0  0  0  0  0  0  0  0
  -28.1887  -23.8796   18.5562 C   0  0  0  0  0  0  0  0  0  0  0  0
  -28.1619  -14.2552   20.5447 C   0  0  0  0  0  0  0  0  0  0  0  0
  -30.2950  -14.7299   20.3010 C   0  0  0  0  0  0  0  0  0  0  0  0
  -29.6495  -12.4774   19.4305 C   0  0  0  0  0  0  0  0  0  0  0  0
  -24.5956  -31.8893   19.3023 C   0  0  0  0  0  0  0  0  0  0  0  0
  -26.2762  -32.5972   21.9849 C   0  0  0  0  0  0  0  0  0  0  0  0
  -28.1823  -31.4841   24.5878 C   0  0  0  0  0  0  0  0  0  0  0  0
  -29.8346  -20.6499   20.9699 C   0  0  0  0  0  0  0  0  0  0  0  0
  -22.3409  -35.8208   16.9533 C   0  0  0  0  0  0  0  0  0  0  0  0
  -23.6083  -30.2646   20.9580 C   0  0  0  0  0  0  0  0  0  0  0  0
  -26.5639  -30.2698   21.0543 C   0  0  0  0  0  0  0  0  0  0  0  0
  -23.6225  -35.6188   17.7577 C   0  0  0  0  0  0  0  0  0  0  0  0
  -31.1891  -18.3406   23.3172 C   0  0  0  0  0  0  0  0  0  0  0  0
  -24.3873  -34.4019   17.2467 C   0  0  0  0  0  0  0  0  0  0  0  0
  -30.6820  -16.9833   22.8245 C   0  0  0  0  0  0  0  0  0  0  0  0
  -30.1484  -19.4411   23.1183 C   0  0  0  0  0  0  0  0  0  0  0  0
  -29.1122  -18.1985   21.2605 C   0  0  0  0  0  0  0  0  0  0  0  0
  -23.5580  -33.1220   17.4064 C   0  0  1  0  0  0  0  0  0  0  0  0
  -24.4162  -31.5424   20.7532 C   0  0  1  0  0  0  0  0  0  0  0  0
  -30.1503  -17.0708   21.3805 C   0  0  2  0  0  0  0  0  0  0  0  0
  -29.4442  -32.3025   26.5965 C   0  0  0  0  0  0  0  0  0  0  0  0
  -28.5135  -33.5991   20.1682 C   0  0  0  0  0  0  0  0  0  0  0  0
  -30.0593  -33.5031   22.1354 C   0  0  0  0  0  0  0  0  0  0  0  0
  -28.0834  -35.0252   22.1771 C   0  0  0  0  0  0  0  0  0  0  0  0
  -26.4932  -29.9063   26.4361 C   0  0  0  0  0  0  0  0  0  0  0  0
  -27.7306  -32.5303   22.3842 C   0  0  1  0  0  0  0  0  0  0  0  0
  -28.1180  -31.7691   26.0774 C   0  0  2  0  0  0  0  0  0  0  0  0
  -28.5825  -33.6412   21.7078 C   0  0  0  0  0  0  0  0  0  0  0  0
  -28.2939  -15.4786   21.0643 N   0  0  0  0  0  0  0  0  0  0  0  0
  -29.6021  -15.7396   20.9016 N   0  0  0  0  0  0  0  0  0  0  0  0
  -25.7545  -31.4654   21.3424 N   0  0  0  0  0  0  0  0  0  0  0  0
  -29.6938  -19.4671   21.7263 N   0  0  0  0  0  0  0  0  0  0  0  0
  -31.6199  -14.8271   20.0610 N   0  0  0  0  0  0  0  0  0  0  0  0
  -28.5905  -11.5764   19.2536 N   0  0  0  0  0  0  0  0  0  0  0  0
  -29.3975  -20.5455   19.6498 N   0  0  0  0  0  0  0  0  0  0  0  0
  -23.5828  -32.6720   18.7816 N   0  0  0  0  0  0  0  0  0  0  0  0
  -27.7554  -32.5628   23.8425 N   0  0  0  0  0  0  0  0  0  0  0  0
  -27.7851  -30.5259   26.8288 N   0  3  0  0  0  0  0  0  0  0  0  0
  -30.8017  -12.1515   19.0568 O   0  0  0  0  0  0  0  0  0  0  0  0
  -25.5807  -31.4786   18.7002 O   0  0  0  0  0  0  0  0  0  0  0  0
  -25.6251  -33.6133   22.2404 O   0  0  0  0  0  0  0  0  0  0  0  0
  -28.5756  -30.4131   24.1309 O   0  0  0  0  0  0  0  0  0  0  0  0
  -30.3332  -21.6714   21.4494 O   0  0  0  0  0  0  0  0  0  0  0  0
  -28.0090  -26.4142   18.0685 O   0  0  0  0  0  0  0  0  0  0  0  0
  -28.9991  -25.6208   20.2627 O   0  0  0  0  0  0  0  0  0  0  0  0
  -23.1616  -11.7531   20.4908 O   0  0  0  0  0  0  0  0  0  0  0  0
  -26.5110  -25.5239   19.8665 O   0  0  0  0  0  0  0  0  0  1  0  0
  -22.9261   -6.4595   22.0161 F   0  0  0  0  0  0  0  0  0  0  0  0
  -21.6192  -10.9652   22.6456 F   0  0  0  0  0  0  0  0  0  0  0  0
  -28.0114  -25.5133   19.2061 S   0  0  0  0  0  0  0  0  0  1  0  0
  1  2  1  0  0  0  0
  1  6  2  0  0  0  0
  2  7  2  0  0  0  0
  3  9  1  0  0  0  0
  3 15  2  0  0  0  0
  4 10  2  0  0  0  0
  4 19  1  0  0  0  0
  5 11  1  0  0  0  0
  5 19  2  0  0  0  0
  6 21  1  0  0  0  0
  7 23  1  0  0  0  0
  8 12  2  0  0  0  0
  8 22  1  0  0  0  0
  9 25  2  0  0  0  0
 10 26  1  0  0  0  0
 11 26  2  0  0  0  0
 12 27  1  0  0  0  0
 13 14  2  0  0  0  0
 13 28  1  0  0  0  0
 14 29  1  0  0  0  0
 15 31  1  0  0  0  0
 16 24  1  0  0  0  0
 16 27  2  0  0  0  0
 17 25  1  0  0  0  0
 17 31  2  0  0  0  0
 18 29  2  0  0  0  0
 18 30  1  0  0  0  0
 19 32  1  0  0  0  0
 20 32  1  0  0  0  0
 20 33  2  0  0  0  0
 20 34  1  0  0  0  0
 21 23  2  0  0  0  0
 21 39  1  0  0  0  0
 22 24  2  0  0  0  0
 22 40  1  0  0  0  0
 23 48  1  0  0  0  0
 24 41  1  0  0  0  0
 25 65  1  0  0  0  0
 26 76  1  0  0  0  0
 27 77  1  0  0  0  0
 28 30  2  0  0  0  0
 28 76  1  0  0  0  0
 29 78  1  0  0  0  0
 30 79  1  0  0  0  0
 31 80  1  0  0  0  0
 32 59  2  0  0  0  0
 33 60  1  0  0  0  0
 33 63  1  0  0  0  0
 34 64  1  0  0  0  0
 34 69  2  0  0  0  0
 35 49  1  0  0  0  0
 35 66  1  0  0  0  0
 35 70  2  0  0  0  0
 36 56  1  0  0  0  0
 36 61  1  0  0  0  0
 36 71  2  0  0  0  0
 37 57  1  0  0  0  0
 37 67  1  0  0  0  0
 37 72  2  0  0  0  0
 38 62  1  0  0  0  0
 38 65  1  0  0  0  0
 38 73  2  0  0  0  0
 39 42  1  0  0  0  0
 40 49  1  0  0  0  0
 41 61  1  0  0  0  0
 42 44  1  0  0  0  0
 43 45  1  0  0  0  0
 43 46  1  0  0  0  0
 44 48  1  0  0  0  0
 45 50  1  0  0  0  0
 46 62  1  0  0  0  0
 47 50  1  0  0  0  0
 47 62  1  0  0  0  0
 48 66  1  0  0  0  0
 49 61  1  0  0  0  0
 50 60  1  0  0  0  0
 51 57  1  0  0  0  0
 52 58  1  0  0  0  0
 53 58  1  0  0  0  0
 54 58  1  0  0  0  0
 55 68  1  0  0  0  0
 56 58  1  0  0  0  0
 56 67  1  0  0  0  0
 57 68  1  0  0  0  0
 59 60  1  0  0  0  0
 74 80  2  0  0  0  0
 75 80  2  0  0  0  0
 77 80  1  0  0  0  0
M  CHG  1  68   1
M  ISO  4  38 100  65 100  77 101  80 101
M  END
> <Batch ID>
0008

> <Smiles>
CNC(C)C(=O)NC(C(=O)N1Cc2cc([101O:1][101S:1](=O)(=O)c3cccc([100NH:0][100C:0](=O)N4CCCC(n5nc(-c6ccc(Oc7ccc(F)cc7F)cc6)c(C(N)=O)c5N)C4)c3)ccc2CC1C(=O)NC1CCCc2ccccc21)C(C)(C)C

> <Shape>
0.276

> <Color>
0.082

> <Negative vol penalty>
0.000

$$$$
